Infrared Spectrum: trans-2-undecenoic acid
Formula: C 11 H 20 O 2
CAS: 15790-94-0
State: gas
Origin: EPA-IR VAPOR PHASE LIBRARY
1/CM	ABSORBANCE
549.8	0.007346
559.445	0.008466
569.09	0.007856
578.734	0.006816
588.379	0.004746
598.024	0.003316
607.669	0.003086
617.313	0.004046
626.958	0.005906
636.603	0.005106
646.248	0.006836
655.893	0.005676
665.537	0.003626
675.182	0.003336
684.827	0.003326
694.472	0.003166
704.116	0.004096
713.761	0.003906
723.406	0.003106
733.051	0.002726
742.695	0.002256
752.34	0.002046
761.985	0.0015475
771.63	0.002086
781.275	0.001666
790.919	0.001576
800.564	0.001806
810.209	0.002046
819.854	0.002206
829.498	0.002026
839.143	0.002366
848.788	0.002546
858.433	0.002686
868.078	0.002596
877.722	0.002946
887.367	0.002606
897.012	0.002366
906.657	0.002456
916.301	0.002356
925.946	0.002226
935.591	0.002746
945.236	0.002806
954.88	0.003496
964.525	0.004426
974.17	0.006726
983.815	0.007166
993.46	0.005076
1003.1	0.004026
1012.75	0.003976
1022.39	0.003636
1032.04	0.003376
1041.68	0.003816
1051.33	0.005016
1060.97	0.005346
1070.62	0.005776
1080.26	0.007056
1089.91	0.010736
1099.55	0.017226
1109.2	0.023226
1118.84	0.023116
1128.49	0.021456
1138.13	0.019456
1147.78	0.018486
1157.42	0.017046
1167.07	0.014276
1176.71	0.009676
1186.36	0.007116
1196	0.004546
1205.64	0.004506
1215.29	0.003936
1224.93	0.003566
1234.58	0.004466
1244.22	0.004646
1253.87	0.005526
1263.51	0.005746
1273.16	0.005286
1282.8	0.004966
1292.45	0.005006
1302.09	0.005046
1311.74	0.004996
1321.38	0.005046
1331.03	0.006206
1340.67	0.008426
1350.32	0.010746
1359.96	0.011416
1369.61	0.009806
1379.25	0.006196
1388.9	0.004076
1398.54	0.002916
1408.18	0.002536
1417.83	0.002406
1427.47	0.002806
1437.12	0.003686
1446.76	0.004576
1456.41	0.005066
1466.05	0.004726
1475.7	0.003586
1485.34	0.002256
1494.99	0.001716
1504.63	0.0014392
1514.28	0.0014165
1523.92	0.0012288
1533.57	0.001097
1543.21	0.0011525
1552.86	0.0010433
1562.5	0.0011909
1572.15	0.0008968
1581.79	0.0012109
1591.44	0.0010674
1601.08	0.0011925
1610.73	0.0011411
1620.37	0.001856
1630.01	0.002686
1639.66	0.005176
1649.3	0.010046
1658.95	0.011616
1668.59	0.004846
1678.24	0.002496
1687.88	0.002186
1697.53	0.002616
1707.17	0.003786
1716.82	0.005836
1726.46	0.009136
1736.11	0.015886
1745.75	0.028876
1755.4	0.048176
1765.04	0.044936
1774.69	0.024386
1784.33	0.013596
1793.98	0.007756
1803.62	0.004326
1813.27	0.002846
1822.91	0.002216
1832.55	0.001666
1842.2	0.001606
1851.84	0.0013423
1861.49	0.0012291
1871.13	0.0011325
1880.78	0.0009935
1890.42	0.0010252
1900.07	0.0011565
1909.71	0.000896
1919.36	0.0008366
1929	0.0011836
1938.65	0.0010201
1948.29	0.0008357
1957.94	0.0009422
1967.58	0.0007506
1977.23	0.0008588
1986.87	0.0009657
1996.52	0.0007867
2006.16	0.0010727
2015.81	0.0010369
2025.45	0.00098
2035.1	0.0010635
2044.74	0.0010085
2054.38	0.0008972
2064.03	0.000965
2073.67	0.0008702
2083.32	0.0010887
2092.96	0.0009664
2102.61	0.0008811
2112.25	0.0008787
2121.9	0.0007939
2131.54	0.0007766
2141.19	0.0008655
2150.83	0.0008968
2160.48	0.0008874
2170.12	0.0008894
2179.77	0.0008766
2189.41	0.0009743
2199.06	0.000904
2208.7	0.0007187
2218.35	0.0010199
2227.99	0.0009451
2237.64	0.0010911
2247.28	0.0008409
2256.92	0.0009576
2266.57	0.0010511
2276.21	0.0008332
2285.86	0.0010408
2295.5	0.0009548
2305.15	0.0010125
2314.79	0.0010529
2324.44	0.0008983
2334.08	0.0009992
2343.73	0.0008852
2353.37	0.0007931
2363.02	0.0009129
2372.66	0.00095
2382.31	0.001019
2391.95	0.0009675
2401.6	0.0008896
2411.24	0.0009054
2420.89	0.0009368
2430.53	0.0009339
2440.18	0.0008845
2449.82	0.0007419
2459.47	0.0008391
2469.11	0.000985
2478.75	0.0007716
2488.4	0.0008209
2498.04	0.00064202
2507.69	0.000871
2517.33	0.0010846
2526.98	0.0007974
2536.62	0.0008287
2546.27	0.0008033
2555.91	0.0008234
2565.56	0.0007224
2575.2	0.0008935
2584.85	0.0008524
2594.49	0.0009064
2604.14	0.0008119
2613.78	0.0009926
2623.43	0.0007036
2633.07	0.0009481
2642.72	0.0009784
2652.36	0.0009854
2662.01	0.0011344
2671.65	0.0011664
2681.29	0.0013448
2690.94	0.0011921
2700.58	0.001218
2710.23	0.0012434
2719.87	0.0010436
2729.52	0.0014708
2739.16	0.0012684
2748.81	0.0013644
2758.45	0.000917
2768.1	0.0011928
2777.74	0.0012914
2787.39	0.001596
2797.03	0.001826
2806.68	0.002326
2816.32	0.002826
2825.97	0.003046
2835.61	0.004036
2845.26	0.006706
2854.9	0.012176
2864.55	0.017806
2874.19	0.015736
2883.84	0.012876
2893.48	0.011446
2903.12	0.014006
2912.77	0.019886
2922.41	0.032236
2932.06	0.049396
2941.7	0.043996
2951.35	0.025786
2960.99	0.019546
2970.64	0.017616
2980.28	0.009826
2989.93	0.005786
2999.57	0.004476
3009.22	0.002906
3018.86	0.002876
3028.51	0.002856
3038.15	0.002316
3047.8	0.002126
3057.44	0.001806
3067.09	0.001796
3076.73	0.0014923
3086.38	0.0013471
3096.02	0.0009792
3105.67	0.0011922
3115.31	0.001786
3124.95	0.0012063
3134.6	0.0008775
3144.24	0.0012026
3153.89	0.0007614
3163.53	0.0011201
3173.18	0.0009768
3182.82	0.0011562
3192.47	0.0011574
3202.11	0.0007458
3211.76	0.0007416
3221.4	0.0009058
3231.05	0.0004775
3240.69	0.0007449
3250.34	0.0008857
3259.98	0.0008128
3269.63	0.0008693
3279.27	0.0005008
3288.92	0.0005454
3298.56	0.0009916
3308.21	0.0011132
3317.85	0.00065093
3327.49	0.0010163
3337.14	0.000557467
3346.78	0.0010214
3356.43	0.0009095
3366.07	0.0011144
3375.72	0.0014205
3385.36	0.0007225
3395.01	0.0010805
3404.65	0.001756
3414.3	0.0013623
3423.94	0.0009041
3433.59	0.0009878
3443.23	0.0007881
3452.88	0.0009823
3462.52	0.0007553
3472.17	0.0007388
3481.81	0.000812
3491.46	0.0015149
3501.1	0.001606
3510.75	0.0010473
3520.39	0.00059174
3530.04	0.0008769
3539.68	0.0008215
3549.32	0.0007028
3558.97	0.001726
3568.61	0.003796
3578.26	0.017416
3587.9	0.017056
3597.55	0.003876
3607.19	0.0012077
3616.84	0.0009468
3626.48	0.0006718
3636.13	0.0013371
3645.77	0.0010023
3655.42	0.00061915
3665.06	0.0008107
3674.71	0.0009375
3684.35	0.0008611
3694	0.0007165
3703.64	0.0006909
3713.29	0.0004677
3722.93	0.0006806
3732.58	0.0007359
3742.22	0.0004574
3751.86	0.00054733
3761.51	0.00057004
3771.15	0.000527
3780.8	0.0006034
3790.44	0.0014022
3800.09	0.0008877
3809.73	0.00057274
3819.38	0.000874
3829.02	0.0010431
3838.67	0.000284
3848.31	0.0009743
3857.96	0.00065138
3867.6	0.000192
3877.25	0.0008112
3886.89	0.0004831
3896.54	0.0008221
3906.18	0.0007047
3915.83	0.000877
3925.47	0.0010785
3935.12	0.0011073
3944.76	0.00028
3954.41	0.000433
3964.05	0.0010074
3973.69	0
3983.34	0.00060092
3992.98	0.0007046
