Infrared Spectrum: 4-Bromo-1,3,5-trimethylpyrazole
Formula: C 6 H 9 Br N 2
CAS: 15801-69-1
State: gas
Origin: EPA-IR VAPOR PHASE LIBRARY
1/CM	ABSORBANCE
549.8	0.0017281
559.445	0.00292
569.09	0.0024
578.734	0.00516
588.379	0.00571
598.024	0.00309
607.669	0.00257
617.313	0.0018105
626.958	0.0017998
636.603	0.00331
646.248	0.00288
655.893	0.00614
665.537	0.01031
675.182	0.00785
684.827	0.00281
694.472	0.0022086
704.116	0.0022623
713.761	0.0022718
723.406	0.00322
733.051	0.00256
742.695	0.0020169
752.34	0.0017762
761.985	0.0017378
771.63	0.0028
781.275	0.00243
790.919	0.00265
800.564	0.0027
810.209	0.00361
819.854	0.00692
829.498	0.00737
839.143	0.00371
848.788	0.002224
858.433	0.0020995
868.078	0.00379
877.722	0.00367
887.367	0.00257
897.012	0.00258
906.657	0.00269
916.301	0.0021858
925.946	0.002031
935.591	0.0021733
945.236	0.00286
954.88	0.00307
964.525	0.00343
974.17	0.00488
983.815	0.00763
993.46	0.00642
1003.1	0.0076
1012.75	0.00961
1022.39	0.01422
1032.04	0.01566
1041.68	0.01328
1051.33	0.01753
1060.97	0.02775
1070.62	0.03987
1080.26	0.03223
1089.91	0.01486
1099.55	0.00767
1109.2	0.00593
1118.84	0.00491
1128.49	0.00464
1138.13	0.0055
1147.78	0.00376
1157.42	0.00518
1167.07	0.00604
1176.71	0.00817
1186.36	0.0114
1196	0.00995
1205.64	0.00676
1215.29	0.00628
1224.93	0.00777
1234.58	0.00898
1244.22	0.00865
1253.87	0.01032
1263.51	0.01459
1273.16	0.02236
1282.8	0.03073
1292.45	0.02373
1302.09	0.01104
1311.74	0.00771
1321.38	0.0077
1331.03	0.00795
1340.67	0.01026
1350.32	0.01532
1359.96	0.02334
1369.61	0.0299
1379.25	0.03484
1388.9	0.0312
1398.54	0.01822
1408.18	0.01401
1417.83	0.01641
1427.47	0.01913
1437.12	0.0203
1446.76	0.0226
1456.41	0.02673
1466.05	0.03339
1475.7	0.03773
1485.34	0.02936
1494.99	0.01617
1504.63	0.01068
1514.28	0.00952
1523.92	0.01121
1533.57	0.01492
1543.21	0.02074
1552.86	0.02189
1562.5	0.01542
1572.15	0.00828
1581.79	0.00555
1591.44	0.00486
1601.08	0.00443
1610.73	0.00374
1620.37	0.00384
1630.01	0.00334
1639.66	0.00322
1649.3	0.00306
1658.95	0.00302
1668.59	0.00306
1678.24	0.00255
1687.88	0.00259
1697.53	0.00241
1707.17	0.00285
1716.82	0.00274
1726.46	0.0023529
1736.11	0.00245
1745.75	0.0023615
1755.4	0.0022885
1765.04	0.0020974
1774.69	0.0020329
1784.33	0.0020937
1793.98	0.0020766
1803.62	0.0019042
1813.27	0.0017484
1822.91	0.0018569
1832.55	0.001961
1842.2	0.0019586
1851.84	0.0016973
1861.49	0.0016452
1871.13	0.0016015
1880.78	0.001773
1890.42	0.0017288
1900.07	0.0016524
1909.71	0.0015808
1919.36	0.0015647
1929	0.0015936
1938.65	0.0015266
1948.29	0.0016952
1957.94	0.0017117
1967.58	0.001687
1977.23	0.0015716
1986.87	0.0013457
1996.52	0.0016532
2006.16	0.0014959
2015.81	0.00158
2025.45	0.0016467
2035.1	0.0017981
2044.74	0.0016739
2054.38	0.0015598
2064.03	0.0016256
2073.67	0.0016666
2083.32	0.0016351
2092.96	0.0013801
2102.61	0.00146648
2112.25	0.0016654
2121.9	0.0017582
2131.54	0.0017145
2141.19	0.0016677
2150.83	0.0018124
2160.48	0.00143785
2170.12	0.00139766
2179.77	0.00145046
2189.41	0.0016572
2199.06	0.0013463
2208.7	0.0013361
2218.35	0.0013647
2227.99	0.0012938
2237.64	0.00186
2247.28	0.001359
2256.92	0.001187
2266.57	0.0018732
2276.21	0.0017039
2285.86	0.0015362
2295.5	0.0018704
2305.15	0.001498
2314.79	0.0016604
2324.44	0.0017124
2334.08	0.0016069
2343.73	0.0018136
2353.37	0.001263
2363.02	0.001241
2372.66	0.001218
2382.31	0.0019017
2391.95	0.0015509
2401.6	0.001515
2411.24	0.0015671
2420.89	0.0015565
2430.53	0.0016268
2440.18	0.0016428
2449.82	0.0015943
2459.47	0.0018014
2469.11	0.0018709
2478.75	0.0020722
2488.4	0.0018798
2498.04	0.0016578
2507.69	0.0021795
2517.33	0.001329
2526.98	0.0019124
2536.62	0.0018948
2546.27	0.0020599
2555.91	0.0016221
2565.56	0.0022045
2575.2	0.0018911
2584.85	0.0017567
2594.49	0.0021026
2604.14	0.0015847
2613.78	0.0020141
2623.43	0.0016505
2633.07	0.0016804
2642.72	0.0016225
2652.36	0.0020773
2662.01	0.0019701
2671.65	0.0017158
2681.29	0.0016516
2690.94	0.001667
2700.58	0.00185
2710.23	0.0020208
2719.87	0.001819
2729.52	0.00274
2739.16	0.00293
2748.81	0.00324
2758.45	0.00315
2768.1	0.00306
2777.74	0.00241
2787.39	0.00336
2797.03	0.00347
2806.68	0.00456
2816.32	0.00603
2825.97	0.00727
2835.61	0.00783
2845.26	0.00831
2854.9	0.00906
2864.55	0.01118
2874.19	0.01328
2883.84	0.01622
2893.48	0.01867
2903.12	0.01988
2912.77	0.02165
2922.41	0.0296
2932.06	0.04435
2941.7	0.05356
2951.35	0.05343
2960.99	0.04169
2970.64	0.02451
2980.28	0.01615
2989.93	0.01329
2999.57	0.01187
3009.22	0.00965
3018.86	0.00804
3028.51	0.00822
3038.15	0.0086
3047.8	0.00946
3057.44	0.00906
3067.09	0.00785
3076.73	0.00663
3086.38	0.00532
3096.02	0.00423
3105.67	0.00306
3115.31	0.00276
3124.95	0.003
3134.6	0.00283
3144.24	0.0021582
3153.89	0.0017229
3163.53	0.001948
3173.18	0.0019702
3182.82	0.0015376
3192.47	0.0013619
3202.11	0.0018089
3211.76	0.00142449
3221.4	0.001523
3231.05	0.000764
3240.69	0.0015142
3250.34	0.001272
3259.98	0.0013377
3269.63	0.001236
3279.27	0.00146847
3288.92	0.00138814
3298.56	0.001266
3308.21	0.000814
3317.85	0.001113
3327.49	0.001107
3337.14	0.0016954
3346.78	0.0016402
3356.43	0.0015514
3366.07	0.00147858
3375.72	0.0017163
3385.36	0.000999
3395.01	0.0015506
3404.65	0.0015372
3414.3	0.000976
3423.94	0.001022
3433.59	0.001226
3443.23	0.00143903
3452.88	0.000925
3462.52	0.0015035
3472.17	0.0013677
3481.81	0.00139252
3491.46	0.000754
3501.1	0.001898
3510.75	0.0020156
3520.39	0.00145454
3530.04	0.0013565
3539.68	0.0013116
3549.32	0.001677
3558.97	0.000982
3568.61	0.000812
3578.26	0.001254
3587.9	0.000771
3597.55	0.0013215
3607.19	0.00139267
3616.84	0.0013687
3626.48	0.002032
3636.13	0.000671
3645.77	0.0017263
3655.42	0.001674
3665.06	0.001228
3674.71	0.0013462
3684.35	0.000869
3694	0.000918
3703.64	0.0017313
3713.29	0.00147085
3722.93	0.00117
3732.58	0.000731
3742.22	0.0015996
3751.86	0.000898
3761.51	0.001089
3771.15	0.0016794
3780.8	0.001025
3790.44	0.00146189
3800.09	0.000847
3809.73	0.001153
3819.38	0.001194
3829.02	0.000797
3838.67	0.0015651
3848.31	0.0013441
3857.96	0.001104
3867.6	0.00113
3877.25	0.00125
3886.89	0.000971
3896.54	0.0017392
3906.18	0.001544
3915.83	0.0017629
3925.47	0.0015554
3935.12	0.0013561
3944.76	0.0017137
3954.41	0.001126
3964.05	0.00112
3973.69	0.001059
3983.34	0.001148
3992.98	0.0016492
