Infrared Spectrum: 2,3-DIHYDROXYQUINOXALINE
Formula: C8 H6 N2 O2
CAS: 15804-19-0
State: SOLID (MINERAL OIL MULL)
Class: COBLENTZ
Instrument: Not specified, most likely a prism, grating, or hybrid spectrometer.
Sampling: TRANSMISSION
Resolution: 4
Origin: WYANDOTTE CHEMICALS CORP., WYANDOTTE, MICHIGAN, USA
MICROMETERS	TRANSMITTANCE
2.019	0.323
2.0561	0.334
2.0932	0.342
2.13031	0.347
2.16741	0.352
2.20451	0.342
2.24161	0.339
2.27871	0.341
2.31581	0.338
2.35292	0.341
2.39002	0.347
2.42712	0.361
2.46422	0.364
2.50132	0.375
2.53842	0.381
2.57553	0.394
2.61263	0.401
2.64973	0.401
2.68683	0.419
2.72393	0.423
2.76104	0.431
2.79814	0.437
2.83524	0.44
2.87234	0.434
2.90944	0.443
2.94654	0.437
2.98365	0.448
3.02075	0.428
3.05785	0.406
3.09495	0.375
3.13205	0.269
3.16915	0.158
3.20626	0.123
3.24336	0.101
3.28046	0.084
3.31756	0.073
3.35466	0.063
3.39177	0.035
3.42887	0.029
3.46597	0.034
3.50307	0.035
3.54017	0.048
3.57727	0.098
3.61438	0.119
3.65148	0.135
3.68858	0.157
3.72568	0.202
3.76278	0.222
3.79988	0.275
3.83699	0.305
3.87409	0.32
3.91119	0.328
3.94829	0.342
3.98539	0.373
4.0225	0.397
4.0596	0.414
4.0967	0.429
4.1338	0.45
4.1709	0.442
4.208	0.439
4.24511	0.448
4.28221	0.454
4.31931	0.47
4.35641	0.503
4.39351	0.52
4.43062	0.531
4.46772	0.543
4.50482	0.552
4.54192	0.565
4.57902	0.573
4.61612	0.576
4.65323	0.593
4.69033	0.615
4.72743	0.626
4.76453	0.641
4.80163	0.654
4.83873	0.68
4.87584	0.699
4.91294	0.702
4.95004	0.718
4.98714	0.736
5.02424	0.744
5.06135	0.761
5.09845	0.767
5.13555	0.733
5.17265	0.771
5.20975	0.836
5.24685	0.814
5.28396	0.861
5.32106	0.922
5.35816	0.925
5.39526	0.931
5.43236	0.785
5.46946	0.805
5.50657	0.926
5.54367	0.981
5.58077	0.898
5.61787	0.752
5.65497	0.587
5.69208	0.51
5.72918	0.487
5.76628	0.26
5.80338	0.11
5.84048	0.084
5.87758	0.088
5.91469	0.062
5.95179	0.052
5.98889	0.051
6.02599	0.054
6.06309	0.066
6.10019	0.073
6.1373	0.087
6.1744	0.077
6.2115	0.09
6.2486	0.104
6.2857	0.135
6.32281	0.163
6.35991	0.19
6.39701	0.222
6.43411	0.225
6.47121	0.26
6.50831	0.281
6.54542	0.303
6.58252	0.352
6.61962	0.233
6.65672	0.222
6.69382	0.244
6.73092	0.141
6.76803	0.068
6.80513	0.065
6.84223	0.077
6.87933	0.101
6.91643	0.166
6.95354	0.281
6.99064	0.355
7.02774	0.199
7.06484	0.35
7.10194	0.415
7.13904	0.222
7.17615	0.074
7.21325	0.063
7.25035	0.07
7.28745	0.121
7.32455	0.165
7.36165	0.236
7.39876	0.246
7.43586	0.28
7.47296	0.286
7.51006	0.278
7.54716	0.311
7.58427	0.297
7.62137	0.267
7.65847	0.331
7.69557	0.37
7.73267	0.401
7.76977	0.42
7.80688	0.425
7.84398	0.437
7.88108	0.433
7.91818	0.372
7.95528	0.264
7.99238	0.235
8.02949	0.247
8.06659	0.364
8.10369	0.425
8.14079	0.461
8.17789	0.489
8.215	0.503
8.2521	0.498
8.2892	0.503
8.3263	0.504
8.3634	0.524
8.4005	0.54
8.43761	0.565
8.47471	0.566
8.51181	0.56
8.54891	0.559
8.58601	0.52
8.62312	0.549
8.66022	0.582
8.69732	0.602
8.73442	0.626
8.77152	0.647
8.80862	0.652
8.84573	0.577
8.88283	0.501
8.91993	0.621
8.95703	0.654
8.99413	0.66
9.03123	0.686
9.06834	0.685
9.10544	0.682
9.14254	0.691
9.17964	0.679
9.21674	0.686
9.25385	0.693
9.29095	0.705
9.32805	0.713
9.36515	0.718
9.40225	0.719
9.43935	0.721
9.47646	0.732
9.51356	0.738
9.55066	0.735
9.58776	0.728
9.62486	0.694
9.66196	0.646
9.69907	0.661
9.73617	0.68
9.77327	0.69
9.81037	0.696
9.84747	0.705
9.88458	0.71
9.92168	0.719
9.95878	0.727
9.99588	0.732
10.033	0.736
10.0701	0.736
10.1072	0.736
10.1443	0.694
10.1814	0.686
10.2185	0.704
10.2556	0.696
10.2927	0.697
10.3298	0.694
10.3669	0.697
10.404	0.697
10.4411	0.696
10.4782	0.694
10.5153	0.682
10.5524	0.661
10.5895	0.535
10.6266	0.381
10.6637	0.478
10.7008	0.613
10.7379	0.655
10.775	0.609
10.8121	0.563
10.8492	0.61
10.8863	0.633
10.9234	0.63
10.9605	0.626
10.9976	0.624
11.0347	0.613
11.0718	0.576
11.1089	0.531
11.146	0.49
11.1831	0.517
11.2202	0.515
11.2573	0.475
11.2944	0.436
11.3315	0.38
11.3686	0.33
11.4057	0.28
11.4428	0.225
11.48	0.186
11.5171	0.149
11.5542	0.127
11.5913	0.123
11.6284	0.124
11.6655	0.123
11.7026	0.119
11.7397	0.105
11.7768	0.123
11.8139	0.157
11.851	0.176
11.8881	0.191
11.9252	0.2
11.9623	0.199
11.9994	0.2
12.0365	0.211
12.0736	0.2
12.1107	0.211
12.1478	0.233
12.1849	0.253
12.222	0.28
12.2591	0.303
12.2962	0.327
12.3333	0.342
12.3704	0.361
12.4075	0.394
12.4446	0.415
12.4817	0.445
12.5188	0.475
12.5559	0.492
12.593	0.509
12.6301	0.535
12.6672	0.548
12.7043	0.58
12.7414	0.591
12.7785	0.602
12.8156	0.615
12.8527	0.627
12.8898	0.643
12.9269	0.665
12.964	0.665
13.0011	0.658
13.0382	0.61
13.0753	0.517
13.1124	0.336
13.1495	0.213
13.1866	0.197
13.2237	0.216
13.2608	0.177
13.2979	0.141
13.335	0.193
13.3721	0.295
13.4092	0.383
13.4463	0.442
13.4834	0.461
13.5205	0.457
13.5577	0.436
13.5948	0.408
13.6319	0.39
13.669	0.358
13.7061	0.325
13.7432	0.302
13.7803	0.271
13.8174	0.252
13.8545	0.233
13.8916	0.239
13.9287	0.25
13.9658	0.26
14.0029	0.275
14.04	0.28
14.0771	0.28
14.1142	0.252
14.1513	0.239
14.1884	0.199
14.2255	0.168
14.2626	0.152
14.2997	0.152
14.3368	0.172
14.3739	0.205
14.411	0.26
14.4481	0.306
14.4852	0.367
14.5223	0.425
14.5594	0.462
14.5965	0.493
14.6336	0.534
14.6707	0.568
14.7078	0.587
14.7449	0.604
14.782	0.63
14.8191	0.655
14.8562	0.666
14.8933	0.676
14.9304	0.696
14.9675	0.685
15.0046	0.672
15.0417	0.658
15.0788	0.654
15.1159	0.693
15.153	0.721
15.1901	0.721
15.2272	0.721
15.2643	0.722
15.3014	0.713
15.3385	0.71
15.3756	0.711
15.4127	0.707
15.4498	0.702
15.4869	0.69
15.524	0.682
15.5611	0.655
15.5982	0.615
15.6353	0.532
15.6725	0.44
15.7096	0.386
15.7467	0.366
15.7838	0.376
15.8209	0.406
15.858	0.44
15.8951	0.504
15.9322	0.498
15.9693	0.492
