Infrared Spectrum: CINCHONINAMIDE, 2-METHYL-
Formula: C11 H10 N2 O
CAS: 15821-13-3
State: SOLID (SPLIT MULL), FLUOROLUBE FOR 3800-1330 CM^-^1, NUJOL FOR 1330-400 CM^-^1
Class: COBLENTZ III
Instrument: DOW KBr FOREPRISM-GRATING
Instrument parameters: BLAZED AT 3.5, 12.0, 20.0 MICRON AND CHANGED AT 5.0, 7.5, 14.9 MICRON
Sampling: TRANSMISSION
Resolution: 2
Origin: DOW CHEMICAL COMPANY
1/CM	TRANSMITTANCE
382	0.9878
391	0.9859
400	0.9903
409	0.9803
418	0.9649
427	0.952
436	0.8473
445	0.9375
454	0.9374
463	0.8518
472	0.9168
481	0.8848
490	0.9074
499	0.9214
508	0.9308
517	0.904
526	0.7924
535	0.9067
544	0.9018
553	0.8987
562	0.8639
571	0.8925
580	0.8883
589	0.8532
598	0.8475
607	0.6147
616	0.7743
625	0.4186
634	0.8057
643	0.7896
652	0.7878
661	0.7619
670	0.7101
679	0.2779
688	0.4185
697	0.3789
706	0.699
715	0.7586
724	0.6014
733	0.421
742	0.5903
751	0.69
760	0.5291
769	0.4428
778	0.6202
787	0.7561
796	0.7418
805	0.7946
814	0.7988
823	0.7621
832	0.7128
841	0.7319
850	0.8038
859	0.6538
868	0.771
877	0.6794
886	0.7654
895	0.8425
904	0.8603
913	0.865
922	0.8632
931	0.8483
940	0.8242
949	0.8341
958	0.743
967	0.8434
976	0.8334
985	0.8428
994	0.8292
1003	0.8553
1012	0.8328
1021	0.7467
1030	0.7784
1039	0.7686
1048	0.8212
1057	0.798
1066	0.8515
1075	0.8218
1084	0.8198
1093	0.8345
1102	0.8294
1111	0.8034
1120	0.7784
1129	0.6692
1138	0.6267
1147	0.7697
1156	0.5688
1165	0.6434
1174	0.7775
1183	0.7836
1192	0.6867
1201	0.612
1210	0.7422
1219	0.6335
1228	0.7478
1237	0.7714
1246	0.7751
1255	0.7708
1264	0.7349
1273	0.7228
1282	0.6993
1291	0.6488
1300	0.5834
1309	0.434
1318	0.4472
1327	0.5583
1336	0.4759
1345	0.3033
1354	0.2819
1363	0.2503
1372	0.21
1381	0.26
1390	0.149
1399	0.1891
1408	0.4862
1417	0.5148
1426	0.3556
1435	0.3787
1444	0.5708
1453	0.6109
1462	0.5678
1471	0.5933
1480	0.6242
1489	0.5927
1498	0.5636
1507	0.4503
1516	0.3676
1525	0.5736
1534	0.5647
1543	0.5309
1552	0.4669
1561	0.3445
1570	0.2954
1579	0.2974
1588	0.1512
1597	0.2155
1606	0.5119
1615	0.3737
1624	0.3314
1633	0.3248
1642	0.2938
1651	0.2357
1660	0.1581
1669	0.1051
1678	0.0992
1687	0.2575
1696	0.5203
1705	0.7399
1714	0.8232
1723	0.8537
1732	0.8546
1741	0.8482
1750	0.8362
1759	0.8346
1768	0.8417
1777	0.8305
1786	0.8137
1795	0.8038
1804	0.8011
1813	0.7926
1822	0.7907
1831	0.7857
1840	0.7761
1849	0.7775
1858	0.7724
1867	0.7658
1876	0.7583
1885	0.751
1894	0.743
1903	0.7343
1912	0.7244
1921	0.7126
1930	0.7042
1939	0.7111
1948	0.6981
1957	0.6983
1966	0.6997
1975	0.6914
1984	0.6825
1993	0.66
2002	0.731
2011	0.7278
2020	0.7205
2029	0.7122
2038	0.7047
2047	0.6962
2056	0.6889
2065	0.6825
2074	0.6765
2083	0.6721
2092	0.6675
2101	0.6621
2110	0.6565
2119	0.6504
2128	0.6438
2137	0.6372
2146	0.6308
2155	0.6243
2164	0.6176
2173	0.6109
2182	0.6042
2191	0.5974
2200	0.5908
2209	0.584
2218	0.577
2227	0.5699
2236	0.5629
2245	0.5556
2254	0.5483
2263	0.5419
2272	0.5355
2281	0.5288
2290	0.5225
2299	0.5171
2308	0.5118
2317	0.5062
2326	0.5006
2335	0.495
2344	0.4925
2353	0.496
2362	0.4983
2371	0.4969
2380	0.4928
2389	0.487
2398	0.4827
2407	0.4789
2416	0.4755
2425	0.4723
2434	0.4693
2443	0.4662
2452	0.4635
2461	0.4608
2470	0.4581
2479	0.4548
2488	0.4515
2497	0.4482
2506	0.4448
2515	0.4414
2524	0.4381
2533	0.4347
2542	0.4312
2551	0.4279
2560	0.4246
2569	0.421
2578	0.4172
2587	0.4126
2596	0.408
2605	0.4034
2614	0.3984
2623	0.393
2632	0.3877
2641	0.3826
2650	0.3776
2659	0.3723
2668	0.3662
2677	0.3602
2686	0.3542
2695	0.3482
2704	0.3432
2713	0.338
2722	0.3328
2731	0.3289
2740	0.3277
2749	0.3268
2758	0.3264
2767	0.3232
2776	0.3132
2785	0.3004
2794	0.2873
2803	0.2853
2812	0.2938
2821	0.3003
2830	0.2981
2839	0.2935
2848	0.2879
2857	0.2822
2866	0.2764
2875	0.2703
2884	0.2617
2893	0.2528
2902	0.2439
2911	0.2351
2920	0.2264
2929	0.2223
2938	0.2201
2947	0.216
2956	0.2097
2965	0.2018
2974	0.194
2983	0.1868
2992	0.1801
3001	0.1734
3010	0.1674
3019	0.1613
3028	0.1541
3037	0.1462
3046	0.1383
3055	0.1308
3064	0.1233
3073	0.1181
3082	0.1239
3091	0.1333
3100	0.141
3109	0.1476
3118	0.1513
3127	0.1541
3136	0.1582
3145	0.1627
3154	0.1668
3163	0.1708
3172	0.1751
3181	0.1794
3190	0.1833
3199	0.1871
3208	0.1914
3217	0.1954
3226	0.195
3235	0.1916
3244	0.1876
3253	0.1807
3262	0.1721
3271	0.1622
3280	0.1499
3289	0.1359
3298	0.122
3307	0.1077
3316	0.0921
3325	0.0734
3334	0.0562
3343	0.0617
3352	0.08
3361	0.1846
3370	0.252
3379	0.3107
3388	0.3509
3397	0.38
3406	0.383
3415	0.3795
3424	0.3704
3433	0.3625
3442	0.3548
3451	0.3464
3460	0.339
3469	0.3332
3478	0.3276
3487	0.3223
3496	0.318
3505	0.3135
3514	0.3093
3523	0.3052
3532	0.3014
3541	0.2975
3550	0.2937
3559	0.2903
3568	0.287
3577	0.2838
3586	0.2808
3595	0.2784
3604	0.2761
3613	0.2737
3622	0.2714
3631	0.269
3640	0.2665
3649	0.264
3658	0.2616
3667	0.2588
3676	0.256
3685	0.2533
3694	0.2508
3703	0.2484
3712	0.2462
3721	0.2438
3730	0.2415
3739	0.2391
3748	0.2368
3757	0.2346
3766	0.2334
3775	0.2322
3784	0.2309
3793	0.2294
3802	0.2284
