Infrared Spectrum: Alpha^2,Alpha^6-BIS-(DIMETHYLAMINO)-2,6-XYLENOL
Formula: C12 H20 N2 O
CAS: 15827-34-6
State: SOLUTION (10% CCl4 FOR 5000-1300, 10% CS2 FOR 1300-625 CM^-^1)
Class: COBLENTZ
Instrument: Not specified, most likely a prism, grating, or hybrid spectrometer.
Sampling: TRANSMISSION
Path length: 0.01 CM, 0.01 CM
Resolution: 4
Origin: DOW CHEMICAL COMPANY
MICROMETERS	TRANSMITTANCE
2.014	0.804
2.05468	0.807
2.09535	0.812
2.13603	0.819
2.17671	0.821
2.21738	0.817
2.25806	0.804
2.29874	0.809
2.33941	0.812
2.38009	0.814
2.42077	0.827
2.46144	0.829
2.50212	0.831
2.5428	0.834
2.58347	0.836
2.62415	0.834
2.66483	0.844
2.7055	0.848
2.74618	0.843
2.78686	0.831
2.82753	0.819
2.86821	0.807
2.90889	0.782
2.94956	0.752
2.99024	0.723
3.03092	0.671
3.07159	0.625
3.11227	0.576
3.15295	0.537
3.19362	0.51
3.2343	0.489
3.27498	0.445
3.31565	0.392
3.35633	0.241
3.39701	0.141
3.43768	0.21
3.47836	0.178
3.51904	0.139
3.55971	0.097
3.60039	0.104
3.64107	0.205
3.68174	0.357
3.72242	0.456
3.7631	0.539
3.80377	0.554
3.84445	0.591
3.88513	0.637
3.9258	0.671
3.96648	0.693
4.00716	0.736
4.04783	0.753
4.08851	0.77
4.12919	0.79
4.16986	0.806
4.21054	0.802
4.25122	0.802
4.29189	0.821
4.33257	0.829
4.37325	0.836
4.41392	0.849
4.4546	0.861
4.49528	0.865
4.53595	0.865
4.57663	0.871
4.61731	0.88
4.65798	0.881
4.69866	0.883
4.73934	0.878
4.78001	0.876
4.82069	0.88
4.86137	0.887
4.90204	0.885
4.94272	0.878
4.9834	0.888
5.02407	0.9
5.06475	0.905
5.10543	0.907
5.1461	0.905
5.18678	0.897
5.22746	0.887
5.26813	0.881
5.30881	0.876
5.34949	0.87
5.39016	0.881
5.43084	0.892
5.47152	0.885
5.51219	0.883
5.55287	0.873
5.59355	0.883
5.63422	0.888
5.6749	0.885
5.71558	0.876
5.75625	0.878
5.79693	0.876
5.83761	0.87
5.87828	0.861
5.91896	0.851
5.95964	0.843
6.00031	0.844
6.04099	0.822
6.08167	0.785
6.12234	0.666
6.16302	0.512
6.2037	0.433
6.24437	0.337
6.28505	0.505
6.32573	0.544
6.3664	0.536
6.40708	0.492
6.44776	0.46
6.48843	0.475
6.52911	0.51
6.56979	0.531
6.61046	0.475
6.65114	0.225
6.69182	0.22
6.73249	0.367
6.77317	0.21
6.81385	0.05
6.85452	0.086
6.8952	0.229
6.93588	0.333
6.97655	0.411
7.01723	0.561
7.05791	0.541
7.09858	0.465
7.13926	0.448
7.17994	0.487
7.22061	0.543
7.26129	0.467
7.30197	0.327
7.34264	0.251
7.38332	0.424
7.424	0.681
7.46467	0.748
7.50535	0.75
7.54603	0.701
7.5867	0.61
7.62738	0.516
7.66806	0.499
7.70873	0.436
7.74941	0.247
7.79009	0.254
7.83076	0.318
7.87144	0.236
7.91212	0.112
7.95279	0.067
7.99347	0.17
8.03415	0.337
8.07482	0.448
8.1155	0.51
8.15618	0.539
8.19685	0.512
8.23753	0.632
8.27821	0.738
8.31888	0.765
8.35956	0.74
8.40024	0.629
8.44091	0.431
8.48159	0.31
8.52227	0.558
8.56294	0.701
8.60362	0.723
8.6443	0.632
8.68497	0.522
8.72565	0.522
8.76633	0.681
8.807	0.816
8.84768	0.838
8.88836	0.831
8.92903	0.762
8.96971	0.72
9.01039	0.767
9.05106	0.709
9.09174	0.566
9.13242	0.635
9.17309	0.811
9.21377	0.755
9.25445	0.654
9.29512	0.672
9.3358	0.801
9.37648	0.812
9.41715	0.785
9.45783	0.715
9.49851	0.575
9.53918	0.365
9.57986	0.188
9.62054	0.246
9.66121	0.254
9.70189	0.198
9.74257	0.177
9.78324	0.161
9.82392	0.29
9.8646	0.588
9.90527	0.747
9.94595	0.799
9.98663	0.809
10.0273	0.76
10.068	0.661
10.1087	0.576
10.1493	0.612
10.19	0.691
10.2307	0.691
10.2714	0.62
10.312	0.671
10.3527	0.797
10.3934	0.819
10.4341	0.812
10.4747	0.822
10.5154	0.849
10.5561	0.854
10.5968	0.843
10.6375	0.833
10.6781	0.846
10.7188	0.851
10.7595	0.849
10.8002	0.846
10.8408	0.846
10.8815	0.836
10.9222	0.817
10.9629	0.792
11.0035	0.752
11.0442	0.706
11.0849	0.669
11.1256	0.61
11.1662	0.563
11.2069	0.558
11.2476	0.578
11.2883	0.608
11.329	0.634
11.3696	0.64
11.4103	0.63
11.451	0.618
11.4917	0.6
11.5323	0.569
11.573	0.534
11.6137	0.482
11.6544	0.414
11.695	0.322
11.7357	0.224
11.7764	0.165
11.8171	0.153
11.8578	0.153
11.8984	0.178
11.9391	0.231
11.9798	0.283
12.0205	0.337
12.0611	0.354
12.1018	0.32
12.1425	0.279
12.1832	0.259
12.2238	0.305
12.2645	0.386
12.3052	0.451
12.3459	0.483
12.3865	0.51
12.4272	0.531
12.4679	0.544
12.5086	0.548
12.5493	0.539
12.5899	0.521
12.6306	0.49
12.6713	0.473
12.712	0.477
12.7526	0.48
12.7933	0.47
12.834	0.458
12.8747	0.438
12.9153	0.389
12.956	0.328
12.9967	0.296
13.0374	0.35
13.0781	0.44
13.1187	0.5
13.1594	0.514
13.2001	0.473
13.2408	0.369
13.2814	0.271
13.3221	0.295
13.3628	0.433
13.4035	0.539
13.4441	0.588
13.4848	0.617
13.5255	0.639
13.5662	0.662
13.6068	0.681
13.6475	0.688
13.6882	0.693
13.7289	0.698
13.7696	0.701
13.8102	0.706
13.8509	0.703
13.8916	0.701
13.9323	0.699
13.9729	0.701
14.0136	0.703
14.0543	0.701
14.095	0.701
14.1356	0.698
14.1763	0.696
14.217	0.691
14.2577	0.689
14.2984	0.682
14.339	0.677
14.3797	0.672
14.4204	0.662
14.4611	0.657
14.5017	0.649
14.5424	0.642
14.5831	0.637
14.6238	0.629
14.6644	0.622
14.7051	0.617
14.7458	0.608
14.7865	0.602
14.8271	0.596
14.8678	0.581
14.9085	0.571
14.9492	0.566
14.9899	0.568
15.0305	0.558
15.0712	0.541
15.1119	0.521
15.1526	0.507
15.1932	0.494
15.2339	0.468
15.2746	0.453
15.3153	0.443
15.3559	0.438
15.3966	0.428
15.4373	0.424
15.478	0.423
15.5187	0.421
15.5593	0.418
15.6	0.414
15.6407	0.411
15.6814	0.409
15.722	0.408
15.7627	0.403
15.8034	0.401
15.8441	0.397
15.8847	0.403
