Infrared Spectrum: Trifluralin
Formula: C 13 H 16 F 3 N 3 O 4
CAS: 1582-09-8
State: gas
Instrument: HP-GC/MS/IRD
Origin: NIST Mass Spectrometry Data Center
1/CM	ABSORBANCE
550	0.0003496
562	3.04e-05
574	0.0001748
586	0.0003952
598	0.0003496
610	0.000456
622	0.0005548
634	0.0006232
646	0.0011248
658	0.0018772
670	0.001862
682	0.0011932
694	0.0013224
706	0.004788
718	0.0096216
730	0.0032072
742	0.0018164
754	0.0013148
766	0.0008816
778	0.0010184
790	0.0012616
802	0.0013224
814	0.0003724
826	0.0002508
838	0.0003952
850	0.0005776
862	0.000988
874	0.0019
886	0.002508
898	0.0062776
910	0.0044232
922	0.0019456
934	0.0006156
946	0.0004332
958	0.0007752
970	0.0014896
982	0.0013756
994	0.0005852
1006	0.0005624
1018	0.0006916
1030	0.001026
1042	0.0012464
1054	0.0013224
1066	0.0017024
1078	0.0029108
1090	0.0037772
1102	0.004028
1114	0.0056316
1126	0.0153064
1138	0.0259236
1150	0.0335616
1162	0.0379544
1174	0.020748
1186	0.0260756
1198	0.0074632
1210	0.0044232
1222	0.004636
1234	0.0050084
1246	0.00589
1258	0.0082004
1270	0.0098952
1282	0.0105412
1294	0.0163552
1306	0.0542412
1318	0.0598044
1330	0.0226556
1342	0.02204
1354	0.0251028
1366	0.0138624
1378	0.0085804
1390	0.007562
1402	0.0057912
1414	0.0037316
1426	0.002622
1438	0.002812
1450	0.0038684
1462	0.0047424
1474	0.0045828
1486	0.0040964
1498	0.0056924
1510	0.0068248
1522	0.0083676
1534	0.0147592
1546	0.0379848
1558	0.0442168
1570	0.0176092
1582	0.0077748
1594	0.005168
1606	0.0054036
1618	0.0101612
1630	0.01178
1642	0.0042484
1654	0.001634
1666	0.0009272
1678	0.0006536
1690	0.0004864
1702	0.0003572
1714	0.0002964
1726	0.0002128
1738	0.000152
1750	0.0001216
1762	0.000152
1774	0.0001368
1786	0.0002432
1798	0.0004636
1810	0.0006308
1822	0.000456
1834	0.000228
1846	0.0001596
1858	0.0001368
1870	9.88e-05
1882	0.0001064
1894	7.6e-05
1906	6.08e-05
1918	6.84e-05
1930	4.56e-05
1942	3.8e-05
1954	2.28e-05
1966	1.52e-05
1978	2.28e-05
1990	1.52e-05
2002	0
2014	3.04e-05
2026	3.04e-05
2038	5.32e-05
2050	6.84e-05
2062	6.08e-05
2074	6.08e-05
2086	4.56e-05
2098	5.32e-05
2110	3.04e-05
2122	3.04e-05
2134	1.52e-05
2146	0
2158	7.6e-06
2170	1.52e-05
2182	3.04e-05
2194	1.52e-05
2206	7.6e-06
2218	4.56e-05
2230	3.04e-05
2242	3.04e-05
2254	3.8e-05
2266	4.56e-05
2278	9.88e-05
2290	0.0001368
2302	0.0001368
2314	0.0001064
2326	8.36e-05
2338	8.36e-05
2350	9.88e-05
2362	9.12e-05
2374	5.32e-05
2386	7.6e-06
2398	5.32e-05
2410	6.08e-05
2422	6.08e-05
2434	6.08e-05
2446	8.36e-05
2458	9.12e-05
2470	9.12e-05
2482	8.36e-05
2494	9.12e-05
2506	6.84e-05
2518	6.08e-05
2530	8.36e-05
2542	0.0001064
2554	0.0001216
2566	0.000114
2578	9.88e-05
2590	0.0001368
2602	0.0001748
2614	0.0001292
2626	0.0001368
2638	0.000152
2650	0.0001368
2662	0.0002052
2674	0.0002508
2686	0.0003192
2698	0.0003192
2710	0.0003648
2722	0.0004332
2734	0.000456
2746	0.000608
2758	0.0005244
2770	0.0005472
2782	0.0006004
2794	0.0006384
2806	0.0007448
2818	0.0009044
2830	0.0012388
2842	0.0018164
2854	0.0028424
2866	0.004142
2878	0.0058596
2890	0.0075392
2902	0.0054796
2914	0.00551
2926	0.0063384
2938	0.0082156
2950	0.0089148
2962	0.0086716
2974	0.0133684
2986	0.008398
2998	0.0035112
3010	0.0018316
3022	0.0012464
3034	0.000988
3046	0.0007144
3058	0.0006384
3070	0.000608
3082	0.0008816
3094	0.000988
3106	0.0005928
3118	0.0003952
3130	0.0003724
3142	0.0002736
3154	0.0001748
3166	0.0001672
3178	0.0001824
3190	0.0001748
3202	0.0001216
3214	8.36e-05
3226	6.08e-05
3238	4.56e-05
3250	0.0001216
3262	6.84e-05
3274	9.12e-05
3286	6.08e-05
3298	6.84e-05
3310	6.08e-05
3322	7.6e-05
3334	9.12e-05
3346	5.32e-05
3358	6.08e-05
3370	0.0001444
3382	0.0001292
3394	6.08e-05
3406	9.88e-05
3418	7.6e-05
3430	9.88e-05
3442	9.12e-05
3454	0
3466	9.12e-05
3478	7.6e-05
3490	0.0001824
3502	0.0001292
3514	0.0001444
3526	0.0001672
3538	0.0001444
3550	6.84e-05
3562	7.6e-05
3574	0.000114
3586	0.0001444
3598	0.000114
3610	0.0001292
3622	0.0001064
3634	9.88e-05
3646	9.88e-05
3658	0.000152
3670	0.0001444
3682	0.000152
3694	0.0001596
3706	0.0001368
3718	9.12e-05
3730	9.12e-05
3742	0.0001596
3754	0.0001976
3766	0.0002128
3778	0.0001748
3790	0.0001292
3802	0.0001368
3814	0.000152
3826	0.0001748
3838	0.0001444
