Infrared Spectrum: 4-Amino-3-chloro-5-methylbenzonitrile
Formula: C 8 H 7 Cl N 2
CAS: 158296-69-6
State: gas
Origin: EPA-IR VAPOR PHASE LIBRARY
1/CM	ABSORBANCE
549.8	0.00602
559.445	0.00606
569.09	0.00575
578.734	0.00704
588.379	0.0074
598.024	0.00926
607.669	0.00983
617.313	0.00804
626.958	0.00837
636.603	0.00756
646.248	0.00795
655.893	0.00733
665.537	0.00639
675.182	0.00617
684.827	0.00657
694.472	0.00694
704.116	0.00822
713.761	0.01178
723.406	0.0161
733.051	0.01625
742.695	0.01312
752.34	0.01066
761.985	0.00906
771.63	0.00836
781.275	0.00628
790.919	0.00518
800.564	0.0066
810.209	0.0063
819.854	0.00363
829.498	0.00721
839.143	0.01082
848.788	0.01615
858.433	0.01708
868.078	0.01391
877.722	0.01889
887.367	0.01544
897.012	0.00775
906.657	0.00445
916.301	0.00494
925.946	0.00368
935.591	0.00389
945.236	0.00372
954.88	0.0038
964.525	0.00362
974.17	0.00341
983.815	0.0042
993.46	0.00512
1003.1	0.00552
1012.75	0.005
1022.39	0.00269
1032.04	0.00307
1041.68	0.00323
1051.33	0.00476
1060.97	0.00592
1070.62	0.00927
1080.26	0.01219
1089.91	0.00997
1099.55	0.00431
1109.2	0.00119162
1118.84	0.0016414
1128.49	0.0027
1138.13	0.00736
1147.78	0.00758
1157.42	0.00364
1167.07	0.00117594
1176.71	0.0023
1186.36	0.0018665
1196	0.00227
1205.64	0.0020522
1215.29	0.00378
1224.93	0.0049
1234.58	0.00893
1244.22	0.00989
1253.87	0.00443
1263.51	0.0019079
1273.16	0.00389
1282.8	0.00682
1292.45	0.01904
1302.09	0.02669
1311.74	0.01419
1321.38	0.00485
1331.03	0.00333
1340.67	0.00276
1350.32	0.00233
1359.96	0.00229
1369.61	0.00275
1379.25	0.00373
1388.9	0.00361
1398.54	0.00314
1408.18	0.00413
1417.83	0.00414
1427.47	0.00488
1437.12	0.00986
1446.76	0.0191
1456.41	0.02163
1466.05	0.02608
1475.7	0.04059
1485.34	0.04883
1494.99	0.03483
1504.63	0.01226
1514.28	0.0053
1523.92	0.00459
1533.57	0.00505
1543.21	0.00605
1552.86	0.00674
1562.5	0.00837
1572.15	0.00871
1581.79	0.00731
1591.44	0.00852
1601.08	0.01495
1610.73	0.02999
1620.37	0.05361
1630.01	0.05206
1639.66	0.02473
1649.3	0.00943
1658.95	0.00581
1668.59	0.00446
1678.24	0.00389
1687.88	0.00332
1697.53	0.00291
1707.17	0.0029
1716.82	0.00268
1726.46	0.0028
1736.11	0.00278
1745.75	0.00304
1755.4	0.00386
1765.04	0.00426
1774.69	0.00309
1784.33	0.0020308
1793.98	0.0017317
1803.62	0.0017566
1813.27	0.0017991
1822.91	0.0015568
1832.55	0.0015657
1842.2	0.0019498
1851.84	0.0016416
1861.49	0.00175
1871.13	0.0016358
1880.78	0.0016565
1890.42	0.0017875
1900.07	0.0015632
1909.71	0.0018999
1919.36	0.0016954
1929	0.0016132
1938.65	0.0017637
1948.29	0.0016208
1957.94	0.0016228
1967.58	0.001751
1977.23	0.0015756
1986.87	0.0018031
1996.52	0.0017399
2006.16	0.0017436
2015.81	0.0018289
2025.45	0.0018594
2035.1	0.0017977
2044.74	0.0017563
2054.38	0.0018373
2064.03	0.0017378
2073.67	0.0019013
2083.32	0.0019397
2092.96	0.0017835
2102.61	0.0016717
2112.25	0.0019693
2121.9	0.0016522
2131.54	0.0018227
2141.19	0.0019196
2150.83	0.0016803
2160.48	0.0019027
2170.12	0.0017897
2179.77	0.0020928
2189.41	0.00243
2199.06	0.00274
2208.7	0.00289
2218.35	0.00677
2227.99	0.01557
2237.64	0.0153
2247.28	0.00552
2256.92	0.00334
2266.57	0.00262
2276.21	0.0019695
2285.86	0.001886
2295.5	0.0016605
2305.15	0.002095
2314.79	0.0018121
2324.44	0.0018833
2334.08	0.0018685
2343.73	0.0020036
2353.37	0.001798
2363.02	0.0019516
2372.66	0.001718
2382.31	0.00221
2391.95	0.0019652
2401.6	0.001898
2411.24	0.0018702
2420.89	0.0016484
2430.53	0.0019213
2440.18	0.0018227
2449.82	0.0018582
2459.47	0.0018406
2469.11	0.00228
2478.75	0.00216
2488.4	0.0019624
2498.04	0.0020763
2507.69	0.0019132
2517.33	0.0018238
2526.98	0.001751
2536.62	0.0021553
2546.27	0.00238
2555.91	0.0020867
2565.56	0.0017614
2575.2	0.0021567
2584.85	0.0018414
2594.49	0.00256
2604.14	0.0027
2613.78	0.00304
2623.43	0.00284
2633.07	0.00294
2642.72	0.002093
2652.36	0.0018362
2662.01	0.0017935
2671.65	0.0017563
2681.29	0.0016042
2690.94	0.00219
2700.58	0.0016479
2710.23	0.0016617
2719.87	0.00219
2729.52	0.0016144
2739.16	0.00236
2748.81	0.0015364
2758.45	0.0019738
2768.1	0.00225
2777.74	0.0018347
2787.39	0.00259
2797.03	0.0021305
2806.68	0.0017834
2816.32	0.0025
2825.97	0.0019554
2835.61	0.00234
2845.26	0.00299
2854.9	0.00325
2864.55	0.00447
2874.19	0.00487
2883.84	0.00535
2893.48	0.00455
2903.12	0.00524
2912.77	0.00609
2922.41	0.00731
2932.06	0.00811
2941.7	0.00773
2951.35	0.00704
2960.99	0.00397
2970.64	0.00394
2980.28	0.00521
2989.93	0.00593
2999.57	0.00446
3009.22	0.00283
3018.86	0.00278
3028.51	0.00249
3038.15	0.00267
3047.8	0.00318
3057.44	0.00256
3067.09	0.00275
3076.73	0.0020112
3086.38	0.0020171
3096.02	0.00228
3105.67	0.00229
3115.31	0.0021268
3124.95	0.00224
3134.6	0.00226
3144.24	0.0010915
3153.89	0.001554
3163.53	0.00249
3173.18	0.00229
3182.82	0.0021336
3192.47	0.00225
3202.11	0.0021554
3211.76	0.00258
3221.4	0.0018311
3231.05	0.0014305
3240.69	0.0016626
3250.34	0.0019099
3259.98	0.0018999
3269.63	0.0015594
3279.27	0.0017769
3288.92	0.0018995
3298.56	0.001648
3308.21	0.00242
3317.85	0.0019075
3327.49	0.00233
3337.14	0.00225
3346.78	0.0021279
3356.43	0.0019398
3366.07	0.00249
3375.72	0.00249
3385.36	0.00344
3395.01	0.00412
3404.65	0.00814
3414.3	0.01359
3423.94	0.01509
3433.59	0.011
3443.23	0.00723
3452.88	0.00361
3462.52	0.00319
3472.17	0.00242
3481.81	0.00363
3491.46	0.00513
3501.1	0.00824
3510.75	0.01096
3520.39	0.00917
3530.04	0.00751
3539.68	0.0065
3549.32	0.00489
3558.97	0.0021191
3568.61	0.00226
3578.26	0.0015735
3587.9	0.0016731
3597.55	0.0013773
3607.19	0.0019305
3616.84	0.0012964
3626.48	0.0011197
3636.13	0.0016018
3645.77	0.0017628
3655.42	0.0015667
3665.06	0.0011123
3674.71	0.0019683
3684.35	0.0016662
3694	0.00218
3703.64	0.0013603
3713.29	0.00239
3722.93	0.0013906
3732.58	0.0014541
3742.22	0.00216
3751.86	0.000895
3761.51	0.0019596
3771.15	0.0017339
3780.8	0.0014351
3790.44	0.001042
3800.09	0.0016927
3809.73	0.0016553
3819.38	0.0012681
3829.02	0.0018884
3838.67	0.0020711
3848.31	0.0015705
3857.96	0.0018907
3867.6	0.0017082
3877.25	0.0017281
3886.89	0.0019137
3896.54	0.0016964
3906.18	0.0017691
3915.83	0.00222
3925.47	0.0020383
3935.12	0.00222
3944.76	0.0014814
3954.41	0.0012981
3964.05	0.0019785
3973.69	0.0014189
3983.34	0.00231
3992.98	0.0017
