Infrared Spectrum: 2,4-Difluorobenzoic acid
Formula: C 7 H 4 F 2 O 2
CAS: 1583-58-0
State: gas
Origin: EPA-IR VAPOR PHASE LIBRARY
1/CM	ABSORBANCE
549.9	0.00207
559.547	0.00276
569.193	0.00393
578.84	0.00435
588.486	0.00296
598.133	0.00221
607.779	0.001758
617.426	0.0013557
627.072	0.0012348
636.719	0.0011449
646.365	0.0010342
656.012	0.0010091
665.658	0.0010991
675.305	0.0012084
684.951	0.0015448
694.598	0.0015528
704.245	0.0012241
713.891	0.0010248
723.538	0.0011988
733.184	0.0012469
742.831	0.0013624
752.477	0.0014542
762.124	0.0017168
771.77	0.00198
781.417	0.0015102
791.063	0.0011004
800.71	0.0010342
810.356	0.0009978
820.003	0.0009616
829.649	0.0011048
839.296	0.0013046
848.943	0.00203
858.589	0.00278
868.236	0.0017472
877.882	0.0010174
887.529	0.00086701
897.175	0.00085806
906.822	0.00084574
916.468	0.00086409
926.115	0.0008723
935.761	0.00083291
945.408	0.0008975
955.054	0.0010356
964.701	0.00193
974.347	0.00266
983.994	0.00191
993.64	0.0009958
1003.29	0.0008767
1012.93	0.0009069
1022.58	0.000967
1032.23	0.0011558
1041.87	0.0015561
1051.52	0.00249
1061.17	0.00288
1070.81	0.00248
1080.46	0.00205
1090.11	0.00241
1099.75	0.00504
1109.4	0.0068
1119.05	0.00445
1128.69	0.00249
1138.34	0.00267
1147.99	0.00332
1157.63	0.00305
1167.28	0.00358
1176.92	0.00561
1186.57	0.00619
1196.22	0.00407
1205.86	0.0033
1215.51	0.00285
1225.16	0.00286
1234.8	0.00246
1244.45	0.00256
1254.1	0.0029
1263.74	0.00373
1273.39	0.00424
1283.04	0.00336
1292.68	0.00244
1302.33	0.00237
1311.98	0.00276
1321.62	0.00312
1331.27	0.00307
1340.92	0.0026
1350.56	0.00237
1360.21	0.00249
1369.86	0.00211
1379.5	0.0014686
1389.15	0.0012344
1398.79	0.0012281
1408.44	0.0013445
1418.09	0.00189
1427.73	0.00274
1437.38	0.00323
1447.03	0.00241
1456.67	0.0013905
1466.32	0.0012788
1475.97	0.0013821
1485.61	0.0015284
1495.26	0.00228
1504.91	0.00287
1514.55	0.00202
1524.2	0.0011124
1533.85	0.0009461
1543.49	0.0010342
1553.14	0.0010554
1562.79	0.001253
1572.43	0.001528
1582.08	0.00203
1591.73	0.00324
1601.37	0.00543
1611.02	0.0065
1620.67	0.00496
1630.31	0.00339
1639.96	0.00237
1649.6	0.0014801
1659.25	0.0012172
1668.9	0.0011407
1678.54	0.0010655
1688.19	0.001047
1697.84	0.0011737
1707.48	0.0012506
1717.13	0.0014678
1726.78	0.0017293
1736.42	0.00266
1746.07	0.00561
1755.72	0.0078
1765.36	0.00775
1775.01	0.00675
1784.66	0.0049
1794.3	0.00258
1803.95	0.0017434
1813.6	0.0013523
1823.24	0.0010398
1832.89	0.00084316
1842.54	0.0008575
1852.18	0.00078874
1861.83	0.0007669
1871.47	0.000801
1881.12	0.00083937
1890.77	0.00081108
1900.41	0.00081319
1910.06	0.00083768
1919.71	0.0008324
1929.35	0.000739
1939	0.0007484
1948.65	0.0007461
1958.29	0.0007201
1967.94	0.0006981
1977.59	0.0006782
1987.23	0.000659
1996.88	0.0006717
2006.53	0.0006821
2016.17	0.000654
2025.82	0.000648
2035.47	0.00061
2045.11	0.000643
2054.76	0.000593
2064.41	0.000579
2074.05	0.000569
2083.7	0.000641
2093.35	0.000528
2102.99	0.000525
2112.64	0.000545
2122.28	0.000527
2131.93	0.000569
2141.58	0.000519
2151.22	0.000563
2160.87	0.000511
2170.52	0.000521
2180.16	0.000528
2189.81	0.000495
2199.46	0.000479
2209.1	0.000496
2218.75	0.000549
2228.4	0.000516
2238.04	0.000511
2247.69	0.000501
2257.34	0.000566
2266.98	0.00052
2276.63	0.000513
2286.28	0.000494
2295.92	0.000507
2305.57	0.000507
2315.22	0.000566
2324.86	0.000568
2334.51	0.000559
2344.16	0.000547
2353.8	0.000564
2363.45	0.000611
2373.09	0.00051
2382.74	0.000476
2392.39	0.000509
2402.03	0.000537
2411.68	0.000486
2421.33	0.000464
2430.97	0.000436
2440.62	0.000442
2450.27	0.000433
2459.91	0.000458
2469.56	0.000408
2479.21	0.000434
2488.85	0.000399
2498.5	0.000375
2508.15	0.000366
2517.79	0.000385
2527.44	0.00035
2537.09	0.000363
2546.73	0.000324
2556.38	0.000324
2566.03	0.000354
2575.67	0.000373
2585.32	0.000337
2594.96	0.000314
2604.61	0.000354
2614.26	0.000327
2623.9	0.000314
2633.55	0.000301
2643.2	0.000259
2652.84	0.000293
2662.49	0.000224
2672.14	0.00022
2681.78	0.000248
2691.43	0.000204
2701.08	0.000205
2710.72	0.000172
2720.37	0.000214
2730.02	0.000171
2739.66	0.000228
2749.31	0.000205
2758.96	0.000192
2768.6	0.000173
2778.25	0.000247
2787.9	0.000257
2797.54	0.000201
2807.19	0.000142
2816.84	0.000214
2826.48	7.4e-05
2836.13	0.000153
2845.77	0.000223
2855.42	0.000115
2865.07	0.000198
2874.71	0.000145
2884.36	0.000101
2894.01	0.000131
2903.65	7.2e-05
2913.3	0.000141
2922.95	8.7e-05
2932.59	3.2e-05
2942.24	0.000151
2951.89	0.00018
2961.53	0.000182
2971.18	7.1e-05
2980.83	0.000142
2990.47	0.000185
3000.12	0.000284
3009.77	0.000337
3019.41	0.000228
3029.06	0.000146
3038.71	0.000168
3048.35	0.000274
3058	0.000221
3067.64	0.000342
3077.29	0.000264
3086.94	0.000392
3096.58	0.000359
3106.23	0.000585
3115.88	0.000273
3125.52	0.000405
3135.17	0.000527
3144.82	0.000314
3154.46	0.000277
3164.11	0.00044
3173.76	0.00049
3183.4	0.000271
3193.05	0.000576
3202.7	0.000554
3212.34	0.000424
3221.99	0.000437
3231.64	0.000585
3241.28	0.000559
3250.93	0.000568
3260.58	0.000593
3270.22	0.000683
3279.87	0.00052
3289.52	0.000757
3299.16	0.000583
3308.81	0.000592
3318.45	0.0006858
3328.1	0.000686
3337.75	0.0007273
3347.39	0.00081914
3357.04	0.00086411
3366.69	0.00082574
3376.33	0.0009231
3385.98	0.00078016
3395.63	0.00084015
3405.27	0.00080448
3414.92	0.0009097
3424.57	0.0007645
3434.21	0.0008037
3443.86	0.0010028
3453.51	0.00082954
3463.15	0.0008992
3472.8	0.0008711
3482.45	0.0009324
3492.09	0.000986
3501.74	0.0009777
3511.39	0.0009487
3521.03	0.00084665
3530.68	0.0009456
3540.33	0.0009688
3549.97	0.0010579
3559.62	0.0015023
3569.26	0.00334
3578.91	0.0042
3588.56	0.00225
3598.2	0.0011041
3607.85	0.0010685
3617.5	0.0011797
3627.14	0.0009187
3636.79	0.00086275
3646.44	0.0008942
3656.08	0.000919
3665.73	0.0009035
3675.38	0.000774434
3685.02	0.0009379
3694.67	0.00082729
3704.32	0.00079851
3713.96	0.00081817
3723.61	0.00082877
3733.26	0.00086712
3742.9	0.0007565
3752.55	0.00082061
3762.2	0.00080701
3771.84	0.0007347
3781.49	0.0007408
3791.13	0.0008732
3800.78	0.0008724
3810.43	0.000666
3820.07	0.000631
3829.72	0.000659
3839.37	0.0006921
3849.01	0.00067
3858.66	0.00080817
3868.31	0.0006912
3877.95	0.0007145
3887.6	0.000646
3897.25	0.0006754
3906.89	0.00063
3916.54	0.000582
3926.19	0.000603
3935.83	0.000654
3945.48	0.000624
3955.13	0.000596
3964.77	0.000615
3974.42	0.0007022
3984.07	0.000618
3993.71	0.000616
