Infrared Spectrum: 3-Fluorophthalic acid
Formula: C 8 H 5 F O 4
CAS: 1583-67-1
State: gas
Origin: EPA-IR VAPOR PHASE LIBRARY
1/CM	ABSORBANCE
549.8	0.00623
559.445	0.0056
569.09	0.0017369
578.734	0.00114
588.379	0.000587
598.024	0.0013167
607.669	0.0015088
617.313	0.0021636
626.958	0.00505
636.603	0.00739
646.248	0.00533
655.893	0.00285
665.537	0.00501
675.182	0.00288
684.827	0.001847
694.472	0.001975
704.116	0.001295
713.761	0.002116
723.406	0.00803
733.051	0.01631
742.695	0.01508
752.34	0.00706
761.985	0.00442
771.63	0.00734
781.275	0.00601
790.919	0.00313
800.564	0.00253
810.209	0.0043
819.854	0.0082
829.498	0.00605
839.143	0.00352
848.788	0.00305
858.433	0.00354
868.078	0.00674
877.722	0.01448
887.367	0.03427
897.012	0.0668
906.657	0.0964
916.301	0.08002
925.946	0.02756
935.591	0.00888
945.236	0.00708
954.88	0.01144
964.525	0.01262
974.17	0.00671
983.815	0.00409
993.46	0.002299
1003.1	0.00257
1012.75	0.0013289
1022.39	0.00251
1032.04	0.0029
1041.68	0.00434
1051.33	0.00367
1060.97	0.0013633
1070.62	0.0018214
1080.26	0.0017459
1089.91	0.00265
1099.55	0.00387
1109.2	0.00774
1118.84	0.01227
1128.49	0.01602
1138.13	0.01217
1147.78	0.00577
1157.42	0.00378
1167.07	0.00392
1176.71	0.00441
1186.36	0.01005
1196	0.01726
1205.64	0.03235
1215.29	0.02876
1224.93	0.0126
1234.58	0.0101
1244.22	0.02482
1253.87	0.04701
1263.51	0.0542
1273.16	0.04632
1282.8	0.03064
1292.45	0.01063
1302.09	0.00445
1311.74	0.00481
1321.38	0.00469
1331.03	0.00741
1340.67	0.0124
1350.32	0.01093
1359.96	0.00626
1369.61	0.00495
1379.25	0.00293
1388.9	0.00274
1398.54	0.00321
1408.18	0.00273
1417.83	0.0020936
1427.47	0.00245
1437.12	0.00318
1446.76	0.0049
1456.41	0.00684
1466.05	0.00954
1475.7	0.02376
1485.34	0.03875
1494.99	0.02643
1504.63	0.00603
1514.28	0.00467
1523.92	0.00417
1533.57	0.00331
1543.21	0.00302
1552.86	0.00318
1562.5	0.00307
1572.15	0.0022292
1581.79	0.00304
1591.44	0.00489
1601.08	0.0114
1610.73	0.02288
1620.37	0.02226
1630.01	0.00689
1639.66	0.00299
1649.3	0.0023658
1658.95	0.0018513
1668.59	0.0020113
1678.24	0.0022269
1687.88	0.0022825
1697.53	0.0021053
1707.17	0.0022421
1716.82	0.00273
1726.46	0.0028
1736.11	0.00332
1745.75	0.00444
1755.4	0.00697
1765.04	0.01086
1774.69	0.01854
1784.33	0.04662
1793.98	0.13872
1803.62	0.20252
1813.27	0.14497
1822.91	0.06256
1832.55	0.03195
1842.2	0.02064
1851.84	0.01991
1861.49	0.03676
1871.13	0.0566
1880.78	0.04675
1890.42	0.02203
1900.07	0.01217
1909.71	0.00569
1919.36	0.00402
1929	0.00295
1938.65	0.00266
1948.29	0.00303
1957.94	0.00264
1967.58	0.002344
1977.23	0.0019284
1986.87	0.001762
1996.52	0.0020042
2006.16	0.0023657
2015.81	0.00293
2025.45	0.00333
2035.1	0.0032
2044.74	0.00271
2054.38	0.0018861
2064.03	0.001535
2073.67	0.0015877
2083.32	0.0019339
2092.96	0.0018192
2102.61	0.0019656
2112.25	0.0020154
2121.9	0.0018827
2131.54	0.0017954
2141.19	0.00141094
2150.83	0.0016921
2160.48	0.0016575
2170.12	0.0018856
2179.77	0.00148711
2189.41	0.001246
2199.06	0.00140188
2208.7	0.001262
2218.35	0.0015373
2227.99	0.0016307
2237.64	0.001637
2247.28	0.0017748
2256.92	0.0019338
2266.57	0.0015627
2276.21	0.0013312
2285.86	0.00141599
2295.5	0.001151
2305.15	0.0013408
2314.79	0.0013519
2324.44	0.001249
2334.08	0.00140764
2343.73	0.00145901
2353.37	0.0013112
2363.02	0.00117
2372.66	0.001091
2382.31	0.001129
2391.95	0.0013303
2401.6	0.001069
2411.24	0.001014
2420.89	0.001256
2430.53	0.0015093
2440.18	0.0016839
2449.82	0.001315
2459.47	0.0013404
2469.11	0.001156
2478.75	0.001258
2488.4	0.00139031
2498.04	0.0015774
2507.69	0.0015132
2517.33	0.0013826
2526.98	0.001181
2536.62	0.0015552
2546.27	0.001303
2555.91	0.0013735
2565.56	0.001252
2575.2	0.001273
2584.85	0.001235
2594.49	0.001271
2604.14	0.001288
2613.78	0.001131
2623.43	0.001058
2633.07	0.0013755
2642.72	0.000866
2652.36	0.00118
2662.01	0.001049
2671.65	0.0013767
2681.29	0.001076
2690.94	0.00113
2700.58	0.0013334
2710.23	0.001237
2719.87	0.0013172
2729.52	0.001202
2739.16	0.001249
2748.81	0.0016124
2758.45	0.0013748
2768.1	0.000976
2777.74	0.001264
2787.39	0.000986
2797.03	0.00139474
2806.68	0.00147235
2816.32	0.00146217
2825.97	0.001224
2835.61	0.001128
2845.26	0.001272
2854.9	0.001231
2864.55	0.00105
2874.19	0.00138052
2883.84	0.0017193
2893.48	0.001274
2903.12	0.001219
2912.77	0.000973
2922.41	0.000941
2932.06	0.0013361
2941.7	0.0013324
2951.35	0.001102
2960.99	0.00142861
2970.64	0.00138763
2980.28	0.001113
2989.93	0.000877
2999.57	0.0016245
3009.22	0.00121
3018.86	0.001136
3028.51	0.0016232
3038.15	0.001275
3047.8	0.0013529
3057.44	0.0021803
3067.09	0.001679
3076.73	0.0017278
3086.38	0.001823
3096.02	0.001162
3105.67	0.0019942
3115.31	0.00123
3124.95	0.00146512
3134.6	0.001199
3144.24	0.001168
3153.89	0.000633
3163.53	0.0013751
3173.18	0.001029
3182.82	0.000945
3192.47	0.000634
3202.11	0.0014846
3211.76	0.000668
3221.4	0.0015281
3231.05	0.001043
3240.69	0.001112
3250.34	0.00061
3259.98	0.000447
3269.63	0.000826
3279.27	0.000594
3288.92	0.000568
3298.56	0.00103
3308.21	0.0013477
3317.85	0.001159
3327.49	0.000971
3337.14	0.000949
3346.78	0.000668
3356.43	0.0013004
3366.07	0.00141173
3375.72	0.001265
3385.36	0.001297
3395.01	0.000881
3404.65	0.001078
3414.3	0.001224
3423.94	0.000538
3433.59	0.001014
3443.23	0.00146224
3452.88	0.0013133
3462.52	0.001171
3472.17	0.001215
3481.81	0.00068
3491.46	0.00033
3501.1	0.0012936
3510.75	0.0007
3520.39	0.000678
3530.04	0.000975
3539.68	0.000975
3549.32	0.001181
3558.97	0.0012995
3568.61	0.001236
3578.26	0.0016705
3587.9	0.0018223
3597.55	0.0020849
3607.19	0.00266
3616.84	0.0020148
3626.48	0.0018325
3636.13	0.00259
3645.77	0.0022862
3655.42	0.00333
3665.06	0.00283
3674.71	0.0026
3684.35	0.0016771
3694	0.00139018
3703.64	0.0017076
3713.29	0.00145874
3722.93	0.001133
3732.58	0.0014924
3742.22	0.0015451
3751.86	0.001248
3761.51	0.0016273
3771.15	0.0013546
3780.8	0.001038
3790.44	0.0013274
3800.09	0.000432
3809.73	0.000988
3819.38	0.000997
3829.02	0.001196
3838.67	0.001067
3848.31	0.001012
3857.96	0.00144156
3867.6	0.001151
3877.25	0.0013011
3886.89	0.00116
3896.54	0.0013046
3906.18	0.001228
3915.83	0.000657
3925.47	0.00088
3935.12	0
3944.76	0.00099
3954.41	0.0013516
3964.05	0.00128
3973.69	0.000686
3983.34	0.001003
3992.98	0.001179
