Infrared Spectrum: 5-Bromoamyl acetate
Formula: C 7 H 13 Br O 2
CAS: 15848-22-3
State: gas
Origin: EPA-IR VAPOR PHASE LIBRARY
1/CM	ABSORBANCE
549.9	0.00070406
559.547	0.0011725
569.193	0.001891
578.84	0.001448
588.486	0.0011337
598.133	0.001242
607.779	0.0015445
617.426	0.0014842
627.072	0.002021
636.719	0.002631
646.365	0.002641
656.012	0.001971
665.658	0.0010267
675.305	0.00066436
684.951	0.000568
694.598	0.000564
704.245	0.00070408
713.891	0.00075731
723.538	0.0010194
733.184	0.0013933
742.831	0.0014801
752.477	0.0011106
762.124	0.0009873
771.77	0.000895
781.417	0.0009844
791.063	0.0011214
800.71	0.0012076
810.356	0.0012796
820.003	0.0013823
829.649	0.0014425
839.296	0.0014315
848.943	0.001557
858.589	0.0016409
868.236	0.0015544
877.882	0.0015009
887.529	0.0015462
897.175	0.0015109
906.822	0.0015291
916.468	0.0015917
926.115	0.0015818
935.761	0.0016161
945.408	0.001811
955.054	0.002041
964.701	0.002281
974.347	0.002541
983.994	0.002601
993.64	0.003021
1003.29	0.004351
1012.93	0.006081
1022.58	0.007821
1032.23	0.009941
1041.87	0.012091
1051.52	0.011161
1061.17	0.009311
1070.81	0.008261
1080.46	0.006991
1090.11	0.005281
1099.75	0.003851
1109.4	0.002731
1119.05	0.002021
1128.69	0.001691
1138.34	0.0015075
1147.99	0.001741
1157.63	0.001851
1167.28	0.002211
1176.92	0.002931
1186.57	0.004601
1196.22	0.008281
1205.86	0.016951
1215.51	0.034331
1225.16	0.062121
1234.8	0.062001
1244.45	0.035131
1254.1	0.020061
1263.74	0.013901
1273.39	0.009801
1283.04	0.007761
1292.68	0.006111
1302.33	0.004461
1311.98	0.003331
1321.62	0.002491
1331.27	0.002151
1340.92	0.002351
1350.56	0.003591
1360.21	0.007161
1369.86	0.011191
1379.5	0.007701
1389.15	0.006221
1398.79	0.004411
1408.44	0.002691
1418.09	0.002291
1427.73	0.002631
1437.38	0.003701
1447.03	0.004311
1456.67	0.004261
1466.32	0.003851
1475.97	0.002951
1485.61	0.002111
1495.26	0.0015629
1504.91	0.0013034
1514.55	0.0012407
1524.2	0.0011756
1533.85	0.0010192
1543.49	0.0009595
1553.14	0.0009009
1562.79	0.0008739
1572.43	0.0009
1582.08	0.000849
1591.73	0.0008251
1601.37	0.000849
1611.02	0.0008211
1620.67	0.000831
1630.31	0.0008487
1639.96	0.0009045
1649.6	0.0009618
1659.25	0.0010545
1668.9	0.0011011
1678.54	0.001234
1688.19	0.0013796
1697.84	0.001701
1707.48	0.002441
1717.13	0.003681
1726.78	0.005711
1736.42	0.009641
1746.07	0.017021
1755.72	0.030621
1765.36	0.035831
1775.01	0.020211
1784.66	0.010251
1794.3	0.005441
1803.95	0.003211
1813.6	0.002061
1823.24	0.0015087
1832.89	0.0012607
1842.54	0.0010892
1852.18	0.0010089
1861.83	0.0009153
1871.47	0.0008164
1881.12	0.0008185
1890.77	0.00076947
1900.41	0.0007868
1910.06	0.00075975
1919.71	0.00074574
1929.35	0.00070748
1939	0.0006976
1948.65	0.000673522
1958.29	0.00068508
1967.94	0.00066932
1977.59	0.00072075
1987.23	0.00070827
1996.88	0.00075457
2006.53	0.00075484
2016.17	0.0007849
2025.82	0.00076853
2035.47	0.00076188
2045.11	0.0008075
2054.76	0.0007882
2064.41	0.0008089
2074.05	0.0007944
2083.7	0.00074593
2093.35	0.000776
2102.99	0.0007916
2112.64	0.00069311
2122.28	0.00071699
2131.93	0.00069531
2141.58	0.0006398
2151.22	0.000671228
2160.87	0.0006421
2170.52	0.0006112
2180.16	0.0006213
2189.81	0.0006362
2199.46	0.0006434
2209.1	0.0006147
2218.75	0.0006165
2228.4	0.000671477
2238.04	0.0006227
2247.69	0.0006298
2257.34	0.0006303
2266.98	0.0006249
2276.63	0.0006484
2286.28	0.0005996
2295.92	0.0005952
2305.57	0.0006467
2315.22	0.0006236
2324.86	0.0005974
2334.51	0.0006211
2344.16	0.0005968
2353.8	0.0006277
2363.45	0.0005848
2373.09	0.0006235
2382.74	0.0006298
2392.39	0.0006438
2402.03	0.0006564
2411.68	0.0006428
2421.33	0.000675419
2430.97	0.0006605
2440.62	0.000725
2450.27	0.00071529
2459.91	0.00066128
2469.56	0.00071046
2479.21	0.00069218
2488.85	0.0006233
2498.5	0.0006259
2508.15	0.0006274
2517.79	0.0006546
2527.44	0.00062
2537.09	0.0006165
2546.73	0.0006197
2556.38	0.0005801
2566.03	0.000562
2575.67	0.0006122
2585.32	0.0006381
2594.96	0.0006542
2604.61	0.0006166
2614.26	0.0006234
2623.9	0.000672213
2633.55	0.00066309
2643.2	0.00070863
2652.84	0.000673982
2662.49	0.0006587
2672.14	0.00070228
2681.78	0.000675076
2691.43	0.00074103
2701.08	0.00071106
2710.72	0.000763
2720.37	0.0007843
2730.02	0.00073043
2739.66	0.0007784
2749.31	0.00075017
2758.96	0.00076787
2768.6	0.0007467
2778.25	0.0008014
2787.9	0.0007883
2797.54	0.0008991
2807.19	0.000885
2816.84	0.0010336
2826.48	0.0011849
2836.13	0.0015995
2845.77	0.002351
2855.42	0.003331
2865.07	0.004051
2874.71	0.004361
2884.36	0.004241
2894.01	0.004571
2903.65	0.005211
2913.3	0.005951
2922.95	0.007311
2932.59	0.009161
2942.24	0.012321
2951.89	0.013841
2961.53	0.012931
2971.18	0.011491
2980.83	0.008281
2990.47	0.004851
3000.12	0.003211
3009.77	0.003051
3019.41	0.002561
3029.06	0.0016536
3038.71	0.0012689
3048.35	0.001057
3058	0.0010021
3067.64	0.0009303
3077.29	0.0008272
3086.94	0.0006344
3096.58	0.00066119
3106.23	0.000546
3115.88	0.00057
3125.52	0.000339
3135.17	0.000336
3144.82	0.000325
3154.46	0.000341
3164.11	0.000328
3173.76	0.000417
3183.4	0.000354
3193.05	0.000263
3202.7	0.000305
3212.34	0.000262
3221.99	0.000255
3231.64	0.000411
3241.28	0.000246
3250.93	0.000173
3260.58	0.00026
3270.22	0.000175
3279.87	0.000248
3289.52	0.000281
3299.16	0.000264
3308.81	0.000215
3318.45	8.6e-05
3328.1	0.000132
3337.75	0.000316
3347.39	0.000251
3357.04	0.00015
3366.69	0.000107
3376.33	0.000159
3385.98	0.000148
3395.63	9.9e-05
3405.27	0.000188
3414.92	0.000194
3424.57	0.000244
3434.21	0.00028
3443.86	0.000288
3453.51	0.000191
3463.15	0.000325
3472.8	0.000314
3482.45	0.000379
3492.09	0.000435
3501.74	0.0006232
3511.39	0.000546
3521.03	0.000458
3530.68	0.00026
3540.33	0.000278
3549.97	0.000171
3559.62	0.000277
3569.26	0.000257
3578.91	0.000352
3588.56	0.00026
3598.2	0.0002
3607.85	0.000237
3617.5	0.000232
3627.14	0.000331
3636.79	0.000236
3646.44	0.000364
3656.08	0.000177
3665.73	0.000301
3675.38	0.000261
3685.02	0.000273
3694.67	0.000325
3704.32	0.000335
3713.96	0.000437
3723.61	0.000335
3733.26	0.000346
3742.9	0.000384
3752.55	0.000282
3762.2	0.000354
3771.84	0.000428
3781.49	0.000485
3791.13	0.00037
3800.78	0.000364
3810.43	0.000308
3820.07	0.000448
3829.72	0.000461
3839.37	0.000377
3849.01	0.000379
3858.66	0.000483
3868.31	0.000473
3877.95	0.000457
3887.6	0.00048
3897.25	0.000461
3906.89	0.000398
3916.54	0.000407
3926.19	0.00052
3935.83	0.000502
3945.48	0.000527
3955.13	0.000555
3964.77	0.0006237
3974.42	0.000533
3984.07	0.0006117
3993.71	0.000535
