Infrared Spectrum: Glycine, N-(9H-purin-6-yl)-, ethyl ester
Formula: C9 H11 N5 O2
CAS: 15846-67-0
State: SOLID (0.9 mg / 650 mg KBr DISC)
Class: COBLENTZ III
Instrument: PERKIN-ELMER 21 (GRATING)
Instrument parameters: FILTER CHANGE ABOUT 1025 CM^-^1
Sampling: TRANSMISSION
Resolution: 2
Origin: SOUTHERN RESEARCH INSTITUTE
1/CM	TRANSMITTANCE
603	0.7217
612.024	0.7211
621.048	0.7202
630.072	0.7178
639.095	0.7092
648.119	0.6891
657.143	0.651
666.167	0.5966
675.191	0.5773
684.215	0.69
693.238	0.6904
702.262	0.6392
711.286	0.6239
720.31	0.6225
729.334	0.6376
738.358	0.6902
747.381	0.6988
756.405	0.7413
765.429	0.791
774.453	0.7974
783.477	0.7883
792.501	0.7176
801.524	0.7333
810.548	0.798
819.572	0.7868
828.596	0.7701
837.62	0.7512
846.644	0.7299
855.667	0.7052
864.691	0.6683
873.715	0.5985
882.739	0.5158
891.763	0.4737
900.787	0.5032
909.81	0.4528
918.834	0.4822
927.858	0.3283
936.882	0.5719
945.906	0.7376
954.93	0.7867
963.954	0.8185
972.977	0.8102
982.001	0.7864
991.025	0.7128
1000.05	0.6266
1009.07	0.7286
1018.1	0.6886
1027.12	0.5429
1036.14	0.7452
1045.17	0.7816
1054.19	0.7692
1063.22	0.8147
1072.24	0.8136
1081.26	0.7993
1090.29	0.7683
1099.31	0.7491
1108.33	0.7359
1117.36	0.72
1126.38	0.7136
1135.41	0.6717
1144.43	0.6099
1153.45	0.4038
1162.48	0.2769
1171.5	0.354
1180.53	0.4233
1189.55	0.4534
1198.57	0.4231
1207.6	0.2598
1216.62	0.1528
1225.64	0.1244
1234.67	0.2912
1243.69	0.4932
1252.72	0.4757
1261.74	0.3167
1270.76	0.3893
1279.79	0.6782
1288.81	0.7098
1297.84	0.6959
1306.86	0.6618
1315.88	0.6691
1324.91	0.5638
1333.93	0.2296
1342.95	0.6279
1351.98	0.5369
1361	0.4965
1370.03	0.594
1379.05	0.4528
1388.07	0.403
1397.1	0.3435
1406.12	0.5082
1415.15	0.5871
1424.17	0.6054
1433.19	0.5875
1442.22	0.4813
1451.24	0.3489
1460.26	0.4097
1469.29	0.5098
1478.31	0.5425
1487.34	0.5675
1496.36	0.5967
1505.38	0.6038
1514.41	0.6189
1523.43	0.6352
1532.46	0.6092
1541.48	0.5424
1550.5	0.4325
1559.53	0.1964
1568.55	0.1921
1577.57	0.4765
1586.6	0.5184
1595.62	0.4853
1604.65	0.4121
1613.67	0.1917
1622.69	0.108
1631.72	0.0854
1640.74	0.1237
1649.77	0.2814
1658.79	0.3647
1667.81	0.6606
1676.84	0.7139
1685.86	0.7232
1694.88	0.7217
1703.91	0.711
1712.93	0.611
1721.96	0.4306
1730.98	0.1317
1740	0.441
1749.03	0.5262
1758.05	0.6513
1767.08	0.7031
1776.1	0.7182
1785.12	0.726
1794.15	0.7376
1803.17	0.7426
1812.19	0.7465
1821.22	0.7499
1830.24	0.7534
1839.27	0.7618
1848.29	0.786
1857.31	0.8061
1866.34	0.8161
1875.36	0.819
1884.38	0.8213
1893.41	0.8254
1902.43	0.8322
1911.46	0.84
1920.48	0.8474
1929.5	0.8535
1938.53	0.8588
1947.55	0.8633
1956.58	0.867
1965.6	0.8698
1974.62	0.8721
1983.65	0.8728
1992.67	0.8734
2001.69	0.8731
2010.72	0.8729
2019.74	0.8718
2028.77	0.8697
2037.79	0.8654
2046.81	0.861
2055.84	0.8574
2064.86	0.8539
2073.89	0.8518
2082.91	0.8503
2091.93	0.8505
2100.96	0.8513
2109.98	0.8462
2119	0.8413
2128.03	0.8371
2137.05	0.8319
2146.08	0.8239
2155.1	0.8156
2164.12	0.8082
2173.15	0.8017
2182.17	0.7953
2191.2	0.7889
2200.22	0.781
2209.24	0.7716
2218.27	0.7626
2227.29	0.754
2236.31	0.7463
2245.34	0.739
2254.36	0.73
2263.39	0.7208
2272.41	0.7104
2281.43	0.6979
2290.46	0.6809
2299.48	0.6628
2308.51	0.641
2317.53	0.622
2326.55	0.6109
2335.58	0.6045
2344.6	0.5999
2353.62	0.5971
2362.65	0.5955
2371.67	0.5945
2380.7	0.5796
2389.72	0.5639
2398.74	0.5507
2407.77	0.5382
2416.79	0.5258
2425.82	0.5135
2434.84	0.5072
2443.86	0.4916
2452.89	0.4778
2461.91	0.4659
2470.93	0.4604
2479.96	0.4593
2488.98	0.4586
2498.01	0.4575
2507.03	0.4543
2516.05	0.4482
2525.08	0.4432
2534.1	0.4387
2543.13	0.434
2552.15	0.4295
2561.17	0.427
2570.2	0.4251
2579.22	0.4259
2588.24	0.4334
2597.27	0.4446
2606.29	0.4558
2615.32	0.4626
2624.34	0.4685
2633.36	0.4738
2642.39	0.4768
2651.41	0.4762
2660.43	0.4751
2669.46	0.4746
2678.48	0.4745
2687.51	0.4744
2696.53	0.4744
2705.55	0.4747
2714.58	0.4749
2723.6	0.4745
2732.63	0.4732
2741.65	0.4713
2750.67	0.4687
2759.7	0.466
2768.72	0.471
2777.74	0.4741
2786.77	0.4752
2795.79	0.4761
2804.82	0.4769
2813.84	0.4794
2822.86	0.4863
2831.89	0.4845
2840.91	0.4811
2849.94	0.4759
2858.96	0.4658
2867.98	0.4518
2877.01	0.428
2886.03	0.3952
2895.05	0.3662
2904.08	0.3587
2913.1	0.3562
2922.13	0.3583
2931.15	0.363
2940.17	0.3688
2949.2	0.3715
2958.22	0.3702
2967.25	0.3669
2976.27	0.3632
2985.29	0.3659
2994.32	0.3751
3003.34	0.3975
3012.36	0.4118
3021.39	0.4183
3030.41	0.4281
3039.44	0.4391
3048.46	0.4507
3057.48	0.463
3066.51	0.4749
3075.53	0.4807
3084.56	0.4833
3093.58	0.4902
3102.6	0.5015
3111.63	0.509
3120.65	0.5083
3129.67	0.4957
3138.7	0.4854
3147.72	0.4782
3156.75	0.4785
3165.77	0.485
3174.79	0.5016
3183.82	0.5273
3192.84	0.5424
3201.87	0.557
3210.89	0.5704
3219.91	0.585
3228.94	0.6026
3237.96	0.6237
3246.98	0.6501
3256.01	0.6717
3265.03	0.6843
3274.06	0.6968
3283.08	0.7072
3292.1	0.7216
3301.13	0.7337
3310.15	0.7452
3319.18	0.7553
3328.2	0.7637
3337.22	0.7684
3346.25	0.77
3355.27	0.7711
3364.29	0.7717
3373.32	0.7724
3382.34	0.7731
3391.37	0.7738
3400.39	0.7742
3409.41	0.7751
3418.44	0.7777
3427.46	0.7803
3436.48	0.7831
3445.51	0.7868
3454.53	0.7919
3463.56	0.7972
3472.58	0.8019
3481.6	0.8067
3490.63	0.8115
3499.65	0.8163
3508.68	0.821
3517.7	0.8259
3526.72	0.8313
3535.75	0.8368
3544.77	0.8423
3553.79	0.8477
3562.82	0.8531
3571.84	0.8598
3580.87	0.8653
3589.89	0.8705
3598.91	0.8758
3607.94	0.8811
3616.96	0.886
3625.99	0.891
3635.01	0.8953
3644.03	0.8995
3653.06	0.9037
3662.08	0.9064
3671.1	0.9077
3680.13	0.9087
3689.15	0.9085
3698.18	0.9087
3707.2	0.909
3716.22	0.9092
3725.25	0.9094
3734.27	0.9097
3743.3	0.911
3752.32	0.9142
3761.34	0.9175
3770.37	0.9199
3779.39	0.9207
3788.41	0.9201
3797.44	0.9173
3806.46	0.9142
3815.49	0.9124
3824.51	0.9126
3833.53	0.9129
3842.56	0.9132
3851.58	0.9135
3860.61	0.9139
3869.63	0.9143
3878.65	0.9147
3887.68	0.915
3896.7	0.9153
3905.72	0.9159
3914.75	0.9152
3923.77	0.9134
3932.8	0.9115
3941.82	0.9096
3950.84	0.9085
3959.87	0.9079
3968.89	0.9085
3977.92	0.9083
3986.94	0.9079
3995.96	0.9078
4004.99	0.9076
