Infrared Spectrum: cis-2-Methyl-3-hexene
Formula: C 7 H 14
CAS: 15840-60-5
State: gas
Instrument: HP-GC/MS/IRD
Origin: NIST Mass Spectrometry Data Center
1/CM	ABSORBANCE
550	0.0002006
562	0
574	0.000323
586	0.0003264
598	0.00051
610	0.000425
622	0.0003604
634	0.0003128
646	0.0004284
658	0.0002618
670	0.0004454
682	0.00068
694	0.0011254
706	0.0021896
718	0.0036108
730	0.0044846
742	0.0037638
754	0.0022916
766	0.00153
778	0.0011084
790	0.000935
802	0.0009452
814	0.0007344
826	0.0004828
838	0.0002652
850	0.000306
862	0.0003162
874	0.0004454
886	0.0004998
898	0.0003536
910	0.0005474
922	0.001037
934	0.0016048
946	0.0011288
958	0.00051
970	0.0002992
982	0.0002652
994	0.0003434
1006	0.0003944
1018	0.0004624
1030	0.0004318
1042	0.0004318
1054	0.0007072
1066	0.0011628
1078	0.0012988
1090	0.0012478
1102	0.001105
1114	0.0009826
1126	0.0006936
1138	0.000629
1150	0.0008058
1162	0.0008568
1174	0.0005882
1186	0.0002618
1198	0.0002244
1210	0.0001836
1222	0.0002006
1234	0.0002992
1246	0.000425
1258	0.0005678
1270	0.0007106
1282	0.0014756
1294	0.002346
1306	0.0019346
1318	0.0008942
1330	0.0005882
1342	0.000714
1354	0.0011866
1366	0.0017272
1378	0.0020196
1390	0.0015334
1402	0.0014382
1414	0.0015028
1426	0.0013396
1438	0.0017476
1450	0.0029376
1462	0.0038862
1474	0.0033966
1486	0.0020944
1498	0.0011118
1510	0.000629
1522	0.000408
1534	0.000238
1546	0.0001802
1558	0.0001496
1570	0.0001564
1582	0.000187
1594	0.0002448
1606	0.0002618
1618	0.0002822
1630	0.000391
1642	0.0004692
1654	0.0005134
1666	0.0005474
1678	0.000561
1690	0.0006392
1702	0.0005474
1714	0.000391
1726	0.0003128
1738	0.0002074
1750	0.0001768
1762	0.000153
1774	0.0001496
1786	0.0001428
1798	0.0001224
1810	9.86e-05
1822	6.12e-05
1834	6.46e-05
1846	7.82e-05
1858	7.14e-05
1870	5.1e-05
1882	4.08e-05
1894	8.5e-05
1906	4.42e-05
1918	3.74e-05
1930	6.12e-05
1942	3.06e-05
1954	4.42e-05
1966	4.42e-05
1978	4.76e-05
1990	2.72e-05
2002	4.76e-05
2014	3.74e-05
2026	7.14e-05
2038	0.000102
2050	9.18e-05
2062	7.14e-05
2074	6.12e-05
2086	6.46e-05
2098	4.76e-05
2110	3.4e-06
2122	3.06e-05
2134	2.04e-05
2146	3.06e-05
2158	1.7e-05
2170	2.04e-05
2182	3.06e-05
2194	2.38e-05
2206	3.06e-05
2218	3.4e-05
2230	3.06e-05
2242	4.42e-05
2254	8.16e-05
2266	8.16e-05
2278	6.8e-05
2290	5.1e-05
2302	8.84e-05
2314	8.16e-05
2326	4.42e-05
2338	1.36e-05
2350	5.44e-05
2362	7.14e-05
2374	0.0001156
2386	0.0001258
2398	0.0001292
2410	0.0001054
2422	8.84e-05
2434	9.52e-05
2446	0.0001156
2458	0.0001088
2470	0.0001088
2482	0.0001156
2494	0.0001156
2506	9.52e-05
2518	9.52e-05
2530	9.86e-05
2542	0.0001292
2554	0.0001904
2566	0.0001802
2578	0.0002176
2590	0.0002074
2602	0.0002108
2614	0.0002142
2626	0.0001972
2638	0.0001938
2650	0.000187
2662	0.0001904
2674	0.0001462
2686	0.0002006
2698	0.0002958
2710	0.000374
2722	0.0005338
2734	0.0006052
2746	0.0006426
2758	0.0005746
2770	0.0006188
2782	0.0007446
2794	0.000816
2806	0.0010404
2818	0.0012784
2830	0.0016728
2842	0.0024888
2854	0.00408
2866	0.007718
2878	0.0115192
2890	0.0119986
2902	0.011152
2914	0.0119578
2926	0.0141406
2938	0.0177208
2950	0.0225454
2962	0.0323272
2974	0.0320348
2986	0.0191386
2998	0.0124032
3010	0.0107576
3022	0.0066164
3034	0.0030328
3046	0.0016014
3058	0.0012818
3070	0.001156
3082	0.0009826
3094	0.000867
3106	0.000765
3118	0.0007038
3130	0.000731
3142	0.000663
3154	0.0006732
3166	0.0006256
3178	0.0005474
3190	0.0004862
3202	0.0004148
3214	0.0003434
3226	0.000221
3238	0.0001972
3250	0.0001734
3262	0.0001156
3274	0.0001054
3286	0.0002074
3298	0.0001428
3310	0.0002006
3322	0.0002006
3334	0.0001258
3346	0.000136
3358	0.0001224
3370	7.82e-05
3382	8.5e-05
3394	9.86e-05
3406	5.78e-05
3418	0.0001496
3430	6.12e-05
3442	6.46e-05
3454	9.18e-05
3466	3.4e-05
3478	1.36e-05
3490	5.44e-05
3502	8.84e-05
3514	9.52e-05
3526	3.4e-05
3538	5.1e-05
3550	8.16e-05
3562	0.000136
3574	0.0001122
3586	6.8e-05
3598	3.4e-05
3610	4.76e-05
3622	7.14e-05
3634	5.1e-05
3646	7.48e-05
3658	2.38e-05
3670	7.14e-05
3682	9.52e-05
3694	9.86e-05
3706	0.0001122
3718	0.0001054
3730	8.84e-05
3742	8.84e-05
3754	0.0001292
3766	9.18e-05
3778	7.48e-05
3790	0.0001768
3802	0.0001088
3814	0.0001258
3826	8.16e-05
3838	6.12e-05
