Infrared Spectrum: Benzenepentacarboxylic acid
Formula: C11 H6 O10
CAS: 1585-40-6
State: SOLID (SPLIT MULL)
Class: COBLENTZ II
Instrument: DOW KBr FOREPRISM-GRATING
Instrument parameters: BLAZED AT 3.5, 12.0, 20.0 MICRON AND CHANGED AT 5.0, 7.5, 14.9 MICRON
Sampling: TRANSMISSION
Resolution: 2
Origin: DOW CHEMICAL COMPANY
1/CM	TRANSMITTANCE
3800	0.889
3791	0.8893
3782	0.8896
3773	0.8905
3764	0.8914
3755	0.8921
3746	0.8928
3737	0.8928
3728	0.8928
3719	0.8928
3710	0.893
3701	0.8932
3692	0.8935
3683	0.8933
3674	0.8932
3665	0.893
3656	0.8932
3647	0.8934
3638	0.8936
3629	0.8933
3620	0.8928
3611	0.8925
3602	0.8921
3593	0.8916
3584	0.8912
3575	0.8907
3566	0.8901
3557	0.8893
3548	0.8885
3539	0.8874
3530	0.8861
3521	0.8842
3512	0.8818
3503	0.8792
3494	0.876
3485	0.8727
3476	0.8697
3467	0.8661
3458	0.859
3449	0.84
3440	0.7767
3431	0.7571
3422	0.7468
3413	0.7485
3404	0.7542
3395	0.756
3386	0.756
3377	0.7549
3368	0.7537
3359	0.7515
3350	0.7494
3341	0.7465
3332	0.7428
3323	0.7378
3314	0.7308
3305	0.7226
3296	0.7125
3287	0.7006
3278	0.6856
3269	0.6686
3260	0.6483
3251	0.6276
3242	0.6069
3233	0.5876
3224	0.5694
3215	0.5519
3206	0.532
3197	0.5108
3188	0.4915
3179	0.4744
3170	0.4568
3161	0.4346
3152	0.4204
3143	0.4088
3134	0.3992
3125	0.3895
3116	0.3789
3107	0.3693
3098	0.3616
3089	0.3545
3080	0.348
3071	0.3423
3062	0.3366
3053	0.3321
3044	0.3294
3035	0.3284
3026	0.33
3017	0.3322
3008	0.3377
2999	0.3458
2990	0.3503
2981	0.3503
2972	0.3503
2963	0.35
2954	0.35
2945	0.3499
2936	0.35
2927	0.3489
2918	0.3399
2909	0.3341
2900	0.3322
2891	0.3328
2882	0.335
2873	0.3389
2864	0.3423
2855	0.3489
2846	0.3516
2837	0.3587
2828	0.3695
2819	0.3809
2810	0.3926
2801	0.4048
2792	0.4181
2783	0.4299
2774	0.4414
2765	0.4526
2756	0.4638
2747	0.475
2738	0.4844
2729	0.4916
2720	0.4972
2711	0.4958
2702	0.4897
2693	0.4838
2684	0.4803
2675	0.4777
2666	0.4753
2657	0.4728
2648	0.4702
2639	0.4812
2630	0.4876
2621	0.4949
2612	0.5036
2603	0.5106
2594	0.5116
2585	0.5099
2576	0.5068
2567	0.5008
2558	0.4928
2549	0.484
2540	0.4739
2531	0.4779
2522	0.4959
2513	0.5145
2504	0.5257
2495	0.5374
2486	0.5494
2477	0.5602
2468	0.5706
2459	0.5812
2450	0.5923
2441	0.6016
2432	0.6104
2423	0.6184
2414	0.626
2405	0.6349
2396	0.6444
2387	0.6538
2378	0.6619
2369	0.6678
2360	0.6706
2351	0.6728
2342	0.6768
2333	0.6892
2324	0.7015
2315	0.7115
2306	0.7168
2297	0.7154
2288	0.7178
2279	0.7222
2270	0.7265
2261	0.731
2252	0.7358
2243	0.7404
2234	0.7439
2225	0.7471
2216	0.7503
2207	0.7535
2198	0.7565
2189	0.7595
2180	0.7624
2171	0.7651
2162	0.7683
2153	0.7712
2144	0.7744
2135	0.7775
2126	0.7806
2117	0.7837
2108	0.7868
2099	0.7898
2090	0.7926
2081	0.7951
2072	0.7978
2063	0.8001
2054	0.8025
2045	0.8048
2036	0.8074
2027	0.8101
2018	0.8133
2009	0.8154
2000	0.8148
1991	0.8136
1982	0.8164
1973	0.821
1964	0.8267
1955	0.8351
1946	0.834
1937	0.8335
1928	0.8325
1919	0.8313
1910	0.831
1901	0.8324
1892	0.8297
1883	0.8257
1874	0.8252
1865	0.8292
1856	0.8305
1847	0.8315
1838	0.8309
1829	0.8286
1820	0.8261
1811	0.8225
1802	0.8178
1793	0.8118
1784	0.803
1775	0.7745
1766	0.6944
1757	0.3926
1748	0.3133
1739	0.2065
1730	0.1052
1721	0.0708
1712	0.0586
1703	0.1011
1694	0.2259
1685	0.3299
1676	0.4394
1667	0.5356
1658	0.5805
1649	0.6154
1640	0.6517
1631	0.6844
1622	0.706
1613	0.7215
1604	0.7383
1595	0.726
1586	0.7311
1577	0.7558
1568	0.6432
1559	0.745
1550	0.7778
1541	0.7901
1532	0.7941
1523	0.8008
1514	0.8012
1505	0.7935
1496	0.7685
1487	0.5967
1478	0.3116
1469	0.5164
1460	0.5512
1451	0.5641
1442	0.44
1433	0.421
1424	0.5327
1415	0.5512
1406	0.5553
1397	0.4688
1388	0.5476
1379	0.6451
1370	0.694
1361	0.6815
1352	0.6821
1343	0.6701
1334	0.6621
1325	0.5987
1316	0.4525
1307	0.3664
1298	0.2581
1289	0.2174
1280	0.3442
1271	0.4462
1262	0.3803
1253	0.3637
1244	0.421
1235	0.5356
1226	0.5957
1217	0.5721
1208	0.4324
1199	0.4916
1190	0.5774
1181	0.6035
1172	0.6296
1163	0.581
1154	0.7478
1145	0.7801
1136	0.6234
1127	0.7558
1118	0.8201
1109	0.8448
1100	0.8596
1091	0.8691
1082	0.8699
1073	0.8647
1064	0.8727
1055	0.8763
1046	0.878
1037	0.8777
1028	0.8771
1019	0.8741
1010	0.8693
1001	0.8659
992	0.8628
983	0.8574
974	0.8371
965	0.8192
956	0.8005
947	0.7268
938	0.7328
929	0.719
920	0.7072
911	0.6893
902	0.6861
893	0.6787
884	0.6383
875	0.5827
866	0.5475
857	0.6791
848	0.7471
839	0.7743
830	0.6764
821	0.8235
812	0.8566
803	0.868
794	0.8554
785	0.7685
776	0.7793
767	0.7781
758	0.8648
749	0.8716
740	0.8281
731	0.8228
722	0.8343
713	0.8515
704	0.872
695	0.9032
686	0.8492
677	0.845
668	0.791
659	0.7771
650	0.8954
641	0.898
632	0.8395
623	0.6808
614	0.701
605	0.8303
596	0.8728
587	0.8782
578	0.8928
569	0.9111
560	0.9066
551	0.8852
542	0.886
533	0.8977
524	0.8849
515	0.8703
506	0.8916
497	0.9071
488	0.9146
479	0.91
470	0.8994
461	0.8754
452	0.8333
443	0.7999
434	0.7722
425	0.7494
416	0.7434
407	0.7408
398	0.7374
389	0.7348
