Infrared Spectrum: 2,4-Bis(chloromethylmesitylene)
Formula: C 11 H 14 Cl 2
CAS: 1585-17-7
State: gas
Origin: EPA-IR VAPOR PHASE LIBRARY
1/CM	ABSORBANCE
549.9	0.0006515
559.547	0.00058625
569.193	0.0006913
578.84	0.0010306
588.486	0.002506
598.133	0.004856
607.779	0.002466
617.426	0.0011485
627.072	0.0011432
636.719	0.001776
646.365	0.004386
656.012	0.012156
665.658	0.020706
675.305	0.014426
684.951	0.004566
694.598	0.003656
704.245	0.007656
713.891	0.013916
723.538	0.010566
733.184	0.005006
742.831	0.002296
752.477	0.003026
762.124	0.005526
771.77	0.004066
781.417	0.003046
791.063	0.003946
800.71	0.005856
810.356	0.007816
820.003	0.003806
829.649	0.001616
839.296	0.0011989
848.943	0.001366
858.589	0.002766
868.236	0.003616
877.882	0.001576
887.529	0.0007469
897.175	0.0006421
906.822	0.0006988
916.468	0.0009555
926.115	0.0008227
935.761	0.00058959
945.408	0.000622
955.054	0.0008597
964.701	0.0010982
974.347	0.0008593
983.994	0.0007529
993.64	0.0009616
1003.29	0.001686
1012.93	0.002936
1022.58	0.002996
1032.23	0.002336
1041.87	0.001676
1051.52	0.0013165
1061.17	0.0013016
1070.81	0.0014838
1080.46	0.001546
1090.11	0.0010107
1099.75	0.0007628
1109.4	0.0006652
1119.05	0.00058773
1128.69	0.0004894
1138.34	0.0004951
1147.99	0.0006853
1157.63	0.0011959
1167.28	0.0012552
1176.92	0.0007689
1186.57	0.0007816
1196.22	0.0010588
1205.86	0.001596
1215.51	0.002066
1225.16	0.002626
1234.8	0.003446
1244.45	0.005786
1254.1	0.016286
1263.74	0.026846
1273.39	0.011516
1283.04	0.003466
1292.68	0.001726
1302.33	0.0013814
1311.98	0.0014104
1321.62	0.0014126
1331.27	0.0013988
1340.92	0.0013253
1350.56	0.0013012
1360.21	0.0014229
1369.86	0.001716
1379.5	0.002786
1389.15	0.002956
1398.79	0.002106
1408.44	0.002316
1418.09	0.002846
1427.73	0.003946
1437.38	0.005556
1447.03	0.007926
1456.67	0.010466
1466.32	0.011696
1475.97	0.008476
1485.61	0.004976
1495.26	0.003426
1504.91	0.002786
1514.55	0.002446
1524.2	0.002386
1533.85	0.002546
1543.49	0.002906
1553.14	0.003646
1562.79	0.004346
1572.43	0.004316
1582.08	0.004206
1591.73	0.004946
1601.37	0.006836
1611.02	0.005316
1620.67	0.002256
1630.31	0.0012374
1639.96	0.0008783
1649.6	0.0007808
1659.25	0.0006806
1668.9	0.0006741
1678.54	0.0006306
1688.19	0.00059572
1697.84	0.0006215
1707.48	0.0006832
1717.13	0.0008762
1726.78	0.0010172
1736.42	0.0008088
1746.07	0.00059339
1755.72	0.000522776
1765.36	0.00051081
1775.01	0.00051008
1784.66	0.000520465
1794.3	0.00055763
1803.95	0.00051275
1813.6	0.000524023
1823.24	0.0004781
1832.89	0.0004484
1842.54	0.0004624
1852.18	0.0004577
1861.83	0.0004652
1871.47	0.000518831
1881.12	0.00055544
1890.77	0.00058953
1900.41	0.00054685
1910.06	0.0004626
1919.71	0.0004354
1929.35	0.0004222
1939	0.0004448
1948.65	0.0004769
1958.29	0.0004724
1967.94	0.0004358
1977.59	0.0004757
1987.23	0.0004478
1996.88	0.0004488
2006.53	0.0004658
2016.17	0.0004945
2025.82	0.0005031
2035.47	0.0004577
2045.11	0.0004949
2054.76	0.0004707
2064.41	0.0005054
2074.05	0.00055663
2083.7	0.00057937
2093.35	0.00051057
2102.99	0.0004507
2112.64	0.0004884
2122.28	0.0004919
2131.93	0.0004711
2141.58	0.00051376
2151.22	0.000525822
2160.87	0.00053327
2170.52	0.00056543
2180.16	0.000525173
2189.81	0.0005058
2199.46	0.0005002
2209.1	0.000488
2218.75	0.0004511
2228.4	0.0004482
2238.04	0.0004417
2247.69	0.0004648
2257.34	0.0004902
2266.98	0.0004799
2276.63	0.0004892
2286.28	0.00051437
2295.92	0.0005028
2305.57	0.00050765
2315.22	0.0005015
2324.86	0.0004988
2334.51	0.00053198
2344.16	0.00053657
2353.8	0.000525007
2363.45	0.00050704
2373.09	0.0004795
2382.74	0.000446
2392.39	0.00055083
2402.03	0.00054295
2411.68	0.00058125
2421.33	0.00054337
2430.97	0.00055155
2440.62	0.00053379
2450.27	0.0005397
2459.91	0.00056746
2469.56	0.0006326
2479.21	0.00058539
2488.85	0.00056592
2498.5	0.0005615
2508.15	0.00053625
2517.79	0.0004785
2527.44	0.0004878
2537.09	0.0004798
2546.73	0.0005041
2556.38	0.0004743
2566.03	0.0004575
2575.67	0.000413
2585.32	0.000389
2594.96	0.0004793
2604.61	0.000413
2614.26	0.000519932
2623.9	0.0004932
2633.55	0.0005005
2643.2	0.00052349
2652.84	0.0006201
2662.49	0.0006341
2672.14	0.0006289
2681.78	0.0006275
2691.43	0.00061246
2701.08	0.00056038
2710.72	0.0007009
2720.37	0.0008153
2730.02	0.0009608
2739.66	0.0011683
2749.31	0.0011989
2758.96	0.0009747
2768.6	0.000819
2778.25	0.0007391
2787.9	0.0007893
2797.54	0.0008254
2807.19	0.0010188
2816.84	0.0010849
2826.48	0.0013035
2836.13	0.001716
2845.77	0.002316
2855.42	0.003096
2865.07	0.004546
2874.71	0.006256
2884.36	0.006956
2894.01	0.006636
2903.65	0.006756
2913.3	0.008316
2922.95	0.011376
2932.59	0.013766
2942.24	0.012156
2951.89	0.009726
2961.53	0.009586
2971.18	0.009806
2980.83	0.010306
2990.47	0.010346
3000.12	0.012296
3009.77	0.012966
3019.41	0.010866
3029.06	0.008336
3038.71	0.005476
3048.35	0.004386
3058	0.003946
3067.64	0.003496
3077.29	0.002916
3086.94	0.002236
3096.58	0.001796
3106.23	0.0013292
3115.88	0.0011143
3125.52	0.0008944
3135.17	0.0007724
3144.82	0.00059492
3154.46	0.0006297
3164.11	0.00053366
3173.76	0.00053986
3183.4	0.000333
3193.05	0.000311
3202.7	0.000325
3212.34	0.000378
3221.99	0.000249
3231.64	0.00028
3241.28	7.4e-05
3250.93	4.4e-05
3260.58	0.000213
3270.22	0.000136
3279.87	0.000135
3289.52	0.000163
3299.16	9e-05
3308.81	0.000162
3318.45	5.1e-05
3328.1	0.000138
3337.75	8.1e-05
3347.39	0.000239
3357.04	0.000197
3366.69	0.000148
3376.33	0.000156
3385.98	0.000105
3395.63	0.000157
3405.27	0.000184
3414.92	0.000177
3424.57	0.000206
3434.21	0.000136
3443.86	0.000116
3453.51	0.000196
3463.15	0.000136
3472.8	7.3e-05
3482.45	0.000156
3492.09	0.000177
3501.74	0.000205
3511.39	0.000255
3521.03	0.000214
3530.68	0.000138
3540.33	0.000158
3549.97	0.000113
3559.62	0.000202
3569.26	0.000166
3578.91	0.000217
3588.56	0.000134
3598.2	0.000225
3607.85	0.000125
3617.5	0.000149
3627.14	0.000172
3636.79	0.000196
3646.44	0.000164
3656.08	0.000178
3665.73	0.000119
3675.38	0.00015
3685.02	0.000256
3694.67	0.000208
3704.32	0.000198
3713.96	0.000217
3723.61	0.000126
3733.26	0.00025
3742.9	0.000315
3752.55	0.000297
3762.2	0.000237
3771.84	0.000161
3781.49	0.000163
3791.13	0.000246
3800.78	0.000292
3810.43	0.000253
3820.07	0.000252
3829.72	0.000204
3839.37	0.00036
3849.01	0.000298
3858.66	0.000229
3868.31	0.000247
3877.95	0.000193
3887.6	0.000306
3897.25	0.000265
3906.89	0.000323
3916.54	0.000337
3926.19	0.000392
3935.83	0.000405
3945.48	0.000358
3955.13	0.000293
3964.77	0.000349
3974.42	0.000341
3984.07	0.000301
3993.71	0.000306
