Infrared Spectrum: 2,2-Dimethyloctane
Formula: C 10 H 22
CAS: 15869-87-1
State: gas
Instrument: HP-GC/MS/IRD
Origin: NIST Mass Spectrometry Data Center
1/CM	ABSORBANCE
550	0.0001666
562	3.92e-05
574	0.0001127
586	0.0001617
598	0.0002303
610	0.0002401
622	0.000196
634	0.0002058
646	0.0002156
658	0.0002107
670	0.000294
682	0.0001666
694	0.0003136
706	0.000441
718	0.0005978
730	0.0006517
742	0.0005635
754	0.0004949
766	0.0004361
778	0.000441
790	0.0003185
802	0.0003528
814	0.000294
826	0.0002744
838	0.0003136
850	0.0003185
862	0.0003234
874	0.000392
886	0.0004067
898	0.0004067
910	0.00049
922	0.0004998
934	0.0004312
946	0.0003773
958	0.000343
970	0.0003528
982	0.0003234
994	0.0003234
1006	0.0003185
1018	0.0002989
1030	0.0002793
1042	0.0002891
1054	0.0002744
1066	0.0002793
1078	0.0002842
1090	0.0003234
1102	0.000343
1114	0.0003528
1126	0.0002401
1138	0.0002646
1150	0.0002842
1162	0.0004214
1174	0.0005096
1186	0.0007056
1198	0.0008918
1210	0.0010045
1222	0.0012446
1234	0.0017101
1246	0.0018718
1258	0.0010878
1270	0.000735
1282	0.0006615
1294	0.0006272
1306	0.0007154
1318	0.0007889
1330	0.0009751
1342	0.0014259
1354	0.0026999
1366	0.0049833
1378	0.0039837
1390	0.0027685
1402	0.0020972
1414	0.0010143
1426	0.0010486
1438	0.0015827
1450	0.0028371
1462	0.0046746
1474	0.0055713
1486	0.0036505
1498	0.0014259
1510	0.0007448
1522	0.0004851
1534	0.0003577
1546	0.000294
1558	0.000245
1570	0.0002303
1582	0.0002156
1594	0.0002009
1606	0.0001715
1618	0.0001568
1630	0.0001764
1642	0.0001421
1654	0.0001617
1666	0.0001421
1678	0.000147
1690	0.0001421
1702	0.0001225
1714	0.0001176
1726	0.0001127
1738	9.8e-05
1750	9.8e-05
1762	8.82e-05
1774	6.86e-05
1786	9.31e-05
1798	7.35e-05
1810	8.82e-05
1822	8.82e-05
1834	8.33e-05
1846	6.37e-05
1858	4.9e-05
1870	5.88e-05
1882	5.88e-05
1894	7.35e-05
1906	5.39e-05
1918	4.9e-05
1930	6.37e-05
1942	4.41e-05
1954	5.39e-05
1966	3.43e-05
1978	4.9e-05
1990	4.41e-05
2002	4.9e-05
2014	4.9e-05
2026	6.37e-05
2038	5.39e-05
2050	5.39e-05
2062	4.9e-05
2074	4.41e-05
2086	2.94e-05
2098	3.92e-05
2110	4.41e-05
2122	5.39e-05
2134	4.41e-05
2146	2.94e-05
2158	3.43e-05
2170	1.96e-05
2182	1.47e-05
2194	1.96e-05
2206	3.43e-05
2218	0
2230	4.9e-06
2242	2.45e-05
2254	2.45e-05
2266	2.94e-05
2278	4.41e-05
2290	5.88e-05
2302	3.43e-05
2314	5.88e-05
2326	4.41e-05
2338	5.39e-05
2350	5.39e-05
2362	3.92e-05
2374	5.88e-05
2386	6.37e-05
2398	9.31e-05
2410	8.33e-05
2422	6.37e-05
2434	7.84e-05
2446	6.86e-05
2458	7.84e-05
2470	6.86e-05
2482	0.0001029
2494	9.8e-05
2506	9.31e-05
2518	0.0001127
2530	0.0001323
2542	0.0001617
2554	0.0001617
2566	0.0002009
2578	0.000196
2590	0.0002156
2602	0.0002695
2614	0.0002891
2626	0.0003332
2638	0.000392
2650	0.0004165
2662	0.0004508
2674	0.0005096
2686	0.0005341
2698	0.0005635
2710	0.0006223
2722	0.0007399
2734	0.0007889
2746	0.0008281
2758	0.000833
2770	0.0008869
2782	0.0010486
2794	0.0013573
2806	0.001764
2818	0.0024108
2830	0.0035476
2842	0.0060809
2854	0.0113827
2866	0.0171157
2878	0.0189189
2890	0.0181545
2902	0.0199136
2914	0.025088
2926	0.0350252
2938	0.0427868
2950	0.0432327
2962	0.049
2974	0.0302624
2986	0.0104713
2998	0.0047187
3010	0.0028616
3022	0.0020237
3034	0.0015827
3046	0.0012593
3058	0.0010976
3070	0.0009702
3082	0.0008967
3094	0.0008183
3106	0.0006958
3118	0.0006517
3130	0.0005782
3142	0.0006076
3154	0.0005439
3166	0.0005782
3178	0.0005341
3190	0.0005096
3202	0.00049
3214	0.0004557
3226	0.0004067
3238	0.000343
3250	0.0002646
3262	0.0002058
3274	0.0001813
3286	0.0001813
3298	0.0001568
3310	0.0001372
3322	0.0001127
3334	0.0001421
3346	0.0001274
3358	0.0001274
3370	0.0001372
3382	0.0001568
3394	0.0001127
3406	6.86e-05
3418	0.0001127
3430	8.33e-05
3442	6.86e-05
3454	5.88e-05
3466	5.88e-05
3478	4.41e-05
3490	3.43e-05
3502	2.94e-05
3514	0
3526	1.96e-05
3538	1.96e-05
3550	4.41e-05
3562	4.41e-05
3574	4.41e-05
3586	1.47e-05
3598	1.96e-05
3610	5.39e-05
3622	4.9e-05
3634	5.88e-05
3646	6.86e-05
3658	6.37e-05
3670	6.37e-05
3682	7.84e-05
3694	0.0001029
3706	6.86e-05
3718	2.45e-05
3730	8.33e-05
3742	5.88e-05
3754	8.82e-05
3766	9.31e-05
3778	0.0001225
3790	0.0001127
3802	0.0001127
3814	0.0001274
3826	0.0001372
3838	0.0001127
