Infrared Spectrum: Ethyl pipecolinate
Formula: C 8 H 15 N O 2
CAS: 15862-72-3
State: gas
Origin: EPA-IR VAPOR PHASE LIBRARY
1/CM	ABSORBANCE
549.8	0.002609
559.445	0.004139
569.09	0.0016833
578.734	0.001919
588.379	0.002749
598.024	0.002529
607.669	0.002919
617.313	0.002209
626.958	0.003239
636.603	0.003649
646.248	0.004359
655.893	0.005019
665.537	0.004229
675.182	0.004469
684.827	0.005089
694.472	0.006349
704.116	0.007979
713.761	0.008869
723.406	0.010819
733.051	0.011289
742.695	0.011469
752.34	0.009979
761.985	0.007319
771.63	0.006419
781.275	0.005049
790.919	0.004479
800.564	0.003369
810.209	0.003039
819.854	0.003999
829.498	0.003569
839.143	0.004999
848.788	0.005789
858.433	0.006939
868.078	0.006299
877.722	0.005069
887.367	0.003509
897.012	0.004559
906.657	0.004189
916.301	0.004789
925.946	0.004499
935.591	0.004289
945.236	0.003369
954.88	0.003209
964.525	0.002629
974.17	0.001949
983.815	0.003439
993.46	0.003699
1003.1	0.005209
1012.75	0.008709
1022.39	0.013339
1032.04	0.021049
1041.68	0.029349
1051.33	0.031689
1060.97	0.024179
1070.62	0.014849
1080.26	0.013339
1089.91	0.015269
1099.55	0.017589
1109.2	0.019379
1118.84	0.024329
1128.49	0.028739
1138.13	0.027139
1147.78	0.033029
1157.42	0.039219
1167.07	0.051699
1176.71	0.066619
1186.36	0.069319
1196	0.060509
1205.64	0.052309
1215.29	0.039459
1224.93	0.028249
1234.58	0.025269
1244.22	0.028009
1253.87	0.029719
1263.51	0.024189
1273.16	0.018789
1282.8	0.014159
1292.45	0.016969
1302.09	0.018319
1311.74	0.012399
1321.38	0.011149
1331.03	0.012359
1340.67	0.012639
1350.32	0.012069
1359.96	0.010339
1369.61	0.013099
1379.25	0.011759
1388.9	0.007139
1398.54	0.005729
1408.18	0.005369
1417.83	0.005349
1427.47	0.008559
1437.12	0.013389
1446.76	0.015749
1456.41	0.014539
1466.05	0.011759
1475.7	0.008059
1485.34	0.005199
1494.99	0.003279
1504.63	0.002649
1514.28	0.002069
1523.92	0.001889
1533.57	0.001779
1543.21	0.001699
1552.86	0.001729
1562.5	0.0013556
1572.15	0.001769
1581.79	0.0014933
1591.44	0.001344
1601.08	0.0013134
1610.73	0.0012222
1620.37	0.0011387
1630.01	0.0013631
1639.66	0.0012213
1649.3	0.0013855
1658.95	0.0016123
1668.59	0.001759
1678.24	0.002029
1687.88	0.002959
1697.53	0.004119
1707.17	0.006329
1716.82	0.010299
1726.46	0.018419
1736.11	0.037579
1745.75	0.065629
1755.4	0.073719
1765.04	0.047389
1774.69	0.019449
1784.33	0.008959
1793.98	0.005149
1803.62	0.003289
1813.27	0.002669
1822.91	0.001939
1832.55	0.001749
1842.2	0.0015041
1851.84	0.0013592
1861.49	0.0014838
1871.13	0.0013847
1880.78	0.0014606
1890.42	0.0014342
1900.07	0.0012879
1909.71	0.0012462
1919.36	0.0012656
1929	0.0012327
1938.65	0.0012598
1948.29	0.0011838
1957.94	0.0011982
1967.58	0.0008816
1977.23	0.001072
1986.87	0.00078443
1996.52	0.0012267
2006.16	0.0012148
2015.81	0.0012944
2025.45	0.0013906
2035.1	0.0011873
2044.74	0.0013621
2054.38	0.0011306
2064.03	0.0012216
2073.67	0.0011097
2083.32	0.0013184
2092.96	0.0011956
2102.61	0.001136
2112.25	0.0012563
2121.9	0.001153
2131.54	0.00107
2141.19	0.0008492
2150.83	0.0008825
2160.48	0.0010517
2170.12	0.00072164
2179.77	0.0011895
2189.41	0.0011061
2199.06	0.000897
2208.7	0.0009608
2218.35	0.0012806
2227.99	0.0009296
2237.64	0.0008593
2247.28	0.0012308
2256.92	0.0012529
2266.57	0.0009649
2276.21	0.0012439
2285.86	0.0008722
2295.5	0.0012008
2305.15	0.0011299
2314.79	0.0010201
2324.44	0.0013402
2334.08	0.0013223
2343.73	0.0011305
2353.37	0.001338
2363.02	0.0016405
2372.66	0.000927
2382.31	0.0011776
2391.95	0.0010879
2401.6	0.0012338
2411.24	0.0012669
2420.89	0.0013411
2430.53	0.0012475
2440.18	0.0012245
2449.82	0.0010942
2459.47	0.0009673
2469.11	0.0014447
2478.75	0.0013667
2488.4	0.0013926
2498.04	0.0014342
2507.69	0.0013999
2517.33	0.0014802
2526.98	0.0013348
2536.62	0.0014699
2546.27	0.0010715
2555.91	0.0013128
2565.56	0.0012831
2575.2	0.0015396
2584.85	0.0015901
2594.49	0.001889
2604.14	0.001759
2613.78	0.001759
2623.43	0.001729
2633.07	0.0016653
2642.72	0.002079
2652.36	0.002099
2662.01	0.002649
2671.65	0.002929
2681.29	0.003099
2690.94	0.003289
2700.58	0.003579
2710.23	0.003509
2719.87	0.004329
2729.52	0.004019
2739.16	0.004369
2748.81	0.004499
2758.45	0.005169
2768.1	0.006789
2777.74	0.008669
2787.39	0.011159
2797.03	0.012239
2806.68	0.012159
2816.32	0.011559
2825.97	0.010539
2835.61	0.009369
2845.26	0.011679
2854.9	0.018309
2864.55	0.022849
2874.19	0.018589
2883.84	0.014319
2893.48	0.014989
2903.12	0.017569
2912.77	0.023479
2922.41	0.037319
2932.06	0.061889
2941.7	0.082819
2951.35	0.072809
2960.99	0.045119
2970.64	0.028479
2980.28	0.024959
2989.93	0.022209
2999.57	0.014609
3009.22	0.009349
3018.86	0.006099
3028.51	0.004569
3038.15	0.002969
3047.8	0.002339
3057.44	0.002369
3067.09	0.001909
3076.73	0.001989
3086.38	0.001789
3096.02	0.001799
3105.67	0.002059
3115.31	0.0015731
3124.95	0.001839
3134.6	0.0010121
3144.24	0.0010464
3153.89	0.0012248
3163.53	0.0012914
3173.18	0.0006381
3182.82	0.0015121
3192.47	0.0014225
3202.11	0.0011342
3211.76	0.000412
3221.4	0.000277
3231.05	0.0012868
3240.69	0.00145
3250.34	0.00076268
3259.98	0.0013417
3269.63	0.0013591
3279.27	0.000488
3288.92	0.000457
3298.56	0.0008195
3308.21	0.0008049
3317.85	0.0008273
3327.49	0.000576
3337.14	0.0012314
3346.78	0.0015687
3356.43	0.001759
3366.07	0.0015308
3375.72	0.001939
3385.36	0.001582
3395.01	0.0008803
3404.65	0.001328
3414.3	0.000344
3423.94	0.0009212
3433.59	0.0009925
3443.23	0.00078458
3452.88	0.0011582
3462.52	0.0012888
3472.17	0.0010919
3481.81	0.0011076
3491.46	0.0014274
3501.1	0.0013208
3510.75	0.0008547
3520.39	0.0008866
3530.04	0.0006653
3539.68	0.000292
3549.32	0.0010686
3558.97	0.000283
3568.61	0.000476
3578.26	0.000543
3587.9	0.000363
3597.55	0.000245
3607.19	0.0008244
3616.84	0.00075188
3626.48	0.0009578
3636.13	0.0006759
3645.77	0.0010803
3655.42	0.00039
3665.06	0.0008691
3674.71	7.5e-05
3684.35	0.0007909
3694	0.00078045
3703.64	0.00077226
3713.29	0.000586
3722.93	0.0005934
3732.58	0.000853
3742.22	0.0012588
3751.86	0.0015272
3761.51	0.000167
3771.15	0.0008013
3780.8	0.000259
3790.44	0.0014724
3800.09	0.0009591
3809.73	0.0008571
3819.38	0.0005996
3829.02	0.000371
3838.67	0.000859
3848.31	0.000247
3857.96	0.0011859
3867.6	0.000343
3877.25	0.0008325
3886.89	0.0009367
3896.54	0.0010181
3906.18	0.0006339
3915.83	0.0006254
3925.47	0.0013793
3935.12	0.000459
3944.76	0.0014114
3954.41	0.0008746
3964.05	0.000967
3973.69	0.0008655
3983.34	0.0016302
3992.98	0.000195
