Infrared Spectrum: 5-Methylnonane
Formula: C 10 H 22
CAS: 15869-85-9
State: gas
Instrument: HP-GC/MS/IRD
Origin: NIST Mass Spectrometry Data Center
1/CM	ABSORBANCE
550	0.0001332
562	0.0001152
574	3.96e-05
586	0.0001008
598	7.56e-05
610	0.0001296
622	0.0001656
634	0.00018
646	0.0001944
658	0.0002196
670	0.000234
682	0.000252
694	0.0002772
706	0.0003204
718	0.0005616
730	0.000738
742	0.0006876
754	0.00054
766	0.000414
778	0.0004464
790	0.0003888
802	0.0002556
814	0.0003168
826	0.0002304
838	0.0002196
850	0.0002736
862	0.0002556
874	0.0003924
886	0.0005076
898	0.0006192
910	0.000756
922	0.0006516
934	0.0004716
946	0.0003996
958	0.000342
970	0.0003672
982	0.0003816
994	0.000396
1006	0.0004068
1018	0.0004608
1030	0.0004428
1042	0.0004284
1054	0.000468
1066	0.0004896
1078	0.0004716
1090	0.0004104
1102	0.0003492
1114	0.0003312
1126	0.0003996
1138	0.0004212
1150	0.0005076
1162	0.0004104
1174	0.0002124
1186	0.0001764
1198	0.0002304
1210	0.0002844
1222	0.0003888
1234	0.0003312
1246	0.0003636
1258	0.0004356
1270	0.0003924
1282	0.000468
1294	0.0005904
1306	0.0006228
1318	0.0006372
1330	0.0008532
1342	0.0011952
1354	0.0012636
1366	0.001566
1378	0.0026244
1390	0.0022932
1402	0.0010728
1414	0.000882
1426	0.00099
1438	0.001548
1450	0.0029412
1462	0.0043632
1474	0.00342
1486	0.0015732
1498	0.000828
1510	0.0005292
1522	0.0003888
1534	0.0003168
1546	0.0002592
1558	0.0001764
1570	0.0001908
1582	0.0001872
1594	0.0002016
1606	0.000198
1618	0.0001692
1630	0.000162
1642	0.0001296
1654	9.72e-05
1666	0.0001044
1678	8.28e-05
1690	5.76e-05
1702	2.52e-05
1714	3.6e-05
1726	4.68e-05
1738	1.8e-05
1750	2.88e-05
1762	4.32e-05
1774	4.68e-05
1786	5.76e-05
1798	3.6e-05
1810	6.48e-05
1822	3.24e-05
1834	4.32e-05
1846	2.52e-05
1858	3.6e-05
1870	2.88e-05
1882	3.96e-05
1894	5.04e-05
1906	2.52e-05
1918	2.88e-05
1930	3.6e-05
1942	3.96e-05
1954	3.24e-05
1966	3.6e-05
1978	2.88e-05
1990	2.16e-05
2002	1.44e-05
2014	5.4e-05
2026	3.96e-05
2038	5.04e-05
2050	2.16e-05
2062	3.24e-05
2074	3.24e-05
2086	2.88e-05
2098	1.8e-05
2110	0
2122	1.8e-05
2134	2.16e-05
2146	1.8e-05
2158	1.8e-05
2170	1.08e-05
2182	3.96e-05
2194	1.44e-05
2206	3.96e-05
2218	5.04e-05
2230	5.04e-05
2242	4.68e-05
2254	4.68e-05
2266	8.28e-05
2278	5.4e-05
2290	7.56e-05
2302	4.32e-05
2314	6.12e-05
2326	5.04e-05
2338	7.92e-05
2350	6.84e-05
2362	0.0001008
2374	0.0001008
2386	0.0001224
2398	0.0001008
2410	0.0001008
2422	0.0001008
2434	0.0001008
2446	9e-05
2458	0.0001008
2470	9.36e-05
2482	0.0001152
2494	0.0001296
2506	0.0001368
2518	0.0001728
2530	0.0001836
2542	0.0002124
2554	0.0002088
2566	0.0002304
2578	0.000252
2590	0.0003096
2602	0.0003456
2614	0.000342
2626	0.000396
2638	0.0003888
2650	0.0003996
2662	0.0004212
2674	0.0005076
2686	0.0005256
2698	0.0005292
2710	0.0005436
2722	0.00063
2734	0.0007596
2746	0.0008532
2758	0.0007848
2770	0.0008496
2782	0.0010152
2794	0.0013176
2806	0.0016632
2818	0.0021168
2830	0.0028836
2842	0.0048924
2854	0.009486
2866	0.01458
2878	0.01674
2890	0.0150732
2902	0.0158544
2914	0.0233712
2926	0.0333648
2938	0.0347544
2950	0.0268272
2962	0.0311364
2974	0.0255204
2986	0.0093024
2998	0.0045612
3010	0.0030312
3022	0.002196
3034	0.0016308
3046	0.0012708
3058	0.0010296
3070	0.000918
3082	0.0008568
3094	0.0007704
3106	0.0007164
3118	0.0006372
3130	0.0006012
3142	0.0005256
3154	0.0005076
3166	0.0004752
3178	0.0004464
3190	0.0003816
3202	0.000342
3214	0.00027
3226	0.00027
3238	0.0002088
3250	0.0001836
3262	0.0001728
3274	0.0001692
3286	0.000108
3298	0.0001584
3310	0.0001332
3322	0.0001332
3334	0.0001476
3346	0.0001332
3358	0.0001584
3370	0.0001152
3382	0.0001512
3394	0.000144
3406	0.0001188
3418	0.0001116
3430	9.36e-05
3442	6.84e-05
3454	9e-05
3466	7.92e-05
3478	0.0001044
3490	8.64e-05
3502	7.56e-05
3514	6.48e-05
3526	6.12e-05
3538	4.68e-05
3550	6.48e-05
3562	6.48e-05
3574	3.6e-05
3586	7.56e-05
3598	8.64e-05
3610	0.0001044
3622	7.92e-05
3634	0.0001008
3646	0.0001116
3658	0.0001296
3670	0.0001116
3682	0.0001404
3694	0.0001152
3706	9.36e-05
3718	0.0001368
3730	0.0001332
3742	0.0001008
3754	9.36e-05
3766	0.0001692
3778	0.0001692
3790	0.0001656
3802	0.0001476
3814	0.0001944
3826	0.0001836
3838	0.0001764
