Infrared Spectrum: 3,5-Dimethyloctane
Formula: C 10 H 22
CAS: 15869-93-9
State: gas
Instrument: HP-GC/MS/IRD
Origin: NIST Mass Spectrometry Data Center
1/CM	ABSORBANCE
550	0.000296
562	2.59e-05
574	9.62e-05
586	2.59e-05
598	0.0001036
610	9.62e-05
622	0.000111
634	5.92e-05
646	0.0001073
658	0.0001184
670	0.0001295
682	0.0001739
694	0.0002035
706	0.0001628
718	0.0002405
730	0.0003071
742	0.0004366
754	0.0003848
766	0.0004366
778	0.0003885
790	0.0003663
802	0.0002775
814	0.0002516
826	0.0002738
838	0.0002516
850	0.0002627
862	0.0003515
874	0.0003145
886	0.0003219
898	0.0003145
910	0.0003552
922	0.0003737
934	0.0004144
946	0.000629
958	0.0007326
970	0.0007881
982	0.0007326
994	0.0006216
1006	0.0005328
1018	0.0004921
1030	0.0003848
1042	0.0003404
1054	0.0003108
1066	0.0002812
1078	0.0003404
1090	0.0002886
1102	0.0002886
1114	0.0002997
1126	0.0004477
1138	0.0006919
1150	0.0009472
1162	0.0007548
1174	0.0004181
1186	0.0002479
1198	0.0002257
1210	0.0002331
1222	0.0002775
1234	0.0003737
1246	0.0003959
1258	0.0004403
1270	0.0004884
1282	0.0005328
1294	0.0005587
1306	0.0006031
1318	0.000629
1330	0.0007881
1342	0.0010286
1354	0.0013838
1366	0.0020609
1378	0.0035409
1390	0.0031191
1402	0.0013024
1414	0.000851
1426	0.0009398
1438	0.0015799
1450	0.0032079
1462	0.0048877
1474	0.0037703
1486	0.0016724
1498	0.0008288
1510	0.0005069
1522	0.0004107
1534	0.0003293
1546	0.0002775
1558	0.0002812
1570	0.0002553
1582	0.0002553
1594	0.0002109
1606	0.0002072
1618	0.0001813
1630	0.0002109
1642	0.0001924
1654	0.0001776
1666	0.0001813
1678	0.0001628
1690	0.0001147
1702	9.62e-05
1714	7.77e-05
1726	7.77e-05
1738	8.14e-05
1750	6.29e-05
1762	6.29e-05
1774	6.29e-05
1786	6.66e-05
1798	6.29e-05
1810	5.55e-05
1822	5.92e-05
1834	4.81e-05
1846	4.81e-05
1858	3.7e-05
1870	4.07e-05
1882	5.18e-05
1894	4.07e-05
1906	2.96e-05
1918	2.96e-05
1930	4.44e-05
1942	3.7e-06
1954	1.85e-05
1966	1.85e-05
1978	1.85e-05
1990	1.85e-05
2002	2.59e-05
2014	3.7e-06
2026	1.11e-05
2038	3.7e-05
2050	2.59e-05
2062	2.59e-05
2074	1.85e-05
2086	1.48e-05
2098	1.85e-05
2110	2.59e-05
2122	1.48e-05
2134	3.7e-06
2146	2.96e-05
2158	2.96e-05
2170	2.96e-05
2182	1.48e-05
2194	2.96e-05
2206	1.85e-05
2218	2.59e-05
2230	3.33e-05
2242	3.33e-05
2254	1.85e-05
2266	4.44e-05
2278	3.33e-05
2290	3.7e-05
2302	4.07e-05
2314	4.07e-05
2326	4.07e-05
2338	5.92e-05
2350	5.55e-05
2362	5.92e-05
2374	7.03e-05
2386	6.66e-05
2398	7.4e-05
2410	0.000111
2422	8.51e-05
2434	7.03e-05
2446	6.29e-05
2458	7.03e-05
2470	6.29e-05
2482	5.92e-05
2494	7.03e-05
2506	8.14e-05
2518	9.99e-05
2530	0.0001073
2542	0.0001517
2554	0.0001776
2566	0.0001961
2578	0.0002331
2590	0.000259
2602	0.0002775
2614	0.0002701
2626	0.0002701
2638	0.0003182
2650	0.0003034
2662	0.0003367
2674	0.0003404
2686	0.0003737
2698	0.0004292
2710	0.0004958
2722	0.0005809
2734	0.0007178
2746	0.0007585
2758	0.000703
2770	0.00074
2782	0.0008806
2794	0.0010952
2806	0.0014097
2818	0.0018463
2830	0.0025789
2842	0.0044918
2854	0.0075998
2866	0.0104081
2878	0.0146594
2890	0.015836
2902	0.018019
2914	0.0241425
2926	0.0264032
2938	0.0248159
2950	0.0234506
2962	0.0344914
2974	0.0300551
2986	0.0105598
2998	0.0045066
3010	0.0027343
3022	0.0020017
3034	0.0015799
3046	0.0012617
3058	0.001073
3070	0.0009731
3082	0.0008362
3094	0.0007844
3106	0.0006512
3118	0.0006179
3130	0.0005661
3142	0.0005328
3154	0.0004662
3166	0.0004736
3178	0.0004255
3190	0.0003848
3202	0.0003182
3214	0.0002442
3226	0.0001776
3238	0.0001702
3250	9.99e-05
3262	0.0001221
3274	0.0001258
3286	0.0001036
3298	0.0001073
3310	0.0001443
3322	0.0001332
3334	0.0001295
3346	7.77e-05
3358	0.0001517
3370	0.0001036
3382	8.14e-05
3394	6.66e-05
3406	7.4e-05
3418	8.51e-05
3430	7.77e-05
3442	5.55e-05
3454	8.51e-05
3466	9.62e-05
3478	5.55e-05
3490	6.29e-05
3502	7.03e-05
3514	4.07e-05
3526	6.66e-05
3538	3.33e-05
3550	6.29e-05
3562	4.07e-05
3574	5.92e-05
3586	3.33e-05
3598	3.33e-05
3610	1.85e-05
3622	8.51e-05
3634	7.4e-05
3646	9.99e-05
3658	6.66e-05
3670	5.55e-05
3682	0.0001221
3694	9.99e-05
3706	0.0001147
3718	0.0001221
3730	0.0001295
3742	0.0001184
3754	0.0001295
3766	0.0001258
3778	9.99e-05
3790	0.0001258
3802	0.0001554
3814	9.99e-05
3826	0.0001406
3838	0.000111
