Infrared Spectrum: 4-(Methylthio)phenyl isothiocyanate
Formula: C 8 H 7 N S 2
CAS: 15863-41-9
State: gas
Origin: EPA-IR VAPOR PHASE LIBRARY
1/CM	ABSORBANCE
549.8	0.004682
559.445	0.005242
569.09	0.007772
578.734	0.009342
588.379	0.008842
598.024	0.007482
607.669	0.007772
617.313	0.007342
626.958	0.005982
636.603	0.007392
646.248	0.006482
655.893	0.005562
665.537	0.005052
675.182	0.004602
684.827	0.004632
694.472	0.003902
704.116	0.003672
713.761	0.004622
723.406	0.005282
733.051	0.012462
742.695	0.015152
752.34	0.004862
761.985	0.003172
771.63	0.004622
781.275	0.005992
790.919	0.008992
800.564	0.019612
810.209	0.041822
819.854	0.060592
829.498	0.054372
839.143	0.032332
848.788	0.014192
858.433	0.008252
868.078	0.007042
877.722	0.005652
887.367	0.007732
897.012	0.014522
906.657	0.022302
916.301	0.028482
925.946	0.039972
935.591	0.054452
945.236	0.052702
954.88	0.036462
964.525	0.029652
974.17	0.020862
983.815	0.010452
993.46	0.007772
1003.1	0.007962
1012.75	0.015702
1022.39	0.008562
1032.04	0.003952
1041.68	0.004862
1051.33	0.005742
1060.97	0.006362
1070.62	0.010222
1080.26	0.018242
1089.91	0.049622
1099.55	0.047322
1109.2	0.013952
1118.84	0.008772
1128.49	0.007072
1138.13	0.005542
1147.78	0.004152
1157.42	0.003212
1167.07	0.003542
1176.71	0.004042
1186.36	0.003932
1196	0.003632
1205.64	0.004282
1215.29	0.006822
1224.93	0.006862
1234.58	0.011062
1244.22	0.021322
1253.87	0.026812
1263.51	0.019252
1273.16	0.011022
1282.8	0.008562
1292.45	0.008272
1302.09	0.009042
1311.74	0.009362
1321.38	0.011952
1331.03	0.007562
1340.67	0.003642
1350.32	0.002922
1359.96	0.002722
1369.61	0.003062
1379.25	0.003992
1388.9	0.005642
1398.54	0.007572
1408.18	0.009442
1417.83	0.012362
1427.47	0.018142
1437.12	0.029322
1446.76	0.031732
1456.41	0.019122
1466.05	0.019722
1475.7	0.056002
1485.34	0.177812
1494.99	0.101452
1504.63	0.021012
1514.28	0.013172
1523.92	0.011492
1533.57	0.011362
1543.21	0.012422
1552.86	0.015782
1562.5	0.017422
1572.15	0.018622
1581.79	0.028472
1591.44	0.030572
1601.08	0.014702
1610.73	0.009002
1620.37	0.008212
1630.01	0.008102
1639.66	0.008112
1649.3	0.007292
1658.95	0.006212
1668.59	0.004902
1678.24	0.004262
1687.88	0.003822
1697.53	0.003492
1707.17	0.003422
1716.82	0.003482
1726.46	0.004062
1736.11	0.004372
1745.75	0.004942
1755.4	0.005232
1765.04	0.005272
1774.69	0.004632
1784.33	0.004582
1793.98	0.005142
1803.62	0.006012
1813.27	0.006942
1822.91	0.008382
1832.55	0.009592
1842.2	0.010912
1851.84	0.012702
1861.49	0.014142
1871.13	0.015392
1880.78	0.016992
1890.42	0.018142
1900.07	0.019762
1909.71	0.022292
1919.36	0.027312
1929	0.036062
1938.65	0.050112
1948.29	0.070522
1957.94	0.097902
1967.58	0.133542
1977.23	0.178882
1986.87	0.235852
1996.52	0.312162
2006.16	0.411122
2015.81	0.514932
2025.45	0.609152
2035.1	0.705352
2044.74	0.783232
2054.38	0.624532
2064.03	0.399672
2073.67	0.339602
2083.32	0.398732
2092.96	0.503302
2102.61	0.482522
2112.25	0.310132
2121.9	0.194462
2131.54	0.150242
2141.19	0.140712
2150.83	0.142792
2160.48	0.123262
2170.12	0.091032
2179.77	0.069702
2189.41	0.059662
2199.06	0.048852
2208.7	0.036292
2218.35	0.025712
2227.99	0.018572
2237.64	0.013062
2247.28	0.009522
2256.92	0.007312
2266.57	0.006582
2276.21	0.006142
2285.86	0.005542
2295.5	0.004912
2305.15	0.004612
2314.79	0.004772
2324.44	0.005292
2334.08	0.005352
2343.73	0.005812
2353.37	0.006362
2363.02	0.006402
2372.66	0.005772
2382.31	0.005542
2391.95	0.005772
2401.6	0.005872
2411.24	0.005902
2420.89	0.005612
2430.53	0.004842
2440.18	0.004072
2449.82	0.004122
2459.47	0.004412
2469.11	0.004472
2478.75	0.005222
2488.4	0.006252
2498.04	0.006922
2507.69	0.006792
2517.33	0.005922
2526.98	0.005252
2536.62	0.004542
2546.27	0.004382
2555.91	0.004632
2565.56	0.004962
2575.2	0.005872
2584.85	0.006852
2594.49	0.009392
2604.14	0.013092
2613.78	0.017292
2623.43	0.017842
2633.07	0.012092
2642.72	0.006352
2652.36	0.004812
2662.01	0.004212
2671.65	0.004082
2681.29	0.003382
2690.94	0.003242
2700.58	0.002882
2710.23	0.002812
2719.87	0.003222
2729.52	0.003652
2739.16	0.003892
2748.81	0.004702
2758.45	0.004972
2768.1	0.005392
2777.74	0.005862
2787.39	0.006132
2797.03	0.005442
2806.68	0.004342
2816.32	0.003792
2825.97	0.004572
2835.61	0.006012
2845.26	0.007282
2854.9	0.007002
2864.55	0.005342
2874.19	0.005092
2883.84	0.004652
2893.48	0.005402
2903.12	0.007242
2912.77	0.010952
2922.41	0.017452
2932.06	0.032052
2941.7	0.022342
2951.35	0.013852
2960.99	0.010952
2970.64	0.010392
2980.28	0.011462
2989.93	0.013482
2999.57	0.015722
3009.22	0.010562
3018.86	0.009142
3028.51	0.010502
3038.15	0.011432
3047.8	0.007552
3057.44	0.006052
3067.09	0.007122
3076.73	0.009862
3086.38	0.012202
3096.02	0.010992
3105.67	0.006562
3115.31	0.003622
3124.95	0.002482
3134.6	0.001872
3144.24	0.001982
3153.89	0.001422
3163.53	0.001402
3173.18	0.0012443
3182.82	0.0009473
3192.47	0.000687
3202.11	0.0004461
3211.76	0.0005261
3221.4	0.0007759
3231.05	0.000538
3240.69	0.0005711
3250.34	0.0006634
3259.98	0.000517
3269.63	0.000312172
3279.27	0.0006962
3288.92	0.0009032
3298.56	0.0007285
3308.21	0.000207
3317.85	0.0010085
3327.49	0.0006757
3337.14	0.0009512
3346.78	0.0004905
3356.43	0.0008439
3366.07	0.0007088
3375.72	0.0005544
3385.36	0.0009832
3395.01	0.000197
3404.65	0.000124
3414.3	0.0002936
3423.94	0.0007353
3433.59	0.0010031
3443.23	0.0009067
3452.88	0.0012126
3462.52	0.000892
3472.17	0.0005594
3481.81	0.001035
3491.46	0.0006162
3501.1	0.0010297
3510.75	0.000818
3520.39	0.0008616
3530.04	0.00041095
3539.68	0.000737
3549.32	0.0009635
3558.97	0.0005123
3568.61	0.0002619
3578.26	0.0007002
3587.9	0.0008723
3597.55	0.0007075
3607.19	0.0007648
3616.84	0.000754
3626.48	0.00073
3636.13	0.0008605
3645.77	0.0009429
3655.42	0.0010282
3665.06	0.0009739
3674.71	0.0006601
3684.35	0.0010787
3694	0.0006121
3703.64	0.0009377
3713.29	0.0007134
3722.93	0.0012618
3732.58	0.0009771
3742.22	0.0004847
3751.86	0.0006393
3761.51	0.0009863
3771.15	0.0011039
3780.8	0.0007948
3790.44	0.0009909
3800.09	0.0012151
3809.73	0.0012472
3819.38	0.0009738
3829.02	0.0011657
3838.67	0.0012345
3848.31	0.0012529
3857.96	0.001038
3867.6	0.0012383
3877.25	0.001632
3886.89	0.001592
3896.54	0.001882
3906.18	0.0010947
3915.83	0.001642
3925.47	0.002022
3935.12	0.002042
3944.76	0.002552
3954.41	0.002652
3964.05	0.003052
3973.69	0.003232
3983.34	0.003312
3992.98	0.003172
