Infrared Spectrum: 3-Ethylheptane
Formula: C 9 H 20
CAS: 15869-80-4
State: gas
Instrument: HP-GC/MS/IRD
Origin: NIST Mass Spectrometry Data Center
1/CM	ABSORBANCE
550	0.0007437
562	0.0002146
574	0.000111
586	0.0001184
598	8.51e-05
610	0.0001184
622	9.62e-05
634	0.0001517
646	4.07e-05
658	8.51e-05
670	2.59e-05
682	7.4e-05
694	8.51e-05
706	0.000148
718	0.0002479
730	0.0003885
742	0.0003811
754	0.0004033
766	0.0005032
778	0.0006142
790	0.000518
802	0.0002849
814	0.0002183
826	0.0001517
838	0.0001776
850	0.0001554
862	0.0001443
874	0.0001739
886	0.0002627
898	0.0002923
910	0.0002368
922	0.0002627
934	0.0004625
946	0.0005587
958	0.0003367
970	0.0001258
982	9.62e-05
994	9.62e-05
1006	0.0001998
1018	0.0002109
1030	0.0002072
1042	0.0002479
1054	0.0002812
1066	0.0003293
1078	0.0004255
1090	0.0003626
1102	0.0003108
1114	0.0003367
1126	0.0004255
1138	0.0004551
1150	0.0003922
1162	0.0003182
1174	0.0002479
1186	0.0002405
1198	0.000259
1210	0.0003367
1222	0.0003626
1234	0.0004884
1246	0.0005661
1258	0.0005735
1270	0.0006327
1282	0.0007474
1294	0.000777
1306	0.0008991
1318	0.0007992
1330	0.0009065
1342	0.0009805
1354	0.0011803
1366	0.0014652
1378	0.0025826
1390	0.0025308
1402	0.0012432
1414	0.0008658
1426	0.0010064
1438	0.001554
1450	0.0034225
1462	0.0052244
1474	0.004033
1486	0.0019055
1498	0.0009324
1510	0.0003774
1522	0.000333
1534	0.0003811
1546	0.000296
1558	0.000148
1570	0.0003663
1582	0.0003922
1594	0.0003848
1606	0.0003589
1618	0.0002886
1630	0.0003219
1642	0.0002664
1654	9.62e-05
1666	0.000222
1678	0.000148
1690	0.0001702
1702	5.92e-05
1714	7.77e-05
1726	0.0001924
1738	8.88e-05
1750	3.7e-05
1762	0.0001147
1774	0.0001295
1786	0.0001036
1798	0.0001184
1810	0.0001591
1822	0.0001443
1834	0.0001406
1846	8.14e-05
1858	0.0001739
1870	0.0001332
1882	0.0001517
1894	0.0001258
1906	0.0001369
1918	0.0001258
1930	0.0001702
1942	0.0001221
1954	0.0001332
1966	0.0001221
1978	0.0001258
1990	0.0001073
2002	0.0001406
2014	0.000111
2026	0.0001369
2038	0.0001295
2050	0.000148
2062	0.0001332
2074	0.0001332
2086	9.99e-05
2098	0.0001221
2110	9.99e-05
2122	0.0001036
2134	0.0001073
2146	9.25e-05
2158	0.0001184
2170	0.000111
2182	0.0001147
2194	8.88e-05
2206	8.51e-05
2218	7.03e-05
2230	8.14e-05
2242	9.99e-05
2254	7.77e-05
2266	8.14e-05
2278	8.14e-05
2290	6.29e-05
2302	5.18e-05
2314	1.11e-05
2326	1.11e-05
2338	2.96e-05
2350	4.44e-05
2362	1.11e-05
2374	6.29e-05
2386	0.0001443
2398	0.0001369
2410	0.0001221
2422	0.0001258
2434	0.0001147
2446	0.0001073
2458	8.88e-05
2470	0.0001073
2482	0.0001147
2494	0.0001184
2506	0.0001406
2518	0.0001295
2530	0.0001554
2542	0.0001665
2554	0.0002035
2566	0.0002257
2578	0.000296
2590	0.0003404
2602	0.00037
2614	0.0003663
2626	0.0003811
2638	0.0003848
2650	0.0004329
2662	0.0004662
2674	0.0005365
2686	0.0005402
2698	0.0005439
2710	0.000592
2722	0.0006438
2734	0.0008103
2746	0.0008954
2758	0.0008917
2770	0.0009435
2782	0.0010915
2794	0.0013505
2806	0.0016798
2818	0.0020831
2830	0.0027491
2842	0.0043475
2854	0.0089651
2866	0.0162319
2878	0.0197247
2890	0.0173456
2902	0.01591
2914	0.0232989
2926	0.0343138
2938	0.0359862
2950	0.0290191
2962	0.0338809
2974	0.0317312
2986	0.0132904
2998	0.0057683
3010	0.0036334
3022	0.0026344
3034	0.0020794
3046	0.0017242
3058	0.0014282
3070	0.0012284
3082	0.0010952
3094	0.000999
3106	0.0009176
3118	0.0007696
3130	0.0007104
3142	0.0006327
3154	0.0005587
3166	0.0005328
3178	0.0004514
3190	0.0004107
3202	0.000333
3214	0.0002849
3226	0.0002405
3238	0.0002331
3250	0.0002109
3262	0.000185
3274	0.0001665
3286	0.0001998
3298	0.0001591
3310	0.000185
3322	0.000185
3334	0.0001591
3346	0.0001961
3358	0.0001739
3370	0.0001998
3382	0.0002035
3394	0.0001739
3406	0.0002109
3418	0.0001924
3430	0.0001887
3442	0.0001887
3454	0.0001776
3466	0.0002294
3478	0.0001739
3490	0.0001628
3502	0.000111
3514	0.0002368
3526	0.0001295
3538	0.0002257
3550	0.0001443
3562	7.77e-05
3574	0.0001887
3586	4.81e-05
3598	0.0002257
3610	9.99e-05
3622	0.000185
3634	0.0001998
3646	0.0001258
3658	0.0002072
3670	0.0001628
3682	0.000259
3694	0.0002701
3706	0.0002738
3718	0.0002738
3730	0.0001702
3742	9.25e-05
3754	0.0002146
3766	0.0002516
3778	0.0003256
3790	0.0003034
3802	0.0002812
3814	0.0002886
3826	0.0003071
3838	0.0002368
