Infrared Spectrum: 4-Ethyloctane
Formula: C 10 H 22
CAS: 15869-86-0
State: gas
Instrument: HP-GC/MS/IRD
Origin: NIST Mass Spectrometry Data Center
1/CM	ABSORBANCE
550	0.000215
562	0.0001634
574	3.87e-05
586	7.74e-05
598	0.0001032
610	0.0001032
622	8.17e-05
634	7.74e-05
646	0.0001247
658	0.0002236
670	0.0002107
682	0.0002451
694	0.0002107
706	0.0002537
718	0.0005289
730	0.0006622
742	0.0006966
754	0.0005418
766	0.0007095
778	0.0008342
790	0.000645
802	0.0004128
814	0.0003483
826	0.0002881
838	0.0002451
850	0.0002451
862	0.0003354
874	0.0004085
886	0.00043
898	0.0004644
910	0.000473
922	0.000473
934	0.00043
946	0.0004515
958	0.0004171
970	0.0003569
982	0.0003311
994	0.0002752
1006	0.0002709
1018	0.000387
1030	0.0003913
1042	0.0004042
1054	0.0004386
1066	0.0004343
1078	0.0003913
1090	0.0003139
1102	0.0002064
1114	0.0001892
1126	0.0003139
1138	0.0003741
1150	0.0003913
1162	0.0002236
1174	0.0001376
1186	0.0001505
1198	0.0002193
1210	0.0002838
1222	0.0003354
1234	0.0003655
1246	0.0004171
1258	0.0004687
1270	0.0005547
1282	0.0006493
1294	0.000731
1306	0.0007826
1318	0.0007998
1330	0.0009245
1342	0.0011696
1354	0.0013072
1366	0.0016125
1378	0.0025757
1390	0.0024811
1402	0.0012083
1414	0.0009761
1426	0.0010879
1438	0.0018189
1450	0.003784
1462	0.0058394
1474	0.0044247
1486	0.0018705
1498	0.0009546
1510	0.0006278
1522	0.0004945
1534	0.0004214
1546	0.0003139
1558	0.0002709
1570	0.0002451
1582	0.0002236
1594	0.0002236
1606	0.0002193
1618	0.0001849
1630	0.0001935
1642	0.0001634
1654	0.0001505
1666	0.000129
1678	0.0001376
1690	9.03e-05
1702	6.88e-05
1714	6.02e-05
1726	3.44e-05
1738	2.15e-05
1750	3.44e-05
1762	4.73e-05
1774	4.3e-05
1786	3.87e-05
1798	5.16e-05
1810	4.3e-05
1822	3.01e-05
1834	2.58e-05
1846	1.72e-05
1858	2.15e-05
1870	1.29e-05
1882	3.01e-05
1894	1.72e-05
1906	0
1918	4.3e-06
1930	1.29e-05
1942	0
1954	1.72e-05
1966	0
1978	1.72e-05
1990	0
2002	4.3e-06
2014	3.01e-05
2026	3.87e-05
2038	4.73e-05
2050	3.01e-05
2062	3.01e-05
2074	1.29e-05
2086	1.29e-05
2098	2.15e-05
2110	0
2122	2.15e-05
2134	8.6e-06
2146	1.29e-05
2158	1.72e-05
2170	3.01e-05
2182	2.58e-05
2194	1.72e-05
2206	1.72e-05
2218	8.6e-06
2230	3.44e-05
2242	3.01e-05
2254	4.3e-05
2266	2.58e-05
2278	2.58e-05
2290	6.02e-05
2302	4.3e-05
2314	6.02e-05
2326	5.16e-05
2338	7.74e-05
2350	8.6e-05
2362	0.0001075
2374	0.0001333
2386	0.0001075
2398	0.0001075
2410	0.0001075
2422	9.89e-05
2434	0.0001032
2446	8.17e-05
2458	6.02e-05
2470	8.17e-05
2482	0.0001032
2494	0.0001204
2506	0.0001118
2518	0.0001419
2530	0.0001806
2542	0.0001806
2554	0.0002064
2566	0.0002623
2578	0.0003268
2590	0.0003698
2602	0.0003483
2614	0.0003612
2626	0.000387
2638	0.0004171
2650	0.0004601
2662	0.0005031
2674	0.0005418
2686	0.0005805
2698	0.0006149
2710	0.0006493
2722	0.0007095
2734	0.000903
2746	0.0009847
2758	0.0009632
2770	0.0010191
2782	0.0011696
2794	0.0014921
2806	0.0018748
2818	0.0023908
2830	0.0032207
2842	0.0051815
2854	0.0105737
2866	0.018232
2878	0.0221794
2890	0.0194188
2902	0.0188297
2914	0.0276533
2926	0.0395256
2938	0.0418175
2950	0.0322156
2962	0.0390827
2974	0.0334239
2986	0.0124399
2998	0.0060415
3010	0.0039775
3022	0.0029799
3034	0.0023048
3046	0.0017802
3058	0.0014534
3070	0.001247
3082	0.0011008
3094	0.0009976
3106	0.0008729
3118	0.0007826
3130	0.000688
3142	0.0006235
3154	0.0005504
3166	0.0005203
3178	0.0004601
3190	0.0004128
3202	0.0003354
3214	0.0002666
3226	0.0001892
3238	0.0001462
3250	0.0001548
3262	0.0001333
3274	0.000129
3286	0.0001333
3298	0.0001204
3310	0.000129
3322	0.0001333
3334	0.0001204
3346	9.03e-05
3358	0.0001247
3370	0.000129
3382	0.0001032
3394	8.17e-05
3406	4.73e-05
3418	6.45e-05
3430	3.87e-05
3442	5.59e-05
3454	4.3e-05
3466	5.16e-05
3478	2.15e-05
3490	4.3e-05
3502	5.16e-05
3514	2.58e-05
3526	2.15e-05
3538	6.02e-05
3550	5.59e-05
3562	5.59e-05
3574	1.29e-05
3586	2.58e-05
3598	2.58e-05
3610	6.88e-05
3622	0.0001075
3634	0.0001247
3646	0.0001204
3658	0.000129
3670	0.0001161
3682	9.89e-05
3694	0.0001462
3706	9.46e-05
3718	0.000129
3730	0.0001376
3742	0.0001419
3754	0.0001333
3766	0.0001032
3778	0.0001419
3790	0.0001419
3802	0.0001204
3814	0.0001333
3826	0.0001462
3838	0.0001677
