Infrared Spectrum: 2-Amino-6-bromobenzothiazole
Formula: C7 H5 Br N2 S
CAS: 15864-32-1
State: SOLID (SPLIT MULL)
Class: COBLENTZ III
Instrument: DOW KBr FOREPRISM-GRATING
Instrument parameters: BLAZED AT 3.5, 12.0, 20.0 MICRON AND CHANGED AT 5.0, 7.5, 14.9 MICRON
Sampling: TRANSMISSION
Resolution: 2
Origin: DOW CHEMICAL COMPANY
1/CM	TRANSMITTANCE
3800	0.6601
3791	0.6614
3782	0.6628
3773	0.6643
3764	0.6658
3755	0.6675
3746	0.6691
3737	0.6704
3728	0.6721
3719	0.6739
3710	0.6761
3701	0.6785
3692	0.6812
3683	0.684
3674	0.6857
3665	0.6867
3656	0.6865
3647	0.6867
3638	0.6874
3629	0.6881
3620	0.6893
3611	0.6918
3602	0.6947
3593	0.6949
3584	0.6925
3575	0.6907
3566	0.6928
3557	0.6956
3548	0.6972
3539	0.6982
3530	0.6988
3521	0.699
3512	0.6986
3503	0.6961
3494	0.6928
3485	0.6865
3476	0.6692
3467	0.4595
3458	0.2078
3449	0.3112
3440	0.5233
3431	0.5765
3422	0.611
3413	0.6368
3404	0.6571
3395	0.6706
3386	0.6805
3377	0.6854
3368	0.6896
3359	0.694
3350	0.6961
3341	0.6961
3332	0.6951
3323	0.6906
3314	0.6811
3305	0.6595
3296	0.5957
3287	0.5325
3278	0.4992
3269	0.5164
3260	0.5745
3251	0.6325
3242	0.6561
3233	0.6482
3224	0.6187
3215	0.6238
3206	0.6266
3197	0.6051
3188	0.5729
3179	0.5549
3170	0.5427
3161	0.5312
3152	0.4831
3143	0.4501
3134	0.4236
3125	0.4018
3116	0.3849
3107	0.3728
3098	0.3668
3089	0.3673
3080	0.3758
3071	0.3879
3062	0.403
3053	0.4388
3044	0.4752
3035	0.501
3026	0.5223
3017	0.5379
3008	0.5538
2999	0.5652
2990	0.5738
2981	0.5812
2972	0.5862
2963	0.5884
2954	0.5895
2945	0.5902
2936	0.5936
2927	0.5982
2918	0.6098
2909	0.6233
2900	0.6384
2891	0.6493
2882	0.6607
2873	0.6725
2864	0.6803
2855	0.6851
2846	0.6925
2837	0.7011
2828	0.71
2819	0.7184
2810	0.7257
2801	0.7311
2792	0.7349
2783	0.7381
2774	0.7408
2765	0.7411
2756	0.739
2747	0.7305
2738	0.6998
2729	0.6922
2720	0.7078
2711	0.7264
2702	0.7376
2693	0.7458
2684	0.7514
2675	0.7578
2666	0.7631
2657	0.7641
2648	0.765
2639	0.766
2630	0.7661
2621	0.7641
2612	0.7708
2603	0.773
2594	0.7701
2585	0.7718
2576	0.7776
2567	0.7825
2558	0.7858
2549	0.7874
2540	0.7868
2531	0.7847
2522	0.7825
2513	0.7833
2504	0.7841
2495	0.7849
2486	0.7857
2477	0.7865
2468	0.7878
2459	0.789
2450	0.7898
2441	0.7899
2432	0.7899
2423	0.7901
2414	0.7914
2405	0.7925
2396	0.7925
2387	0.7922
2378	0.7885
2369	0.7848
2360	0.7811
2351	0.7778
2342	0.7758
2333	0.7738
2324	0.7728
2315	0.7761
2306	0.7791
2297	0.7817
2288	0.7838
2279	0.7856
2270	0.7874
2261	0.7894
2252	0.7915
2243	0.7937
2234	0.796
2225	0.7985
2216	0.8011
2207	0.8044
2198	0.8078
2189	0.814
2180	0.8187
2171	0.8171
2162	0.8212
2153	0.8245
2144	0.8273
2135	0.8295
2126	0.8315
2117	0.8334
2108	0.8366
2099	0.8397
2090	0.8413
2081	0.8398
2072	0.8399
2063	0.8463
2054	0.8503
2045	0.852
2036	0.853
2027	0.8541
2018	0.8551
2009	0.8559
2000	0.8567
1991	0.8499
1982	0.8528
1973	0.8566
1964	0.8594
1955	0.8621
1946	0.8639
1937	0.8656
1928	0.868
1919	0.8699
1910	0.871
1901	0.8718
1892	0.8717
1883	0.866
1874	0.8491
1865	0.8544
1856	0.8681
1847	0.8704
1838	0.8739
1829	0.8781
1820	0.8788
1811	0.8781
1802	0.8771
1793	0.8768
1784	0.8784
1775	0.8808
1766	0.884
1757	0.8836
1748	0.8843
1739	0.8868
1730	0.889
1721	0.8818
1712	0.8775
1703	0.8828
1694	0.8847
1685	0.8811
1676	0.8745
1667	0.8617
1658	0.8418
1649	0.6828
1640	0.2496
1631	0.1506
1622	0.4723
1613	0.7318
1604	0.7857
1595	0.8006
1586	0.7737
1577	0.8082
1568	0.8389
1559	0.8297
1550	0.7265
1541	0.4099
1532	0.0447
1523	0.4422
1514	0.6943
1505	0.7843
1496	0.8141
1487	0.8121
1478	0.8461
1469	0.8546
1460	0.8108
1451	0.1362
1442	0.3998
1433	0.6384
1424	0.6918
1415	0.69
1406	0.7632
1397	0.7804
1388	0.7946
1379	0.7933
1370	0.7908
1361	0.6792
1352	0.7141
1343	0.7317
1334	0.6379
1325	0.6032
1316	0.564
1307	0.4608
1298	0.5812
1289	0.6534
1280	0.4886
1271	0.594
1262	0.7381
1253	0.7635
1244	0.7664
1235	0.7831
1226	0.7908
1217	0.7978
1208	0.8101
1199	0.8199
1190	0.8274
1181	0.8312
1172	0.8318
1163	0.8314
1154	0.8199
1145	0.8024
1136	0.7868
1127	0.8121
1118	0.7599
1109	0.5923
1100	0.7915
1091	0.818
1082	0.7515
1073	0.8247
1064	0.8445
1055	0.8453
1046	0.8147
1037	0.8403
1028	0.8428
1019	0.8414
1010	0.8425
1001	0.8442
992	0.8455
983	0.845
974	0.8447
965	0.8467
956	0.8489
947	0.8485
938	0.835
929	0.8495
920	0.8501
911	0.8531
902	0.86
893	0.8506
884	0.8033
875	0.8291
866	0.563
857	0.7467
848	0.8304
839	0.8445
830	0.7998
821	0.7051
812	0.33
803	0.79
794	0.8106
785	0.82
776	0.7982
767	0.788
758	0.7635
749	0.5288
740	0.7318
731	0.7537
722	0.75
713	0.7561
704	0.7554
695	0.6712
686	0.7453
677	0.7446
668	0.7486
659	0.7525
650	0.7294
641	0.7314
632	0.751
623	0.7772
614	0.7832
605	0.7222
596	0.7168
587	0.7475
578	0.7728
569	0.7942
560	0.8025
551	0.7956
542	0.6593
533	0.771
524	0.7901
515	0.7857
506	0.8076
497	0.8075
488	0.8018
479	0.7945
470	0.7835
461	0.7728
452	0.754
443	0.7141
434	0.6921
425	0.6899
416	0.6901
407	0.691
398	0.6922
389	0.6951
