Infrared Spectrum: 1-Allyl-2-methylbenzene
Formula: C 10 H 12
CAS: 1587-04-8
State: gas
Instrument: HP-GC/MS/IRD
Origin: NIST Mass Spectrometry Data Center
1/CM	ABSORBANCE
550	0.0004928
562	0.00034
574	0.0001904
586	7.44e-05
598	0.0001056
610	1.44e-05
622	0.0002464
634	0.000604
646	0.0006496
658	0.00028
670	0.0003112
682	0.0001224
694	0.0001312
706	0.0004184
718	0.0017936
730	0.0052832
742	0.0064848
754	0.003
766	0.0016336
778	0.0008024
790	0.0003376
802	0.0002168
814	0.0001472
826	0.0001832
838	0.0003656
850	0.0003648
862	0.0004208
874	0.0005552
886	0.0008208
898	0.0018672
910	0.0035896
922	0.0033128
934	0.001576
946	0.0008792
958	0.0007416
970	0.0008984
982	0.0015408
994	0.0019976
1006	0.0012464
1018	0.000732
1030	0.0006896
1042	0.0008248
1054	0.0007624
1066	0.0004416
1078	0.0003192
1090	0.0003632
1102	0.0004504
1114	0.0003648
1126	0.0003432
1138	0.0001984
1150	0.000116
1162	0.0001872
1174	0.0003208
1186	0.00034
1198	0.0002856
1210	0.0003024
1222	0.0003048
1234	0.0001544
1246	0.0001048
1258	0.0001496
1270	0.0002336
1282	0.0003048
1294	0.000428
1306	0.0003432
1318	0.0002808
1330	0.0001824
1342	0.0002624
1354	0.0002144
1366	0.0003216
1378	0.0005296
1390	0.000712
1402	0.0007088
1414	0.0008512
1426	0.0010488
1438	0.00166
1450	0.0020848
1462	0.0021584
1474	0.00218
1486	0.0024424
1498	0.0022344
1510	0.0012608
1522	0.0005984
1534	0.0003992
1546	0.00042
1558	0.0005704
1570	0.0003704
1582	0.0004624
1594	0.0007368
1606	0.0008224
1618	0.000884
1630	0.0014496
1642	0.0017112
1654	0.0009296
1666	0.0003992
1678	0.000412
1690	0.0003048
1702	0.0004184
1714	0.0003424
1726	0.000172
1738	0.0002328
1750	0.0002784
1762	0.0001896
1774	0.0002736
1786	0.0003056
1798	0.0003664
1810	0.0003512
1822	0.000524
1834	0.000568
1846	0.0004384
1858	0.0002064
1870	0.0002544
1882	0.000196
1894	0.0002744
1906	0.000316
1918	0.0002856
1930	0.0002384
1942	0.0002752
1954	0.0001328
1966	8.4e-05
1978	9.6e-05
1990	7.84e-05
2002	5.04e-05
2014	1.68e-05
2026	3.04e-05
2038	5.84e-05
2050	3.44e-05
2062	3.6e-05
2074	2.4e-05
2086	4.08e-05
2098	3.68e-05
2110	2.32e-05
2122	1.52e-05
2134	3.84e-05
2146	3.12e-05
2158	4e-05
2170	8e-06
2182	2.32e-05
2194	2.56e-05
2206	1.52e-05
2218	4.32e-05
2230	5.84e-05
2242	2.88e-05
2254	1.84e-05
2266	6e-05
2278	3.04e-05
2290	3.44e-05
2302	6.96e-05
2314	0.0001368
2326	0.0001552
2338	0.000136
2350	0.00012
2362	0.0001824
2374	0.0001248
2386	4.32e-05
2398	4.88e-05
2410	2.64e-05
2422	6.72e-05
2434	5.04e-05
2446	7.44e-05
2458	6.4e-05
2470	4.48e-05
2482	5.6e-05
2494	5.92e-05
2506	8e-06
2518	3.12e-05
2530	3.36e-05
2542	5.52e-05
2554	4.8e-05
2566	6.08e-05
2578	5.68e-05
2590	7.44e-05
2602	3.84e-05
2614	6.8e-05
2626	5.68e-05
2638	6.64e-05
2650	5.2e-05
2662	5.92e-05
2674	6.32e-05
2686	4.8e-05
2698	8.48e-05
2710	9.28e-05
2722	0.0001448
2734	0.0001576
2746	0.0001664
2758	0.000164
2770	0.0001184
2782	0.0001456
2794	0.0001696
2806	0.0002088
2818	0.000308
2830	0.0004872
2842	0.0008544
2854	0.0012904
2866	0.001708
2878	0.0019112
2890	0.0020008
2902	0.0024024
2914	0.0032136
2926	0.0039096
2938	0.0038552
2950	0.003112
2962	0.002568
2974	0.0027872
2986	0.0030072
2998	0.0027544
3010	0.0038752
3022	0.0047976
3034	0.0037392
3046	0.0030192
3058	0.0040584
3070	0.0051736
3082	0.0048656
3094	0.0030856
3106	0.0014088
3118	0.0007168
3130	0.0004072
3142	0.0003232
3154	0.0002616
3166	0.0002176
3178	0.0002072
3190	0.0001504
3202	0.0001328
3214	7.44e-05
3226	6.08e-05
3238	6.32e-05
3250	6.88e-05
3262	6e-05
3274	9.04e-05
3286	9.2e-05
3298	5.04e-05
3310	7.68e-05
3322	4.08e-05
3334	4.96e-05
3346	3.28e-05
3358	6.32e-05
3370	2.08e-05
3382	3.68e-05
3394	2.32e-05
3406	6.96e-05
3418	6.4e-05
3430	3.44e-05
3442	4.16e-05
3454	4.08e-05
3466	4.08e-05
3478	6.16e-05
3490	3.2e-05
3502	6.72e-05
3514	5.04e-05
3526	0.0001416
3538	2.64e-05
3550	7.28e-05
3562	4.24e-05
3574	4.48e-05
3586	0.0001064
3598	9.68e-05
3610	0.00016
3622	4.64e-05
3634	1.04e-05
3646	0.0001456
3658	4.64e-05
3670	0.0001312
3682	1.04e-05
3694	3.2e-05
3706	4.96e-05
3718	7.2e-06
3730	0.0001064
3742	0.00018
3754	0.0001696
3766	6.4e-06
3778	1.84e-05
3790	3.12e-05
3802	5.04e-05
3814	6.48e-05
3826	9.6e-06
3838	0.0001304
