Infrared Spectrum: p-Heptyloxybenzoic acid
Formula: C 14 H 20 O 3
CAS: 15872-42-1
State: gas
Origin: EPA-IR VAPOR PHASE LIBRARY
1/CM	ABSORBANCE
501.5	0.004268
513.074	0.002958
524.648	0.002298
536.222	0.002368
547.796	0.002928
559.37	0.003698
570.944	0.004508
582.518	0.003688
594.092	0.004448
605.666	0.005018
617.24	0.007738
628.814	0.003278
640.388	0.001818
651.962	0.0009877
663.536	0.0009129
675.11	0.0011945
686.684	0.002518
698.258	0.003988
709.832	0.003338
721.406	0.002408
732.98	0.001718
744.554	0.001648
756.128	0.002758
767.702	0.005958
779.276	0.004398
790.85	0.002568
802.423	0.001958
813.997	0.001838
825.571	0.001688
837.145	0.003048
848.719	0.004248
860.293	0.002288
871.867	0.001538
883.441	0.0013422
895.015	0.0012576
906.589	0.0012394
918.163	0.0012257
929.737	0.0012156
941.311	0.001458
952.885	0.001948
964.459	0.002478
976.033	0.002748
987.607	0.002918
999.181	0.003968
1010.76	0.006398
1022.33	0.007868
1033.9	0.007928
1045.48	0.006948
1057.05	0.008898
1068.63	0.016068
1080.2	0.025538
1091.77	0.010268
1103.35	0.004708
1114.92	0.003698
1126.49	0.003738
1138.07	0.004908
1149.64	0.010838
1161.22	0.039298
1172.79	0.019848
1184.36	0.013888
1195.94	0.010158
1207.51	0.007628
1219.09	0.009968
1230.66	0.015548
1242.23	0.026408
1253.81	0.031638
1265.38	0.016958
1276.96	0.009228
1288.53	0.008538
1300.1	0.011238
1311.68	0.009528
1323.25	0.010338
1334.83	0.009228
1346.4	0.006618
1357.97	0.011058
1369.55	0.009848
1381.12	0.004738
1392.7	0.003578
1404.27	0.002718
1415.84	0.003668
1427.42	0.002828
1438.99	0.002358
1450.57	0.002908
1462.14	0.003878
1473.71	0.005398
1485.29	0.003458
1496.86	0.005468
1508.44	0.014248
1520.01	0.006258
1531.58	0.002328
1543.16	0.001878
1554.73	0.002068
1566.31	0.003198
1577.88	0.005528
1589.45	0.008538
1601.03	0.019668
1612.6	0.017698
1624.18	0.005438
1635.75	0.002198
1647.32	0.001518
1658.9	0.0013489
1670.47	0.0012764
1682.05	0.001458
1693.62	0.001868
1705.19	0.002288
1716.77	0.003278
1728.34	0.005008
1739.92	0.012448
1751.49	0.045488
1763.06	0.032598
1774.64	0.008408
1786.21	0.003658
1797.79	0.002068
1809.36	0.001678
1820.93	0.001528
1832.51	0.0010211
1844.08	0.0007224
1855.66	0.0006434
1867.23	0.0006055
1878.8	0.0006767
1890.38	0.0007771
1901.95	0.000911
1913.53	0.0009691
1925.1	0.0008249
1936.67	0.0007243
1948.25	0.00067
1959.82	0.0006821
1971.4	0.0007058
1982.97	0.000655
1994.54	0.0006248
2006.12	0.0005919
2017.69	0.0006069
2029.27	0.0005809
2040.84	0.0005439
2052.41	0.0005512
2063.99	0.0005355
2075.56	0.000517
2087.14	0.0005133
2098.71	0.00050247
2110.28	0.00043731
2121.86	0.00043686
2133.43	0.00044734
2145.01	0.00045797
2156.58	0.00046815
2168.15	0.0003696
2179.73	0.0003544
2191.3	0.0003184
2202.88	0.0003623
2214.45	0.0003708
2226.02	0.0003776
2237.6	0.0003385
2249.17	0.0003196
2260.74	0.0003367
2272.32	0.0003286
2283.89	0.0003349
2295.47	0.0003505
2307.04	0.0003699
2318.61	0.0003908
2330.19	0.00044596
2341.76	0.00042591
2353.34	0.000410039
2364.91	0.000413969
2376.48	0.00044556
2388.06	0.0004301
2399.63	0.00044569
2411.21	0.0005148
2422.78	0.00048749
2434.35	0.00047531
2445.93	0.00046497
2457.5	0.00044974
2469.08	0.0004556
2480.65	0.00048678
2492.22	0.00047988
2503.8	0.00048552
2515.37	0.00048311
2526.95	0.0005043
2538.52	0.000551
2550.09	0.0006292
2561.67	0.0006096
2573.24	0.0005943
2584.82	0.0005551
2596.39	0.0005728
2607.96	0.00050126
2619.54	0.00047588
2631.11	0.00043538
2642.69	0.00044447
2654.26	0.00042159
2665.83	0.00044553
2677.41	0.00046798
2688.98	0.00049191
2700.56	0.00047822
2712.13	0.00046872
2723.7	0.0005315
2735.28	0.0006123
2746.85	0.0006948
2758.43	0.0007495
2770	0.0007524
2781.57	0.0007209
2793.15	0.0007592
2804.72	0.0009094
2816.3	0.001164
2827.87	0.001628
2839.44	0.002348
2851.02	0.004168
2862.59	0.007498
2874.17	0.008418
2885.74	0.007918
2897.31	0.007258
2908.89	0.009318
2920.46	0.013888
2932.04	0.019798
2943.61	0.019798
2955.18	0.015218
2966.76	0.013578
2978.33	0.008008
2989.91	0.003678
3001.48	0.002178
3013.05	0.001548
3024.63	0.0012221
3036.2	0.0010912
3047.78	0.0011372
3059.35	0.0011985
3070.92	0.0011757
3082.5	0.0014029
3094.07	0.0010058
3105.65	0.0009164
3117.22	0.0007119
3128.79	0.0005241
3140.37	0.000408256
3151.94	0.0003404
3163.52	0.0003543
3175.09	0.000282
3186.66	0.000271
3198.24	0.000272
3209.81	0.000257
3221.39	0.000262
3232.96	0.000185
3244.53	0.000164
3256.11	0.000179
3267.68	0.000186
3279.26	0.000154
3290.83	0.00014
3302.4	0.000173
3313.98	0.000173
3325.55	0.000191
3337.13	0.000143
3348.7	0.000143
3360.27	0.000218
3371.85	0.00013
3383.42	0.000149
3395	0.000123
3406.57	0.000106
3418.14	0.000224
3429.72	0.000135
3441.29	0.00015
3452.86	9.5e-05
3464.44	0.00017
3476.01	0.0003187
3487.59	0.00042888
3499.16	0.00043269
3510.73	0.0003516
3522.31	0.000246
3533.88	0.000276
3545.46	0.0003294
3557.03	0.0005546
3568.6	0.001798
3580.18	0.011178
3591.75	0.009708
3603.33	0.0011474
3614.9	0.0003561
3626.47	0.00024
3638.05	0.000252
3649.62	0.00016
3661.2	0.000174
3672.77	0.000246
3684.34	0.000194
3695.92	0.00018
3707.49	0.000194
3719.07	0.000158
3730.64	9e-05
3742.21	9.5e-05
3753.79	9e-05
3765.36	0.000135
3776.94	0.000142
3788.51	0.000143
3800.08	0.00015
3811.66	0.000157
3823.23	0.000127
3834.81	3.7e-05
3846.38	0.00011
3857.95	8.4e-05
3869.53	9.6e-05
3881.1	8.5e-05
3892.68	0.000191
3904.25	0.0001
3915.82	0.000123
3927.4	7.1e-05
3938.97	6.1e-05
3950.55	5.7e-05
3962.12	0.000116
3973.69	0.000149
3985.27	0.00013
3996.84	0.000174
