Infrared Spectrum: p-Nonyloxybenzoic acid
Formula: C 16 H 24 O 3
CAS: 15872-43-2
State: gas
Origin: EPA-IR VAPOR PHASE LIBRARY
1/CM	ABSORBANCE
549.8	0.0027346
559.445	0.0029046
569.09	0.0041946
578.734	0.0033246
588.379	0.0033846
598.024	0.0040146
607.669	0.0048846
617.313	0.0077346
626.958	0.0032646
636.603	0.0019346
646.248	0.0008257
655.893	0.0010221
665.537	0.0008239
675.182	0.0008978
684.827	0.0021946
694.472	0.0037146
704.116	0.0036946
713.761	0.0030246
723.406	0.0021246
733.051	0.0015846
742.695	0.0014546
752.34	0.0023246
761.985	0.0038746
771.63	0.0063946
781.275	0.0032646
790.919	0.0022346
800.564	0.0018746
810.209	0.0013846
819.854	0.0013446
829.498	0.0018546
839.143	0.0030446
848.788	0.0043946
858.433	0.0021046
868.078	0.0013146
877.722	0.0011746
887.367	0.0009364
897.012	0.0009809
906.657	0.0011346
916.301	0.0015646
925.946	0.0015846
935.591	0.0015946
945.236	0.0013046
954.88	0.0014346
964.525	0.0017546
974.17	0.0023146
983.815	0.0032346
993.46	0.0037046
1003.1	0.0047346
1012.75	0.0060046
1022.39	0.0066146
1032.04	0.0067046
1041.68	0.0065746
1051.33	0.0073446
1060.97	0.0093146
1070.62	0.0167946
1080.26	0.0249146
1089.91	0.0103246
1099.55	0.0051346
1109.2	0.0031646
1118.84	0.0030646
1128.49	0.0026546
1138.13	0.0041846
1147.78	0.0077046
1157.42	0.0261246
1167.07	0.0371046
1176.71	0.0122146
1186.36	0.0133746
1196	0.0080146
1205.64	0.0064746
1215.29	0.0073246
1224.93	0.0109146
1234.58	0.0169146
1244.22	0.0268346
1253.87	0.0315846
1263.51	0.0179246
1273.16	0.0099746
1282.8	0.0075446
1292.45	0.0089746
1302.09	0.0108446
1311.74	0.0088546
1321.38	0.0096346
1331.03	0.0101846
1340.67	0.0066346
1350.32	0.0068146
1359.96	0.0121446
1369.61	0.0093646
1379.25	0.0045746
1388.9	0.0037346
1398.54	0.0025846
1408.18	0.0025846
1417.83	0.0036646
1427.47	0.0026846
1437.12	0.0023346
1446.76	0.0028546
1456.41	0.0036846
1466.05	0.0046946
1475.7	0.0053446
1485.34	0.0031446
1494.99	0.0041746
1504.63	0.0113846
1514.28	0.0117146
1523.92	0.0034946
1533.57	0.0019046
1543.21	0.0016946
1552.86	0.0017946
1562.5	0.0022746
1572.15	0.0039346
1581.79	0.0058946
1591.44	0.0089746
1601.08	0.0195146
1610.73	0.0202846
1620.37	0.0071846
1630.01	0.0027846
1639.66	0.0015746
1649.3	0.0011946
1658.95	0.0010555
1668.59	0.0010814
1678.24	0.0011246
1687.88	0.0014846
1697.53	0.0015846
1707.17	0.0021246
1716.82	0.0029546
1726.46	0.0039946
1736.11	0.0080446
1745.75	0.0214746
1755.4	0.0596146
1765.04	0.0216146
1774.69	0.0073946
1784.33	0.0036646
1793.98	0.0020746
1803.62	0.0015946
1813.27	0.0014146
1822.91	0.0012746
1832.55	0.0008261
1842.2	0.0006727
1851.84	0.0005928
1861.49	0.0004847
1871.13	0.0005169
1880.78	0.0006672
1890.42	0.0007068
1900.07	0.0007553
1909.71	0.000859
1919.36	0.000892
1929	0.0007557
1938.65	0.000697
1948.29	0.0005726
1957.94	0.0006548
1967.58	0.000631
1977.23	0.000632
1986.87	0.0005728
1996.52	0.0005937
2006.16	0.0005509
2015.81	0.0006235
2025.45	0.0006143
2035.1	0.0006073
2044.74	0.0006167
2054.38	0.0006036
2064.03	0.0005993
2073.67	0.000481
2083.32	0.0005707
2092.96	0.0005359
2102.61	0.0005063
2112.25	0.0005262
2121.9	0.0004171
2131.54	0.0004193
2141.19	0.0004764
2150.83	0.0004772
2160.48	0.000543
2170.12	0.000531
2179.77	0.0005004
2189.41	0.0004831
2199.06	0.0004216
2208.7	0.0004523
2218.35	0.0004162
2227.99	0.0004329
2237.64	0.0004212
2247.28	0.0004699
2256.92	0.0003824
2266.57	0.0004319
2276.21	0.0004056
2285.86	0.0004884
2295.5	0.0004307
2305.15	0.0004614
2314.79	0.0005032
2324.44	0.0004454
2334.08	0.0004243
2343.73	0.0005147
2353.37	0.0004686
2363.02	0.0004506
2372.66	0.000467
2382.31	0.0006159
2391.95	0.0004521
2401.6	0.0004849
2411.24	0.000594
2420.89	0.0006401
2430.53	0.0006215
2440.18	0.000614
2449.82	0.0006151
2459.47	0.0005797
2469.11	0.0005984
2478.75	0.0005062
2488.4	0.0006478
2498.04	0.0005752
2507.69	0.0006244
2517.33	0.0006012
2526.98	0.0005763
2536.62	0.0006396
2546.27	0.00071
2555.91	0.000854
2565.56	0.0007648
2575.2	0.0007016
2584.85	0.0006391
2594.49	0.0006468
2604.14	0.0006739
2613.78	0.0006872
2623.43	0.0006783
2633.07	0.0005696
2642.72	0.0006525
2652.36	0.000684
2662.01	0.0006369
2671.65	0.0006451
2681.29	0.0006699
2690.94	0.0008255
2700.58	0.0006956
2710.23	0.0006095
2719.87	0.0006502
2729.52	0.0007891
2739.16	0.000887
2748.81	0.0009872
2758.45	0.0009581
2768.1	0.0010165
2777.74	0.0010121
2787.39	0.0010642
2797.03	0.0011746
2806.68	0.0012546
2816.32	0.0015846
2825.97	0.0020046
2835.61	0.0025946
2845.26	0.0041246
2854.9	0.0077846
2864.55	0.0115446
2874.19	0.0104146
2883.84	0.0092046
2893.48	0.0085146
2903.12	0.0098846
2912.77	0.0140346
2922.41	0.0213446
2932.06	0.0296946
2941.7	0.0269746
2951.35	0.0194346
2960.99	0.0152646
2970.64	0.0130146
2980.28	0.0069246
2989.93	0.0039146
2999.57	0.0025246
3009.22	0.0020546
3018.86	0.0017246
3028.51	0.0013546
3038.15	0.0012846
3047.8	0.0011946
3057.44	0.0013546
3067.09	0.0012046
3076.73	0.0016646
3086.38	0.0013346
3096.02	0.0010747
3105.67	0.0010072
3115.31	0.0009215
3124.95	0.0008897
3134.6	0.0005393
3144.24	0.0007313
3153.89	0.0006803
3163.53	0.0006711
3173.18	0.0004088
3182.82	0.0004888
3192.47	0.0002866
3202.11	0.0003895
3211.76	0.0003814
3221.4	0.0002952
3231.05	0.0003528
3240.69	0.0003594
3250.34	0.0003259
3259.98	0.0002846
3269.63	0.0003484
3279.27	0.0002226
3288.92	0.0002631
3298.56	0.0005812
3308.21	0.000229
3317.85	0.0004586
3327.49	0.0003485
3337.14	0.0003486
3346.78	0.0005209
3356.43	0.0003409
3366.07	0.00017354
3375.72	0.0004317
3385.36	0.00018615
3395.01	0.00019157
3404.65	0.0004773
3414.3	0.0004269
3423.94	0.000216
3433.59	0.0002747
3443.23	0.0004329
3452.88	0.0003582
3462.52	0.0004795
3472.17	0.0003138
3481.81	0.0005783
3491.46	0.0005602
3501.1	0.0004214
3510.75	0.0002292
3520.39	0.000367
3530.04	0.0002831
3539.68	0.0002655
3549.32	0.0004541
3558.97	0.0007995
3568.61	0.0017546
3578.26	0.0086946
3587.9	0.0163546
3597.55	0.0023546
3607.19	0.0006721
3616.84	0.0004074
3626.48	0.0004584
3636.13	0.0003553
3645.77	0.0003835
3655.42	0.0001696
3665.06	0.0004579
3674.71	0.0003223
3684.35	0.0003304
3694	0.0002633
3703.64	0.0003386
3713.29	0.0002093
3722.93	0.0002221
3732.58	5.79e-05
3742.22	0.000168
3751.86	0.00010822
3761.51	0.0002296
3771.15	0.0005162
3780.8	0.0002192
3790.44	0.0003302
3800.09	0.0002141
3809.73	0.0003495
3819.38	0.00018196
3829.02	0.0003852
3838.67	0.00010555
3848.31	0.0004297
3857.96	0.0002696
3867.6	0.00010861
3877.25	0.00011961
3886.89	0.00016879
3896.54	0.0005294
3906.18	6.05e-05
3915.83	0.0004813
3925.47	0.0002365
3935.12	0.0002552
3944.76	0.0004849
3954.41	0.0004753
3964.05	0.0003128
3973.69	0.0004008
3983.34	0.0005026
3992.98	0.0004521
