Infrared Spectrum: p-(HEXADECYLOXY)BENZOIC ACID
Formula: C23 H38 O3
CAS: 15872-48-7
State: SOLID (SPLIT MULL), FLUOROLUBE FOR 3800-1330 CM^-^1, NUJOL FOR 1330-400 CM^-^1
Class: COBLENTZ III
Instrument: BECKMAN IR-9 (GRATING)
Instrument parameters: ORDER CHANGES: 670, 1200, 2000 CM^-^1
Sampling: TRANSMISSION
Resolution: 2
Origin: DOW CHEMICAL COMPANY
1/CM	TRANSMITTANCE
405.865	0.633
414.663	0.682
423.46	0.722
432.258	0.781
441.056	0.837
449.853	0.875
458.651	0.869
467.449	0.917
476.246	0.949
485.044	0.962
493.842	0.971
502.639	0.921
511.437	0.873
520.235	0.978
529.032	0.983
537.83	0.957
546.627	0.872
555.425	0.708
564.223	0.925
573.02	0.989
581.818	1.008
590.616	1.013
599.413	1.017
608.211	1.019
617.009	1.019
625.806	1.019
634.604	0.954
643.402	0.982
652.199	0.501
660.997	0.991
669.795	1.013
678.592	1.023
687.39	1.021
696.188	0.892
704.985	0.978
713.783	0.968
722.581	0.684
731.378	0.898
740.176	0.94
748.974	0.962
757.771	0.976
766.569	0.947
775.367	0.3979
784.164	0.95
792.962	0.989
801.759	0.99
810.557	0.972
819.355	0.969
828.152	0.932
836.95	0.928
845.748	0.581
854.545	0.868
863.343	0.943
872.141	0.954
880.938	0.946
889.736	0.905
898.534	0.907
907.331	0.916
916.129	0.896
924.927	0.77
933.724	0.769
942.522	0.656
951.32	0.664
960.117	0.575
968.915	0.806
977.713	0.831
986.51	0.759
995.308	0.859
1004.11	0.873
1012.9	0.865
1021.7	0.788
1030.5	0.873
1039.3	0.785
1048.09	0.858
1056.89	0.847
1065.69	0.743
1074.49	0.803
1083.28	0.902
1092.08	0.92
1100.88	0.914
1109.68	0.782
1118.48	0.832
1127.27	0.835
1136.07	0.807
1144.87	0.858
1153.67	0.732
1162.46	0.752
1171.26	0.311
1180.06	0.335
1188.86	0.82
1197.65	0.873
1206.45	0.843
1215.25	0.824
1224.05	0.842
1232.84	0.788
1241.64	0.635
1250.44	0.442
1259.24	0.041
1268.04	0.244
1276.83	0.616
1285.63	0.537
1294.43	0.398
1303.23	0.314
1312.02	0.221
1320.82	0.296
1329.62	0.42
1338.42	0.388
1347.21	0.824
1356.01	0.902
1364.81	0.936
1373.61	0.939
1382.4	0.932
1391.2	0.924
1400	0.865
1408.8	0.92
1417.6	0.858
1426.39	0.774
1435.19	0.717
1443.99	0.909
1452.79	0.954
1461.58	0.931
1470.38	0.762
1479.18	0.953
1487.98	0.998
1496.77	0.987
1505.57	0.949
1514.37	0.85
1523.17	0.958
1531.96	0.991
1540.76	0.976
1549.56	0.956
1558.36	0.94
1567.16	0.925
1575.95	0.883
1584.75	0.8
1593.55	0.881
1602.35	0.715
1611.14	0.409
1619.94	0.902
1628.74	0.931
1637.54	0.957
1646.33	0.935
1655.13	0.873
1663.93	0.733
1672.73	0.575
1681.52	0.589
1690.32	0.592
1699.12	0.721
1707.92	0.965
1716.72	1.01
1725.51	1.027
1734.31	1.028
1743.11	1.027
1751.91	1.02
1760.7	1.01
1769.5	1.002
1778.3	0.991
1787.1	0.989
1795.89	0.989
1804.69	0.99
1813.49	0.99
1822.29	0.99
1831.09	0.989
1839.88	0.987
1848.68	0.986
1857.48	0.982
1866.28	0.979
1875.07	0.979
1883.87	0.978
1892.67	0.976
1901.47	0.972
1910.26	0.971
1919.06	0.969
1927.86	0.973
1936.66	0.976
1945.45	0.976
1954.25	0.975
1963.05	0.975
1971.85	0.973
1980.65	0.972
1989.44	0.969
1998.24	0.964
2007.04	0.964
2015.84	0.964
2024.63	0.961
2033.43	0.96
2042.23	0.957
2051.03	0.956
2059.82	0.953
2068.62	0.949
2077.42	0.946
2086.22	0.945
2095.01	0.943
2103.81	0.942
2112.61	0.939
2121.41	0.938
2130.21	0.935
2139	0.932
2147.8	0.929
2156.6	0.927
2165.4	0.924
2174.19	0.921
2182.99	0.918
2191.79	0.917
2200.59	0.916
2209.38	0.914
2218.18	0.9089
2226.98	0.903
2235.78	0.896
2244.57	0.892
2253.37	0.8879
2262.17	0.8829
2270.97	0.877
2279.77	0.8759
2288.56	0.8729
2297.36	0.8719
2306.16	0.8699
2314.96	0.869
2323.75	0.868
2332.55	0.868
2341.35	0.869
2350.15	0.87
2358.94	0.866
2367.74	0.8702
2376.54	0.873
2385.34	0.8548
2394.13	0.85
2402.93	0.8469
2411.73	0.8429
2420.53	0.839
2429.33	0.8359
2438.12	0.8319
2446.92	0.8278
2455.72	0.822
2464.52	0.8198
2473.31	0.817
2482.11	0.8128
2490.91	0.806
2499.71	0.7999
2508.5	0.7929
2517.3	0.7879
2526.1	0.7819
2534.9	0.777
2543.7	0.773
2552.49	0.7699
2561.29	0.765
2570.09	0.762
2578.89	0.7661
2587.68	0.7731
2596.48	0.78
2605.28	0.781
2614.08	0.78
2622.87	0.777
2631.67	0.777
2640.47	0.7739
2649.27	0.77
2658.06	0.7668
2666.86	0.76
2675.66	0.759
2684.46	0.7592
2693.26	0.7653
2702.05	0.776
2710.85	0.78
2719.65	0.78
2728.45	0.7768
2737.24	0.773
2746.04	0.77
2754.84	0.7698
2763.64	0.7658
2772.43	0.7588
2781.23	0.7508
2790.03	0.7426
2798.83	0.7324
2807.62	0.7214
2816.42	0.7102
2825.22	0.6968
2834.02	0.677
2842.82	0.6271
2851.61	0.464
2860.41	0.3755
2869.21	0.6534
2878.01	0.6628
2886.8	0.6456
2895.6	0.6292
2904.4	0.5909
2913.2	0.4657
2921.99	0.3187
2930.79	0.3767
2939.59	0.506
2948.39	0.639
2957.18	0.6837
2965.98	0.6929
2974.78	0.7127
2983.58	0.7441
2992.38	0.7605
3001.17	0.7667
3009.97	0.771
3018.77	0.7745
3027.57	0.778
3036.36	0.78
3045.16	0.778
3053.96	0.778
3062.76	0.778
3071.55	0.78
3080.35	0.782
3089.15	0.784
3097.95	0.7883
3106.75	0.7913
3115.54	0.793
3124.34	0.795
3133.14	0.796
3141.94	0.796
3150.73	0.796
3159.53	0.798
3168.33	0.796
3177.13	0.796
3185.92	0.7944
3194.72	0.795
3203.52	0.795
3212.32	0.795
3221.11	0.795
3229.91	0.7953
3238.71	0.796
3247.51	0.796
3256.31	0.7957
3265.1	0.7927
3273.9	0.7887
3282.7	0.787
3291.5	0.787
3300.29	0.787
3309.09	0.788
3317.89	0.788
3326.69	0.788
3335.48	0.788
3344.28	0.788
3353.08	0.788
3361.88	0.7877
3370.67	0.785
3379.47	0.784
3388.27	0.7817
3397.07	0.781
3405.87	0.78
3414.66	0.778
3423.46	0.778
3432.26	0.777
3441.06	0.777
3449.85	0.777
3458.65	0.777
3467.45	0.777
3476.25	0.777
3485.04	0.777
3493.84	0.777
3502.64	0.777
3511.44	0.777
3520.23	0.777
3529.03	0.777
3537.83	0.776
3546.63	0.776
3555.43	0.776
3564.22	0.776
3573.02	0.776
3581.82	0.776
3590.62	0.776
3599.41	0.776
3608.21	0.776
3617.01	0.776
3625.81	0.776
3634.6	0.776
3643.4	0.776
3652.2	0.7752
3661	0.774
3669.79	0.773
3678.59	0.771
3687.39	0.7696
3696.19	0.767
3704.99	0.766
3713.78	0.766
3722.58	0.766
3731.38	0.766
3740.18	0.765
3748.97	0.765
3757.77	0.763
3766.57	0.76
3775.37	0.758
3784.16	0.758
3792.96	0.758
