Infrared Spectrum: 2-Methyl-1-heptene
Formula: C8 H16
CAS: 15870-10-7
State: SOLUTION (10% CCl4 FOR 3800-1330, 10% CS2 FOR 1330-400 CM^-^1)
Class: COBLENTZ III
Instrument: BECKMAN IR-9 (GRATING)
Instrument parameters: ORDER CHANGES: 670, 1200, 2000 CM^-^1
Sampling: TRANSMISSION
Path length: 0.011 CM, 0.010 CM
Resolution: 2
Origin: DOW CHEMICAL COMPANY
1/CM	TRANSMITTANCE
3800	0.8181
3791	0.8181
3782	0.8153
3773	0.815
3764	0.8134
3755	0.813
3746	0.8126
3737	0.8139
3728	0.814
3719	0.8128
3710	0.8151
3701	0.8164
3692	0.8157
3683	0.8148
3674	0.8151
3665	0.8129
3656	0.8111
3647	0.8094
3638	0.8081
3629	0.809
3620	0.8121
3611	0.814
3602	0.8144
3593	0.8163
3584	0.8173
3575	0.8175
3566	0.817
3557	0.8168
3548	0.818
3539	0.8173
3530	0.8177
3521	0.8161
3512	0.8161
3503	0.8161
3494	0.8161
3485	0.8161
3476	0.8161
3467	0.8158
3458	0.8157
3449	0.8155
3440	0.8154
3431	0.8153
3422	0.8151
3413	0.8147
3404	0.8144
3395	0.8138
3386	0.8133
3377	0.8129
3368	0.8129
3359	0.8133
3350	0.8139
3341	0.8147
3332	0.8153
3323	0.8162
3314	0.8172
3305	0.8194
3296	0.8191
3287	0.8203
3278	0.8226
3269	0.8243
3260	0.8238
3251	0.8231
3242	0.8225
3233	0.8217
3224	0.8201
3215	0.8185
3206	0.8158
3197	0.8152
3188	0.814
3179	0.8101
3170	0.8074
3161	0.806
3152	0.8042
3143	0.8003
3134	0.7978
3125	0.7909
3116	0.7793
3107	0.7648
3098	0.7282
3089	0.5999
3080	0.4556
3071	0.5521
3062	0.7105
3053	0.7266
3044	0.7286
3035	0.7211
3026	0.699
3017	0.6742
3008	0.6104
2999	0.5423
2990	0.3426
2981	0.1756
2972	0.0302
2963	0.0113
2954	0.035
2945	0.011
2936	0
2927	0
2918	0.0388
2909	0.086
2900	0.1332
2891	0.1802
2882	0.1835
2873	0.0968
2864	0.0589
2855	0.0911
2846	0.231
2837	0.3866
2828	0.5315
2819	0.6353
2810	0.6931
2801	0.7271
2792	0.7504
2783	0.7678
2774	0.7817
2765	0.7866
2756	0.7861
2747	0.78
2738	0.7697
2729	0.7627
2720	0.78
2711	0.7975
2702	0.8017
2693	0.8009
2684	0.7995
2675	0.7986
2666	0.8023
2657	0.8068
2648	0.8092
2639	0.8113
2630	0.8142
2621	0.8183
2612	0.8217
2603	0.8252
2594	0.8287
2585	0.8306
2576	0.8326
2567	0.834
2558	0.8352
2549	0.8365
2540	0.8378
2531	0.8388
2522	0.84
2513	0.841
2504	0.8423
2495	0.8437
2486	0.8452
2477	0.8473
2468	0.8479
2459	0.8481
2450	0.8458
2441	0.8457
2432	0.8445
2423	0.8433
2414	0.8424
2405	0.8429
2396	0.8421
2387	0.8416
2378	0.8438
2369	0.8435
2360	0.8426
2351	0.844
2342	0.8435
2333	0.8424
2324	0.8457
2315	0.8457
2306	0.8457
2297	0.8482
2288	0.849
2279	0.8492
2270	0.8495
2261	0.8514
2252	0.8511
2243	0.8497
2234	0.849
2225	0.8495
2216	0.8485
2207	0.8492
2198	0.8504
2189	0.8501
2180	0.851
2171	0.8526
2162	0.8518
2153	0.8525
2144	0.8533
2135	0.8531
2126	0.8527
2117	0.852
2108	0.8517
2099	0.8513
2090	0.8509
2081	0.8502
2072	0.8496
2063	0.8484
2054	0.8485
2045	0.8464
2036	0.8465
2027	0.8473
2018	0.8463
2009	0.8442
2000	0.8432
1991	0.8438
1982	0.8438
1973	0.8432
1964	0.8437
1955	0.8452
1946	0.843
1937	0.8421
1928	0.8415
1919	0.842
1910	0.8425
1901	0.8436
1892	0.8421
1883	0.8401
1874	0.8393
1865	0.838
1856	0.8379
1847	0.8353
1838	0.8325
1829	0.8306
1820	0.8304
1811	0.8289
1802	0.8105
1793	0.7885
1784	0.7773
1775	0.811
1766	0.8283
1757	0.833
1748	0.8292
1739	0.8257
1730	0.827
1721	0.8253
1712	0.8279
1703	0.8216
1694	0.82
1685	0.8141
1676	0.8002
1667	0.7769
1658	0.6756
1649	0.2943
1640	0.6598
1631	0.7627
1622	0.7851
1613	0.8042
1604	0.7951
1595	0.7844
1586	0.7798
1577	0.787
1568	0.7309
1559	0.7173
1550	0.8161
1541	0.8561
1532	0.8353
1523	0.822
1514	0.8243
1505	0.8145
1496	0.7877
1487	0.7331
1478	0.5959
1469	0.2843
1460	0.2411
1451	0.3105
1442	0.4433
1433	0.5621
1424	0.6923
1415	0.7318
1406	0.7526
1397	0.7425
1388	0.6696
1379	0.3592
1370	0.6714
1361	0.7651
1352	0.7732
1343	0.7668
1334	0.7824
1325	0.8002
1316	0.7933
1307	0.7888
1298	0.7916
1289	0.7934
1280	0.7958
1271	0.8088
1262	0.8149
1253	0.8303
1244	0.8327
1235	0.8419
1226	0.8243
1217	0.8175
1208	0.8467
1199	0.8472
1190	0.8474
1181	0.8546
1172	0.8644
1163	0.867
1154	0.8666
1145	0.8599
1136	0.8557
1127	0.8395
1118	0.7964
1109	0.7735
1100	0.8243
1091	0.8398
1082	0.8365
1073	0.8364
1064	0.8484
1055	0.8582
1046	0.8545
1037	0.8442
1028	0.8498
1019	0.8489
1010	0.8493
1001	0.8605
992	0.8655
983	0.8559
974	0.8407
965	0.8416
956	0.8566
947	0.8762
938	0.8722
929	0.8436
920	0.826
911	0.7979
902	0.7326
893	0.1952
884	0.0276
875	0.5812
866	0.787
857	0.8533
848	0.8785
839	0.8792
830	0.8804
821	0.8807
812	0.8861
803	0.8844
794	0.8845
785	0.8818
776	0.8529
767	0.847
758	0.8573
749	0.8596
740	0.8073
731	0.7322
722	0.7761
713	0.8654
704	0.8868
695	0.9078
686	0.9171
677	0.9222
668	0.927
659	0.9112
650	0.9263
641	0.9235
632	0.9188
623	0.9197
614	0.9245
605	0.924
596	0.924
587	0.9223
578	0.9154
569	0.8854
560	0.8343
551	0.8006
542	0.8039
533	0.822
524	0.8527
515	0.8676
506	0.871
497	0.863
488	0.8426
479	0.7955
470	0.7749
461	0.7386
452	0.6841
443	0.594
434	0.5281
425	0.2539
416	0.1102
407	0.1077
