Infrared Spectrum: Bicyclo[2.2.1]-2,5-heptadiene-2,3-dicarboxylic acid
Formula: C 9 H 8 O 4
CAS: 15872-28-3
State: gas
Origin: EPA-IR VAPOR PHASE LIBRARY
1/CM	ABSORBANCE
549.8	0.000251
559.445	0.000521
569.09	0.0007437
578.734	0.002357
588.379	0.002597
598.024	0.001807
607.669	0.001687
617.313	0.0008392
626.958	0.0006595
636.603	0.0003743
646.248	0.0006057
655.893	0.0007126
665.537	0.00053816
675.182	0.00046164
684.827	0.000763
694.472	0.002627
704.116	0.005797
713.761	0.005247
723.406	0.002057
733.051	0.004067
742.695	0.008757
752.34	0.006067
761.985	0.002107
771.63	0.0009484
781.275	0.0007755
790.919	0.0008406
800.564	0.002387
810.209	0.003567
819.854	0.004057
829.498	0.003997
839.143	0.005397
848.788	0.010087
858.433	0.016267
868.078	0.017867
877.722	0.011937
887.367	0.004527
897.012	0.002737
906.657	0.002177
916.301	0.001807
925.946	0.001447
935.591	0.0010591
945.236	0.0009452
954.88	0.0010815
964.525	0.001063
974.17	0.0011583
983.815	0.00051355
993.46	0.0006097
1003.1	0.0009651
1012.75	0.001567
1022.39	0.002087
1032.04	0.001777
1041.68	0.001787
1051.33	0.004757
1060.97	0.005797
1070.62	0.003667
1080.26	0.0009456
1089.91	0.003107
1099.55	0.003447
1109.2	0.003427
1118.84	0.0010913
1128.49	0.0009644
1138.13	0.0010491
1147.78	0.0009073
1157.42	0.0006066
1167.07	0.0004892
1176.71	0.000951
1186.36	0.001323
1196	0.002287
1205.64	0.003317
1215.29	0.005827
1224.93	0.003927
1234.58	0.001817
1244.22	0.001597
1253.87	0.002897
1263.51	0.005467
1273.16	0.011507
1282.8	0.014707
1292.45	0.008457
1302.09	0.002757
1311.74	0.001487
1321.38	0.001395
1331.03	0.0014308
1340.67	0.0010112
1350.32	0.0008127
1359.96	0.0005002
1369.61	0.0006001
1379.25	0.0006746
1388.9	0.0006126
1398.54	0.0006418
1408.18	0.0007264
1417.83	0.000664
1427.47	0.0005514
1437.12	0.0005582
1446.76	0.0007207
1456.41	0.0010259
1466.05	0.0008127
1475.7	0.0006563
1485.34	0.00051307
1494.99	0.0006359
1504.63	0.0006529
1514.28	0.000722
1523.92	0.0006327
1533.57	0.0005991
1543.21	0.0010544
1552.86	0.002047
1562.5	0.002047
1572.15	0.0010186
1581.79	0.0007272
1591.44	0.0007702
1601.08	0.0010508
1610.73	0.002017
1620.37	0.002447
1630.01	0.001677
1639.66	0.0008963
1649.3	0.0006432
1658.95	0.0005932
1668.59	0.0007177
1678.24	0.0006494
1687.88	0.0007602
1697.53	0.0007587
1707.17	0.0009915
1716.82	0.0011573
1726.46	0.0013844
1736.11	0.001787
1745.75	0.003447
1755.4	0.007027
1765.04	0.012357
1774.69	0.028697
1784.33	0.054167
1793.98	0.058927
1803.62	0.035987
1813.27	0.017577
1822.91	0.008827
1832.55	0.011627
1842.2	0.017977
1851.84	0.014897
1861.49	0.007667
1871.13	0.005177
1880.78	0.002597
1890.42	0.001867
1900.07	0.001687
1909.71	0.001737
1919.36	0.001657
1929	0.0013419
1938.65	0.0011106
1948.29	0.0010175
1957.94	0.001024
1967.58	0.0010558
1977.23	0.0009476
1986.87	0.0009295
1996.52	0.0007385
2006.16	0.0007207
2015.81	0.000639
2025.45	0.0006663
2035.1	0.0005474
2044.74	0.00052573
2054.38	0.0004232
2064.03	0.00046466
2073.67	0.0004963
2083.32	0.0005931
2092.96	0.00051813
2102.61	0.0005374
2112.25	0.0006682
2121.9	0.0006169
2131.54	0.0006951
2141.19	0.0006528
2150.83	0.0005987
2160.48	0.00046025
2170.12	0.00048536
2179.77	0.000452772
2189.41	0.0003894
2199.06	0.0003688
2208.7	0.000291
2218.35	0.0003752
2227.99	0.000285
2237.64	0.0003886
2247.28	0.0003925
2256.92	0.000334
2266.57	0.0003868
2276.21	0.000298
2285.86	0.000327
2295.5	0.0003762
2305.15	0.000325
2314.79	0.0003991
2324.44	0.000267
2334.08	0.000297
2343.73	0.000455674
2353.37	0.000322
2363.02	0.00033
2372.66	0.000323
2382.31	0.0003623
2391.95	0.000297
2401.6	0.000303
2411.24	0.0003699
2420.89	0.000329
2430.53	0.0004139
2440.18	0.0004158
2449.82	0.0004325
2459.47	0.000334
2469.11	0.000282
2478.75	0.00050029
2488.4	0.0003491
2498.04	0.0004278
2507.69	0.000276
2517.33	0.0003881
2526.98	0.0003541
2536.62	0.000213
2546.27	0.0003531
2555.91	0.000206
2565.56	0.000331
2575.2	0.000323
2584.85	0.000295
2594.49	0.000238
2604.14	0.000259
2613.78	0.000325
2623.43	0.000205
2633.07	0.000262
2642.72	0.000178
2652.36	0.00026
2662.01	0.000268
2671.65	0.00032
2681.29	0.000295
2690.94	0.000149
2700.58	0.00023
2710.23	0.000186
2719.87	0.000199
2729.52	0.000282
2739.16	0.000215
2748.81	0.000137
2758.45	0.000132
2768.1	0.000124
2777.74	0.000207
2787.39	0.000202
2797.03	0.000207
2806.68	0.00016
2816.32	0.00034
2825.97	0.000221
2835.61	0.000199
2845.26	0.000242
2854.9	0.000167
2864.55	0.00046242
2874.19	0.0009422
2883.84	0.001507
2893.48	0.0008807
2903.12	0.00053285
2912.77	0.0003831
2922.41	0.0004571
2932.06	0.000605
2941.7	0.0014061
2951.35	0.002727
2960.99	0.002047
2970.64	0.0013002
2980.28	0.002177
2989.93	0.004037
2999.57	0.002847
3009.22	0.0012077
3018.86	0.002967
3028.51	0.003667
3038.15	0.001697
3047.8	0.00047894
3057.44	0.00047976
3067.09	0.0005549
3076.73	0.0006831
3086.38	0.000661
3096.02	0.00049403
3105.67	0.0006397
3115.31	0.0006631
3124.95	0.0005824
3134.6	0.0005562
3144.24	0.0003992
3153.89	0.000277
3163.53	0.0003819
3173.18	0.000326
3182.82	0.000336
3192.47	0.000342
3202.11	0.00039
3211.76	0.000341
3221.4	0.0005866
3231.05	0.000267
3240.69	5.5e-05
3250.34	0.0003491
3259.98	0.000267
3269.63	0.0003866
3279.27	0.00047435
3288.92	0.0003
3298.56	0.0004106
3308.21	0.0004329
3317.85	9.5e-05
3327.49	0.000154
3337.14	0.000225
3346.78	0.0004123
3356.43	9.3e-05
3366.07	0.000258
3375.72	0.00051158
3385.36	0.00053446
3395.01	0.000433
3404.65	0.00045995
3414.3	0.0004138
3423.94	0.00046027
3433.59	0.0004046
3443.23	0.000258
3452.88	0.00047563
3462.52	0.0004087
3472.17	0.0003909
3481.81	0.0003925
3491.46	0.0005498
3501.1	0.000347
3510.75	0.0006092
3520.39	0.0005948
3530.04	0.0004017
3539.68	0.00045844
3549.32	0.0005483
3558.97	0.00043802
3568.61	0.0008886
3578.26	0.0008143
3587.9	0.0008708
3597.55	0.0008459
3607.19	0.0014182
3616.84	0.001447
3626.48	0.0011871
3636.13	0.0007702
3645.77	0.00054152
3655.42	0.0006371
3665.06	0.000568
3674.71	0.0008115
3684.35	0.00050728
3694	0.0006762
3703.64	0.0006545
3713.29	0.0004166
3722.93	0.000325
3732.58	0.0007971
3742.22	0.0003519
3751.86	0.000446622
3761.51	0.00048481
3771.15	0.000279
3780.8	0.0007206
3790.44	0.00048206
3800.09	0.00047702
3809.73	0.0003775
3819.38	0.00052253
3829.02	0.00054099
3838.67	0.0004331
3848.31	0.0004191
3857.96	0.00050645
3867.6	0.00048056
3877.25	0.0005606
3886.89	0.0003492
3896.54	0.0006097
3906.18	0.0006069
3915.83	0.0003867
3925.47	0.0003818
3935.12	0.00051176
3944.76	0.0005625
3954.41	0.0007546
3964.05	0.0006026
3973.69	0.0005748
3983.34	0.0004141
3992.98	0.0005561
