Infrared Spectrum: p-Pentyloxybenzoic acid
Formula: C 12 H 16 O 3
CAS: 15872-41-0
State: gas
Origin: EPA-IR VAPOR PHASE LIBRARY
1/CM	ABSORBANCE
549.8	0.0079089
559.445	0.0098289
569.09	0.0128089
578.734	0.0100089
588.379	0.0108589
598.024	0.0122589
607.669	0.0149489
617.313	0.0226689
626.958	0.0093089
636.603	0.0060689
646.248	0.0026389
655.893	0.0016389
665.537	0.0019189
675.182	0.0027789
684.827	0.0055789
694.472	0.0099889
704.116	0.0102089
713.761	0.0076189
723.406	0.0048989
733.051	0.0042389
742.695	0.0038089
752.34	0.0051289
761.985	0.0114489
771.63	0.0173189
781.275	0.0109989
790.919	0.0061089
800.564	0.0046789
810.209	0.0043489
819.854	0.0039089
829.498	0.0052589
839.143	0.0097789
848.788	0.0114289
858.433	0.0065589
868.078	0.0031789
877.722	0.0026289
887.367	0.0026489
897.012	0.0032789
906.657	0.0038289
916.301	0.0038289
925.946	0.0029989
935.591	0.0022989
945.236	0.0023789
954.88	0.0026789
964.525	0.0031989
974.17	0.0055189
983.815	0.0094589
993.46	0.0140089
1003.1	0.0178989
1012.75	0.0196889
1022.39	0.0185689
1032.04	0.0206489
1041.68	0.0204489
1051.33	0.0203889
1060.97	0.0265589
1070.62	0.0539289
1080.26	0.0757589
1089.91	0.0344789
1099.55	0.0140089
1109.2	0.0110589
1118.84	0.0096589
1128.49	0.0098889
1138.13	0.0124489
1147.78	0.0235389
1157.42	0.0821189
1167.07	0.113559
1176.71	0.0379989
1186.36	0.0405789
1196	0.0275989
1205.64	0.0201289
1215.29	0.0245089
1224.93	0.0334889
1234.58	0.0520589
1244.22	0.0829089
1253.87	0.0972689
1263.51	0.0542889
1273.16	0.0284889
1282.8	0.0220689
1292.45	0.0263389
1302.09	0.0320189
1311.74	0.0263389
1321.38	0.0284689
1331.03	0.0300189
1340.67	0.0190789
1350.32	0.0191889
1359.96	0.0351689
1369.61	0.0281989
1379.25	0.0129289
1388.9	0.0107289
1398.54	0.0072689
1408.18	0.0072889
1417.83	0.0104789
1427.47	0.0072789
1437.12	0.0052989
1446.76	0.0057489
1456.41	0.0073889
1466.05	0.0106389
1475.7	0.0138589
1485.34	0.0086189
1494.99	0.0120889
1504.63	0.0339589
1514.28	0.0364189
1523.92	0.0106289
1533.57	0.0053189
1543.21	0.0046089
1552.86	0.0047489
1562.5	0.0067089
1572.15	0.0113489
1581.79	0.0173589
1591.44	0.0264389
1601.08	0.0587589
1610.73	0.0618389
1620.37	0.0219089
1630.01	0.0083089
1639.66	0.0043489
1649.3	0.0033189
1658.95	0.0029389
1668.59	0.0027589
1678.24	0.0029989
1687.88	0.0038189
1697.53	0.0046489
1707.17	0.0057489
1716.82	0.0082289
1726.46	0.0111689
1736.11	0.0232789
1745.75	0.0681089
1755.4	0.171939
1765.04	0.0717989
1774.69	0.0217489
1784.33	0.0107289
1793.98	0.0060289
1803.62	0.0043789
1813.27	0.0040189
1822.91	0.0035189
1832.55	0.0021689
1842.2	0.0014589
1851.84	0.0011389
1861.49	0.001049
1871.13	0.0010324
1880.78	0.0012489
1890.42	0.0016289
1900.07	0.0020189
1909.71	0.0022289
1919.36	0.0019989
1929	0.0016489
1938.65	0.0014189
1948.29	0.0012089
1957.94	0.0011889
1967.58	0.0013689
1977.23	0.0013589
1986.87	0.0012589
1996.52	0.0012389
2006.16	0.0011789
2015.81	0.0011289
2025.45	0.0012389
2035.1	0.0010789
2044.74	0.0010399
2054.38	0.0010004
2064.03	0.0009429
2073.67	0.0010418
2083.32	0.0009675
2092.96	0.0009321
2102.61	0.0008325
2112.25	0.0007234
2121.9	0.0006979
2131.54	0.0008105
2141.19	0.0008098
2150.83	0.0008318
2160.48	0.0008011
2170.12	0.000624
2179.77	0.000511
2189.41	0.0004465
2199.06	0.000443
2208.7	0.0004919
2218.35	0.0004593
2227.99	0.0006323
2237.64	0.0005183
2247.28	0.0004796
2256.92	0.0004765
2266.57	0.0004287
2276.21	0.0004828
2285.86	0.0004185
2295.5	0.0004509
2305.15	0.000513
2314.79	0.0006096
2324.44	0.0007595
2334.08	0.0006815
2343.73	0.0006814
2353.37	0.0007272
2363.02	0.0007591
2372.66	0.0008034
2382.31	0.0007707
2391.95	0.0007642
2401.6	0.0008359
2411.24	0.0009558
2420.89	0.000976
2430.53	0.0009683
2440.18	0.0009599
2449.82	0.0009062
2459.47	0.000912
2469.11	0.0008766
2478.75	0.0008969
2488.4	0.0009737
2498.04	0.0009356
2507.69	0.0008625
2517.33	0.0009519
2526.98	0.0009224
2536.62	0.0010353
2546.27	0.0014189
2555.91	0.0012689
2565.56	0.0013289
2575.2	0.0012889
2584.85	0.0011689
2594.49	0.0011389
2604.14	0.0010494
2613.78	0.0009627
2623.43	0.0007839
2633.07	0.0007139
2642.72	0.0006157
2652.36	0.0006361
2662.01	0.0006441
2671.65	0.0007519
2681.29	0.0007095
2690.94	0.0007144
2700.58	0.0008859
2710.23	0.0007356
2719.87	0.0009046
2729.52	0.0010127
2739.16	0.0011889
2748.81	0.0014989
2758.45	0.0015389
2768.1	0.0015589
2777.74	0.0013389
2787.39	0.0012189
2797.03	0.0015989
2806.68	0.0018189
2816.32	0.0022389
2825.97	0.0027189
2835.61	0.0036989
2845.26	0.0051889
2854.9	0.0083589
2864.55	0.0130089
2874.19	0.0170389
2883.84	0.0184989
2893.48	0.0161689
2903.12	0.0162389
2912.77	0.0197389
2922.41	0.0253489
2932.06	0.0331489
2941.7	0.0388689
2951.35	0.0355789
2960.99	0.0344389
2970.64	0.0348389
2980.28	0.0194489
2989.93	0.0095889
2999.57	0.0059389
3009.22	0.0042089
3018.86	0.0032889
3028.51	0.0026789
3038.15	0.0024889
3047.8	0.0027489
3057.44	0.0032889
3067.09	0.0029889
3076.73	0.0034289
3086.38	0.0035189
3096.02	0.0024389
3105.67	0.0023589
3115.31	0.0018889
3124.95	0.0013789
3134.6	0.0009004
3144.24	0.0008199
3153.89	0.0008557
3163.53	0.0008755
3173.18	0.0005322
3182.82	0.0005896
3192.47	0.0005771
3202.11	0.0006613
3211.76	0.0006712
3221.4	0.0003873
3231.05	0.0006429
3240.69	0.0002577
3250.34	0.0001318
3259.98	0.0002283
3269.63	0.0002487
3279.27	0.00013397
3288.92	0.0001701
3298.56	0.0003134
3308.21	0.00011889
3317.85	0.00014358
3327.49	0.000295
3337.14	9.144e-05
3346.78	0.0002039
3356.43	0.0002385
3366.07	0.0004057
3375.72	0.0003395
3385.36	0.0001993
3395.01	0.0002954
3404.65	0.0003067
3414.3	0.00013561
3423.94	0.000389
3433.59	0.0002055
3443.23	0.0004224
3452.88	0.0004308
3462.52	0.0003339
3472.17	0.0004348
3481.81	0.0006898
3491.46	0.0011489
3501.1	0.0010889
3510.75	0.000682
3520.39	0.0005168
3530.04	0.0005254
3539.68	0.0005218
3549.32	0.0006084
3558.97	0.0015689
3568.61	0.0048989
3578.26	0.0262389
3587.9	0.0487889
3597.55	0.0063089
3607.19	0.0016789
3616.84	0.0008533
3626.48	0.0007069
3636.13	0.0004986
3645.77	0.0005259
3655.42	0.0004336
3665.06	0.0003062
3674.71	0.0002924
3684.35	0.0003365
3694	0.0001932
3703.64	0.0006903
3713.29	0.0003655
3722.93	0.0004085
3732.58	0.0004287
3742.22	0.0003384
3751.86	0.0004501
3761.51	0.0002439
3771.15	0.000285
3780.8	0.0003154
3790.44	0.000309
3800.09	0.0003835
3809.73	0.0002292
3819.38	0.000375
3829.02	0.00016256
3838.67	0.00025
3848.31	0.0003334
3857.96	0.0003613
3867.6	0.00013991
3877.25	2.87e-05
3886.89	0.0003482
3896.54	0.0004361
3906.18	0.0004915
3915.83	0.0003496
3925.47	0.00014669
3935.12	0.0003696
3944.76	0.0003697
3954.41	0.00016743
3964.05	0.0003547
3973.69	0.0002983
3983.34	0.0001991
3992.98	0.0004062
