Infrared Spectrum: 2,3-Diphenylpyrazine
Formula: C 16 H 12 N 2
CAS: 1588-89-2
State: gas
Origin: EPA-IR VAPOR PHASE LIBRARY
1/CM	ABSORBANCE
549.8	0.007533
559.445	0.026063
569.09	0.032983
578.734	0.010513
588.379	0.005363
598.024	0.004223
607.669	0.004213
617.313	0.004923
626.958	0.004973
636.603	0.011533
646.248	0.010893
655.893	0.008543
665.537	0.015763
675.182	0.023563
684.827	0.055793
694.472	0.168503
704.116	0.087423
713.761	0.024033
723.406	0.011553
733.051	0.010603
742.695	0.023113
752.34	0.067513
761.985	0.107163
771.63	0.028193
781.275	0.009913
790.919	0.007013
800.564	0.007033
810.209	0.006013
819.854	0.007163
829.498	0.005563
839.143	0.008213
848.788	0.025553
858.433	0.030213
868.078	0.009693
877.722	0.006533
887.367	0.005023
897.012	0.004753
906.657	0.007863
916.301	0.011313
925.946	0.004783
935.591	0.003573
945.236	0.002803
954.88	0.005343
964.525	0.005293
974.17	0.004873
983.815	0.005373
993.46	0.004873
1003.1	0.013243
1012.75	0.075733
1022.39	0.062193
1032.04	0.021193
1041.68	0.016173
1051.33	0.007133
1060.97	0.011823
1070.62	0.019713
1080.26	0.022203
1089.91	0.067043
1099.55	0.054863
1109.2	0.012843
1118.84	0.012633
1128.49	0.026983
1138.13	0.037793
1147.78	0.026123
1157.42	0.026843
1167.07	0.028013
1176.71	0.014633
1186.36	0.010643
1196	0.004023
1205.64	0.003893
1215.29	0.004703
1224.93	0.007243
1234.58	0.006913
1244.22	0.004103
1253.87	0.004523
1263.51	0.006393
1273.16	0.007413
1282.8	0.010053
1292.45	0.012373
1302.09	0.026453
1311.74	0.019473
1321.38	0.010143
1331.03	0.008493
1340.67	0.006903
1350.32	0.007523
1359.96	0.011703
1369.61	0.027973
1379.25	0.086133
1388.9	0.136023
1398.54	0.100043
1408.18	0.055383
1417.83	0.032893
1427.47	0.044043
1437.12	0.025553
1446.76	0.017093
1456.41	0.014933
1466.05	0.006273
1475.7	0.004153
1485.34	0.005503
1494.99	0.010173
1504.63	0.006953
1514.28	0.009303
1523.92	0.019153
1533.57	0.015893
1543.21	0.007163
1552.86	0.003933
1562.5	0.003613
1572.15	0.005033
1581.79	0.007083
1591.44	0.007063
1601.08	0.006253
1610.73	0.003593
1620.37	0.002593
1630.01	0.002183
1639.66	0.002583
1649.3	0.002923
1658.95	0.004253
1668.59	0.005173
1678.24	0.004773
1687.88	0.002783
1697.53	0.003253
1707.17	0.004213
1716.82	0.003303
1726.46	0.003083
1736.11	0.003793
1745.75	0.005043
1755.4	0.004233
1765.04	0.003043
1774.69	0.003793
1784.33	0.005373
1793.98	0.009823
1803.62	0.009613
1813.27	0.005753
1822.91	0.003843
1832.55	0.002873
1842.2	0.002043
1851.84	0.002303
1861.49	0.003193
1871.13	0.006013
1880.78	0.007053
1890.42	0.007423
1900.07	0.006223
1909.71	0.006383
1919.36	0.005243
1929	0.004923
1938.65	0.008673
1948.29	0.007693
1957.94	0.007093
1967.58	0.003453
1977.23	0.001953
1986.87	0.001873
1996.52	0.001813
2006.16	0.001503
2015.81	0.0013906
2025.45	0.0012351
2035.1	0.0010391
2044.74	0.0011423
2054.38	0.0011586
2064.03	0.001159
2073.67	0.0010169
2083.32	0.0013026
2092.96	0.0013641
2102.61	0.0014253
2112.25	0.001101
2121.9	0.0014148
2131.54	0.0012357
2141.19	0.0012423
2150.83	0.0009147
2160.48	0.0011804
2170.12	0.0010531
2179.77	0.001057
2189.41	0.0013292
2199.06	0.0011287
2208.7	0.0013981
2218.35	0.00111
2227.99	0.001483
2237.64	0.0014078
2247.28	0.001823
2256.92	0.001453
2266.57	0.0013982
2276.21	0.001573
2285.86	0.001543
2295.5	0.0012318
2305.15	0.001613
2314.79	0.002393
2324.44	0.001643
2334.08	0.002003
2343.73	0.001803
2353.37	0.0013419
2363.02	0.001833
2372.66	0.0012454
2382.31	0.000822
2391.95	0.0010739
2401.6	0.0010812
2411.24	0.0009239
2420.89	0.0010107
2430.53	0.0013844
2440.18	0.0011022
2449.82	0.0008949
2459.47	0.0010718
2469.11	0.0010944
2478.75	0.0009301
2488.4	0.0010416
2498.04	0.0007453
2507.69	0.0009347
2517.33	0.0010198
2526.98	0.0009489
2536.62	0.0009103
2546.27	0.0011141
2555.91	0.0010007
2565.56	0.0009204
2575.2	0.0008323
2584.85	0.0009703
2594.49	0.0013865
2604.14	0.001211
2613.78	0.001683
2623.43	0.001443
2633.07	0.001513
2642.72	0.0008133
2652.36	0.0008111
2662.01	0.0011309
2671.65	0.0009647
2681.29	0.000902
2690.94	0.0009924
2700.58	0.0010412
2710.23	0.0006579
2719.87	0.000759
2729.52	0.0008052
2739.16	0.0010215
2748.81	0.0008963
2758.45	0.0010667
2768.1	0.0012821
2777.74	0.0006438
2787.39	0.0007385
2797.03	0.0006585
2806.68	0.0008667
2816.32	0.0011934
2825.97	0.0011406
2835.61	0.0013958
2845.26	0.001583
2854.9	0.001873
2864.55	0.002203
2874.19	0.002583
2883.84	0.002023
2893.48	0.001983
2903.12	0.002443
2912.77	0.002583
2922.41	0.002453
2932.06	0.002943
2941.7	0.003313
2951.35	0.003573
2960.99	0.003623
2970.64	0.003833
2980.28	0.004973
2989.93	0.005963
2999.57	0.006613
3009.22	0.010453
3018.86	0.021193
3028.51	0.042013
3038.15	0.065553
3047.8	0.077503
3057.44	0.088113
3067.09	0.108863
3076.73	0.083273
3086.38	0.066143
3096.02	0.040353
3105.67	0.021213
3115.31	0.012263
3124.95	0.006323
3134.6	0.004093
3144.24	0.003073
3153.89	0.002983
3163.53	0.002963
3173.18	0.001493
3182.82	0.0012467
3192.47	0.0010894
3202.11	0.0010017
3211.76	0.0010637
3221.4	0.00051327
3231.05	0.0007019
3240.69	0.0007023
3250.34	0.0007187
3259.98	0.0009194
3269.63	0.0008204
3279.27	0.0005608
3288.92	0.0005794
3298.56	0.0006812
3308.21	0.0007026
3317.85	0.0006326
3327.49	0.0006442
3337.14	0.0006579
3346.78	0.00031
3356.43	0.0009104
3366.07	0.0008131
3375.72	0.0004088
3385.36	0.0011102
3395.01	0.0009955
3404.65	0.0005324
3414.3	0.0006494
3423.94	0.0007016
3433.59	0.000841
3443.23	0.0005973
3452.88	0.0009001
3462.52	0.0008524
3472.17	0.00047688
3481.81	0.0010865
3491.46	0.0005921
3501.1	0.000139
3510.75	0.0009824
3520.39	0.000921
3530.04	0.0006885
3539.68	0.0006023
3549.32	0.0005978
3558.97	0.0009021
3568.61	0.0003645
3578.26	0.000297
3587.9	0.0006391
3597.55	0.0003558
3607.19	0.0009657
3616.84	0.0012032
3626.48	0.0009897
3636.13	0.000639
3645.77	0.0011203
3655.42	0.0006846
3665.06	0.0009076
3674.71	0.0013304
3684.35	0.001022
3694	0.0009422
3703.64	0.0010291
3713.29	0.0013823
3722.93	0.0012533
3732.58	0.0007792
3742.22	0.000762
3751.86	0.0011613
3761.51	0.0012455
3771.15	0.001483
3780.8	0.0012761
3790.44	0.0008551
3800.09	0.0008419
3809.73	0.0005904
3819.38	0.0006429
3829.02	0.0008693
3838.67	0.00049797
3848.31	0.0009674
3857.96	0.0012448
3867.6	0.001523
3877.25	0.0012155
3886.89	0.0008479
3896.54	0.0009122
3906.18	0.0008438
3915.83	0.00052689
3925.47	0.0008806
3935.12	0.0011726
3944.76	0.0011061
3954.41	0.000201
3964.05	0.0007467
3973.69	0.0005993
3983.34	0.0003672
3992.98	0.0012386
