Infrared Spectrum: 1-Phenylcyclohexanol
Formula: C 12 H 16 O
CAS: 1589-60-2
State: gas
Instrument: HP-GC/MS/IRD
Origin: NIST Mass Spectrometry Data Center
1/CM	ABSORBANCE
550	0.0023226
562	0.0006552
574	0.0002814
586	6.72e-05
598	4.62e-05
610	0.000105
622	0.0001092
634	0.0009282
646	0.0007602
658	0.0005796
670	0.0012852
682	0.0031542
694	0.0070644
706	0.0057456
718	0.0022764
730	0.0015246
742	0.0028686
754	0.005502
766	0.003654
778	0.0011886
790	0.0003738
802	0.0001512
814	0.0002058
826	0.0005754
838	0.0012684
850	0.0017052
862	0.0006216
874	0.0004872
886	0.0008988
898	0.0015288
910	0.0011886
922	0.0010206
934	0.0012558
946	0.0021966
958	0.0049182
970	0.0066192
982	0.0035406
994	0.0014028
1006	0.0020454
1018	0.0034104
1030	0.0034398
1042	0.0030072
1054	0.0026964
1066	0.0018858
1078	0.0013104
1090	0.001029
1102	0.0013692
1114	0.002121
1126	0.0024486
1138	0.0028308
1150	0.0028728
1162	0.002373
1174	0.002058
1186	0.002184
1198	0.002268
1210	0.0025914
1222	0.0021672
1234	0.001953
1246	0.0023772
1258	0.0028812
1270	0.0026964
1282	0.0024444
1294	0.00252
1306	0.002667
1318	0.0025032
1330	0.0025116
1342	0.0029022
1354	0.0032172
1366	0.0026964
1378	0.0018144
1390	0.0011424
1402	0.0008904
1414	0.0009702
1426	0.0014994
1438	0.0031374
1450	0.004746
1462	0.00378
1474	0.0021588
1486	0.0022806
1498	0.0023058
1510	0.000756
1522	0.0004158
1534	0.0002856
1546	0.0002184
1558	0.0001848
1570	0.0002226
1582	0.0004914
1594	0.001071
1606	0.0009912
1618	0.0002478
1630	8.4e-05
1642	0.0001134
1654	0.0001512
1666	0.000126
1678	0.0001218
1690	5.46e-05
1702	2.94e-05
1714	6.72e-05
1726	6.3e-05
1738	0.0001176
1750	0.000126
1762	0.0001134
1774	0.000147
1786	0.0003192
1798	0.0005208
1810	0.0002856
1822	0.0001176
1834	7.14e-05
1846	0.0001344
1858	0.0001848
1870	0.0002688
1882	0.0002772
1894	0.000231
1906	0.0001554
1918	0.000147
1930	0.0002814
1942	0.0004494
1954	0.0004284
1966	0.000189
1978	5.88e-05
1990	3.36e-05
2002	3.78e-05
2014	1.26e-05
2026	0
2038	2.52e-05
2050	2.94e-05
2062	2.94e-05
2074	1.26e-05
2086	2.52e-05
2098	2.52e-05
2110	4.62e-05
2122	4.62e-05
2134	2.94e-05
2146	2.1e-05
2158	4.2e-05
2170	5.88e-05
2182	5.88e-05
2194	8.4e-05
2206	7.98e-05
2218	9.66e-05
2230	9.24e-05
2242	7.14e-05
2254	9.24e-05
2266	8.4e-05
2278	5.88e-05
2290	7.14e-05
2302	5.46e-05
2314	0.0001218
2326	0.0001176
2338	0.0001176
2350	0.0001344
2362	0.0001344
2374	9.24e-05
2386	6.72e-05
2398	7.98e-05
2410	7.56e-05
2422	8.4e-05
2434	4.62e-05
2446	2.94e-05
2458	3.78e-05
2470	5.88e-05
2482	7.56e-05
2494	6.72e-05
2506	6.3e-05
2518	7.56e-05
2530	7.14e-05
2542	5.88e-05
2554	7.14e-05
2566	7.98e-05
2578	0.0001008
2590	0.0001302
2602	0.0001848
2614	0.0001806
2626	0.0002226
2638	0.0002394
2650	0.0003234
2662	0.0004074
2674	0.0004242
2686	0.0003024
2698	0.0002184
2710	0.0002058
2722	0.00021
2734	0.0001932
2746	0.0002184
2758	0.0002478
2770	0.0003108
2782	0.0004536
2794	0.0005208
2806	0.0006258
2818	0.0008316
2830	0.0012012
2842	0.0027216
2854	0.0071946
2866	0.0106554
2878	0.008085
2890	0.0054432
2902	0.0060522
2914	0.0097062
2926	0.0203196
2938	0.0389634
2950	0.0333858
2962	0.010164
2974	0.002688
2986	0.001176
2998	0.0009492
3010	0.00126
3022	0.0023268
3034	0.003885
3046	0.0037254
3058	0.0043554
3070	0.006216
3082	0.0041118
3094	0.0030492
3106	0.0018186
3118	0.0008862
3130	0.0004158
3142	0.000273
3154	0.0002856
3166	0.0002016
3178	0.0001554
3190	0.0001134
3202	9.66e-05
3214	8.82e-05
3226	7.56e-05
3238	4.2e-05
3250	8.82e-05
3262	3.78e-05
3274	5.46e-05
3286	7.14e-05
3298	6.3e-05
3310	6.72e-05
3322	5.46e-05
3334	8.82e-05
3346	7.14e-05
3358	0.0001344
3370	0.0001218
3382	0.0001134
3394	0.0001218
3406	0.0001134
3418	0.0001344
3430	0.0001722
3442	0.0001344
3454	0.0001134
3466	8.82e-05
3478	7.14e-05
3490	8.82e-05
3502	0.0001092
3514	2.94e-05
3526	9.24e-05
3538	2.94e-05
3550	8.82e-05
3562	3.36e-05
3574	9.24e-05
3586	0.000147
3598	0.0001764
3610	0.0004368
3622	0.0011592
3634	0.0018186
3646	0.0012054
3658	0.0006132
3670	0.0002856
3682	0.0001554
3694	0.0001344
3706	0.0001806
3718	0.0001638
3730	0.000147
3742	7.98e-05
3754	0.0001092
3766	8.4e-05
3778	9.66e-05
3790	8.82e-05
3802	3.78e-05
3814	0.0001218
3826	0.0001218
3838	0.0001218
