Infrared Spectrum: 4-Fluorobenzyl mercaptan
Formula: C 7 H 7 F S
CAS: 15894-04-9
State: gas
Origin: EPA-IR VAPOR PHASE LIBRARY
1/CM	ABSORBANCE
549.8	0.003408
559.445	0.001948
569.09	0.002008
578.734	0.002048
588.379	0.001578
598.024	0.001808
607.669	0.001678
617.313	0.0010401
626.958	0.002608
636.603	0.002978
646.248	0.005318
655.893	0.008388
665.537	0.010978
675.182	0.009858
684.827	0.006438
694.472	0.003458
704.116	0.003748
713.761	0.004478
723.406	0.006428
733.051	0.005678
742.695	0.005248
752.34	0.006108
761.985	0.007108
771.63	0.004848
781.275	0.004268
790.919	0.005948
800.564	0.008768
810.209	0.016358
819.854	0.026728
829.498	0.035248
839.143	0.039438
848.788	0.030408
858.433	0.014038
868.078	0.006098
877.722	0.004308
887.367	0.003118
897.012	0.002408
906.657	0.002098
916.301	0.002248
925.946	0.002368
935.591	0.002468
945.236	0.001848
954.88	0.002268
964.525	0.002528
974.17	0.002988
983.815	0.002688
993.46	0.002208
1003.1	0.003208
1012.75	0.005918
1022.39	0.004988
1032.04	0.001518
1041.68	0.001728
1051.33	0.002208
1060.97	0.002258
1070.62	0.002908
1080.26	0.005278
1089.91	0.006768
1099.55	0.007098
1109.2	0.005078
1118.84	0.002838
1128.49	0.002418
1138.13	0.002128
1147.78	0.008378
1157.42	0.025988
1167.07	0.019278
1176.71	0.004748
1186.36	0.006328
1196	0.007838
1205.64	0.011298
1215.29	0.025608
1224.93	0.067468
1234.58	0.137228
1244.22	0.107378
1253.87	0.024328
1263.51	0.012288
1273.16	0.008238
1282.8	0.007048
1292.45	0.006128
1302.09	0.005538
1311.74	0.005418
1321.38	0.004678
1331.03	0.003488
1340.67	0.003108
1350.32	0.002518
1359.96	0.002338
1369.61	0.002188
1379.25	0.002238
1388.9	0.002548
1398.54	0.003298
1408.18	0.003988
1417.83	0.004708
1427.47	0.005408
1437.12	0.006458
1446.76	0.006788
1456.41	0.005568
1466.05	0.004538
1475.7	0.004928
1485.34	0.008698
1494.99	0.029138
1504.63	0.103338
1514.28	0.120928
1523.92	0.043438
1533.57	0.009418
1543.21	0.004858
1552.86	0.003668
1562.5	0.004298
1572.15	0.006538
1581.79	0.010368
1591.44	0.014968
1601.08	0.023438
1610.73	0.025118
1620.37	0.014678
1630.01	0.007718
1639.66	0.005368
1649.3	0.003968
1658.95	0.002628
1668.59	0.002208
1678.24	0.002228
1687.88	0.002018
1697.53	0.001988
1707.17	0.002048
1716.82	0.002128
1726.46	0.002008
1736.11	0.002258
1745.75	0.002968
1755.4	0.003438
1765.04	0.002548
1774.69	0.001568
1784.33	0.001518
1793.98	0.0012337
1803.62	0.001315
1813.27	0.0011608
1822.91	0.001378
1832.55	0.001458
1842.2	0.001868
1851.84	0.002308
1861.49	0.003008
1871.13	0.004118
1880.78	0.004138
1890.42	0.003378
1900.07	0.002108
1909.71	0.001658
1919.36	0.001518
1929	0.001528
1938.65	0.001488
1948.29	0.001328
1957.94	0.001558
1967.58	0.001648
1977.23	0.001528
1986.87	0.001588
1996.52	0.001768
2006.16	0.001848
2015.81	0.001428
2025.45	0.0012615
2035.1	0.001398
2044.74	0.0012083
2054.38	0.001448
2064.03	0.001548
2073.67	0.001568
2083.32	0.001718
2092.96	0.001398
2102.61	0.0013263
2112.25	0.001262
2121.9	0.0009832
2131.54	0.0008978
2141.19	0.0010545
2150.83	0.0008957
2160.48	0.001438
2170.12	0.0010507
2179.77	0.0011889
2189.41	0.0011685
2199.06	0.0008733
2208.7	0.0009921
2218.35	0.0007807
2227.99	0.0010797
2237.64	0.0009117
2247.28	0.001398
2256.92	0.001518
2266.57	0.0012291
2276.21	0.001338
2285.86	0.0011828
2295.5	0.0010508
2305.15	0.0011193
2314.79	0.0012528
2324.44	0.0012131
2334.08	0.0011123
2343.73	0.001428
2353.37	0.001518
2363.02	0.0011247
2372.66	0.0012643
2382.31	0.001378
2391.95	0.001378
2401.6	0.0012964
2411.24	0.001548
2420.89	0.0010737
2430.53	0.0010571
2440.18	0.001708
2449.82	0.001818
2459.47	0.002108
2469.11	0.002098
2478.75	0.001398
2488.4	0.0009667
2498.04	0.0009694
2507.69	0.0008237
2517.33	0.0010016
2526.98	0.0009251
2536.62	0.0011439
2546.27	0.001378
2555.91	0.001458
2565.56	0.001488
2575.2	0.001908
2584.85	0.002428
2594.49	0.001858
2604.14	0.001628
2613.78	0.0012838
2623.43	0.001368
2633.07	0.0010331
2642.72	0.0006565
2652.36	0.0010518
2662.01	0.0008276
2671.65	0.001408
2681.29	0.001378
2690.94	0.0008291
2700.58	0.001378
2710.23	0.0010464
2719.87	0.0009878
2729.52	0.0008264
2739.16	0.0009747
2748.81	0.0011507
2758.45	0.0008407
2768.1	0.0007844
2777.74	0.0006999
2787.39	0.0008762
2797.03	0.001488
2806.68	0.0006484
2816.32	0.001498
2825.97	0.001388
2835.61	0.001368
2845.26	0.001818
2854.9	0.002378
2864.55	0.002028
2874.19	0.002338
2883.84	0.001748
2893.48	0.001648
2903.12	0.002818
2912.77	0.002798
2922.41	0.004758
2932.06	0.006528
2941.7	0.008608
2951.35	0.007618
2960.99	0.006678
2970.64	0.005608
2980.28	0.005198
2989.93	0.004378
2999.57	0.004268
3009.22	0.003558
3018.86	0.003568
3028.51	0.005258
3038.15	0.009008
3047.8	0.010948
3057.44	0.007218
3067.09	0.005048
3076.73	0.005168
3086.38	0.004028
3096.02	0.002978
3105.67	0.002118
3115.31	0.002358
3124.95	0.001958
3134.6	0.001798
3144.24	0.0012146
3153.89	0.0008851
3163.53	0.0012087
3173.18	0.0006441
3182.82	0.00128
3192.47	0.0010363
3202.11	0.0004963
3211.76	0.0010471
3221.4	0.0009146
3231.05	0.0009776
3240.69	0.0006793
3250.34	0.00037653
3259.98	0.0009577
3269.63	0.0008424
3279.27	0.0012242
3288.92	0.0007294
3298.56	0.0010134
3308.21	0.0007103
3317.85	0.0005824
3327.49	0.0012198
3337.14	0.0008036
3346.78	0.0008335
3356.43	0.0011243
3366.07	0.0008283
3375.72	0.001398
3385.36	0.0009548
3395.01	0.0009492
3404.65	0.0008022
3414.3	0.0006251
3423.94	0.0010052
3433.59	0.0005588
3443.23	0.0004658
3452.88	0.0006688
3462.52	0.00016
3472.17	0.0007839
3481.81	0.001488
3491.46	0.0005592
3501.1	0.0008186
3510.75	0.0007009
3520.39	0.0006513
3530.04	0.0011625
3539.68	0.0009319
3549.32	0.0005937
3558.97	0.0011213
3568.61	0.0010045
3578.26	0.0007918
3587.9	0.0010307
3597.55	0.0010564
3607.19	0.000949
3616.84	0.0007989
3626.48	0.0012645
3636.13	0.0006319
3645.77	0.0004787
3655.42	0.0005692
3665.06	0.0005368
3674.71	0.0006019
3684.35	0.001211
3694	0.0007057
3703.64	0.0008991
3713.29	0.001638
3722.93	0.0008798
3732.58	0.0012615
3742.22	0.001188
3751.86	0.0008164
3761.51	0.0006129
3771.15	0.0007888
3780.8	0.0011396
3790.44	0.0010564
3800.09	0.0009268
3809.73	0.0006161
3819.38	0.0006692
3829.02	0.0005626
3838.67	0.0006247
3848.31	0.0003115
3857.96	0.0009826
3867.6	0.000862
3877.25	0.0010677
3886.89	0.00039541
3896.54	0.0012372
3906.18	0.000733
3915.83	0.001338
3925.47	0.0006425
3935.12	0.0012748
3944.76	0.0006192
3954.41	0.0011577
3964.05	0.0005299
3973.69	0.00038294
3983.34	0.0005226
3992.98	0.0006583
