Infrared Spectrum: 2,4,6-TRIETHYL-2,4,6-TRIMETHYLCYCLOTRISILOXANE
Formula: C9 H24 O3 Si3
CAS: 15901-49-2
State: SOLUTION (5% IN CCl4 FOR 3800-1300, 2% IN CS2 FOR 1300-630, AND 5% IN CCl4 FOR 630-250 CM^-^1) VS. SOLVENT
Boiling point: 78 C
Class: COBLENTZ III
Instrument: PERKIN-ELMER 521 (GRATING)
Instrument parameters: FILTERS AT 3150, 2500, 2000, 1150, 700, 410. GRATING CHANGES: 2000, 630 CM^-^1
Sampling: TRANSMISSION
Path length: 0.011 CM, 0.011 CM, AND 0.021 CM
Resolution: 2
Origin: DOW CORNING CORP.
1/CM	TRANSMITTANCE
257.143	0.93
266.36	0.898
275.576	0.847
284.793	0.794
294.009	0.66
303.226	0.573
312.443	0.641
321.659	0.695
330.876	0.681
340.092	0.594
349.309	0.587
358.525	0.617
367.742	0.656
376.959	0.719
386.175	0.656
395.392	0.643
404.608	0.77
413.825	0.741
423.042	0.289
432.258	0.359
441.475	0.576
450.691	0.693
459.908	0.768
469.125	0.813
478.341	0.854
487.558	0.869
496.774	0.877
505.991	0.876
515.208	0.885
524.424	0.886
533.641	0.886
542.857	0.886
552.074	0.884
561.29	0.873
570.507	0.864
579.724	0.817
588.94	0.679
598.157	0.329
607.373	0.254
616.59	0.419
625.807	0.7761
635.023	0.864
644.24	0.851
653.456	0.79
662.673	0.831
671.89	0.839
681.106	0.804
690.323	0.79
699.539	0.801
708.756	0.832
717.972	0.816
727.189	0.76
736.406	0.639
745.622	0.6
754.839	0.548
764.055	0.646
773.272	0.531
782.489	0.416
791.705	0.331
800.922	0.403
810.138	0.616
819.355	0.636
828.572	0.581
837.788	0.68
847.005	0.792
856.221	0.838
865.438	0.852
874.655	0.854
883.871	0.864
893.088	0.864
902.304	0.864
911.521	0.862
920.737	0.856
929.954	0.847
939.171	0.831
948.387	0.807
957.604	0.753
966.82	0.72
976.037	0.701
985.254	0.615
994.47	0.276
1003.69	0.024
1012.9	0.012
1022.12	0.042
1031.34	0.319
1040.55	0.562
1049.77	0.664
1058.99	0.72
1068.2	0.766
1077.42	0.78
1086.64	0.793
1095.85	0.812
1105.07	0.822
1114.29	0.825
1123.5	0.829
1132.72	0.833
1141.94	0.848
1151.15	0.86
1160.37	0.867
1169.59	0.868
1178.8	0.869
1188.02	0.869
1197.24	0.869
1206.45	0.859
1215.67	0.847
1224.88	0.782
1234.1	0.696
1243.32	0.662
1252.53	0.301
1261.75	0.643
1270.97	0.782
1280.18	0.782
1289.4	0.782
1298.62	0.782
1307.83	0.782
1317.05	0.782
1326.27	0.783
1335.48	0.783
1344.7	0.783
1353.92	0.783
1363.13	0.776
1372.35	0.76
1381.57	0.726
1390.78	0.727
1400	0.649
1409.22	0.548
1418.43	0.594
1427.65	0.68
1436.87	0.72
1446.08	0.717
1455.3	0.616
1464.52	0.544
1473.73	0.694
1482.95	0.782
1492.17	0.801
1501.38	0.813
1510.6	0.821
1519.82	0.822
1529.03	0.821
1538.25	0.831
1547.47	0.837
1556.68	0.839
1565.9	0.839
1575.12	0.831
1584.33	0.813
1593.55	0.794
1602.77	0.791
1611.98	0.804
1621.2	0.807
1630.41	0.813
1639.63	0.822
1648.85	0.832
1658.06	0.838
1667.28	0.84
1676.5	0.84
1685.71	0.84
1694.93	0.838
1704.15	0.838
1713.36	0.841
1722.58	0.847
1731.8	0.854
1741.01	0.856
1750.23	0.856
1759.45	0.855
1768.66	0.855
1777.88	0.857
1787.1	0.859
1796.31	0.861
1805.53	0.861
1814.75	0.861
1823.96	0.861
1833.18	0.86
1842.4	0.857
1851.61	0.855
1860.83	0.856
1870.05	0.861
1879.26	0.865
1888.48	0.867
1897.7	0.869
1906.91	0.867
1916.13	0.868
1925.35	0.869
1934.56	0.871
1943.78	0.872
1953	0.875
1962.21	0.875
1971.43	0.875
1980.65	0.873
1989.86	0.87
1999.08	0.831
2008.3	0.8714
2017.51	0.884
2026.73	0.885
2035.94	0.885
2045.16	0.885
2054.38	0.886
2063.59	0.886
2072.81	0.8869
2082.03	0.8879
2091.24	0.888
2100.46	0.888
2109.68	0.888
2118.89	0.888
2128.11	0.888
2137.33	0.888
2146.54	0.888
2155.76	0.888
2164.98	0.888
2174.19	0.888
2183.41	0.888
2192.63	0.888
2201.84	0.888
2211.06	0.888
2220.28	0.888
2229.49	0.89
2238.71	0.892
2247.93	0.892
2257.14	0.892
2266.36	0.892
2275.58	0.892
2284.79	0.892
2294.01	0.892
2303.23	0.895
2312.44	0.898
2321.66	0.898
2330.88	0.898
2340.09	0.898
2349.31	0.898
2358.53	0.898
2367.74	0.8957
2376.96	0.892
2386.18	0.89
2395.39	0.89
2404.61	0.89
2413.82	0.89
2423.04	0.888
2432.26	0.887
2441.47	0.887
2450.69	0.888
2459.91	0.89
2469.12	0.891
2478.34	0.891
2487.56	0.891
2496.77	0.891
2505.99	0.891
2515.21	0.891
2524.42	0.891
2533.64	0.891
2542.86	0.891
2552.07	0.891
2561.29	0.89
2570.51	0.888
2579.72	0.887
2588.94	0.887
2598.16	0.887
2607.37	0.886
2616.59	0.886
2625.81	0.886
2635.02	0.885
2644.24	0.884
2653.46	0.88
2662.67	0.878
2671.89	0.8799
2681.11	0.8829
2690.32	0.8771
2699.54	0.878
2708.76	0.884
2717.97	0.8757
2727.19	0.8679
2736.41	0.8622
2745.62	0.872
2754.84	0.871
2764.06	0.8647
2773.27	0.8626
2782.49	0.845
2791.71	0.8311
2800.92	0.812
2810.14	0.8172
2819.35	0.8304
2828.57	0.8197
2837.79	0.8176
2847	0.8153
2856.22	0.8014
2865.44	0.7463
2874.65	0.3386
2883.87	0.3996
2893.09	0.428
2902.3	0.5009
2911.52	0.3979
2920.74	0.4779
2929.95	0.4849
2939.17	0.4395
2948.39	0.3908
2957.6	0.1478
2966.82	0.2161
2976.04	0.4902
2985.25	0.7049
2994.47	0.7686
3003.69	0.8095
3012.9	0.8267
3022.12	0.8378
3031.34	0.8467
3040.55	0.851
3049.77	0.851
3058.99	0.852
3068.2	0.8558
3077.42	0.859
3086.64	0.859
3095.85	0.86
3105.07	0.861
3114.29	0.863
3123.5	0.8641
3132.72	0.873
3141.94	0.876
3151.15	0.879
3160.37	0.879
3169.59	0.879
3178.8	0.88
3188.02	0.882
3197.24	0.8835
3206.45	0.8855
3215.67	0.886
3224.88	0.886
3234.1	0.887
3243.32	0.887
3252.53	0.887
3261.75	0.8878
3270.97	0.888
3280.18	0.8898
3289.4	0.89
3298.62	0.891
3307.83	0.891
3317.05	0.892
3326.27	0.892
3335.48	0.892
3344.7	0.892
3353.92	0.892
3363.13	0.892
3372.35	0.8924
3381.57	0.893
3390.78	0.893
3400	0.893
3409.22	0.893
3418.43	0.893
3427.65	0.894
3436.87	0.894
3446.08	0.894
3455.3	0.894
3464.52	0.894
3473.73	0.894
3482.95	0.894
3492.17	0.894
3501.38	0.894
3510.6	0.894
3519.82	0.894
3529.03	0.894
3538.25	0.894
3547.47	0.895
3556.68	0.895
3565.9	0.896
3575.12	0.896
3584.33	0.8968
3593.55	0.898
3602.77	0.899
3611.98	0.899
3621.2	0.899
3630.41	0.899
3639.63	0.899
3648.85	0.899
3658.06	0.899
3667.28	0.898
3676.5	0.896
3685.71	0.895
3694.93	0.895
3704.15	0.895
3713.36	0.898
3722.58	0.8991
3731.8	0.902
3741.01	0.9044
3750.23	0.908
3759.45	0.9077
3768.66	0.904
3777.88	0.902
3787.1	0.9006
3796.31	0.899
3805.53	0.898
