Infrared Spectrum: 2,2,4-TRIMETHYL-3-KETO-PENTANOL
Formula: C8 H16 O2
CAS: 15904-30-0
State: SOLUTION (10% CCl4 FOR 5000-1330, 10% CS2 FOR 1330-625 CM^-^1)
Boiling point: 75-76 C AT 6 mmHg
Class: COBLENTZ
Instrument: Not specified, most likely a prism, grating, or hybrid spectrometer.
Sampling: TRANSMISSION
Path length: 0.0113 CM, 0.0114 CM
Resolution: 4
Origin: DOW CHEMICAL COMPANY
MICROMETERS	TRANSMITTANCE
2	0.899
2.04114	0.899
2.08227	0.902
2.12341	0.902
2.16455	0.899
2.20568	0.87
2.24682	0.866
2.28796	0.885
2.3291	0.887
2.37023	0.877
2.41137	0.882
2.45251	0.89
2.49364	0.895
2.53478	0.899
2.57592	0.901
2.61705	0.895
2.65819	0.88
2.69933	0.815
2.74046	0.675
2.7816	0.47
2.82274	0.441
2.86388	0.459
2.90501	0.561
2.94615	0.68
2.98729	0.769
3.02842	0.812
3.06956	0.824
3.1107	0.837
3.15183	0.86
3.19297	0.861
3.23411	0.849
3.27524	0.784
3.31638	0.491
3.35752	0.145
3.39866	0.211
3.43979	0.332
3.48093	0.716
3.52207	0.784
3.5632	0.832
3.60434	0.848
3.64548	0.853
3.68661	0.813
3.72775	0.88
3.76889	0.88
3.81002	0.889
3.85116	0.887
3.8923	0.882
3.93344	0.89
3.97457	0.894
4.01571	0.894
4.05685	0.89
4.09798	0.89
4.13912	0.889
4.18026	0.878
4.22139	0.878
4.26253	0.878
4.30367	0.88
4.34481	0.883
4.38594	0.894
4.42708	0.899
4.46822	0.901
4.50935	0.901
4.55049	0.899
4.59163	0.906
4.63276	0.907
4.6739	0.906
4.71504	0.899
4.75617	0.892
4.79731	0.895
4.83845	0.897
4.87959	0.894
4.92072	0.899
4.96186	0.899
5.003	0.901
5.04413	0.902
5.08527	0.907
5.12641	0.909
5.16754	0.909
5.20868	0.902
5.24982	0.897
5.29095	0.897
5.33209	0.897
5.37323	0.894
5.41437	0.895
5.4555	0.899
5.49664	0.897
5.53778	0.892
5.57891	0.887
5.62005	0.872
5.66119	0.853
5.70232	0.822
5.74346	0.778
5.7846	0.645
5.82573	0.356
5.86687	0.085
5.90801	0.076
5.94915	0.679
5.99028	0.742
6.03142	0.776
6.07256	0.827
6.11369	0.832
6.15483	0.819
6.19597	0.754
6.2371	0.713
6.27824	0.645
6.31938	0.619
6.36051	0.571
6.40165	0.508
6.44279	0.493
6.48393	0.544
6.52506	0.598
6.5662	0.639
6.60734	0.668
6.64847	0.699
6.68961	0.633
6.73075	0.44
6.77188	0.196
6.81302	0.187
6.85416	0.377
6.89529	0.529
6.93643	0.65
6.97757	0.658
7.01871	0.592
7.05984	0.527
7.10098	0.445
7.14212	0.409
7.18325	0.399
7.22439	0.261
7.26553	0.382
7.30666	0.363
7.3478	0.508
7.38894	0.45
7.43007	0.496
7.47121	0.674
7.51235	0.733
7.55349	0.75
7.59462	0.723
7.63576	0.716
7.6769	0.709
7.71803	0.696
7.75917	0.639
7.80031	0.6
7.84144	0.564
7.88258	0.663
7.92372	0.72
7.96485	0.742
8.00599	0.718
8.04713	0.697
8.08827	0.72
8.1294	0.732
8.17054	0.737
8.21168	0.733
8.25281	0.725
8.29395	0.704
8.33509	0.675
8.37622	0.638
8.41736	0.581
8.4585	0.558
8.49963	0.598
8.54077	0.595
8.58191	0.569
8.62305	0.575
8.66418	0.587
8.70532	0.629
8.74646	0.672
8.78759	0.699
8.82873	0.713
8.86987	0.72
8.911	0.723
8.95214	0.718
8.99328	0.706
9.03442	0.682
9.07555	0.639
9.11669	0.551
9.15783	0.414
9.19896	0.402
9.2401	0.505
9.28124	0.529
9.32237	0.455
9.36351	0.315
9.40465	0.192
9.44578	0.11
9.48692	0.058
9.52806	0.066
9.5692	0.109
9.61033	0.136
9.65147	0.133
9.69261	0.088
9.73374	0.047
9.77488	0.029
9.81602	0.095
9.85715	0.22
9.89829	0.279
9.93943	0.247
9.98056	0.226
10.0217	0.295
10.0628	0.445
10.104	0.559
10.1451	0.61
10.1862	0.627
10.2274	0.617
10.2685	0.576
10.3097	0.53
10.3508	0.54
10.3919	0.573
10.4331	0.588
10.4742	0.616
10.5153	0.648
10.5565	0.651
10.5976	0.629
10.6388	0.675
10.6799	0.721
10.721	0.726
10.7622	0.721
10.8033	0.72
10.8444	0.733
10.8856	0.723
10.9267	0.687
10.9679	0.674
11.009	0.656
11.0501	0.629
11.0913	0.638
11.1324	0.687
11.1735	0.744
11.2147	0.764
11.2558	0.769
11.2969	0.757
11.3381	0.726
11.3792	0.682
11.4204	0.67
11.4615	0.697
11.5026	0.715
11.5438	0.711
11.5849	0.706
11.626	0.701
11.6672	0.691
11.7083	0.694
11.7495	0.709
11.7906	0.73
11.8317	0.75
11.8729	0.761
11.914	0.762
11.9551	0.75
11.9963	0.747
12.0374	0.755
12.0785	0.776
12.1197	0.796
12.1608	0.815
12.202	0.822
12.2431	0.825
12.2842	0.825
12.3254	0.825
12.3665	0.825
12.4076	0.825
12.4488	0.825
12.4899	0.825
12.5311	0.824
12.5722	0.822
12.6133	0.82
12.6545	0.819
12.6956	0.819
12.7367	0.813
12.7779	0.812
12.819	0.815
12.8601	0.817
12.9013	0.813
12.9424	0.805
12.9836	0.8
13.0247	0.79
13.0658	0.783
13.107	0.778
13.1481	0.778
13.1892	0.779
13.2304	0.781
13.2715	0.778
13.3127	0.776
13.3538	0.769
13.3949	0.769
13.4361	0.767
13.4772	0.759
13.5183	0.752
13.5595	0.75
13.6006	0.749
13.6418	0.744
13.6829	0.737
13.724	0.733
13.7652	0.725
13.8063	0.718
13.8474	0.711
13.8886	0.699
13.9297	0.687
13.9708	0.677
14.012	0.667
14.0531	0.656
14.0943	0.653
14.1354	0.646
14.1765	0.643
14.2177	0.641
14.2588	0.636
14.2999	0.626
14.3411	0.621
14.3822	0.609
14.4234	0.602
14.4645	0.597
14.5056	0.588
14.5468	0.581
14.5879	0.575
14.629	0.568
14.6702	0.558
14.7113	0.549
14.7524	0.537
14.7936	0.53
14.8347	0.52
14.8759	0.508
14.917	0.5
14.9581	0.484
14.9993	0.479
15.0404	0.47
15.0815	0.46
15.1227	0.448
15.1638	0.43
15.205	0.421
15.2461	0.406
15.2872	0.397
15.3284	0.385
15.3695	0.377
15.4106	0.37
15.4518	0.361
15.4929	0.348
15.534	0.336
15.5752	0.331
15.6163	0.32
15.6575	0.317
15.6986	0.313
15.7397	0.305
15.7809	0.302
15.822	0.308
15.8631	0.298
15.9043	0.295
15.9454	0.302
