Infrared Spectrum: 3',4'-Dichlorocyclohexanecarboxanilide
Formula: C 13 H 15 Cl 2 N O
CAS: 15907-85-4
State: gas
Origin: EPA-IR VAPOR PHASE LIBRARY
1/CM	ABSORBANCE
551.7	0.00649
563.274	0.00462
574.848	0.00542
586.421	0.00361
597.995	0.00228
609.569	0.00175
621.143	0.00194
632.717	0.00188
644.291	0.00187
655.864	0.00347
667.438	0.00771
679.012	0.0094
690.586	0.00977
702.16	0.00673
713.734	0.00384
725.307	0.00315
736.881	0.00317
748.455	0.00381
760.029	0.00574
771.603	0.00612
783.177	0.0058
794.75	0.01204
806.324	0.01711
817.898	0.0135
829.472	0.0076
841.046	0.00795
852.619	0.01328
864.193	0.01163
875.767	0.01363
887.341	0.01252
898.915	0.01034
910.489	0.01072
922.062	0.01033
933.636	0.00894
945.21	0.00945
956.784	0.00665
968.358	0.00415
979.932	0.00396
991.505	0.00507
1003.08	0.00869
1014.65	0.01547
1026.23	0.02722
1037.8	0.02171
1049.37	0.00888
1060.95	0.00717
1072.52	0.00714
1084.1	0.00943
1095.67	0.01428
1107.24	0.02915
1118.82	0.05753
1130.39	0.07557
1141.97	0.04394
1153.54	0.04467
1165.11	0.04513
1176.69	0.03124
1188.26	0.02353
1199.83	0.02284
1211.41	0.02258
1222.98	0.02553
1234.56	0.02059
1246.13	0.02065
1257.7	0.02508
1269.28	0.03481
1280.85	0.05611
1292.42	0.0354
1304	0.02301
1315.57	0.0182
1327.15	0.01734
1338.72	0.01738
1350.29	0.02315
1361.87	0.04387
1373.44	0.06372
1385.02	0.05963
1396.59	0.03235
1408.16	0.01548
1419.74	0.01484
1431.31	0.02108
1442.88	0.03768
1454.46	0.07245
1466.03	0.11352
1477.61	0.21382
1489.18	0.21384
1500.75	0.19173
1512.33	0.08578
1523.9	0.04197
1535.48	0.02778
1547.05	0.0199
1558.62	0.02391
1570.2	0.04957
1581.77	0.06761
1593.34	0.06693
1604.92	0.02997
1616.49	0.01301
1628.07	0.00821
1639.64	0.00669
1651.21	0.00652
1662.79	0.00735
1674.36	0.01008
1685.93	0.01528
1697.51	0.02782
1709.08	0.06552
1720.66	0.10623
1732.23	0.05557
1743.8	0.02117
1755.38	0.01147
1766.95	0.00705
1778.53	0.00462
1790.1	0.00327
1801.67	0.00268
1813.25	0.00231
1824.82	0.00191
1836.39	0.00168
1847.97	0.00168
1859.54	0.00188
1871.12	0.00159
1882.69	0.00154
1894.26	0.00177
1905.84	0.00153
1917.41	0.00119
1928.99	0.0009476
1940.56	0.0008474
1952.13	0.0008842
1963.71	0.0009189
1975.28	0.0009619
1986.85	0.0009026
1998.43	0.0007806
2010	0.0007063
2021.58	0.0007349
2033.15	0.0007483
2044.72	0.0007078
2056.3	0.0007261
2067.87	0.0007002
2079.44	0.0006181
2091.02	0.0006473
2102.59	0.0007636
2114.17	0.0008134
2125.74	0.0009148
2137.31	0.00105
2148.89	0.00116
2160.46	0.00112
2172.04	0.00105
2183.61	0.00107
2195.18	0.00102
2206.76	0.0009145
2218.33	0.0008141
2229.9	0.0008617
2241.48	0.0008864
2253.05	0.0007771
2264.63	0.0008081
2276.2	0.0008876
2287.77	0.0008651
2299.35	0.0007829
2310.92	0.0007121
2322.5	0.0006918
2334.07	0.0007814
2345.64	0.0009566
2357.22	0.00106
2368.79	0.00122
2380.36	0.00125
2391.94	0.00121
2403.51	0.00118
2415.09	0.00101
2426.66	0.0009096
2438.23	0.0008138
2449.81	0.0007111
2461.38	0.000691
2472.96	0.0007686
2484.53	0.00102
2496.1	0.00112
2507.68	0.00114
2519.25	0.00103
2530.82	0.0008935
2542.4	0.00079
2553.97	0.0007509
2565.55	0.0008364
2577.12	0.0009378
2588.69	0.00113
2600.27	0.00131
2611.84	0.00125
2623.41	0.00129
2634.99	0.00125
2646.56	0.00147
2658.14	0.00201
2669.71	0.00223
2681.28	0.00182
2692.86	0.0017
2704.43	0.00165
2716.01	0.00158
2727.58	0.00144
2739.15	0.00133
2750.73	0.00136
2762.3	0.00135
2773.87	0.00161
2785.45	0.00214
2797.02	0.00283
2808.6	0.00336
2820.17	0.00423
2831.74	0.00603
2843.32	0.01172
2854.89	0.0325
2866.47	0.05581
2878.04	0.03242
2889.61	0.02275
2901.19	0.0256
2912.76	0.04248
2924.33	0.07799
2935.91	0.13896
2947.48	0.13173
2959.06	0.04259
2970.63	0.01487
2982.2	0.0063
2993.78	0.00326
3005.35	0.00225
3016.92	0.00232
3028.5	0.00321
3040.07	0.00294
3051.65	0.00249
3063.22	0.00282
3074.79	0.00239
3086.37	0.00303
3097.94	0.00256
3109.52	0.00255
3121.09	0.0035
3132.66	0.00172
3144.24	0.00119
3155.81	0.0009737
3167.38	0.0009727
3178.96	0.0007517
3190.53	0.0006494
3202.11	0.0003916
3213.68	0.0003611
3225.25	0.0002586
3236.83	0.0003567
3248.4	0.0003116
3259.98	0.0002738
3271.55	0.0002167
3283.12	0.0001656
3294.7	0.0001818
3306.27	0.0002829
3317.84	0.0001909
3329.42	0.0002694
3340.99	0.0002581
3352.57	0.0003069
3364.14	0.0003521
3375.71	0.0005683
3387.29	0.0008916
3398.86	0.00141
3410.43	0.00236
3422.01	0.00301
3433.58	0.00397
3445.16	0.00651
3456.73	0.0126
3468.3	0.01233
3479.88	0.00448
3491.45	0.00203
3503.03	0.00103
3514.6	0.000639
3526.17	0.0004098
3537.75	0.00035
3549.32	0.0001914
3560.89	0.0002736
3572.47	0.0002847
3584.04	0.0002105
3595.62	0.0001763
3607.19	0.0001767
3618.76	0.0001859
3630.34	0.0001466
3641.91	0.0001516
3653.49	0.0002543
3665.06	0.0002802
3676.63	0.0001799
3688.21	0.0002448
3699.78	0.000274
3711.35	0.0002591
3722.93	0.0003147
3734.5	0.0003762
3746.08	0.0004395
3757.65	0.0004117
3769.22	0.0003907
3780.8	0.0003678
3792.37	0.0003435
3803.94	0.0003462
3815.52	0.0003723
3827.09	0.000295
3838.67	0.000313
3850.24	0.0002588
3861.81	0.0003171
3873.39	0.0003023
3884.96	0.0003222
3896.54	0.0002073
3908.11	0.0002345
3919.68	0.0002855
3931.26	0.0003482
3942.83	0.0003957
3954.4	0.0005818
3965.98	0.0005907
3977.55	0.0005208
3989.13	0.0004341
4000.7	0.0003094
