Infrared Spectrum: 2-(o-Tolyl)benzothiazole
Formula: C 14 H 11 N S
CAS: 15903-58-9
State: gas
Origin: EPA-IR VAPOR PHASE LIBRARY
1/CM	ABSORBANCE
549.8	0.0006003
559.445	0.0009701
569.09	0.0008052
578.734	0.0010657
588.379	0.0004489
598.024	0.0002289
607.669	0.0003595
617.313	0.0005666
626.958	0.001546
636.603	0.002156
646.248	0.001786
655.893	0.002986
665.537	0.004286
675.182	0.009416
684.827	0.012546
694.472	0.005836
704.116	0.007096
713.761	0.016156
723.406	0.027096
733.051	0.021036
742.695	0.018876
752.34	0.041056
761.985	0.040136
771.63	0.013866
781.275	0.004976
790.919	0.003186
800.564	0.001496
810.209	0.001406
819.854	0.001656
829.498	0.001146
839.143	0.001136
848.788	0.001586
858.433	0.001326
868.078	0.0010764
877.722	0.0008724
887.367	0.0010077
897.012	0.001126
906.657	0.001556
916.301	0.002416
925.946	0.004266
935.591	0.009026
945.236	0.015616
954.88	0.029836
964.525	0.028666
974.17	0.009536
983.815	0.003656
993.46	0.002326
1003.1	0.002516
1012.75	0.004646
1022.39	0.001946
1032.04	0.002176
1041.68	0.002846
1051.33	0.003506
1060.97	0.002706
1070.62	0.002926
1080.26	0.002326
1089.91	0.001496
1099.55	0.001276
1109.2	0.001986
1118.84	0.003366
1128.49	0.004166
1138.13	0.002096
1147.78	0.001496
1157.42	0.003396
1167.07	0.003526
1176.71	0.002286
1186.36	0.003456
1196	0.005946
1205.64	0.009366
1215.29	0.015356
1224.93	0.012316
1234.58	0.008936
1244.22	0.009906
1253.87	0.004346
1263.51	0.003916
1273.16	0.007156
1282.8	0.008076
1292.45	0.007406
1302.09	0.010186
1311.74	0.007576
1321.38	0.003376
1331.03	0.001616
1340.67	0.001186
1350.32	0.001256
1359.96	0.001326
1369.61	0.001536
1379.25	0.002196
1388.9	0.003226
1398.54	0.003966
1408.18	0.003806
1417.83	0.005566
1427.47	0.015086
1437.12	0.024746
1446.76	0.013086
1456.41	0.015256
1466.05	0.014916
1475.7	0.016026
1485.34	0.017276
1494.99	0.012396
1504.63	0.008836
1514.28	0.011896
1523.92	0.011016
1533.57	0.005416
1543.21	0.003236
1552.86	0.002836
1562.5	0.002966
1572.15	0.003126
1581.79	0.002736
1591.44	0.002656
1601.08	0.003326
1610.73	0.002836
1620.37	0.001636
1630.01	0.0009326
1639.66	0.0006355
1649.3	0.000858
1658.95	0.001366
1668.59	0.0008286
1678.24	0.0010199
1687.88	0.002366
1697.53	0.001986
1707.17	0.0009675
1716.82	0.0009431
1726.46	0.0010089
1736.11	0.0007471
1745.75	0.0005059
1755.4	0.0006691
1765.04	0.0010157
1774.69	0.001706
1784.33	0.001886
1793.98	0.001646
1803.62	0.001506
1813.27	0.002026
1822.91	0.001376
1832.55	0.0010924
1842.2	0.0006645
1851.84	0.0005844
1861.49	0.001306
1871.13	0.001356
1880.78	0.0010542
1890.42	0.001516
1900.07	0.002266
1909.71	0.002146
1919.36	0.001606
1929	0.002236
1938.65	0.002716
1948.29	0.001806
1957.94	0.0007855
1967.58	0.0004546
1977.23	0.0003782
1986.87	0.0003567
1996.52	0.0002596
2006.16	0.0003273
2015.81	0.0002696
2025.45	0.0003188
2035.1	0.00025
2044.74	0.00020367
2054.38	0.0002434
2064.03	0.0002316
2073.67	0.0002565
2083.32	0.0003546
2092.96	0.0003926
2102.61	0.0003854
2112.25	0.0002963
2121.9	0.0002967
2131.54	0.0003625
2141.19	0.0003283
2150.83	0.0003465
2160.48	0.0004157
2170.12	0.0003412
2179.77	0.0003436
2189.41	0.0002981
2199.06	0.0002564
2208.7	0.0002643
2218.35	0.0002773
2227.99	0.0002854
2237.64	0.0004048
2247.28	0.0004329
2256.92	0.0005213
2266.57	0.0004286
2276.21	0.0004696
2285.86	0.0004554
2295.5	0.0003763
2305.15	0.0003507
2314.79	0.0004976
2324.44	0.0006362
2334.08	0.0004829
2343.73	0.0002527
2353.37	0.0002446
2363.02	0.00015664
2372.66	0.0002629
2382.31	0.0003768
2391.95	0.0003648
2401.6	0.0003321
2411.24	0.0003832
2420.89	0.0004245
2430.53	0.0005123
2440.18	0.0004867
2449.82	0.0004358
2459.47	0.0003801
2469.11	0.0004286
2478.75	0.0003581
2488.4	0.0003584
2498.04	0.0003084
2507.69	0.0003757
2517.33	0.0003482
2526.98	0.0003108
2536.62	0.0002853
2546.27	0.0002452
2555.91	0.0004635
2565.56	0.0004942
2575.2	0.0005707
2584.85	0.0004862
2594.49	0.0004432
2604.14	0.000463
2613.78	0.0003574
2623.43	0.0003446
2633.07	0.0003922
2642.72	0.0002878
2652.36	0.0004528
2662.01	0.0003622
2671.65	0.0003898
2681.29	0.0004098
2690.94	0.0003677
2700.58	0.00046
2710.23	0.000483
2719.87	0.0007364
2729.52	0.0007103
2739.16	0.0007897
2748.81	0.0009215
2758.45	0.0008005
2768.1	0.0005395
2777.74	0.0004862
2787.39	0.0004145
2797.03	0.000646
2806.68	0.0006118
2816.32	0.0007302
2825.97	0.0008586
2835.61	0.001156
2845.26	0.001316
2854.9	0.001646
2864.55	0.002286
2874.19	0.002726
2883.84	0.002806
2893.48	0.002616
2903.12	0.002766
2912.77	0.003306
2922.41	0.004586
2932.06	0.006616
2941.7	0.007326
2951.35	0.005856
2960.99	0.005236
2970.64	0.006186
2980.28	0.007036
2989.93	0.006186
2999.57	0.004946
3009.22	0.005396
3018.86	0.008396
3028.51	0.010286
3038.15	0.009046
3047.8	0.008996
3057.44	0.015206
3067.09	0.029536
3076.73	0.028196
3086.38	0.012616
3096.02	0.006916
3105.67	0.004546
3115.31	0.003616
3124.95	0.002436
3134.6	0.001636
3144.24	0.0009944
3153.89	0.0010076
3163.53	0.0005874
3173.18	0.0005601
3182.82	0.0004717
3192.47	0.0004356
3202.11	0.000408
3211.76	0.0002824
3221.4	0.0002489
3231.05	0.00012312
3240.69	0.0002429
3250.34	0.0001919
3259.98	0.0004604
3269.63	0.00022169
3279.27	0.0001827
3288.92	0.0003218
3298.56	0.0003781
3308.21	0.00015462
3317.85	0.000257
3327.49	0.000126484
3337.14	0.00020925
3346.78	0.000202
3356.43	0.00017417
3366.07	0.00021048
3375.72	0.0003776
3385.36	0.0002903
3395.01	0.00020257
3404.65	0.0003932
3414.3	0.00014629
3423.94	0.00015582
3433.59	0.0003787
3443.23	9.69e-05
3452.88	0.0002635
3462.52	0.0001218
3472.17	0.0003224
3481.81	0.0002703
3491.46	0.0003155
3501.1	0.00018342
3510.75	0.0002695
3520.39	0.00013624
3530.04	0.0002366
3539.68	0.0002714
3549.32	0.0003353
3558.97	0.0003475
3568.61	0.00020477
3578.26	0.00019741
3587.9	0.00021569
3597.55	0.00020072
3607.19	9.72e-05
3616.84	0.0003024
3626.48	0.0002557
3636.13	0.0002601
3645.77	0.0002508
3655.42	0.0004196
3665.06	0.00015101
3674.71	0.0002774
3684.35	0.0001143
3694	0.0003656
3703.64	0.000321
3713.29	0.00014282
3722.93	0.0003971
3732.58	0.0003873
3742.22	0.00014709
3751.86	0.0003464
3761.51	0.0004423
3771.15	0.0003593
3780.8	0.0004162
3790.44	0.0004117
3800.09	0.0002805
3809.73	0.000347
3819.38	0.00013886
3829.02	0.0002522
3838.67	0.0003165
3848.31	0.0003076
3857.96	0.0004492
3867.6	0.0003142
3877.25	0.000432
3886.89	0.00022287
3896.54	0.000205
3906.18	0.0004752
3915.83	0.0005543
3925.47	0.0005421
3935.12	0.0004492
3944.76	0.00046
3954.41	0.0003322
3964.05	0.000384
3973.69	0.0005827
3983.34	0.0004841
3992.98	0.000333
