Infrared Spectrum: BENZOIC ACID, Alpha-CYANOCINNAMYL ESTER
Formula: C17 H13 N O2
CAS: 1591-17-9
State: SOLUTION (10% CCl4 FOR 5000-1330, 10% CS2 FOR 1330-625 CM^-^1)
Melting point: 68-69 C
Class: COBLENTZ
Instrument: Not specified, most likely a prism, grating, or hybrid spectrometer.
Sampling: TRANSMISSION
Path length: 0.0111 CM, 0.0105 CM
Resolution: 4
Origin: DOW CHEMICAL COMPANY
MICROMETERS	TRANSMITTANCE
2.034	0.86
2.07522	0.865
2.11644	0.862
2.15766	0.863
2.19888	0.872
2.24009	0.87
2.28131	0.867
2.32253	0.868
2.36375	0.868
2.40497	0.867
2.44619	0.856
2.48741	0.875
2.52863	0.875
2.56985	0.875
2.61106	0.881
2.65228	0.882
2.6935	0.882
2.73472	0.875
2.77594	0.875
2.81716	0.877
2.85838	0.87
2.8996	0.86
2.94082	0.87
2.98203	0.872
3.02325	0.875
3.06447	0.875
3.10569	0.874
3.14691	0.872
3.18813	0.855
3.22935	0.751
3.27057	0.672
3.31179	0.718
3.353	0.841
3.39422	0.812
3.43544	0.848
3.47666	0.881
3.51788	0.9
3.5591	0.893
3.60032	0.9
3.64154	0.893
3.68275	0.896
3.72397	0.896
3.76519	0.894
3.80641	0.893
3.84763	0.893
3.88885	0.894
3.93007	0.901
3.97129	0.934
4.01251	0.898
4.05372	0.913
4.09494	0.912
4.13616	0.912
4.17738	0.912
4.2186	0.91
4.25982	0.901
4.30104	0.891
4.34226	0.893
4.38348	0.893
4.42469	0.898
4.46591	0.903
4.50713	0.908
4.54835	0.91
4.58957	0.91
4.63079	0.903
4.67201	0.903
4.71323	0.908
4.75445	0.913
4.79566	0.913
4.83688	0.905
4.8781	0.898
4.91932	0.903
4.96054	0.903
5.00176	0.893
5.04298	0.889
5.0842	0.855
5.12542	0.848
5.16663	0.862
5.20785	0.86
5.24907	0.853
5.29029	0.865
5.33151	0.87
5.37273	0.879
5.41395	0.879
5.45517	0.862
5.49639	0.822
5.5376	0.817
5.57882	0.812
5.62004	0.787
5.66126	0.743
5.70248	0.541
5.7437	0.117
5.78492	0.043
5.82614	0.329
5.86736	0.731
5.90857	0.774
5.94979	0.805
5.99101	0.798
6.03223	0.731
6.07345	0.724
6.11467	0.815
6.15589	0.824
6.19711	0.736
6.23833	0.524
6.27954	0.57
6.32076	0.531
6.36198	0.562
6.4032	0.541
6.44442	0.489
6.48564	0.503
6.52686	0.582
6.56808	0.632
6.60929	0.675
6.65051	0.679
6.69173	0.613
6.73295	0.737
6.77417	0.831
6.81539	0.818
6.85661	0.548
6.89783	0.531
6.93905	0.846
6.98026	0.856
7.02148	0.86
7.0627	0.86
7.10392	0.862
7.14514	0.851
7.18636	0.831
7.22758	0.841
7.2688	0.85
7.31002	0.837
7.35123	0.793
7.39245	0.734
7.43367	0.682
7.47489	0.61
7.51611	0.525
7.55733	0.415
7.59855	0.305
7.63977	0.332
7.68099	0.315
7.7222	0.329
7.76342	0.436
7.80464	0.472
7.84586	0.396
7.88708	0.194
7.9283	0.055
7.96952	0.013
8.01074	0.027
8.05196	0.031
8.09317	0.148
8.13439	0.355
8.17561	0.505
8.21683	0.618
8.25805	0.639
8.29927	0.681
8.34049	0.715
8.38171	0.725
8.42293	0.667
8.46414	0.481
8.50536	0.391
8.54658	0.62
8.5878	0.672
8.62902	0.67
8.67024	0.682
8.71146	0.7
8.75268	0.7
8.7939	0.689
8.83511	0.674
8.87633	0.637
8.91755	0.556
8.95877	0.456
8.99999	0.386
9.04121	0.27
9.08243	0.146
9.12365	0.115
9.16487	0.096
9.20608	0.029
9.2473	0.018
9.28852	0.087
9.32974	0.218
9.37096	0.12
9.41218	0.031
9.4534	0.187
9.49462	0.489
9.53583	0.625
9.57705	0.679
9.61827	0.698
9.65949	0.689
9.70071	0.548
9.74193	0.227
9.78315	0.272
9.82437	0.589
9.86559	0.658
9.9068	0.682
9.94802	0.677
9.98924	0.631
10.0305	0.579
10.0717	0.525
10.1129	0.465
10.1541	0.412
10.1953	0.353
10.2366	0.346
10.2778	0.377
10.319	0.286
10.3602	0.117
10.4014	0.041
10.4427	0.103
10.4839	0.268
10.5251	0.415
10.5663	0.51
10.6075	0.567
10.6487	0.603
10.69	0.61
10.7312	0.6
10.7724	0.618
10.8136	0.641
10.8548	0.65
10.8961	0.662
10.9373	0.682
10.9785	0.698
11.0197	0.72
11.0609	0.753
11.1022	0.775
11.1434	0.789
11.1846	0.791
11.2258	0.789
11.267	0.782
11.3082	0.774
11.3495	0.758
11.3907	0.748
11.4319	0.731
11.4731	0.72
11.5143	0.7
11.5556	0.687
11.5968	0.674
11.638	0.653
11.6792	0.629
11.7204	0.618
11.7617	0.617
11.8029	0.618
11.8441	0.639
11.8853	0.674
11.9265	0.691
11.9677	0.698
12.009	0.703
12.0502	0.706
12.0914	0.72
12.1326	0.732
12.1738	0.732
12.2151	0.737
12.2563	0.748
12.2975	0.758
12.3387	0.768
12.3799	0.77
12.4212	0.768
12.4624	0.748
12.5036	0.718
12.5448	0.713
12.586	0.741
12.6273	0.76
12.6685	0.765
12.7097	0.77
12.7509	0.77
12.7921	0.772
12.8333	0.772
12.8746	0.768
12.9158	0.765
12.957	0.758
12.9982	0.748
13.0394	0.736
13.0807	0.722
13.1219	0.7
13.1631	0.675
13.2043	0.629
13.2455	0.562
13.2868	0.477
13.328	0.334
13.3692	0.196
13.4104	0.108
13.4516	0.134
13.4928	0.248
13.5341	0.379
13.5753	0.494
13.6165	0.553
13.6577	0.586
13.6989	0.6
13.7402	0.6
13.7814	0.589
13.8226	0.558
13.8638	0.529
13.905	0.462
13.9463	0.363
13.9875	0.229
14.0287	0.096
14.0699	0.025
14.1111	0.005
14.1523	0.022
14.1936	0.081
14.2348	0.158
14.276	0.222
14.3172	0.243
14.3584	0.236
14.3997	0.201
14.4409	0.151
14.4821	0.118
14.5233	0.112
14.5645	0.139
14.6058	0.187
14.647	0.256
14.6882	0.329
14.7294	0.382
14.7706	0.418
14.8119	0.431
14.8531	0.434
14.8943	0.439
14.9355	0.441
14.9767	0.443
15.0179	0.444
15.0592	0.443
15.1004	0.439
15.1416	0.439
15.1828	0.437
15.224	0.439
15.2653	0.436
15.3065	0.432
15.3477	0.432
15.3889	0.432
15.4301	0.434
15.4714	0.431
15.5126	0.429
15.5538	0.425
15.595	0.425
15.6362	0.424
15.6774	0.424
15.7187	0.424
15.7599	0.422
15.8011	0.422
15.8423	0.424
15.8835	0.424
15.9248	0.425
