Infrared Spectrum: 4,4'-Dicyanobiphenyl
Formula: C 14 H 8 N 2
CAS: 1591-30-6
State: gas
Origin: EPA-IR VAPOR PHASE LIBRARY
1/CM	ABSORBANCE
549.8	0.00515
559.445	0.00541
569.09	0.00285
578.734	0.001123
588.379	0.0006518
598.024	0.0009373
607.669	0.0006087
617.313	0.0006805
626.958	0.0005414
636.603	0.0006728
646.248	0.0009409
655.893	0.0008137
665.537	0.0006339
675.182	0.0008206
684.827	0.0005618
694.472	0.0005447
704.116	0.0008088
713.761	0.0007835
723.406	0.0009652
733.051	0.0007599
742.695	0.0005699
752.34	0.0006517
761.985	0.0008762
771.63	0.0007759
781.275	0.0010977
790.919	0.0009152
800.564	0.00135
810.209	0.00462
819.854	0.01204
829.498	0.01374
839.143	0.00711
848.788	0.00358
858.433	0.00263
868.078	0.0013
877.722	0.000393
887.367	0.0005725
897.012	0.0005024
906.657	0.0006467
916.301	0.000563
925.946	0.000772
935.591	0.0007587
945.236	0.0006259
954.88	0.0006491
964.525	0.0003258
974.17	0.0004937
983.815	0.0003695
993.46	0.0009437
1003.1	0.00386
1012.75	0.00276
1022.39	0.00175
1032.04	0.0010832
1041.68	0.0006115
1051.33	0.0006258
1060.97	0.000275
1070.62	0.00020166
1080.26	0.001001
1089.91	0.0007632
1099.55	0.0013
1109.2	0.0010046
1118.84	0.0006584
1128.49	0.0007501
1138.13	0.0005889
1147.78	0.0004175
1157.42	0.00020812
1167.07	0.0002527
1176.71	0.0006122
1186.36	0.0003794
1196	0.0008197
1205.64	0.00123
1215.29	0.0008681
1224.93	0.0011171
1234.58	0.0011014
1244.22	0.0009034
1253.87	0.0010226
1263.51	0.0011028
1273.16	0.0009407
1282.8	0.0008473
1292.45	0.000844
1302.09	0.0009502
1311.74	0.0008848
1321.38	0.0005043
1331.03	0.0005616
1340.67	0.00055
1350.32	0.0006527
1359.96	0.000783
1369.61	0.0008634
1379.25	0.00139
1388.9	0.00187
1398.54	0.00189
1408.18	0.00139
1417.83	0.0008545
1427.47	0.0005606
1437.12	0.0004473
1446.76	0.000412
1456.41	0.0004308
1466.05	0.0005005
1475.7	0.00118
1485.34	0.00668
1494.99	0.01085
1504.63	0.00237
1514.28	0.00148
1523.92	0.0008505
1533.57	0.0004771
1543.21	0.0004422
1552.86	0.0004451
1562.5	0.0005436
1572.15	0.000481
1581.79	0.0006196
1591.44	0.00133
1601.08	0.00362
1610.73	0.00423
1620.37	0.00139
1630.01	0.0007357
1639.66	0.0006121
1649.3	0.0007617
1658.95	0.00087
1668.59	0.0007905
1678.24	0.0007937
1687.88	0.000838
1697.53	0.0005965
1707.17	0.0004433
1716.82	0.0003052
1726.46	0.0003222
1736.11	0.0003044
1745.75	0.0003986
1755.4	0.0004016
1765.04	0.0004463
1774.69	0.0005869
1784.33	0.0007966
1793.98	0.0010809
1803.62	0.0007958
1813.27	0.000445
1822.91	0.0004325
1832.55	0.0003463
1842.2	0.0004033
1851.84	0.0003609
1861.49	0.0004085
1871.13	0.0003115
1880.78	0.0004441
1890.42	0.0004714
1900.07	0.0007388
1909.71	0.0011493
1919.36	0.0011069
1929	0.0008814
1938.65	0.0005088
1948.29	0.0004016
1957.94	0.0003392
1967.58	0.0003801
1977.23	0.000364
1986.87	0.0003222
1996.52	0.0003066
2006.16	0.0003814
2015.81	0.0002749
2025.45	0.0002594
2035.1	0.0003369
2044.74	0.0003043
2054.38	0.0003606
2064.03	0.000369
2073.67	0.000326
2083.32	0.0003629
2092.96	0.0003075
2102.61	0.0002991
2112.25	0.0002718
2121.9	0.0002886
2131.54	0.0003188
2141.19	0.0003174
2150.83	0.0003141
2160.48	0.000287
2170.12	0.0002984
2179.77	0.0003897
2189.41	0.0002741
2199.06	0.0003287
2208.7	0.0004578
2218.35	0.000946
2227.99	0.00428
2237.64	0.00507
2247.28	0.000626
2256.92	0.0003693
2266.57	0.0004065
2276.21	0.0003822
2285.86	0.0004097
2295.5	0.0004424
2305.15	0.0003543
2314.79	0.0004003
2324.44	0.0004152
2334.08	0.0003315
2343.73	0.000314
2353.37	0.0003839
2363.02	0.0004819
2372.66	0.0003465
2382.31	0.000309
2391.95	0.0003031
2401.6	0.00023324
2411.24	0.0004196
2420.89	0.0003852
2430.53	0.0003157
2440.18	0.0003391
2449.82	0.0003174
2459.47	0.00019447
2469.11	0.0004381
2478.75	0.0003439
2488.4	0.0003731
2498.04	0.00024814
2507.69	0.0003396
2517.33	0.0004273
2526.98	0.0003817
2536.62	0.0002533
2546.27	0.0003581
2555.91	0.0003937
2565.56	0.0002774
2575.2	0.0003057
2584.85	0.0002537
2594.49	0.0003198
2604.14	0.0004213
2613.78	0.0004216
2623.43	0.000425
2633.07	0.0003424
2642.72	0.000299
2652.36	0.00016203
2662.01	0.0002
2671.65	0.00017534
2681.29	0.00018668
2690.94	0.0002788
2700.58	0.0003627
2710.23	0.0004284
2719.87	0.00019996
2729.52	0.0003131
2739.16	0.0003074
2748.81	0.0002148
2758.45	0.0002635
2768.1	0.00019715
2777.74	0.0004997
2787.39	0.0003186
2797.03	0.0003532
2806.68	0.0003622
2816.32	0.0003654
2825.97	0.0003365
2835.61	0.0003072
2845.26	0.0003591
2854.9	0.0003435
2864.55	0.0002521
2874.19	0.000366
2883.84	0.0003979
2893.48	0.00017798
2903.12	0.000256
2912.77	0.0002649
2922.41	0.00022442
2932.06	0.000156834
2941.7	0.00022497
2951.35	0.0003479
2960.99	0.0002896
2970.64	0.00019245
2980.28	0.0003326
2989.93	0.0004208
2999.57	0.000279
3009.22	0.0003809
3018.86	0.0004508
3028.51	0.0007295
3038.15	0.00144
3047.8	0.00262
3057.44	0.00116
3067.09	0.0007627
3076.73	0.001046
3086.38	0.00153
3096.02	0.00143
3105.67	0.0012
3115.31	0.0007019
3124.95	0.0004854
3134.6	0.0003799
3144.24	0.0003965
3153.89	0.0003944
3163.53	0.0002965
3173.18	0.00022715
3182.82	0.00020789
3192.47	0.0002788
3202.11	0.0002655
3211.76	0.00022571
3221.4	0.0003194
3231.05	0.00017152
3240.69	0.00019733
3250.34	0.0002464
3259.98	0.0003768
3269.63	0.00016322
3279.27	0.0001769
3288.92	0.0004194
3298.56	0.00021802
3308.21	0.0002727
3317.85	0.0002607
3327.49	0.0001222
3337.14	0.0002913
3346.78	0.0002887
3356.43	0.00016408
3366.07	0.0003342
3375.72	0.0003715
3385.36	0.00019763
3395.01	0.000327
3404.65	0.0003802
3414.3	0.000445
3423.94	0.0005429
3433.59	0.00021444
3443.23	0.00019268
3452.88	0.0002959
3462.52	0.0003523
3472.17	0.0002867
3481.81	0.000154543
3491.46	0.0003839
3501.1	0.00021534
3510.75	0.0002955
3520.39	0.0003295
3530.04	0.0002946
3539.68	0.00020177
3549.32	0.00020323
3558.97	0.0003691
3568.61	0.0003026
3578.26	0.0003247
3587.9	0.00016534
3597.55	0.0003255
3607.19	0.0003096
3616.84	0.0003263
3626.48	0.00024466
3636.13	0.00019555
3645.77	0.000367
3655.42	0.0004234
3665.06	0.0002615
3674.71	0.00022006
3684.35	0.0003397
3694	0.0003731
3703.64	0.0004014
3713.29	0.00021064
3722.93	0.000309
3732.58	0.0003633
3742.22	0.0003239
3751.86	0.0002896
3761.51	0.0002711
3771.15	0.0002604
3780.8	0.0003882
3790.44	0.0002734
3800.09	0.00021505
3809.73	0.0002992
3819.38	0.0002683
3829.02	0.0003179
3838.67	0.00022259
3848.31	0.000364
3857.96	0.0003039
3867.6	0.0004244
3877.25	0.0001347
3886.89	0.0003708
3896.54	0.0002393
3906.18	0.00016215
3915.83	0.00024796
3925.47	0.00016257
3935.12	0.0003357
3944.76	0.0003012
3954.41	0.00024715
3964.05	0.0004007
3973.69	0.0003054
3983.34	0.00022753
3992.98	0.00014412
