Infrared Spectrum: 2,3-Dimethylphenylisocyanate
Formula: C 9 H 9 N O
CAS: 1591-99-7
State: gas
Origin: EPA-IR VAPOR PHASE LIBRARY
1/CM	ABSORBANCE
549.8	0.0020082
559.445	0.0037382
569.09	0.0061782
578.734	0.0105582
588.379	0.0137182
598.024	0.0116182
607.669	0.0101682
617.313	0.0089782
626.958	0.0074282
636.603	0.0055682
646.248	0.0045182
655.893	0.0035282
665.537	0.0031282
675.182	0.0040782
684.827	0.0049882
694.472	0.0070582
704.116	0.0117582
713.761	0.0072482
723.406	0.0037582
733.051	0.0021582
742.695	0.0023082
752.34	0.0052282
761.985	0.0177082
771.63	0.0361082
781.275	0.0272282
790.919	0.0117182
800.564	0.0040682
810.209	0.0037982
819.854	0.0024782
829.498	0.0014282
839.143	0.0011882
848.788	0.0026982
858.433	0.0063182
868.078	0.0064082
877.722	0.0020182
887.367	0.0011082
897.012	0.0004864
906.657	0.0004408
916.301	0.0004492
925.946	0.0004911
935.591	0.0006289
945.236	0.0006942
954.88	0.0011582
964.525	0.0021082
974.17	0.0037782
983.815	0.0057482
993.46	0.0059082
1003.1	0.0057082
1012.75	0.0074982
1022.39	0.0124382
1032.04	0.0191582
1041.68	0.0181882
1051.33	0.0119082
1060.97	0.0081682
1070.62	0.0072082
1080.26	0.0094282
1089.91	0.0087482
1099.55	0.0048282
1109.2	0.0022082
1118.84	0.0015182
1128.49	0.0012082
1138.13	0.0015182
1147.78	0.0024082
1157.42	0.0034682
1167.07	0.0038582
1176.71	0.0070682
1186.36	0.0080082
1196	0.0064582
1205.64	0.0078282
1215.29	0.0061582
1224.93	0.0025082
1234.58	0.0022782
1244.22	0.0024782
1253.87	0.0025982
1263.51	0.0019382
1273.16	0.0021082
1282.8	0.0019582
1292.45	0.0015782
1302.09	0.0014782
1311.74	0.0017382
1321.38	0.0018582
1331.03	0.0017882
1340.67	0.0016882
1350.32	0.0016982
1359.96	0.0018982
1369.61	0.0024682
1379.25	0.0035082
1388.9	0.0041982
1398.54	0.0037482
1408.18	0.0030482
1417.83	0.0047682
1427.47	0.0074182
1437.12	0.0096482
1446.76	0.0129682
1456.41	0.0155082
1466.05	0.0171982
1475.7	0.0205582
1485.34	0.0279782
1494.99	0.0325482
1504.63	0.0293182
1514.28	0.0198682
1523.92	0.0107882
1533.57	0.0076382
1543.21	0.0079782
1552.86	0.0108982
1562.5	0.0182782
1572.15	0.0255682
1581.79	0.0292582
1591.44	0.0303082
1601.08	0.0243982
1610.73	0.0139282
1620.37	0.0060782
1630.01	0.0030682
1639.66	0.0021182
1649.3	0.0020982
1658.95	0.0021982
1668.59	0.0019182
1678.24	0.0012682
1687.88	0.0007684
1697.53	0.000483
1707.17	0.0004792
1716.82	0.0004977
1726.46	0.0005789
1736.11	0.0006254
1745.75	0.000678
1755.4	0.0010145
1765.04	0.0013482
1774.69	0.0012282
1784.33	0.0006353
1793.98	0.0004105
1803.62	0.0004074
1813.27	0.0005136
1822.91	0.0006348
1832.55	0.0012682
1842.2	0.0016682
1851.84	0.0012082
1861.49	0.0007056
1871.13	0.0006304
1880.78	0.0006312
1890.42	0.0009035
1900.07	0.0013882
1909.71	0.0021282
1919.36	0.0021182
1929	0.0011882
1938.65	0.0005701
1948.29	0.0004504
1957.94	0.0003752
1967.58	0.0005551
1977.23	0.0006338
1986.87	0.0005883
1996.52	0.0006727
2006.16	0.0006858
2015.81	0.0007191
2025.45	0.0009147
2035.1	0.0009928
2044.74	0.0012982
2054.38	0.0015082
2064.03	0.0021182
2073.67	0.0027082
2083.32	0.0034082
2092.96	0.0043882
2102.61	0.0056182
2112.25	0.0066082
2121.9	0.0073282
2131.54	0.0082282
2141.19	0.0099482
2150.83	0.0133882
2160.48	0.0184482
2170.12	0.0248982
2179.77	0.0308482
2189.41	0.0352082
2199.06	0.0406582
2208.7	0.0503482
2218.35	0.0635482
2227.99	0.0782082
2237.64	0.101338
2247.28	0.156238
2256.92	0.288038
2266.57	0.533858
2276.21	0.715328
2285.86	0.601758
2295.5	0.351708
2305.15	0.189038
2314.79	0.119048
2324.44	0.0784982
2334.08	0.0568582
2343.73	0.0500282
2353.37	0.0533882
2363.02	0.0611482
2372.66	0.0544082
2382.31	0.0368682
2391.95	0.0220882
2401.6	0.0136582
2411.24	0.0092582
2420.89	0.0070382
2430.53	0.0061182
2440.18	0.0058782
2449.82	0.0050882
2459.47	0.0038382
2469.11	0.0027382
2478.75	0.0019482
2488.4	0.0015682
2498.04	0.0013682
2507.69	0.0012182
2517.33	0.0012182
2526.98	0.0011682
2536.62	0.0011182
2546.27	0.0010241
2555.91	0.00093
2565.56	0.0009744
2575.2	0.0009764
2584.85	0.0007921
2594.49	0.0007026
2604.14	0.0006073
2613.78	0.0005594
2623.43	0.0005229
2633.07	0.0006161
2642.72	0.0005959
2652.36	0.0006293
2662.01	0.0007855
2671.65	0.0008055
2681.29	0.0009425
2690.94	0.0012482
2700.58	0.0015582
2710.23	0.0020682
2719.87	0.0020282
2729.52	0.0019582
2739.16	0.0017882
2748.81	0.0015682
2758.45	0.0011882
2768.1	0.0011882
2777.74	0.0011282
2787.39	0.0012282
2797.03	0.0013682
2806.68	0.0014682
2816.32	0.0017082
2825.97	0.0018982
2835.61	0.0025082
2845.26	0.0032582
2854.9	0.0048282
2864.55	0.0075282
2874.19	0.0104682
2883.84	0.0108582
2893.48	0.0099682
2903.12	0.0101682
2912.77	0.0120182
2922.41	0.0171282
2932.06	0.0236482
2941.7	0.0247982
2951.35	0.0211282
2960.99	0.0174482
2970.64	0.0144682
2980.28	0.0139382
2989.93	0.0118182
2999.57	0.0089082
3009.22	0.0081582
3018.86	0.0095882
3028.51	0.0108482
3038.15	0.0108682
3047.8	0.0119782
3057.44	0.0154582
3067.09	0.0183482
3076.73	0.0156982
3086.38	0.0095982
3096.02	0.0054482
3105.67	0.0033282
3115.31	0.0026782
3124.95	0.0025882
3134.6	0.0027582
3144.24	0.0025282
3153.89	0.0018582
3163.53	0.0012582
3173.18	0.0008475
3182.82	0.0005212
3192.47	0.0003974
3202.11	0.0004144
3211.76	0.00015061
3221.4	0.0003023
3231.05	0.0003601
3240.69	0.0002733
3250.34	0.0003001
3259.98	0.0004497
3269.63	0.0004915
3279.27	0.0005529
3288.92	0.0006835
3298.56	0.0010563
3308.21	0.0012482
3317.85	0.0012982
3327.49	0.0009509
3337.14	0.0006387
3346.78	0.0005421
3356.43	0.0007033
3366.07	0.0006067
3375.72	0.0004807
3385.36	0.0004579
3395.01	0.0006188
3404.65	0.0005424
3414.3	0.0008324
3423.94	0.0010631
3433.59	0.0013982
3443.23	0.0015482
3452.88	0.0016982
3462.52	0.0017882
3472.17	0.0021182
3481.81	0.0022282
3491.46	0.0016882
3501.1	0.0012682
3510.75	0.0008982
3520.39	0.0007189
3530.04	0.0007715
3539.68	0.0007328
3549.32	0.0005935
3558.97	0.0006003
3568.61	0.0005116
3578.26	0.0008897
3587.9	0.0007036
3597.55	0.000832
3607.19	0.0009705
3616.84	0.0010782
3626.48	0.0012282
3636.13	0.0013482
3645.77	0.0015982
3655.42	0.0020282
3665.06	0.0022882
3674.71	0.0026382
3684.35	0.0028282
3694	0.0028082
3703.64	0.0027182
3713.29	0.0021982
3722.93	0.0018282
3732.58	0.0017682
3742.22	0.0015882
3751.86	0.0017482
3761.51	0.0019882
3771.15	0.0024082
3780.8	0.0021682
3790.44	0.0018182
3800.09	0.0014682
3809.73	0.0013082
3819.38	0.0012782
3829.02	0.0009023
3838.67	0.0008755
3848.31	0.0006474
3857.96	0.0007618
3867.6	0.0006713
3877.25	0.0005955
3886.89	0.0007178
3896.54	0.0004683
3906.18	0.0002203
3915.83	0.0004202
3925.47	0.00022
3935.12	0.0002387
3944.76	0.0001696
3954.41	0.0002862
3964.05	0.00012925
3973.69	0.00013482
3983.34	0.00014524
3992.98	0.00013371
