Infrared Spectrum: 2-Bromophenyl isocyanate
Formula: C 7 H 4 Br N O
CAS: 1592-00-3
State: gas
Origin: EPA-IR VAPOR PHASE LIBRARY
1/CM	ABSORBANCE
549.8	0.005735
559.445	0.008795
569.09	0.011435
578.734	0.012955
588.379	0.017545
598.024	0.026255
607.669	0.025605
617.313	0.019195
626.958	0.014835
636.603	0.013555
646.248	0.016015
655.893	0.017315
665.537	0.011195
675.182	0.006425
684.827	0.004925
694.472	0.005375
704.116	0.005605
713.761	0.004475
723.406	0.006195
733.051	0.025285
742.695	0.079145
752.34	0.117165
761.985	0.053535
771.63	0.018575
781.275	0.013325
790.919	0.008665
800.564	0.004155
810.209	0.002615
819.854	0.002425
829.498	0.002825
839.143	0.002635
848.788	0.002845
858.433	0.001835
868.078	0.0010767
877.722	0.001315
887.367	0.001205
897.012	0.0008672
906.657	0.0006504
916.301	0.0004798
925.946	0.001595
935.591	0.004005
945.236	0.002905
954.88	0.001435
964.525	0.001295
974.17	0.0011142
983.815	0.001215
993.46	0.001885
1003.1	0.002665
1012.75	0.009485
1022.39	0.029865
1032.04	0.051595
1041.68	0.045565
1051.33	0.017105
1060.97	0.004115
1070.62	0.002445
1080.26	0.002165
1089.91	0.002865
1099.55	0.007455
1109.2	0.016965
1118.84	0.019945
1128.49	0.013855
1138.13	0.014355
1147.78	0.015695
1157.42	0.015875
1167.07	0.015195
1176.71	0.010415
1186.36	0.006435
1196	0.004325
1205.64	0.003375
1215.29	0.002615
1224.93	0.002545
1234.58	0.002895
1244.22	0.003725
1253.87	0.007535
1263.51	0.008105
1273.16	0.004645
1282.8	0.002965
1292.45	0.001915
1302.09	0.001545
1311.74	0.001265
1321.38	0.0010676
1331.03	0.0009617
1340.67	0.0009386
1350.32	0.000947
1359.96	0.001315
1369.61	0.002365
1379.25	0.002845
1388.9	0.002505
1398.54	0.003745
1408.18	0.004825
1417.83	0.009285
1427.47	0.015185
1437.12	0.019245
1446.76	0.023845
1456.41	0.019825
1466.05	0.013225
1475.7	0.015515
1485.34	0.022955
1494.99	0.035525
1504.63	0.056475
1514.28	0.078095
1523.92	0.062185
1533.57	0.028165
1543.21	0.013975
1552.86	0.012435
1562.5	0.014145
1572.15	0.019625
1581.79	0.042885
1591.44	0.060855
1601.08	0.036875
1610.73	0.009765
1620.37	0.003715
1630.01	0.002275
1639.66	0.001605
1649.3	0.0011084
1658.95	0.0010009
1668.59	0.001335
1678.24	0.002475
1687.88	0.002715
1697.53	0.002085
1707.17	0.001955
1716.82	0.001645
1726.46	0.001125
1736.11	0.0008677
1745.75	0.0007818
1755.4	0.0007778
1765.04	0.0010251
1774.69	0.001915
1784.33	0.003425
1793.98	0.002935
1803.62	0.001655
1813.27	0.002085
1822.91	0.002295
1832.55	0.001425
1842.2	0.0008914
1851.84	0.0008439
1861.49	0.001205
1871.13	0.002055
1880.78	0.002025
1890.42	0.001965
1900.07	0.003815
1909.71	0.004125
1919.36	0.002415
1929	0.002735
1938.65	0.003905
1948.29	0.002865
1957.94	0.001225
1967.58	0.0011185
1977.23	0.001145
1986.87	0.001295
1996.52	0.001475
2006.16	0.001625
2015.81	0.001715
2025.45	0.002075
2035.1	0.002475
2044.74	0.002835
2054.38	0.003345
2064.03	0.003815
2073.67	0.004375
2083.32	0.005125
2092.96	0.005755
2102.61	0.006375
2112.25	0.008055
2121.9	0.009965
2131.54	0.012285
2141.19	0.015725
2150.83	0.021505
2160.48	0.028195
2170.12	0.036515
2179.77	0.047935
2189.41	0.059365
2199.06	0.072165
2208.7	0.089395
2218.35	0.107795
2227.99	0.132425
2237.64	0.189115
2247.28	0.335695
2256.92	0.642255
2266.57	0.932055
2276.21	0.904065
2285.86	0.715665
2295.5	0.547815
2305.15	0.359495
2314.79	0.211805
2324.44	0.136505
2334.08	0.102605
2343.73	0.081385
2353.37	0.072225
2363.02	0.073765
2372.66	0.068235
2382.31	0.051865
2391.95	0.034945
2401.6	0.022245
2411.24	0.014105
2420.89	0.009665
2430.53	0.007245
2440.18	0.005765
2449.82	0.004935
2459.47	0.004665
2469.11	0.004555
2478.75	0.004545
2488.4	0.003945
2498.04	0.003085
2507.69	0.002555
2517.33	0.002405
2526.98	0.002525
2536.62	0.002855
2546.27	0.002925
2555.91	0.003035
2565.56	0.002765
2575.2	0.002245
2584.85	0.001835
2594.49	0.001735
2604.14	0.001475
2613.78	0.001295
2623.43	0.0011212
2633.07	0.0009162
2642.72	0.000802
2652.36	0.0008658
2662.01	0.0009919
2671.65	0.0011008
2681.29	0.001225
2690.94	0.001255
2700.58	0.001575
2710.23	0.001695
2719.87	0.001815
2729.52	0.001735
2739.16	0.002055
2748.81	0.002145
2758.45	0.002005
2768.1	0.001975
2777.74	0.001825
2787.39	0.001565
2797.03	0.001405
2806.68	0.001405
2816.32	0.001175
2825.97	0.001295
2835.61	0.001425
2845.26	0.001365
2854.9	0.001425
2864.55	0.001525
2874.19	0.001865
2883.84	0.002155
2893.48	0.002435
2903.12	0.002615
2912.77	0.002215
2922.41	0.002215
2932.06	0.002315
2941.7	0.002135
2951.35	0.001755
2960.99	0.001535
2970.64	0.001465
2980.28	0.001595
2989.93	0.001685
2999.57	0.002115
3009.22	0.002825
3018.86	0.004035
3028.51	0.005115
3038.15	0.005605
3047.8	0.007205
3057.44	0.012075
3067.09	0.022835
3076.73	0.025735
3086.38	0.015735
3096.02	0.007515
3105.67	0.003945
3115.31	0.002445
3124.95	0.002035
3134.6	0.001995
3144.24	0.001375
3153.89	0.0009306
3163.53	0.0005537
3173.18	0.0004749
3182.82	0.0004938
3192.47	0.0002679
3202.11	0.0001039
3211.76	0.0002643
3221.4	7.55e-05
3231.05	0.00022115
3240.69	9e-05
3250.34	0.0002573
3259.98	0.0003632
3269.63	0.0003119
3279.27	0.0006166
3288.92	0.0005577
3298.56	0.0010352
3308.21	0.001295
3317.85	0.001315
3327.49	0.001415
3337.14	0.001465
3346.78	0.001325
3356.43	0.001505
3366.07	0.001735
3375.72	0.002425
3385.36	0.003015
3395.01	0.003565
3404.65	0.004315
3414.3	0.005635
3423.94	0.006045
3433.59	0.005775
3443.23	0.004455
3452.88	0.003295
3462.52	0.002295
3472.17	0.001915
3481.81	0.001395
3491.46	0.001125
3501.1	0.001245
3510.75	0.001325
3520.39	0.001285
3530.04	0.001415
3539.68	0.001375
3549.32	0.001245
3558.97	0.001235
3568.61	0.001275
3578.26	0.001255
3587.9	0.001275
3597.55	0.001225
3607.19	0.001395
3616.84	0.001405
3626.48	0.001495
3636.13	0.002095
3645.77	0.002155
3655.42	0.002775
3665.06	0.003445
3674.71	0.004275
3684.35	0.004885
3694	0.004885
3703.64	0.004495
3713.29	0.003785
3722.93	0.003195
3732.58	0.002645
3742.22	0.002365
3751.86	0.002345
3761.51	0.003015
3771.15	0.003405
3780.8	0.003355
3790.44	0.003125
3800.09	0.002965
3809.73	0.002645
3819.38	0.002055
3829.02	0.001985
3838.67	0.001565
3848.31	0.001515
3857.96	0.001205
3867.6	0.001275
3877.25	0.0008942
3886.89	0.000801
3896.54	0.0006618
3906.18	0.0006928
3915.83	0.0005534
3925.47	0.0004089
3935.12	0.0005008
3944.76	0.0005561
3954.41	0.0004751
3964.05	0.0003339
3973.69	0.00019228
3983.34	0.0004254
3992.98	0.0006033
