Infrared Spectrum: 2-Naphthalenemethanol
Formula: C 11 H 10 O
CAS: 1592-38-7
State: gas
Instrument: HP-GC/MS/IRD
Origin: NIST Mass Spectrometry Data Center
1/CM	ABSORBANCE
550	0.0005733
562	0.0003537
574	0.0001116
586	0.0001125
598	7.47e-05
610	0.0002187
622	0.0004257
634	0.000153
646	7.83e-05
658	7.11e-05
670	9.09e-05
682	0.0001116
694	0.0002493
706	0.0006777
718	0.0016101
730	0.003339
742	0.0059481
754	0.0040032
766	0.0015696
778	0.0009927
790	0.0017424
802	0.0046458
814	0.0060993
826	0.0028584
838	0.002538
850	0.0039762
862	0.0022077
874	0.0013509
886	0.0018792
898	0.001386
910	0.0007875
922	0.0008532
934	0.0013149
946	0.0022815
958	0.002628
970	0.0027171
982	0.002871
994	0.0034047
1006	0.0046701
1018	0.0071172
1030	0.009
1042	0.0064908
1054	0.003627
1066	0.0021285
1078	0.0013788
1090	0.0009027
1102	0.0009549
1114	0.0017793
1126	0.0022959
1138	0.001593
1150	0.0015633
1162	0.0023427
1174	0.0024291
1186	0.0017127
1198	0.0015786
1210	0.0015543
1222	0.0015705
1234	0.0015435
1246	0.0014562
1258	0.0016407
1270	0.0017496
1282	0.001296
1294	0.0010521
1306	0.0010224
1318	0.0011016
1330	0.00135
1342	0.0019467
1354	0.0028323
1366	0.0036648
1378	0.0042075
1390	0.00387
1402	0.0026001
1414	0.0016506
1426	0.0010719
1438	0.0008037
1450	0.0006282
1462	0.00072
1474	0.0008136
1486	0.0005778
1498	0.001089
1510	0.0015696
1522	0.0005076
1534	0.0002763
1546	0.000252
1558	0.0002421
1570	0.000297
1582	0.000432
1594	0.0007092
1606	0.0007227
1618	0.0004266
1630	0.0004167
1642	0.0003564
1654	0.0002448
1666	0.0002727
1678	0.0003645
1690	0.000432
1702	0.0003357
1714	0.0004545
1726	0.0004608
1738	0.0003546
1750	0.0004374
1762	0.0003933
1774	0.0003924
1786	0.0003861
1798	0.0002934
1810	0.0002565
1822	0.0002727
1834	0.0002088
1846	0.0001818
1858	0.0001233
1870	9.27e-05
1882	0.0001674
1894	0.0004086
1906	0.0005355
1918	0.0004437
1930	0.0004131
1942	0.0004509
1954	0.0001584
1966	5.49e-05
1978	3.78e-05
1990	4.5e-05
2002	5.67e-05
2014	6.48e-05
2026	7.2e-05
2038	6.93e-05
2050	7.56e-05
2062	6.75e-05
2074	4.23e-05
2086	4.77e-05
2098	3.06e-05
2110	3.15e-05
2122	1.53e-05
2134	1.8e-05
2146	9e-06
2158	1.17e-05
2170	3.06e-05
2182	2.34e-05
2194	1.8e-06
2206	3.06e-05
2218	2.16e-05
2230	0
2242	1.8e-06
2254	2.88e-05
2266	4.14e-05
2278	7.47e-05
2290	8.37e-05
2302	9.27e-05
2314	8.1e-05
2326	5.4e-05
2338	3.06e-05
2350	4.77e-05
2362	2.16e-05
2374	5.13e-05
2386	6.39e-05
2398	3.96e-05
2410	5.85e-05
2422	4.86e-05
2434	5.13e-05
2446	2.79e-05
2458	2.07e-05
2470	3.6e-05
2482	3.78e-05
2494	3.6e-05
2506	7.02e-05
2518	3.42e-05
2530	2.34e-05
2542	5.4e-06
2554	3.6e-06
2566	0
2578	1.71e-05
2590	1.71e-05
2602	1.98e-05
2614	1.53e-05
2626	4.32e-05
2638	5.31e-05
2650	5.85e-05
2662	4.68e-05
2674	7.29e-05
2686	9.72e-05
2698	9.63e-05
2710	0.000135
2722	0.000135
2734	0.0001296
2746	0.0001728
2758	0.0002196
2770	0.0002331
2782	0.0003186
2794	0.0003582
2806	0.0004212
2818	0.0005184
2830	0.0007398
2842	0.001071
2854	0.0015354
2866	0.0024066
2878	0.0035037
2890	0.0033426
2902	0.002718
2914	0.0025173
2926	0.0026622
2938	0.0027189
2950	0.0026118
2962	0.0021798
2974	0.0016587
2986	0.001395
2998	0.0014112
3010	0.0019395
3022	0.0027567
3034	0.0029268
3046	0.0046827
3058	0.0083592
3070	0.0075771
3082	0.0036171
3094	0.0017613
3106	0.0006777
3118	0.000333
3130	0.0001854
3142	0.0001638
3154	0.0001278
3166	0.0001404
3178	0.0001404
3190	7.65e-05
3202	5.22e-05
3214	3.6e-05
3226	4.23e-05
3238	7.38e-05
3250	4.68e-05
3262	1.8e-06
3274	4.59e-05
3286	7.02e-05
3298	2.16e-05
3310	4.5e-05
3322	3.51e-05
3334	6.57e-05
3346	9.09e-05
3358	8.01e-05
3370	9e-05
3382	0.0001089
3394	8.64e-05
3406	9.9e-05
3418	0.0001422
3430	0.0001656
3442	0.0001557
3454	0.0001638
3466	0.0001242
3478	0.0001422
3490	0.0001116
3502	0.0001512
3514	0.0001269
3526	0.0001755
3538	0.0001224
3550	0.0001116
3562	0.0001377
3574	0.0001827
3586	0.0001935
3598	0.0002583
3610	0.000315
3622	0.0005346
3634	0.0009882
3646	0.0017208
3658	0.0019656
3670	0.001512
3682	0.0009234
3694	0.0005931
3706	0.0003987
3718	0.0002673
3730	0.0002556
3742	0.0002241
3754	0.0002043
3766	0.0002088
3778	0.0002124
3790	0.0002214
3802	0.0002088
3814	0.0002169
3826	0.0002223
3838	0.0001998
