Infrared Spectrum: 5'-INOSINIC ACID, DIBUTYL ESTER
Formula: C18 H29 N4 O8 P
CAS: 15923-57-6
State: SOLID (1 mg / 650 mg KBr DISC)
Class: COBLENTZ III
Instrument: PERKIN-ELMER 221 (GRATING)
Instrument parameters: FILTER CHANGES AT 2490, 980 CM^-^1, GRATING FOR 4000-1428 CM^-^1, NaCl PRISM FOR 1428-650 CM^-^1
Sampling: TRANSMISSION
Resolution: 4
Origin: SOUTHERN RESEARCH INST.
1/CM	TRANSMITTANCE
603.974	0.607
613.577	0.596
623.179	0.575
632.782	0.6
642.385	0.563
651.987	0.533
661.59	0.588
671.193	0.649
680.795	0.645
690.398	0.622
700.001	0.605
709.603	0.59
719.206	0.56
728.809	0.577
738.411	0.585
748.014	0.587
757.617	0.634
767.219	0.621
776.822	0.6
786.425	0.577
796.027	0.504
805.63	0.572
815.233	0.46
824.835	0.426
834.438	0.457
844.041	0.485
853.643	0.485
863.246	0.479
872.849	0.47
882.451	0.469
892.054	0.456
901.657	0.417
911.259	0.413
920.862	0.443
930.465	0.527
940.067	0.555
949.67	0.437
959.273	0.35
968.875	0.312
978.478	0.255
988.081	0.233
997.683	0.223
1007.29	0.212
1016.89	0.19
1026.49	0.178
1036.09	0.187
1045.7	0.227
1055.3	0.261
1064.9	0.268
1074.5	0.29
1084.11	0.316
1093.71	0.335
1103.31	0.332
1112.92	0.32
1122.52	0.321
1132.12	0.332
1141.72	0.373
1151.33	0.416
1160.93	0.45
1170.53	0.515
1180.13	0.56
1189.74	0.617
1199.34	0.544
1208.94	0.402
1218.54	0.369
1228.15	0.354
1237.75	0.336
1247.35	0.328
1256.96	0.329
1266.56	0.335
1276.16	0.348
1285.76	0.386
1295.37	0.458
1304.97	0.496
1314.57	0.5
1324.17	0.515
1333.78	0.522
1343.38	0.491
1352.98	0.462
1362.58	0.478
1372.19	0.493
1381.79	0.47
1391.39	0.504
1401	0.548
1410.6	0.526
1420.2	0.492
1429.8	0.506
1439.41	0.529
1449.01	0.555
1458.61	0.513
1468.21	0.458
1477.82	0.475
1487.42	0.539
1497.02	0.619
1506.62	0.652
1516.23	0.585
1525.83	0.515
1535.43	0.611
1545.04	0.593
1554.64	0.447
1564.24	0.516
1573.84	0.615
1583.45	0.673
1593.05	0.381
1602.65	0.458
1612.25	0.604
1621.86	0.698
1631.46	0.727
1641.06	0.721
1650.66	0.675
1660.27	0.573
1669.87	0.405
1679.47	0.274
1689.08	0.224
1698.68	0.219
1708.28	0.218
1717.88	0.226
1727.49	0.272
1737.09	0.335
1746.69	0.4
1756.29	0.442
1765.9	0.488
1775.5	0.529
1785.1	0.562
1794.7	0.589
1804.31	0.615
1813.91	0.634
1823.51	0.652
1833.12	0.669
1842.72	0.686
1852.32	0.701
1861.92	0.709
1871.53	0.719
1881.13	0.726
1890.73	0.73
1900.33	0.734
1909.94	0.737
1919.54	0.738
1929.14	0.746
1938.74	0.751
1948.35	0.754
1957.95	0.76
1967.55	0.764
1977.16	0.772
1986.76	0.779
1996.36	0.787
2005.96	0.799
2015.57	0.806
2025.17	0.81
2034.77	0.812
2044.37	0.82
2053.98	0.832
2063.58	0.833
2073.18	0.835
2082.78	0.838
2092.39	0.84
2101.99	0.841
2111.59	0.838
2121.2	0.839
2130.8	0.843
2140.4	0.847
2150	0.849
2159.61	0.852
2169.21	0.855
2178.81	0.858
2188.41	0.859
2198.02	0.863
2207.62	0.865
2217.22	0.865
2226.82	0.865
2236.43	0.865
2246.03	0.865
2255.63	0.865
2265.24	0.867
2274.84	0.868
2284.44	0.869
2294.04	0.869
2303.65	0.866
2313.25	0.864
2322.85	0.862
2332.45	0.863
2342.06	0.863
2351.66	0.861
2361.26	0.86
2370.86	0.862
2380.47	0.865
2390.07	0.861
2399.67	0.862
2409.28	0.861
2418.88	0.859
2428.48	0.856
2438.08	0.853
2447.69	0.85
2457.29	0.847
2466.89	0.84
2476.49	0.835
2486.1	0.831
2495.7	0.827
2505.3	0.822
2514.9	0.82
2524.51	0.816
2534.11	0.811
2543.71	0.806
2553.32	0.798
2562.92	0.794
2572.52	0.782
2582.12	0.767
2591.73	0.757
2601.33	0.75
2610.93	0.742
2620.53	0.736
2630.14	0.731
2639.74	0.729
2649.34	0.723
2658.94	0.712
2668.55	0.705
2678.15	0.702
2687.75	0.696
2697.36	0.689
2706.96	0.684
2716.56	0.676
2726.16	0.668
2735.77	0.661
2745.37	0.654
2754.97	0.647
2764.57	0.645
2774.18	0.641
2783.78	0.626
2793.38	0.612
2802.98	0.599
2812.59	0.583
2822.19	0.575
2831.79	0.553
2841.4	0.52
2851	0.476
2860.6	0.437
2870.2	0.417
2879.81	0.422
2889.41	0.424
2899.01	0.399
2908.61	0.373
2918.22	0.354
2927.82	0.351
2937.42	0.354
2947.02	0.355
2956.63	0.328
2966.23	0.331
2975.83	0.358
2985.44	0.455
2995.04	0.496
3004.64	0.499
3014.24	0.496
3023.85	0.49
3033.45	0.48
3043.05	0.466
3052.65	0.459
3062.26	0.454
3071.86	0.451
3081.46	0.442
3091.06	0.431
3100.67	0.428
3110.27	0.426
3119.87	0.428
3129.48	0.43
3139.08	0.429
3148.68	0.428
3158.28	0.425
3167.89	0.422
3177.49	0.419
3187.09	0.417
3196.69	0.414
3206.3	0.411
3215.9	0.41
3225.5	0.406
3235.1	0.403
3244.71	0.402
3254.31	0.399
3263.91	0.398
3273.52	0.396
3283.12	0.396
3292.72	0.395
3302.32	0.392
3311.93	0.389
3321.53	0.388
3331.13	0.386
3340.73	0.384
3350.34	0.383
3359.94	0.382
3369.54	0.382
3379.14	0.384
3388.75	0.386
3398.35	0.388
3407.95	0.392
3417.56	0.4
3427.16	0.409
3436.76	0.416
3446.36	0.424
3455.97	0.433
3465.57	0.45
3475.17	0.471
3484.77	0.487
3494.38	0.497
3503.98	0.514
3513.58	0.529
3523.18	0.548
3532.79	0.567
3542.39	0.589
3551.99	0.611
3561.6	0.633
3571.2	0.656
3580.8	0.679
3590.4	0.7
3600.01	0.72
3609.61	0.739
3619.21	0.748
3628.81	0.757
3638.42	0.768
3648.02	0.779
3657.62	0.787
3667.22	0.798
3676.83	0.806
3686.43	0.81
3696.03	0.813
3705.64	0.817
3715.24	0.819
3724.84	0.82
3734.44	0.821
3744.05	0.823
3753.65	0.824
3763.25	0.825
3772.85	0.827
3782.46	0.828
3792.06	0.829
3801.66	0.829
3811.26	0.829
3820.87	0.829
3830.47	0.829
3840.07	0.83
3849.68	0.83
3859.28	0.83
3868.88	0.831
3878.48	0.831
3888.09	0.831
3897.69	0.831
3907.29	0.831
3916.89	0.831
3926.5	0.83
3936.1	0.828
3945.7	0.828
3955.3	0.827
3964.91	0.828
3974.51	0.828
3984.11	0.828
3993.72	0.828
4003.32	0.828
