Infrared Spectrum: Thiazyl trifluoride
Formula: F3 N S
CAS: 15930-75-3
State: GAS (40 mmHg, N2 ADDED, TOTAL PRESSURE 600 mmHg)
Class: COBLENTZ
Instrument: DOW KBr FOREPRISM-GRATING
Instrument parameters: GRATING CHANGED AT 5.0, 7.5, 15.0 MICRON
Sampling: TRANSMISSION
Path length: 5 CM
Resolution: 2
Origin: DOW CHEMICAL COMPANY
1/CM	TRANSMITTANCE
460	0.8325
469	0.8413
478	0.8444
487	0.8431
496	0.8263
505	0.7019
514	0.5369
523	0.4962
532	0.5853
541	0.4656
550	0.7664
559	0.8493
568	0.8551
577	0.8577
586	0.8598
595	0.8618
604	0.863
613	0.8611
622	0.8651
631	0.8688
640	0.869
649	0.8662
658	0.8592
667	0.8491
676	0.8408
685	0.8403
694	0.8274
703	0.815
712	0.8467
721	0.8504
730	0.8387
739	0.7842
748	0.4994
757	0.1877
766	0.0763
775	0.0382
784	0.0281
793	0.0566
802	0.008
811	0.0083
820	0.0099
829	0.015
838	0.2818
847	0.5747
856	0.6368
865	0.7354
874	0.7906
883	0.839
892	0.845
901	0.8458
910	0.846
919	0.8461
928	0.8332
937	0.8101
946	0.7883
955	0.805
964	0.7944
973	0.8287
982	0.8475
991	0.8521
1000	0.8447
1009	0.8285
1018	0.8207
1027	0.809
1036	0.8017
1045	0.8181
1054	0.8349
1063	0.8493
1072	0.8495
1081	0.8461
1090	0.8359
1099	0.8234
1108	0.8065
1117	0.7978
1126	0.7976
1135	0.7969
1144	0.8046
1153	0.8126
1162	0.8268
1171	0.8475
1180	0.851
1189	0.8651
1198	0.8691
1207	0.8697
1216	0.8647
1225	0.8549
1234	0.8386
1243	0.8165
1252	0.7818
1261	0.7872
1270	0.8012
1279	0.8248
1288	0.8447
1297	0.8547
1306	0.8583
1315	0.8591
1324	0.8583
1333	0.8538
1342	0.8478
1351	0.8421
1360	0.8362
1369	0.8328
1378	0.8375
1387	0.8375
1396	0.8364
1405	0.8375
1414	0.8346
1423	0.827
1432	0.8141
1441	0.8022
1450	0.7908
1459	0.7831
1468	0.7915
1477	0.7806
1486	0.7121
1495	0.6195
1504	0.2649
1513	0.1839
1522	0.0469
1531	0.1578
1540	0.2575
1549	0.503
1558	0.6482
1567	0.7808
1576	0.7649
1585	0.7815
1594	0.8204
1603	0.8182
1612	0.7868
1621	0.7381
1630	0.7126
1639	0.7468
1648	0.7848
1657	0.8394
1666	0.8465
1675	0.8463
1684	0.8483
1693	0.8501
1702	0.848
1711	0.8493
1720	0.8482
1729	0.8486
1738	0.8518
1747	0.8515
1756	0.8505
1765	0.85
1774	0.8502
1783	0.8511
1792	0.8525
1801	0.8539
1810	0.8548
1819	0.8545
1828	0.8536
1837	0.8518
1846	0.8481
1855	0.844
1864	0.8411
1873	0.8465
1882	0.8544
1891	0.8573
1900	0.8568
1909	0.8559
1918	0.8544
1927	0.8528
1936	0.8506
1945	0.849
1954	0.8503
1963	0.8525
1972	0.8543
1981	0.8563
1990	0.8575
1999	0.8593
2008	0.8606
2017	0.8602
2026	0.8597
2035	0.8596
2044	0.8601
2053	0.861
2062	0.8623
2071	0.8631
2080	0.8634
2089	0.8634
2098	0.8638
2107	0.864
2116	0.8639
2125	0.8633
2134	0.863
2143	0.8618
2152	0.8608
2161	0.8607
2170	0.8607
2179	0.8611
2188	0.8623
2197	0.8635
2206	0.8647
2215	0.8656
2224	0.8655
2233	0.865
2242	0.8628
2251	0.8602
2260	0.8573
2269	0.853
2278	0.8487
2287	0.8455
2296	0.8477
2305	0.8515
2314	0.8564
2323	0.8599
2332	0.8602
2341	0.8574
2350	0.8562
2359	0.8614
2368	0.8671
2377	0.8696
2386	0.8698
2395	0.8694
2404	0.8691
2413	0.8693
2422	0.8694
2431	0.8693
2440	0.8691
2449	0.8689
2458	0.8688
2467	0.8684
2476	0.8681
2485	0.8675
2494	0.8677
2503	0.8681
2512	0.8684
2521	0.8687
2530	0.8691
2539	0.8692
2548	0.8693
2557	0.8694
2566	0.8693
2575	0.8692
2584	0.8691
2593	0.8689
2602	0.8689
2611	0.8688
2620	0.8687
2629	0.8687
2638	0.8688
2647	0.8688
2656	0.8689
2665	0.869
2674	0.8689
2683	0.8687
2692	0.8685
2701	0.8683
2710	0.868
2719	0.8677
2728	0.8674
2737	0.8671
2746	0.8668
2755	0.8663
2764	0.8653
2773	0.8644
2782	0.8634
2791	0.862
2800	0.8605
2809	0.8609
2818	0.8615
2827	0.8621
2836	0.8623
2845	0.8621
2854	0.862
2863	0.862
2872	0.862
2881	0.862
2890	0.862
2899	0.8621
2908	0.8625
2917	0.8627
2926	0.863
2935	0.8632
2944	0.8633
2953	0.8634
2962	0.8634
2971	0.8633
2980	0.8632
2989	0.8633
2998	0.8638
3007	0.8642
3016	0.8645
3025	0.8643
3034	0.8637
3043	0.8633
3052	0.8628
3061	0.8625
3070	0.862
3079	0.8614
3088	0.8611
3097	0.8609
3106	0.8608
3115	0.8609
3124	0.8611
3133	0.8612
3142	0.8614
3151	0.8616
3160	0.8624
3169	0.8632
3178	0.8641
3187	0.8655
3196	0.8668
3205	0.8681
3214	0.8685
3223	0.8686
3232	0.8687
3241	0.8688
3250	0.8687
3259	0.8685
3268	0.8684
3277	0.8682
3286	0.8681
3295	0.8681
3304	0.8682
3313	0.8683
3322	0.8684
3331	0.8688
3340	0.8693
3349	0.8696
3358	0.8701
3367	0.8706
3376	0.8712
3385	0.8718
3394	0.8724
3403	0.873
3412	0.8735
3421	0.8735
3430	0.8736
3439	0.8737
3448	0.8738
3457	0.874
3466	0.8742
3475	0.8744
3484	0.8746
3493	0.8748
3502	0.8752
3511	0.8755
3520	0.8762
3529	0.8766
3538	0.8768
3547	0.8771
3556	0.8767
3565	0.876
3574	0.8735
3583	0.8695
3592	0.863
3601	0.8571
3610	0.8567
3619	0.8665
3628	0.872
3637	0.8728
3646	0.873
3655	0.873
3664	0.8773
3673	0.8755
3682	0.8737
3691	0.8748
3700	0.8755
3709	0.8759
3718	0.8748
3727	0.8717
3736	0.8724
3745	0.8753
3754	0.8775
3763	0.8789
3772	0.8787
3781	0.8742
3790	0.8757
