Infrared Spectrum: 6-Chloropiperonal
Formula: C 8 H 5 Cl O 3
CAS: 15952-61-1
State: gas
Origin: EPA-IR VAPOR PHASE LIBRARY
1/CM	ABSORBANCE
549.9	0.000882
559.547	0.00045109
569.193	0.00044211
578.84	0.00044331
588.486	0.0005908
598.133	0.001917
607.779	0.002797
617.426	0.001447
627.072	0.0007375
636.719	0.0003706
646.365	0.000249
656.012	0.000239
665.658	0.000285
675.305	0.0005379
684.951	0.001259
694.598	0.001567
704.245	0.0008235
713.891	0.0006841
723.538	0.0012367
733.184	0.0008013
742.831	0.0003307
752.477	0.000265
762.124	0.000346
771.77	0.0008416
781.417	0.002417
791.063	0.002287
800.71	0.0010376
810.356	0.00051593
820.003	0.0005312
829.649	0.0008012
839.296	0.002367
848.943	0.004207
858.589	0.002727
868.236	0.002237
877.882	0.003057
887.529	0.003117
897.175	0.0013334
906.822	0.0007209
916.468	0.0011639
926.115	0.002787
935.761	0.005557
945.408	0.006097
955.054	0.003067
964.701	0.001507
974.347	0.002987
983.994	0.008087
993.64	0.008697
1003.29	0.002827
1012.93	0.002337
1022.58	0.003907
1032.23	0.007437
1041.87	0.011217
1051.52	0.011307
1061.17	0.008017
1070.81	0.004117
1080.46	0.002307
1090.11	0.002587
1099.75	0.005597
1109.4	0.009517
1119.05	0.007757
1128.69	0.003037
1138.34	0.00134
1147.99	0.0006469
1157.63	0.0008664
1167.28	0.0008937
1176.92	0.0008928
1186.57	0.0003525
1196.22	0.0008354
1205.86	0.002337
1215.51	0.005297
1225.16	0.009687
1234.8	0.022477
1244.45	0.040687
1254.1	0.027297
1263.74	0.005927
1273.39	0.001837
1283.04	0.0010027
1292.68	0.000643
1302.33	0.0007471
1311.98	0.0007305
1321.62	0.0010772
1331.27	0.002307
1340.92	0.003277
1350.56	0.002567
1360.21	0.001827
1369.86	0.002277
1379.5	0.004127
1389.15	0.007277
1398.79	0.012207
1408.44	0.020887
1418.09	0.012517
1427.73	0.002487
1437.38	0.001867
1447.03	0.003677
1456.67	0.012227
1466.32	0.029827
1475.97	0.032407
1485.61	0.020487
1495.26	0.009217
1504.91	0.006657
1514.55	0.005857
1524.2	0.002157
1533.85	0.0011295
1543.49	0.0008
1553.14	0.0005832
1562.79	0.00049194
1572.43	0.0006571
1582.08	0.0008781
1591.73	0.001577
1601.37	0.003467
1611.02	0.006617
1620.67	0.005747
1630.31	0.002797
1639.96	0.001275
1649.6	0.0007614
1659.25	0.0009466
1668.9	0.001427
1678.54	0.002587
1688.19	0.006857
1697.84	0.023547
1707.48	0.029957
1717.13	0.010827
1726.78	0.003727
1736.42	0.002077
1746.07	0.0009821
1755.72	0.000975
1765.36	0.0010796
1775.01	0.0009396
1784.66	0.0007817
1794.3	0.0005409
1803.95	0.0003628
1813.6	0.000261
1823.24	0.000281
1832.89	0.0003298
1842.54	0.0003427
1852.18	0.0003954
1861.83	0.0004951
1871.47	0.0005247
1881.12	0.0005797
1890.77	0.00041599
1900.41	0.00024
1910.06	0.000182
1919.71	0.000172
1929.35	0.000243
1939	0.00026
1948.65	0.000231
1958.29	0.000269
1967.94	0.000265
1977.59	0.0003253
1987.23	0.000294
1996.88	0.000216
2006.53	0.000222
2016.17	0.00025
2025.82	0.000237
2035.47	0.00021
2045.11	0.00024
2054.76	0.000245
2064.41	0.000258
2074.05	0.0003525
2083.7	0.00048154
2093.35	0.0005927
2102.99	0.00051314
2112.64	0.000306
2122.28	0.000241
2131.93	0.000218
2141.58	0.000191
2151.22	0.000205
2160.87	0.000193
2170.52	0.00016
2180.16	0.000254
2189.81	0.000254
2199.46	0.00024
2209.1	0.000242
2218.75	0.000254
2228.4	0.000253
2238.04	0.000241
2247.69	0.000232
2257.34	0.000239
2266.98	0.000244
2276.63	0.000242
2286.28	0.00023
2295.92	0.000273
2305.57	0.0003709
2315.22	0.0003892
2324.86	0.0003831
2334.51	0.000347
2344.16	0.000263
2353.8	0.000262
2363.45	0.000303
2373.09	0.000286
2382.74	0.000264
2392.39	0.000259
2402.03	0.000218
2411.68	0.000196
2421.33	0.000192
2430.97	0.000181
2440.62	0.000206
2450.27	0.000225
2459.91	0.000233
2469.56	0.000203
2479.21	0.000236
2488.85	0.00022
2498.5	0.000256
2508.15	0.000254
2517.79	0.000263
2527.44	0.000242
2537.09	0.000296
2546.73	0.000371
2556.38	0.000426808
2566.03	0.00049359
2575.67	0.0006473
2585.32	0.0007035
2594.96	0.0007328
2604.61	0.0006221
2614.26	0.00051632
2623.9	0.0003807
2633.55	0.00048738
2643.2	0.00049081
2652.84	0.00047527
2662.49	0.00049591
2672.14	0.0005347
2681.78	0.0006329
2691.43	0.0006689
2701.08	0.0008048
2710.72	0.0009409
2720.37	0.0009927
2730.02	0.0009994
2739.66	0.000878
2749.31	0.0008498
2758.96	0.0011121
2768.6	0.001697
2778.25	0.002037
2787.9	0.001677
2797.54	0.0012026
2807.19	0.0011559
2816.84	0.001245
2826.48	0.001183
2836.13	0.0013104
2845.77	0.001667
2855.42	0.002907
2865.07	0.006197
2874.71	0.006787
2884.36	0.004287
2894.01	0.003967
2903.65	0.003917
2913.3	0.003907
2922.95	0.003997
2932.59	0.003717
2942.24	0.002997
2951.89	0.002707
2961.53	0.002717
2971.18	0.002227
2980.83	0.001807
2990.47	0.001557
3000.12	0.0013351
3009.77	0.001487
3019.41	0.001867
3029.06	0.001597
3038.71	0.0010355
3048.35	0.0007514
3058	0.0006742
3067.64	0.0006706
3077.29	0.0007099
3086.94	0.0008077
3096.58	0.0007831
3106.23	0.00051228
3115.88	0.000336
3125.52	0.000177
3135.17	0.000238
3144.82	0.000242
3154.46	0.000278
3164.11	0.0002
3173.76	0.000171
3183.4	0.000112
3193.05	9.4e-05
3202.7	4.6e-05
3212.34	0.000211
3221.99	0.000314
3231.64	0.000108
3241.28	0.000203
3250.93	0.000118
3260.58	5.9e-05
3270.22	3.1e-05
3279.87	0.000201
3289.52	6.5e-05
3299.16	0.000115
3308.81	0.000109
3318.45	8.8e-05
3328.1	0.000184
3337.75	0.000164
3347.39	0.000245
3357.04	0.00016
3366.69	0.000172
3376.33	0.000317
3385.98	0.0007567
3395.63	0.00049003
3405.27	0.000281
3414.92	9.6e-05
3424.57	1.7e-05
3434.21	9.3e-05
3443.86	4.8e-05
3453.51	0.000216
3463.15	0.000108
3472.8	4.9e-05
3482.45	0.000124
3492.09	0.000238
3501.74	0.00017
3511.39	0.000201
3521.03	6.3e-05
3530.68	0.000161
3540.33	3.2e-05
3549.97	0.000171
3559.62	0.000246
3569.26	0.00013
3578.91	0.00021
3588.56	0.000166
3598.2	3.3e-05
3607.85	0.000167
3617.5	0.000197
3627.14	7.9e-05
3636.79	0.000191
3646.44	0.000134
3656.08	0.000299
3665.73	0.000194
3675.38	0.000186
3685.02	0.000146
3694.67	0.000204
3704.32	0.000163
3713.96	0.000219
3723.61	9.5e-05
3733.26	0.00022
3742.9	0.000205
3752.55	0.000238
3762.2	0.0003314
3771.84	0.00015
3781.49	0.000241
3791.13	0.000313
3800.78	0.00022
3810.43	0.0003305
3820.07	0.00023
3829.72	0.0003514
3839.37	0.000263
3849.01	0.000208
3858.66	0.000306
3868.31	0.000298
3877.95	0.000345
3887.6	0.0003973
3897.25	0.000318
3906.89	0.0003265
3916.54	0.0003173
3926.19	0.000387
3935.83	0.000313
3945.48	0.0003551
3955.13	0.000311
3964.77	0.0003956
3974.42	0.0003212
3984.07	0.00040853
3993.71	0.0003549
