Infrared Spectrum: 2-Chloro-5-methoxybenzimidazole
Formula: C 8 H 7 Cl N 2 O
CAS: 15965-54-5
State: gas
Origin: EPA-IR VAPOR PHASE LIBRARY
1/CM	ABSORBANCE
549.8	0.003601
559.445	0.002721
569.09	0.002261
578.734	0.001501
588.379	0.0012614
598.024	0.001431
607.669	0.001871
617.313	0.002841
626.958	0.003281
636.603	0.003091
646.248	0.001701
655.893	0.001911
665.537	0.0011348
675.182	0.0007583
684.827	0.0007734
694.472	0.0005773
704.116	0.0008704
713.761	0.000117
723.406	0.0003783
733.051	0.001198
742.695	0.002371
752.34	0.004211
761.985	0.004401
771.63	0.002161
781.275	0.002881
790.919	0.005531
800.564	0.008121
810.209	0.009301
819.854	0.011671
829.498	0.013241
839.143	0.013571
848.788	0.011991
858.433	0.009921
868.078	0.007861
877.722	0.004861
887.367	0.002411
897.012	0.001681
906.657	0.001831
916.301	0.0011832
925.946	0.001971
935.591	0.004251
945.236	0.004931
954.88	0.002941
964.525	0.003581
974.17	0.004491
983.815	0.003381
993.46	0.002881
1003.1	0.003531
1012.75	0.004961
1022.39	0.008531
1032.04	0.010881
1041.68	0.008431
1051.33	0.004861
1060.97	0.002341
1070.62	0.002181
1080.26	0.001591
1089.91	0.002161
1099.55	0.005511
1109.2	0.012871
1118.84	0.014391
1128.49	0.020651
1138.13	0.024491
1147.78	0.028471
1157.42	0.032291
1167.07	0.021011
1176.71	0.013921
1186.36	0.013731
1196	0.019981
1205.64	0.019211
1215.29	0.012871
1224.93	0.010161
1234.58	0.005891
1244.22	0.004851
1253.87	0.011021
1263.51	0.022231
1273.16	0.017771
1282.8	0.018341
1292.45	0.019611
1302.09	0.016181
1311.74	0.012361
1321.38	0.013151
1331.03	0.017681
1340.67	0.014861
1350.32	0.011571
1359.96	0.021801
1369.61	0.051491
1379.25	0.050541
1388.9	0.021241
1398.54	0.008111
1408.18	0.005671
1417.83	0.007821
1427.47	0.017621
1437.12	0.038391
1446.76	0.034891
1456.41	0.022791
1466.05	0.022031
1475.7	0.030821
1485.34	0.055261
1494.99	0.051451
1504.63	0.024281
1514.28	0.014111
1523.92	0.007561
1533.57	0.003611
1543.21	0.002421
1552.86	0.002151
1562.5	0.002821
1572.15	0.004261
1581.79	0.007111
1591.44	0.009841
1601.08	0.008611
1610.73	0.008791
1620.37	0.013681
1630.01	0.017731
1639.66	0.013401
1649.3	0.005221
1658.95	0.002701
1668.59	0.002131
1678.24	0.001811
1687.88	0.0013665
1697.53	0.001397
1707.17	0.0013961
1716.82	0.0013555
1726.46	0.0010582
1736.11	0.0011601
1745.75	0.0011673
1755.4	0.0011427
1765.04	0.0008021
1774.69	0.0009064
1784.33	0.0007531
1793.98	0.0008771
1803.62	0.0007137
1813.27	0.0007909
1822.91	0.0007317
1832.55	0.0009881
1842.2	0.0012623
1851.84	0.0011816
1861.49	0.0011439
1871.13	0.001441
1880.78	0.0011615
1890.42	0.0008709
1900.07	0.0007805
1909.71	0.0009236
1919.36	0.0008827
1929	0.0007177
1938.65	0.0009359
1948.29	0.0007363
1957.94	0.0009252
1967.58	0.0009265
1977.23	0.0009064
1986.87	0.0007138
1996.52	0.0006996
2006.16	0.0007383
2015.81	0.0008506
2025.45	0.0008796
2035.1	0.0010909
2044.74	0.0010901
2054.38	0.0012058
2064.03	0.0012042
2073.67	0.0010021
2083.32	0.0007431
2092.96	0.0007599
2102.61	0.000615
2112.25	0.00043404
2121.9	0.0006359
2131.54	0.0006122
2141.19	0.00047851
2150.83	0.0007852
2160.48	0.0007303
2170.12	0.0008032
2179.77	0.0006157
2189.41	0.0007828
2199.06	0.0005945
2208.7	0.0007082
2218.35	0.0009138
2227.99	0.0007072
2237.64	0.0007397
2247.28	0.0006892
2256.92	0.0005824
2266.57	0.0007629
2276.21	0.0005587
2285.86	0.0005519
2295.5	0.0006923
2305.15	0.0007371
2314.79	0.0006261
2324.44	0.0006132
2334.08	0.000681
2343.73	0.0008076
2353.37	0.0005956
2363.02	0.0006727
2372.66	0.0007177
2382.31	0.0008772
2391.95	0.0008608
2401.6	0.0008216
2411.24	0.0008092
2420.89	0.0007594
2430.53	0.0006346
2440.18	0.0008854
2449.82	0.0009261
2459.47	0.0007782
2469.11	0.0008519
2478.75	0.000778
2488.4	0.0009106
2498.04	0.0009258
2507.69	0.0009396
2517.33	0.0007538
2526.98	0.0009861
2536.62	0.0006955
2546.27	0.0008265
2555.91	0.0008611
2565.56	0.0005995
2575.2	0.000791
2584.85	0.0009969
2594.49	0.0009329
2604.14	0.0010303
2613.78	0.000982
2623.43	0.0007669
2633.07	0.0007389
2642.72	0.0008619
2652.36	0.0008677
2662.01	0.0011026
2671.65	0.0005031
2681.29	0.0007364
2690.94	0.0005604
2700.58	0.0007038
2710.23	0.0007608
2719.87	0.000616
2729.52	0.0009638
2739.16	0.0008627
2748.81	0.0009453
2758.45	0.0006642
2768.1	0.0010372
2777.74	0.0007994
2787.39	0.0010347
2797.03	0.0013681
2806.68	0.001641
2816.32	0.001821
2825.97	0.002711
2835.61	0.005391
2845.26	0.007321
2854.9	0.004551
2864.55	0.003191
2874.19	0.002761
2883.84	0.002951
2893.48	0.004121
2903.12	0.005031
2912.77	0.006131
2922.41	0.006541
2932.06	0.006611
2941.7	0.009481
2951.35	0.010421
2960.99	0.008191
2970.64	0.005831
2980.28	0.004811
2989.93	0.004861
2999.57	0.007201
3009.22	0.009051
3018.86	0.004411
3028.51	0.002571
3038.15	0.002521
3047.8	0.002871
3057.44	0.002611
3067.09	0.002891
3076.73	0.002861
3086.38	0.002891
3096.02	0.002521
3105.67	0.002221
3115.31	0.001379
3124.95	0.0011007
3134.6	0.0011312
3144.24	0.0007742
3153.89	0.000805
3163.53	0.0010974
3173.18	0.00040451
3182.82	0.0005111
3192.47	0.00091
3202.11	0.0007217
3211.76	0.000263
3221.4	0.00045462
3231.05	0.00046879
3240.69	0.0005621
3250.34	0.00046576
3259.98	0.00042478
3269.63	0.0006802
3279.27	0.0009085
3288.92	0.0007759
3298.56	0.0003799
3308.21	0.0009645
3317.85	0.0007245
3327.49	0.0006386
3337.14	0.000559
3346.78	0.0003237
3356.43	9.1e-05
3366.07	0.00048013
3375.72	0.000265
3385.36	0.00039
3395.01	0.00048525
3404.65	0.0005256
3414.3	0.0005362
3423.94	0.0003459
3433.59	0.0011643
3443.23	0.001288
3452.88	0.001691
3462.52	0.002441
3472.17	0.003511
3481.81	0.006151
3491.46	0.010951
3501.1	0.018811
3510.75	0.018171
3520.39	0.008111
3530.04	0.002911
3539.68	0.0012069
3549.32	0.0010333
3558.97	0.0008818
3568.61	0.0007104
3578.26	0.0008432
3587.9	0.00046995
3597.55	0.000679
3607.19	0.0004795
3616.84	0.0003461
3626.48	0.00040881
3636.13	0.00049893
3645.77	0.0003997
3655.42	0.00046078
3665.06	0.00063
3674.71	0.0005457
3684.35	0.0006498
3694	0.00044977
3703.64	0.000354
3713.29	0.0008421
3722.93	0.0005948
3732.58	0.00040322
3742.22	0.0006079
3751.86	8e-05
3761.51	0.0003626
3771.15	0.00048221
3780.8	0.0005521
3790.44	0.00042301
3800.09	0.0006083
3809.73	0.000294
3819.38	0.00024
3829.02	0.0006268
3838.67	0.00042636
3848.31	0.0009131
3857.96	0.0007522
3867.6	0.0003524
3877.25	0.0007578
3886.89	0.0006737
3896.54	0.0012099
3906.18	0.0003362
3915.83	0.0007644
3925.47	0.00043161
3935.12	0.0007839
3944.76	0.0005976
3954.41	0.0005482
3964.05	0.0007805
3973.69	0.0003243
3983.34	0.000415389
3992.98	0.0008294
