Infrared Spectrum: 3-(Trifluoromethoxy)benzyl bromide
Formula: C 8 H 6 Br F 3 O
CAS: 159689-88-0
State: gas
Origin: EPA-IR VAPOR PHASE LIBRARY
1/CM	ABSORBANCE
549.8	0.008199
559.445	0.019519
569.09	0.020669
578.734	0.007259
588.379	0.004789
598.024	0.005619
607.669	0.008109
617.313	0.013599
626.958	0.027179
636.603	0.037349
646.248	0.018949
655.893	0.010359
665.537	0.008209
675.182	0.013209
684.827	0.034529
694.472	0.045329
704.116	0.022519
713.761	0.009659
723.406	0.005369
733.051	0.004849
742.695	0.005059
752.34	0.009219
761.985	0.012499
771.63	0.012019
781.275	0.017679
790.919	0.021979
800.564	0.013279
810.209	0.005579
819.854	0.003509
829.498	0.002579
839.143	0.002629
848.788	0.004919
858.433	0.010569
868.078	0.015009
877.722	0.018569
887.367	0.017349
897.012	0.012219
906.657	0.007559
916.301	0.004839
925.946	0.003749
935.591	0.002909
945.236	0.003509
954.88	0.003439
964.525	0.005469
974.17	0.008499
983.815	0.006889
993.46	0.007839
1003.1	0.009969
1012.75	0.006799
1022.39	0.004389
1032.04	0.003879
1041.68	0.005249
1051.33	0.004409
1060.97	0.005049
1070.62	0.008719
1080.26	0.013579
1089.91	0.011129
1099.55	0.010139
1109.2	0.009769
1118.84	0.010519
1128.49	0.016869
1138.13	0.025939
1147.78	0.049309
1157.42	0.075149
1167.07	0.121529
1176.71	0.218759
1186.36	0.336129
1196	0.309589
1205.64	0.308239
1215.29	0.473059
1224.93	0.552919
1234.58	0.361949
1244.22	0.308219
1253.87	0.504439
1263.51	0.775009
1273.16	0.665629
1282.8	0.279749
1292.45	0.126169
1302.09	0.078079
1311.74	0.051929
1321.38	0.035919
1331.03	0.023519
1340.67	0.016299
1350.32	0.011179
1359.96	0.008649
1369.61	0.007279
1379.25	0.007009
1388.9	0.007359
1398.54	0.008169
1408.18	0.008369
1417.83	0.008439
1427.47	0.012579
1437.12	0.027419
1446.76	0.044879
1456.41	0.024659
1466.05	0.015979
1475.7	0.020209
1485.34	0.043059
1494.99	0.043709
1504.63	0.020089
1514.28	0.009789
1523.92	0.006979
1533.57	0.006529
1543.21	0.006599
1552.86	0.008079
1562.5	0.010899
1572.15	0.014709
1581.79	0.028399
1591.44	0.043149
1601.08	0.036569
1610.73	0.040229
1620.37	0.018989
1630.01	0.006639
1639.66	0.004569
1649.3	0.004299
1658.95	0.003939
1668.59	0.003999
1678.24	0.004079
1687.88	0.003659
1697.53	0.003509
1707.17	0.003309
1716.82	0.002869
1726.46	0.002759
1736.11	0.003149
1745.75	0.003479
1755.4	0.003799
1765.04	0.003999
1774.69	0.003949
1784.33	0.003749
1793.98	0.003659
1803.62	0.003629
1813.27	0.003329
1822.91	0.002999
1832.55	0.002779
1842.2	0.003129
1851.84	0.003119
1861.49	0.003849
1871.13	0.004079
1880.78	0.002999
1890.42	0.002399
1900.07	0.002539
1909.71	0.003089
1919.36	0.003549
1929	0.004519
1938.65	0.004529
1948.29	0.002719
1957.94	0.002489
1967.58	0.002319
1977.23	0.002699
1986.87	0.002829
1996.52	0.002629
2006.16	0.002419
2015.81	0.002639
2025.45	0.002549
2035.1	0.002759
2044.74	0.002819
2054.38	0.002819
2064.03	0.003129
2073.67	0.003439
2083.32	0.003539
2092.96	0.003349
2102.61	0.003189
2112.25	0.003359
2121.9	0.003789
2131.54	0.003909
2141.19	0.003359
2150.83	0.002979
2160.48	0.002279
2170.12	0.002079
2179.77	0.0016511
2189.41	0.0017856
2199.06	0.0013936
2208.7	0.0016245
2218.35	0.0016315
2227.99	0.0018012
2237.64	0.001848
2247.28	0.001989
2256.92	0.0016679
2266.57	0.0015825
2276.21	0.0017978
2285.86	0.0018222
2295.5	0.0019189
2305.15	0.002089
2314.79	0.002039
2324.44	0.002259
2334.08	0.002239
2343.73	0.002359
2353.37	0.002179
2363.02	0.002399
2372.66	0.002259
2382.31	0.002909
2391.95	0.002849
2401.6	0.003099
2411.24	0.003169
2420.89	0.003699
2430.53	0.004349
2440.18	0.005179
2449.82	0.005179
2459.47	0.004539
2469.11	0.004529
2478.75	0.005149
2488.4	0.005109
2498.04	0.004479
2507.69	0.003489
2517.33	0.003089
2526.98	0.002769
2536.62	0.002369
2546.27	0.002199
2555.91	0.002249
2565.56	0.0018346
2575.2	0.001491
2584.85	0.0016805
2594.49	0.0014427
2604.14	0.0014557
2613.78	0.0011536
2623.43	0.0014767
2633.07	0.0015688
2642.72	0.0013581
2652.36	0.0018329
2662.01	0.0016893
2671.65	0.0011977
2681.29	0.0008897
2690.94	0.0010721
2700.58	0.001093
2710.23	0.0013959
2719.87	0.0012914
2729.52	0.0015418
2739.16	0.00099015
2748.81	0.0011835
2758.45	0.0011005
2768.1	0.0011449
2777.74	0.0013371
2787.39	0.00098396
2797.03	0.000938
2806.68	0.000726
2816.32	0.0011659
2825.97	0.000961088
2835.61	0.0010845
2845.26	0.0015272
2854.9	0.001682
2864.55	0.002079
2874.19	0.0017704
2883.84	0.0017726
2893.48	0.0012707
2903.12	0.0015926
2912.77	0.0011974
2922.41	0.0012674
2932.06	0.0015595
2941.7	0.001969
2951.35	0.002889
2960.99	0.004229
2970.64	0.006449
2980.28	0.008299
2989.93	0.005889
2999.57	0.003719
3009.22	0.002409
3018.86	0.003569
3028.51	0.004729
3038.15	0.005759
3047.8	0.007229
3057.44	0.007759
3067.09	0.008799
3076.73	0.009049
3086.38	0.007639
3096.02	0.004739
3105.67	0.003159
3115.31	0.002739
3124.95	0.0016938
3134.6	0.0009464
3144.24	0.0012477
3153.89	0.000773
3163.53	0.0012304
3173.18	0.000803
3182.82	0.000635
3192.47	0.00097594
3202.11	0.0015452
3211.76	0.0014143
3221.4	0.0011412
3231.05	0.000376
3240.69	0.000511
3250.34	0.0009482
3259.98	0.0009214
3269.63	0.0010915
3279.27	0.000829
3288.92	0.000691
3298.56	0.000846
3308.21	0.000732
3317.85	0.0011204
3327.49	0.00102554
3337.14	0.0011917
3346.78	0.0012909
3356.43	0.00099384
3366.07	0.0008987
3375.72	0.000898
3385.36	0.000793
3395.01	0.000571
3404.65	0.0008685
3414.3	0.000434
3423.94	0.00098811
3433.59	0.00095759
3443.23	0.00102096
3452.88	0.000577
3462.52	0.000719
3472.17	0.000384
3481.81	0.0009257
3491.46	0.0011533
3501.1	0.000963685
3510.75	0.0011877
3520.39	0.0009946
3530.04	0.0012779
3539.68	0.00102211
3549.32	0.0012549
3558.97	0.000701
3568.61	0.000599
3578.26	0.0011441
3587.9	0.0013789
3597.55	0.0010977
3607.19	0.0016416
3616.84	0.0012113
3626.48	0.000606
3636.13	0.0012505
3645.77	0.0009117
3655.42	0.0013646
3665.06	0.0016129
3674.71	0.0011244
3684.35	0.001155
3694	0.0011905
3703.64	0.000645
3713.29	0.0011645
3722.93	0.0011513
3732.58	0.00103903
3742.22	0.00096513
3751.86	0.000719
3761.51	0.000757
3771.15	0.001124
3780.8	0.000783
3790.44	0.000719
3800.09	0.00085
3809.73	0.0009076
3819.38	0.00085
3829.02	0.000601
3838.67	0.00077
3848.31	0.000419
3857.96	0.0011972
3867.6	0.000687
3877.25	0.000857
3886.89	5.3e-05
3896.54	0.000695
3906.18	0.000759
3915.83	0.0009256
3925.47	0.000607
3935.12	0.000336
3944.76	0.0008752
3954.41	0.0013188
3964.05	0.00046
3973.69	0.000451
3983.34	0.0012846
3992.98	0.000606
