Infrared Spectrum: 4,5-Dichloroimidazole
Formula: C 3 H 2 Cl 2 N 2
CAS: 15965-30-7
State: gas
Origin: EPA-IR VAPOR PHASE LIBRARY
1/CM	ABSORBANCE
549.9	0.0007944
559.547	0.0004801
569.193	0.0004255
578.84	0.000231
588.486	0.0003063
598.133	0.000225
607.779	0.0002438
617.426	0.0003053
627.072	0.0003587
636.719	0.0002727
646.365	0.0002302
656.012	0.0002936
665.658	0.0003608
675.305	0.0004316
684.951	0.0002726
694.598	0.0004431
704.245	0.0003524
713.891	0.000346
723.538	0.0003509
733.184	0.0003093
742.831	0.0003973
752.477	0.0002992
762.124	0.0003891
771.77	0.0003347
781.417	0.0006422
791.063	0.0009932
800.71	0.001895
810.356	0.0009765
820.003	0.0006357
829.649	0.0003955
839.296	0.0003406
848.943	0.0003318
858.589	0.0003493
868.236	0.0003452
877.882	0.0003283
887.529	0.0003134
897.175	0.0002664
906.822	0.000296
916.468	0.000407
926.115	0.0004415
935.761	0.0004725
945.408	0.0004101
955.054	0.0004903
964.701	0.0010024
974.347	0.002945
983.994	0.004995
993.64	0.005495
1003.29	0.004015
1012.93	0.002765
1022.58	0.002365
1032.23	0.002065
1041.87	0.001435
1051.52	0.00103
1061.17	0.000528
1070.81	0.0003886
1080.46	0.0004828
1090.11	0.0008655
1099.75	0.0008784
1109.4	0.0007322
1119.05	0.0003473
1128.69	0.0004618
1138.34	0.0002504
1147.99	0.000358
1157.63	0.0004393
1167.28	0.0004178
1176.92	0.0005968
1186.57	0.001355
1196.22	0.003005
1205.86	0.004255
1215.51	0.003825
1225.16	0.0010462
1234.8	0.00018478
1244.45	0.0003229
1254.1	0.00021205
1263.74	0.00016011
1273.39	0.000122054
1283.04	0.000119028
1292.68	0.00020088
1302.33	0.0003352
1311.98	0.0003893
1321.62	0.0004109
1331.27	0.0002706
1340.92	0.00019585
1350.56	0.00019604
1360.21	0.0002779
1369.86	0.0003466
1379.5	0.0005109
1389.15	0.001205
1398.79	0.002415
1408.44	0.002855
1418.09	0.002155
1427.73	0.0007619
1437.38	0.0003743
1447.03	0.0005348
1456.67	0.0008902
1466.32	0.0011079
1475.97	0.0009934
1485.61	0.000628
1495.26	0.0004788
1504.91	0.000593
1514.55	0.001175
1524.2	0.002725
1533.85	0.004555
1543.49	0.004545
1553.14	0.003055
1562.79	0.0009187
1572.43	0.0005746
1582.08	0.00071
1591.73	0.0007767
1601.37	0.0007325
1611.02	0.0004314
1620.67	0.0002188
1630.31	0.00017344
1639.96	0.00015739
1649.6	0.00014904
1659.25	9.99e-05
1668.9	0.00014047
1678.54	9.34e-05
1688.19	0.00014223
1697.84	0.00019045
1707.48	0.00010933
1717.13	0.00013836
1726.78	9.42e-05
1736.42	0.00014261
1746.07	8.96e-05
1755.72	0.00013362
1765.36	0.00011379
1775.01	0.000120031
1784.66	8.43e-05
1794.3	0.000124057
1803.95	7.33e-05
1813.6	0.000105
1823.24	6.48e-05
1832.89	9.53e-05
1842.54	0.0001025
1852.18	9.29e-05
1861.83	9.07e-05
1871.47	7.73e-05
1881.12	8.98e-05
1890.77	5.38e-05
1900.41	9.83e-05
1910.06	6.2e-05
1919.71	5.85e-05
1929.35	3.16e-05
1939	7.57e-05
1948.65	7.63e-05
1958.29	3.91e-05
1967.94	3.86e-05
1977.59	4.54e-05
1987.23	4.66e-05
1996.88	4.28e-05
2006.53	3.69e-05
2016.17	0.00010901
2025.82	8.89e-05
2035.47	7.36e-05
2045.11	8.11e-05
2054.76	8.55e-05
2064.41	9.89e-05
2074.05	7.71e-05
2083.7	0.00012972
2093.35	0.000122855
2102.99	7.58e-05
2112.64	7.79e-05
2122.28	0.0001007
2131.93	7.53e-05
2141.58	9.47e-05
2151.22	6.17e-05
2160.87	6.69e-05
2170.52	8.27e-05
2180.16	0.00011722
2189.81	9.19e-05
2199.46	9.82e-05
2209.1	5.79e-05
2218.75	8.05e-05
2228.4	0.0001002
2238.04	9.48e-05
2247.69	0.00013832
2257.34	8.97e-05
2266.98	7.98e-05
2276.63	8.66e-05
2286.28	0.00012751
2295.92	0.00011266
2305.57	0.00020375
2315.22	0.00014526
2324.86	0.00013732
2334.51	0.00013423
2344.16	8.57e-05
2353.8	0.00010757
2363.45	0.00016634
2373.09	0.00015543
2382.74	0.0001305
2392.39	0.000124526
2402.03	0.00013741
2411.68	0.00013711
2421.33	0.00015025
2430.97	0.0001042
2440.62	0.00013535
2450.27	0.00014296
2459.91	0.0001015
2469.56	0.000119406
2479.21	0.00016579
2488.85	0.0002534
2498.5	0.0002993
2508.15	0.00021465
2517.79	0.00020022
2527.44	0.00013036
2537.09	0.00014409
2546.73	0.00014936
2556.38	0.00018253
2566.03	0.00016375
2575.67	0.00016732
2585.32	0.00018403
2594.96	0.00020627
2604.61	0.00016357
2614.26	0.00013851
2623.9	0.00019532
2633.55	0.00015296
2643.2	0.0001572
2652.84	0.00014447
2662.49	0.00010514
2672.14	0.00015249
2681.78	0.0002424
2691.43	0.00014266
2701.08	0.0001044
2710.72	0.00017906
2720.37	0.00016949
2730.02	0.00021161
2739.66	0.0002227
2749.31	0.00017358
2758.96	0.00019073
2768.6	0.0002267
2778.25	0.00019768
2787.9	0.00018142
2797.54	0.00018854
2807.19	0.0002128
2816.84	0.0001895
2826.48	0.00017784
2836.13	0.00016525
2845.77	0.0003349
2855.42	0.000118502
2865.07	0.0002193
2874.71	0.0002283
2884.36	0.000278
2894.01	0.00017502
2903.65	0.0002573
2913.3	0.000405
2922.95	0.0003068
2932.59	0.0003551
2942.24	0.0003624
2951.89	0.0002886
2961.53	0.0002769
2971.18	0.000362
2980.83	0.000304
2990.47	0.0002448
3000.12	0.000307
3009.77	0.000331
3019.41	0.0003235
3029.06	0.00018709
3038.71	0.0002647
3048.35	0.00019972
3058	0.0002269
3067.64	0.0003168
3077.29	0.0002838
3086.94	0.0003821
3096.58	0.0002291
3106.23	0.0001923
3115.88	0.0003093
3125.52	0.0002618
3135.17	0.000389
3144.82	0.0003067
3154.46	0.0003252
3164.11	0.0003482
3173.76	0.0003594
3183.4	0.00019073
3193.05	0.0003121
3202.7	0.0004222
3212.34	0.0003283
3221.99	0.0002988
3231.64	0.0002527
3241.28	0.0005223
3250.93	0.0003774
3260.58	0.0003151
3270.22	0.0003544
3279.87	0.0002598
3289.52	0.0003718
3299.16	0.000327
3308.81	0.0004811
3318.45	0.0003652
3328.1	0.000429
3337.75	0.0003981
3347.39	0.0003771
3357.04	0.0004119
3366.69	0.0002526
3376.33	0.000453
3385.98	0.0003869
3395.63	0.0005
3405.27	0.0005317
3414.92	0.0004226
3424.57	0.0004972
3434.21	0.0002984
3443.86	0.0005723
3453.51	0.0007504
3463.15	0.001125
3472.8	0.001995
3482.45	0.003065
3492.09	0.005315
3501.74	0.005245
3511.39	0.003785
3521.03	0.0008357
3530.68	0.0004637
3540.33	0.0005255
3549.97	0.0003514
3559.62	0.00017713
3569.26	0.0003898
3578.91	0.0003417
3588.56	0.0002908
3598.2	0.0003809
3607.85	0.0003154
3617.5	0.0002574
3627.14	0.0003345
3636.79	0.000336
3646.44	0.0003344
3656.08	0.0002431
3665.73	0.0003424
3675.38	0.0003663
3685.02	0.000274
3694.67	0.0002474
3704.32	0.000378
3713.96	0.0002994
3723.61	0.0002423
3733.26	0.0003814
3742.9	0.0003493
3752.55	0.0003414
3762.2	0.0003165
3771.84	0.0003851
3781.49	0.0003445
3791.13	0.0002803
3800.78	0.0003055
3810.43	0.0003632
3820.07	0.0004188
3829.72	0.0002912
3839.37	0.0002245
3849.01	0.0003186
3858.66	0.0003439
3868.31	0.0002477
3877.95	0.0002664
3887.6	0.0003077
3897.25	0.000247
3906.89	0.0002967
3916.54	0.0002701
3926.19	0.0003171
3935.83	0.0002628
3945.48	0.0004017
3955.13	0.0004283
3964.77	0.000366
3974.42	0.0004382
3984.07	0.0002571
3993.71	0.000316
