Infrared Spectrum: Alachlor
Formula: C 14 H 20 Cl N O 2
CAS: 15972-60-8
State: gas
Instrument: HP-GC/MS/IRD
Origin: NIST Mass Spectrometry Data Center
1/CM	ABSORBANCE
550	0.0009786
562	0.0008652
574	0.0010458
586	0.0007014
598	0.000966
610	0.0012516
622	0.0016506
634	0.0018732
646	0.0020244
658	0.001974
670	0.0011802
682	0.000735
694	0.0009408
706	0.0010878
718	0.0005208
730	6.72e-05
742	0.000252
754	0.0011928
766	0.0024738
778	0.0036372
790	0.004788
802	0.0056532
814	0.0036876
826	0.0014322
838	0.0005124
850	0.0004998
862	0.0010542
874	0.0006048
886	0.0009912
898	0.0023352
910	0.0021042
922	0.001974
934	0.0019782
946	0.0016128
958	0.0018816
970	0.0016044
982	0.0013398
994	0.00147
1006	0.0024612
1018	0.004074
1030	0.0051114
1042	0.0072408
1054	0.0114786
1066	0.017556
1078	0.0164682
1090	0.0163212
1102	0.0192864
1114	0.0182112
1126	0.0125664
1138	0.006678
1150	0.0056784
1162	0.0059304
1174	0.0059808
1186	0.0074214
1198	0.0080682
1210	0.0067494
1222	0.008799
1234	0.010941
1246	0.0106764
1258	0.0083874
1270	0.0061614
1282	0.0053298
1294	0.0060564
1306	0.009009
1318	0.0098784
1330	0.007434
1342	0.0065856
1354	0.011508
1366	0.0161826
1378	0.009303
1390	0.0053592
1402	0.005313
1414	0.0058842
1426	0.0062832
1438	0.007518
1450	0.0125622
1462	0.012621
1474	0.0069216
1486	0.0030198
1498	0.0017766
1510	0.001197
1522	0.0009072
1534	0.0007392
1546	0.0006846
1558	0.0006804
1570	0.00084
1582	0.0011844
1594	0.001134
1606	0.0008316
1618	0.0008736
1630	0.0011298
1642	0.0017136
1654	0.0030072
1666	0.005187
1678	0.0098322
1690	0.0231546
1702	0.042
1714	0.0295512
1726	0.0117642
1738	0.0040656
1750	0.0019026
1762	0.0011718
1774	0.000798
1786	0.0006552
1798	0.0005922
1810	0.0002898
1822	0.0001848
1834	0.0001428
1846	0.0001386
1858	0.0002772
1870	0.0003066
1882	2.1e-05
1894	0
1906	4.2e-06
1918	0.0001176
1930	0.0004326
1942	0.0003318
1954	0.0001218
1966	8.82e-05
1978	0.0001134
1990	0.0001386
2002	0.0002016
2014	0.0002268
2026	0.0002646
2038	0.0002982
2050	0.0002772
2062	0.0002268
2074	0.00021
2086	0.0001596
2098	0.0001134
2110	0.0001092
2122	8.4e-05
2134	0.0001092
2146	8.82e-05
2158	5.46e-05
2170	0.0001218
2182	7.56e-05
2194	8.82e-05
2206	7.56e-05
2218	9.66e-05
2230	0.0001176
2242	9.24e-05
2254	7.98e-05
2266	9.24e-05
2278	9.24e-05
2290	8.82e-05
2302	7.98e-05
2314	8.4e-05
2326	0.0001638
2338	0.00021
2350	0.0002058
2362	0.000147
2374	7.98e-05
2386	7.14e-05
2398	5.46e-05
2410	9.24e-05
2422	7.98e-05
2434	0.000105
2446	9.24e-05
2458	7.98e-05
2470	0.0001134
2482	8.82e-05
2494	6.3e-05
2506	0.0001008
2518	8.4e-05
2530	0.0001176
2542	0.0001302
2554	0.0001302
2566	0.0001218
2578	0.0001134
2590	0.0001344
2602	0.0001428
2614	0.0001848
2626	0.0002184
2638	0.0001764
2650	0.0002016
2662	0.0001848
2674	0.0001932
2686	0.0002268
2698	0.000189
2710	0.0002562
2722	0.0003402
2734	0.0004536
2746	0.0005796
2758	0.0006132
2770	0.0008358
2782	0.0011214
2794	0.0014952
2806	0.0019362
2818	0.0030408
2830	0.004662
2842	0.0049224
2854	0.0048132
2866	0.0056574
2878	0.0080388
2890	0.010479
2902	0.009576
2914	0.0098322
2926	0.0117012
2938	0.0163086
2950	0.0163758
2962	0.0128814
2974	0.0187866
2986	0.0156366
2998	0.0093702
3010	0.0056028
3022	0.0045276
3034	0.0039774
3046	0.0032466
3058	0.0039942
3070	0.005439
3082	0.0032928
3094	0.0013608
3106	0.0008694
3118	0.0007224
3130	0.0006678
3142	0.0006048
3154	0.0005796
3166	0.0005292
3178	0.0004662
3190	0.0003696
3202	0.0002394
3214	0.00021
3226	0.0002352
3238	0.0001386
3250	0.0001806
3262	0.0001722
3274	0.0001302
3286	0.0001638
3298	0.000147
3310	0.0001134
3322	0.0001428
3334	0.0002268
3346	0.0002268
3358	0.000273
3370	0.0003318
3382	0.000462
3394	0.000441
3406	0.0003906
3418	0.0002856
3430	0.0002268
3442	0.0002184
3454	0.0001092
3466	0.0001638
3478	0.0001764
3490	0.0001512
3502	0.0001218
3514	0.0001638
3526	0.000126
3538	0.000126
3550	0.0001512
3562	0.0001428
3574	0.000105
3586	0.000126
3598	0.0001092
3610	0.0001302
3622	9.24e-05
3634	0.0001092
3646	5.88e-05
3658	0.0001512
3670	0.0001554
3682	0.0001764
3694	0.0002184
3706	0.0002688
3718	0.0001596
3730	0.0001554
3742	0.0001386
3754	0.000168
3766	0.0002394
3778	0.0002856
3790	0.0002016
3802	0.0002394
3814	0.0001722
3826	0.0003066
3838	0.0002646
