Infrared Spectrum: CYCLODODECYLBENZENE
Formula: C18 H28
CAS: 15971-88-7
State: LIQUID
Boiling point: 122-123 C AT 20 mmHg
Class: COBLENTZ
Instrument: Not specified, most likely a prism, grating, or hybrid spectrometer.
Sampling: TRANSMISSION
Path length: SMEAR
Resolution: 4
MICROMETERS	TRANSMITTANCE
2.027	0.971
2.06681	0.97
2.10662	0.966
2.14643	0.961
2.18623	0.953
2.22604	0.951
2.26585	0.943
2.30566	0.868
2.34547	0.855
2.38528	0.85
2.42509	0.873
2.4649	0.873
2.5047	0.862
2.54451	0.887
2.58432	0.903
2.62413	0.908
2.66394	0.91
2.70375	0.915
2.74356	0.917
2.78337	0.92
2.82317	0.932
2.86298	0.94
2.90279	0.943
2.9426	0.938
2.98241	0.932
3.02222	0.93
3.06203	0.933
3.10184	0.932
3.14164	0.917
3.18145	0.9
3.22126	0.885
3.26107	0.674
3.30088	0.421
3.34069	0.349
3.3805	0.175
3.42031	0.016
3.46011	0.028
3.49992	0.039
3.53973	0.248
3.57954	0.616
3.61935	0.766
3.65916	0.802
3.69897	0.804
3.73878	0.792
3.77858	0.731
3.81839	0.774
3.8582	0.817
3.89801	0.85
3.93782	0.872
3.97763	0.885
4.01744	0.892
4.05725	0.91
4.09705	0.93
4.13686	0.94
4.17667	0.936
4.21648	0.936
4.25629	0.94
4.2961	0.936
4.33591	0.933
4.37572	0.935
4.41552	0.95
4.45533	0.943
4.49514	0.945
4.53495	0.955
4.57476	0.965
4.61457	0.961
4.65438	0.963
4.69419	0.966
4.73399	0.971
4.7738	0.976
4.81361	0.973
4.85342	0.965
4.89323	0.973
4.93304	0.975
4.97285	0.975
5.01265	0.981
5.05246	0.971
5.09227	0.966
5.13208	0.9
5.17189	0.825
5.2117	0.951
5.25151	0.971
5.29132	0.965
5.33112	0.903
5.37093	0.875
5.41074	0.948
5.45055	0.968
5.49036	0.97
5.53017	0.936
5.56998	0.873
5.60979	0.93
5.64959	0.95
5.6894	0.96
5.72921	0.93
5.76902	0.888
5.80883	0.95
5.84864	0.948
5.88845	0.948
5.92826	0.945
5.96806	0.943
6.00787	0.927
6.04768	0.905
6.08749	0.912
6.1273	0.935
6.16711	0.93
6.20692	0.873
6.24673	0.517
6.28653	0.713
6.32634	0.769
6.36615	0.907
6.40596	0.922
6.44577	0.925
6.48558	0.878
6.52539	0.873
6.5652	0.867
6.605	0.824
6.64481	0.613
6.68462	0.152
6.72443	0.55
6.76424	0.396
6.80405	0.054
6.84386	0.182
6.88367	0.071
6.92347	0.107
6.96328	0.436
7.00309	0.703
7.0429	0.796
7.08271	0.842
7.12252	0.855
7.16233	0.854
7.20214	0.825
7.24194	0.718
7.28175	0.655
7.32156	0.658
7.36137	0.616
7.40118	0.61
7.44099	0.441
7.4808	0.553
7.52061	0.698
7.56041	0.744
7.60022	0.742
7.64003	0.623
7.67984	0.673
7.71965	0.684
7.75946	0.719
7.79927	0.733
7.83907	0.739
7.87888	0.774
7.91869	0.769
7.9585	0.683
7.99831	0.661
8.03812	0.686
8.07793	0.759
8.11774	0.718
8.15754	0.771
8.19735	0.805
8.23716	0.832
8.27697	0.855
8.31678	0.82
8.35659	0.844
8.3964	0.824
8.43621	0.792
8.47601	0.797
8.51582	0.825
8.55563	0.824
8.59544	0.81
8.63525	0.742
8.67506	0.776
8.71487	0.804
8.75468	0.733
8.79448	0.805
8.83429	0.834
8.8741	0.835
8.91391	0.829
8.95372	0.809
8.99353	0.794
9.03334	0.8
9.07315	0.805
9.11295	0.8
9.15276	0.779
9.19257	0.746
9.23238	0.645
9.27219	0.575
9.312	0.562
9.35181	0.623
9.39162	0.711
9.43142	0.731
9.47123	0.749
9.51104	0.771
9.55085	0.721
9.59066	0.665
9.63047	0.648
9.67028	0.51
9.71009	0.429
9.74989	0.679
9.7897	0.771
9.82951	0.802
9.86932	0.834
9.90913	0.849
9.94894	0.849
9.98875	0.845
10.0286	0.862
10.0684	0.864
10.1082	0.864
10.148	0.86
10.1878	0.85
10.2276	0.837
10.2674	0.835
10.3072	0.834
10.347	0.796
10.3868	0.771
10.4266	0.812
10.4665	0.83
10.5063	0.802
10.5461	0.757
10.5859	0.764
10.6257	0.815
10.6655	0.849
10.7053	0.864
10.7451	0.872
10.7849	0.87
10.8247	0.857
10.8645	0.814
10.9043	0.787
10.9442	0.832
10.984	0.849
11.0238	0.799
11.0636	0.733
11.1034	0.782
11.1432	0.855
11.183	0.875
11.2228	0.882
11.2626	0.883
11.3024	0.888
11.3422	0.902
11.3821	0.912
11.4219	0.922
11.4617	0.925
11.5015	0.922
11.5413	0.912
11.5811	0.897
11.6209	0.897
11.6607	0.91
11.7005	0.912
11.7403	0.913
11.7801	0.91
11.8199	0.89
11.8598	0.865
11.8996	0.85
11.9394	0.849
11.9792	0.865
12.019	0.867
12.0588	0.837
12.0986	0.786
12.1384	0.714
12.1782	0.681
12.218	0.729
12.2578	0.784
12.2977	0.805
12.3375	0.814
12.3773	0.827
12.4171	0.839
12.4569	0.85
12.4967	0.854
12.5365	0.852
12.5763	0.852
12.6161	0.844
12.6559	0.827
12.6957	0.815
12.7355	0.8
12.7754	0.776
12.8152	0.749
12.855	0.729
12.8948	0.719
12.9346	0.678
12.9744	0.613
13.0142	0.517
13.054	0.386
13.0938	0.182
13.1336	0.089
13.1734	0.079
13.2133	0.122
13.2531	0.187
13.2929	0.266
13.3327	0.334
13.3725	0.388
13.4123	0.409
13.4521	0.409
13.4919	0.379
13.5317	0.326
13.5715	0.271
13.6113	0.248
13.6511	0.24
13.691	0.228
13.7308	0.217
13.7706	0.215
13.8104	0.215
13.8502	0.218
13.89	0.225
13.9298	0.247
13.9696	0.283
14.0094	0.334
14.0492	0.373
14.089	0.376
14.1289	0.315
14.1687	0.222
14.2085	0.142
14.2483	0.099
14.2881	0.086
14.3279	0.084
14.3677	0.097
14.4075	0.149
14.4473	0.237
14.4871	0.336
14.5269	0.429
14.5668	0.527
14.6066	0.593
14.6464	0.641
14.6862	0.678
14.726	0.699
14.7658	0.709
14.8056	0.721
14.8454	0.728
14.8852	0.729
14.925	0.733
14.9648	0.733
15.0046	0.737
15.0445	0.747
15.0843	0.752
15.1241	0.759
15.1639	0.766
15.2037	0.767
15.2435	0.772
15.2833	0.769
15.3231	0.772
15.3629	0.772
15.4027	0.772
15.4425	0.772
15.4824	0.769
15.5222	0.769
15.562	0.767
15.6018	0.767
15.6416	0.764
15.6814	0.761
15.7212	0.759
15.761	0.757
15.8008	0.757
15.8406	0.754
15.8804	0.752
15.9202	0.751
15.9601	0.747
15.9999	0.747
