Infrared Spectrum: 2-Butyl-3-methylpyrazine
Formula: C 9 H 14 N 2
CAS: 15987-00-5
State: gas
Origin: EPA-IR VAPOR PHASE LIBRARY
1/CM	ABSORBANCE
549.8	0.0007045
559.445	0.0010399
569.09	0.0009579
578.734	0.0003426
588.379	0.0002998
598.024	2.6e-05
607.669	0.00042896
617.313	0.00044242
626.958	0.000289
636.603	0.0006113
646.248	0.0003334
655.893	0.0005141
665.537	0.0007252
675.182	0.0007192
684.827	0.0009085
694.472	0.001623
704.116	0.001823
713.761	0.002443
723.406	0.003133
733.051	0.003493
742.695	0.003183
752.34	0.003063
761.985	0.002993
771.63	0.003033
781.275	0.003353
790.919	0.002373
800.564	0.001803
810.209	0.001993
819.854	0.002883
829.498	0.006403
839.143	0.014303
848.788	0.019043
858.433	0.011403
868.078	0.005673
877.722	0.004813
887.367	0.004813
897.012	0.005073
906.657	0.004093
916.301	0.003993
925.946	0.004923
935.591	0.005283
945.236	0.005323
954.88	0.007043
964.525	0.011113
974.17	0.013543
983.815	0.010883
993.46	0.006933
1003.1	0.004573
1012.75	0.004043
1022.39	0.004933
1032.04	0.007333
1041.68	0.012253
1051.33	0.018053
1060.97	0.016633
1070.62	0.012203
1080.26	0.009903
1089.91	0.008753
1099.55	0.008593
1109.2	0.009003
1118.84	0.010933
1128.49	0.016643
1138.13	0.025043
1147.78	0.029643
1157.42	0.031623
1167.07	0.029203
1176.71	0.018503
1186.36	0.008073
1196	0.006713
1205.64	0.007253
1215.29	0.009323
1224.93	0.008653
1234.58	0.009293
1244.22	0.008303
1253.87	0.004923
1263.51	0.003533
1273.16	0.003153
1282.8	0.003413
1292.45	0.004533
1302.09	0.005233
1311.74	0.005453
1321.38	0.007133
1331.03	0.010073
1340.67	0.012313
1350.32	0.012183
1359.96	0.012663
1369.61	0.018243
1379.25	0.027553
1388.9	0.042043
1398.54	0.071733
1408.18	0.083713
1417.83	0.053643
1427.47	0.031313
1437.12	0.027213
1446.76	0.028133
1456.41	0.030213
1466.05	0.026613
1475.7	0.017573
1485.34	0.010763
1494.99	0.007903
1504.63	0.006943
1514.28	0.007563
1523.92	0.010873
1533.57	0.013833
1543.21	0.010313
1552.86	0.006113
1562.5	0.005173
1572.15	0.004883
1581.79	0.003913
1591.44	0.003143
1601.08	0.002573
1610.73	0.002153
1620.37	0.002033
1630.01	0.001983
1639.66	0.001813
1649.3	0.001873
1658.95	0.001763
1668.59	0.001803
1678.24	0.002183
1687.88	0.002643
1697.53	0.002183
1707.17	0.001583
1716.82	0.0013545
1726.46	0.0012171
1736.11	0.0013409
1745.75	0.001151
1755.4	0.0012026
1765.04	0.0011601
1774.69	0.001453
1784.33	0.001893
1793.98	0.002453
1803.62	0.002343
1813.27	0.001563
1822.91	0.0011954
1832.55	0.0010224
1842.2	0.0010516
1851.84	0.0010835
1861.49	0.000989
1871.13	0.001017
1880.78	0.0012392
1890.42	0.001643
1900.07	0.002523
1909.71	0.003263
1919.36	0.002563
1929	0.001453
1938.65	0.0011966
1948.29	0.0011405
1957.94	0.0009379
1967.58	0.0009396
1977.23	0.0010159
1986.87	0.0009256
1996.52	0.0008993
2006.16	0.0008332
2015.81	0.0010521
2025.45	0.0010706
2035.1	0.0010799
2044.74	0.0008868
2054.38	0.0009721
2064.03	0.0010958
2073.67	0.0009659
2083.32	0.0011339
2092.96	0.0011874
2102.61	0.0011024
2112.25	0.0013896
2121.9	0.0013578
2131.54	0.001463
2141.19	0.001493
2150.83	0.0013125
2160.48	0.0012954
2170.12	0.0012324
2179.77	0.0010773
2189.41	0.0010579
2199.06	0.0011164
2208.7	0.0011398
2218.35	0.001214
2227.99	0.0011657
2237.64	0.0011275
2247.28	0.0011038
2256.92	0.0011847
2266.57	0.0011178
2276.21	0.0011462
2285.86	0.0012257
2295.5	0.0011622
2305.15	0.0012
2314.79	0.0012632
2324.44	0.0012328
2334.08	0.0011361
2343.73	0.0011453
2353.37	0.001163
2363.02	0.0010857
2372.66	0.0010301
2382.31	0.0011833
2391.95	0.0010856
2401.6	0.0012104
2411.24	0.0011374
2420.89	0.0011212
2430.53	0.0010935
2440.18	0.0010631
2449.82	0.0010327
2459.47	0.0009407
2469.11	0.0011065
2478.75	0.001024
2488.4	0.0010545
2498.04	0.0011957
2507.69	0.0010201
2517.33	0.0011389
2526.98	0.0011299
2536.62	0.0011712
2546.27	0.0012728
2555.91	0.0013058
2565.56	0.0012096
2575.2	0.0012939
2584.85	0.001483
2594.49	0.0013401
2604.14	0.001423
2613.78	0.001503
2623.43	0.001453
2633.07	0.0013642
2642.72	0.001573
2652.36	0.001873
2662.01	0.001813
2671.65	0.002113
2681.29	0.002283
2690.94	0.001923
2700.58	0.002103
2710.23	0.002113
2719.87	0.002263
2729.52	0.002703
2739.16	0.003143
2748.81	0.003043
2758.45	0.002953
2768.1	0.003133
2777.74	0.003433
2787.39	0.004023
2797.03	0.004413
2806.68	0.005183
2816.32	0.006193
2825.97	0.007893
2835.61	0.010413
2845.26	0.014733
2854.9	0.023513
2864.55	0.038493
2874.19	0.049993
2883.84	0.051693
2893.48	0.044803
2903.12	0.042813
2912.77	0.052713
2922.41	0.072613
2932.06	0.097223
2941.7	0.107303
2951.35	0.100243
2960.99	0.109783
2970.64	0.111573
2980.28	0.067223
2989.93	0.034333
2999.57	0.023213
3009.22	0.018213
3018.86	0.015163
3028.51	0.016953
3038.15	0.029613
3047.8	0.056393
3057.44	0.055503
3067.09	0.025693
3076.73	0.012573
3086.38	0.009213
3096.02	0.008003
3105.67	0.007553
3115.31	0.006843
3124.95	0.005443
3134.6	0.003743
3144.24	0.002883
3153.89	0.002293
3163.53	0.001853
3173.18	0.001953
3182.82	0.001773
3192.47	0.001573
3202.11	0.001473
3211.76	0.0010586
3221.4	0.0011892
3231.05	0.0010748
3240.69	0.0010363
3250.34	0.0007173
3259.98	0.0009234
3269.63	0.0008006
3279.27	0.0006377
3288.92	0.0007567
3298.56	0.00048311
3308.21	0.0007831
3317.85	0.0007364
3327.49	0.000499
3337.14	0.00075
3346.78	0.0005778
3356.43	0.0007496
3366.07	0.0006092
3375.72	0.0007286
3385.36	0.0007226
3395.01	0.0007504
3404.65	0.0003129
3414.3	0.0006629
3423.94	0.0005348
3433.59	0.0005032
3443.23	0.00046524
3452.88	0.0006702
3462.52	0.00043853
3472.17	0.000402403
3481.81	0.000498
3491.46	0.0006023
3501.1	0.0003628
3510.75	0.000136
3520.39	0.0003519
3530.04	0.0003485
3539.68	0.000262
3549.32	0.0003749
3558.97	0.00041108
3568.61	0.000287
3578.26	0.0003592
3587.9	0.0006322
3597.55	0.0005488
3607.19	0.0003277
3616.84	0.0005029
3626.48	0.00041384
3636.13	0.00048025
3645.77	0.0005298
3655.42	0.00039189
3665.06	0.000396183
3674.71	0.0003171
3684.35	0.0003205
3694	0.0006474
3703.64	0.0004979
3713.29	0.00038315
3722.93	0.0005563
3732.58	0.00038505
3742.22	0.000262
3751.86	0.0005362
3761.51	0.00042743
3771.15	0.00041185
3780.8	0.0005475
3790.44	0.0006592
3800.09	0.0005317
3809.73	0.00045982
3819.38	0.000255
3829.02	0.0006625
3838.67	0.0005419
3848.31	0.00043139
3857.96	0.00047495
3867.6	0.0007308
3877.25	0.0006271
3886.89	0.000511
3896.54	0.0006137
3906.18	0.0008404
3915.83	0.0006988
3925.47	0.0009897
3935.12	0.0011853
3944.76	0.0011442
3954.41	0.0010761
3964.05	0.000812
3973.69	0.0008151
3983.34	0.0008856
3992.98	0.0007953
