Infrared Spectrum: 2-Methyl-3-n-propylpyrazine
Formula: C 8 H 12 N 2
CAS: 15986-80-8
State: gas
Origin: EPA-IR VAPOR PHASE LIBRARY
1/CM	ABSORBANCE
549.9	0.00078
559.547	0.000663
569.193	0.000677
578.84	0.000422
588.486	0.00045
598.133	0.000196
607.779	0.000209
617.426	0.000229
627.072	0.000206
636.719	0.00024
646.365	0.000315
656.012	0.000247
665.658	0.000313
675.305	0.000337
684.951	0.000593
694.598	0.0009587
704.245	0.0009534
713.891	0.001193
723.538	0.0016365
733.184	0.0016337
742.831	0.0012995
752.477	0.0011303
762.124	0.00104243
771.77	0.001045
781.417	0.00103453
791.063	0.0015471
800.71	0.002237
810.356	0.002857
820.003	0.003387
829.649	0.006387
839.296	0.011727
848.943	0.012217
858.589	0.008947
868.236	0.005357
877.882	0.004137
887.529	0.004287
897.175	0.004667
906.822	0.003847
916.468	0.002437
926.115	0.0017021
935.761	0.001822
945.408	0.002547
955.054	0.004497
964.701	0.007937
974.347	0.009867
983.994	0.008237
993.64	0.004977
1003.29	0.003607
1012.93	0.003827
1022.58	0.005707
1032.23	0.009227
1041.87	0.013037
1051.52	0.012917
1061.17	0.009637
1070.81	0.007387
1080.46	0.006357
1090.11	0.005887
1099.75	0.005367
1109.4	0.005077
1119.05	0.006457
1128.69	0.010947
1138.34	0.019137
1147.99	0.025907
1157.63	0.027857
1167.28	0.024247
1176.92	0.015847
1186.57	0.006497
1196.22	0.002997
1205.86	0.002637
1215.51	0.003427
1225.16	0.005907
1234.8	0.007157
1244.45	0.006287
1254.1	0.004107
1263.74	0.002897
1273.39	0.002447
1283.04	0.002307
1292.68	0.002287
1302.33	0.002517
1311.98	0.002887
1321.62	0.004147
1331.27	0.006887
1340.92	0.008617
1350.56	0.008037
1360.21	0.007757
1369.86	0.011867
1379.5	0.018817
1389.15	0.031997
1398.79	0.052947
1408.44	0.059647
1418.09	0.040837
1427.73	0.023187
1437.38	0.018757
1447.03	0.018947
1456.67	0.019797
1466.32	0.017577
1475.97	0.011867
1485.61	0.007467
1495.26	0.005537
1504.91	0.004937
1514.55	0.005577
1524.2	0.007557
1533.85	0.009007
1543.49	0.007207
1553.14	0.004337
1562.79	0.003617
1572.43	0.003447
1582.08	0.002787
1591.73	0.002227
1601.37	0.0019373
1611.02	0.0015902
1620.67	0.0014418
1630.31	0.0013476
1639.96	0.0013353
1649.6	0.0012766
1659.25	0.0011834
1668.9	0.0013185
1678.54	0.0015406
1688.19	0.0016697
1697.84	0.0014727
1707.48	0.001252
1717.13	0.00101031
1726.78	0.00097454
1736.42	0.0008922
1746.07	0.000861
1755.72	0.000806
1765.36	0.0008783
1775.01	0.00101908
1784.66	0.0014602
1794.3	0.0017509
1803.95	0.0014835
1813.6	0.0011661
1823.24	0.0009459
1832.89	0.000858
1842.54	0.000811
1852.18	0.000711
1861.83	0.000727
1871.47	0.00079
1881.12	0.000828
1890.77	0.0012255
1900.41	0.0019595
1910.06	0.002367
1919.71	0.0018795
1929.35	0.0011877
1939	0.000841
1948.65	0.0008
1958.29	0.000778
1967.94	0.000648
1977.59	0.000661
1987.23	0.000658
1996.88	0.00065
2006.53	0.00071
2016.17	0.000636
2025.82	0.00064
2035.47	0.000731
2045.11	0.000702
2054.76	0.000661
2064.41	0.000713
2074.05	0.00068
2083.7	0.000751
2093.35	0.000792
2102.99	0.000853
2112.64	0.00097589
2122.28	0.0010163
2131.93	0.00100403
2141.58	0.0010183
2151.22	0.0010232
2160.87	0.0009567
2170.52	0.00087
2180.16	0.000861
2189.81	0.000735
2199.46	0.000748
2209.1	0.000793
2218.75	0.000721
2228.4	0.000743
2238.04	0.00077
2247.69	0.00082
2257.34	0.00082
2266.98	0.000817
2276.63	0.000848
2286.28	0.000764
2295.92	0.000798
2305.57	0.000878
2315.22	0.000803
2324.86	0.0009136
2334.51	0.0008921
2344.16	0.000803
2353.8	0.00073
2363.45	0.000733
2373.09	0.000715
2382.74	0.000768
2392.39	0.00075
2402.03	0.000841
2411.68	0.000873
2421.33	0.000835
2430.97	0.000838
2440.62	0.000706
2450.27	0.000735
2459.91	0.000704
2469.56	0.000682
2479.21	0.000673
2488.85	0.000696
2498.5	0.000684
2508.15	0.000753
2517.79	0.000778
2527.44	0.000856
2537.09	0.000784
2546.73	0.000763
2556.38	0.000734
2566.03	0.000776
2575.67	0.000722
2585.32	0.000834
2594.96	0.0008807
2604.61	0.0008971
2614.26	0.0009
2623.9	0.0009174
2633.55	0.0009602
2643.2	0.000864
2652.84	0.0009668
2662.49	0.00102544
2672.14	0.001126
2681.78	0.0012291
2691.43	0.0012753
2701.08	0.0011765
2710.72	0.0012017
2720.37	0.0013294
2730.02	0.0015856
2739.66	0.0019089
2749.31	0.0019552
2758.96	0.0017148
2768.6	0.001752
2778.25	0.001977
2787.9	0.002207
2797.54	0.002637
2807.19	0.002937
2816.84	0.003417
2826.48	0.004007
2836.13	0.005337
2845.77	0.007047
2855.42	0.010247
2865.07	0.015847
2874.71	0.026007
2884.36	0.031897
2894.01	0.027797
2903.65	0.024047
2913.3	0.026717
2922.95	0.035057
2932.59	0.049217
2942.24	0.057547
2951.89	0.056867
2961.53	0.064087
2971.18	0.072167
2980.83	0.054187
2990.47	0.028537
3000.12	0.017227
3009.77	0.013037
3019.41	0.011097
3029.06	0.012437
3038.71	0.023377
3048.35	0.041927
3058	0.040447
3067.64	0.019827
3077.29	0.009467
3086.94	0.006587
3096.58	0.005597
3106.23	0.005107
3115.88	0.004687
3125.52	0.003617
3135.17	0.002657
3144.82	0.0017143
3154.46	0.001364
3164.11	0.0011407
3173.76	0.0008816
3183.4	0.0009327
3193.05	0.000869
3202.7	0.000631
3212.34	0.000633
3221.99	0.000512
3231.64	0.000285
3241.28	0.000345
3250.93	0.00025
3260.58	0.000427
3270.22	0.000425
3279.87	0.000338
3289.52	0.000142
3299.16	0.000363
3308.81	0.000145
3318.45	0.000156
3328.1	0.000108
3337.75	0.000263
3347.39	0.000245
3357.04	0.000516
3366.69	0.000311
3376.33	9.7e-05
3385.98	0.000152
3395.63	0.000287
3405.27	9.8e-05
3414.92	9e-05
3424.57	0.000198
3434.21	8.5e-05
3443.86	0.00021
3453.51	0.000142
3463.15	0.000258
3472.8	0.000189
3482.45	4.4e-05
3492.09	7.2e-05
3501.74	0.000193
3511.39	0.000271
3521.03	0.000307
3530.68	0.000179
3540.33	0.000397
3549.97	3.3e-05
3559.62	0.000272
3569.26	7.4e-05
3578.91	0.000145
3588.56	0.000233
3598.2	0.000306
3607.85	0.000155
3617.5	0.000163
3627.14	0.000242
3636.79	0.000228
3646.44	0.000337
3656.08	0.000221
3665.73	0.00019
3675.38	0.000123
3685.02	0.000204
3694.67	0.000293
3704.32	0.000277
3713.96	0.000264
3723.61	0.000294
3733.26	0.000291
3742.9	0.000326
3752.55	0.000355
3762.2	0.000242
3771.84	0.000288
3781.49	0.000371
3791.13	0.0004
3800.78	0.000203
3810.43	0.000376
3820.07	0.000427
3829.72	0.000357
3839.37	0.000254
3849.01	0.000269
3858.66	0.000386
3868.31	0.000476
3877.95	0.000515
3887.6	0.000451
3897.25	0.00053
3906.89	0.000567
3916.54	0.000589
3926.19	0.000762
3935.83	0.00067
3945.48	0.000742
3955.13	0.000667
3964.77	0.000871
3974.42	0.000629
3984.07	0.000647
3993.71	0.000508
