Infrared Spectrum: 4-Phenylurazole
Formula: C 8 H 7 N 3 O 2
CAS: 15988-11-1
State: gas
Origin: EPA-IR VAPOR PHASE LIBRARY
1/CM	ABSORBANCE
549.8	0.00375
559.445	0.00368
569.09	0.00378
578.735	0.00457
588.38	0.00732
598.025	0.01092
607.67	0.00896
617.315	0.00458
626.96	0.00355
636.605	0.00282
646.251	0.00172
655.896	0.00155
665.541	0.00245
675.186	0.00403
684.831	0.00434
694.476	0.00309
704.121	0.00301
713.766	0.00383
723.411	0.00295
733.056	0.0035
742.701	0.00576
752.346	0.0073
761.991	0.00885
771.636	0.01156
781.281	0.00972
790.926	0.00551
800.571	0.00336
810.216	0.00257
819.861	0.00218
829.507	0.0019
839.152	0.00173
848.797	0.00156
858.442	0.0013939
868.087	0.0013361
877.732	0.0011694
887.377	0.0011758
897.022	0.001229
906.667	0.0012303
916.312	0.0012069
925.957	0.0011305
935.602	0.0010958
945.247	0.001129
954.892	0.0011444
964.537	0.0011615
974.182	0.0011254
983.827	0.0011473
993.472	0.0012457
1003.12	0.0012692
1012.76	0.0011028
1022.41	0.0011385
1032.05	0.001333
1041.7	0.00147
1051.34	0.00163
1060.99	0.00191
1070.63	0.00243
1080.28	0.00293
1089.92	0.00333
1099.57	0.00315
1109.21	0.00261
1118.86	0.00219
1128.5	0.00181
1138.15	0.00163
1147.79	0.0016
1157.44	0.00171
1167.08	0.00195
1176.73	0.00236
1186.37	0.00317
1196.02	0.00387
1205.66	0.00395
1215.31	0.00329
1224.95	0.00269
1234.6	0.00298
1244.24	0.00252
1253.89	0.00145
1263.53	0.0011597
1273.18	0.0012399
1282.82	0.0013204
1292.47	0.0012833
1302.11	0.00145
1311.76	0.00168
1321.4	0.0027
1331.05	0.00519
1340.69	0.00473
1350.34	0.00207
1359.98	0.00167
1369.63	0.00216
1379.27	0.0033
1388.92	0.00558
1398.56	0.01072
1408.21	0.01901
1417.85	0.02125
1427.5	0.0123
1437.14	0.00512
1446.79	0.00323
1456.43	0.00262
1466.08	0.0025
1475.73	0.00252
1485.37	0.003
1495.02	0.00724
1504.66	0.00911
1514.31	0.00397
1523.95	0.00212
1533.6	0.0017
1543.24	0.00143
1552.89	0.001147
1562.53	0.0010962
1572.18	0.0012155
1581.82	0.00164
1591.47	0.00262
1601.11	0.00309
1610.76	0.00199
1620.4	0.0012733
1630.05	0.001149
1639.69	0.0010136
1649.34	0.0009661
1658.98	0.0010288
1668.63	0.0010331
1678.27	0.0010312
1687.92	0.0012977
1697.56	0.00172
1707.21	0.00228
1716.85	0.00313
1726.5	0.00502
1736.14	0.00875
1745.79	0.01851
1755.43	0.04091
1765.08	0.05548
1774.72	0.03907
1784.37	0.01684
1794.01	0.00898
1803.66	0.00643
1813.3	0.00546
1822.95	0.00395
1832.59	0.00247
1842.24	0.00185
1851.88	0.00148
1861.53	0.001323
1871.17	0.0011468
1880.82	0.0010988
1890.46	0.000998
1900.11	0.0009203
1909.75	0.0008167
1919.4	0.0008183
1929.04	0.0008032
1938.69	0.0008928
1948.33	0.0009003
1957.98	0.0008402
1967.62	0.0007993
1977.27	0.0007604
1986.91	0.0007113
1996.56	0.000702
2006.2	0.0006709
2015.85	0.0006707
2025.49	0.0006362
2035.14	0.0006227
2044.78	0.0006166
2054.43	0.0005949
2064.07	0.0005637
2073.72	0.0005744
2083.36	0.0005576
2093.01	0.0005678
2102.65	0.0005719
2112.3	0.0005538
2121.94	0.0005807
2131.59	0.0005225
2141.23	0.0005592
2150.88	0.000621
2160.52	0.0007048
2170.17	0.0007159
2179.81	0.0008195
2189.46	0.0008609
2199.1	0.0009322
2208.75	0.0010174
2218.39	0.0009344
2228.04	0.0010365
2237.68	0.0013206
2247.33	0.00198
2256.97	0.00286
2266.62	0.00369
2276.26	0.00413
2285.91	0.00379
2295.55	0.00248
2305.2	0.00145
2314.84	0.0009409
2324.49	0.0007
2334.13	0.0006836
2343.78	0.0005933
2353.42	0.000528
2363.07	0.0006338
2372.72	0.0006061
2382.36	0.0005978
2392.01	0.0005075
2401.65	0.0003679
2411.3	0.0003512
2420.94	0.00042683
2430.59	0.000403918
2440.23	0.0003751
2449.88	0.00028
2459.52	0.0003409
2469.17	0.000402027
2478.81	0.00041341
2488.46	0.0003317
2498.1	0.0003293
2507.75	0.0003398
2517.39	0.000294
2527.04	0.000293
2536.68	0.000277
2546.33	0.000228
2555.97	0.000251
2565.62	0.000259
2575.26	0.0003166
2584.91	0.0003195
2594.55	0.000282
2604.2	0.0003351
2613.84	0.0003344
2623.49	0.000284
2633.13	0.000219
2642.78	0.000204
2652.42	0.000184
2662.07	0.000219
2671.71	0.000241
2681.36	0.000115
2691	0.000204
2700.65	0.000173
2710.29	0.000218
2719.94	0.000214
2729.58	0.000191
2739.23	0.000104
2748.87	0.000174
2758.52	0.000143
2768.16	0.000202
2777.81	0.000127
2787.45	0.000124
2797.1	0.000123
2806.74	8.7e-05
2816.39	1.9e-05
2826.03	7.4e-05
2835.68	0.000191
2845.32	6.3e-05
2854.97	0.000119
2864.61	9.7e-05
2874.26	0.000167
2883.9	4.5e-05
2893.55	0.000129
2903.19	0.000122
2912.84	0.000139
2922.48	7.8e-05
2932.13	0.000117
2941.77	4.9e-05
2951.42	2e-05
2961.06	0.000163
2970.71	1.7e-05
2980.35	7.4e-05
2990	6.8e-05
2999.64	0.000133
3009.29	6.4e-05
3018.93	0.0003088
3028.58	0.00043972
3038.22	0.0007546
3047.87	0.0009332
3057.51	0.0013193
3067.16	0.00147
3076.8	0.00173
3086.45	0.0013832
3096.09	0.0007937
3105.74	0.0006368
3115.38	0.00043169
3125.03	0.000212
3134.67	9.1e-05
3144.32	0.000152
3153.96	0.000211
3163.61	0.00016
3173.25	0.000186
3182.9	0.000128
3192.54	0.000173
3202.19	0.000199
3211.83	0.000206
3221.48	0.000179
3231.12	0.000219
3240.77	0.000115
3250.41	4.6e-05
3260.06	0.000233
3269.7	0.00018
3279.35	0.000252
3289	0.00016
3298.64	0.000252
3308.29	0.000273
3317.93	0.000196
3327.58	0.0003743
3337.22	0.0003339
3346.87	0.000259
3356.51	0.0003569
3366.16	0.0005255
3375.8	0.0009681
3385.45	0.00486
3395.09	0.0092
3404.74	0.00459
3414.38	0.0010518
3424.03	0.0005586
3433.67	0.00041501
3443.32	0.0003765
3452.96	0.0003538
3462.61	0.00039544
3472.25	0.00039099
3481.9	0.0003413
3491.54	0.0003565
3501.19	0.00046836
3510.83	0.0003707
3520.48	0.0003568
3530.12	0.0003745
3539.77	0.00039248
3549.41	0.0005891
3559.06	0.0006344
3568.7	0.0007134
3578.35	0.0006309
3587.99	0.00048977
3597.64	0.0003121
3607.28	0.00046001
3616.93	0.0003117
3626.57	0.0003282
3636.22	0.0003838
3645.86	0.000273
3655.51	0.000289
3665.15	0.000235
3674.8	0.0003267
3684.44	0.00024
3694.09	0.0003641
3703.73	0.000197
3713.38	0.000256
3723.02	0.0003439
3732.67	0.00022
3742.31	0.000204
3751.96	0.000401212
3761.6	0.000193
3771.25	0.0003174
3780.89	0.0003421
3790.54	0.000239
3800.18	0.000312
3809.83	0.000209
3819.47	0.000296
3829.12	0.000238
3838.76	0.000152
3848.41	0.000241
3858.05	0.000173
3867.7	6.7e-05
3877.34	0.000119
3886.99	0.00015
3896.63	0.00021
3906.28	0.000212
3915.92	0.000202
3925.57	0.000243
3935.21	0.0003041
3944.86	9.1e-05
3954.5	0.00039813
3964.15	0.000191
3973.79	0.000287
3983.44	0.0003285
3993.08	0.000273
