Infrared Spectrum: 2-MORPHOLINONE, 4-DODECYL-
Formula: C16 H31 N O2
CAS: 15989-02-3
State: SOLID (OIL MULL)
Class: COBLENTZ III
Instrument: BAIRD (GRATING)
Instrument parameters: NaCl PRISM
Sampling: TRANSMISSION
Resolution: 2
Origin: WYANDOTTE CHEMICALS CORP.
1/CM	TRANSMITTANCE
4000	0.8825
3991	0.8848
3982	0.8871
3973	0.8891
3964	0.8907
3955	0.8921
3946	0.8927
3937	0.8931
3928	0.8915
3919	0.8885
3910	0.8832
3901	0.8816
3892	0.8831
3883	0.887
3874	0.8947
3865	0.9005
3856	0.903
3847	0.9041
3838	0.9049
3829	0.9054
3820	0.9055
3811	0.9056
3802	0.9054
3793	0.9043
3784	0.9027
3775	0.9011
3766	0.8994
3757	0.8988
3748	0.8992
3739	0.8995
3730	0.9002
3721	0.901
3712	0.9018
3703	0.9025
3694	0.9033
3685	0.904
3676	0.9046
3667	0.9053
3658	0.9058
3649	0.9064
3640	0.9068
3631	0.907
3622	0.9071
3613	0.9068
3604	0.9065
3595	0.9055
3586	0.9042
3577	0.9027
3568	0.9009
3559	0.899
3550	0.8961
3541	0.893
3532	0.8895
3523	0.8858
3514	0.8814
3505	0.874
3496	0.8649
3487	0.8521
3478	0.8362
3469	0.8342
3460	0.8339
3451	0.8388
3442	0.8493
3433	0.8625
3424	0.8771
3415	0.8839
3406	0.8865
3397	0.8871
3388	0.8878
3379	0.8875
3370	0.8871
3361	0.8866
3352	0.8858
3343	0.8844
3334	0.8839
3325	0.8862
3316	0.8889
3307	0.8906
3298	0.8918
3289	0.8916
3280	0.888
3271	0.8838
3262	0.8799
3253	0.8766
3244	0.874
3235	0.8716
3226	0.8698
3217	0.8682
3208	0.8667
3199	0.8653
3190	0.8638
3181	0.8628
3172	0.8621
3163	0.8621
3154	0.8621
3145	0.8615
3136	0.8603
3127	0.8573
3118	0.8511
3109	0.8436
3100	0.8339
3091	0.8215
3082	0.8038
3073	0.7586
3064	0.7161
3055	0.6881
3046	0.5855
3037	0.4909
3028	0.3692
3019	0.2467
3010	0.1236
3001	0.0316
2992	0.0344
2983	0.0371
2974	0.0381
2965	0.0386
2956	0.0391
2947	0.04
2938	0.0419
2929	0.0448
2920	0.0473
2911	0.0489
2902	0.0491
2893	0.0453
2884	0.0588
2875	0.1087
2866	0.1589
2857	0.2095
2848	0.2603
2839	0.2709
2830	0.277
2821	0.3382
2812	0.4118
2803	0.4589
2794	0.4676
2785	0.4773
2776	0.5466
2767	0.6387
2758	0.6562
2749	0.6735
2740	0.6925
2731	0.7128
2722	0.7364
2713	0.7543
2704	0.7578
2695	0.7599
2686	0.7668
2677	0.7753
2668	0.786
2659	0.7969
2650	0.8085
2641	0.8195
2632	0.8306
2623	0.842
2614	0.8531
2605	0.8616
2596	0.8694
2587	0.8768
2578	0.8832
2569	0.8883
2560	0.8936
2551	0.8985
2542	0.903
2533	0.9073
2524	0.912
2515	0.9157
2506	0.917
2497	0.9132
2488	0.9113
2479	0.9113
2470	0.9125
2461	0.9137
2452	0.9144
2443	0.914
2434	0.9134
2425	0.9127
2416	0.9118
2407	0.9105
2398	0.9091
2389	0.9078
2380	0.9065
2371	0.9043
2362	0.9039
2353	0.9041
2344	0.9045
2335	0.9058
2326	0.9151
2317	0.9261
2308	0.9347
2299	0.9392
2290	0.9394
2281	0.9327
2272	0.9306
2263	0.9321
2254	0.9336
2245	0.9351
2236	0.9365
2227	0.9378
2218	0.9398
2209	0.9408
2200	0.9394
2191	0.9395
2182	0.942
2173	0.9446
2164	0.947
2155	0.9464
2146	0.9446
2137	0.9439
2128	0.9465
2119	0.95
2110	0.954
2101	0.958
2092	0.9616
2083	0.9635
2074	0.9641
2065	0.9634
2056	0.9591
2047	0.944
2038	0.939
2029	0.9402
2020	0.9408
2011	0.9414
2002	0.9427
1993	0.9447
1984	0.9482
1975	0.9516
1966	0.9554
1957	0.9592
1948	0.9625
1939	0.9628
1930	0.9578
1921	0.9598
1912	0.9545
1903	0.9459
1894	0.9454
1885	0.9249
1876	0.9264
1867	0.9359
1858	0.9406
1849	0.9407
1840	0.9383
1831	0.9354
1822	0.8886
1813	0.8624
1804	0.868
1795	0.8485
1786	0.8022
1777	0.7556
1768	0.4619
1759	0.2751
1750	0.0971
1741	0.0499
1732	0.0932
1723	0.2321
1714	0.4601
1705	0.5253
1696	0.6248
1687	0.6869
1678	0.7311
1669	0.7601
1660	0.7696
1651	0.7843
1642	0.8261
1633	0.8393
1624	0.8416
1615	0.8536
1606	0.8671
1597	0.8658
1588	0.8689
1579	0.8834
1570	0.8827
1561	0.8668
1552	0.8554
1543	0.8528
1534	0.8573
1525	0.8423
1516	0.8158
1507	0.7878
1498	0.7121
1489	0.3723
1480	0.074
1471	0.1109
1462	0.2625
1453	0.4342
1444	0.5605
1435	0.5316
1426	0.3714
1417	0.4368
1408	0.6019
1399	0.5659
1390	0.2872
1381	0.4547
1372	0.5893
1363	0.6095
1354	0.2894
1345	0.238
1336	0.5693
1327	0.5732
1318	0.6017
1309	0.6355
1300	0.2922
1291	0.3776
1282	0.5
1273	0.482
1264	0.3391
1255	0.0707
1246	0.1572
1237	0.3992
1228	0.5748
1219	0.6382
1210	0.5195
1201	0.5451
1192	0.6346
1183	0.5548
1174	0.633
1165	0.6768
1156	0.3019
1147	0.2462
1138	0.5022
1129	0.6592
1120	0.7353
1111	0.7593
1102	0.7425
1093	0.6365
1084	0.3253
1075	0.0736
1066	0.3695
1057	0.5401
1048	0.6521
1039	0.6968
1030	0.7428
1021	0.3445
1012	0.5684
1003	0.5797
994	0.6792
985	0.4242
976	0.6671
967	0.7711
958	0.7833
949	0.678
940	0.4139
931	0.7355
922	0.8092
913	0.8367
904	0.8506
895	0.8273
886	0.8313
877	0.8638
868	0.867
859	0.8725
850	0.8624
841	0.8232
832	0.7498
823	0.8686
814	0.8659
805	0.776
796	0.6791
787	0.8489
778	0.876
769	0.8728
760	0.8401
751	0.858
742	0.8174
733	0.6824
724	0.5631
715	0.8439
706	0.8916
697	0.8998
688	0.8971
679	0.8306
670	0.7792
661	0.8592
652	0.8518
643	0.8333
634	0.8118
