Infrared Spectrum: 1,4-Thioxane
Formula: C 4 H 8 O S
CAS: 15980-15-1
State: liquid
Instrument: Bruker Tensor 27 FTIR
Resolution: 0.48212986
Origin: Pacific Northwest National Laboratory Under IARPA Contract
1/CM	dispersion index
7797.49	1.48896
7778.93	1.48896
7760.37	1.48895
7741.81	1.48895
7723.24	1.48894
7704.68	1.48894
7686.12	1.48893
7667.56	1.48892
7649	1.48892
7630.44	1.48891
7611.88	1.4889
7593.31	1.4889
7574.75	1.48889
7556.19	1.48888
7537.63	1.48887
7519.07	1.48887
7500.51	1.48886
7481.95	1.48886
7463.38	1.48885
7444.82	1.48884
7426.26	1.48883
7407.7	1.48883
7389.14	1.48882
7370.58	1.48881
7352.02	1.4888
7333.46	1.48879
7314.89	1.48879
7296.33	1.48878
7277.77	1.48877
7259.21	1.48876
7240.65	1.48875
7222.09	1.48874
7203.53	1.48873
7184.96	1.48872
7166.4	1.4887
7147.84	1.48869
7129.28	1.48868
7110.72	1.48867
7092.16	1.48866
7073.6	1.48864
7055.03	1.48863
7036.47	1.48862
7017.91	1.4886
6999.35	1.48859
6980.79	1.48857
6962.23	1.48855
6943.67	1.48853
6925.1	1.48851
6906.54	1.48849
6887.98	1.48846
6869.42	1.48842
6850.86	1.48837
6832.3	1.48842
6813.74	1.48839
6795.17	1.4884
6776.61	1.4884
6758.05	1.48846
6739.49	1.48847
6720.93	1.48849
6702.37	1.48844
6683.81	1.48841
6665.25	1.48838
6646.68	1.48836
6628.12	1.48834
6609.56	1.48831
6591	1.48828
6572.44	1.48826
6553.88	1.48824
6535.32	1.48821
6516.75	1.48819
6498.19	1.48816
6479.63	1.48813
6461.07	1.48811
6442.51	1.48808
6423.95	1.48805
6405.39	1.48801
6386.82	1.48798
6368.26	1.48794
6349.7	1.48791
6331.14	1.48787
6312.58	1.48783
6294.02	1.48779
6275.46	1.48775
6256.89	1.4877
6238.33	1.48765
6219.77	1.48759
6201.21	1.48753
6182.65	1.48746
6164.09	1.48738
6145.53	1.48728
6126.96	1.48715
6108.4	1.48696
6089.84	1.48681
6071.28	1.48733
6052.72	1.48739
6034.16	1.48721
6015.6	1.48719
5997.03	1.48707
5978.47	1.48711
5959.91	1.48714
5941.35	1.48692
5922.79	1.48698
5904.23	1.48684
5885.67	1.48668
5867.11	1.48671
5848.54	1.48684
5829.98	1.4868
5811.42	1.48658
5792.86	1.48637
5774.3	1.48628
5755.74	1.48605
5737.18	1.48579
5718.61	1.48553
5700.05	1.4853
5681.49	1.48507
5662.93	1.48469
5644.37	1.48478
5625.81	1.48505
5607.25	1.48528
5588.68	1.48507
5570.12	1.4846
5551.56	1.48405
5533	1.4835
5514.44	1.48273
5495.88	1.48196
5477.32	1.48103
5458.75	1.47959
5440.19	1.47759
5421.63	1.47443
5403.07	1.46855
5384.51	1.45082
5365.95	1.48752
5347.39	1.50523
5328.82	1.47663
5310.26	1.51422
5291.7	1.5041
5273.14	1.49986
5254.58	1.49632
5236.02	1.49739
5217.46	1.49466
5198.89	1.4936
5180.33	1.49262
5161.77	1.49181
5143.21	1.49106
5124.65	1.49053
5106.09	1.48996
5087.53	1.48973
5068.97	1.48953
5050.4	1.48907
5031.84	1.48845
5013.28	1.48745
4994.72	1.48861
4976.16	1.48761
4957.6	1.48675
4939.04	1.48729
4920.47	1.48651
4901.91	1.48601
4883.35	1.48536
4864.79	1.48295
4846.23	1.48593
4827.67	1.48446
4809.11	1.48406
4790.54	1.48323
4771.98	1.48217
4753.42	1.48144
4734.86	1.47975
4716.3	1.47891
4697.74	1.47754
4679.18	1.47446
4660.61	1.47051
4642.05	1.4627
4623.49	1.48145
4604.93	1.49455
4586.37	1.4923
4567.81	1.465
4549.25	1.44315
4530.68	1.51865
4512.12	1.47404
4493.56	1.48964
4475	1.47728
4456.44	1.36411
4437.88	1.55162
4419.32	1.5138
4400.75	1.51512
4382.19	1.51948
4363.63	1.52953
4345.07	1.51127
4326.51	1.4928
4307.95	1.58603
4289.39	1.5262
4270.83	1.51436
4252.26	1.50541
4233.7	1.4878
4215.14	1.50971
4196.58	1.4981
4178.02	1.43386
4159.46	1.5225
4140.9	1.51252
4122.33	1.50789
4103.77	1.5105
4085.21	4.24018e-06
4066.65	6.04505e-06
4048.09	7.0931e-06
4029.53	9.04838e-06
4010.97	8.84037e-06
3992.4	7.47231e-06
3973.84	6.80669e-06
3955.28	8.19554e-06
3936.72	9.04358e-06
3918.16	7.95393e-06
3899.6	9.79401e-06
3881.04	1.01444e-05
3862.47	1.16757e-05
3843.91	1.95512e-05
3825.35	3.14861e-05
3806.79	3.24478e-05
3788.23	3.4435e-05
3769.67	3.11117e-05
3751.11	3.11741e-05
3732.54	3.22766e-05
3713.98	3.07021e-05
3695.42	2.86044e-05
3676.86	2.65435e-05
3658.3	2.4745e-05
3639.74	2.30058e-05
3621.18	2.09897e-05
3602.61	1.83304e-05
3584.05	1.72231e-05
3565.49	1.87144e-05
3546.93	1.72119e-05
3528.37	1.56695e-05
3509.81	1.15701e-05
3491.25	1.03572e-05
3472.69	1.04484e-05
3454.12	1.04628e-05
3435.56	9.37319e-06
3417	8.07554e-06
3398.44	6.73948e-06
3379.88	6.27706e-06
3361.32	6.13306e-06
3342.76	6.49147e-06
3324.19	6.43707e-06
3305.63	6.04025e-06
3287.07	5.64824e-06
3268.51	6.41307e-06
3249.95	7.74113e-06
3231.39	8.52516e-06
3212.83	9.84521e-06
3194.26	1.74711e-05
3175.7	3.77312e-05
3157.14	0.000136974
3138.58	0.000402146
3120.02	0.000336925
3101.46	0.00046077
3082.9	0.00053373
3064.33	0.000682345
3045.77	0.0004844
3027.21	0.000362626
3008.65	0.000188315
2990.09	0.000158792
2971.53	0.000159063
2952.97	0.000148035
2934.4	0.000120261
2915.84	0.000112595
2897.28	0.000112086
2878.72	0.000120026
2860.16	0.000120792
2841.6	0.00011828
2823.04	0.000113483
2804.47	0.000106944
2785.91	0.000100587
2767.35	9.63896e-05
2748.79	9.09654e-05
2730.23	8.60948e-05
2711.67	8.11298e-05
2693.11	8.32627e-05
2674.55	9.12454e-05
2655.98	9.59016e-05
2637.42	9.9761e-05
2618.86	9.78329e-05
2600.3	9.36807e-05
2581.74	9.05158e-05
2563.18	8.71829e-05
2544.62	8.16626e-05
2526.05	7.58112e-05
2507.49	8.29891e-05
2488.93	9.60824e-05
2470.37	0.000104643
2451.81	0.000138908
2433.25	0.000215438
2414.69	0.000409158
2396.12	0.00127325
2377.56	0.00327075
2359	0.001819
2340.44	0.00139823
2321.88	0.00134244
2303.32	0.00146201
2284.76	0.00158126
2266.19	0.00169875
2247.63	0.000998612
2229.07	0.00157746
2210.51	0.00132375
2191.95	0.00130068
2173.39	0.00193003
2154.83	0.00209395
2136.26	0.00141385
2117.7	0.000789784
2099.14	0.000795656
2080.58	0.000841533
2062.02	0.000686768
2043.46	0.000586033
2024.9	0.000872105
2006.33	0.0012975
1987.77	0.0018179
1969.21	0.00239958
1950.65	0.00406602
1932.09	0.00510688
1913.53	0.00440146
1894.97	0.00308524
1876.41	0.00198188
1857.84	0.00148139
1839.28	0.00124921
1820.72	0.00108998
1802.16	0.00154478
1783.6	0.00167125
1765.04	0.00140563
1746.48	0.00180933
1727.91	0.00293793
1709.35	0.00556669
1690.79	0.0174317
1672.23	0.185372
1653.67	0.172279
1635.11	0.0616329
1616.55	0.0455623
1597.98	0.0126441
1579.42	0.0109762
1560.86	0.00815001
1542.3	0.00965482
1523.74	0.00261227
1505.18	0.00171208
1486.62	0.00136276
1468.05	0.00117663
1449.49	0.0010714
1430.93	0.00177938
1412.37	0.001759
1393.81	0.00306748
1375.25	0.00185071
1356.69	0.00136355
1338.12	0.00135623
1319.56	0.00176003
1301	0.00424013
1282.44	0.00122278
1263.88	0.00115641
1245.32	0.00245982
1226.76	0.00127097
1208.19	0.00155224
1189.63	0.00193497
1171.07	0.00244632
1152.51	0.00389019
1133.95	0.00129346
1115.39	0.00299573
1096.83	0.00121041
1078.27	0.00108439
1059.7	0.00229045
1041.14	0.00159235
1022.58	0.00478837
1004.02	0.0036608
985.458	0.0012672
966.897	0.00290947
948.335	0.00589591
929.774	0.0674642
911.213	0.109413
892.651	0.104964
874.09	0.0238237
855.528	0.0709775
836.967	0.103022
818.406	0.0195573
799.844	0.170238
781.283	0.0906513
762.721	0.0368395
744.16	0.11835
725.599	0.0522779
707.037	0.0954496
688.476	0.0597985
669.915	0.0173575
651.353	0.00629733
632.792	0.0118872
614.23	0.26547
595.669	0.0178086
577.108	0.0097968
558.546	0.00456141
539.985	0.0141789
521.423	0.00788746
502.862	0.0071741
484.301	0.0479666
465.739	0.0148429
447.178	0.00883609
428.616	0.0131408
410.055	0.0465468
