Infrared Spectrum: 1-Docosene
Formula: C 22 H 44
CAS: 1599-67-3
State: gas
Instrument: HP-GC/MS/IRD
Origin: NIST Mass Spectrometry Data Center
1/CM	ABSORBANCE
550	0.000189
562	6.3e-05
574	0.000189
586	0.000207
598	0.000288
610	0.000423
622	0.000504
634	0.00054
646	0.000369
658	0.000315
670	0.000351
682	0.000423
694	0.000594
706	0.000945
718	0.001368
730	0.001233
742	0.000918
754	0.000711
766	0.000621
778	0.000513
790	0.000495
802	0.000423
814	0.000423
826	0.000486
838	0.000531
850	0.000522
862	0.000648
874	0.000756
886	0.00108
898	0.001818
910	0.003519
922	0.002529
934	0.001431
946	0.00108
958	0.000972
970	0.001035
982	0.001341
994	0.001719
1006	0.001197
1018	0.000864
1030	0.000693
1042	0.000585
1054	0.00054
1066	0.000522
1078	0.000513
1090	0.00045
1102	0.000432
1114	0.000414
1126	0.000396
1138	0.00036
1150	0.000342
1162	0.00036
1174	0.000351
1186	0.000387
1198	0.000423
1210	0.000396
1222	0.000432
1234	0.00045
1246	0.000522
1258	0.000621
1270	0.000738
1282	0.000963
1294	0.001206
1306	0.00144
1318	0.001287
1330	0.00135
1342	0.001962
1354	0.002448
1366	0.001935
1378	0.001341
1390	0.00099
1402	0.000855
1414	0.001035
1426	0.001368
1438	0.002574
1450	0.004743
1462	0.005913
1474	0.003348
1486	0.001314
1498	0.000729
1510	0.000396
1522	0.000342
1534	0.000306
1546	0.000243
1558	0.000234
1570	0.000225
1582	0.000225
1594	0.000252
1606	0.000315
1618	0.000495
1630	0.000963
1642	0.001512
1654	0.000585
1666	0.000243
1678	0.000135
1690	0.000108
1702	7.2e-05
1714	4.5e-05
1726	5.4e-05
1738	2.7e-05
1750	0
1762	2.7e-05
1774	3.6e-05
1786	4.5e-05
1798	8.1e-05
1810	0.000144
1822	0.000306
1834	0.000306
1846	0.000126
1858	7.2e-05
1870	3.6e-05
1882	2.7e-05
1894	4.5e-05
1906	4.5e-05
1918	3.6e-05
1930	3.6e-05
1942	3.6e-05
1954	4.5e-05
1966	6.3e-05
1978	7.2e-05
1990	6.3e-05
2002	6.3e-05
2014	8.1e-05
2026	0.000117
2038	0.000126
2050	9.9e-05
2062	8.1e-05
2074	9e-05
2086	7.2e-05
2098	5.4e-05
2110	6.3e-05
2122	7.2e-05
2134	5.4e-05
2146	7.2e-05
2158	8.1e-05
2170	9e-05
2182	7.2e-05
2194	6.3e-05
2206	9.9e-05
2218	8.1e-05
2230	9e-05
2242	9.9e-05
2254	8.1e-05
2266	9.9e-05
2278	8.1e-05
2290	9.9e-05
2302	9e-05
2314	9.9e-05
2326	8.1e-05
2338	8.1e-05
2350	9.9e-05
2362	6.3e-05
2374	8.1e-05
2386	9.9e-05
2398	8.1e-05
2410	0.000126
2422	0.000117
2434	0.000117
2446	9.9e-05
2458	0.000108
2470	0.000117
2482	0.000126
2494	0.000135
2506	0.000153
2518	0.000189
2530	0.000243
2542	0.00027
2554	0.00027
2566	0.000279
2578	0.000306
2590	0.00036
2602	0.000378
2614	0.000432
2626	0.000486
2638	0.000558
2650	0.000648
2662	0.000738
2674	0.000828
2686	0.000864
2698	0.000792
2710	0.000756
2722	0.000774
2734	0.000837
2746	0.000909
2758	0.001035
2770	0.001143
2782	0.001404
2794	0.001863
2806	0.002421
2818	0.00333
2830	0.004842
2842	0.008739
2854	0.022626
2866	0.031896
2878	0.018954
2890	0.016002
2902	0.022158
2914	0.038394
2926	0.076608
2938	0.079308
2950	0.035838
2962	0.019872
2974	0.013455
2986	0.007497
2998	0.005067
3010	0.003807
3022	0.002655
3034	0.002007
3046	0.001638
3058	0.001593
3070	0.001827
3082	0.002619
3094	0.001872
3106	0.000945
3118	0.000666
3130	0.000549
3142	0.000504
3154	0.000423
3166	0.00036
3178	0.000324
3190	0.000279
3202	0.000234
3214	0.000225
3226	0.000189
3238	0.00018
3250	0.000171
3262	0.000144
3274	0.000135
3286	0.000162
3298	0.000126
3310	0.000108
3322	0.000108
3334	0.000108
3346	0.000144
3358	0.000126
3370	0.000135
3382	0.000144
3394	0.000135
3406	0.000126
3418	0.000153
3430	8.1e-05
3442	0.000108
3454	0.000117
3466	0.000117
3478	9e-05
3490	0.000117
3502	9.9e-05
3514	0.000108
3526	8.1e-05
3538	9e-05
3550	9.9e-05
3562	0.000117
3574	0.000144
3586	8.1e-05
3598	0.00018
3610	0.000198
3622	0.000171
3634	0.000234
3646	0.000207
3658	0.000234
3670	0.000225
3682	0.000207
3694	0.000207
3706	0.000198
3718	0.000234
3730	0.000198
3742	0.000153
3754	0.000207
3766	0.000225
3778	0.000261
3790	0.000234
3802	0.00027
3814	0.000234
3826	0.000252
3838	0.000252
