Infrared Spectrum: PROPANE, 1,2,2-TRICHLORO-1,1,3,3,3-PENTAFLUORO-
Formula: C3 Cl3 F5
CAS: 1599-41-3
State: SOLUTION (10% IN CCl4 FOR 3800-1330, AND 10% IN CS2 FOR 1330-400 CM^-^1)
Class: COBLENTZ III
Instrument: BECKMAN IR-9 (GRATING)
Instrument parameters: ORDER CHANGES AT 670, 1200, 2000 CM^-^1
Sampling: TRANSMISSION
Path length: 0.011, 0.011 CM
Resolution: 4
Origin: DOW CHEMICAL COMPANY
1/CM	TRANSMITTANCE
401.796	0.863
410.487	0.52
419.177	0.502
427.868	0.569
436.559	0.709
445.249	0.786
453.94	0.855
462.631	0.914
471.321	0.946
480.012	0.974
488.702	1
497.393	1.013
506.084	1.027
514.774	1.049
523.465	1.053
532.156	1.054
540.846	1.025
549.537	0.8251
558.228	0.953
566.918	1.02
575.609	1.065
584.3	1.069
592.99	1.073
601.681	1.066
610.371	1.05
619.062	1.025
627.753	0.709
636.443	0.918
645.134	0.991
653.825	0.979
662.515	1.006
671.206	1.034
679.897	1.049
688.587	1.013
697.278	0.598
705.969	0.4931
714.659	0.961
723.35	0.892
732.041	0.8261
740.731	1.038
749.422	1.051
758.112	1.049
766.803	1.039
775.494	1.019
784.184	1.001
792.875	0.982
801.566	0.8289
810.256	0.2789
818.947	0.0291
827.638	0.41
836.328	0.1131
845.019	0.677
853.71	0.756
862.4	0.753
871.091	0.776
879.781	0.787
888.472	0.6939
897.163	0.2719
905.853	0.02
914.544	0.501
923.235	0.456
931.925	0.156
940.616	0.76
949.307	0.948
957.997	0.96
966.688	0.959
975.379	0.986
984.069	0.997
992.76	1.001
1001.45	0.976
1010.14	0.933
1018.83	0.6929
1027.52	0.148
1036.21	0.4629
1044.9	0.1132
1053.59	0.832
1062.29	0.911
1070.98	0.87
1079.67	0.923
1088.36	0.945
1097.05	0.963
1105.74	0.941
1114.43	0.934
1123.12	0.901
1131.81	0.79
1140.5	0.3839
1149.19	0.196
1157.88	0.354
1166.57	0.201
1175.26	0.634
1183.95	0.698
1192.64	0.587
1201.34	0.222
1210.03	0.009
1218.72	0
1227.41	0
1236.1	0
1244.79	0.002
1253.48	0.0991
1262.17	0.5
1270.86	0.798
1279.55	0.8201
1288.24	0.94
1296.93	0.945
1305.62	0.978
1314.31	0.971
1323	0.98
1331.69	1
1340.39	0.997
1349.08	1.012
1357.77	1.004
1366.46	1.017
1375.15	1.016
1383.84	1.002
1392.53	1.013
1401.22	1.023
1409.91	1.028
1418.6	1.027
1427.29	1.028
1435.98	1.025
1444.67	1.028
1453.36	1.019
1462.05	1.013
1470.75	1.001
1479.44	0.976
1488.13	0.953
1496.82	0.912
1505.51	0.877
1514.2	0.798
1522.89	0.753
1531.58	0.693
1540.27	0.6039
1548.96	0.519
1557.65	0.527
1566.34	0.633
1575.03	0.692
1583.72	0.711
1592.41	0.787
1601.1	0.893
1609.8	0.9421
1618.49	0.98
1627.18	1.005
1635.87	1.014
1644.56	1.025
1653.25	1.025
1661.94	1.027
1670.63	1.025
1679.32	1.027
1688.01	1.031
1696.7	1.032
1705.39	1.034
1714.08	1.042
1722.77	1.044
1731.46	1.044
1740.16	1.046
1748.85	1.044
1757.54	1.042
1766.23	1.04
1774.92	1.032
1783.61	1.034
1792.3	1.032
1800.99	1.038
1809.68	1.039
1818.37	1.039
1827.06	1.039
1835.75	1.04
1844.44	1.034
1853.13	1.035
1861.82	1.038
1870.51	1.039
1879.21	1.04
1887.9	1.044
1896.59	1.049
1905.28	1.046
1913.97	1.043
1922.66	1.044
1931.35	1.047
1940.04	1.042
1948.73	1.044
1957.42	1.044
1966.11	1.042
1974.8	1.04
1983.49	1.04
1992.18	1.0379
2000.87	1.043
2009.57	1.047
2018.26	1.048
2026.95	1.05
2035.64	1.05
2044.33	1.049
2053.02	1.044
2061.71	1.043
2070.4	1.0424
2079.09	1.0478
2087.78	1.05
2096.47	1.051
2105.16	1.0574
2113.85	1.058
2122.54	1.057
2131.23	1.0546
2139.92	1.0482
2148.62	1.0386
2157.31	1.039
2166	1.038
2174.69	1.036
2183.38	1.038
2192.07	1.025
2200.76	1.0306
2209.45	1.047
2218.14	1.053
2226.83	1.055
2235.52	1.0547
2244.21	1.049
2252.9	1.0467
2261.59	1.0375
2270.28	1.0247
2278.98	1.0135
2287.67	1.008
2296.36	1.008
2305.05	1.0082
2313.74	1.0147
2322.43	1.025
2331.12	1.027
2339.81	1.0282
2348.5	1.0352
2357.19	1.039
2365.88	1.039
2374.57	1.0405
2383.26	1.046
2391.95	1.047
2400.64	1.05
2409.33	1.046
2418.03	1.0399
2426.72	1.0349
2435.41	1.0289
2444.1	1.024
2452.79	1.0281
2461.48	1.039
2470.17	1.0461
2478.86	1.0501
2487.55	1.054
2496.24	1.057
2504.93	1.058
2513.62	1.059
2522.31	1.059
2531	1.061
2539.69	1.061
2548.39	1.061
2557.08	1.061
2565.77	1.061
2574.46	1.061
2583.15	1.059
2591.84	1.061
2600.53	1.0591
2609.22	1.061
2617.91	1.061
2626.6	1.0591
2635.29	1.059
2643.98	1.059
2652.67	1.061
2661.36	1.0611
2670.05	1.061
2678.74	1.061
2687.44	1.061
2696.13	1.061
2704.82	1.061
2713.51	1.061
2722.2	1.061
2730.89	1.0582
2739.58	1.058
2748.27	1.0607
2756.96	1.059
2765.65	1.059
2774.34	1.059
2783.03	1.061
2791.72	1.059
2800.41	1.059
2809.1	1.059
2817.8	1.059
2826.49	1.059
2835.18	1.059
2843.87	1.059
2852.56	1.0595
2861.25	1.059
2869.94	1.058
2878.63	1.0543
2887.32	1.058
2896.01	1.059
2904.7	1.0564
2913.39	1.057
2922.08	1.0577
2930.77	1.0517
2939.46	1.05
2948.15	1.051
2956.85	1.0503
2965.54	1.0447
2974.23	1.0466
2982.92	1.051
2991.61	1.054
3000.3	1.0536
3008.99	1.055
3017.68	1.0546
3026.37	1.054
3035.06	1.05
3043.75	1.049
3052.44	1.049
3061.13	1.049
3069.82	1.0484
3078.51	1.049
3087.21	1.049
3095.9	1.043
3104.59	1.043
3113.28	1.043
3121.97	1.042
3130.66	1.042
3139.35	1.042
3148.04	1.0425
3156.73	1.04
3165.42	1.0425
3174.11	1.042
3182.8	1.042
3191.49	1.042
3200.18	1.0426
3208.87	1.04
3217.56	1.0424
3226.26	1.044
3234.95	1.046
3243.64	1.0452
3252.33	1.047
3261.02	1.0482
3269.71	1.049
3278.4	1.05
3287.09	1.049
3295.78	1.049
3304.47	1.049
3313.16	1.047
3321.85	1.0477
3330.54	1.0454
3339.23	1.044
3347.92	1.044
3356.62	1.043
3365.31	1.0414
3374	1.04
3382.69	1.04
3391.38	1.0397
3400.07	1.038
3408.76	1.038
3417.45	1.039
3426.14	1.0392
3434.83	1.039
3443.52	1.039
3452.21	1.039
3460.9	1.0376
3469.59	1.038
3478.28	1.04
3486.97	1.039
3495.67	1.0392
3504.36	1.039
3513.05	1.039
3521.74	1.0392
3530.43	1.042
3539.12	1.042
3547.81	1.04
3556.5	1.0418
3565.19	1.042
3573.88	1.042
3582.57	1.042
3591.26	1.042
3599.95	1.044
3608.64	1.0459
3617.33	1.044
3626.03	1.0458
3634.72	1.0431
3643.41	1.0459
3652.1	1.046
3660.79	1.044
3669.48	1.044
3678.17	1.047
3686.86	1.046
3695.55	1.046
3704.24	1.046
3712.93	1.042
3721.62	1.0459
3730.31	1.043
3739	1.0459
3747.69	1.044
3756.38	1.04
3765.08	1.0429
3773.77	1.0442
3782.46	1.044
3791.15	1.044
