Infrared Spectrum: 9H-PURINE, 6-ETHYL-9-(Beta-D-RIBOFURANOSYL)-
Formula: C12 H16 N4 O4
CAS: 16006-62-5
State: SOLID (1 mg / 650 mg KBr DISC)
Class: COBLENTZ III
Instrument: PERKIN-ELMER 521 (GRATING)
Instrument parameters: FILTER CHANGE AT 3130, 2475, 2000,1150, 700, 410 CM^-^1, GRATING CHANGES AT 2000, 630 CM^-^1
Sampling: TRANSMISSION
Resolution: 4
Origin: SOUTHERN RESEARCH INSTITUTE
1/CM	TRANSMITTANCE
240	0.271
249.091	0.302
258.182	0.37
267.273	0.405
276.364	0.446
285.455	0.487
294.546	0.522
303.636	0.54
312.727	0.534
321.818	0.582
330.909	0.611
340	0.637
349.091	0.653
358.182	0.654
367.273	0.649
376.364	0.653
385.455	0.672
394.546	0.675
403.637	0.672
412.727	0.665
421.818	0.662
430.909	0.654
440	0.65
449.091	0.645
458.182	0.636
467.273	0.628
476.364	0.618
485.455	0.601
494.546	0.577
503.637	0.549
512.728	0.542
521.819	0.544
530.909	0.522
540	0.522
549.091	0.515
558.182	0.511
567.273	0.554
576.364	0.554
585.455	0.549
594.546	0.539
603.637	0.563
612.728	0.538
621.819	0.48
630.91	0.275
640.001	0.385
649.091	0.436
658.182	0.486
667.273	0.533
676.364	0.578
685.455	0.595
694.546	0.533
703.637	0.526
712.728	0.485
721.819	0.645
730.91	0.64
740.001	0.629
749.092	0.61
758.182	0.534
767.273	0.605
776.364	0.639
785.455	0.652
794.546	0.648
803.637	0.56
812.728	0.371
821.819	0.704
830.91	0.743
840.001	0.736
849.092	0.71
858.183	0.557
867.274	0.562
876.364	0.715
885.455	0.669
894.546	0.712
903.637	0.755
912.728	0.753
921.819	0.734
930.91	0.65
940.001	0.531
949.092	0.464
958.183	0.702
967.274	0.663
976.365	0.488
985.455	0.417
994.546	0.663
1003.64	0.664
1012.73	0.628
1021.82	0.539
1030.91	0.393
1040	0.486
1049.09	0.286
1058.18	0.345
1067.27	0.516
1076.36	0.403
1085.46	0.316
1094.55	0.171
1103.64	0.227
1112.73	0.318
1121.82	0.464
1130.91	0.556
1140	0.515
1149.09	0.448
1158.18	0.571
1167.27	0.543
1176.36	0.486
1185.46	0.543
1194.55	0.446
1203.64	0.226
1212.73	0.319
1221.82	0.466
1230.91	0.58
1240	0.548
1249.09	0.454
1258.18	0.442
1267.27	0.46
1276.36	0.528
1285.46	0.639
1294.55	0.614
1303.64	0.557
1312.73	0.449
1321.82	0.207
1330.91	0.313
1340	0.59
1349.09	0.648
1358.18	0.602
1367.27	0.472
1376.37	0.558
1385.46	0.474
1394.55	0.554
1403.64	0.434
1412.73	0.467
1421.82	0.673
1430.91	0.718
1440	0.729
1449.09	0.654
1458.18	0.666
1467.27	0.66
1476.37	0.604
1485.46	0.487
1494.55	0.689
1503.64	0.777
1512.73	0.802
1521.82	0.801
1530.91	0.79
1540	0.769
1549.09	0.729
1558.18	0.61
1567.27	0.379
1576.37	0.449
1585.46	0.234
1594.55	0.254
1603.64	0.504
1612.73	0.684
1621.82	0.758
1630.91	0.782
1640	0.787
1649.09	0.778
1658.18	0.733
1667.27	0.642
1676.37	0.726
1685.46	0.807
1694.55	0.828
1703.64	0.84
1712.73	0.856
1721.82	0.876
1730.91	0.879
1740	0.881
1749.09	0.882
1758.18	0.878
1767.27	0.866
1776.37	0.849
1785.46	0.842
1794.55	0.877
1803.64	0.889
1812.73	0.891
1821.82	0.89
1830.91	0.889
1840	0.887
1849.09	0.884
1858.18	0.88
1867.27	0.867
1876.37	0.857
1885.46	0.878
1894.55	0.883
1903.64	0.883
1912.73	0.883
1921.82	0.882
1930.91	0.88
1940	0.877
1949.09	0.876
1958.18	0.873
1967.27	0.871
1976.37	0.87
1985.46	0.868
1994.55	0.865
2003.64	0.863
2012.73	0.862
2021.82	0.86
2030.91	0.858
2040	0.858
2049.09	0.857
2058.18	0.856
2067.28	0.855
2076.37	0.853
2085.46	0.852
2094.55	0.851
2103.64	0.849
2112.73	0.848
2121.82	0.847
2130.91	0.843
2140	0.84
2149.09	0.837
2158.18	0.832
2167.28	0.829
2176.37	0.827
2185.46	0.823
2194.55	0.814
2203.64	0.806
2212.73	0.805
2221.82	0.814
2230.91	0.824
2240	0.832
2249.09	0.834
2258.18	0.834
2267.28	0.834
2276.37	0.834
2285.46	0.834
2294.55	0.834
2303.64	0.832
2312.73	0.828
2321.82	0.825
2330.91	0.824
2340	0.823
2349.09	0.821
2358.18	0.82
2367.28	0.819
2376.37	0.817
2385.46	0.814
2394.55	0.812
2403.64	0.81
2412.73	0.807
2421.82	0.805
2430.91	0.804
2440	0.802
2449.09	0.801
2458.18	0.8
2467.28	0.8
2476.37	0.8
2485.46	0.798
2494.55	0.796
2503.64	0.792
2512.73	0.789
2521.82	0.788
2530.91	0.788
2540	0.788
2549.09	0.787
2558.18	0.785
2567.28	0.782
2576.37	0.779
2585.46	0.778
2594.55	0.774
2603.64	0.77
2612.73	0.768
2621.82	0.765
2630.91	0.762
2640	0.759
2649.09	0.756
2658.18	0.754
2667.28	0.752
2676.37	0.748
2685.46	0.744
2694.55	0.741
2703.64	0.734
2712.73	0.729
2721.82	0.725
2730.91	0.722
2740	0.719
2749.09	0.716
2758.19	0.712
2767.28	0.707
2776.37	0.701
2785.46	0.693
2794.55	0.69
2803.64	0.687
2812.73	0.683
2821.82	0.672
2830.91	0.661
2840	0.651
2849.09	0.639
2858.19	0.624
2867.28	0.589
2876.37	0.55
2885.46	0.581
2894.55	0.58
2903.64	0.495
2912.73	0.411
2921.82	0.46
2930.91	0.451
2940	0.441
2949.09	0.584
2958.19	0.624
2967.28	0.577
2976.37	0.539
2985.46	0.629
2994.55	0.648
3003.64	0.645
3012.73	0.637
3021.82	0.622
3030.91	0.603
3040	0.583
3049.09	0.564
3058.19	0.553
3067.28	0.542
3076.37	0.532
3085.46	0.516
3094.55	0.498
3103.64	0.468
3112.73	0.403
3121.82	0.38
3130.91	0.451
3140	0.451
3149.09	0.429
3158.19	0.408
3167.28	0.387
3176.37	0.364
3185.46	0.343
3194.55	0.321
3203.64	0.301
3212.73	0.283
3221.82	0.266
3230.91	0.253
3240	0.243
3249.09	0.237
3258.19	0.236
3267.28	0.235
3276.37	0.235
3285.46	0.232
3294.55	0.227
3303.64	0.215
3312.73	0.201
3321.82	0.192
3330.91	0.188
3340	0.185
3349.09	0.184
3358.19	0.184
3367.28	0.185
3376.37	0.187
3385.46	0.191
3394.55	0.194
3403.64	0.197
3412.73	0.198
3421.82	0.194
3430.91	0.184
3440	0.188
3449.09	0.216
3458.19	0.251
3467.28	0.286
3476.37	0.323
3485.46	0.363
3494.55	0.389
3503.64	0.418
3512.73	0.452
3521.82	0.488
3530.91	0.525
3540	0.571
3549.1	0.609
3558.19	0.646
3567.28	0.681
3576.37	0.716
3585.46	0.736
3594.55	0.766
3603.64	0.794
3612.73	0.816
3621.82	0.831
3630.91	0.844
3640	0.851
3649.1	0.858
3658.19	0.861
3667.28	0.866
3676.37	0.868
3685.46	0.871
3694.55	0.874
3703.64	0.875
3712.73	0.874
3721.82	0.873
3730.91	0.87
3740	0.869
3749.1	0.87
3758.19	0.871
3767.28	0.871
3776.37	0.871
3785.46	0.87
3794.55	0.867
3803.64	0.861
3812.73	0.856
