Infrared Spectrum: 2-Butenoic acid, dodecyl ester
Formula: C16 H30 O2
CAS: 16005-15-5
State: SOLUTION (10% CCl4 FOR 3800-1335, 10% CS2 FOR 1335-400 CM^-^1)
Class: COBLENTZ III
Instrument: DOW KBr FOREPRISM-GRATING
Instrument parameters: BLAZED AT 3.5, 12.0, 20.0 MICRON AND CHANGED AT 5.0, 7.5, 14.9 MICRON
Sampling: TRANSMISSION
Path length: 0.011 CM, 0.011 CM
Resolution: 2
Origin: DOW CHEMICAL COMPANY
1/CM	TRANSMITTANCE
3800	0.9244
3791	0.9272
3782	0.9264
3773	0.9284
3764	0.9282
3755	0.9279
3746	0.9279
3737	0.9296
3728	0.9294
3719	0.9272
3710	0.928
3701	0.9254
3692	0.9219
3683	0.9216
3674	0.9222
3665	0.9226
3656	0.9224
3647	0.9221
3638	0.9218
3629	0.9217
3620	0.9237
3611	0.924
3602	0.9231
3593	0.9236
3584	0.9189
3575	0.9188
3566	0.9187
3557	0.9174
3548	0.9136
3539	0.9081
3530	0.9102
3521	0.9099
3512	0.9104
3503	0.9106
3494	0.9106
3485	0.9106
3476	0.9102
3467	0.9091
3458	0.9063
3449	0.9007
3440	0.8884
3431	0.876
3422	0.8735
3413	0.8762
3404	0.8828
3395	0.8819
3386	0.88
3377	0.8782
3368	0.8769
3359	0.8754
3350	0.8737
3341	0.8713
3332	0.8683
3323	0.8655
3314	0.8628
3305	0.8619
3296	0.8579
3287	0.8555
3278	0.8542
3269	0.8524
3260	0.8495
3251	0.8466
3242	0.8435
3233	0.8406
3224	0.8376
3215	0.8342
3206	0.8294
3197	0.827
3188	0.824
3179	0.8192
3170	0.8157
3161	0.8131
3152	0.8097
3143	0.8042
3134	0.801
3125	0.7951
3116	0.79
3107	0.7849
3098	0.7802
3089	0.7733
3080	0.7624
3071	0.7501
3062	0.7153
3053	0.6801
3044	0.688
3035	0.6878
3026	0.6658
3017	0.6362
3008	0.5909
2999	0.5029
2990	0.401
2981	0.2743
2972	0.1479
2963	0.055
2954	0.0508
2945	0.02
2936	0.0052
2927	0.0029
2918	0.0101
2909	0.0473
2900	0.1375
2891	0.227
2882	0.2628
2873	0.1673
2864	0.0385
2855	0.0203
2846	0.142
2837	0.4535
2828	0.6208
2819	0.6716
2810	0.7133
2801	0.7398
2792	0.7621
2783	0.7795
2774	0.7962
2765	0.8006
2756	0.8035
2747	0.8056
2738	0.798
2729	0.7911
2720	0.7975
2711	0.7988
2702	0.7996
2693	0.7993
2684	0.7976
2675	0.7984
2666	0.8022
2657	0.809
2648	0.813
2639	0.8165
2630	0.8192
2621	0.8213
2612	0.8209
2603	0.8203
2594	0.8213
2585	0.8266
2576	0.8344
2567	0.8376
2558	0.8397
2549	0.8407
2540	0.8421
2531	0.8454
2522	0.8499
2513	0.8545
2504	0.8594
2495	0.8642
2486	0.8696
2477	0.8764
2468	0.8805
2459	0.8832
2450	0.8835
2441	0.8856
2432	0.8863
2423	0.8869
2414	0.8878
2405	0.8899
2396	0.8896
2387	0.8913
2378	0.9034
2369	0.9109
2360	0.9149
2351	0.9193
2342	0.9181
2333	0.9134
2324	0.9105
2315	0.8916
2306	0.897
2297	0.8979
2288	0.8965
2279	0.898
2270	0.8989
2261	0.9002
2252	0.9026
2243	0.9029
2234	0.9025
2225	0.9026
2216	0.9011
2207	0.901
2198	0.901
2189	0.8994
2180	0.8997
2171	0.9016
2162	0.9003
2153	0.9006
2144	0.9006
2135	0.9005
2126	0.9003
2117	0.9
2108	0.8998
2099	0.8994
2090	0.8991
2081	0.8987
2072	0.8985
2063	0.8975
2054	0.897
2045	0.8938
2036	0.894
2027	0.8934
2018	0.8899
2009	0.8861
2000	0.8852
1991	0.8763
1982	0.8816
1973	0.8831
1964	0.8825
1955	0.8887
1946	0.8856
1937	0.8849
1928	0.8843
1919	0.8826
1910	0.8806
1901	0.8801
1892	0.8767
1883	0.8754
1874	0.8755
1865	0.8747
1856	0.8732
1847	0.8706
1838	0.8679
1829	0.8625
1820	0.8593
1811	0.8553
1802	0.8437
1793	0.8325
1784	0.8195
1775	0.8011
1766	0.7821
1757	0.7375
1748	0.6196
1739	0.3776
1730	0.1547
1721	0.0052
1712	0.1183
1703	0.1654
1694	0.3816
1685	0.4805
1676	0.5266
1667	0.4031
1658	0.2165
1649	0.3551
1640	0.6581
1631	0.7434
1622	0.7877
1613	0.8256
1604	0.8534
1595	0.8511
1586	0.8077
1577	0.8107
1568	0.7865
1559	0.7745
1550	0.7893
1541	0.7853
1532	0.7957
1523	0.8074
1514	0.8143
1505	0.8197
1496	0.8057
1487	0.7826
1478	0.6231
1469	0.2495
1460	0.3284
1451	0.357
1442	0.2964
1433	0.5081
1424	0.5925
1415	0.6299
1406	0.7065
1397	0.7182
1388	0.6197
1379	0.4431
1370	0.6365
1361	0.6746
1352	0.6914
1343	0.7002
1334	0.6215
1325	0.5119
1316	0.3005
1307	0.1743
1298	0.2493
1289	0.2169
1280	0.3632
1271	0.2681
1262	0.1864
1253	0.3474
1244	0.5199
1235	0.6049
1226	0.5506
1217	0.557
1208	0.5744
1199	0.4624
1190	0.1457
1181	0.0234
1172	0.0926
1163	0.3482
1154	0.5683
1145	0.6827
1136	0.741
1127	0.7496
1118	0.7533
1109	0.7273
1100	0.2704
1091	0.6398
1082	0.6913
1073	0.6776
1064	0.6532
1055	0.6433
1046	0.594
1037	0.5693
1028	0.5558
1019	0.5158
1010	0.496
1001	0.5679
992	0.625
983	0.6544
974	0.4514
965	0.1441
956	0.6411
947	0.7115
938	0.7265
929	0.7329
920	0.7289
911	0.7248
902	0.7511
893	0.7728
884	0.8017
875	0.826
866	0.8287
857	0.8317
848	0.8126
839	0.6181
830	0.82
821	0.8134
812	0.7963
803	0.8707
794	0.8903
785	0.8961
776	0.8928
767	0.8889
758	0.8821
749	0.8695
740	0.8332
731	0.8086
722	0.7088
713	0.8074
704	0.8551
695	0.8452
686	0.6914
677	0.8688
668	0.9392
659	0.9046
650	0.8963
641	0.9167
632	0.9238
623	0.9252
614	0.9307
605	0.931
596	0.931
587	0.9241
578	0.9161
569	0.9104
560	0.9057
551	0.8968
542	0.8896
533	0.8638
524	0.8566
515	0.86
506	0.8565
497	0.8528
488	0.8496
479	0.8468
470	0.838
461	0.8207
452	0.798
443	0.7739
434	0.7469
425	0.7093
416	0.6082
407	0.3606
398	0.2686
389	0.2307
