Infrared Spectrum: trans-1-Phenyl-1-pentene
Formula: C 11 H 14
CAS: 16002-93-0
State: gas
Instrument: HP-GC/MS/IRD
Origin: NIST Mass Spectrometry Data Center
1/CM	ABSORBANCE
550	0.0004032
562	0.0001022
574	1.54e-05
586	4.2e-05
598	0.0003318
610	0.0006398
622	0.0003122
634	0.0001638
646	0.000315
658	0.0007672
670	0.0017976
682	0.0041622
694	0.0058604
706	0.0047082
718	0.0040334
730	0.0057344
742	0.0058282
754	0.00322
766	0.0016114
778	0.0009926
790	0.0006762
802	0.0006454
814	0.000588
826	0.0004242
838	0.00035
850	0.0002296
862	0.000322
874	0.0004438
886	0.0005642
898	0.000609
910	0.0006146
922	0.000637
934	0.0011284
946	0.0030016
958	0.0058828
970	0.0049182
982	0.0023296
994	0.001134
1006	0.0008246
1018	0.0009772
1030	0.0013202
1042	0.0006888
1054	0.0008694
1066	0.0010696
1078	0.0008876
1090	0.0005614
1102	0.0004158
1114	0.0003556
1126	0.0001932
1138	0.0001456
1150	0.000147
1162	0.0001736
1174	0.0001512
1186	0.0001904
1198	0.0002282
1210	0.0003038
1222	0.0002618
1234	0.0002744
1246	0.000322
1258	0.000581
1270	0.000623
1282	0.0005586
1294	0.0005908
1306	0.00077
1318	0.0008176
1330	0.0011382
1342	0.001442
1354	0.0007504
1366	0.0006118
1378	0.0009156
1390	0.0009128
1402	0.0005768
1414	0.0005908
1426	0.0009926
1438	0.0018158
1450	0.0023086
1462	0.0022008
1474	0.0019236
1486	0.0026376
1498	0.0029554
1510	0.0009002
1522	0.0004144
1534	0.0003402
1546	0.0003234
1558	0.0003696
1570	0.0005488
1582	0.0009814
1594	0.0020692
1606	0.0014686
1618	0.00049
1630	0.00035
1642	0.0004872
1654	0.0005334
1666	0.000308
1678	0.0002156
1690	0.000252
1702	0.0002856
1714	0.0002688
1726	0.000308
1738	0.0003346
1750	0.0003332
1762	0.0003934
1774	0.0005208
1786	0.000644
1798	0.0005446
1810	0.0003066
1822	0.0002338
1834	0.000224
1846	0.0002646
1858	0.0003752
1870	0.0004676
1882	0.0003878
1894	0.0001708
1906	0.0001442
1918	0.0002562
1930	0.0004242
1942	0.0005124
1954	0.0004032
1966	0.000112
1978	3.78e-05
1990	7.14e-05
2002	4.06e-05
2014	2.52e-05
2026	4.06e-05
2038	6.16e-05
2050	6.3e-05
2062	2.38e-05
2074	2.24e-05
2086	3.22e-05
2098	9.8e-06
2110	5.6e-06
2122	3.36e-05
2134	3.08e-05
2146	1.26e-05
2158	2.38e-05
2170	2.66e-05
2182	2.94e-05
2194	3.5e-05
2206	5.46e-05
2218	1.68e-05
2230	2.52e-05
2242	4.06e-05
2254	1.68e-05
2266	4.62e-05
2278	4.76e-05
2290	5.74e-05
2302	6.58e-05
2314	0.000119
2326	6.72e-05
2338	9.66e-05
2350	9.38e-05
2362	8.4e-05
2374	5.46e-05
2386	4.06e-05
2398	8.12e-05
2410	5.46e-05
2422	5.32e-05
2434	5.32e-05
2446	4.9e-05
2458	5.04e-05
2470	4.2e-05
2482	7e-06
2494	5.32e-05
2506	3.5e-05
2518	4.34e-05
2530	7.84e-05
2542	7.84e-05
2554	7.98e-05
2566	0.0001372
2578	9.24e-05
2590	0.0001008
2602	9.52e-05
2614	0.0001358
2626	0.0001204
2638	0.0001316
2650	0.0001428
2662	0.0001666
2674	0.000168
2686	0.0001512
2698	0.0001568
2710	0.0001596
2722	0.000189
2734	0.0002296
2746	0.0002898
2758	0.0002926
2770	0.000336
2782	0.0004578
2794	0.000511
2806	0.0006594
2818	0.0008862
2830	0.0014476
2842	0.0026264
2854	0.0038444
2866	0.0048034
2878	0.0069342
2890	0.006776
2902	0.0065408
2914	0.0081578
2926	0.0111818
2938	0.014
2950	0.0116592
2962	0.0118972
2974	0.0132118
2986	0.006839
2998	0.0044114
3010	0.0046284
3022	0.0070574
3034	0.0081172
3046	0.0051492
3058	0.005271
3070	0.0076104
3082	0.0049672
3094	0.0035714
3106	0.0020832
3118	0.0009646
3130	0.0005082
3142	0.0003892
3154	0.0003934
3166	0.0002884
3178	0.0002506
3190	0.0001862
3202	0.0001638
3214	0.0001302
3226	0.0001288
3238	0.0001176
3250	0.0001008
3262	6.72e-05
3274	9.8e-05
3286	7.14e-05
3298	3.64e-05
3310	2.24e-05
3322	5.74e-05
3334	4.48e-05
3346	5.46e-05
3358	3.92e-05
3370	3.08e-05
3382	8.82e-05
3394	5.6e-05
3406	7.98e-05
3418	2.94e-05
3430	2.94e-05
3442	5.04e-05
3454	1.96e-05
3466	0
3478	2.66e-05
3490	2.66e-05
3502	5.32e-05
3514	5.18e-05
3526	3.92e-05
3538	1.96e-05
3550	8.26e-05
3562	2.1e-05
3574	2.66e-05
3586	3.78e-05
3598	3.5e-05
3610	6.16e-05
3622	9.52e-05
3634	7.14e-05
3646	0.0001036
3658	0.0001134
3670	0.0001288
3682	8.96e-05
3694	0.0001232
3706	0.0001148
3718	0.0001316
3730	0.0001078
3742	6.86e-05
3754	6.86e-05
3766	9.24e-05
3778	0.000112
3790	7.14e-05
3802	0.0001008
3814	0.0001232
3826	0.0001078
3838	6.16e-05
