Infrared Spectrum: Tetramethyl methylenediphosphonate
Formula: C 5 H 14 O 6 P 2
CAS: 16001-93-7
State: gas
Origin: EPA-IR VAPOR PHASE LIBRARY
1/CM	ABSORBANCE
549.8	0.011938
559.445	0.007768
569.09	0.005208
578.734	0.003648
588.379	0.003048
598.024	0.002828
607.669	0.002188
617.313	0.002428
626.958	0.002338
636.603	0.002358
646.248	0.002398
655.893	0.002628
665.537	0.002918
675.182	0.003948
684.827	0.005088
694.472	0.005948
704.116	0.007608
713.761	0.011978
723.406	0.012418
733.051	0.009578
742.695	0.010378
752.34	0.014508
761.985	0.020338
771.63	0.024118
781.275	0.029818
790.919	0.052518
800.564	0.098498
810.209	0.137698
819.854	0.135228
829.498	0.137948
839.143	0.150228
848.788	0.138518
858.433	0.086058
868.078	0.040508
877.722	0.019838
887.367	0.012868
897.012	0.010188
906.657	0.008878
916.301	0.008248
925.946	0.007998
935.591	0.008078
945.236	0.007798
954.88	0.008978
964.525	0.010498
974.17	0.013098
983.815	0.017148
993.46	0.023478
1003.1	0.036498
1012.75	0.061758
1022.39	0.123298
1032.04	0.271238
1041.68	0.471978
1051.33	0.484798
1060.97	0.347548
1070.62	0.219868
1080.26	0.153238
1089.91	0.105888
1099.55	0.076798
1109.2	0.061098
1118.84	0.050058
1128.49	0.041758
1138.13	0.034568
1147.78	0.031158
1157.42	0.035468
1167.07	0.060128
1176.71	0.096748
1186.36	0.081558
1196	0.050928
1205.64	0.035178
1215.29	0.028378
1224.93	0.026918
1234.58	0.029238
1244.22	0.031858
1253.87	0.042408
1263.51	0.087268
1273.16	0.179868
1282.8	0.220428
1292.45	0.160198
1302.09	0.091998
1311.74	0.046048
1321.38	0.022478
1331.03	0.013488
1340.67	0.010078
1350.32	0.009258
1359.96	0.010698
1369.61	0.013938
1379.25	0.012828
1388.9	0.008668
1398.54	0.007328
1408.18	0.006918
1417.83	0.006608
1427.47	0.007028
1437.12	0.008628
1446.76	0.012508
1456.41	0.015388
1466.05	0.014318
1475.7	0.012568
1485.34	0.010098
1494.99	0.008278
1504.63	0.007478
1514.28	0.007268
1523.92	0.007128
1533.57	0.007178
1543.21	0.006948
1552.86	0.006608
1562.5	0.006188
1572.15	0.005348
1581.79	0.004698
1591.44	0.004188
1601.08	0.003958
1610.73	0.003788
1620.37	0.003998
1630.01	0.003598
1639.66	0.002728
1649.3	0.002258
1658.95	0.001938
1668.59	0.001748
1678.24	0.001708
1687.88	0.001598
1697.53	0.001608
1707.17	0.001678
1716.82	0.001828
1726.46	0.002198
1736.11	0.002668
1745.75	0.004708
1755.4	0.005398
1765.04	0.003838
1774.69	0.003398
1784.33	0.003328
1793.98	0.003308
1803.62	0.003358
1813.27	0.003398
1822.91	0.003578
1832.55	0.004068
1842.2	0.004388
1851.84	0.004368
1861.49	0.004188
1871.13	0.004088
1880.78	0.004218
1890.42	0.003988
1900.07	0.003658
1909.71	0.003178
1919.36	0.002768
1929	0.002488
1938.65	0.002188
1948.29	0.001738
1957.94	0.001648
1967.58	0.001678
1977.23	0.001458
1986.87	0.001528
1996.52	0.001308
2006.16	0.0011822
2015.81	0.0011578
2025.45	0.0011326
2035.1	0.0011145
2044.74	0.0011541
2054.38	0.0011982
2064.03	0.0012053
2073.67	0.001448
2083.32	0.001558
2092.96	0.001498
2102.61	0.001298
2112.25	0.0011288
2121.9	0.0011018
2131.54	0.0009374
2141.19	0.0008391
2150.83	0.0007762
2160.48	0.0006695
2170.12	0.0006476
2179.77	0.000587
2189.41	0.0005356
2199.06	0.0005307
2208.7	0.0004575
2218.35	0.0005181
2227.99	0.0003836
2237.64	0.0005746
2247.28	0.0005399
2256.92	0.0005633
2266.57	0.0005363
2276.21	0.0004905
2285.86	0.0005159
2295.5	0.0005269
2305.15	0.0005494
2314.79	0.0004383
2324.44	0.0005192
2334.08	0.0005167
2343.73	0.000499
2353.37	0.0004395
2363.02	0.0003481
2372.66	0.0003526
2382.31	0.00026973
2391.95	0.0003702
2401.6	0.0003463
2411.24	0.0003881
2420.89	0.0003733
2430.53	0.00029481
2440.18	0.00028736
2449.82	0.00030288
2459.47	0.0005002
2469.11	0.0004283
2478.75	0.000395
2488.4	0.0003394
2498.04	0.000416
2507.69	0.0004116
2517.33	0.000487
2526.98	0.0007151
2536.62	0.0007948
2546.27	0.0008699
2555.91	0.000829
2565.56	0.0006779
2575.2	0.0007047
2584.85	0.0007149
2594.49	0.0006975
2604.14	0.0008067
2613.78	0.0008757
2623.43	0.0008708
2633.07	0.0008992
2642.72	0.0008317
2652.36	0.0008386
2662.01	0.000784
2671.65	0.0006436
2681.29	0.0005647
2690.94	0.0005979
2700.58	0.0005582
2710.23	0.0005666
2719.87	0.0005466
2729.52	0.000431
2739.16	0.0005221
2748.81	0.0005169
2758.45	0.0006432
2768.1	0.0007784
2777.74	0.0010176
2787.39	0.001258
2797.03	0.001458
2806.68	0.001968
2816.32	0.002958
2825.97	0.004358
2835.61	0.006628
2845.26	0.012018
2854.9	0.028588
2864.55	0.033508
2874.19	0.017528
2883.84	0.010658
2893.48	0.010278
2903.12	0.011798
2912.77	0.014738
2922.41	0.017278
2932.06	0.018788
2941.7	0.024798
2951.35	0.049478
2960.99	0.089768
2970.64	0.066728
2980.28	0.032658
2989.93	0.024368
2999.57	0.023088
3009.22	0.022418
3018.86	0.021638
3028.51	0.017798
3038.15	0.013328
3047.8	0.011088
3057.44	0.010268
3067.09	0.009748
3076.73	0.009088
3086.38	0.008068
3096.02	0.006668
3105.67	0.005418
3115.31	0.004388
3124.95	0.003528
3134.6	0.002758
3144.24	0.002018
3153.89	0.001468
3163.53	0.001268
3173.18	0.0010428
3182.82	0.000779
3192.47	0.0009637
3202.11	0.0007072
3211.76	0.0006315
3221.4	0.0005289
3231.05	0.0005982
3240.69	0.0006117
3250.34	0.000496
3259.98	0.0006416
3269.63	0.0006398
3279.27	0.0004764
3288.92	0.0005046
3298.56	0.0003885
3308.21	0.00033241
3317.85	0.0003518
3327.49	0.00032816
3337.14	0.0005089
3346.78	0.0004512
3356.43	0.000247372
3366.07	0.00033231
3375.72	0.0003956
3385.36	0.00023112
3395.01	0.0004313
3404.65	0.0003713
3414.3	0.0001623
3423.94	0.0002622
3433.59	0.00032074
3443.23	0.000341
3452.88	0.0001868
3462.52	0.00029052
3472.17	0.0003908
3481.81	0.000352
3491.46	0.00026135
3501.1	0.0002068
3510.75	0.0004748
3520.39	0.00031128
3530.04	0.0002739
3539.68	0.00030907
3549.32	0.0001413
3558.97	0.00023481
3568.61	0.0001969
3578.26	0.0003383
3587.9	0.00025153
3597.55	0.0003991
3607.19	8.8e-05
3616.84	0.000122
3626.48	0.00029868
3636.13	0.0001465
3645.77	0.00033296
3655.42	0.0003581
3665.06	0.0002166
3674.71	0.0003715
3684.35	0.0001931
3694	0.00023305
3703.64	0.0002691
3713.29	0.0003679
3722.93	0.0001766
3732.58	0.0005171
3742.22	0.00024481
3751.86	0.00031044
3761.51	0.00025893
3771.15	0.0002892
3780.8	0.00033728
3790.44	0.0003942
3800.09	0.0003674
3809.73	0.00032208
3819.38	0.0004489
3829.02	0.00027056
3838.67	0.0001461
3848.31	0.0001919
3857.96	0.0001527
3867.6	0.000148
3877.25	0.0003536
3886.89	0.0004397
3896.54	0.0005406
3906.18	0.0007172
3915.83	0.0007752
3925.47	0.0005435
3935.12	0.0004701
3944.76	0.0006269
3954.41	0.0008085
3964.05	0.0006396
3973.69	0.0005269
3983.34	0.0008922
3992.98	0.0011136
