Infrared Spectrum: PHOSPHORODICHLORIDODITHIOIC ACID, S-ETHYL ESTER
Formula: C2 H5 Cl2 S2 P
CAS: 16001-05-1
State: SOLUTION (10% IN CCl4 FOR 3800-1333, 10% IN CS2 FOR 1333-450 CM^-^1)
Class: COBLENTZ III
Instrument: DOW KBr FOREPRISM-GRATING
Instrument parameters: BLAZED AT 3.5, 12.0, 20.0 MICRON, CHANGED AT 5.0, 7.5, 14.9 MICRON
Sampling: TRANSMISSION
Path length: 0.010, 0.010 CM
Resolution: 4
Origin: DOW CHEMICAL COMPANY
1/CM	TRANSMITTANCE
449.212	0.837
457.969	0.838
466.725	0.841
475.482	0.842
484.238	0.833
492.995	0.714
501.751	0.176
510.508	0.09
519.265	0.039
528.021	0.266
536.778	0.087
545.534	0.106
554.291	0.382
563.047	0.293
571.804	0.39
580.561	0.801
589.317	0.933
598.074	0.952
606.83	0.976
615.587	0.979
624.343	0.971
633.1	0.924
641.857	0.868
650.613	0.857
659.37	0.872
668.126	0.916
676.883	0.909
685.639	0.886
694.396	0.844
703.153	0.786
711.909	0.663
720.666	0.198
729.422	0
738.179	0.054
746.935	0.661
755.692	0.781
764.449	0.872
773.205	0.871
781.962	0.877
790.718	0.915
799.475	0.928
808.232	0.934
816.988	0.946
825.745	0.937
834.501	0.926
843.258	0.883
852.014	0.807
860.771	0.825
869.528	0.855
878.284	0.885
887.041	0.922
895.797	0.946
904.554	0.956
913.31	0.956
922.067	0.956
930.824	0.954
939.58	0.948
948.337	0.934
957.093	0.883
965.85	0.77
974.606	0.863
983.363	0.913
992.12	0.926
1000.88	0.923
1009.63	0.926
1018.39	0.922
1027.15	0.915
1035.9	0.898
1044.66	0.871
1053.42	0.714
1062.17	0.901
1070.93	0.919
1079.69	0.933
1088.44	0.945
1097.2	0.952
1105.96	0.959
1114.71	0.963
1123.47	0.968
1132.22	0.965
1140.98	0.96
1149.74	0.961
1158.49	0.969
1167.25	0.971
1176.01	0.969
1184.76	0.967
1193.52	0.972
1202.28	0.969
1211.03	0.968
1219.79	0.965
1228.55	0.956
1237.3	0.939
1246.06	0.881
1254.82	0.743
1263.57	0.571
1272.33	0.758
1281.09	0.775
1289.84	0.912
1298.6	0.938
1307.36	0.952
1316.11	0.959
1324.87	0.96
1333.63	0.96
1342.38	0.96
1351.14	0.961
1359.9	0.961
1368.65	0.954
1377.41	0.907
1386.17	0.766
1394.92	0.92
1403.68	0.923
1412.44	0.904
1421.19	0.814
1429.95	0.853
1438.7	0.739
1447.46	0.754
1456.22	0.599
1464.97	0.84
1473.73	0.886
1482.49	0.89
1491.24	0.877
1500	0.845
1508.76	0.803
1517.51	0.748
1526.27	0.707
1535.03	0.65
1543.78	0.564
1552.54	0.498
1561.3	0.571
1570.05	0.637
1578.81	0.681
1587.57	0.71
1596.32	0.782
1605.08	0.863
1613.84	0.907
1622.59	0.933
1631.35	0.945
1640.11	0.954
1648.86	0.963
1657.62	0.957
1666.38	0.954
1675.13	0.956
1683.89	0.957
1692.65	0.953
1701.4	0.961
1710.16	0.959
1718.92	0.961
1727.67	0.956
1736.43	0.956
1745.18	0.956
1753.94	0.956
1762.7	0.956
1771.45	0.959
1780.21	0.954
1788.97	0.954
1797.72	0.953
1806.48	0.952
1815.24	0.949
1823.99	0.953
1832.75	0.954
1841.51	0.95
1850.26	0.953
1859.02	0.949
1867.78	0.952
1876.53	0.952
1885.29	0.954
1894.05	0.956
1902.8	0.953
1911.56	0.952
1920.32	0.953
1929.07	0.953
1937.83	0.953
1946.59	0.954
1955.34	0.954
1964.1	0.954
1972.86	0.954
1981.61	0.954
1990.37	0.956
1999.13	0.949
2007.88	0.9535
2016.64	0.946
2025.4	0.947
2034.15	0.949
2042.91	0.948
2051.66	0.949
2060.42	0.948
2069.18	0.949
2077.93	0.952
2086.69	0.953
2095.45	0.953
2104.2	0.953
2112.96	0.9535
2121.72	0.954
2130.47	0.954
2139.23	0.954
2147.99	0.952
2156.74	0.952
2165.5	0.952
2174.26	0.952
2183.01	0.952
2191.77	0.953
2200.53	0.952
2209.28	0.949
2218.04	0.949
2226.8	0.948
2235.55	0.948
2244.31	0.946
2253.07	0.9471
2261.82	0.9436
2270.58	0.9386
2279.34	0.935
2288.09	0.934
2296.85	0.935
2305.61	0.938
2314.36	0.9424
2323.12	0.9484
2331.88	0.9534
2340.63	0.9551
2349.39	0.949
2358.14	0.95
2366.9	0.961
2375.66	0.963
2384.41	0.9581
2393.17	0.9566
2401.93	0.956
2410.68	0.954
2419.44	0.9526
2428.2	0.949
2436.95	0.9494
2445.71	0.956
2454.47	0.956
2463.22	0.956
2471.98	0.956
2480.74	0.9552
2489.49	0.954
2498.25	0.9548
2507.01	0.96
2515.76	0.961
2524.52	0.9582
2533.28	0.956
2542.03	0.959
2550.79	0.961
2559.55	0.961
2568.3	0.961
2577.06	0.96
2585.82	0.96
2594.57	0.961
2603.33	0.9596
2612.09	0.957
2620.84	0.957
2629.6	0.959
2638.36	0.959
2647.11	0.957
2655.87	0.956
2664.63	0.9564
2673.38	0.9552
2682.14	0.953
2690.89	0.953
2699.65	0.953
2708.41	0.9548
2717.16	0.956
2725.92	0.956
2734.68	0.9536
2743.43	0.952
2752.19	0.953
2760.95	0.954
2769.7	0.954
2778.46	0.954
2787.22	0.954
2795.97	0.954
2804.73	0.953
2813.49	0.9473
2822.24	0.937
2831	0.9336
2839.76	0.933
2848.51	0.9256
2857.27	0.9023
2866.03	0.9006
2874.78	0.8412
2883.54	0.8562
2892.3	0.893
2901.05	0.8897
2909.81	0.8883
2918.57	0.8689
2927.32	0.8126
2936.08	0.6208
2944.84	0.7669
2953.59	0.853
2962.35	0.8337
2971.11	0.7746
2979.86	0.6706
2988.62	0.7347
2997.37	0.7646
3006.13	0.9083
3014.89	0.9313
3023.64	0.9437
3032.4	0.949
3041.16	0.952
3049.91	0.9533
3058.67	0.9546
3067.43	0.957
3076.18	0.96
3084.94	0.96
3093.7	0.961
3102.45	0.963
3111.21	0.9643
3119.97	0.965
3128.72	0.965
3137.48	0.9673
3146.24	0.967
3154.99	0.967
3163.75	0.968
3172.51	0.968
3181.26	0.9683
3190.02	0.969
3198.78	0.9687
3207.53	0.968
3216.29	0.969
3225.05	0.971
3233.8	0.971
3242.56	0.9743
3251.32	0.975
3260.07	0.9753
3268.83	0.9766
3277.59	0.976
3286.34	0.978
3295.1	0.978
3303.85	0.979
3312.61	0.9797
3321.37	0.98
3330.12	0.9805
3338.88	0.983
3347.64	0.982
3356.39	0.983
3365.15	0.984
3373.91	0.984
3382.66	0.983
3391.42	0.9845
3400.18	0.986
3408.93	0.986
3417.69	0.984
3426.45	0.984
3435.2	0.984
3443.96	0.983
3452.72	0.982
3461.47	0.9797
3470.23	0.978
3478.99	0.9788
3487.74	0.978
3496.5	0.978
3505.26	0.979
3514.01	0.978
3522.77	0.979
3531.53	0.979
3540.28	0.978
3549.04	0.979
3557.8	0.979
3566.55	0.976
3575.31	0.967
3584.07	0.978
3592.82	0.9758
3601.58	0.974
3610.33	0.978
3619.09	0.9765
3627.85	0.976
3636.6	0.976
3645.36	0.9758
3654.12	0.976
3662.87	0.978
3671.63	0.975
3680.39	0.976
3689.14	0.9742
3697.9	0.9764
3706.66	0.978
3715.41	0.979
3724.17	0.982
3732.93	0.983
3741.68	0.9816
3750.44	0.979
3759.2	0.979
3767.95	0.98
3776.71	0.98
3785.47	0.9832
3794.22	0.9828
