Infrared Spectrum: 1-CYANO-2-METHOXY-NAPHTHALENE
Formula: C12 H9 N O
CAS: 16000-39-8
State: SOLID (1.0% IN KBr PELLET)
Class: COBLENTZ
Instrument: Not specified, most likely a prism, grating, or hybrid spectrometer.
Sampling: TRANSMISSION
Path length: 0.0355 CM THICK
Resolution: 4
Origin: ANDERSON PHYSICAL LABORATORY
1/CM	TRANSMITTANCE
669.476	0.547
677.903	0.4233
686.33	0.6808
694.757	0.733
703.184	0.723
711.611	0.696
720.038	0.678
728.465	0.615
736.892	0.495
745.319	0.046
753.746	0.4011
762.173	0.712
770.6	0.2876
779.027	0.6719
787.454	0.687
795.881	0.5411
804.308	0.058
812.735	0.056
821.162	0.272
829.589	0.654
838.016	0.758
846.443	0.764
854.87	0.667
863.297	0.618
871.723	0.751
880.15	0.744
888.577	0.73
897.004	0.718
905.431	0.4491
913.858	0.482
922.285	0.715
930.712	0.726
939.139	0.721
947.566	0.654
955.993	0.666
964.42	0.582
972.847	0.66
981.274	0.646
989.701	0.66
998.128	0.645
1006.56	0.615
1014.98	0.5351
1023.41	0.327
1031.84	0.592
1040.26	0.3782
1048.69	0.3959
1057.12	0.604
1065.54	0.532
1073.97	0.374
1082.4	0.083
1090.82	0.1581
1099.25	0.708
1107.68	0.679
1116.11	0.63
1124.53	0.579
1132.96	0.532
1141.39	0.3861
1149.81	0.089
1158.24	0.223
1166.67	0.604
1175.09	0.489
1183.52	0.2661
1191.95	0.5588
1200.38	0.58
1208.8	0.529
1217.23	0.456
1225.66	0.354
1234.08	0.398
1242.51	0.335
1250.94	0.194
1259.36	0.031
1267.79	0.1867
1276.22	0.1464
1284.65	0.023
1293.07	0.2359
1301.5	0.556
1309.93	0.6939
1318.35	0.791
1326.78	0.739
1335.21	0.48
1343.63	0.357
1352.06	0.4879
1360.49	0.6869
1368.92	0.755
1377.34	0.6511
1385.77	0.684
1394.2	0.685
1402.62	0.649
1411.05	0.667
1419.48	0.625
1427.9	0.514
1436.33	0.291
1444.76	0.4219
1453.19	0.3411
1461.61	0.239
1470.04	0.266
1478.47	0.149
1486.89	0.474
1495.32	0.431
1503.75	0.191
1512.17	0.077
1520.6	0.2657
1529.03	0.6509
1537.45	0.747
1545.88	0.741
1554.31	0.678
1562.74	0.529
1571.16	0.446
1579.59	0.288
1588.02	0.206
1596.44	0.167
1604.87	0.5188
1613.3	0.4891
1621.72	0.2291
1630.15	0.3629
1638.58	0.7289
1647.01	0.778
1655.43	0.788
1663.86	0.775
1672.29	0.75
1680.71	0.744
1689.14	0.735
1697.57	0.735
1705.99	0.727
1714.42	0.726
1722.85	0.72
1731.28	0.733
1739.7	0.727
1748.13	0.703
1756.56	0.708
1764.98	0.712
1773.41	0.718
1781.84	0.711
1790.26	0.696
1798.69	0.681
1807.12	0.678
1815.55	0.682
1823.97	0.678
1832.4	0.673
1840.83	0.687
1849.25	0.685
1857.68	0.676
1866.11	0.675
1874.53	0.666
1882.96	0.64
1891.39	0.612
1899.81	0.601
1908.24	0.606
1916.67	0.601
1925.1	0.6
1933.52	0.606
1941.95	0.586
1950.38	0.588
1958.8	0.594
1967.23	0.604
1975.66	0.616
1984.08	0.618
1992.51	0.61
2000.94	0.6217
2009.37	0.624
2017.79	0.622
2026.22	0.621
2034.65	0.6183
2043.07	0.6105
2051.5	0.601
2059.93	0.595
2068.35	0.5935
2076.78	0.5915
2085.21	0.5883
2093.64	0.585
2102.06	0.5813
2110.49	0.5755
2118.92	0.5678
2127.34	0.564
2135.77	0.5568
2144.2	0.5347
2152.62	0.5138
2161.05	0.511
2169.48	0.5049
2177.91	0.4754
2186.33	0.4191
2194.76	0.1675
2203.19	0.178
2211.61	0.2479
2220.04	0.3267
2228.47	0.5488
2236.89	0.559
2245.32	0.558
2253.75	0.5602
2262.18	0.562
2270.6	0.561
2279.03	0.553
2287.46	0.5468
2295.88	0.544
2304.31	0.5425
2312.74	0.539
2321.16	0.5355
2329.59	0.535
2338.02	0.534
2346.44	0.534
2354.87	0.5325
2363.3	0.531
2371.73	0.531
2380.15	0.531
2388.58	0.5295
2397.01	0.5231
2405.43	0.5161
2413.86	0.5105
2422.29	0.5085
2430.71	0.508
2439.14	0.5063
2447.57	0.502
2456	0.4985
2464.42	0.491
2472.85	0.4888
2481.28	0.4855
2489.7	0.4835
2498.13	0.48
2506.56	0.4755
2514.98	0.4735
2523.41	0.471
2531.84	0.471
2540.27	0.471
2548.69	0.469
2557.12	0.4673
2565.55	0.465
2573.97	0.4635
2582.4	0.4615
2590.83	0.4583
2599.25	0.456
2607.68	0.456
2616.11	0.456
2624.54	0.4553
2632.96	0.453
2641.39	0.452
2649.82	0.45
2658.24	0.4463
2666.67	0.438
2675.1	0.4365
2683.52	0.433
2691.95	0.4313
2700.38	0.4231
2708.8	0.422
2717.23	0.422
2725.66	0.42
2734.09	0.42
2742.51	0.4198
2750.94	0.419
2759.37	0.4175
2767.79	0.414
2776.22	0.4058
2784.65	0.3955
2793.07	0.3793
2801.5	0.3451
2809.93	0.3298
2818.36	0.3329
2826.78	0.368
2835.21	0.38
2843.64	0.3706
2852.06	0.3571
2860.49	0.3488
2868.92	0.341
2877.34	0.3388
2885.77	0.3345
2894.2	0.3211
2902.63	0.308
2911.05	0.3
2919.48	0.3079
2927.91	0.3232
2936.33	0.326
2944.76	0.3275
2953.19	0.3325
2961.61	0.3412
2970.04	0.344
2978.47	0.344
2986.9	0.343
2995.32	0.342
3003.75	0.342
3012.18	0.342
3020.6	0.344
3029.03	0.344
3037.46	0.345
3045.88	0.3472
3054.31	0.349
3062.74	0.3525
3071.16	0.356
3079.59	0.362
3088.02	0.363
3096.45	0.365
3104.87	0.366
3113.3	0.3658
3121.73	0.3625
3130.15	0.3605
3138.58	0.359
3147.01	0.359
3155.43	0.359
3163.86	0.3575
3172.29	0.353
3180.72	0.3508
3189.14	0.3475
3197.57	0.345
3206	0.339
3214.42	0.3358
3222.85	0.334
3231.28	0.333
3239.7	0.333
3248.13	0.333
3256.56	0.3325
3264.99	0.3305
3273.41	0.324
3281.84	0.3208
3290.27	0.316
3298.69	0.309
3307.12	0.302
3315.55	0.2985
3323.97	0.295
3332.4	0.291
3340.83	0.288
3349.26	0.2803
3357.68	0.274
3366.11	0.272
3374.54	0.27
3382.96	0.2685
3391.39	0.267
3399.82	0.267
3408.24	0.267
3416.67	0.267
3425.1	0.268
3433.53	0.27
3441.95	0.272
3450.38	0.2735
3458.81	0.275
3467.23	0.275
3475.66	0.278
3484.09	0.278
3492.51	0.278
3500.94	0.279
3509.37	0.282
3517.79	0.284
3526.22	0.2845
3534.65	0.2865
3543.08	0.287
3551.5	0.2945
3559.93	0.297
3568.36	0.3015
3576.78	0.306
3585.21	0.306
3593.64	0.3055
3602.06	0.303
3610.49	0.3
3618.92	0.3
3627.35	0.3
3635.77	0.302
3644.2	0.303
3652.63	0.302
3661.05	0.302
3669.48	0.2993
3677.91	0.299
3686.33	0.2968
3694.76	0.296
3703.19	0.2945
3711.62	0.294
3720.04	0.2878
3728.47	0.287
3736.9	0.2877
3745.32	0.291
3753.75	0.291
3762.18	0.289
3770.6	0.288
3779.03	0.288
3787.46	0.287
3795.89	0.2845
3804.31	0.2825
3812.74	0.282
3821.17	0.284
3829.59	0.282
3838.02	0.282
3846.45	0.282
3854.87	0.281
3863.3	0.28
3871.73	0.279
3880.15	0.275
3888.58	0.269
3897.01	0.272
3905.44	0.2757
3913.86	0.276
3922.29	0.2723
3930.72	0.268
3939.14	0.266
3947.57	0.266
3956	0.2705
3964.42	0.271
3972.85	0.2693
3981.28	0.267
3989.71	0.266
