Infrared Spectrum: DI-ISO-AMYL TARTRATE
Formula: C14 H26 O6
CAS: 16016-41-4
State: LIQUID
Boiling point: 190-192 C AT 6 mmHg
Class: COBLENTZ
Instrument: Not specified, most likely a prism, grating, or hybrid spectrometer.
Sampling: TRANSMISSION
Path length: 0.003 CM
Resolution: 4
Origin: WYANDOTTE CHEMICALS CORP., WYANDOTTE, MICHIGAN, USA
MICROMETERS	TRANSMITTANCE
2.025	0.965
2.06217	0.962
2.09934	0.972
2.1365	0.981
2.17367	0.962
2.21084	0.941
2.24801	0.914
2.28518	0.911
2.32234	0.917
2.35951	0.922
2.39668	0.919
2.43385	0.914
2.47102	0.914
2.50818	0.913
2.54535	0.913
2.58252	0.913
2.61969	0.913
2.65686	0.913
2.69403	0.906
2.73119	0.886
2.76836	0.77
2.80553	0.407
2.8427	0.147
2.87987	0.093
2.91703	0.097
2.9542	0.131
2.99137	0.212
3.02854	0.395
3.06571	0.59
3.10287	0.672
3.14004	0.714
3.17721	0.742
3.21438	0.779
3.25155	0.784
3.28871	0.736
3.32588	0.449
3.36305	0.032
3.40022	0.044
3.43739	0.068
3.47455	0.108
3.51172	0.32
3.54889	0.612
3.58606	0.71
3.62323	0.758
3.66039	0.762
3.69756	0.761
3.73473	0.798
3.7719	0.8
3.80907	0.793
3.84623	0.806
3.8834	0.818
3.92057	0.824
3.95774	0.826
3.99491	0.824
4.03208	0.82
4.06924	0.818
4.10641	0.817
4.14358	0.823
4.18075	0.818
4.21792	0.813
4.25508	0.827
4.29225	0.846
4.32942	0.852
4.36659	0.862
4.40376	0.846
4.44092	0.829
4.47809	0.846
4.51526	0.831
4.55243	0.838
4.5896	0.831
4.62676	0.831
4.66393	0.837
4.7011	0.832
4.73827	0.838
4.77544	0.838
4.8126	0.843
4.84977	0.844
4.88694	0.848
4.92411	0.851
4.96128	0.849
4.99844	0.849
5.03561	0.844
5.07278	0.837
5.10995	0.834
5.14712	0.832
5.18428	0.829
5.22145	0.826
5.25862	0.821
5.29579	0.817
5.33296	0.812
5.37013	0.81
5.40729	0.806
5.44446	0.798
5.48163	0.79
5.5188	0.747
5.55597	0.675
5.59313	0.604
5.6303	0.426
5.66747	0.105
5.70464	0.026
5.74181	0.034
5.77897	0.034
5.81614	0.108
5.85331	0.288
5.89048	0.392
5.92765	0.561
5.96481	0.637
6.00198	0.675
6.03915	0.694
6.07632	0.7
6.11349	0.722
6.15065	0.733
6.18782	0.747
6.22499	0.751
6.26216	0.756
6.29933	0.759
6.33649	0.759
6.37366	0.758
6.41083	0.745
6.448	0.742
6.48517	0.728
6.52233	0.72
6.5595	0.699
6.59667	0.686
6.63384	0.646
6.67101	0.584
6.70818	0.401
6.74534	0.181
6.78251	0.051
6.81968	0.099
6.85685	0.227
6.89402	0.336
6.93118	0.353
6.96835	0.322
7.00552	0.33
7.04269	0.282
7.07986	0.252
7.11702	0.206
7.15419	0.162
7.19136	0.106
7.22853	0.144
7.2657	0.172
7.30286	0.162
7.34003	0.271
7.3772	0.279
7.41437	0.221
7.45154	0.209
7.4887	0.187
7.52587	0.17
7.56304	0.119
7.60021	0.06
7.63738	0.04
7.67454	0.032
7.71171	0.024
7.74888	0.024
7.78605	0.024
7.82322	0.023
7.86038	0.023
7.89755	0.023
7.93472	0.023
7.97189	0.023
8.00906	0.021
8.04623	0.021
8.08339	0.018
8.12056	0.023
8.15773	0.023
8.1949	0.026
8.23207	0.024
8.26923	0.024
8.3064	0.024
8.34357	0.024
8.38074	0.029
8.41791	0.04
8.45507	0.065
8.49224	0.097
8.52941	0.093
8.56658	0.15
8.60375	0.175
8.64091	0.155
8.67808	0.11
8.71525	0.055
8.75242	0.034
8.78959	0.029
8.82675	0.026
8.86392	0.023
8.90109	0.026
8.93826	0.024
8.97543	0.044
9.01259	0.052
9.04976	0.029
9.08693	0.018
9.1241	0.018
9.16127	0.021
9.19843	0.023
9.2356	0.029
9.27277	0.057
9.30994	0.119
9.34711	0.186
9.38428	0.232
9.42144	0.274
9.45861	0.279
9.49578	0.274
9.53295	0.268
9.57012	0.293
9.60728	0.339
9.64445	0.395
9.68162	0.431
9.71879	0.458
9.75596	0.441
9.79312	0.412
9.83029	0.381
9.86746	0.347
9.90463	0.308
9.9418	0.3
9.97896	0.302
10.0161	0.325
10.0533	0.327
10.0905	0.322
10.1276	0.311
10.1648	0.299
10.202	0.244
10.2391	0.213
10.2763	0.182
10.3135	0.165
10.3506	0.153
10.3878	0.153
10.425	0.17
10.4621	0.193
10.4993	0.2
10.5365	0.204
10.5737	0.207
10.6108	0.226
10.648	0.279
10.6852	0.331
10.7223	0.364
10.7595	0.382
10.7967	0.396
10.8338	0.39
10.871	0.393
10.9082	0.424
10.9453	0.448
10.9825	0.46
11.0197	0.466
11.0568	0.479
11.094	0.494
11.1312	0.505
11.1683	0.514
11.2055	0.513
11.2427	0.508
11.2798	0.5
11.317	0.508
11.3542	0.513
11.3914	0.536
11.4285	0.565
11.4657	0.584
11.5029	0.604
11.54	0.621
11.5772	0.631
11.6144	0.643
11.6515	0.649
11.6887	0.657
11.7259	0.662
11.763	0.655
11.8002	0.648
11.8374	0.629
11.8745	0.607
11.9117	0.572
11.9489	0.551
11.986	0.525
12.0232	0.506
12.0604	0.489
12.0975	0.477
12.1347	0.472
12.1719	0.472
12.209	0.493
12.2462	0.528
12.2834	0.55
12.3206	0.579
12.3577	0.589
12.3949	0.593
12.4321	0.601
12.4692	0.607
12.5064	0.61
12.5436	0.62
12.5807	0.624
12.6179	0.632
12.6551	0.644
12.6922	0.646
12.7294	0.648
12.7666	0.638
12.8037	0.632
12.8409	0.618
12.8781	0.606
12.9152	0.592
12.9524	0.589
12.9896	0.576
13.0267	0.579
13.0639	0.582
13.1011	0.603
13.1382	0.623
13.1754	0.626
13.2126	0.644
13.2498	0.643
13.2869	0.658
13.3241	0.66
13.3613	0.665
13.3984	0.663
13.4356	0.66
13.4728	0.657
13.5099	0.654
13.5471	0.649
13.5843	0.643
13.6214	0.64
13.6586	0.629
13.6958	0.612
13.7329	0.586
13.7701	0.567
13.8073	0.539
13.8444	0.527
13.8816	0.502
13.9188	0.486
13.9559	0.468
13.9931	0.452
14.0303	0.441
14.0675	0.431
14.1046	0.421
14.1418	0.413
14.179	0.418
14.2161	0.417
14.2533	0.424
14.2905	0.429
14.3276	0.437
14.3648	0.448
14.402	0.463
14.4391	0.468
14.4763	0.48
14.5135	0.491
14.5506	0.5
14.5878	0.513
14.625	0.522
14.6621	0.522
14.6993	0.55
14.7365	0.553
14.7736	0.553
14.8108	0.556
14.848	0.572
14.8851	0.567
14.9223	0.578
14.9595	0.579
14.9967	0.581
15.0338	0.587
15.071	0.59
15.1082	0.593
15.1453	0.598
15.1825	0.593
15.2197	0.596
15.2568	0.598
15.294	0.593
15.3312	0.595
15.3683	0.598
15.4055	0.596
15.4427	0.589
15.4798	0.59
15.517	0.587
15.5542	0.589
15.5913	0.582
15.6285	0.589
15.6657	0.581
15.7028	0.578
15.74	0.578
15.7772	0.576
15.8143	0.575
15.8515	0.572
15.8887	0.572
15.9259	0.572
15.963	0.572
