Infrared Spectrum: PYRIMIDINE, 5-ALLYL-4,6-DICHLORO-
Formula: C7 H6 Cl2 N2
CAS: 16019-31-1
State: LIQUID (NEAT)
Class: COBLENTZ III
Instrument: PERKIN-ELMER 521 (GRATING)
Instrument parameters: FILTERS CHANGE AT 3150, 2500, 2000, 1150, 700, 410 CM^-^1, GRATING CHANGES AT 2000, 630 CM^-^1
Sampling: TRANSMISSION
Path length: CAPILLARY
Resolution: 4
Origin: SOUTHERN RESEARCH INSTITUTE
1/CM	TRANSMITTANCE
250.704	0.743
259.723	0.7669
268.742	0.7888
277.762	0.8127
286.781	0.8357
295.8	0.8586
304.819	0.8796
313.838	0.8939
322.857	0.8932
331.877	0.8862
340.896	0.9088
349.915	0.9259
358.934	0.9242
367.953	0.8971
376.972	0.881
385.992	0.8857
395.011	0.8934
404.03	0.893
413.049	0.8635
422.068	0.7532
431.087	0.76
440.107	0.8944
449.126	0.9221
458.145	0.9219
467.164	0.8723
476.183	0.8481
485.202	0.9034
494.222	0.9035
503.241	0.8941
512.26	0.8718
521.279	0.6289
530.298	0.5867
539.317	0.7064
548.337	0.7264
557.356	0.7077
566.375	0.6451
575.394	0.7621
584.413	0.8499
593.432	0.8735
602.452	0.86
611.471	0.8741
620.49	0.8872
629.509	0.89
638.528	0.889
647.547	0.886
656.567	0.8819
665.586	0.8694
674.605	0.8089
683.624	0.7281
692.643	0.7301
701.662	0.8262
710.682	0.86
719.701	0.853
728.72	0.8252
737.739	0.7387
746.758	0.6819
755.777	0.6716
764.797	0.3789
773.816	0.2331
782.835	0.3004
791.854	0.5012
800.873	0.5684
809.892	0.6808
818.912	0.6627
827.931	0.4356
836.95	0.3159
845.969	0.6251
854.988	0.717
864.007	0.7777
873.027	0.795
882.046	0.791
891.065	0.6482
900.084	0.3563
909.103	0.3483
918.122	0.3271
927.142	0.3091
936.161	0.39
945.18	0.5625
954.199	0.6271
963.218	0.6742
972.237	0.6763
981.257	0.4579
990.276	0.4782
999.295	0.6965
1008.31	0.7652
1017.33	0.7993
1026.35	0.7987
1035.37	0.7951
1044.39	0.7814
1053.41	0.7463
1062.43	0.7023
1071.45	0.5854
1080.47	0.4229
1089.49	0.3917
1098.51	0.4906
1107.52	0.6647
1116.54	0.627
1125.56	0.6406
1134.58	0.7033
1143.6	0.649
1152.62	0.475
1161.64	0.437
1170.66	0.4921
1179.68	0.511
1188.7	0.4206
1197.72	0.3557
1206.74	0.5523
1215.75	0.7205
1224.77	0.7728
1233.79	0.8099
1242.81	0.8037
1251.83	0.7165
1260.85	0.6488
1269.87	0.7453
1278.89	0.6963
1287.91	0.5185
1296.93	0.5675
1305.95	0.5836
1314.97	0.5312
1323.98	0.6148
1333	0.5879
1342.02	0.2682
1351.04	0.219
1360.06	0.3603
1369.08	0.4299
1378.1	0.358
1387.12	0.4402
1396.14	0.348
1405.16	0.1962
1414.18	0.2512
1423.2	0.423
1432.21	0.4016
1441.23	0.4799
1450.25	0.6681
1459.27	0.7123
1468.29	0.7136
1477.31	0.689
1486.33	0.5956
1495.35	0.4417
1504.37	0.2672
1513.39	0.1081
1522.41	0.2556
1531.43	0.2891
1540.45	0.2294
1549.46	0.3093
1558.48	0.3881
1567.5	0.4937
1576.52	0.6449
1585.54	0.67
1594.56	0.6248
1603.58	0.6646
1612.6	0.7002
1621.62	0.6936
1630.64	0.4783
1639.66	0.4424
1648.68	0.8028
1657.69	0.8237
1666.71	0.8438
1675.73	0.8539
1684.75	0.8599
1693.77	0.8667
1702.79	0.871
1711.81	0.873
1720.83	0.8778
1729.85	0.879
1738.87	0.8828
1747.89	0.888
1756.91	0.889
1765.92	0.891
1774.94	0.891
1783.96	0.889
1792.98	0.8863
1802	0.8807
1811.02	0.8667
1820.04	0.8487
1829.06	0.8328
1838.08	0.8286
1847.1	0.8326
1856.12	0.8391
1865.14	0.852
1874.15	0.848
1883.17	0.8321
1892.19	0.8161
1901.21	0.8142
1910.23	0.8369
1919.25	0.852
1928.27	0.8578
1937.29	0.8443
1946.31	0.8108
1955.33	0.863
1964.35	0.8607
1973.37	0.8636
1982.38	0.8738
1991.4	0.8865
2000.42	0.8965
2009.44	0.9002
2018.46	0.9008
2027.48	0.899
2036.5	0.898
2045.52	0.897
2054.54	0.8968
2063.56	0.895
2072.58	0.8948
2081.6	0.892
2090.61	0.891
2099.63	0.89
2108.65	0.8885
2117.67	0.8815
2126.69	0.8742
2135.71	0.8869
2144.73	0.8965
2153.75	0.9
2162.77	0.8988
2171.79	0.895
2180.81	0.8803
2189.83	0.8682
2198.84	0.8925
2207.86	0.8972
2216.88	0.898
2225.9	0.897
2234.92	0.896
2243.94	0.895
2252.96	0.8928
2261.98	0.89
2271	0.886
2280.02	0.8805
2289.04	0.8778
2298.06	0.8695
2307.07	0.8573
2316.09	0.8445
2325.11	0.8345
2334.13	0.8243
2343.15	0.8125
2352.17	0.8058
2361.19	0.803
2370.21	0.801
2379.23	0.8002
2388.25	0.814
2397.27	0.8536
2406.29	0.8785
2415.3	0.883
2424.32	0.885
2433.34	0.886
2442.36	0.886
2451.38	0.886
2460.4	0.886
2469.42	0.8872
2478.44	0.889
2487.46	0.8888
2496.48	0.887
2505.5	0.8848
2514.52	0.881
2523.53	0.8788
2532.55	0.8765
2541.57	0.8718
2550.59	0.8702
2559.61	0.871
2568.63	0.8708
2577.65	0.869
2586.67	0.8663
2595.69	0.8608
2604.71	0.86
2613.73	0.8682
2622.75	0.8779
2631.76	0.8813
2640.78	0.8745
2649.8	0.8648
2658.82	0.8535
2667.84	0.8428
2676.86	0.8378
2685.88	0.8305
2694.9	0.823
2703.92	0.8252
2712.94	0.8295
2721.96	0.8447
2730.98	0.8575
2739.99	0.8652
2749.01	0.866
2758.03	0.865
2767.05	0.8682
2776.07	0.869
2785.09	0.868
2794.11	0.8658
2803.13	0.8628
2812.15	0.8578
2821.17	0.8498
2830.19	0.8391
2839.21	0.8165
2848.22	0.803
2857.24	0.8062
2866.26	0.808
2875.28	0.8078
2884.3	0.7905
2893.32	0.7828
2902.34	0.7606
2911.36	0.7294
2920.38	0.6844
2929.4	0.6559
2938.42	0.7168
2947.44	0.7558
2956.45	0.7301
2965.47	0.6907
2974.49	0.6134
2983.51	0.5921
2992.53	0.6852
3001.55	0.7225
3010.57	0.6635
3019.59	0.6855
3028.61	0.7551
3037.63	0.7753
3046.65	0.7424
3055.67	0.68
3064.68	0.6274
3073.7	0.6032
3082.72	0.55
3091.74	0.6605
3100.76	0.755
3109.78	0.8217
3118.8	0.8332
3127.82	0.8372
3136.84	0.84
3145.86	0.8422
3154.88	0.8442
3163.9	0.847
3172.91	0.848
3181.93	0.8492
3190.95	0.851
3199.97	0.854
3208.99	0.8562
3218.01	0.858
3227.03	0.859
3236.05	0.859
3245.07	0.859
3254.09	0.859
3263.11	0.859
3272.13	0.859
3281.14	0.859
3290.16	0.8592
3299.18	0.86
3308.2	0.86
3317.22	0.86
3326.24	0.86
3335.26	0.86
3344.28	0.861
3353.3	0.86
3362.32	0.8598
3371.34	0.858
3380.36	0.857
3389.37	0.8558
3398.39	0.8548
3407.41	0.853
3416.43	0.853
3425.45	0.853
3434.47	0.853
3443.49	0.853
3452.51	0.853
3461.53	0.852
3470.55	0.852
3479.57	0.851
3488.59	0.851
3497.6	0.852
3506.62	0.852
3515.64	0.852
3524.66	0.852
3533.68	0.853
3542.7	0.8542
3551.72	0.855
3560.74	0.855
3569.76	0.854
3578.78	0.854
3587.8	0.853
3596.82	0.853
3605.83	0.852
3614.85	0.852
3623.87	0.852
3632.89	0.852
3641.91	0.852
3650.93	0.852
3659.95	0.852
3668.97	0.854
3677.99	0.856
3687.01	0.8582
3696.03	0.859
3705.05	0.8578
3714.06	0.856
3723.08	0.854
3732.1	0.8538
3741.12	0.853
3750.14	0.853
3759.16	0.853
3768.18	0.853
3777.2	0.852
3786.22	0.852
3795.24	0.8518
3804.26	0.85
