Infrared Spectrum: Iodotrimethylsilane
Formula: C 3 H 9 I Si
CAS: 16029-98-4
State: gas
Origin: EPA-IR VAPOR PHASE LIBRARY
1/CM	ABSORBANCE
501.5	0.0008757
513.074	0.00105
524.648	0.0012195
536.222	0.0011611
547.796	0.0008459
559.37	0.0008778
570.944	0.0011298
582.518	0.0010736
594.092	0.001522
605.666	0.004352
617.24	0.010152
628.814	0.009592
640.388	0.003452
651.962	0.002062
663.536	0.002112
675.11	0.002962
686.684	0.004122
698.258	0.005712
709.832	0.006132
721.406	0.005222
732.98	0.004162
744.554	0.004882
756.128	0.007322
767.702	0.008462
779.276	0.006402
790.85	0.004882
802.423	0.006332
813.997	0.012272
825.571	0.025712
837.145	0.046462
848.719	0.061972
860.293	0.047232
871.867	0.024882
883.441	0.013632
895.015	0.008922
906.589	0.006332
918.163	0.004622
929.737	0.003442
941.311	0.003212
952.885	0.003692
964.459	0.003862
976.033	0.002142
987.607	0.001702
999.181	0.001592
1010.76	0.001972
1022.33	0.002402
1033.9	0.003012
1045.48	0.004852
1057.05	0.007962
1068.63	0.009192
1080.2	0.005552
1091.77	0.002032
1103.35	0.001572
1114.92	0.0011759
1126.49	0.001522
1138.07	0.001532
1149.64	0.002472
1161.22	0.002692
1172.79	0.002012
1184.36	0.002252
1195.94	0.002982
1207.51	0.005542
1219.09	0.006342
1230.66	0.006512
1242.23	0.012692
1253.81	0.020672
1265.38	0.018332
1276.96	0.008682
1288.53	0.003532
1300.1	0.002682
1311.68	0.002452
1323.25	0.002272
1334.83	0.001832
1346.4	0.001532
1357.97	0.001408
1369.55	0.001712
1381.12	0.002252
1392.7	0.003192
1404.27	0.004582
1415.84	0.004132
1427.42	0.002392
1438.99	0.001522
1450.57	0.0012273
1462.14	0.0011058
1473.71	0.0009337
1485.29	0.0007512
1496.86	0.0007437
1508.44	0.0007431
1520.01	0.0006919
1531.58	0.0007255
1543.16	0.0009082
1554.73	0.0008106
1566.31	0.0008842
1577.88	0.000761
1589.45	0.0006756
1601.03	0.0006543
1612.6	0.00057174
1624.18	0.00059168
1635.75	0.000644
1647.32	0.00059777
1658.9	0.0006173
1670.47	0.0006541
1682.05	0.000715
1693.62	0.0006537
1705.19	0.0007104
1716.77	0.0006793
1728.34	0.0007123
1739.92	0.0006297
1751.49	0.00057469
1763.06	0.0006075
1774.64	0.0006804
1786.21	0.0005708
1797.79	0.00059381
1809.36	0.00057537
1820.93	0.0006214
1832.51	0.00056156
1844.08	0.0006493
1855.66	0.0006635
1867.23	0.000835
1878.8	0.0008478
1890.38	0.0007764
1901.95	0.0006722
1913.53	0.00057551
1925.1	0.00055002
1936.67	0.0006169
1948.25	0.0007452
1959.82	0.0007354
1971.4	0.0007687
1982.97	0.0006476
1994.54	0.00059736
2006.12	0.0006617
2017.69	0.0006669
2029.27	0.0006506
2040.84	0.0006931
2052.41	0.00052708
2063.99	0.000507133
2075.56	0.00049845
2087.14	0.00051316
2098.71	0.0006097
2110.28	0.000632
2121.86	0.00052764
2133.43	0.00055681
2145.01	0.00055297
2156.58	0.0004276
2168.15	0.0004338
2179.73	0.0004206
2191.3	0.0004558
2202.88	0.0004836
2214.45	0.0004317
2226.02	0.0004162
2237.6	0.0004079
2249.17	0.0004509
2260.74	0.0004786
2272.32	0.0004502
2283.89	0.0004226
2295.47	0.000344
2307.04	0.000385
2318.61	0.000329
2330.19	0.0004318
2341.76	0.0004263
2353.34	0.000365
2364.91	0.000346
2376.48	0.000369
2388.06	0.000441
2399.63	0.000367
2411.21	0.000327
2422.78	0.000389
2434.35	0.000342
2445.93	0.000391
2457.5	0.0004302
2469.08	0.000358
2480.65	0.0004102
2492.22	0.0004676
2503.8	0.000307
2515.37	0.000337
2526.95	0.000366
2538.52	0.000349
2550.09	0.000393
2561.67	0.000305
2573.24	0.000312
2584.82	0.000346
2596.39	0.000283
2607.96	0.000301
2619.54	0.000384
2631.11	0.00034
2642.69	0.000281
2654.26	0.0004496
2665.83	0.0004251
2677.41	0.000355
2688.98	0.000299
2700.56	0.000331
2712.13	0.0004487
2723.7	0.000391
2735.28	0.000353
2746.85	0.00055735
2758.43	0.00055624
2770	0.0007057
2781.57	0.0008002
2793.15	0.0009048
2804.72	0.0009679
2816.3	0.0009058
2827.87	0.0009805
2839.44	0.0009497
2851.02	0.0011384
2862.59	0.0013183
2874.17	0.0014771
2885.74	0.002212
2897.31	0.003772
2908.89	0.004182
2920.46	0.002622
2932.04	0.001852
2943.61	0.002602
2955.18	0.006242
2966.76	0.008922
2978.33	0.007152
2989.91	0.003782
3001.48	0.001942
3013.05	0.0009966
3024.63	0.0009257
3036.2	0.0009072
3047.78	0.0010534
3059.35	0.0011505
3070.92	0.0011608
3082.5	0.0011439
3094.07	0.0011185
3105.65	0.0010135
3117.22	0.0010343
3128.79	0.0009612
3140.37	0.0007863
3151.94	0.0005664
3163.52	0.00058433
3175.09	0.00053685
3186.66	0.0004476
3198.24	0.0005668
3209.81	0.00053334
3221.39	0.0004123
3232.96	0.000306
3244.53	0.000506964
3256.11	0.00021
3267.68	0.000349
3279.26	0.0004045
3290.83	0.0004584
3302.4	0.000367
3313.98	0.000308
3325.55	0.0004547
3337.13	0.0004574
3348.7	0.0004621
3360.27	0.000339
3371.85	0.0004766
3383.42	0.000375
3395	0.000301
3406.57	0.0004127
3418.14	0.000309
3429.72	0.000173
3441.29	0.0004398
3452.86	0.0004133
3464.44	0.000389
3476.01	0.000301
3487.59	0.0004077
3499.16	0.0004259
3510.73	0.000285
3522.31	0.000352
3533.88	0.000389
3545.46	0.000352
3557.03	0.000369
3568.6	0.000237
3580.18	0.00054098
3591.75	0.0004614
3603.33	0.000392
3614.9	0.0005091
3626.47	0.000399
3638.05	0.0006168
3649.62	0.0007644
3661.2	0.0008308
3672.77	0.0008406
3684.34	0.0006494
3695.92	0.00057556
3707.49	0.0004788
3719.07	0.0007072
3730.64	0.0004395
3742.21	0.0004471
3753.79	0.0004507
3765.36	0.00057128
3776.94	0.0006358
3788.51	0.00049986
3800.08	0.0006531
3811.66	0.0006291
3823.23	0.0006028
3834.81	0.0004582
3846.38	0.000273
3857.95	0.000377
3869.53	0.0004844
3881.1	0.000303
3892.68	0.000293
3904.25	0.0004382
3915.82	5.6e-05
3927.4	0.000172
3938.97	0.000184
3950.55	0.000248
3962.12	0.00052758
3973.69	0.0004592
3985.27	0.000307
3996.84	0.00051495
