Infrared Spectrum: 2-Amino-3-picoline
Formula: C 6 H 8 N 2
CAS: 1603-40-3
State: gas
Origin: EPA-IR VAPOR PHASE LIBRARY
1/CM	ABSORBANCE
549.8	0.008661
559.445	0.009161
569.09	0.009591
578.734	0.010011
588.379	0.010831
598.024	0.011791
607.669	0.012911
617.313	0.013881
626.958	0.014201
636.603	0.013381
646.248	0.012461
655.893	0.011161
665.537	0.010231
675.182	0.009851
684.827	0.009461
694.472	0.009631
704.116	0.010631
713.761	0.012091
723.406	0.013681
733.051	0.014811
742.695	0.016941
752.34	0.023861
761.985	0.031411
771.63	0.053601
781.275	0.028031
790.919	0.022961
800.564	0.013031
810.209	0.009871
819.854	0.009431
829.498	0.009031
839.143	0.008451
848.788	0.008181
858.433	0.008141
868.078	0.007621
877.722	0.006691
887.367	0.005691
897.012	0.005101
906.657	0.004931
916.301	0.004951
925.946	0.004641
935.591	0.004691
945.236	0.004471
954.88	0.004961
964.525	0.005081
974.17	0.006651
983.815	0.008111
993.46	0.008651
1003.1	0.007851
1012.75	0.006491
1022.39	0.006481
1032.04	0.006221
1041.68	0.005561
1051.33	0.004811
1060.97	0.006281
1070.62	0.009581
1080.26	0.010011
1089.91	0.008661
1099.55	0.005261
1109.2	0.003921
1118.84	0.002781
1128.49	0.003171
1138.13	0.003381
1147.78	0.003641
1157.42	0.003441
1167.07	0.003771
1176.71	0.006691
1186.36	0.010441
1196	0.010901
1205.64	0.008861
1215.29	0.004661
1224.93	0.002971
1234.58	0.003041
1244.22	0.005251
1253.87	0.007831
1263.51	0.010461
1273.16	0.013651
1282.8	0.016421
1292.45	0.016941
1302.09	0.015361
1311.74	0.009991
1321.38	0.007931
1331.03	0.005101
1340.67	0.003271
1350.32	0.002771
1359.96	0.002741
1369.61	0.003721
1379.25	0.004971
1388.9	0.005971
1398.54	0.006701
1408.18	0.009851
1417.83	0.023501
1427.47	0.054101
1437.12	0.084131
1446.76	0.105951
1456.41	0.090001
1466.05	0.067051
1475.7	0.038491
1485.34	0.024481
1494.99	0.012751
1504.63	0.007331
1514.28	0.005901
1523.92	0.005801
1533.57	0.007151
1543.21	0.009011
1552.86	0.012361
1562.5	0.018301
1572.15	0.028511
1581.79	0.042391
1591.44	0.065261
1601.08	0.092771
1610.73	0.099901
1620.37	0.084801
1630.01	0.047421
1639.66	0.022251
1649.3	0.011201
1658.95	0.006451
1668.59	0.004761
1678.24	0.003941
1687.88	0.003941
1697.53	0.004261
1707.17	0.004281
1716.82	0.003771
1726.46	0.003021
1736.11	0.002571
1745.75	0.002251
1755.4	0.001971
1765.04	0.001831
1774.69	0.001701
1784.33	0.001541
1793.98	0.001461
1803.62	0.001451
1813.27	0.001581
1822.91	0.001531
1832.55	0.001511
1842.2	0.001811
1851.84	0.002021
1861.49	0.002221
1871.13	0.002501
1880.78	0.002611
1890.42	0.002631
1900.07	0.002741
1909.71	0.002551
1919.36	0.002161
1929	0.001611
1938.65	0.0011948
1948.29	0.0011385
1957.94	0.0011003
1967.58	0.0010864
1977.23	0.0010487
1986.87	0.0010078
1996.52	0.0010106
2006.16	0.0009604
2015.81	0.0010173
2025.45	0.0010462
2035.1	0.0010944
2044.74	0.0009769
2054.38	0.0010166
2064.03	0.0010387
2073.67	0.000864
2083.32	0.0009511
2092.96	0.0008796
2102.61	0.000969
2112.25	0.0009578
2121.9	0.000974
2131.54	0.0009862
2141.19	0.0009469
2150.83	0.0012054
2160.48	0.001431
2170.12	0.001621
2179.77	0.001651
2189.41	0.001581
2199.06	0.001371
2208.7	0.0012213
2218.35	0.0012191
2227.99	0.0010176
2237.64	0.0008489
2247.28	0.0009073
2256.92	0.0010058
2266.57	0.0011928
2276.21	0.001361
2285.86	0.001461
2295.5	0.001421
2305.15	0.001351
2314.79	0.0012814
2324.44	0.0012018
2334.08	0.001331
2343.73	0.001351
2353.37	0.0012202
2363.02	0.0010092
2372.66	0.0008629
2382.31	0.0007909
2391.95	0.000702
2401.6	0.0006232
2411.24	0.0005778
2420.89	0.0006955
2430.53	0.0007447
2440.18	0.0007687
2449.82	0.0008545
2459.47	0.000923
2469.11	0.0009615
2478.75	0.0009635
2488.4	0.0008652
2498.04	0.0009843
2507.69	0.001026
2517.33	0.0009312
2526.98	0.0009794
2536.62	0.0011186
2546.27	0.0010835
2555.91	0.0011397
2565.56	0.001411
2575.2	0.001511
2584.85	0.001296
2594.49	0.0012664
2604.14	0.000982
2613.78	0.0009692
2623.43	0.0006782
2633.07	0.0007779
2642.72	0.0006576
2652.36	0.0006653
2662.01	0.0005148
2671.65	0.0005005
2681.29	0.0004641
2690.94	0.0006232
2700.58	0.0005329
2710.23	0.0006425
2719.87	0.0008474
2729.52	0.0009872
2739.16	0.001331
2748.81	0.001511
2758.45	0.001381
2768.1	0.0011498
2777.74	0.001117
2787.39	0.0009184
2797.03	0.0010496
2806.68	0.001321
2816.32	0.001631
2825.97	0.001761
2835.61	0.002311
2845.26	0.003381
2854.9	0.005231
2864.55	0.007911
2874.19	0.009591
2883.84	0.009961
2893.48	0.009581
2903.12	0.009791
2912.77	0.011601
2922.41	0.013191
2932.06	0.013571
2941.7	0.013451
2951.35	0.011521
2960.99	0.009751
2970.64	0.010111
2980.28	0.009641
2989.93	0.009311
2999.57	0.008241
3009.22	0.009571
3018.86	0.012741
3028.51	0.015201
3038.15	0.017021
3047.8	0.017721
3057.44	0.017161
3067.09	0.015311
3076.73	0.013721
3086.38	0.010801
3096.02	0.007691
3105.67	0.003011
3115.31	0.001701
3124.95	0.001571
3134.6	0.001531
3144.24	0.001461
3153.89	0.001501
3163.53	0.001541
3173.18	0.001621
3182.82	0.001531
3192.47	0.001611
3202.11	0.0011596
3211.76	0.0009103
3221.4	0.0006862
3231.05	0.0005882
3240.69	0.00037053
3250.34	0.0004563
3259.98	0.0004882
3269.63	0.00033523
3279.27	0.00021
3288.92	0.000185
3298.56	0.0003508
3308.21	0.00040846
3317.85	0.0004344
3327.49	0.0002755
3337.14	0.0004241
3346.78	0.00035762
3356.43	0.0005095
3366.07	0.0006087
3375.72	0.0010902
3385.36	0.002201
3395.01	0.005591
3404.65	0.010671
3414.3	0.013201
3423.94	0.012421
3433.59	0.006951
3443.23	0.003261
3452.88	0.001611
3462.52	0.001421
3472.17	0.001591
3481.81	0.002801
3491.46	0.005271
3501.1	0.009621
3510.75	0.011661
3520.39	0.011131
3530.04	0.007911
3539.68	0.004391
3549.32	0.002531
3558.97	0.0012763
3568.61	0.0007679
3578.26	0.0008994
3587.9	0.0005635
3597.55	0.0007894
3607.19	0.0006742
3616.84	0.0005604
3626.48	0.0006235
3636.13	0.00033658
3645.77	0.0004442
3655.42	0.000323243
3665.06	0.0004747
3674.71	0.0004949
3684.35	0.0004513
3694	0.00031983
3703.64	0.0007236
3713.29	0.000571
3722.93	0.0005311
3732.58	0.0004631
3742.22	0.000449
3751.86	0.0005988
3761.51	0.0006351
3771.15	0.0006512
3780.8	0.0005144
3790.44	0.0006063
3800.09	0.0007594
3809.73	0.0008124
3819.38	0.0007676
3829.02	0.000492
3838.67	0.0006224
3848.31	0.000616
3857.96	0.000629
3867.6	0.0007037
3877.25	0.0008512
3886.89	0.0011271
3896.54	0.001001
3906.18	0.0010457
3915.83	0.0006568
3925.47	0.0008309
3935.12	0.0008505
3944.76	0.0010337
3954.41	0.0008197
3964.05	0.0008692
3973.69	0.000645
3983.34	0.0005256
3992.98	0.000604
