Infrared Spectrum: 2-Amino-5-picoline
Formula: C 6 H 8 N 2
CAS: 1603-41-4
State: gas
Instrument: HP-GC/MS/IRD
Origin: NIST Mass Spectrometry Data Center
1/CM	ABSORBANCE
550	0.0013328
562	0.0019516
574	0.0029104
586	0.0038692
598	0.0041582
610	0.0034306
622	0.0024582
634	0.0020978
646	0.0023154
658	0.0029478
670	0.0035904
682	0.0047124
694	0.0047158
706	0.003621
718	0.0030328
730	0.00272
742	0.0021692
754	0.0017578
766	0.0018326
778	0.0025568
790	0.0042194
802	0.0063546
814	0.0084252
826	0.0055284
838	0.0032096
850	0.0017884
862	0.0012716
874	0.0007922
886	0.00068
898	0.0006494
910	0.000748
922	0.0007752
934	0.0007106
946	0.0006664
958	0.0006664
970	0.000697
982	0.0006392
994	0.0005406
1006	0.0008194
1018	0.0012206
1030	0.0015028
1042	0.0013294
1054	0.0012138
1066	0.0010302
1078	0.0007752
1090	0.0005236
1102	0.000408
1114	0.0006732
1126	0.002074
1138	0.0024038
1150	0.0017578
1162	0.0004556
1174	0.0001734
1186	6.46e-05
1198	0
1210	5.78e-05
1222	0.0003366
1234	0.001122
1246	0.0021386
1258	0.0023664
1270	0.0019822
1282	0.0035972
1294	0.0083674
1306	0.0093432
1318	0.0036414
1330	0.001496
1342	0.0008942
1354	0.0010336
1366	0.0022746
1378	0.0064124
1390	0.0120802
1402	0.0117232
1414	0.005644
1426	0.0023256
1438	0.0018836
1450	0.0021046
1462	0.0030974
1474	0.0074562
1486	0.0263126
1498	0.031382
1510	0.0157114
1522	0.0030396
1534	0.0022916
1546	0.002924
1558	0.0045084
1570	0.0063682
1582	0.0087822
1594	0.0126718
1606	0.026503
1618	0.034
1630	0.0226814
1642	0.0067082
1654	0.0026078
1666	0.0017136
1678	0.0012512
1690	0.0008364
1702	0.000629
1714	0.000493
1726	0.000459
1738	0.0003536
1750	0.000374
1762	0.0003502
1774	0.00034
1786	0.0002822
1798	0.0002414
1810	0.0002822
1822	0.0003536
1834	0.0003536
1846	0.0004046
1858	0.0005644
1870	0.0006324
1882	0.0006392
1894	0.0006052
1906	0.0005474
1918	0.000459
1930	0.0003672
1942	0.000306
1954	0.0003638
1966	0.0004148
1978	0.0004794
1990	0.0004794
2002	0.0004828
2014	0.000408
2026	0.000442
2038	0.0004794
2050	0.0004624
2062	0.0003774
2074	0.0003672
2086	0.0004046
2098	0.000442
2110	0.0004624
2122	0.0004148
2134	0.0004284
2146	0.0004624
2158	0.0004488
2170	0.0004352
2182	0.0004216
2194	0.0004692
2206	0.0004794
2218	0.0005134
2230	0.0005032
2242	0.0005236
2254	0.0005406
2266	0.0005474
2278	0.0005168
2290	0.0005066
2302	0.0005508
2314	0.0005542
2326	0.000578
2338	0.0006086
2350	0.0006086
2362	0.0005814
2374	0.0004896
2386	0.0004386
2398	0.0004352
2410	0.0004284
2422	0.0004794
2434	0.000493
2446	0.0005066
2458	0.0005746
2470	0.000612
2482	0.0006154
2494	0.0005508
2506	0.0005304
2518	0.0004998
2530	0.0004658
2542	0.0004556
2554	0.0004488
2566	0.0005066
2578	0.0005746
2590	0.0006052
2602	0.000595
2614	0.0005338
2626	0.0005474
2638	0.000561
2650	0.0005236
2662	0.00051
2674	0.0004896
2686	0.0005134
2698	0.0004998
2710	0.0004692
2722	0.0005474
2734	0.0006426
2746	0.000748
2758	0.0007038
2770	0.0005508
2782	0.0005474
2794	0.0006086
2806	0.0007072
2818	0.0008092
2830	0.0009282
2842	0.001173
2854	0.0016694
2866	0.0027098
2878	0.0035462
2890	0.003587
2902	0.0034646
2914	0.0038522
2926	0.0053176
2938	0.0055658
2950	0.003978
2962	0.0027744
2974	0.0028968
2986	0.003383
2998	0.0047464
3010	0.0076806
3022	0.0084286
3034	0.0059398
3046	0.0042976
3058	0.0031654
3070	0.0024106
3082	0.001989
3094	0.0016388
3106	0.0013532
3118	0.0010506
3130	0.0007854
3142	0.0006426
3154	0.0006528
3166	0.0006732
3178	0.0007174
3190	0.0006664
3202	0.000663
3214	0.000629
3226	0.0005576
3238	0.0005712
3250	0.0004964
3262	0.0004658
3274	0.0004964
3286	0.0004216
3298	0.0004896
3310	0.0004692
3322	0.0004182
3334	0.0004998
3346	0.0004862
3358	0.0005882
3370	0.0006494
3382	0.0009282
3394	0.0018224
3406	0.0040052
3418	0.0047838
3430	0.0032538
3442	0.0017544
3454	0.0008874
3466	0.000816
3478	0.0011186
3490	0.001734
3502	0.002788
3514	0.003009
3526	0.0027744
3538	0.0017612
3550	0.0011832
3562	0.0007276
3574	0.0005338
3586	0.0005202
3598	0.0004556
3610	0.000442
3622	0.0004794
3634	0.0004658
3646	0.0005066
3658	0.000493
3670	0.0004998
3682	0.0005372
3694	0.0005474
3706	0.0005338
3718	0.000493
3730	0.0005372
3742	0.0005202
3754	0.00051
3766	0.0006188
3778	0.000595
3790	0.0005746
3802	0.0005406
3814	0.000578
3826	0.0005848
3838	0.0006154
