Infrared Spectrum: 1-Propylcyclopentanol
Formula: C 8 H 16 O
CAS: 1604-02-0
State: gas
Instrument: HP-GC/MS/IRD
Origin: NIST Mass Spectrometry Data Center
1/CM	ABSORBANCE
550	0.0007326
562	0.0002046
574	0.0003135
586	0.0003102
598	0.0002178
610	0.0002277
622	0.0002013
634	0.0001518
646	0.0002046
658	0.0001848
670	7.59e-05
682	9.24e-05
694	8.58e-05
706	0.0001023
718	9.24e-05
730	0.0002079
742	0.0002706
754	0.0002673
766	0.0002772
778	0.0003762
790	0.000495
802	0.0005049
814	0.0005676
826	0.0005478
838	0.0007029
850	0.000957
862	0.0013365
874	0.00165
886	0.0018876
898	0.0017061
910	0.0013794
922	0.0010428
934	0.0009405
946	0.0012276
958	0.0015015
970	0.0024552
982	0.0042702
994	0.0047454
1006	0.0033726
1018	0.0021549
1030	0.0017523
1042	0.0016137
1054	0.001518
1066	0.0013695
1078	0.0013563
1090	0.0015609
1102	0.0020031
1114	0.002409
1126	0.0024321
1138	0.0023199
1150	0.0024321
1162	0.0027687
1174	0.0032802
1186	0.0036696
1198	0.003531
1210	0.0031251
1222	0.002937
1234	0.0028446
1246	0.002805
1258	0.0028545
1270	0.0027852
1282	0.0025212
1294	0.0022077
1306	0.0019701
1318	0.0020658
1330	0.0023496
1342	0.0023331
1354	0.0021846
1366	0.0020262
1378	0.0018348
1390	0.0015642
1402	0.001155
1414	0.0010956
1426	0.001452
1438	0.0022209
1450	0.002739
1462	0.002772
1474	0.0023199
1486	0.0014883
1498	0.0007425
1510	0.0004389
1522	0.0003135
1534	0.0002442
1546	0.0001815
1558	0.000165
1570	0.0001089
1582	8.58e-05
1594	5.94e-05
1606	7.26e-05
1618	8.25e-05
1630	6.27e-05
1642	3.63e-05
1654	5.28e-05
1666	3.96e-05
1678	2.64e-05
1690	5.28e-05
1702	4.95e-05
1714	5.28e-05
1726	3.3e-06
1738	4.29e-05
1750	4.29e-05
1762	3.3e-06
1774	3.3e-05
1786	2.31e-05
1798	2.31e-05
1810	9.9e-06
1822	1.65e-05
1834	0
1846	1.98e-05
1858	3.63e-05
1870	4.29e-05
1882	3.3e-05
1894	3.96e-05
1906	1.65e-05
1918	4.29e-05
1930	2.97e-05
1942	3.63e-05
1954	2.64e-05
1966	3.96e-05
1978	4.29e-05
1990	2.97e-05
2002	3.96e-05
2014	3.96e-05
2026	4.62e-05
2038	7.26e-05
2050	6.93e-05
2062	7.59e-05
2074	7.92e-05
2086	7.59e-05
2098	5.94e-05
2110	5.94e-05
2122	7.92e-05
2134	7.92e-05
2146	7.59e-05
2158	7.92e-05
2170	9.24e-05
2182	0.0001122
2194	8.91e-05
2206	9.57e-05
2218	9.9e-05
2230	0.0001023
2242	0.0001056
2254	0.0001254
2266	0.0001122
2278	9.24e-05
2290	0.0001056
2302	0.0001056
2314	0.0001023
2326	0.0001254
2338	0.0001518
2350	0.0001155
2362	0.0001155
2374	0.0001254
2386	0.0001089
2398	0.0001023
2410	6.27e-05
2422	4.95e-05
2434	3.96e-05
2446	8.25e-05
2458	5.94e-05
2470	5.61e-05
2482	6.27e-05
2494	7.26e-05
2506	6.27e-05
2518	5.28e-05
2530	7.59e-05
2542	6.27e-05
2554	7.59e-05
2566	9.24e-05
2578	7.92e-05
2590	0.000132
2602	0.0001122
2614	0.0001254
2626	0.0001188
2638	0.0001419
2650	0.0001485
2662	0.0001551
2674	0.0001617
2686	0.0001848
2698	0.0002145
2710	0.0002409
2722	0.0003036
2734	0.0003564
2746	0.0004191
2758	0.0004191
2770	0.000429
2782	0.0005511
2794	0.00066
2806	0.0008811
2818	0.0012342
2830	0.0020064
2842	0.003498
2854	0.0055011
2866	0.0077583
2878	0.0115566
2890	0.0124179
2902	0.0115698
2914	0.0140943
2926	0.0180279
2938	0.0225456
2950	0.0260997
2962	0.0323499
2974	0.0278982
2986	0.0129327
2998	0.0053592
3010	0.0029898
3022	0.0019734
3034	0.0014091
3046	0.0010131
3058	0.0007656
3070	0.000627
3082	0.0004686
3094	0.0004257
3106	0.0003366
3118	0.0002706
3130	0.0002607
3142	0.0002475
3154	0.0002046
3166	0.0001881
3178	0.0001452
3190	0.0001386
3202	0.0001353
3214	0.0001353
3226	0.0001089
3238	7.92e-05
3250	6.93e-05
3262	5.61e-05
3274	8.91e-05
3286	6.93e-05
3298	7.92e-05
3310	4.29e-05
3322	5.94e-05
3334	5.28e-05
3346	9.24e-05
3358	0.0001353
3370	0.0001221
3382	0.0001452
3394	0.0001089
3406	0.0001221
3418	0.0001551
3430	0.0001452
3442	0.0001188
3454	0.0001254
3466	0.0001287
3478	0.000132
3490	0.0001122
3502	7.92e-05
3514	0.0001551
3526	0.0001089
3538	0.0001716
3550	0.0001617
3562	0.0001287
3574	0.0001617
3586	0.0002079
3598	0.000198
3610	0.0003498
3622	0.0007392
3634	0.0013761
3646	0.0014982
3658	0.0008349
3670	0.0003927
3682	0.0001881
3694	0.0001782
3706	0.0001782
3718	0.0001749
3730	0.000165
3742	0.0001452
3754	0.000165
3766	0.0001815
3778	0.0001617
3790	0.0001551
3802	0.0002079
3814	0.0002211
3826	0.0002376
3838	0.0002046
