Infrared Spectrum: 3-Bromo-4-fluorocinnamic acid
Formula: C 9 H 6 Br F O 2
CAS: 160434-49-1
State: gas
Origin: EPA-IR VAPOR PHASE LIBRARY
1/CM	ABSORBANCE
549.8	0.01181
559.445	0.01142
569.09	0.01401
578.735	0.01707
588.38	0.01385
598.025	0.00676
607.67	0.00603
617.315	0.00755
626.96	0.00683
636.605	0.00758
646.251	0.00809
655.896	0.00319
665.541	0.00341
675.186	0.00435
684.831	0.00472
694.476	0.00472
704.121	0.00337
713.766	0.00231
723.411	0.00214
733.056	0.00221
742.701	0.00208
752.346	0.00214
761.991	0.00217
771.636	0.00181
781.281	0.00355
790.926	0.00475
800.571	0.00558
810.216	0.01242
819.861	0.01594
829.507	0.00682
839.152	0.00316
848.797	0.00374
858.442	0.00718
868.087	0.00753
877.732	0.00714
887.377	0.0112
897.022	0.00845
906.667	0.00591
916.312	0.00461
925.957	0.00353
935.602	0.00437
945.247	0.0063
954.892	0.00468
964.537	0.006
974.182	0.01235
983.827	0.01041
993.472	0.00448
1003.12	0.00309
1012.76	0.00246
1022.41	0.0022
1032.05	0.00318
1041.7	0.00667
1051.34	0.00844
1060.99	0.0061
1070.63	0.00746
1080.28	0.00804
1089.92	0.01236
1099.57	0.02121
1109.21	0.05434
1118.86	0.0994
1128.5	0.05223
1138.15	0.0302
1147.79	0.0331
1157.44	0.04369
1167.08	0.02177
1176.73	0.01083
1186.37	0.01074
1196.02	0.01328
1205.66	0.0085
1215.31	0.00847
1224.95	0.00949
1234.6	0.01166
1244.24	0.01922
1253.89	0.03588
1263.53	0.04141
1273.18	0.02113
1282.82	0.01089
1292.47	0.00917
1302.11	0.00973
1311.76	0.01031
1321.4	0.00875
1331.05	0.0081
1340.69	0.01063
1350.34	0.01807
1359.98	0.02093
1369.63	0.01266
1379.27	0.00867
1388.92	0.0101
1398.56	0.01415
1408.21	0.00916
1417.85	0.00581
1427.5	0.0039
1437.14	0.00377
1446.79	0.00358
1456.43	0.00388
1466.08	0.00568
1475.73	0.01071
1485.37	0.02497
1495.02	0.05026
1504.66	0.02476
1514.31	0.00725
1523.95	0.00413
1533.6	0.00275
1543.24	0.00261
1552.89	0.00361
1562.53	0.00505
1572.18	0.00558
1581.82	0.00713
1591.47	0.01132
1601.11	0.01162
1610.76	0.00541
1620.4	0.00553
1630.05	0.01155
1639.69	0.02804
1649.34	0.01989
1658.98	0.00453
1668.63	0.0028
1678.27	0.00291
1687.92	0.00358
1697.56	0.00432
1707.21	0.00553
1716.85	0.00845
1726.5	0.01309
1736.14	0.02234
1745.79	0.05302
1755.43	0.09723
1765.08	0.06842
1774.72	0.03099
1784.37	0.02203
1794.01	0.01462
1803.66	0.00793
1813.3	0.00497
1822.95	0.00383
1832.59	0.00287
1842.24	0.00211
1851.88	0.00155
1861.53	0.0014
1871.17	0.00156
1880.82	0.0019
1890.46	0.00167
1900.11	0.0012401
1909.75	0.0010806
1919.4	0.0010663
1929.04	0.0009607
1938.69	0.0008225
1948.33	0.0008193
1957.98	0.0007901
1967.62	0.0006814
1977.27	0.0007231
1986.91	0.0007486
1996.56	0.0007034
2006.2	0.0007379
2015.85	0.0007739
2025.49	0.0008215
2035.14	0.0008727
2044.78	0.0009922
2054.43	0.0010799
2064.07	0.0009951
2073.72	0.0007213
2083.36	0.0005984
2093.01	0.000538
2102.65	0.0005012
2112.3	0.0004362
2121.94	0.0004868
2131.59	0.0005386
2141.23	0.0005423
2150.88	0.0005349
2160.52	0.0006009
2170.17	0.0005056
2179.81	0.0005111
2189.46	0.0005244
2199.1	0.0004912
2208.75	0.0005204
2218.39	0.0005624
2228.04	0.0005963
2237.68	0.000632
2247.33	0.0004702
2256.97	0.0005446
2266.62	0.0005518
2276.26	0.0005909
2285.91	0.0005689
2295.55	0.0006183
2305.2	0.0005451
2314.84	0.0005134
2324.49	0.00039016
2334.13	0.0004077
2343.78	0.00038181
2353.42	0.00041245
2363.07	0.00038853
2372.72	0.0004439
2382.36	0.0004687
2392.01	0.0004842
2401.65	0.0004458
2411.3	0.0003046
2420.94	0.00036948
2430.59	0.00042986
2440.23	0.00042774
2449.88	0.0004797
2459.52	0.0005344
2469.17	0.0006341
2478.81	0.0005458
2488.46	0.000521
2498.1	0.0006174
2507.75	0.0005712
2517.39	0.0007401
2527.04	0.0006625
2536.68	0.0005298
2546.33	0.0005591
2555.97	0.0005829
2565.62	0.0005496
2575.26	0.00041324
2584.91	0.0004624
2594.55	0.0003528
2604.2	0.000304
2613.84	0.0002643
2623.49	0.0002497
2633.13	0.0002624
2642.78	0.0002745
2652.42	0.000189
2662.07	0.000147
2671.71	0.000209
2681.36	0.0002345
2691	0.00017
2700.65	0.00021
2710.29	0.0002705
2719.94	0.0002397
2729.58	0.000142
2739.23	0.000169
2748.87	0.00034907
2758.52	0.00034697
2768.16	0.00032042
2777.81	0.0002594
2787.45	0.000227
2797.1	0.0002831
2806.74	0.00016
2816.39	0.000106
2826.03	0.000228
2835.68	0.0002805
2845.32	0.00040553
2854.97	0.00041167
2864.61	0.0004538
2874.26	0.0007833
2883.9	0.0007981
2893.55	0.0007463
2903.19	0.0007167
2912.84	0.0004462
2922.48	0.0004818
2932.13	0.0005728
2941.77	0.0006266
2951.42	0.000547
2961.06	0.0006537
2970.71	0.0006431
2980.35	0.0010936
2990	0.0009244
2999.64	0.0006067
3009.29	0.0005171
3018.93	0.0005062
3028.58	0.0007588
3038.22	0.0010381
3047.87	0.00139
3057.51	0.0011908
3067.16	0.00137
3076.8	0.00164
3086.45	0.000804
3096.09	0.0006905
3105.74	0.0004638
3115.38	0.000284
3125.03	0.0002516
3134.67	0.0002507
3144.32	2.8e-05
3153.96	0.0002711
3163.61	0.00022
3173.25	0.00016
3182.9	0.0002707
3192.54	0.000187
3202.19	0.000177
3211.83	0.000192
3221.48	0.0002654
3231.12	0.00034249
3240.77	0.000106
3250.41	2.9e-05
3260.06	0.0003158
3269.7	0.0002349
3279.35	0.00036062
3289	0.0003166
3298.64	0.000183
3308.29	0.00032725
3317.93	0.000195
3327.58	0.0003157
3337.22	0.0002695
3346.87	0.0002458
3356.51	0.0005084
3366.16	0.00037978
3375.8	0.0005049
3385.45	0.00032206
3395.09	0.0005126
3404.74	0.000438
3414.38	0.0003925
3424.03	0.0003003
3433.67	0.0004658
3443.32	0.0004923
3452.96	0.00042331
3462.61	0.0005232
3472.25	0.0006452
3481.9	0.000801
3491.54	0.0009869
3501.19	0.0010573
3510.83	0.0012053
3520.48	0.0008135
3530.12	0.0007845
3539.77	0.0008531
3549.41	0.0011173
3559.06	0.00194
3568.7	0.00753
3578.35	0.03898
3587.99	0.02903
3597.64	0.00374
3607.28	0.0012524
3616.93	0.0008468
3626.57	0.0007253
3636.22	0.0008468
3645.86	0.0009241
3655.51	0.0007626
3665.15	0.000513
3674.8	0.0004382
3684.44	0.00041268
3694.09	0.000671
3703.73	0.0005372
3713.38	0.000637
3723.02	0.0004859
3732.67	0.000581
3742.31	0.0005596
3751.96	0.00035989
3761.6	0.000462
3771.25	0.0005348
3780.89	0.00042748
3790.54	0.0004422
3800.18	0.0004349
3809.83	0.00036691
3819.47	0.000487
3829.12	0.00041311
3838.76	0.0005977
3848.41	0.0004617
3858.05	0.000333257
3867.7	0.00041498
3877.34	0.0005279
3886.99	0.0004893
3896.63	0.0004497
3906.28	0.00041703
3915.92	0.0003157
3925.57	0.0004904
3935.21	0.00040271
3944.86	0.0006042
3954.5	0.00039181
3964.15	0.0004447
3973.79	0.00037023
3983.44	0.0004876
3993.08	0.00042998
