Infrared Spectrum: 6-Methyl-3,5-heptadien-2-one
Formula: C 8 H 12 O
CAS: 1604-28-0
State: gas
Origin: EPA-IR VAPOR PHASE LIBRARY
1/CM	ABSORBANCE
549.8	0.009121
559.445	0.005021
569.09	0.004001
578.734	0.004871
588.379	0.007331
598.024	0.007201
607.669	0.004851
617.313	0.005241
626.958	0.004371
636.603	0.001911
646.248	0.0011537
655.893	0.0007252
665.537	0.0007173
675.182	0.0008435
684.827	0.0004712
694.472	0.0006424
704.116	0.0007262
713.761	0.0008137
723.406	0.0008502
733.051	0.0010334
742.695	0.0011352
752.34	0.0011035
761.985	0.001551
771.63	0.001871
781.275	0.001651
790.919	0.001721
800.564	0.001791
810.209	0.001791
819.854	0.002361
829.498	0.002771
839.143	0.003031
848.788	0.003731
858.433	0.006021
868.078	0.009001
877.722	0.009621
887.367	0.007561
897.012	0.005801
906.657	0.005871
916.301	0.006161
925.946	0.007021
935.591	0.010561
945.236	0.019821
954.88	0.029331
964.525	0.030891
974.17	0.028501
983.815	0.026411
993.46	0.020771
1003.1	0.014101
1012.75	0.009931
1022.39	0.008811
1032.04	0.009251
1041.68	0.009351
1051.33	0.007671
1060.97	0.005681
1070.62	0.004291
1080.26	0.003721
1089.91	0.003821
1099.55	0.004001
1109.2	0.004831
1118.84	0.006881
1128.49	0.013441
1138.13	0.021951
1147.78	0.023201
1157.42	0.028641
1167.07	0.029871
1176.71	0.017861
1186.36	0.012081
1196	0.014441
1205.64	0.016261
1215.29	0.016051
1224.93	0.025431
1234.58	0.049081
1244.22	0.071121
1253.87	0.068881
1263.51	0.060091
1273.16	0.062091
1282.8	0.041221
1292.45	0.017361
1302.09	0.011481
1311.74	0.008681
1321.38	0.008721
1331.03	0.011651
1340.67	0.022221
1350.32	0.045591
1359.96	0.061661
1369.61	0.047891
1379.25	0.028521
1388.9	0.021021
1398.54	0.014651
1408.18	0.011071
1417.83	0.011041
1427.47	0.012821
1437.12	0.014431
1446.76	0.014271
1456.41	0.011981
1466.05	0.009221
1475.7	0.007111
1485.34	0.005941
1494.99	0.005441
1504.63	0.005261
1514.28	0.005481
1523.92	0.005801
1533.57	0.005851
1543.21	0.006321
1552.86	0.007801
1562.5	0.011761
1572.15	0.020301
1581.79	0.040031
1591.44	0.065811
1601.08	0.063391
1610.73	0.040581
1620.37	0.037611
1630.01	0.051901
1639.66	0.064851
1649.3	0.047801
1658.95	0.024691
1668.59	0.028011
1678.24	0.062501
1687.88	0.106601
1697.53	0.093171
1707.17	0.054741
1716.82	0.035471
1726.46	0.017521
1736.11	0.009621
1745.75	0.006721
1755.4	0.005161
1765.04	0.004191
1774.69	0.003871
1784.33	0.003921
1793.98	0.003551
1803.62	0.002501
1813.27	0.001871
1822.91	0.001741
1832.55	0.001781
1842.2	0.001861
1851.84	0.001801
1861.49	0.001521
1871.13	0.0013399
1880.78	0.0012853
1890.42	0.0012573
1900.07	0.0011942
1909.71	0.0011969
1919.36	0.0012724
1929	0.0012845
1938.65	0.0013236
1948.29	0.0012992
1957.94	0.0011167
1967.58	0.0010682
1977.23	0.0010231
1986.87	0.0010272
1996.52	0.0008987
2006.16	0.0008643
2015.81	0.0008266
2025.45	0.0008051
2035.1	0.0007783
2044.74	0.0006841
2054.38	0.0006989
2064.03	0.0006508
2073.67	0.0006864
2083.32	0.0007027
2092.96	0.0007293
2102.61	0.0006985
2112.25	0.0006815
2121.9	0.0007228
2131.54	0.0007476
2141.19	0.0007862
2150.83	0.0008187
2160.48	0.0008411
2170.12	0.0007754
2179.77	0.0007886
2189.41	0.0008541
2199.06	0.000808
2208.7	0.000727
2218.35	0.0007144
2227.99	0.0007935
2237.64	0.0007495
2247.28	0.000733
2256.92	0.0006792
2266.57	0.0006758
2276.21	0.0006357
2285.86	0.0005304
2295.5	0.00057
2305.15	0.0006342
2314.79	0.0005803
2324.44	0.0004913
2334.08	0.00043173
2343.73	0.0005712
2353.37	0.0005042
2363.02	0.0005201
2372.66	0.0006633
2382.31	0.00076
2391.95	0.0007793
2401.6	0.000792
2411.24	0.0007255
2420.89	0.000709
2430.53	0.0006569
2440.18	0.0006541
2449.82	0.0006566
2459.47	0.000655
2469.11	0.000692
2478.75	0.0008525
2488.4	0.0009492
2498.04	0.0008744
2507.69	0.0009583
2517.33	0.0007827
2526.98	0.0006709
2536.62	0.0007514
2546.27	0.0007264
2555.91	0.0007419
2565.56	0.0006839
2575.2	0.0005841
2584.85	0.0006128
2594.49	0.0005724
2604.14	0.0005821
2613.78	0.0006022
2623.43	0.000627
2633.07	0.0005533
2642.72	0.0005966
2652.36	0.0006713
2662.01	0.0006549
2671.65	0.0006573
2681.29	0.0006376
2690.94	0.0006299
2700.58	0.000556
2710.23	0.0008507
2719.87	0.0011056
2729.52	0.001591
2739.16	0.002221
2748.81	0.002471
2758.45	0.002001
2768.1	0.001701
2777.74	0.001601
2787.39	0.001751
2797.03	0.001941
2806.68	0.002211
2816.32	0.002691
2825.97	0.003561
2835.61	0.004911
2845.26	0.006831
2854.9	0.010391
2864.55	0.015471
2874.19	0.017531
2883.84	0.017271
2893.48	0.017531
2903.12	0.020011
2912.77	0.028321
2922.41	0.038211
2932.06	0.034861
2941.7	0.026461
2951.35	0.021221
2960.99	0.019471
2970.64	0.021341
2980.28	0.022291
2989.93	0.021541
2999.57	0.020031
3009.22	0.020851
3018.86	0.019851
3028.51	0.017291
3038.15	0.016451
3047.8	0.015911
3057.44	0.012981
3067.09	0.009111
3076.73	0.006621
3086.38	0.005201
3096.02	0.004211
3105.67	0.003451
3115.31	0.002861
3124.95	0.002191
3134.6	0.001651
3144.24	0.0013051
3153.89	0.0010687
3163.53	0.0009097
3173.18	0.0007616
3182.82	0.0008337
3192.47	0.0008226
3202.11	0.0007217
3211.76	0.0006594
3221.4	0.0006353
3231.05	0.000584
3240.69	0.0006697
3250.34	0.0005234
3259.98	0.0005901
3269.63	0.0006302
3279.27	0.0006517
3288.92	0.0005293
3298.56	0.0006974
3308.21	0.0007343
3317.85	0.0010198
3327.49	0.000959
3337.14	0.0010979
3346.78	0.001651
3356.43	0.001841
3366.07	0.001861
3375.72	0.001591
3385.36	0.001581
3395.01	0.001481
3404.65	0.0013065
3414.3	0.0007908
3423.94	0.0005563
3433.59	0.0003354
3443.23	0.00044999
3452.88	0.000362974
3462.52	0.0002889
3472.17	0.000224
3481.81	0.000237
3491.46	0.0002922
3501.1	0.00039073
3510.75	0.000201
3520.39	0.0002912
3530.04	0.0003064
3539.68	0.000223
3549.32	0.00035811
3558.97	0.0003143
3568.61	0.000227
3578.26	0.0002938
3587.9	0.00041009
3597.55	0.000195
3607.19	0.00018
3616.84	0.000207
3626.48	0.0003108
3636.13	0.0001
3645.77	0.00038049
3655.42	0.00043852
3665.06	0.000171
3674.71	5.7e-05
3684.35	0.00022
3694	0.000232
3703.64	0.000205
3713.29	4.8e-05
3722.93	9.5e-05
3732.58	0.00044742
3742.22	0.000207
3751.86	0.0002811
3761.51	0.0002956
3771.15	0.000252
3780.8	0.0002669
3790.44	0.00038438
3800.09	0.0005158
3809.73	0.0003337
3819.38	0.000154
3829.02	0.0003462
3838.67	0.0004187
3848.31	0.00038346
3857.96	0.00041948
3867.6	0.00018
3877.25	0.00037248
3886.89	0.00045429
3896.54	0.000471
3906.18	0.000195
3915.83	0.00038025
3925.47	0.0005913
3935.12	0.00042552
3944.76	0.0004319
3954.41	0.000461
3964.05	0.00044537
3973.69	0.000365443
3983.34	0.000235
3992.98	0.000486
