Infrared Spectrum: 4-Ethylurazole
Formula: C 4 H 7 N 3 O 2
CAS: 16050-65-0
State: gas
Origin: EPA-IR VAPOR PHASE LIBRARY
1/CM	ABSORBANCE
549.9	0.01161
559.547	0.01295
569.193	0.01444
578.84	0.01478
588.486	0.01196
598.133	0.00629
607.779	0.00363
617.426	0.00278
627.072	0.0021014
636.719	0.0020977
646.365	0.00304
656.012	0.00493
665.658	0.00699
675.305	0.00692
684.951	0.00473
694.598	0.00289
704.245	0.00375
713.891	0.00547
723.538	0.00573
733.184	0.00468
742.831	0.00569
752.477	0.00849
762.124	0.01179
771.77	0.01574
781.417	0.01878
791.063	0.01795
800.71	0.01277
810.356	0.00754
820.003	0.00516
829.649	0.00419
839.296	0.00353
848.943	0.003
858.589	0.00263
868.236	0.0022395
877.882	0.0020403
887.529	0.0019048
897.175	0.0018302
906.822	0.001787
916.468	0.0018967
926.115	0.0018929
935.761	0.0021486
945.408	0.0024227
955.054	0.00256
964.701	0.0023825
974.347	0.0021758
983.994	0.0022431
993.64	0.00284
1003.29	0.00453
1012.93	0.0064
1022.58	0.00668
1032.23	0.00512
1041.87	0.00368
1051.52	0.00325
1061.17	0.00295
1070.81	0.00267
1080.46	0.0023581
1090.11	0.0023335
1099.75	0.0024334
1109.4	0.00253
1119.05	0.00265
1128.69	0.00259
1138.34	0.0023122
1147.99	0.002246
1157.63	0.0022723
1167.28	0.0022238
1176.92	0.0020323
1186.57	0.0019529
1196.22	0.0024431
1205.86	0.0039
1215.51	0.00582
1225.16	0.0065
1234.8	0.00513
1244.45	0.00317
1254.1	0.0023357
1263.74	0.0022694
1273.39	0.0024611
1283.04	0.00291
1292.68	0.00331
1302.33	0.00403
1311.98	0.00568
1321.62	0.00873
1331.27	0.01049
1340.92	0.01027
1350.56	0.00949
1360.21	0.00863
1369.86	0.00771
1379.5	0.00728
1389.15	0.00817
1398.79	0.00859
1408.44	0.01132
1418.09	0.021
1427.73	0.02672
1437.38	0.02412
1447.03	0.01986
1456.67	0.02108
1466.32	0.0176
1475.97	0.00887
1485.61	0.00425
1495.26	0.00288
1504.91	0.00252
1514.55	0.0024162
1524.2	0.0023603
1533.85	0.0023349
1543.49	0.0023477
1553.14	0.0021492
1562.79	0.0019612
1572.43	0.0018179
1582.08	0.001674
1591.73	0.0016546
1601.37	0.0016842
1611.02	0.0017121
1620.67	0.0017439
1630.31	0.0018304
1639.96	0.0020111
1649.6	0.0020934
1659.25	0.0022053
1668.9	0.0024752
1678.54	0.00306
1688.19	0.00402
1697.84	0.00565
1707.48	0.00825
1717.13	0.01275
1726.78	0.01973
1736.42	0.03318
1746.07	0.06764
1755.72	0.12517
1765.36	0.13948
1775.01	0.09687
1784.66	0.02808
1794.3	0.01146
1803.95	0.01121
1813.6	0.01209
1823.24	0.00986
1832.89	0.00576
1842.54	0.00332
1852.18	0.0026
1861.83	0.0021854
1871.47	0.0020666
1881.12	0.0019666
1890.77	0.0019378
1900.41	0.0019145
1910.06	0.0019612
1919.71	0.0020442
1929.35	0.0021865
1939	0.0022042
1948.65	0.0021272
1958.29	0.0020129
1967.94	0.0019464
1977.59	0.0018041
1987.23	0.0016442
1996.88	0.00151057
2006.53	0.001406
2016.17	0.00134
2025.82	0.001235
2035.47	0.001233
2045.11	0.001206
2054.76	0.001215
2064.41	0.001141
2074.05	0.001117
2083.7	0.001078
2093.35	0.001072
2102.99	0.001085
2112.64	0.00117
2122.28	0.001119
2131.93	0.00118
2141.58	0.001212
2151.22	0.001246
2160.87	0.001289
2170.52	0.001452
2180.16	0.00150695
2189.81	0.0014741
2199.46	0.0014167
2209.1	0.0014838
2218.75	0.00159477
2228.4	0.0016405
2238.04	0.0017868
2247.69	0.0019862
2257.34	0.0021924
2266.98	0.00264
2276.63	0.00301
2286.28	0.00282
2295.92	0.0024721
2305.57	0.0018933
2315.22	0.001384
2324.86	0.001235
2334.51	0.00119
2344.16	0.001217
2353.8	0.001145
2363.45	0.001094
2373.09	0.00102
2382.74	0.000964
2392.39	0.00093
2402.03	0.000966
2411.68	0.000972
2421.33	0.000987
2430.97	0.001021
2440.62	0.001068
2450.27	0.000999
2459.91	0.001051
2469.56	0.001042
2479.21	0.001115
2488.85	0.001038
2498.5	0.000918
2508.15	0.000831
2517.79	0.000869
2527.44	0.000853
2537.09	0.000885
2546.73	0.000894
2556.38	0.000822
2566.03	0.000811
2575.67	0.000761
2585.32	0.000711
2594.96	0.000702
2604.61	0.000731
2614.26	0.000712
2623.9	0.000738
2633.55	0.000748
2643.2	0.000771
2652.84	0.000812
2662.49	0.00075
2672.14	0.000649
2681.78	0.000704
2691.43	0.000689
2701.08	0.000653
2710.72	0.00051
2720.37	0.00063
2730.02	0.000528
2739.66	0.00045
2749.31	0.000515
2758.96	0.00046
2768.6	0.000525
2778.25	0.00049
2787.9	0.00039
2797.54	0.00037
2807.19	0.000517
2816.84	0.00041
2826.48	0.0005
2836.13	0.000542
2845.77	0.00045
2855.42	0.000514
2865.07	0.00058
2874.71	0.000814
2884.36	0.001111
2894.01	0.001348
2903.65	0.001228
2913.3	0.001259
2922.95	0.001221
2932.59	0.0018298
2942.24	0.00291
2951.89	0.00372
2961.53	0.00377
2971.18	0.00318
2980.83	0.00398
2990.47	0.00517
3000.12	0.00384
3009.77	0.0017143
3019.41	0.00084
3029.06	0.00041
3038.71	0.0004
3048.35	0.00038
3058	0.0004
3067.64	0.00023
3077.29	0.00018
3086.94	0.00013
3096.58	0.00022
3106.23	0.00034
3115.88	0.00022
3125.52	0.00011
3135.17	0.00012
3144.82	0.00021
3154.46	0.00019
3164.11	0.0003
3173.76	0.00036
3183.4	0.00021
3193.05	0.0004
3202.7	0.00042
3212.34	0.00028
3221.99	0.00041
3231.64	0.00016
3241.28	0.00038
3250.93	0.00031
3260.58	0.00025
3270.22	0.00041
3279.87	0.00044
3289.52	0.00033
3299.16	0.00043
3308.81	0.00049
3318.45	0.00045
3328.1	0.00038
3337.75	0.000528
3347.39	0.000781
3357.04	0.000733
3366.69	0.001157
3376.33	0.00361
3385.98	0.01096
3395.63	0.01492
3405.27	0.01125
3414.92	0.0041
3424.57	0.00155923
3434.21	0.001001
3443.86	0.000922
3453.51	0.000972
3463.15	0.000645
3472.8	0.000852
3482.45	0.000786
3492.09	0.001095
3501.74	0.001115
3511.39	0.001078
3521.03	0.001242
3530.68	0.001237
3540.33	0.0016746
3549.97	0.001736
3559.62	0.0016834
3569.26	0.0017499
3578.91	0.001378
3588.56	0.001176
3598.2	0.001082
3607.85	0.001044
3617.5	0.001048
3627.14	0.001019
3636.79	0.000924
3646.44	0.001119
3656.08	0.001106
3665.73	0.001101
3675.38	0.000971
3685.02	0.000953
3694.67	0.001004
3704.32	0.001044
3713.96	0.000906
3723.61	0.000928
3733.26	0.000931
3742.9	0.001065
3752.55	0.000965
3762.2	0.000877
3771.84	0.000973
3781.49	0.001019
3791.13	0.001062
3800.78	0.000883
3810.43	0.00082
3820.07	0.000956
3829.72	0.000961
3839.37	0.000962
3849.01	0.000964
3858.66	0.00096
3868.31	0.00103
3877.95	0.000911
3887.6	0.000852
3897.25	0.000929
3906.89	0.001048
3916.54	0.000975
3926.19	0.001027
3935.83	0.001116
3945.48	0.001123
3955.13	0.001
3964.77	0.000927
3974.42	0.000994
3984.07	0.000917
3993.71	0.000876
