Infrared Spectrum: 1,4-Di-iso-propenylbenzene
Formula: C 12 H 14
CAS: 1605-18-1
State: gas
Instrument: HP-GC/MS/IRD
Origin: NIST Mass Spectrometry Data Center
1/CM	ABSORBANCE
550	0.0017017
562	0.0015418
574	0.0014079
586	0.0006591
598	0.0004264
610	0.0002171
622	9.1e-05
634	0.0004524
646	0.0002535
658	6.37e-05
670	7.93e-05
682	0.0003484
694	0.000767
706	0.0007839
718	0.0004394
730	0.0001716
742	0.0002249
754	0.0003692
766	0.0004836
778	0.0002522
790	0.000286
802	0.000364
814	0.0012727
826	0.0046046
838	0.0096174
850	0.0078247
862	0.0039741
874	0.0048243
886	0.0097097
898	0.0118365
910	0.0067327
922	0.0028782
934	0.0012207
946	0.0005239
958	0.000338
970	0.0002366
982	0.0002119
994	0.0005746
1006	0.0018135
1018	0.0023465
1030	0.0005044
1042	0.0002392
1054	0.0001313
1066	9.36e-05
1078	0.0001456
1090	0.000234
1102	0.0003549
1114	0.0010257
1126	0.0025298
1138	0.0017056
1150	0.0004316
1162	0.0001404
1174	6.5e-06
1186	1.04e-05
1198	5.2e-05
1210	0.000234
1222	0.0004745
1234	0.0003237
1246	0.0002054
1258	0.0003224
1270	0.0005798
1282	0.0015873
1294	0.0045214
1306	0.0052481
1318	0.0018824
1330	0.0005785
1342	0.0006903
1354	0.0011011
1366	0.0026338
1378	0.0051259
1390	0.0037115
1402	0.0028483
1414	0.0023465
1426	0.0023712
1438	0.0032162
1450	0.004433
1462	0.0045097
1474	0.0024024
1486	0.0017836
1498	0.003458
1510	0.0049868
1522	0.0029328
1534	0.0011453
1546	0.0011466
1558	0.0012298
1570	0.0009217
1582	0.0010751
1594	0.0016042
1606	0.0025389
1618	0.0045227
1630	0.0063674
1642	0.0039871
1654	0.0021749
1666	0.0012948
1678	0.0008034
1690	0.000429
1702	0.0004303
1714	0.0003211
1726	0.0001872
1738	0.0002938
1750	0.0004043
1762	0.0005577
1774	0.0011869
1786	0.0019955
1798	0.0019474
1810	0.0008905
1822	0.000429
1834	0.0002275
1846	0.0002093
1858	0.0001469
1870	0.0001924
1882	0.0003341
1894	0.0005434
1906	0.0005733
1918	0.0003484
1930	0.0001625
1942	9.23e-05
1954	5.07e-05
1966	7.41e-05
1978	4.55e-05
1990	4.16e-05
2002	3.64e-05
2014	4.29e-05
2026	2.6e-05
2038	3.64e-05
2050	4.81e-05
2062	5.2e-05
2074	3.12e-05
2086	7.15e-05
2098	5.98e-05
2110	1.56e-05
2122	2.34e-05
2134	4.94e-05
2146	5.59e-05
2158	6.63e-05
2170	5.98e-05
2182	5.46e-05
2194	4.29e-05
2206	7.54e-05
2218	6.5e-05
2230	7.93e-05
2242	7.93e-05
2254	5.72e-05
2266	5.33e-05
2278	8.19e-05
2290	0.0001456
2302	0.000195
2314	0.0001937
2326	0.0001534
2338	7.93e-05
2350	7.8e-05
2362	7.67e-05
2374	7.02e-05
2386	6.63e-05
2398	9.36e-05
2410	8.19e-05
2422	7.93e-05
2434	7.02e-05
2446	8.32e-05
2458	6.24e-05
2470	7.28e-05
2482	7.02e-05
2494	4.81e-05
2506	3.9e-05
2518	5.46e-05
2530	5.85e-05
2542	5.33e-05
2554	7.28e-05
2566	5.33e-05
2578	7.28e-05
2590	9.75e-05
2602	6.89e-05
2614	9.88e-05
2626	9.1e-05
2638	7.02e-05
2650	7.28e-05
2662	9.23e-05
2674	9.36e-05
2686	0.0001027
2698	0.0001313
2710	0.0001651
2722	0.0002171
2734	0.0002652
2746	0.0002171
2758	0.0002041
2770	0.0002236
2782	0.0002522
2794	0.0003445
2806	0.0004121
2818	0.0005291
2830	0.0007293
2842	0.0010088
2854	0.001534
2866	0.0021996
2878	0.0024622
2890	0.0026988
2902	0.003224
2914	0.0040911
2926	0.0059709
2938	0.0063973
2950	0.0061789
2962	0.0065325
2974	0.0112515
2986	0.011401
2998	0.0057837
3010	0.0048737
3022	0.0045097
3034	0.0056719
3046	0.0052689
3058	0.0040482
3070	0.0050206
3082	0.0089414
3094	0.0113087
3106	0.0032799
3118	0.0016497
3130	0.0010998
3142	0.0006409
3154	0.0004693
3166	0.0003107
3178	0.0002184
3190	0.0002028
3202	0.0001365
3214	0.0001352
3226	0.0001092
3238	0.0001482
3250	0.0001625
3262	0.0001157
3274	9.88e-05
3286	8.45e-05
3298	5.07e-05
3310	9.1e-05
3322	6.63e-05
3334	8.32e-05
3346	8.45e-05
3358	0.0001118
3370	8.32e-05
3382	7.02e-05
3394	8.71e-05
3406	4.81e-05
3418	9.49e-05
3430	8.71e-05
3442	0.0001326
3454	7.93e-05
3466	9.49e-05
3478	8.84e-05
3490	9.49e-05
3502	8.06e-05
3514	9.88e-05
3526	8.06e-05
3538	7.28e-05
3550	9.88e-05
3562	8.06e-05
3574	9.62e-05
3586	0.0001482
3598	0.0001404
3610	0.0001651
3622	0.0001079
3634	0.0001001
3646	0.0001716
3658	0.0001118
3670	0.0002457
3682	7.15e-05
3694	6.76e-05
3706	8.06e-05
3718	6.89e-05
3730	8.84e-05
3742	0.000195
3754	0.000208
3766	7.8e-05
3778	4.29e-05
3790	0
3802	0.0001326
3814	0.0001274
3826	7.02e-05
3838	0.0001638
