Infrared Spectrum: 9H-Purine, 9-Benzyl-6-Methyl-
Formula: C13 H12 N4
CAS: 160516-13-2
State: SOLID (0.8 mg / 650 mg KBr DISC)
Class: COBLENTZ III
Instrument: PERKIN-ELMER 21 (GRATING)
Instrument parameters: FILTER CHANGE ABOUT 1020 CM^-^1
Sampling: TRANSMISSION
Resolution: 2
Origin: SOUTHERN RESEARCH INSTITUTE
1/CM	TRANSMITTANCE
599	0.7504
608.032	0.7498
617.065	0.75
626.097	0.7411
635.13	0.663
644.162	0.5446
653.195	0.8043
662.227	0.7944
671.259	0.7723
680.292	0.729
689.324	0.5937
698.357	0.6082
707.389	0.6873
716.422	0.6194
725.454	0.3343
734.486	0.4209
743.519	0.7475
752.551	0.7689
761.584	0.7228
770.616	0.7607
779.649	0.7788
788.681	0.7324
797.713	0.7432
806.746	0.8108
815.778	0.8109
824.811	0.8089
833.843	0.8044
842.876	0.7989
851.908	0.7942
860.94	0.7849
869.973	0.7545
879.005	0.7434
888.038	0.7581
897.07	0.7568
906.102	0.7641
915.135	0.7595
924.167	0.7435
933.2	0.6962
942.232	0.6956
951.265	0.7059
960.297	0.6958
969.329	0.768
978.362	0.7748
987.394	0.766
996.427	0.7537
1005.46	0.7342
1014.49	0.699
1023.52	0.6747
1032.56	0.7442
1041.59	0.7704
1050.62	0.7723
1059.65	0.7646
1068.69	0.7454
1077.72	0.725
1086.75	0.7619
1095.78	0.7493
1104.82	0.7158
1113.85	0.7105
1122.88	0.7164
1131.91	0.6801
1140.95	0.6436
1149.98	0.6556
1159.01	0.6168
1168.04	0.5437
1177.08	0.6338
1186.11	0.6043
1195.14	0.5872
1204.17	0.5109
1213.2	0.3388
1222.24	0.6563
1231.27	0.5876
1240.3	0.7565
1249.33	0.7523
1258.37	0.7427
1267.4	0.7228
1276.43	0.688
1285.46	0.6818
1294.5	0.68
1303.53	0.6372
1312.56	0.557
1321.59	0.3401
1330.63	0.4386
1339.66	0.6899
1348.69	0.6162
1357.72	0.5233
1366.76	0.6707
1375.79	0.6196
1384.82	0.6858
1393.85	0.5616
1402.89	0.5723
1411.92	0.6385
1420.95	0.6046
1429.98	0.5471
1439.02	0.6182
1448.05	0.6276
1457.08	0.6271
1466.11	0.7366
1475.15	0.7205
1484.18	0.6614
1493.21	0.5068
1502.24	0.5894
1511.28	0.682
1520.31	0.7209
1529.34	0.6918
1538.37	0.6678
1547.4	0.6365
1556.44	0.5833
1565.47	0.4741
1574.5	0.2745
1583.53	0.2244
1592.57	0.2001
1601.6	0.5871
1610.63	0.7066
1619.66	0.7224
1628.7	0.7542
1637.73	0.7797
1646.76	0.7999
1655.79	0.8141
1664.83	0.8236
1673.86	0.8264
1682.89	0.8267
1691.92	0.8248
1700.96	0.822
1709.99	0.8174
1719.02	0.8122
1728.05	0.8061
1737.09	0.8002
1746.12	0.7944
1755.15	0.7883
1764.18	0.7845
1773.22	0.7867
1782.25	0.7904
1791.28	0.7934
1800.31	0.7949
1809.35	0.8004
1818.38	0.8037
1827.41	0.8015
1836.44	0.7989
1845.47	0.7961
1854.51	0.7926
1863.54	0.7877
1872.57	0.7812
1881.6	0.7766
1890.64	0.7839
1899.67	0.7964
1908.7	0.7949
1917.73	0.7925
1926.77	0.7905
1935.8	0.7889
1944.83	0.7878
1953.86	0.7874
1962.9	0.787
1971.93	0.7866
1980.96	0.7869
1989.99	0.7873
1999.03	0.7874
2008.06	0.7854
2017.09	0.7831
2026.12	0.7787
2035.16	0.7752
2044.19	0.774
2053.22	0.7739
2062.25	0.774
2071.29	0.7741
2080.32	0.7741
2089.35	0.774
2098.38	0.7735
2107.42	0.773
2116.45	0.7722
2125.48	0.7712
2134.51	0.7702
2143.54	0.7692
2152.58	0.7682
2161.61	0.7672
2170.64	0.7662
2179.67	0.7649
2188.71	0.7636
2197.74	0.7636
2206.77	0.7642
2215.8	0.7648
2224.84	0.7655
2233.87	0.7664
2242.9	0.7611
2251.93	0.756
2260.97	0.7511
2270	0.7458
2279.03	0.7417
2288.06	0.7394
2297.1	0.7386
2306.13	0.7393
2315.16	0.7403
2324.19	0.7416
2333.23	0.742
2342.26	0.7422
2351.29	0.7422
2360.32	0.7413
2369.36	0.7403
2378.39	0.7391
2387.42	0.7379
2396.45	0.7366
2405.49	0.7354
2414.52	0.7341
2423.55	0.7329
2432.58	0.7317
2441.61	0.7305
2450.65	0.7292
2459.68	0.7279
2468.71	0.7266
2477.74	0.7247
2486.78	0.7227
2495.81	0.7206
2504.84	0.7185
2513.87	0.7162
2522.91	0.7139
2531.94	0.7116
2540.97	0.7092
2550	0.7078
2559.04	0.7067
2568.07	0.7053
2577.1	0.7036
2586.13	0.7014
2595.17	0.6994
2604.2	0.6982
2613.23	0.697
2622.26	0.6961
2631.3	0.6955
2640.33	0.695
2649.36	0.6941
2658.39	0.6932
2667.43	0.6924
2676.46	0.6916
2685.49	0.691
2694.52	0.6909
2703.56	0.6908
2712.59	0.6905
2721.62	0.6901
2730.65	0.6896
2739.69	0.688
2748.72	0.6863
2757.75	0.6841
2766.78	0.6806
2775.81	0.677
2784.85	0.674
2793.88	0.6709
2802.91	0.6684
2811.94	0.6666
2820.98	0.6648
2830.01	0.6637
2839.04	0.6628
2848.07	0.6615
2857.11	0.6598
2866.14	0.6573
2875.17	0.6529
2884.2	0.6476
2893.24	0.6423
2902.27	0.6404
2911.3	0.6395
2920.33	0.6383
2929.37	0.6363
2938.4	0.6334
2947.43	0.6302
2956.46	0.6266
2965.5	0.623
2974.53	0.6196
2983.56	0.6162
2992.59	0.6125
3001.63	0.6078
3010.66	0.6032
3019.69	0.5989
3028.72	0.5945
3037.76	0.5907
3046.79	0.5883
3055.82	0.5887
3064.85	0.598
3073.88	0.6209
3082.92	0.639
3091.95	0.6513
3100.98	0.6562
3110.01	0.6578
3119.05	0.6578
3128.08	0.6565
3137.11	0.6551
3146.14	0.654
3155.18	0.6529
3164.21	0.6517
3173.24	0.6504
3182.27	0.6488
3191.31	0.6462
3200.34	0.643
3209.37	0.6379
3218.4	0.6357
3227.44	0.6354
3236.47	0.6358
3245.5	0.6325
3254.53	0.6267
3263.57	0.6196
3272.6	0.613
3281.63	0.6069
3290.66	0.6009
3299.7	0.5944
3308.73	0.5873
3317.76	0.579
3326.79	0.5675
3335.83	0.5501
3344.86	0.5428
3353.89	0.5379
3362.92	0.5336
3371.95	0.5292
3380.99	0.5246
3390.02	0.5203
3399.05	0.5176
3408.08	0.5151
3417.12	0.5153
3426.15	0.5157
3435.18	0.5163
3444.21	0.5175
3453.25	0.5189
3462.28	0.5203
3471.31	0.5217
3480.34	0.5237
3489.38	0.5264
3498.41	0.5308
3507.44	0.5328
3516.47	0.534
3525.51	0.5381
3534.54	0.5471
3543.57	0.5562
3552.6	0.5661
3561.64	0.577
3570.67	0.5879
3579.7	0.5978
3588.73	0.6071
3597.77	0.6158
3606.8	0.6243
3615.83	0.6309
3624.86	0.6362
3633.9	0.6411
3642.93	0.6434
3651.96	0.6441
3660.99	0.6448
3670.03	0.6452
3679.06	0.6457
3688.09	0.646
3697.12	0.6462
3706.15	0.6465
3715.19	0.6466
3724.22	0.6463
3733.25	0.646
3742.28	0.6457
3751.32	0.6453
3760.35	0.645
3769.38	0.6447
3778.41	0.6443
3787.45	0.644
3796.48	0.6434
3805.51	0.6427
3814.54	0.6421
3823.58	0.6419
3832.61	0.6418
3841.64	0.6416
3850.67	0.6413
3859.71	0.6407
3868.74	0.6401
3877.77	0.6395
3886.8	0.6386
3895.84	0.6374
3904.87	0.6362
3913.9	0.635
3922.93	0.6348
3931.97	0.6345
3941	0.6343
3950.03	0.634
3959.06	0.6337
3968.1	0.6334
3977.13	0.6331
3986.16	0.6329
3995.19	0.6327
4004.22	0.6326
