Infrared Spectrum: Diethylphenylphosphine
Formula: C 10 H 15 P
CAS: 1605-53-4
State: gas
Origin: EPA-IR VAPOR PHASE LIBRARY
1/CM	ABSORBANCE
501.5	0.002978
513.074	0.001518
524.648	0.0007127
536.222	0.0004433
547.796	0.00022171
559.37	9.79e-05
570.944	0.00025192
582.518	0.0005025
594.092	0.0008467
605.666	0.001828
617.24	0.002768
628.814	0.003598
640.388	0.005108
651.962	0.008648
663.536	0.013358
675.11	0.016458
686.684	0.023408
698.258	0.028888
709.832	0.019908
721.406	0.019798
732.98	0.024478
744.554	0.021838
756.128	0.016238
767.702	0.010918
779.276	0.005118
790.85	0.002348
802.423	0.001338
813.997	0.0010396
825.571	0.0008482
837.145	0.0006323
848.719	0.0005171
860.293	0.0005001
871.867	0.000409
883.441	0.0004507
895.015	0.0004733
906.589	0.0005815
918.163	0.0004952
929.737	0.0006014
941.311	0.0006273
952.885	0.0009841
964.459	0.001588
976.033	0.003038
987.607	0.005108
999.181	0.006528
1010.76	0.005878
1022.33	0.008508
1033.9	0.008088
1045.48	0.004678
1057.05	0.003028
1068.63	0.002788
1080.2	0.003108
1091.77	0.006448
1103.35	0.005318
1114.92	0.002138
1126.49	0.001218
1138.07	0.0006216
1149.64	0.0006294
1161.22	0.0005897
1172.79	0.0008949
1184.36	0.001248
1195.94	0.0011495
1207.51	0.001318
1219.09	0.002328
1230.66	0.004238
1242.23	0.004908
1253.81	0.003578
1265.38	0.002398
1276.96	0.001508
1288.53	0.001768
1300.1	0.002478
1311.68	0.002538
1323.25	0.002008
1334.83	0.001388
1346.4	0.0011016
1357.97	0.001388
1369.55	0.002598
1381.12	0.004638
1392.7	0.004188
1404.27	0.003918
1415.84	0.006828
1427.42	0.012338
1438.99	0.011998
1450.57	0.009218
1462.14	0.009778
1473.71	0.008118
1485.29	0.007398
1496.86	0.003408
1508.44	0.001658
1520.01	0.001378
1531.58	0.001448
1543.16	0.001368
1554.73	0.001338
1566.31	0.001838
1577.88	0.002848
1589.45	0.003098
1601.03	0.001748
1612.6	0.001238
1624.18	0.0010953
1635.75	0.001188
1647.32	0.001358
1658.9	0.0010816
1670.47	0.0007747
1682.05	0.0005265
1693.62	0.0004527
1705.19	0.0004444
1716.77	0.0005067
1728.34	0.0004779
1739.92	0.0006216
1751.49	0.0006768
1763.06	0.0004877
1774.64	0.0005486
1786.21	0.0008133
1797.79	0.001678
1809.36	0.001598
1820.93	0.0008896
1832.51	0.0005327
1844.08	0.0004965
1855.66	0.0007458
1867.23	0.001318
1878.8	0.001778
1890.38	0.001438
1901.95	0.0007336
1913.53	0.0005714
1925.1	0.0007529
1936.67	0.001348
1948.25	0.001828
1959.82	0.001528
1971.4	0.0007566
1982.97	0.0004197
1994.54	0.0003019
2006.12	0.0002222
2017.69	0.00018682
2029.27	0.0001253
2040.84	0.0001467
2052.41	0.0001371
2063.99	0.0001181
2075.56	0.0001255
2087.14	0.0001082
2098.71	0.0001066
2110.28	9.54e-05
2121.86	0.0001393
2133.43	0.0001283
2145.01	0.0001365
2156.58	0.0001556
2168.15	0.000148
2179.73	0.00020014
2191.3	0.00021929
2202.88	0.0002604
2214.45	0.000304
2226.02	0.0002767
2237.6	0.00025579
2249.17	0.00025325
2260.74	0.00021397
2272.32	0.00020315
2283.89	0.0001992
2295.47	0.000213
2307.04	0.0003068
2318.61	0.0003933
2330.19	0.0002771
2341.76	0.0003474
2353.34	0.0004062
2364.91	0.0003898
2376.48	0.0002871
2388.06	0.0002747
2399.63	0.0003401
2411.21	0.0003569
2422.78	0.0002876
2434.35	0.00025398
2445.93	0.00026584
2457.5	0.00025039
2469.08	0.00018559
2480.65	0.000167132
2492.22	0.0001529
2503.8	0.000148
2515.37	9.36e-05
2526.95	0.000129
2538.52	0.0001029
2550.09	0.0001574
2561.67	0.00020362
2573.24	0.00024395
2584.82	0.0003186
2596.39	0.0002823
2607.96	0.0003039
2619.54	0.0003992
2631.11	0.0003674
2642.69	0.0004671
2654.26	0.0006241
2665.83	0.0007352
2677.41	0.0007947
2688.98	0.0007598
2700.56	0.0007131
2712.13	0.0006367
2723.7	0.0007399
2735.28	0.0011372
2746.85	0.001438
2758.43	0.0011514
2770	0.0011055
2781.57	0.001358
2793.15	0.001838
2804.72	0.002768
2816.3	0.004348
2827.87	0.005978
2839.44	0.006028
2851.02	0.006128
2862.59	0.008538
2874.17	0.019108
2885.74	0.032798
2897.31	0.030208
2908.89	0.030738
2920.46	0.033638
2932.04	0.041928
2943.61	0.042108
2955.18	0.036998
2966.76	0.054428
2978.33	0.040788
2989.91	0.016818
3001.48	0.011508
3013.05	0.011678
3024.63	0.011418
3036.2	0.009798
3047.78	0.012528
3059.35	0.025928
3070.92	0.028658
3082.5	0.019488
3094.07	0.010238
3105.65	0.004858
3117.22	0.003058
3128.79	0.002598
3140.37	0.002318
3151.94	0.001608
3163.52	0.001188
3175.09	0.0009296
3186.66	0.0008219
3198.24	0.0005732
3209.81	0.0005149
3221.39	0.0004971
3232.96	0.0004233
3244.53	0.0002694
3256.11	0.0003175
3267.68	0.0002933
3279.26	0.00023065
3290.83	0.00020392
3302.4	0.00022018
3313.98	0.00020293
3325.55	0.00018616
3337.13	0.000177746
3348.7	0.00021155
3360.27	0.00017836
3371.85	0.00017168
3383.42	8.15e-05
3395	0.0001048
3406.57	8.07e-05
3418.14	5.3e-05
3429.72	5.4e-05
3441.29	0.0001073
3452.86	8.66e-05
3464.44	0.0001356
3476.01	0.00015895
3487.59	6.93e-05
3499.16	0.0001114
3510.73	0
3522.31	9.34e-05
3533.88	3.9e-05
3545.46	8.17e-05
3557.03	0.000175789
3568.6	0.0001277
3580.18	0.0001565
3591.75	0.0001111
3603.33	0.0001182
3614.9	0.00021764
3626.47	0.0002688
3638.05	0.0002718
3649.62	0.0002273
3661.2	0.00018052
3672.77	0.00026781
3684.34	0.0003974
3695.92	0.0003335
3707.49	0.00022108
3719.07	0.0002886
3730.64	0.0002731
3742.21	0.00023691
3753.79	0.00022952
3765.36	0.00023817
3776.94	0.00017963
3788.51	0.0001246
3800.08	0.00018594
3811.66	0.0001102
3823.23	0.00016225
3834.81	9.44e-05
3846.38	0.000171586
3857.95	0.00024725
3869.53	0.0003096
3881.1	0.0003349
3892.68	0.0002898
3904.25	0.0003636
3915.82	0.0004334
3927.4	0.0004334
3938.97	0.0002857
3950.55	0.0003131
3962.12	0.0003159
3973.69	0.00024331
3985.27	0.0003236
3996.84	0.0003133
