Infrared Spectrum: Tetrasiloxane, 1,1,1,3,5,7,7,7-octamethyl-,
Formula: C8 H26 O3 Si4
CAS: 16066-09-4
State: SOLUTION (10% CCl4 FOR 3800-1300, 2% CS2 FOR 1300-650, AND 10% CCl4 FOR 650-250)
Class: COBLENTZ
Instrument: PERKIN-ELMER 521 (GRATING)
Instrument parameters: FILTERS AT 3150, 2500, 2000, 1150, 700, 410. GRATING CHANGES: 2000, 630
Path length: 0.012 CM, 0.010 CM, AND 0.010 CM
Resolution: 2
Origin: DOW CORNING CORP.
1/CM	TRANSMITTANCE
263	0.7377
272	0.7529
281	0.756
290	0.7539
299	0.7503
308	0.7243
317	0.6697
326	0.6182
335	0.6059
344	0.6174
353	0.6535
362	0.6602
371	0.6359
380	0.6008
389	0.5863
398	0.6037
407	0.6934
416	0.7594
425	0.78
434	0.834
443	0.8661
452	0.8753
461	0.8712
470	0.8907
479	0.8942
488	0.8932
497	0.8867
506	0.8757
515	0.8549
524	0.832
533	0.8141
542	0.8045
551	0.785
560	0.8211
569	0.8489
578	0.8653
587	0.8593
596	0.8468
605	0.8622
614	0.8696
623	0.875
632	0.8724
641	0.794
650	0.681
659	0.8575
668	0.8757
677	0.8688
686	0.8324
695	0.8094
704	0.8481
713	0.852
722	0.8639
731	0.8595
740	0.8341
749	0.7266
758	0.4797
767	0.3739
776	0.543
785	0.7601
794	0.763
803	0.722
812	0.7142
821	0.6284
830	0.3739
839	0.0671
848	0.0732
857	0.2913
866	0.5485
875	0.4351
884	0.2554
893	0.5633
902	0.6211
911	0.47
920	0.4184
929	0.728
938	0.8639
947	0.8953
956	0.9041
965	0.9126
974	0.9037
983	0.8682
992	0.8348
1001	0.8094
1010	0.7401
1019	0.6648
1028	0.5528
1037	0.3202
1046	0.1666
1055	0.1756
1064	0.2133
1073	0.2165
1082	0.2199
1091	0.2668
1100	0.3785
1109	0.4865
1118	0.5586
1127	0.6633
1136	0.7603
1145	0.8245
1154	0.8683
1163	0.8903
1172	0.9064
1181	0.9147
1190	0.9168
1199	0.9157
1208	0.9127
1217	0.9033
1226	0.8834
1235	0.8388
1244	0.701
1253	0.2336
1262	0.5029
1271	0.8027
1280	0.8823
1289	0.8959
1298	0.9017
1307	0.7602
1316	0.7798
1325	0.7828
1334	0.7797
1343	0.7936
1352	0.8034
1361	0.8037
1370	0.8023
1379	0.7895
1388	0.7557
1397	0.6697
1406	0.5593
1415	0.5763
1424	0.6476
1433	0.6934
1442	0.6939
1451	0.7097
1460	0.7438
1469	0.8073
1478	0.852
1487	0.8648
1496	0.8674
1505	0.87
1514	0.8753
1523	0.8795
1532	0.8809
1541	0.8802
1550	0.8762
1559	0.8689
1568	0.8578
1577	0.8465
1586	0.8377
1595	0.8305
1604	0.8247
1613	0.8206
1622	0.829
1631	0.8398
1640	0.8567
1649	0.8695
1658	0.8716
1667	0.8717
1676	0.8703
1685	0.8689
1694	0.8714
1703	0.8765
1712	0.8792
1721	0.8793
1730	0.8782
1739	0.8765
1748	0.8761
1757	0.8758
1766	0.8771
1775	0.8859
1784	0.8924
1793	0.8905
1802	0.884
1811	0.8801
1820	0.8826
1829	0.8873
1838	0.8925
1847	0.8978
1856	0.9029
1865	0.9074
1874	0.911
1883	0.9122
1892	0.9084
1901	0.9024
1910	0.9066
1919	0.9059
1928	0.901
1937	0.8867
1946	0.8788
1955	0.89
1964	0.9028
1973	0.9077
1982	0.9105
1991	0.9098
2000	0.9105
2009	0.9044
2018	0.9096
2027	0.92
2036	0.9252
2045	0.9284
2054	0.9273
2063	0.9206
2072	0.9094
2081	0.8941
2090	0.8681
2099	0.8376
2108	0.8034
2117	0.7435
2126	0.5358
2135	0.3138
2144	0.1238
2153	0.0538
2162	0.057
2171	0.0855
2180	0.1377
2189	0.3074
2198	0.4496
2207	0.6277
2216	0.6944
2225	0.7666
2234	0.8457
2243	0.874
2252	0.8935
2261	0.9091
2270	0.9192
2279	0.9261
2288	0.932
2297	0.9362
2306	0.9388
2315	0.9412
2324	0.9426
2333	0.9434
2342	0.9441
2351	0.9447
2360	0.9453
2369	0.9458
2378	0.9458
2387	0.9456
2396	0.9454
2405	0.9453
2414	0.9455
2423	0.9456
2432	0.9458
2441	0.9456
2450	0.9454
2459	0.9452
2468	0.9441
2477	0.9425
2486	0.9365
2495	0.9313
2504	0.9312
2513	0.9385
2522	0.943
2531	0.944
2540	0.9449
2549	0.9451
2558	0.9452
2567	0.9454
2576	0.9448
2585	0.9434
2594	0.9422
2603	0.9408
2612	0.9395
2621	0.9381
2630	0.937
2639	0.936
2648	0.9345
2657	0.9321
2666	0.9311
2675	0.9337
2684	0.9372
2693	0.9381
2702	0.9389
2711	0.9379
2720	0.9366
2729	0.9351
2738	0.932
2747	0.9286
2756	0.9224
2765	0.9152
2774	0.9056
2783	0.8935
2792	0.8803
2801	0.8726
2810	0.8708
2819	0.8714
2828	0.8697
2837	0.8674
2846	0.8645
2855	0.8601
2864	0.8489
2873	0.8262
2882	0.7943
2891	0.7397
2900	0.6036
2909	0.632
2918	0.73
2927	0.732
2936	0.6651
2945	0.5321
2954	0.2659
2963	0.047
2972	0.1862
2981	0.4587
2990	0.624
2999	0.7393
3008	0.8007
3017	0.8384
3026	0.8542
3035	0.8596
3044	0.8637
3053	0.8676
3062	0.8703
3071	0.8731
3080	0.8762
3089	0.8792
3098	0.8839
3107	0.8887
3116	0.8939
3125	0.8998
3134	0.9062
3143	0.9127
3152	0.9183
3161	0.923
3170	0.9274
3179	0.93
3188	0.932
3197	0.9332
3206	0.9339
3215	0.9346
3224	0.9355
3233	0.9366
3242	0.938
3251	0.939
3260	0.94
3269	0.941
3278	0.942
3287	0.9428
3296	0.9436
3305	0.9444
3314	0.9448
3323	0.9448
3332	0.9449
3341	0.9449
3350	0.9449
3359	0.9452
3368	0.9455
3377	0.9458
3386	0.9461
3395	0.9458
3404	0.9454
3413	0.9449
3422	0.9445
3431	0.9437
3440	0.9428
3449	0.9419
3458	0.9409
3467	0.9401
3476	0.9395
3485	0.9389
3494	0.9384
3503	0.9377
3512	0.9368
3521	0.936
3530	0.9352
3539	0.9344
3548	0.933
3557	0.9311
3566	0.9293
3575	0.9274
3584	0.928
3593	0.93
3602	0.9316
3611	0.9322
3620	0.9296
3629	0.9233
3638	0.9143
3647	0.9077
3656	0.9101
3665	0.9163
3674	0.9222
3683	0.914
3692	0.8971
3701	0.8917
3710	0.8943
3719	0.9026
3728	0.9064
3737	0.903
3746	0.9027
3755	0.9194
3764	0.9228
3773	0.9328
3782	0.9298
3791	0.9254
3800	0.9193
