Infrared Spectrum: Cyclopentylcyclohexane
Formula: C 11 H 20
CAS: 1606-08-2
State: gas
Instrument: HP-GC/MS/IRD
Origin: NIST Mass Spectrometry Data Center
1/CM	ABSORBANCE
550	0.0001242
562	2.7e-05
574	4.32e-05
586	0.0001188
598	0.0001458
610	5.94e-05
622	0.0001296
634	4.86e-05
646	0.0001134
658	9.72e-05
670	8.1e-05
682	0.0001188
694	0.0001026
706	7.56e-05
718	0.000108
730	8.64e-05
742	7.02e-05
754	7.02e-05
766	8.64e-05
778	9.18e-05
790	0.0001404
802	8.64e-05
814	0.0001296
826	0.0001242
838	0.0002538
850	0.0003888
862	0.000405
874	0.0005022
886	0.0008424
898	0.0007722
910	0.0003402
922	0.00027
934	0.0003294
946	0.000297
958	0.0002376
970	0.0003078
982	0.0002916
994	0.000108
1006	0.0001242
1018	0.0002052
1030	0.000216
1042	0.0001566
1054	7.02e-05
1066	8.64e-05
1078	0.0001134
1090	0.0001188
1102	0.000108
1114	0.0001512
1126	0.000108
1138	0.0001134
1150	0.0001404
1162	0.0001728
1174	0.0002268
1186	0.0002538
1198	0.0003078
1210	0.0002592
1222	0.0003294
1234	0.0004212
1246	0.0004536
1258	0.0008694
1270	0.0009234
1282	0.0005508
1294	0.0004644
1306	0.0004482
1318	0.0004158
1330	0.0004482
1342	0.0006588
1354	0.0007614
1366	0.0004752
1378	0.0003996
1390	0.000243
1402	0.000297
1414	0.0003942
1426	0.0005562
1438	0.0016794
1450	0.0036666
1462	0.0028728
1474	0.0013068
1486	0.0006912
1498	0.000351
1510	0.000162
1522	0.0001404
1534	8.64e-05
1546	5.94e-05
1558	5.94e-05
1570	5.94e-05
1582	7.56e-05
1594	5.4e-05
1606	4.32e-05
1618	3.78e-05
1630	4.86e-05
1642	6.48e-05
1654	3.78e-05
1666	5.94e-05
1678	3.24e-05
1690	3.24e-05
1702	2.7e-05
1714	3.78e-05
1726	4.86e-05
1738	2.7e-05
1750	4.32e-05
1762	2.7e-05
1774	3.78e-05
1786	2.7e-05
1798	1.62e-05
1810	2.7e-05
1822	5.4e-05
1834	3.24e-05
1846	2.7e-05
1858	3.24e-05
1870	3.24e-05
1882	3.78e-05
1894	3.78e-05
1906	5.4e-06
1918	2.7e-05
1930	2.7e-05
1942	2.16e-05
1954	3.24e-05
1966	2.7e-05
1978	3.78e-05
1990	2.7e-05
2002	1.62e-05
2014	2.16e-05
2026	1.62e-05
2038	5.4e-06
2050	2.7e-05
2062	1.62e-05
2074	2.16e-05
2086	2.16e-05
2098	1.08e-05
2110	0
2122	1.62e-05
2134	2.7e-05
2146	4.86e-05
2158	5.4e-05
2170	7.56e-05
2182	7.56e-05
2194	9.72e-05
2206	9.18e-05
2218	9.18e-05
2230	9.18e-05
2242	7.56e-05
2254	5.94e-05
2266	4.32e-05
2278	4.86e-05
2290	7.02e-05
2302	4.86e-05
2314	5.94e-05
2326	5.4e-05
2338	8.1e-05
2350	8.64e-05
2362	6.48e-05
2374	8.64e-05
2386	5.94e-05
2398	3.24e-05
2410	2.7e-05
2422	2.7e-05
2434	4.86e-05
2446	2.16e-05
2458	4.32e-05
2470	3.24e-05
2482	7.02e-05
2494	7.56e-05
2506	4.86e-05
2518	5.4e-05
2530	8.64e-05
2542	9.18e-05
2554	0.0001188
2566	0.0001512
2578	0.000189
2590	0.0002484
2602	0.000297
2614	0.0003186
2626	0.0003294
2638	0.0003672
2650	0.0004266
2662	0.000567
2674	0.0005508
2686	0.0004104
2698	0.000378
2710	0.0003888
2722	0.000378
2734	0.0003834
2746	0.0003726
2758	0.0004374
2770	0.000513
2782	0.0007722
2794	0.0010476
2806	0.0012474
2818	0.0016038
2830	0.0025596
2842	0.006129
2854	0.016416
2866	0.0222264
2878	0.0169074
2890	0.0123012
2902	0.0139428
2914	0.0237438
2926	0.0440748
2938	0.0524772
2950	0.0370008
2962	0.0272754
2974	0.0132246
2986	0.0052596
2998	0.002916
3010	0.001917
3022	0.0012906
3034	0.000891
3046	0.000594
3058	0.0004428
3070	0.0003564
3082	0.0003024
3094	0.0002484
3106	0.0002052
3118	0.000162
3130	0.0001512
3142	0.0001944
3154	0.0001728
3166	0.0001188
3178	9.72e-05
3190	0.000108
3202	5.4e-05
3214	9.72e-05
3226	4.32e-05
3238	5.94e-05
3250	7.02e-05
3262	8.64e-05
3274	5.94e-05
3286	1.08e-05
3298	1.08e-05
3310	1.08e-05
3322	2.16e-05
3334	2.7e-05
3346	4.86e-05
3358	5.94e-05
3370	2.7e-05
3382	5.4e-05
3394	2.7e-05
3406	5.4e-05
3418	8.64e-05
3430	9.18e-05
3442	9.72e-05
3454	7.56e-05
3466	5.94e-05
3478	4.32e-05
3490	3.24e-05
3502	3.78e-05
3514	6.48e-05
3526	4.32e-05
3538	5.4e-05
3550	4.86e-05
3562	7.02e-05
3574	4.32e-05
3586	4.32e-05
3598	4.32e-05
3610	1.62e-05
3622	3.78e-05
3634	7.56e-05
3646	7.02e-05
3658	9.18e-05
3670	5.94e-05
3682	6.48e-05
3694	9.72e-05
3706	0.0001134
3718	0.0001134
3730	7.02e-05
3742	9.18e-05
3754	0.0001026
3766	0.0001026
3778	0.0001134
3790	0.0001134
3802	9.18e-05
3814	0.0001512
3826	0.000189
3838	0.0001458
