Infrared Spectrum: 5-Amino-4-carboethoxy-1-phenylpyrazole
Formula: C 12 H 13 N 3 O 2
CAS: 16078-71-0
State: gas
Origin: EPA-IR VAPOR PHASE LIBRARY
1/CM	ABSORBANCE
549.8	0.009036
559.445	0.008576
569.09	0.008706
578.734	0.008596
588.379	0.008046
598.024	0.008986
607.669	0.008516
617.313	0.008476
626.958	0.009466
636.603	0.011906
646.248	0.011156
655.893	0.010576
665.537	0.012456
675.182	0.016766
684.827	0.026946
694.472	0.030686
704.116	0.020566
713.761	0.013006
723.406	0.013236
733.051	0.017046
742.695	0.020646
752.34	0.024316
761.985	0.030196
771.63	0.026256
781.275	0.027486
790.919	0.022686
800.564	0.013426
810.209	0.010526
819.854	0.010296
829.498	0.011446
839.143	0.012156
848.788	0.009396
858.433	0.008476
868.078	0.011296
877.722	0.010876
887.367	0.006956
897.012	0.006266
906.657	0.009636
916.301	0.010446
925.946	0.012546
935.591	0.026806
945.236	0.071426
954.88	0.055246
964.525	0.021836
974.17	0.012456
983.815	0.009486
993.46	0.009606
1003.1	0.013326
1012.75	0.019966
1022.39	0.017516
1032.04	0.012196
1041.68	0.011276
1051.33	0.015706
1060.97	0.022376
1070.62	0.034306
1080.26	0.053656
1089.91	0.082446
1099.55	0.128186
1109.2	0.124906
1118.84	0.075476
1128.49	0.075356
1138.13	0.087396
1147.78	0.065856
1157.42	0.043296
1167.07	0.033706
1176.71	0.029226
1186.36	0.022796
1196	0.022156
1205.64	0.015096
1215.29	0.015576
1224.93	0.022166
1234.58	0.037116
1244.22	0.034976
1253.87	0.042516
1263.51	0.087686
1273.16	0.198966
1282.8	0.191016
1292.45	0.073816
1302.09	0.060586
1311.74	0.040866
1321.38	0.023116
1331.03	0.014396
1340.67	0.010966
1350.32	0.010766
1359.96	0.012246
1369.61	0.014186
1379.25	0.031396
1388.9	0.042556
1398.54	0.038616
1408.18	0.045926
1417.83	0.035746
1427.47	0.039326
1437.12	0.029096
1446.76	0.021736
1456.41	0.024756
1466.05	0.023816
1475.7	0.024946
1485.34	0.026426
1494.99	0.038336
1504.63	0.057416
1514.28	0.070516
1523.92	0.070556
1533.57	0.075816
1543.21	0.152376
1552.86	0.222576
1562.5	0.127676
1572.15	0.058036
1581.79	0.041166
1591.44	0.058206
1601.08	0.101406
1610.73	0.125096
1620.37	0.108166
1630.01	0.051976
1639.66	0.026636
1649.3	0.019446
1658.95	0.018386
1668.59	0.020746
1678.24	0.033236
1687.88	0.073666
1697.53	0.144296
1707.17	0.122766
1716.82	0.054596
1726.46	0.041156
1736.11	0.076676
1745.75	0.050066
1755.4	0.017286
1765.04	0.010056
1774.69	0.008226
1784.33	0.007736
1793.98	0.007736
1803.62	0.006036
1813.27	0.004976
1822.91	0.004346
1832.55	0.003846
1842.2	0.003776
1851.84	0.003706
1861.49	0.004096
1871.13	0.005026
1880.78	0.005126
1890.42	0.004836
1900.07	0.003526
1909.71	0.002936
1919.36	0.002736
1929	0.002896
1938.65	0.003696
1948.29	0.003936
1957.94	0.004066
1967.58	0.003246
1977.23	0.002876
1986.87	0.002436
1996.52	0.002236
2006.16	0.002026
2015.81	0.002096
2025.45	0.001846
2035.1	0.001736
2044.74	0.001796
2054.38	0.001624
2064.03	0.0016996
2073.67	0.0015016
2083.32	0.0016188
2092.96	0.0015488
2102.61	0.001766
2112.25	0.0017048
2121.9	0.001866
2131.54	0.0015211
2141.19	0.001756
2150.83	0.001746
2160.48	0.001766
2170.12	0.001746
2179.77	0.001726
2189.41	0.001736
2199.06	0.001691
2208.7	0.0016425
2218.35	0.001816
2227.99	0.001916
2237.64	0.002206
2247.28	0.002196
2256.92	0.001886
2266.57	0.001876
2276.21	0.001776
2285.86	0.001746
2295.5	0.001826
2305.15	0.0014721
2314.79	0.0016636
2324.44	0.0016524
2334.08	0.001525
2343.73	0.001836
2353.37	0.0016861
2363.02	0.001585
2372.66	0.0013112
2382.31	0.0014721
2391.95	0.001213
2401.6	0.0012126
2411.24	0.0014768
2420.89	0.0011849
2430.53	0.0013085
2440.18	0.0013376
2449.82	0.0013007
2459.47	0.0010609
2469.11	0.0015466
2478.75	0.0012234
2488.4	0.001816
2498.04	0.001766
2507.69	0.001517
2517.33	0.0012135
2526.98	0.0012842
2536.62	0.0013741
2546.27	0.0015177
2555.91	0.0012607
2565.56	0.0014338
2575.2	0.001581
2584.85	0.0015727
2594.49	0.0016309
2604.14	0.0015254
2613.78	0.0016435
2623.43	0.0016697
2633.07	0.0016056
2642.72	0.0014365
2652.36	0.0016242
2662.01	0.001766
2671.65	0.0013428
2681.29	0.0014669
2690.94	0.0015637
2700.58	0.0012741
2710.23	0.0010185
2719.87	0.0015929
2729.52	0.0011178
2739.16	0.0016319
2748.81	0.001836
2758.45	0.002036
2768.1	0.002036
2777.74	0.001936
2787.39	0.002066
2797.03	0.002426
2806.68	0.002236
2816.32	0.002696
2825.97	0.002606
2835.61	0.002636
2845.26	0.002456
2854.9	0.002836
2864.55	0.003686
2874.19	0.004496
2883.84	0.006476
2893.48	0.006766
2903.12	0.008146
2912.77	0.009406
2922.41	0.008976
2932.06	0.011546
2941.7	0.017906
2951.35	0.015436
2960.99	0.015136
2970.64	0.019426
2980.28	0.029076
2989.93	0.027776
2999.57	0.017846
3009.22	0.011726
3018.86	0.008116
3028.51	0.006936
3038.15	0.008136
3047.8	0.010996
3057.44	0.013006
3067.09	0.013286
3076.73	0.017026
3086.38	0.011686
3096.02	0.007646
3105.67	0.006456
3115.31	0.004896
3124.95	0.003526
3134.6	0.002666
3144.24	0.001946
3153.89	0.001756
3163.53	0.001746
3173.18	0.0016791
3182.82	0.001716
3192.47	0.0014455
3202.11	0.001896
3211.76	0.001986
3221.4	0.0016999
3231.05	0.002026
3240.69	0.002106
3250.34	0.002386
3259.98	0.001826
3269.63	0.001746
3279.27	0.001936
3288.92	0.002036
3298.56	0.002786
3308.21	0.003256
3317.85	0.003606
3327.49	0.003076
3337.14	0.004246
3346.78	0.007216
3356.43	0.015136
3366.07	0.023666
3375.72	0.015406
3385.36	0.008336
3395.01	0.006726
3404.65	0.005386
3414.3	0.003506
3423.94	0.003036
3433.59	0.002886
3443.23	0.003536
3452.88	0.005466
3462.52	0.009286
3472.17	0.019116
3481.81	0.033746
3491.46	0.028196
3501.1	0.014146
3510.75	0.007646
3520.39	0.004276
3530.04	0.002976
3539.68	0.001946
3549.32	0.0014264
3558.97	0.0012022
3568.61	0.0011406
3578.26	0.000871
3587.9	0.00057
3597.55	0.00071793
3607.19	0.0011399
3616.84	0.0011378
3626.48	0.0009158
3636.13	0.001239
3645.77	0.0009502
3655.42	0.0009235
3665.06	0.0011375
3674.71	0.001726
3684.35	0.0009493
3694	0.0009552
3703.64	0.000323
3713.29	0.00132
3722.93	0.0013059
3732.58	0.0008838
3742.22	0.001492
3751.86	0.0015637
3761.51	0.0012107
3771.15	0.0014458
3780.8	0.0010175
3790.44	0.0006295
3800.09	0.0013391
3809.73	0.0013212
3819.38	0.0011364
3829.02	0.0008554
3838.67	0.0011004
3848.31	0.00074765
3857.96	0.00069738
3867.6	0.000394
3877.25	0.000603
3886.89	0.00074435
3896.54	0.00079313
3906.18	0.00075097
3915.83	0.000598
3925.47	0.00075106
3935.12	0.0008375
3944.76	0.0008892
3954.41	0
3964.05	0.0008757
3973.69	0.00056
3983.34	0.0006919
3992.98	0.00043
