Infrared Spectrum: 4-TERT-BUTYLPHENYL BENZENE SULFONATE
Formula: C16 H18 O3 S
CAS: 160788-98-7
State: SOLUTION (10% CCl4 FOR 2.5-7.5, 10% CS2 FOR 7.5-16 MICRON)
Class: COBLENTZ
Instrument: Not specified, most likely a prism, grating, or hybrid spectrometer.
Sampling: TRANSMISSION
Path length: 0.01 CM, 0.01 CM
Resolution: 4
Origin: DOW CHEMICAL COMPANY
MICROMETERS	TRANSMITTANCE
2.02	0.875
2.06004	0.875
2.10008	0.87
2.14012	0.876
2.18017	0.875
2.22021	0.87
2.26025	0.861
2.30029	0.87
2.34033	0.865
2.38037	0.861
2.42041	0.86
2.46045	0.876
2.5005	0.88
2.54054	0.88
2.58058	0.88
2.62062	0.88
2.66066	0.88
2.7007	0.881
2.74074	0.876
2.78078	0.875
2.82083	0.873
2.86087	0.878
2.90091	0.878
2.94095	0.881
2.98099	0.876
3.02103	0.876
3.06107	0.873
3.10111	0.863
3.14116	0.853
3.1812	0.843
3.22124	0.783
3.26128	0.72
3.30132	0.78
3.34136	0.562
3.3814	0.342
3.42145	0.575
3.46149	0.632
3.50153	0.835
3.54157	0.868
3.58161	0.875
3.62165	0.878
3.66169	0.878
3.70173	0.878
3.74178	0.885
3.78182	0.883
3.82186	0.881
3.8619	0.876
3.90194	0.883
3.94198	0.89
3.98202	0.891
4.02206	0.888
4.06211	0.891
4.10215	0.888
4.14219	0.886
4.18223	0.885
4.22227	0.868
4.26231	0.863
4.30235	0.855
4.34239	0.866
4.38244	0.878
4.42248	0.89
4.46252	0.893
4.50256	0.898
4.5426	0.895
4.58264	0.898
4.62268	0.901
4.66272	0.903
4.70277	0.901
4.74281	0.901
4.78285	0.9
4.82289	0.896
4.86293	0.891
4.90297	0.89
4.94301	0.888
4.98306	0.883
5.0231	0.875
5.06314	0.875
5.10318	0.883
5.14322	0.888
5.18326	0.875
5.2233	0.848
5.26334	0.813
5.30339	0.871
5.34343	0.881
5.38347	0.886
5.42351	0.885
5.46355	0.873
5.50359	0.85
5.54363	0.886
5.58367	0.88
5.62372	0.86
5.66376	0.875
5.7038	0.886
5.74384	0.888
5.78388	0.888
5.82392	0.883
5.86396	0.888
5.904	0.88
5.94405	0.865
5.98409	0.845
6.02413	0.845
6.06417	0.86
6.10421	0.846
6.14425	0.823
6.18429	0.757
6.22434	0.638
6.26438	0.53
6.30442	0.547
6.34446	0.555
6.3845	0.507
6.42454	0.439
6.46458	0.45
6.50462	0.504
6.54467	0.52
6.58471	0.445
6.62475	0.227
6.66479	0.324
6.70483	0.497
6.74487	0.477
6.78491	0.527
6.82495	0.542
6.865	0.384
6.90504	0.638
6.94508	0.778
6.98512	0.79
7.02516	0.75
7.0652	0.673
7.10524	0.599
7.14528	0.397
7.18533	0.091
7.22537	0.038
7.26541	0.141
7.30545	0.176
7.34549	0.376
7.38553	0.672
7.42557	0.693
7.46561	0.64
7.50566	0.732
7.5457	0.753
7.58574	0.685
7.62578	0.742
7.66582	0.768
7.70586	0.705
7.7459	0.738
7.78595	0.793
7.82599	0.74
7.86603	0.575
7.90607	0.695
7.94611	0.818
7.98615	0.84
8.02619	0.831
8.06623	0.798
8.10628	0.74
8.14632	0.707
8.18636	0.65
8.2264	0.442
8.26644	0.114
8.30648	0.091
8.34652	0.186
8.38656	0.091
8.42661	0.063
8.46665	0.181
8.50669	0.304
8.54673	0.341
8.58677	0.173
8.62681	0.038
8.66685	0.123
8.70689	0.384
8.74694	0.603
8.78698	0.702
8.82702	0.747
8.86706	0.75
8.9071	0.757
8.94714	0.715
8.98718	0.61
9.02723	0.545
9.06727	0.58
9.10731	0.324
9.14735	0.141
9.18739	0.477
9.22743	0.685
9.26747	0.768
9.30751	0.782
9.34756	0.755
9.3876	0.823
9.42764	0.885
9.46768	0.891
9.50772	0.898
9.54776	0.9
9.5878	0.898
9.62784	0.883
9.66789	0.856
9.70793	0.767
9.74797	0.645
9.78801	0.589
9.82805	0.45
9.86809	0.668
9.90813	0.841
9.94817	0.861
9.98822	0.838
10.0283	0.888
10.0683	0.906
10.1083	0.91
10.1484	0.91
10.1884	0.91
10.2285	0.905
10.2685	0.895
10.3085	0.888
10.3486	0.891
10.3886	0.891
10.4287	0.885
10.4687	0.885
10.5088	0.885
10.5488	0.875
10.5888	0.826
10.6289	0.763
10.6689	0.803
10.709	0.825
10.749	0.805
10.789	0.763
10.8291	0.747
10.8691	0.777
10.9092	0.793
10.9492	0.8
10.9892	0.793
11.0293	0.772
11.0693	0.752
11.1094	0.71
11.1494	0.657
11.1895	0.597
11.2295	0.529
11.2695	0.44
11.3096	0.327
11.3496	0.212
11.3897	0.118
11.4297	0.036
11.4697	0.008
11.5098	0.001
11.5498	0.006
11.5899	0.024
11.6299	0.076
11.67	0.148
11.71	0.211
11.75	0.231
11.7901	0.158
11.8301	0.031
11.8702	0.014
11.9102	0.068
11.9502	0.071
11.9903	0.104
12.0303	0.237
12.0704	0.419
12.1104	0.517
12.1504	0.575
12.1905	0.607
12.2305	0.64
12.2706	0.665
12.3106	0.698
12.3507	0.722
12.3907	0.737
12.4307	0.743
12.4708	0.743
12.5108	0.735
12.5509	0.723
12.5909	0.717
12.6309	0.715
12.671	0.72
12.711	0.71
12.7511	0.697
12.7911	0.67
12.8311	0.63
12.8712	0.577
12.9112	0.505
12.9513	0.359
12.9913	0.196
13.0314	0.073
13.0714	0.041
13.1114	0.083
13.1515	0.183
13.1915	0.259
13.2316	0.231
13.2716	0.123
13.3116	0.034
13.3517	0.031
13.3917	0.121
13.4318	0.264
13.4718	0.379
13.5118	0.447
13.5519	0.477
13.5919	0.444
13.632	0.361
13.672	0.357
13.7121	0.452
13.7521	0.524
13.7921	0.557
13.8322	0.539
13.8722	0.432
13.9123	0.292
13.9523	0.272
13.9923	0.367
14.0324	0.499
14.0724	0.585
14.1125	0.615
14.1525	0.625
14.1926	0.625
14.2326	0.607
14.2726	0.58
14.3127	0.555
14.3527	0.525
14.3928	0.499
14.4328	0.455
14.4728	0.386
14.5129	0.262
14.5529	0.159
14.593	0.128
14.633	0.204
14.673	0.324
14.7131	0.414
14.7531	0.469
14.7932	0.49
14.8332	0.494
14.8733	0.484
14.9133	0.47
14.9533	0.452
14.9934	0.437
15.0334	0.409
15.0735	0.379
15.1135	0.354
15.1535	0.341
15.1936	0.339
15.2336	0.344
15.2737	0.354
15.3137	0.364
15.3537	0.371
15.3938	0.377
15.4338	0.382
15.4739	0.384
15.5139	0.381
15.554	0.369
15.594	0.352
15.634	0.327
15.6741	0.304
15.7141	0.291
15.7542	0.282
15.7942	0.281
15.8342	0.281
15.8743	0.281
15.9143	0.281
