Infrared Spectrum: 1-BROMO-3-CHLORO-5,5-DIMETHYL HYDANTOIN
Formula: C5 H6 Br Cl N2 O2
CAS: 16079-88-2
State: SOLID (OIL MULL)
Class: COBLENTZ
Instrument: Not specified, most likely a prism, grating, or hybrid spectrometer.
Sampling: TRANSMISSION
Resolution: 4
Origin: WYANDOTTE CHEMICALS CORP., WYANDOTTE, MICHIGAN, USA
MICROMETERS	TRANSMITTANCE
2.022	0.321
2.06191	0.33
2.10183	0.341
2.14174	0.348
2.18165	0.348
2.22157	0.341
2.26148	0.343
2.30139	0.353
2.3413	0.368
2.38122	0.376
2.42113	0.383
2.46104	0.386
2.50096	0.395
2.54087	0.401
2.58078	0.418
2.6207	0.421
2.66061	0.436
2.70052	0.438
2.74043	0.44
2.78035	0.443
2.82026	0.448
2.86017	0.433
2.90009	0.431
2.94	0.431
2.97991	0.436
3.01983	0.45
3.05974	0.45
3.09965	0.445
3.13956	0.438
3.17948	0.44
3.21939	0.441
3.2593	0.435
3.29922	0.4
3.33913	0.181
3.37904	0.028
3.41896	0.026
3.45887	0.036
3.49878	0.041
3.53869	0.163
3.57861	0.51
3.61852	0.546
3.65843	0.585
3.69835	0.588
3.73826	0.605
3.77817	0.603
3.81809	0.62
3.858	0.625
3.89791	0.646
3.93782	0.658
3.97774	0.663
4.01765	0.681
4.05756	0.68
4.09748	0.668
4.13739	0.681
4.1773	0.7
4.21722	0.71
4.25713	0.7
4.29704	0.703
4.33695	0.713
4.37687	0.736
4.41678	0.758
4.45669	0.766
4.49661	0.783
4.53652	0.786
4.57643	0.798
4.61635	0.801
4.65626	0.811
4.69617	0.825
4.73608	0.831
4.776	0.843
4.81591	0.861
4.85582	0.868
4.89574	0.878
4.93565	0.888
4.97556	0.9
5.01548	0.913
5.05539	0.915
5.0953	0.921
5.13521	0.935
5.17513	0.938
5.21504	0.951
5.25495	0.963
5.29487	0.953
5.33478	0.951
5.37469	0.933
5.41461	0.911
5.45452	0.888
5.49443	0.8
5.53434	0.648
5.57426	0.325
5.61417	0.126
5.65408	0.128
5.694	0.03
5.73391	0.026
5.77382	0.028
5.81374	0.035
5.85365	0.061
5.89356	0.135
5.93347	0.2
5.97339	0.261
6.0133	0.326
6.05321	0.4
6.09313	0.443
6.13304	0.48
6.17295	0.513
6.21287	0.558
6.25278	0.598
6.29269	0.61
6.3326	0.631
6.37252	0.638
6.41243	0.67
6.45234	0.663
6.49226	0.696
6.53217	0.691
6.57208	0.705
6.612	0.705
6.65191	0.683
6.69182	0.655
6.73173	0.548
6.77165	0.306
6.81156	0.12
6.85147	0.116
6.89139	0.253
6.9313	0.35
6.97121	0.538
7.01113	0.633
7.05104	0.708
7.09095	0.695
7.13086	0.726
7.17078	0.611
7.21069	0.228
7.2506	0.235
7.29052	0.263
7.33043	0.375
7.37034	0.256
7.41026	0.068
7.45017	0.038
7.49008	0.053
7.52999	0.143
7.56991	0.261
7.60982	0.4
7.64973	0.448
7.68965	0.493
7.72956	0.503
7.76947	0.433
7.80939	0.335
7.8493	0.428
7.88921	0.55
7.92912	0.62
7.96904	0.661
8.00895	0.65
8.04886	0.623
8.08878	0.636
8.12869	0.508
8.1686	0.285
8.20852	0.168
8.24843	0.141
8.28834	0.115
8.32825	0.128
8.36817	0.203
8.40808	0.306
8.44799	0.353
8.48791	0.416
8.52782	0.518
8.56773	0.566
8.60765	0.605
8.64756	0.598
8.68747	0.485
8.72739	0.35
8.7673	0.335
8.80721	0.191
8.84712	0.12
8.88704	0.101
8.92695	0.176
8.96686	0.3
9.00678	0.423
9.04669	0.493
9.0866	0.538
9.12652	0.57
9.16643	0.588
9.20634	0.603
9.24625	0.618
9.28617	0.631
9.32608	0.643
9.36599	0.653
9.40591	0.67
9.44582	0.685
9.48573	0.685
9.52565	0.67
9.56556	0.696
9.60547	0.696
9.64538	0.683
9.6853	0.678
9.72521	0.701
9.76512	0.721
9.80504	0.738
9.84495	0.746
9.88486	0.758
9.92478	0.766
9.96469	0.765
10.0046	0.775
10.0445	0.776
10.0844	0.783
10.1243	0.786
10.1643	0.79
10.2042	0.786
10.2441	0.775
10.284	0.776
10.3239	0.78
10.3638	0.786
10.4037	0.781
10.4436	0.748
10.4836	0.633
10.5235	0.508
10.5634	0.533
10.6033	0.525
10.6432	0.571
10.6831	0.676
10.723	0.721
10.7629	0.75
10.8029	0.778
10.8428	0.796
10.8827	0.801
10.9226	0.813
10.9625	0.828
11.0024	0.845
11.0423	0.851
11.0823	0.861
11.1222	0.863
11.1621	0.865
11.202	0.866
11.2419	0.87
11.2818	0.881
11.3217	0.888
11.3616	0.881
11.4016	0.805
11.4415	0.603
11.4814	0.441
11.5213	0.473
11.5612	0.58
11.6011	0.548
11.641	0.503
11.6809	0.511
11.7209	0.483
11.7608	0.596
11.8007	0.701
11.8406	0.751
11.8805	0.776
11.9204	0.8
11.9603	0.815
12.0003	0.828
12.0402	0.838
12.0801	0.85
12.12	0.853
12.1599	0.856
12.1998	0.865
12.2397	0.861
12.2796	0.863
12.3196	0.863
12.3595	0.865
12.3994	0.868
12.4393	0.88
12.4792	0.888
12.5191	0.893
12.559	0.893
12.5989	0.891
12.6389	0.881
12.6788	0.798
12.7187	0.6
12.7586	0.525
12.7985	0.638
12.8384	0.753
12.8783	0.798
12.9183	0.813
12.9582	0.821
12.9981	0.825
13.038	0.836
13.0779	0.846
13.1178	0.845
13.1577	0.836
13.1976	0.796
13.2376	0.661
13.2775	0.47
13.3174	0.435
13.3573	0.538
13.3972	0.626
13.4371	0.676
13.477	0.691
13.5169	0.67
13.5569	0.618
13.5968	0.53
13.6367	0.445
13.6766	0.438
13.7165	0.54
13.7564	0.601
13.7963	0.476
13.8362	0.401
13.8762	0.408
13.9161	0.385
13.956	0.343
13.9959	0.34
14.0358	0.341
14.0757	0.401
14.1156	0.551
14.1556	0.723
14.1955	0.8
14.2354	0.845
14.2753	0.866
14.3152	0.88
14.3551	0.881
14.395	0.88
14.4349	0.878
14.4749	0.873
14.5148	0.87
14.5547	0.866
14.5946	0.863
14.6345	0.861
14.6744	0.861
14.7143	0.851
14.7542	0.846
14.7942	0.843
14.8341	0.833
14.874	0.83
14.9139	0.82
14.9538	0.805
14.9937	0.771
15.0336	0.725
15.0736	0.725
15.1135	0.765
15.1534	0.793
15.1933	0.791
15.2332	0.78
15.2731	0.766
15.313	0.751
15.3529	0.745
15.3929	0.735
15.4328	0.723
15.4727	0.708
15.5126	0.698
15.5525	0.683
15.5924	0.673
15.6323	0.668
15.6722	0.661
15.7122	0.648
15.7521	0.633
15.792	0.625
15.8319	0.613
15.8718	0.595
15.9117	0.58
15.9516	0.558
