Infrared Spectrum: P-NITRO CINNAMIC ACID, METHYL ESTER
Formula: C10 H9 N O4
CAS: 1608-36-2
State: SOLID (MINERAL OIL MULL)
Melting point: 160-161 C
Class: COBLENTZ
Instrument: Not specified, most likely a prism, grating, or hybrid spectrometer.
Sampling: TRANSMISSION
Resolution: 4
Origin: WYANDOTTE CHEMICALS CORP., WYANDOTTE, MICHIGAN, USA
MICROMETERS	TRANSMITTANCE
2.066	0.392
2.1057	0.397
2.14539	0.399
2.18509	0.397
2.22479	0.392
2.26449	0.394
2.30418	0.399
2.34388	0.403
2.38358	0.405
2.42327	0.413
2.46297	0.422
2.50267	0.422
2.54237	0.433
2.58206	0.443
2.62176	0.44
2.66146	0.451
2.70115	0.453
2.74085	0.455
2.78055	0.455
2.82025	0.455
2.85994	0.453
2.89964	0.451
2.93934	0.451
2.97903	0.451
3.01873	0.453
3.05843	0.456
3.09813	0.456
3.13782	0.45
3.17752	0.442
3.21722	0.402
3.25691	0.38
3.29661	0.317
3.33631	0.163
3.37601	0.028
3.4157	0.033
3.4554	0.049
3.4951	0.049
3.53479	0.211
3.57449	0.451
3.61419	0.523
3.65389	0.529
3.69358	0.529
3.73328	0.534
3.77298	0.538
3.81267	0.549
3.85237	0.557
3.89207	0.572
3.93177	0.587
3.97146	0.596
4.01116	0.604
4.05086	0.609
4.09055	0.619
4.13025	0.596
4.16995	0.604
4.20965	0.62
4.24934	0.605
4.28904	0.592
4.32874	0.617
4.36843	0.653
4.40813	0.665
4.44783	0.663
4.48753	0.67
4.52722	0.673
4.56692	0.677
4.60662	0.678
4.64631	0.685
4.68601	0.693
4.72571	0.701
4.76541	0.705
4.8051	0.71
4.8448	0.721
4.8845	0.731
4.92419	0.741
4.96389	0.745
5.00359	0.748
5.04329	0.748
5.08298	0.75
5.12268	0.763
5.16238	0.768
5.20207	0.761
5.24177	0.771
5.28147	0.794
5.32117	0.809
5.36086	0.817
5.40056	0.826
5.44026	0.829
5.47995	0.832
5.51965	0.841
5.55935	0.824
5.59905	0.804
5.63874	0.817
5.67844	0.807
5.71814	0.688
5.75784	0.387
5.79753	0.052
5.83723	0.235
5.87693	0.538
5.91662	0.688
5.95632	0.726
5.99602	0.769
6.03572	0.789
6.07541	0.463
6.11511	0.48
6.15481	0.754
6.1945	0.625
6.2342	0.286
6.2739	0.488
6.3136	0.64
6.35329	0.687
6.39299	0.733
6.43269	0.73
6.47238	0.711
6.51208	0.562
6.55178	0.251
6.59148	0.074
6.63117	0.342
6.67087	0.39
6.71057	0.574
6.75026	0.504
6.78996	0.286
6.82966	0.223
6.86936	0.276
6.90905	0.355
6.94875	0.427
6.98845	0.346
7.02814	0.389
7.06784	0.821
7.10754	0.917
7.14724	0.927
7.18693	0.827
7.22663	0.614
7.26633	0.384
7.30602	0.43
7.34572	0.337
7.38542	0.112
7.42512	0.046
7.46481	0.048
7.50451	0.069
7.54421	0.153
7.5839	0.144
7.6236	0.076
7.6633	0.122
7.703	0.206
7.74269	0.276
7.78239	0.253
7.82209	0.317
7.86178	0.41
7.90148	0.455
7.94118	0.543
7.98088	0.599
8.02057	0.637
8.06027	0.677
8.09997	0.733
8.13966	0.781
8.17936	0.754
8.21906	0.561
8.25876	0.306
8.29845	0.286
8.33815	0.334
8.37785	0.182
8.41754	0.153
8.45724	0.135
8.49694	0.163
8.53664	0.087
8.57633	0.096
8.61603	0.165
8.65573	0.216
8.69542	0.268
8.73512	0.321
8.77482	0.375
8.81452	0.413
8.85421	0.458
8.89391	0.491
8.93361	0.508
8.9733	0.45
9.013	0.352
9.0527	0.418
9.0924	0.48
9.13209	0.521
9.17179	0.543
9.21149	0.556
9.25118	0.566
9.29088	0.579
9.33058	0.584
9.37028	0.574
9.40997	0.577
9.44967	0.599
9.48937	0.617
9.52906	0.632
9.56876	0.64
9.60846	0.653
9.64816	0.66
9.68785	0.665
9.72755	0.668
9.76725	0.65
9.80694	0.528
9.84664	0.564
9.88634	0.548
9.92604	0.39
9.96573	0.332
10.0054	0.279
10.0451	0.18
10.0848	0.201
10.1245	0.418
10.1642	0.571
10.2039	0.594
10.2436	0.564
10.2833	0.619
10.323	0.652
10.3627	0.662
10.4024	0.619
10.4421	0.574
10.4818	0.668
10.5215	0.708
10.5612	0.725
10.6009	0.735
10.6406	0.738
10.6803	0.685
10.72	0.516
10.7597	0.554
10.7994	0.652
10.8391	0.701
10.8788	0.733
10.9185	0.75
10.9582	0.766
10.9979	0.781
11.0376	0.789
11.0773	0.799
11.117	0.806
11.1566	0.806
11.1963	0.812
11.236	0.817
11.2757	0.826
11.3154	0.829
11.3551	0.839
11.3948	0.849
11.4345	0.854
11.4742	0.867
11.5139	0.875
11.5536	0.885
11.5933	0.698
11.633	0.291
11.6727	0.336
11.7124	0.4
11.7521	0.352
11.7918	0.21
11.8315	0.1
11.8712	0.16
11.9109	0.437
11.9506	0.642
11.9903	0.735
12.03	0.783
12.0697	0.754
12.1094	0.652
12.1491	0.546
12.1888	0.486
12.2285	0.516
12.2682	0.569
12.3079	0.6
12.3476	0.625
12.3873	0.665
12.427	0.713
12.4667	0.75
12.5064	0.788
12.546	0.809
12.5857	0.817
12.6254	0.827
12.6651	0.834
12.7048	0.831
12.7445	0.844
12.7842	0.854
12.8239	0.855
12.8636	0.855
12.9033	0.855
12.943	0.849
12.9827	0.832
13.0224	0.807
13.0621	0.764
13.1018	0.673
13.1415	0.483
13.1812	0.314
13.2209	0.447
13.2606	0.653
13.3003	0.776
13.34	0.811
13.3797	0.831
13.4194	0.827
13.4591	0.832
13.4988	0.85
13.5385	0.86
13.5782	0.865
13.6179	0.86
13.6576	0.847
13.6973	0.758
13.737	0.599
13.7767	0.554
13.8164	0.652
13.8561	0.71
13.8958	0.693
13.9354	0.564
13.9751	0.46
14.0148	0.554
14.0545	0.706
14.0942	0.798
14.1339	0.832
14.1736	0.849
14.2133	0.852
14.253	0.86
14.2927	0.875
14.3324	0.9
14.3721	0.912
14.4118	0.92
14.4515	0.918
14.4912	0.92
14.5309	0.917
14.5706	0.917
14.6103	0.907
14.65	0.905
14.6897	0.897
14.7294	0.89
14.7691	0.875
14.8088	0.855
14.8485	0.809
14.8882	0.735
14.9279	0.652
14.9676	0.632
15.0073	0.653
15.047	0.675
15.0867	0.693
15.1264	0.738
15.1661	0.811
15.2058	0.834
15.2455	0.837
15.2852	0.827
15.3248	0.817
15.3645	0.804
15.4042	0.793
15.4439	0.773
15.4836	0.763
15.5233	0.746
15.563	0.733
15.6027	0.721
15.6424	0.715
15.6821	0.7
15.7218	0.688
15.7615	0.678
15.8012	0.662
15.8409	0.649
15.8806	0.634
15.9203	0.607
15.96	0.587
15.9997	0.582
