Infrared Spectrum: cis-3-Chloroacrylic acid
Formula: C 3 H 3 Cl O 2
CAS: 1609-93-4
State: gas
Origin: EPA-IR VAPOR PHASE LIBRARY
1/CM	ABSORBANCE
549.8	0.029899
559.445	0.029969
569.09	0.027479
578.734	0.030129
588.379	0.020839
598.024	0.016079
607.669	0.011209
617.313	0.008709
626.958	0.008009
636.603	0.006889
646.248	0.007049
655.893	0.006619
665.537	0.006029
675.182	0.006429
684.827	0.007079
694.472	0.007209
704.116	0.007389
713.761	0.007959
723.406	0.009189
733.051	0.015769
742.695	0.023589
752.34	0.026589
761.985	0.020749
771.63	0.012669
781.275	0.010929
790.919	0.013339
800.564	0.016329
810.209	0.016419
819.854	0.013249
829.498	0.008689
839.143	0.005409
848.788	0.003789
858.433	0.003339
868.078	0.003339
877.722	0.003629
887.367	0.004459
897.012	0.004529
906.657	0.005169
916.301	0.006829
925.946	0.006649
935.591	0.006039
945.236	0.003399
954.88	0.001929
964.525	0.0013982
974.17	0.0013076
983.815	0.0012767
993.46	0.0012538
1003.1	0.0013582
1012.75	0.001639
1022.39	0.002229
1032.04	0.002109
1041.68	0.002839
1051.33	0.004829
1060.97	0.006649
1070.62	0.008369
1080.26	0.013629
1089.91	0.024279
1099.55	0.054739
1109.2	0.102039
1118.84	0.120249
1128.49	0.105129
1138.13	0.066449
1147.78	0.052139
1157.42	0.041049
1167.07	0.031969
1176.71	0.020029
1186.36	0.011719
1196	0.009199
1205.64	0.009489
1215.29	0.010359
1224.93	0.010509
1234.58	0.009269
1244.22	0.009849
1253.87	0.008689
1263.51	0.007599
1273.16	0.007419
1282.8	0.007819
1292.45	0.009109
1302.09	0.009119
1311.74	0.008809
1321.38	0.008439
1331.03	0.009649
1340.67	0.011939
1350.32	0.015289
1359.96	0.018759
1369.61	0.018459
1379.25	0.016169
1388.9	0.011849
1398.54	0.008399
1408.18	0.005839
1417.83	0.004379
1427.47	0.003419
1437.12	0.002819
1446.76	0.002389
1456.41	0.002099
1466.05	0.001579
1475.7	0.0012914
1485.34	0.0012862
1494.99	0.0012418
1504.63	0.0011699
1514.28	0.0010397
1523.92	0.0009396
1533.57	0.0012198
1543.21	0.001539
1552.86	0.001619
1562.5	0.002299
1572.15	0.003579
1581.79	0.005799
1591.44	0.011369
1601.08	0.023039
1610.73	0.037419
1620.37	0.039949
1630.01	0.029289
1639.66	0.011199
1649.3	0.004949
1658.95	0.003749
1668.59	0.002999
1678.24	0.003169
1687.88	0.003609
1697.53	0.004999
1707.17	0.007579
1716.82	0.012449
1726.46	0.021809
1736.11	0.042289
1745.75	0.072049
1755.4	0.098069
1765.04	0.106239
1774.69	0.087249
1784.33	0.070619
1793.98	0.043839
1803.62	0.025129
1813.27	0.014569
1822.91	0.008659
1832.55	0.005579
1842.2	0.004049
1851.84	0.003369
1861.49	0.003069
1871.13	0.002639
1880.78	0.001819
1890.42	0.0013042
1900.07	0.0011678
1909.71	0.0011528
1919.36	0.0010539
1929	0.0009219
1938.65	0.0008113
1948.29	0.0007819
1957.94	0.0006956
1967.58	0.0006124
1977.23	0.0006147
1986.87	0.0005906
1996.52	0.0006401
2006.16	0.0005783
2015.81	0.0006583
2025.45	0.0008503
2035.1	0.0009921
2044.74	0.0010534
2054.38	0.0009854
2064.03	0.0007127
2073.67	0.00067
2083.32	0.00051276
2092.96	0.000565
2102.61	0.0005733
2112.25	0.0006223
2121.9	0.0008718
2131.54	0.0009064
2141.19	0.0009805
2150.83	0.0009668
2160.48	0.0006802
2170.12	0.0005283
2179.77	0.0003958
2189.41	0.0005781
2199.06	0.0006395
2208.7	0.000954
2218.35	0.0008758
2227.99	0.0009188
2237.64	0.001006
2247.28	0.000816
2256.92	0.0007642
2266.57	0.0008431
2276.21	0.0009367
2285.86	0.0010689
2295.5	0.0012079
2305.15	0.001479
2314.79	0.001749
2324.44	0.001979
2334.08	0.001869
2343.73	0.001879
2353.37	0.002069
2363.02	0.002689
2372.66	0.002149
2382.31	0.0013998
2391.95	0.0010323
2401.6	0.000842
2411.24	0.0008394
2420.89	0.0007136
2430.53	0.0006626
2440.18	0.000582
2449.82	0.0006675
2459.47	0.0006166
2469.11	0.0007371
2478.75	0.0006549
2488.4	0.0006772
2498.04	0.000718
2507.69	0.0006979
2517.33	0.0006077
2526.98	0.00048366
2536.62	0.0005586
2546.27	0.0005728
2555.91	0.0007095
2565.56	0.00044498
2575.2	0.0004279
2584.85	0.0006305
2594.49	0.0004183
2604.14	0.0003735
2613.78	0.0004924
2623.43	0.0003779
2633.07	0.00047841
2642.72	0.00050411
2652.36	0.0007953
2662.01	0.00048384
2671.65	0.00046537
2681.29	0.00043933
2690.94	0.000613
2700.58	0.00051241
2710.23	0.00050267
2719.87	0.00052767
2729.52	0.0005938
2739.16	0.0005575
2748.81	0.00048547
2758.45	0.000305
2768.1	0.0006035
2777.74	0.0005588
2787.39	0.000346
2797.03	0.0006783
2806.68	0.00054433
2816.32	0.0005599
2825.97	0.0003658
2835.61	0.00054116
2845.26	0.000267
2854.9	0.00046413
2864.55	0.0003617
2874.19	0.00054344
2883.84	0.0003888
2893.48	0.0007741
2903.12	0.0006716
2912.77	0.0007848
2922.41	0.00051836
2932.06	0.0008188
2941.7	0.00053383
2951.35	0.0009084
2960.99	0.000985
2970.64	0.001063
2980.28	0.0011758
2989.93	0.0009263
2999.57	0.0008143
3009.22	0.0007648
3018.86	0.0008803
3028.51	0.0007858
3038.15	0.0007577
3047.8	0.0010225
3057.44	0.0012157
3067.09	0.001929
3076.73	0.002589
3086.38	0.002449
3096.02	0.001909
3105.67	0.0008867
3115.31	0.00046148
3124.95	0.000427
3134.6	0.0005973
3144.24	0.00051895
3153.89	0.00054854
3163.53	0.00045286
3173.18	0.00044001
3182.82	0.0003896
3192.47	0.000306
3202.11	0.00044529
3211.76	0.0006643
3221.4	0.0007054
3231.05	0.000651
3240.69	0.0004367
3250.34	0.0004079
3259.98	0.0004295
3269.63	0.000287
3279.27	0.0003736
3288.92	0.000243
3298.56	0.0005823
3308.21	0.0003849
3317.85	0.00053194
3327.49	0.000244
3337.14	0.0004189
3346.78	0.00054402
3356.43	0.000273
3366.07	0.00048415
3375.72	0.0003799
3385.36	0.0005657
3395.01	0.000281
3404.65	0.00027
3414.3	0.00028
3423.94	0.000271
3433.59	0.0005767
3443.23	0.0003686
3452.88	0.00054702
3462.52	0.0005783
3472.17	0.0007619
3481.81	0.0010229
3491.46	0.0010808
3501.1	0.0013889
3510.75	0.001431
3520.39	0.002079
3530.04	0.003209
3539.68	0.005099
3549.32	0.009599
3558.97	0.020789
3568.61	0.034599
3578.26	0.038149
3587.9	0.029169
3597.55	0.012119
3607.19	0.003709
3616.84	0.001799
3626.48	0.0011129
3636.13	0.0011229
3645.77	0.0009125
3655.42	0.0005701
3665.06	0.0006128
3674.71	0.000450505
3684.35	0.000251
3694	0.00046131
3703.64	0.0004078
3713.29	0.0003647
3722.93	0.0006056
3732.58	0.000263
3742.22	0.00033
3751.86	0.0006196
3761.51	0.00050687
3771.15	0.00012
3780.8	0.000113
3790.44	0.0005535
3800.09	0
3809.73	0.0003626
3819.38	0.00041
3829.02	0.000199
3838.67	0.0003666
3848.31	0.000227
3857.96	0.000313
3867.6	0.000315
3877.25	0.0003635
3886.89	0.000322
3896.54	0.00046222
3906.18	0.000341
3915.83	0.000193
3925.47	0.000208
3935.12	0.000165
3944.76	0.000306
3954.41	0.000331
3964.05	0.00052866
3973.69	0.000314
3983.34	0.000329
3992.98	0.000319
