Infrared Spectrum: m-Aminobenzanilide
Formula: C 13 H 12 N 2 O
CAS: 16091-26-2
State: gas
Instrument: HP-GC/MS/IRD
Origin: NIST Mass Spectrometry Data Center
1/CM	ABSORBANCE
550	0.000656
562	0.0005616
574	0.0004816
586	0.0005136
598	0.0004496
610	0.0002736
622	0.0005216
634	0.0006576
646	0.0012432
658	0.0013824
670	0.0017584
682	0.0030384
694	0.0025088
706	0.0014752
718	0.0012464
730	0.0018512
742	0.0036112
754	0.0036832
766	0.0015664
778	0.001064
790	0.0012208
802	0.000952
814	0.0005744
826	0.0002848
838	0.0003296
850	0.00056
862	0.0008816
874	0.0007104
886	0.000576
898	0.0005232
910	0.0002912
922	0.0002064
934	0.0001856
946	0.0001296
958	6.56e-05
970	0.0001424
982	0.0001952
994	0.000624
1006	0.0002304
1018	0.0001024
1030	0.0002592
1042	0.0001824
1054	0.0004256
1066	0.000968
1078	0.0009984
1090	0.0009488
1102	0.00052
1114	0.0002992
1126	0.0001056
1138	9.6e-06
1150	0
1162	5.76e-05
1174	0.000208
1186	0.0004944
1198	0.0016304
1210	0.0031152
1222	0.0027456
1234	0.0036368
1246	0.0021104
1258	0.0013088
1270	0.001728
1282	0.0035376
1294	0.0048576
1306	0.0079888
1318	0.0076624
1330	0.0032672
1342	0.0015024
1354	0.0007376
1366	0.000504
1378	0.0005056
1390	0.0004912
1402	0.000736
1414	0.001624
1426	0.005368
1438	0.0082976
1450	0.0044
1462	0.0031696
1474	0.0033504
1486	0.0051872
1498	0.0095392
1510	0.0152352
1522	0.0117744
1534	0.0042816
1546	0.002592
1558	0.0018656
1570	0.0020912
1582	0.0039472
1594	0.0066512
1606	0.0062816
1618	0.0048816
1630	0.0046128
1642	0.00196
1654	0.0010768
1666	0.0010352
1678	0.0013424
1690	0.0027216
1702	0.0062832
1714	0.0064464
1726	0.0026656
1738	0.0012768
1750	0.0008384
1762	0.0005504
1774	0.0004256
1786	0.000288
1798	0.0001888
1810	0.0001104
1822	0.0001504
1834	0.000176
1846	0.0001648
1858	0.0001776
1870	0.0001344
1882	7.2e-05
1894	9.28e-05
1906	0.0001456
1918	0.0002
1930	0.000208
1942	0.0001904
1954	0.0001488
1966	9.76e-05
1978	8.96e-05
1990	7.84e-05
2002	8.32e-05
2014	8.64e-05
2026	0.0001024
2038	8.64e-05
2050	6.72e-05
2062	8.48e-05
2074	8.16e-05
2086	9.76e-05
2098	0.0001008
2110	9.44e-05
2122	8.96e-05
2134	0.0001056
2146	0.0001248
2158	0.0001008
2170	9.92e-05
2182	8.8e-05
2194	7.2e-05
2206	7.84e-05
2218	7.04e-05
2230	7.36e-05
2242	7.2e-05
2254	6.56e-05
2266	8e-05
2278	9.76e-05
2290	0.0001008
2302	8e-05
2314	7.68e-05
2326	6.56e-05
2338	6.56e-05
2350	6.4e-05
2362	4.96e-05
2374	8.64e-05
2386	8.96e-05
2398	9.44e-05
2410	8.32e-05
2422	8.64e-05
2434	7.04e-05
2446	6.72e-05
2458	7.2e-05
2470	5.44e-05
2482	6.4e-05
2494	5.44e-05
2506	0.0001024
2518	8.64e-05
2530	0.0001008
2542	9.76e-05
2554	7.36e-05
2566	7.36e-05
2578	0.0001088
2590	8.16e-05
2602	0.0001008
2614	0.0001008
2626	0.0001072
2638	8.64e-05
2650	9.12e-05
2662	7.2e-05
2674	5.6e-05
2686	9.92e-05
2698	0.0001008
2710	6.88e-05
2722	9.76e-05
2734	9.44e-05
2746	5.12e-05
2758	0.0001008
2770	9.92e-05
2782	9.28e-05
2794	0.000112
2806	0.000104
2818	7.52e-05
2830	9.12e-05
2842	9.12e-05
2854	9.44e-05
2866	4.32e-05
2878	8e-05
2890	0.0001152
2902	0.0001008
2914	0.000152
2926	0.0001584
2938	0.000112
2950	0.0001328
2962	0.0001232
2974	0.0001008
2986	0.0001824
2998	0.0002688
3010	0.0005632
3022	0.001112
3034	0.0014464
3046	0.0015424
3058	0.0019872
3070	0.0020128
3082	0.0012384
3094	0.000832
3106	0.0006144
3118	0.0003504
3130	0.0002288
3142	0.0001504
3154	0.000104
3166	0.000104
3178	0.0001136
3190	0.0001264
3202	0.0001248
3214	0.0001664
3226	0.0001456
3238	0.0001312
3250	0.0001216
3262	0.0001072
3274	0.0001296
3286	0.0001072
3298	5.44e-05
3310	7.52e-05
3322	0.0001072
3334	7.68e-05
3346	7.36e-05
3358	0.0001232
3370	0.0001488
3382	0.0002496
3394	0.0003632
3406	0.000696
3418	0.0008448
3430	0.0005216
3442	0.0004128
3454	0.000656
3466	0.0007888
3478	0.0004912
3490	0.0004928
3502	0.0005216
3514	0.0003488
3526	0.0001824
3538	0.000168
3550	5.44e-05
3562	6.4e-05
3574	6.08e-05
3586	6.88e-05
3598	5.28e-05
3610	6.4e-05
3622	6.08e-05
3634	8.16e-05
3646	8.48e-05
3658	4.64e-05
3670	7.84e-05
3682	0.0001136
3694	0.0001008
3706	8.48e-05
3718	3.68e-05
3730	7.2e-05
3742	0.0001024
3754	9.92e-05
3766	7.68e-05
3778	0.000104
3790	2.24e-05
3802	3.84e-05
3814	7.52e-05
3826	0.0001184
3838	0.0001296
