Infrared Spectrum: Prometon
Formula: C 10 H 19 N 5 O
CAS: 1610-18-0
State: gas
Instrument: HP-GC/MS/IRD
Origin: NIST Mass Spectrometry Data Center
1/CM	ABSORBANCE
550	0.0077805
562	0.005278
574	0.003185
586	0.0025935
598	0.0023205
610	0.002366
622	0.0024115
634	0.001911
646	0.0016835
658	0.0014105
670	0.000728
682	0.0005915
694	0.000819
706	0.0006825
718	0.0005915
730	0.0006825
742	0.000364
754	0.0002275
766	0.0003185
778	0.001001
790	0.001547
802	0.003094
814	0.014014
826	0.0153335
838	0.005369
850	0.0039585
862	0.002639
874	0.0027755
886	0.003913
898	0.0054145
910	0.006643
922	0.007553
934	0.0081445
946	0.0086905
958	0.008918
970	0.0084175
982	0.007007
994	0.007371
1006	0.0127855
1018	0.014742
1030	0.0077805
1042	0.006006
1054	0.0057785
1066	0.0071435
1078	0.012103
1090	0.0218855
1102	0.0217035
1114	0.021749
1126	0.0283465
1138	0.0271635
1150	0.0256165
1162	0.033033
1174	0.0605605
1186	0.0838565
1198	0.0609245
1210	0.028938
1222	0.013559
1234	0.0111475
1246	0.0096005
1258	0.0089635
1270	0.011375
1282	0.018564
1294	0.022477
1306	0.022841
1318	0.0282555
1330	0.038311
1342	0.056875
1354	0.111976
1366	0.168805
1378	0.117527
1390	0.142734
1402	0.0799435
1414	0.061607
1426	0.0601965
1438	0.048503
1450	0.087633
1462	0.206752
1474	0.218491
1486	0.209573
1498	0.274228
1510	0.183456
1522	0.086723
1534	0.0725725
1546	0.107426
1558	0.1906
1570	0.368004
1582	0.452225
1594	0.286969
1606	0.119938
1618	0.0634725
1630	0.037219
1642	0.0227045
1654	0.016289
1666	0.0127855
1678	0.010647
1690	0.0082355
1702	0.0064155
1714	0.005187
1726	0.004277
1738	0.003731
1750	0.003367
1762	0.003003
1774	0.002548
1786	0.002366
1798	0.002093
1810	0.0018655
1822	0.00182
1834	0.00182
1846	0.0020475
1858	0.0020475
1870	0.00182
1882	0.0016835
1894	0.0015015
1906	0.0013195
1918	0.0012285
1930	0.001183
1942	0.001183
1954	0.001001
1966	0.0006825
1978	0.0005005
1990	0.0004095
2002	0.0004095
2014	0.0005915
2026	0.000637
2038	0.0005005
2050	0.000455
2062	0.000546
2074	0.000546
2086	0.0006825
2098	0.000728
2110	0.000728
2122	0.0005915
2134	0.0005005
2146	0.000364
2158	0.0002275
2170	0.000182
2182	0.000182
2194	0.000182
2206	0.000273
2218	0.000273
2230	0.000364
2242	0.0003185
2254	0.0002275
2266	0.0002275
2278	0.000273
2290	0.000364
2302	0.0005005
2314	0.0006825
2326	0.0007735
2338	0.0006825
2350	0.000637
2362	0.0007735
2374	0.0007735
2386	0.000728
2398	0.000637
2410	0.0005005
2422	0.000455
2434	0.0005915
2446	0.0007735
2458	0.001001
2470	0.0011375
2482	0.001274
2494	0.001274
2506	0.0014105
2518	0.001547
2530	0.001729
2542	0.001911
2554	0.001911
2566	0.001638
2578	0.0015015
2590	0.0015015
2602	0.0015015
2614	0.0012285
2626	0.001001
2638	0.00091
2650	0.000819
2662	0.0007735
2674	0.0008645
2686	0.00091
2698	0.0009555
2710	0.0009555
2722	0.0013195
2734	0.0014105
2746	0.001274
2758	0.0013195
2770	0.0015015
2782	0.001547
2794	0.00182
2806	0.0023205
2818	0.002821
2830	0.0032305
2842	0.004186
2854	0.0064155
2866	0.0106015
2878	0.0207025
2890	0.0224315
2902	0.018564
2914	0.0231595
2926	0.0267085
2938	0.032214
2950	0.0331695
2962	0.0479115
2974	0.067249
2986	0.060151
2998	0.023296
3010	0.0129675
3022	0.0107835
3034	0.005642
3046	0.0035945
3058	0.00273
3070	0.0022295
3082	0.0020475
3094	0.001911
3106	0.00182
3118	0.00182
3130	0.0018655
3142	0.0018655
3154	0.0019565
3166	0.0019565
3178	0.0017745
3190	0.0014105
3202	0.0010465
3214	0.0007735
3226	0.000546
3238	0.0003185
3250	0.000182
3262	9.1e-05
3274	4.55e-05
3286	0
3298	0
3310	0
3322	4.55e-05
3334	4.55e-05
3346	0.0001365
3358	0.000182
3370	0.000273
3382	0.0004095
3394	0.0005915
3406	0.001183
3418	0.0027755
3430	0.0083265
3442	0.022022
3454	0.0233415
3466	0.008281
3478	0.003003
3490	0.0015925
3502	0.00091
3514	0.000728
3526	0.0005915
3538	0.0004095
3550	0.0004095
3562	0.0003185
3574	0.000273
3586	0.000273
3598	0.000182
3610	0.0002275
3622	0.0003185
3634	0.0002275
3646	0.0002275
3658	0.0002275
3670	0.000273
3682	0.000273
3694	0.0002275
3706	0.0002275
3718	0.000273
3730	0.0002275
3742	0.0003185
3754	0.000273
3766	0.0002275
3778	0.0004095
3790	0.0003185
3802	0.0004095
3814	0.000455
3826	0.000455
3838	0.0004095
