Infrared Spectrum: 4,5-Dimethyl-1-hexene
Formula: C 8 H 16
CAS: 16106-59-5
State: gas
Instrument: HP-GC/MS/IRD
Origin: NIST Mass Spectrometry Data Center
1/CM	ABSORBANCE
550	0.0005076
562	0.0002988
574	0.0002088
586	0.0001944
598	0.0003924
610	0.0006552
622	0.0009396
634	0.0007596
646	0.0005796
658	0.000414
670	0.0003204
682	0.000396
694	0.0002808
706	0.0002808
718	0.000288
730	0.0002988
742	0.0003564
754	0.0002844
766	0.0003384
778	0.0003024
790	0.0002448
802	0.000252
814	0.0003168
826	0.0005688
838	0.0006372
850	0.0008532
862	0.0010692
874	0.0012996
886	0.0018648
898	0.0038556
910	0.0067536
922	0.0057348
934	0.002664
946	0.001548
958	0.001404
970	0.0018144
982	0.0028656
994	0.003492
1006	0.0025236
1018	0.0014832
1030	0.0011268
1042	0.0010044
1054	0.0010512
1066	0.0009972
1078	0.0009
1090	0.0009936
1102	0.0012852
1114	0.0015444
1126	0.0014148
1138	0.0014652
1150	0.0013536
1162	0.0010296
1174	0.000756
1186	0.00063
1198	0.000486
1210	0.0005292
1222	0.0006804
1234	0.0007128
1246	0.0006552
1258	0.0007164
1270	0.00072
1282	0.0007524
1294	0.0009252
1306	0.0010728
1318	0.0009684
1330	0.0008748
1342	0.0010656
1354	0.001782
1366	0.0033084
1378	0.0051084
1390	0.0048996
1402	0.0025956
1414	0.0015516
1426	0.0017604
1438	0.0026316
1450	0.0039744
1462	0.0047088
1474	0.0038124
1486	0.0021924
1498	0.001026
1510	0.0004644
1522	0.0003744
1534	0.0004176
1546	0.0003168
1558	0.0001476
1570	0.0003528
1582	0.0004428
1594	0.0004752
1606	0.000666
1618	0.0011232
1630	0.0025668
1642	0.0030564
1654	0.0013536
1666	0.0005184
1678	0.0003348
1690	0.0002736
1702	0.0001512
1714	0.0001584
1726	0.0002088
1738	0.0001476
1750	9.36e-05
1762	0.0001332
1774	0.0001332
1786	0.0002088
1798	0.0002304
1810	0.000414
1822	0.0008064
1834	0.0008928
1846	0.0004464
1858	0.000252
1870	0.0001872
1882	0.0002088
1894	0.0002052
1906	0.00018
1918	0.0001512
1930	0.0001476
1942	0.0001368
1954	0.000162
1966	0.0001584
1978	0.000216
1990	0.0001872
2002	0.0001512
2014	0.0001404
2026	0.0001476
2038	0.0001404
2050	0.0001224
2062	0.000108
2074	0.0001476
2086	0.0001224
2098	0.0001116
2110	0.0001188
2122	0.0001296
2134	0.0001332
2146	9e-05
2158	0.0001404
2170	0.000144
2182	0.000126
2194	0.0001296
2206	0.0001296
2218	0.0001296
2230	0.0001476
2242	0.000144
2254	0.0001476
2266	0.0001368
2278	0.000126
2290	0.0001368
2302	0.0001152
2314	0.0001152
2326	9e-05
2338	0.0001008
2350	0.0001152
2362	7.56e-05
2374	0.0001152
2386	0.0001548
2398	0.0001764
2410	0.0001728
2422	0.0001404
2434	0.0001656
2446	0.0001512
2458	0.0001512
2470	0.000126
2482	0.000144
2494	0.0001152
2506	0.000144
2518	0.0001584
2530	0.0001656
2542	0.0001584
2554	0.000198
2566	0.000252
2578	0.0003132
2590	0.0003636
2602	0.000396
2614	0.0003888
2626	0.0003888
2638	0.0003384
2650	0.0003276
2662	0.0003348
2674	0.0003816
2686	0.0004032
2698	0.000414
2710	0.000468
2722	0.0005724
2734	0.0006696
2746	0.000666
2758	0.0006624
2770	0.0006768
2782	0.0007128
2794	0.0008496
2806	0.0010692
2818	0.00144
2830	0.0020088
2842	0.00297
2854	0.0046224
2866	0.0087264
2878	0.0152028
2890	0.01746
2902	0.01593
2914	0.0160704
2926	0.0175572
2938	0.0188568
2950	0.022716
2962	0.033912
2974	0.0333756
2986	0.0185112
2998	0.0086004
3010	0.004932
3022	0.003114
3034	0.0022464
3046	0.0021096
3058	0.0025092
3070	0.0037584
3082	0.00531
3094	0.0038556
3106	0.001476
3118	0.0010116
3130	0.0008172
3142	0.000738
3154	0.0007236
3166	0.0006444
3178	0.0005436
3190	0.0005184
3202	0.0004428
3214	0.0003276
3226	0.000252
3238	0.000216
3250	0.000144
3262	0.0001116
3274	0.0001512
3286	0.000126
3298	0.000126
3310	0.0001332
3322	0.000126
3334	0.0001152
3346	0.0001332
3358	0.0001296
3370	0.000126
3382	0.0001116
3394	0.0001224
3406	0.0001548
3418	9e-05
3430	0.0001332
3442	0.0001044
3454	0.0001584
3466	0.000108
3478	0.0001476
3490	0.0001548
3502	0.0001476
3514	0.0001152
3526	0.0001152
3538	9e-05
3550	0.0001188
3562	7.2e-05
3574	0.000108
3586	2.88e-05
3598	0.0001368
3610	5.4e-05
3622	2.16e-05
3634	9.72e-05
3646	3.96e-05
3658	0.0001512
3670	5.4e-05
3682	0.0001512
3694	0.0001044
3706	0.0001152
3718	0.0001296
3730	6.12e-05
3742	1.44e-05
3754	3.96e-05
3766	0.0001512
3778	0.0001512
3790	0.00018
3802	8.64e-05
3814	8.64e-05
3826	0.0001836
3838	9e-05
