Infrared Spectrum: Nicotinic acid, 1,2-dihydro-4,6-dimethyl-2-oxo-,ethyl ester
Formula: C10 H13 N O3
CAS: 16108-48-8
State: SOLID (1 mg / 650 mg KBr DISC)
Class: COBLENTZ III
Instrument: PERKIN-ELMER 221 (GRATING)
Instrument parameters: FILTER AT 2490, 980 CM^-^1. GRATING 4000-1428 CM^-^1, NaCl PRISM 1428-650 CM^-^1
Sampling: TRANSMISSION
Resolution: 2
Origin: SOUTHERN RESEARCH INSTITUTE, W.C. Coburn, Jr.
1/CM	TRANSMITTANCE
638	0.942
647	0.9868
656	0.9823
665	0.9704
674	0.9586
683	0.947
692	0.9333
701	0.922
710	0.9102
719	0.8951
728	0.8795
737	0.8626
746	0.7746
755	0.8646
764	0.8523
773	0.8173
782	0.7396
791	0.5738
800	0.7258
809	0.5536
818	0.7724
827	0.742
836	0.5952
845	0.8095
854	0.8072
863	0.7704
872	0.7464
881	0.8034
890	0.7924
899	0.773
908	0.7457
917	0.7173
926	0.6765
935	0.5842
944	0.4848
953	0.5119
962	0.6121
971	0.6699
980	0.6379
989	0.6498
998	0.6528
1007	0.5671
1016	0.413
1025	0.579
1034	0.6114
1043	0.6176
1052	0.5901
1061	0.4704
1070	0.3017
1079	0.1303
1088	0.3073
1097	0.543
1106	0.6424
1115	0.6111
1124	0.7392
1133	0.7265
1142	0.6914
1151	0.6706
1160	0.553
1169	0.3314
1178	0.4579
1187	0.6785
1196	0.722
1205	0.6714
1214	0.4736
1223	0.537
1232	0.5997
1241	0.4198
1250	0.1981
1259	0.2675
1268	0.4295
1277	0.5456
1286	0.6463
1295	0.6643
1304	0.6622
1313	0.6522
1322	0.6153
1331	0.5568
1340	0.6587
1349	0.6335
1358	0.563
1367	0.4933
1376	0.4577
1385	0.4628
1394	0.4983
1403	0.5009
1412	0.4062
1421	0.3873
1430	0.4403
1439	0.4571
1448	0.4788
1457	0.4593
1466	0.3745
1475	0.288
1484	0.4618
1493	0.537
1502	0.5294
1511	0.507
1520	0.4603
1529	0.3924
1538	0.3344
1547	0.3951
1556	0.4722
1565	0.4702
1574	0.4355
1583	0.3786
1592	0.3028
1601	0.217
1610	0.1309
1619	0.1145
1628	0.0834
1637	0.0648
1646	0.0961
1655	0.212
1664	0.3219
1673	0.4363
1682	0.465
1691	0.4444
1700	0.302
1709	0.1547
1718	0.1792
1727	0.2618
1736	0.3923
1745	0.5086
1754	0.5946
1763	0.637
1772	0.6859
1781	0.7072
1790	0.7358
1799	0.759
1808	0.7677
1817	0.7662
1826	0.7488
1835	0.7287
1844	0.718
1853	0.7271
1862	0.7524
1871	0.7716
1880	0.785
1889	0.8002
1898	0.8218
1907	0.8278
1916	0.8282
1925	0.8287
1934	0.8286
1943	0.8285
1952	0.8286
1961	0.8352
1970	0.8478
1979	0.8606
1988	0.8624
1997	0.862
2006	0.8609
2015	0.8614
2024	0.8637
2033	0.8671
2042	0.865
2051	0.8638
2060	0.8641
2069	0.8645
2078	0.8626
2087	0.86
2096	0.8583
2105	0.8561
2114	0.8538
2123	0.8515
2132	0.8494
2141	0.8475
2150	0.8457
2159	0.8448
2168	0.8446
2177	0.8459
2186	0.8469
2195	0.8469
2204	0.8457
2213	0.8436
2222	0.8406
2231	0.8311
2240	0.8176
2249	0.813
2258	0.8121
2267	0.8121
2276	0.8123
2285	0.8088
2294	0.7994
2303	0.7913
2312	0.7813
2321	0.7671
2330	0.7564
2339	0.7475
2348	0.741
2357	0.7385
2366	0.7371
2375	0.7362
2384	0.735
2393	0.7286
2402	0.7255
2411	0.7215
2420	0.716
2429	0.7004
2438	0.6942
2447	0.6898
2456	0.686
2465	0.6819
2474	0.6691
2483	0.6578
2492	0.6546
2501	0.6472
2510	0.6409
2519	0.6372
2528	0.6329
2537	0.622
2546	0.6033
2555	0.5889
2564	0.5787
2573	0.5695
2582	0.5584
2591	0.5478
2600	0.5375
2609	0.5271
2618	0.5143
2627	0.5017
2636	0.4901
2645	0.4822
2654	0.4792
2663	0.4819
2672	0.4832
2681	0.4689
2690	0.4489
2699	0.4309
2708	0.4171
2717	0.4083
2726	0.4016
2735	0.3976
2744	0.3951
2753	0.3913
2762	0.3933
2771	0.3973
2780	0.4021
2789	0.4087
2798	0.4161
2807	0.4176
2816	0.4105
2825	0.3963
2834	0.3865
2843	0.3844
2852	0.3847
2861	0.3876
2870	0.394
2879	0.3998
2888	0.4005
2897	0.4004
2906	0.4088
2915	0.4217
2924	0.4237
2933	0.4467
2942	0.4553
2951	0.4639
2960	0.446
2969	0.3832
2978	0.3746
2987	0.3968
2996	0.4513
3005	0.4876
3014	0.5221
3023	0.5527
3032	0.5806
3041	0.5932
3050	0.6029
3059	0.6198
3068	0.6349
3077	0.6426
3086	0.6477
3095	0.648
3104	0.6428
3113	0.6303
3122	0.6127
3131	0.6204
3140	0.6531
3149	0.6892
3158	0.7161
3167	0.7352
3176	0.7471
3185	0.7551
3194	0.7596
3203	0.7622
3212	0.7661
3221	0.7637
3230	0.7633
3239	0.7628
3248	0.7583
3257	0.749
3266	0.7363
3275	0.7195
3284	0.7141
3293	0.7216
3302	0.7506
3311	0.77
3320	0.7739
3329	0.7709
3338	0.7653
3347	0.7593
3356	0.753
3365	0.7469
3374	0.741
3383	0.7369
3392	0.7369
3401	0.7377
3410	0.7404
3419	0.7479
3428	0.7507
3437	0.7519
3446	0.7522
3455	0.7526
3464	0.7533
3473	0.7542
3482	0.7552
3491	0.7568
3500	0.7597
3509	0.7698
3518	0.772
3527	0.7745
3536	0.7785
3545	0.7833
3554	0.7892
3563	0.796
3572	0.8051
3581	0.8156
3590	0.8225
3599	0.8281
3608	0.8331
3617	0.8378
3626	0.8425
3635	0.8511
3644	0.8543
3653	0.8551
3662	0.8558
3671	0.8567
3680	0.8568
3689	0.8564
3698	0.8557
3707	0.8547
3716	0.8537
3725	0.8526
3734	0.8515
3743	0.8515
3752	0.8532
3761	0.8553
3770	0.8555
3779	0.8545
3788	0.852
3797	0.8475
3806	0.8446
3815	0.8424
3824	0.8412
3833	0.8407
3842	0.84
3851	0.838
3860	0.8315
3869	0.8297
3878	0.8297
3887	0.8305
3896	0.8308
3905	0.8304
3914	0.83
3923	0.8296
3932	0.8293
3941	0.8288
3950	0.8283
3959	0.8281
3968	0.8283
3977	0.8276
3986	0.8271
3995	0.8265
