Infrared Spectrum: MONO-DI-ISO-PROPYL ACID O-PHOSPHATE
Formula: C6 H15 O4 P
CAS: 1611-31-0
State: LIQUID
Class: COBLENTZ
Instrument: PERKIN-ELMER
Sampling: TRANSMISSION
Path length: 0.0024 CM
Resolution: 4
Origin: STANDARD OIL OF OHIO
MICROMETERS	TRANSMITTANCE
2.047	0.964
2.08086	0.964
2.11471	0.962
2.14857	0.959
2.18242	0.959
2.21628	0.957
2.25013	0.94
2.28399	0.923
2.31784	0.918
2.3517	0.93
2.38555	0.923
2.41941	0.916
2.45326	0.914
2.48712	0.918
2.52097	0.919
2.55483	0.919
2.58868	0.919
2.62254	0.916
2.6564	0.914
2.69025	0.911
2.72411	0.902
2.75796	0.875
2.79182	0.838
2.82567	0.8
2.85953	0.752
2.89338	0.703
2.92724	0.649
2.96109	0.597
2.99495	0.543
3.0288	0.497
3.06266	0.446
3.09651	0.4
3.13037	0.354
3.16422	0.315
3.19808	0.275
3.23194	0.247
3.26579	0.218
3.29965	0.163
3.3335	0.063
3.36736	0.09
3.40121	0.098
3.43507	0.114
3.46892	0.124
3.50278	0.131
3.53663	0.131
3.57049	0.131
3.60434	0.132
3.6382	0.136
3.67205	0.139
3.70591	0.143
3.73976	0.149
3.77362	0.153
3.80748	0.165
3.84133	0.177
3.87519	0.189
3.90904	0.202
3.9429	0.216
3.97675	0.228
4.01061	0.24
4.04446	0.247
4.07832	0.248
4.11217	0.247
4.14603	0.24
4.17988	0.229
4.21374	0.224
4.24759	0.218
4.28145	0.211
4.3153	0.204
4.34916	0.199
4.38302	0.199
4.41687	0.206
4.45073	0.216
4.48458	0.224
4.51844	0.231
4.55229	0.238
4.58615	0.247
4.62	0.257
4.65386	0.265
4.68771	0.277
4.72157	0.286
4.75542	0.299
4.78928	0.31
4.82313	0.323
4.85699	0.337
4.89084	0.349
4.9247	0.362
4.95856	0.373
4.99241	0.383
5.02627	0.391
5.06012	0.4
5.09398	0.403
5.12783	0.408
5.16169	0.41
5.19554	0.412
5.2294	0.413
5.26325	0.415
5.29711	0.415
5.33096	0.415
5.36482	0.408
5.39867	0.402
5.43253	0.393
5.46638	0.381
5.50024	0.369
5.5341	0.354
5.56795	0.34
5.60181	0.325
5.63566	0.31
5.66952	0.294
5.70337	0.284
5.73723	0.277
5.77108	0.269
5.80494	0.262
5.83879	0.255
5.87265	0.25
5.9065	0.245
5.94036	0.241
5.97421	0.24
6.00807	0.238
6.04192	0.238
6.07578	0.24
6.10964	0.245
6.14349	0.25
6.17735	0.255
6.2112	0.258
6.24506	0.264
6.27891	0.269
6.31277	0.277
6.34662	0.287
6.38048	0.298
6.41433	0.303
6.44819	0.315
6.48204	0.321
6.5159	0.33
6.54975	0.337
6.58361	0.345
6.61747	0.352
6.65132	0.356
6.68518	0.359
6.71903	0.356
6.75289	0.333
6.78674	0.252
6.8206	0.241
6.85445	0.27
6.88831	0.301
6.92216	0.35
6.95602	0.381
6.98987	0.405
7.02373	0.419
7.05758	0.425
7.09144	0.425
7.12529	0.398
7.15915	0.243
7.19301	0.126
7.22686	0.144
7.26072	0.141
7.29457	0.306
7.32843	0.366
7.36228	0.385
7.39614	0.403
7.42999	0.42
7.46385	0.42
7.4977	0.436
7.53156	0.451
7.56541	0.453
7.59927	0.448
7.63312	0.436
7.66698	0.417
7.70083	0.4
7.73469	0.364
7.76855	0.311
7.8024	0.269
7.83626	0.24
7.87011	0.195
7.90397	0.149
7.93782	0.117
7.97168	0.1
8.00553	0.083
8.03939	0.068
8.07324	0.044
8.1071	0.03
8.14095	0.023
8.17481	0.02
8.20866	0.017
8.24252	0.017
8.27637	0.017
8.31023	0.018
8.34409	0.02
8.37794	0.022
8.4118	0.022
8.44565	0.018
8.47951	0.013
8.51336	0.015
8.54722	0.017
8.58107	0.02
8.61493	0.022
8.64878	0.025
8.68264	0.025
8.71649	0.022
8.75035	0.017
8.7842	0.018
8.81806	0.027
8.85191	0.034
8.88577	0.037
8.91963	0.037
8.95348	0.037
8.98734	0.03
9.02119	0.018
9.05505	0.017
9.0889	0.022
9.12276	0.03
9.15661	0.039
9.19047	0.045
9.22432	0.045
9.25818	0.039
9.29203	0.027
9.32589	0.015
9.35974	0.008
9.3936	0.005
9.42745	0.003
9.46131	0.001
9.49517	0.001
9.52902	0.001
9.56288	0.001
9.59673	0.001
9.63059	0.001
9.66444	0.001
9.6983	0.001
9.73215	0.001
9.76601	0.001
9.79986	0.001
9.83372	0.001
9.86757	0.001
9.90143	0.001
9.93528	0.001
9.96914	0.001
10.003	0.001
10.0368	0.001
10.0707	0.003
10.1046	0.001
10.1384	0.003
10.1723	0.005
10.2061	0.006
10.24	0.01
10.2738	0.013
10.3077	0.017
10.3415	0.017
10.3754	0.018
10.4093	0.018
10.4431	0.02
10.477	0.022
10.5108	0.022
10.5447	0.023
10.5785	0.023
10.6124	0.027
10.6462	0.035
10.6801	0.042
10.714	0.054
10.7478	0.066
10.7817	0.083
10.8155	0.102
10.8494	0.114
10.8832	0.126
10.9171	0.132
10.9509	0.139
10.9848	0.148
11.0187	0.151
11.0525	0.151
11.0864	0.148
11.1202	0.144
11.1541	0.149
11.1879	0.158
11.2218	0.17
11.2556	0.178
11.2895	0.182
11.3234	0.183
11.3572	0.187
11.3911	0.194
11.4249	0.204
11.4588	0.214
11.4926	0.223
11.5265	0.229
11.5603	0.236
11.5942	0.243
11.628	0.252
11.6619	0.258
11.6958	0.265
11.7296	0.27
11.7635	0.277
11.7973	0.282
11.8312	0.287
11.865	0.293
11.8989	0.299
11.9327	0.304
11.9666	0.306
12.0005	0.311
12.0343	0.316
12.0682	0.321
12.102	0.325
12.1359	0.33
12.1697	0.332
12.2036	0.332
12.2374	0.328
12.2713	0.321
12.3052	0.315
12.339	0.31
12.3729	0.31
12.4067	0.311
12.4406	0.315
12.4744	0.318
12.5083	0.321
12.5421	0.323
12.576	0.323
12.6099	0.323
12.6437	0.321
12.6776	0.315
12.7114	0.308
12.7453	0.299
12.7791	0.296
12.813	0.291
12.8468	0.289
12.8807	0.287
12.9146	0.287
12.9484	0.289
12.9823	0.293
13.0161	0.296
13.05	0.293
13.0838	0.286
13.1177	0.282
13.1515	0.274
13.1854	0.264
13.2192	0.252
13.2531	0.248
13.287	0.245
13.3208	0.243
13.3547	0.248
13.3885	0.258
13.4224	0.269
13.4562	0.277
13.4901	0.289
13.5239	0.306
13.5578	0.315
13.5917	0.327
13.6255	0.34
13.6594	0.352
13.6932	0.364
13.7271	0.373
13.7609	0.381
13.7948	0.39
13.8286	0.396
13.8625	0.402
13.8964	0.41
13.9302	0.417
13.9641	0.424
13.9979	0.432
14.0318	0.434
14.0656	0.439
14.0995	0.446
14.1333	0.451
14.1672	0.454
14.2011	0.458
14.2349	0.463
14.2688	0.468
14.3026	0.471
14.3365	0.475
14.3703	0.478
14.4042	0.483
14.438	0.487
14.4719	0.492
14.5057	0.497
14.5396	0.502
14.5735	0.505
14.6073	0.509
14.6412	0.512
14.675	0.517
14.7089	0.521
14.7427	0.524
14.7766	0.529
14.8104	0.533
14.8443	0.536
14.8782	0.54
14.912	0.541
14.9459	0.546
14.9797	0.551
15.0136	0.553
15.0474	0.555
15.0813	0.557
15.1151	0.56
15.149	0.562
15.1829	0.563
15.2167	0.563
15.2506	0.563
15.2844	0.563
15.3183	0.563
15.3521	0.565
15.386	0.567
