Infrared Spectrum: 1,2-Butanedithiol
Formula: C 4 H 10 S 2
CAS: 16128-68-0
State: gas
Instrument: HP-GC/MS/IRD
Origin: NIST Mass Spectrometry Data Center
1/CM	ABSORBANCE
550	0.0015015
562	0.0007623
574	0.0005236
586	0.0004158
598	0.0002233
610	0.000154
622	0.0004774
634	0.000539
646	0.0003311
658	0.0003927
670	0.0006545
682	0.0009163
694	0.001386
706	0.0023716
718	0.0030877
730	0.0034034
742	0.0037653
754	0.003696
766	0.0027951
778	0.0026642
790	0.0032417
802	0.0038192
814	0.0039732
826	0.0043582
838	0.0048125
850	0.0059136
862	0.0073381
874	0.008932
886	0.0107954
898	0.0138446
910	0.0169862
922	0.0244321
934	0.0228151
946	0.0132055
958	0.0112189
970	0.0168091
982	0.0303226
994	0.0314468
1006	0.0168399
1018	0.0118426
1030	0.0190729
1042	0.0376145
1054	0.0609532
1066	0.0765611
1078	0.0599137
1090	0.0439054
1102	0.031416
1114	0.0202664
1126	0.0195888
1138	0.0233464
1150	0.0183414
1162	0.0132286
1174	0.0139139
1186	0.0138677
1198	0.0172172
1210	0.0211365
1222	0.0120813
1234	0.0075537
1246	0.0070532
1258	0.0061292
1270	0.0042196
1282	0.0033341
1294	0.0037191
1306	0.0048279
1318	0.0058443
1330	0.0082159
1342	0.0093093
1354	0.0088011
1366	0.0049819
1378	0.0020636
1390	0.0013475
1402	0.0016401
1414	0.0035574
1426	0.0061138
1438	0.0079387
1450	0.0117194
1462	0.0120274
1474	0.0091014
1486	0.0035343
1498	0.0011319
1510	0.0006776
1522	0.0004928
1534	0.0004004
1546	0.0003619
1558	0.0003388
1570	0.0003157
1582	0.0003157
1594	0.0004004
1606	0.0004543
1618	0.0005082
1630	0.0005852
1642	0.0007007
1654	0.0008855
1666	0.0011319
1678	0.0014168
1690	0.001617
1702	0.0020251
1714	0.0030723
1726	0.0053053
1738	0.0105644
1750	0.0277046
1762	0.0560483
1774	0.0447062
1786	0.0260106
1798	0.0345037
1810	0.0668514
1822	0.0739277
1834	0.0461153
1846	0.0206976
1858	0.0104489
1870	0.0059983
1882	0.0035189
1894	0.002233
1906	0.0015862
1918	0.0011858
1930	0.0008547
1942	0.0006545
1954	0.0004928
1966	0.0004004
1978	0.0003388
1990	0.000308
2002	0.0002387
2014	0.0001925
2026	0.0002079
2038	0.0002002
2050	0.0002002
2062	0.000231
2074	0.0003003
2086	0.0003696
2098	0.0006391
2110	0.0012012
2122	0.0018249
2134	0.0013475
2146	0.0005544
2158	0.0002541
2170	0.0001386
2182	8.47e-05
2194	6.16e-05
2206	6.16e-05
2218	3.08e-05
2230	0
2242	3.85e-05
2254	6.16e-05
2266	0.0001001
2278	6.16e-05
2290	6.16e-05
2302	5.39e-05
2314	7.7e-05
2326	0.000154
2338	0.0001694
2350	0.0001078
2362	0.0001694
2374	0.0001694
2386	0.0001078
2398	0.0001155
2410	0.0001155
2422	0.0001001
2434	0.0001155
2446	9.24e-05
2458	0.0001232
2470	9.24e-05
2482	0.0001232
2494	0.0001386
2506	0.0001848
2518	0.0001771
2530	0.0002002
2542	0.0002002
2554	0.0001386
2566	0.0001155
2578	0.0001694
2590	0.0001848
2602	0.0002002
2614	0.000231
2626	0.000231
2638	0.0003003
2650	0.0004081
2662	0.0005082
2674	0.0006699
2686	0.0008008
2698	0.0008162
2710	0.0006699
2722	0.0005082
2734	0.0004466
2746	0.0004851
2758	0.0005313
2770	0.0006006
2782	0.0006853
2794	0.0008932
2806	0.0011396
2818	0.001463
2830	0.0018942
2842	0.0028182
2854	0.0072226
2866	0.012397
2878	0.0151536
2890	0.0155848
2902	0.0142142
2914	0.0231
2926	0.0300146
2938	0.0450835
2950	0.0472318
2962	0.0302918
2974	0.0216216
2986	0.011242
2998	0.0047509
3010	0.0022792
3022	0.001309
3034	0.0008778
3046	0.0007161
3058	0.0005236
3070	0.000462
3082	0.0004004
3094	0.0004004
3106	0.0003388
3118	0.0002618
3130	0.0002387
3142	0.0003003
3154	0.0002464
3166	0.0002541
3178	0.0002387
3190	0.0002002
3202	0.0002079
3214	0.000154
3226	0.0002079
3238	0.000231
3250	0.0002079
3262	0.0002079
3274	0.0001386
3286	0.0001771
3298	0.000154
3310	0.0001155
3322	6.93e-05
3334	0.0001309
3346	0.0001925
3358	8.47e-05
3370	0.0001309
3382	0.0001771
3394	0.0002079
3406	0.0001617
3418	0.0002079
3430	0.0001925
3442	0.0001925
3454	0.0002079
3466	0.0002079
3478	0.0003003
3490	0.0004312
3502	0.0007161
3514	0.0008162
3526	0.0006853
3538	0.0005698
3550	0.0005236
3562	0.0008239
3574	0.0011088
3586	0.0010703
3598	0.0009009
3610	0.0010395
3622	0.0009086
3634	0.0007931
3646	0.0007315
3658	0.0006545
3670	0.0005236
3682	0.0003773
3694	0.0003696
3706	0.000308
3718	0.0003157
3730	0.0003696
3742	0.0002695
3754	0.0002926
3766	0.000231
3778	0.0003157
3790	0.0002464
3802	0.0002772
3814	0.000308
3826	0.0002618
3838	0.0002849
