Infrared Spectrum: TRANS-1-CHLOROPROPENE
Formula: C3 H5 Cl
CAS: 16136-85-9
Class: COBLENTZ
Instrument: Not specified, most likely a prism, grating, or hybrid spectrometer.
Sampling: TRANSMISSION
Resolution: 4
Origin: W.T. BOLLETER
MICROMETERS	TRANSMITTANCE
14.474	0.125
14.5443	0.15
14.6146	0.219
14.6848	0.368
14.7551	0.45
14.8254	0.501
14.8957	0.546
14.966	0.57
15.0362	0.592
15.1065	0.609
15.1768	0.645
15.2471	0.696
15.3174	0.73
15.3876	0.757
15.4579	0.769
15.5282	0.767
15.5985	0.755
15.6688	0.741
15.7391	0.725
15.8093	0.723
15.8796	0.737
15.9499	0.765
16.0202	0.787
16.0905	0.796
16.1607	0.799
16.231	0.801
16.3013	0.799
16.3716	0.789
16.4419	0.771
16.5121	0.753
16.5824	0.735
16.6527	0.73
16.723	0.746
16.7933	0.764
16.8635	0.785
16.9338	0.797
17.0041	0.806
17.0744	0.81
17.1447	0.812
17.2149	0.81
17.2852	0.808
17.3555	0.801
17.4258	0.794
17.4961	0.783
17.5664	0.771
17.6366	0.751
17.7069	0.732
17.7772	0.726
17.8475	0.737
17.9178	0.755
17.988	0.778
18.0583	0.796
18.1286	0.799
18.1989	0.801
18.2692	0.803
18.3394	0.799
18.4097	0.787
18.48	0.771
18.5503	0.75
18.6206	0.703
18.6908	0.656
18.7611	0.615
18.8314	0.59
18.9017	0.593
18.972	0.622
19.0422	0.67
19.1125	0.702
19.1828	0.723
19.2531	0.735
19.3234	0.748
19.3936	0.751
19.4639	0.758
19.5342	0.762
19.6045	0.764
19.6748	0.767
19.7451	0.771
19.8153	0.771
19.8856	0.771
19.9559	0.767
20.0262	0.765
20.0965	0.769
20.1667	0.764
20.237	0.758
20.3073	0.757
20.3776	0.75
20.4479	0.744
20.5181	0.741
20.5884	0.734
20.6587	0.73
20.729	0.726
20.7993	0.721
20.8695	0.714
20.9398	0.712
21.0101	0.707
21.0804	0.705
21.1507	0.709
21.2209	0.707
21.2912	0.705
21.3615	0.703
21.4318	0.702
21.5021	0.698
21.5723	0.687
21.6426	0.684
21.7129	0.679
21.7832	0.673
21.8535	0.663
21.9238	0.659
21.994	0.656
22.0643	0.645
22.1346	0.638
22.2049	0.634
22.2752	0.629
22.3454	0.624
22.4157	0.611
22.486	0.602
22.5563	0.586
22.6266	0.563
22.6968	0.546
22.7671	0.519
22.8374	0.496
22.9077	0.466
22.978	0.432
23.0482	0.388
23.1185	0.347
23.1888	0.294
23.2591	0.235
23.3294	0.179
23.3996	0.136
23.4699	0.093
23.5402	0.065
23.6105	0.042
23.6808	0.033
23.7511	0.03
23.8213	0.033
23.8916	0.039
23.9619	0.058
24.0322	0.108
24.1025	0.152
24.1727	0.205
24.243	0.269
24.3133	0.338
24.3836	0.386
24.4539	0.436
24.5241	0.469
24.5944	0.491
24.6647	0.505
24.735	0.517
24.8053	0.53
24.8755	0.567
24.9458	0.583
25.0161	0.601
25.0864	0.611
25.1567	0.624
25.2269	0.636
25.2972	0.65
25.3675	0.661
25.4378	0.675
25.5081	0.682
25.5783	0.691
25.6486	0.698
25.7189	0.705
25.7892	0.71
25.8595	0.716
25.9298	0.721
26	0.725
26.0703	0.728
26.1406	0.735
26.2109	0.742
26.2812	0.75
26.3514	0.755
26.4217	0.758
26.492	0.76
26.5623	0.762
26.6326	0.765
26.7028	0.767
26.7731	0.767
26.8434	0.771
26.9137	0.773
26.984	0.78
27.0542	0.794
27.1245	0.803
27.1948	0.813
27.2651	0.819
27.3354	0.824
27.4056	0.831
27.4759	0.838
27.5462	0.842
27.6165	0.843
27.6868	0.851
27.757	0.852
27.8273	0.856
27.8976	0.859
27.9679	0.865
28.0382	0.868
28.1085	0.872
28.1787	0.874
28.249	0.875
28.3193	0.877
28.3896	0.877
28.4599	0.875
28.5301	0.881
28.6004	0.879
28.6707	0.875
28.741	0.877
28.8113	0.875
28.8815	0.875
28.9518	0.881
29.0221	0.881
29.0924	0.879
29.1627	0.881
29.2329	0.877
29.3032	0.881
29.3735	0.879
29.4438	0.879
29.5141	0.881
29.5843	0.877
29.6546	0.875
29.7249	0.875
29.7952	0.874
29.8655	0.874
29.9358	0.874
30.006	0.872
30.0763	0.867
30.1466	0.867
30.2169	0.867
30.2872	0.867
30.3574	0.861
30.4277	0.865
30.498	0.868
30.5683	0.867
30.6386	0.861
30.7088	0.856
30.7791	0.856
30.8494	0.854
30.9197	0.854
30.99	0.852
31.0602	0.851
31.1305	0.843
31.2008	0.84
31.2711	0.836
31.3414	0.831
31.4116	0.826
31.4819	0.822
31.5522	0.819
31.6225	0.817
31.6928	0.812
31.763	0.81
31.8333	0.812
31.9036	0.804
31.9739	0.801
32.0442	0.796
32.1145	0.789
32.1847	0.785
32.255	0.78
32.3253	0.774
32.3956	0.774
32.4659	0.774
32.5361	0.769
32.6064	0.762
32.6767	0.762
32.747	0.76
32.8173	0.758
32.8875	0.758
32.9578	0.758
33.0281	0.755
33.0984	0.753
33.1687	0.746
33.2389	0.737
33.3092	0.732
33.3795	0.73
33.4498	0.73
33.5201	0.73
33.5903	0.73
33.6606	0.728
33.7309	0.728
33.8012	0.726
33.8715	0.725
33.9418	0.721
34.012	0.719
34.0823	0.718
34.1526	0.716
34.2229	0.714
34.2932	0.712
34.3634	0.71
34.4337	0.707
34.504	0.702
34.5743	0.693
34.6446	0.682
34.7148	0.675
34.7851	0.668
34.8554	0.661
34.9257	0.656
34.996	0.65
35.0662	0.648
35.1365	0.645
35.2068	0.641
35.2771	0.632
35.3474	0.622
35.4176	0.618
35.4879	0.609
35.5582	0.599
35.6285	0.59
35.6988	0.578
35.769	0.57
35.8393	0.562
35.9096	0.56
35.9799	0.554
36.0502	0.549
36.1205	0.546
36.1907	0.542
36.261	0.539
36.3313	0.535
36.4016	0.531
36.4719	0.526
36.5421	0.526
36.6124	0.523
36.6827	0.524
36.753	0.519
36.8233	0.515
36.8935	0.51
36.9638	0.508
37.0341	0.507
37.1044	0.501
37.1747	0.5
37.2449	0.498
37.3152	0.498
37.3855	0.496
37.4558	0.494
37.5261	0.494
37.5963	0.491
37.6666	0.491
37.7369	0.491
37.8072	0.489
37.8775	0.485
37.9477	0.482
38.018	0.48
