Infrared Spectrum: 1-Methylindole-2-carboxylic acid
Formula: C10 H9 N O2
CAS: 16136-58-6
State: SOLID (SPLIT MULL), FLUOROLUBE FOR 3800-1330 CM^-^1, NUJOL FOR 1330-450 CM^-^1
Melting point: 212 C (DECOMPOSES)
Class: COBLENTZ III
Instrument: DOW KBr FOREPRISM-GRATING
Instrument parameters: BLAZED AT 3.5, 12.0, 20.0 MICRON AND CHANGED AT 5.0, 7.5, 14.9 MICRON
Sampling: TRANSMISSION
Resolution: 2
Origin: DOW CHEMICAL COMPANY
1/CM	TRANSMITTANCE
458	0.8571
467	0.8686
476	0.8821
485	0.8931
494	0.9017
503	0.9014
512	0.8994
521	0.9002
530	0.9046
539	0.8871
548	0.6744
557	0.9018
566	0.8985
575	0.8838
584	0.7344
593	0.7432
602	0.9038
611	0.7384
620	0.9082
629	0.9275
638	0.9348
647	0.9366
656	0.9367
665	0.9366
674	0.9418
683	0.9515
692	0.944
701	0.9428
710	0.9154
719	0.8253
728	0.6447
737	0.3596
746	0.2953
755	0.867
764	0.8039
773	0.8731
782	0.8601
791	0.8417
800	0.8378
809	0.8008
818	0.439
827	0.7678
836	0.7475
845	0.8147
854	0.8038
863	0.7665
872	0.6533
881	0.4958
890	0.5289
899	0.5958
908	0.7435
917	0.8044
926	0.8141
935	0.7532
944	0.8388
953	0.8432
962	0.8368
971	0.8258
980	0.8383
989	0.8393
998	0.8297
1007	0.7864
1016	0.8452
1025	0.8309
1034	0.8244
1043	0.8171
1052	0.8075
1061	0.7961
1070	0.7792
1079	0.735
1088	0.6626
1097	0.7449
1106	0.7031
1115	0.7248
1124	0.6378
1133	0.4658
1142	0.5588
1151	0.5657
1160	0.4581
1169	0.5377
1178	0.7304
1187	0.7125
1196	0.6961
1205	0.6865
1214	0.6285
1223	0.4642
1232	0.1913
1241	0.4655
1250	0.4445
1259	0.1402
1268	0.0643
1277	0.2245
1286	0.5559
1295	0.6617
1304	0.713
1313	0.6855
1322	0.5176
1331	0.5792
1340	0.7241
1349	0.6581
1358	0.6188
1367	0.6755
1376	0.655
1385	0.6483
1394	0.72
1403	0.6762
1412	0.4805
1421	0.3177
1430	0.5823
1439	0.3292
1448	0.5719
1457	0.6377
1466	0.3672
1475	0.2691
1484	0.4729
1493	0.6339
1502	0.6957
1511	0.5088
1520	0.1039
1529	0.4912
1538	0.7465
1547	0.7655
1556	0.7561
1565	0.7278
1574	0.6945
1583	0.6515
1592	0.6076
1601	0.5846
1610	0.4769
1619	0.4878
1628	0.4579
1637	0.3634
1646	0.2823
1655	0.1733
1664	0.0658
1673	0.0392
1682	0.0761
1691	0.2056
1700	0.4187
1709	0.6558
1718	0.8357
1727	0.9078
1736	0.9224
1745	0.9099
1754	0.9141
1763	0.9171
1772	0.9099
1781	0.9096
1790	0.9104
1799	0.8889
1808	0.893
1817	0.8992
1826	0.8918
1835	0.8818
1844	0.8795
1853	0.8601
1862	0.854
1871	0.8608
1880	0.8586
1889	0.8442
1898	0.8585
1907	0.857
1916	0.8451
1925	0.8328
1934	0.8564
1943	0.8555
1952	0.8511
1961	0.8417
1970	0.832
1979	0.8237
1988	0.8223
1997	0.8286
2006	0.8278
2015	0.8254
2024	0.8271
2033	0.8299
2042	0.823
2051	0.8155
2060	0.8083
2069	0.8015
2078	0.7951
2087	0.7887
2096	0.7831
2105	0.7783
2114	0.7801
2123	0.7795
2132	0.7751
2141	0.7691
2150	0.7637
2159	0.7583
2168	0.7528
2177	0.7475
2186	0.7421
2195	0.7368
2204	0.7317
2213	0.7264
2222	0.7211
2231	0.716
2240	0.7105
2249	0.7038
2258	0.6971
2267	0.6941
2276	0.6901
2285	0.6825
2294	0.674
2303	0.6655
2312	0.6571
2321	0.6496
2330	0.6421
2339	0.6346
2348	0.6296
2357	0.6248
2366	0.6206
2375	0.6164
2384	0.6121
2393	0.6069
2402	0.6012
2411	0.595
2420	0.5884
2429	0.581
2438	0.5709
2447	0.5603
2456	0.5488
2465	0.5362
2474	0.5209
2483	0.4994
2492	0.4974
2501	0.4989
2510	0.4877
2519	0.463
2528	0.4769
2537	0.4951
2546	0.492
2555	0.4719
2564	0.4481
2573	0.427
2582	0.4149
2591	0.411
2600	0.3945
2609	0.3879
2618	0.4041
2627	0.4318
2636	0.4371
2645	0.4398
2654	0.4435
2663	0.4428
2672	0.4312
2681	0.4303
2690	0.4366
2699	0.443
2708	0.442
2717	0.4356
2726	0.4249
2735	0.411
2744	0.4046
2753	0.4062
2762	0.4029
2771	0.399
2780	0.3968
2789	0.393
2798	0.4006
2807	0.4038
2816	0.4007
2825	0.388
2834	0.3726
2843	0.3566
2852	0.3424
2861	0.338
2870	0.34
2879	0.3428
2888	0.3447
2897	0.3464
2906	0.348
2915	0.3477
2924	0.3437
2933	0.3373
2942	0.3309
2951	0.3249
2960	0.3191
2969	0.3266
2978	0.3366
2987	0.3466
2996	0.3559
3005	0.3652
3014	0.3689
3023	0.3625
3032	0.3553
3041	0.3456
3050	0.3181
3059	0.3214
3068	0.3472
3077	0.3516
3086	0.3618
3095	0.372
3104	0.3937
3113	0.4315
3122	0.4414
3131	0.4514
3140	0.4621
3149	0.476
3158	0.4896
3167	0.5021
3176	0.5158
3185	0.5309
3194	0.5454
3203	0.5599
3212	0.5718
3221	0.5833
3230	0.5959
3239	0.6064
3248	0.6137
3257	0.6187
3266	0.6221
3275	0.6247
3284	0.626
3293	0.6273
3302	0.628
3311	0.6285
3320	0.6336
3329	0.6318
3338	0.6339
3347	0.634
3356	0.6327
3365	0.6312
3374	0.6287
3383	0.626
3392	0.623
3401	0.6198
3410	0.6168
3419	0.6142
3428	0.6115
3437	0.6089
3446	0.6062
3455	0.6038
3464	0.6012
3473	0.5986
3482	0.596
3491	0.5935
3500	0.591
3509	0.5884
3518	0.5859
3527	0.5833
3536	0.5808
3545	0.5782
3554	0.5762
3563	0.574
3572	0.5719
3581	0.5698
3590	0.5677
3599	0.5656
3608	0.5639
3617	0.5623
3626	0.5607
3635	0.5591
3644	0.5575
3653	0.5559
3662	0.5542
3671	0.5525
3680	0.5508
3689	0.5496
3698	0.5485
3707	0.5475
3716	0.5467
3725	0.546
3734	0.5454
3743	0.5407
3752	0.5354
3761	0.5306
3770	0.5273
3779	0.5256
3788	0.524
