Infrared Spectrum: Armeen DMS hydrochloride
Formula: C20 H44 Cl N
CAS: 1613-17-8
State: SEMI-SOLID (NEAT)
Class: COBLENTZ III
Instrument: PERKIN-ELMER 157
Sampling: TRANSMISSION
Resolution: 2
Origin: BRITISH PETROLEUM CO. LTD., ENGLAND
1/CM	TRANSMITTANCE
668	0.5786
677	0.5478
686	0.5007
695	0.4619
704	0.393
713	0.2551
722	0.1135
731	0.2146
740	0.3305
749	0.4157
758	0.4692
767	0.4921
776	0.5208
785	0.556
794	0.5911
803	0.5918
812	0.5767
821	0.5747
830	0.5532
839	0.5395
848	0.54
857	0.5408
866	0.5398
875	0.537
884	0.5339
893	0.5268
902	0.5299
911	0.5207
920	0.5121
929	0.4974
938	0.4669
947	0.4175
956	0.3129
965	0.1055
974	0.1191
983	0.298
992	0.3091
1001	0.234
1010	0.1772
1019	0.2195
1028	0.325
1037	0.3664
1046	0.3657
1055	0.3461
1064	0.3278
1073	0.3502
1082	0.3684
1091	0.3682
1100	0.3588
1109	0.3493
1118	0.3759
1127	0.4162
1136	0.4163
1145	0.3715
1154	0.3234
1163	0.2896
1172	0.2542
1181	0.274
1190	0.2984
1199	0.3278
1208	0.3282
1217	0.3277
1226	0.314
1235	0.3072
1244	0.3077
1253	0.3081
1262	0.3054
1271	0.2934
1280	0.2804
1289	0.2642
1298	0.2367
1307	0.2208
1316	0.2035
1325	0.1733
1334	0.2156
1343	0.2272
1352	0.2171
1361	0.1852
1370	0.1559
1379	0.1189
1388	0.1425
1397	0.1309
1406	0.1194
1415	0.0792
1424	0.0624
1433	0.0363
1442	0.0336
1451	0.0236
1460	0.0214
1469	0.0226
1478	0.0329
1487	0.0738
1496	0.1561
1505	0.2763
1514	0.3274
1523	0.3548
1532	0.3584
1541	0.3692
1550	0.3699
1559	0.3686
1568	0.3666
1577	0.3643
1586	0.3619
1595	0.3622
1604	0.366
1613	0.3789
1622	0.4104
1631	0.4257
1640	0.4281
1649	0.4168
1658	0.4067
1667	0.4004
1676	0.3674
1685	0.315
1694	0.2986
1703	0.2961
1712	0.2806
1721	0.2592
1730	0.2689
1739	0.3793
1748	0.5
1757	0.552
1766	0.595
1775	0.6159
1784	0.6327
1793	0.6508
1802	0.6664
1811	0.6802
1820	0.6854
1829	0.6879
1838	0.6888
1847	0.6893
1856	0.6894
1865	0.6893
1874	0.689
1883	0.6886
1892	0.6881
1901	0.6875
1910	0.6864
1919	0.6854
1928	0.6836
1937	0.681
1946	0.6775
1955	0.6732
1964	0.6683
1973	0.6633
1982	0.6567
1991	0.6498
2000	0.6417
2009	0.6338
2018	0.6216
2027	0.609
2036	0.6051
2045	0.6037
2054	0.6035
2063	0.6042
2072	0.6048
2081	0.606
2090	0.6075
2099	0.6076
2108	0.6056
2117	0.5968
2126	0.5737
2135	0.566
2144	0.5658
2153	0.56
2162	0.5557
2171	0.5515
2180	0.5348
2189	0.5174
2198	0.4839
2207	0.4655
2216	0.4418
2225	0.4238
2234	0.4072
2243	0.3839
2252	0.3523
2261	0.332
2270	0.2965
2279	0.2717
2288	0.2488
2297	0.2054
2306	0.1577
2315	0.1261
2324	0.0996
2333	0.0833
2342	0.067
2351	0.0486
2360	0.0286
2369	0.0213
2378	0.0167
2387	0.014
2396	0.0116
2405	0.0107
2414	0.0101
2423	0.0098
2432	0.0097
2441	0.0097
2450	0.0097
2459	0.01
2468	0.0116
2477	0.0105
2486	0.0108
2495	0.011
2504	0.0113
2513	0.0116
2522	0.0119
2531	0.0122
2540	0.0125
2549	0.0128
2558	0.0135
2567	0.0143
2576	0.0154
2585	0.0175
2594	0.02
2603	0.0201
2612	0.0202
2621	0.0217
2630	0.0217
2639	0.0229
2648	0.0243
2657	0.0257
2666	0.0272
2675	0.0286
2684	0.0301
2693	0.0316
2702	0.033
2711	0.0344
2720	0.0358
2729	0.0371
2738	0.0383
2747	0.0395
2756	0.0402
2765	0.04
2774	0.0385
2783	0.032
2792	0.0236
2801	0.0182
2810	0.0155
2819	0.0139
2828	0.0137
2837	0.0135
2846	0.0133
2855	0.0133
2864	0.0132
2873	0.0132
2882	0.0133
2891	0.0134
2900	0.0134
2909	0.0143
2918	0.0153
2927	0.0172
2936	0.0196
2945	0.0222
2954	0.0248
2963	0.0285
2972	0.0329
2981	0.0385
2990	0.0452
2999	0.0574
3008	0.0901
3017	0.1225
3026	0.1545
3035	0.1864
3044	0.2172
3053	0.236
3062	0.2484
3071	0.2591
3080	0.2686
3089	0.2986
3098	0.3352
3107	0.3501
3116	0.3627
3125	0.3797
3134	0.3976
3143	0.4245
3152	0.4488
3161	0.4642
3170	0.4787
3179	0.4897
3188	0.5002
3197	0.5123
3206	0.5251
3215	0.5352
3224	0.5445
3233	0.5516
3242	0.5555
3251	0.5591
3260	0.5614
3269	0.5637
3278	0.566
3287	0.5683
3296	0.5708
3305	0.5731
3314	0.5748
3323	0.5761
3332	0.5776
3341	0.5794
3350	0.5828
3359	0.5868
3368	0.5911
3377	0.5957
3386	0.6004
3395	0.6052
3404	0.6103
3413	0.6155
3422	0.6208
3431	0.6301
3440	0.6409
3449	0.6494
3458	0.6576
3467	0.672
3476	0.6871
3485	0.6986
3494	0.7094
3503	0.7198
3512	0.7291
3521	0.7386
3530	0.7483
3539	0.7563
3548	0.7622
3557	0.766
3566	0.7687
3575	0.7704
3584	0.7711
3593	0.7716
3602	0.772
3611	0.7725
3620	0.7729
3629	0.7733
3638	0.7736
3647	0.774
3656	0.7742
3665	0.7743
3674	0.7745
3683	0.7747
3692	0.7748
3701	0.775
3710	0.7751
3719	0.7751
3728	0.7752
3737	0.7753
3746	0.7751
3755	0.7745
3764	0.774
3773	0.7734
3782	0.773
3791	0.7723
3800	0.7713
3809	0.7699
3818	0.7685
3827	0.7662
3836	0.7638
3845	0.7612
3854	0.7582
3863	0.7559
3872	0.754
3881	0.7521
3890	0.7504
3899	0.7485
3908	0.7467
3917	0.7446
3926	0.7422
3935	0.7395
3944	0.7342
3953	0.7266
3962	0.7204
3971	0.7179
3980	0.7155
3989	0.7131
3998	0.7113
