Infrared Spectrum: CIS-1-CHLOROPROPENE
Formula: C3 H5 Cl
CAS: 16136-84-8
Class: COBLENTZ
Instrument: Not specified, most likely a prism, grating, or hybrid spectrometer.
Sampling: TRANSMISSION
Resolution: 4
Origin: W.T. BOLLETER
MICROMETERS	TRANSMITTANCE
14.508	0
14.5781	0
14.6483	0
14.7184	0
14.7885	0
14.8586	0
14.9288	0
14.9989	0.001
15.069	0.005
15.1391	0.01
15.2093	0.023
15.2794	0.046
15.3495	0.091
15.4196	0.137
15.4898	0.183
15.5599	0.248
15.63	0.301
15.7001	0.348
15.7703	0.396
15.8404	0.433
15.9105	0.469
15.9807	0.501
16.0508	0.546
16.1209	0.575
16.191	0.6
16.2612	0.619
16.3313	0.637
16.4014	0.655
16.4715	0.666
16.5417	0.669
16.6118	0.658
16.6819	0.65
16.752	0.648
16.8222	0.662
16.8923	0.691
16.9624	0.712
17.0326	0.726
17.1027	0.73
17.1728	0.726
17.2429	0.705
17.3131	0.689
17.3832	0.657
17.4533	0.605
17.5234	0.537
17.5936	0.455
17.6637	0.353
17.7338	0.23
17.8039	0.139
17.8741	0.092
17.9442	0.1
18.0143	0.191
18.0844	0.285
18.1546	0.417
18.2247	0.519
18.2948	0.612
18.365	0.675
18.4351	0.728
18.5052	0.762
18.5753	0.78
18.6455	0.801
18.7156	0.81
18.7857	0.816
18.8558	0.823
18.926	0.828
18.9961	0.837
19.0662	0.85
19.1363	0.864
19.2065	0.867
19.2766	0.873
19.3467	0.875
19.4169	0.876
19.487	0.878
19.5571	0.88
19.6272	0.88
19.6974	0.882
19.7675	0.882
19.8376	0.878
19.9077	0.876
19.9779	0.878
20.048	0.875
20.1181	0.871
20.1882	0.869
20.2584	0.867
20.3285	0.866
20.3986	0.862
20.4687	0.86
20.5389	0.858
20.609	0.857
20.6791	0.853
20.7493	0.851
20.8194	0.848
20.8895	0.844
20.9596	0.841
21.0298	0.841
21.0999	0.841
21.17	0.839
21.2401	0.839
21.3103	0.839
21.3804	0.837
21.4505	0.837
21.5206	0.835
21.5908	0.83
21.6609	0.826
21.731	0.821
21.8012	0.816
21.8713	0.812
21.9414	0.808
22.0115	0.803
22.0817	0.801
22.1518	0.801
22.2219	0.801
22.292	0.8
22.3622	0.798
22.4323	0.794
22.5024	0.791
22.5725	0.783
22.6427	0.771
22.7128	0.753
22.7829	0.739
22.853	0.717
22.9232	0.667
22.9933	0.614
23.0634	0.55
23.1336	0.475
23.2037	0.403
23.2738	0.353
23.3439	0.321
23.4141	0.31
23.4842	0.337
23.5543	0.382
23.6244	0.446
23.6946	0.491
23.7647	0.537
23.8348	0.575
23.9049	0.601
23.9751	0.612
24.0452	0.619
24.1153	0.619
24.1855	0.608
24.2556	0.598
24.3257	0.56
24.3958	0.514
24.466	0.464
24.5361	0.4
24.6062	0.339
24.6763	0.282
24.7465	0.223
24.8166	0.182
24.8867	0.167
24.9568	0.16
25.027	0.157
25.0971	0.158
25.1672	0.196
25.2373	0.25
25.3075	0.305
25.3776	0.355
25.4477	0.408
25.5179	0.476
25.588	0.505
25.6581	0.555
25.7282	0.6
25.7984	0.621
25.8685	0.65
25.9386	0.673
26.0087	0.698
26.0789	0.716
26.149	0.73
26.2191	0.744
26.2892	0.753
26.3594	0.76
26.4295	0.766
26.4996	0.771
26.5698	0.775
26.6399	0.778
26.71	0.782
26.7801	0.789
26.8503	0.803
26.9204	0.803
26.9905	0.807
27.0606	0.81
27.1308	0.814
27.2009	0.816
27.271	0.817
27.3411	0.825
27.4113	0.828
27.4814	0.832
27.5515	0.837
27.6216	0.839
27.6918	0.839
27.7619	0.839
27.832	0.841
27.9022	0.841
27.9723	0.839
28.0424	0.841
28.1125	0.839
28.1827	0.841
28.2528	0.839
28.3229	0.842
28.393	0.841
28.4632	0.841
28.5333	0.842
28.6034	0.846
28.6735	0.851
28.7437	0.855
28.8138	0.862
28.8839	0.867
28.9541	0.867
29.0242	0.875
29.0943	0.875
29.1644	0.878
29.2346	0.887
29.3047	0.891
29.3748	0.896
29.4449	0.9
29.5151	0.903
29.5852	0.903
29.6553	0.901
29.7254	0.901
29.7956	0.903
29.8657	0.905
29.9358	0.907
30.0059	0.905
30.0761	0.905
30.1462	0.903
30.2163	0.901
30.2865	0.9
30.3566	0.9
30.4267	0.9
30.4968	0.896
30.567	0.891
30.6371	0.887
30.7072	0.885
30.7773	0.883
30.8475	0.876
30.9176	0.873
30.9877	0.871
31.0578	0.864
31.128	0.866
31.1981	0.864
31.2682	0.857
31.3383	0.855
31.4085	0.851
31.4786	0.848
31.5487	0.842
31.6189	0.839
31.689	0.837
31.7591	0.832
31.8292	0.83
31.8994	0.828
31.9695	0.828
32.0396	0.83
32.1097	0.83
32.1799	0.83
32.25	0.83
32.3201	0.83
32.3902	0.83
32.4604	0.83
32.5305	0.833
32.6006	0.833
32.6708	0.832
32.7409	0.832
32.811	0.837
32.8811	0.837
32.9513	0.835
33.0214	0.828
33.0915	0.814
33.1616	0.81
33.2318	0.808
33.3019	0.803
33.372	0.8
33.4421	0.798
33.5123	0.798
33.5824	0.8
33.6525	0.798
33.7226	0.792
33.7928	0.782
33.8629	0.778
33.933	0.771
34.0032	0.766
34.0733	0.76
34.1434	0.755
34.2135	0.753
34.2837	0.755
34.3538	0.751
34.4239	0.741
34.494	0.735
34.5642	0.73
34.6343	0.726
34.7044	0.716
34.7745	0.71
34.8447	0.705
34.9148	0.7
34.9849	0.691
35.0551	0.685
35.1252	0.683
35.1953	0.682
35.2654	0.678
35.3356	0.675
35.4057	0.671
35.4758	0.669
35.5459	0.664
35.6161	0.651
35.6862	0.648
35.7563	0.644
35.8264	0.644
35.8966	0.639
35.9667	0.637
36.0368	0.633
36.1069	0.628
36.1771	0.621
36.2472	0.617
36.3173	0.616
36.3875	0.616
36.4576	0.617
36.5277	0.617
36.5978	0.614
36.668	0.612
36.7381	0.61
36.8082	0.607
36.8783	0.605
36.9485	0.603
37.0186	0.605
37.0887	0.607
37.1588	0.61
37.229	0.603
37.2991	0.6
37.3692	0.601
37.4394	0.603
37.5095	0.603
37.5796	0.603
37.6497	0.605
37.7199	0.607
37.79	0.607
37.8601	0.607
37.9302	0.605
