Infrared Spectrum: p-Chlorocinnamic acid
Formula: C 9 H 7 Cl O 2
CAS: 1615-02-7
State: gas
Instrument: HP-GC/MS/IRD
Origin: NIST Mass Spectrometry Data Center
1/CM	ABSORBANCE
550	0.0009153
562	0.0013887
574	0.0010692
586	0.0007803
598	0.0005499
610	0.0012267
622	0.0009765
634	0.0001953
646	0.0001575
658	7.74e-05
670	0.0001098
682	0.0004284
694	0.0010089
706	0.0004374
718	7.2e-05
730	6.12e-05
742	5.85e-05
754	0.0001548
766	0.0001242
778	0.0001278
790	0.0001809
802	0.0004923
814	0.0013383
826	0.0015777
838	0.0008676
850	0.0003456
862	0.0002286
874	0.0002124
886	0.0001944
898	0.0003177
910	0.0002268
922	0.00018
934	0.0003258
946	0.0004221
958	0.0003672
970	0.0007524
982	0.0009144
994	0.0004878
1006	0.0005418
1018	0.0008964
1030	0.0002034
1042	0.0001944
1054	0.0003582
1066	0.0004428
1078	0.0010098
1090	0.0047799
1102	0.0041004
1114	0.0059787
1126	0.0054522
1138	0.0028872
1150	0.0035334
1162	0.0028809
1174	0.0010323
1186	0.0007506
1198	0.0008379
1210	0.0005526
1222	0.00063
1234	0.0006786
1246	0.0006777
1258	0.0008271
1270	0.0009108
1282	0.0009612
1294	0.0009837
1306	0.0009081
1318	0.0007425
1330	0.0006957
1342	0.0012114
1354	0.0023346
1366	0.0017235
1378	0.0006435
1390	0.0004455
1402	0.0007299
1414	0.0006534
1426	0.0002295
1438	0.0001935
1450	0.0001485
1462	0.0001764
1474	0.0003636
1486	0.0017829
1498	0.0016767
1510	0.0002925
1522	0.0001539
1534	0.0001809
1546	0.0001692
1558	0.00027
1570	0.0003771
1582	0.0004644
1594	0.0008613
1606	0.000405
1618	0.0004797
1630	0.0014319
1642	0.0029583
1654	0.0009765
1666	0.0003474
1678	0.0003195
1690	0.0003213
1702	0.0004581
1714	0.0007362
1726	0.0012969
1738	0.0031194
1750	0.0074898
1762	0.0077994
1774	0.0029583
1786	0.0015759
1798	0.0010134
1810	0.0005337
1822	0.0002907
1834	0.0002025
1846	0.0001854
1858	0.0001278
1870	0.0001341
1882	0.0001665
1894	0.0001791
1906	0.0001332
1918	7.47e-05
1930	5.85e-05
1942	7.11e-05
1954	6.93e-05
1966	6.3e-05
1978	5.67e-05
1990	6.12e-05
2002	6.48e-05
2014	4.32e-05
2026	4.32e-05
2038	6.48e-05
2050	8.19e-05
2062	8.19e-05
2074	6.39e-05
2086	3.33e-05
2098	4.23e-05
2110	2.52e-05
2122	2.79e-05
2134	4.14e-05
2146	3.15e-05
2158	3.33e-05
2170	9e-06
2182	3.69e-05
2194	4.5e-05
2206	3.69e-05
2218	4.5e-05
2230	5.04e-05
2242	3.78e-05
2254	9e-06
2266	5.94e-05
2278	4.41e-05
2290	4.23e-05
2302	3.24e-05
2314	3.69e-05
2326	1.53e-05
2338	4.68e-05
2350	0
2362	4.14e-05
2374	3.33e-05
2386	3.51e-05
2398	5.49e-05
2410	6.93e-05
2422	5.22e-05
2434	1.17e-05
2446	3.96e-05
2458	2.7e-05
2470	6.3e-05
2482	2.07e-05
2494	1.71e-05
2506	3.51e-05
2518	7.56e-05
2530	6.48e-05
2542	6.12e-05
2554	6.93e-05
2566	8.64e-05
2578	4.68e-05
2590	2.97e-05
2602	3.87e-05
2614	4.68e-05
2626	5.4e-05
2638	5.85e-05
2650	1.89e-05
2662	8.1e-06
2674	4.05e-05
2686	7.56e-05
2698	8.55e-05
2710	6.39e-05
2722	4.95e-05
2734	4.86e-05
2746	1.71e-05
2758	6.03e-05
2770	6.75e-05
2782	2.79e-05
2794	6.21e-05
2806	2.07e-05
2818	4.41e-05
2830	1.35e-05
2842	5.94e-05
2854	5.4e-05
2866	6.48e-05
2878	5.67e-05
2890	1.53e-05
2902	4.41e-05
2914	6.66e-05
2926	3.6e-05
2938	5.4e-06
2950	5.76e-05
2962	5.67e-05
2974	5.76e-05
2986	6.66e-05
2998	0.0001089
3010	0.0001377
3022	0.0001008
3034	0.000225
3046	0.0002619
3058	0.0002043
3070	0.0002079
3082	0.0002538
3094	0.0002385
3106	0.0001485
3118	6.3e-05
3130	4.77e-05
3142	0.0001143
3154	6.3e-05
3166	5.04e-05
3178	9.36e-05
3190	7.56e-05
3202	4.86e-05
3214	5.22e-05
3226	7.29e-05
3238	6.39e-05
3250	7.83e-05
3262	7.11e-05
3274	2.07e-05
3286	4.23e-05
3298	1.89e-05
3310	3.24e-05
3322	8.73e-05
3334	2.25e-05
3346	4.86e-05
3358	6.12e-05
3370	0.0001143
3382	7.74e-05
3394	7.38e-05
3406	7.29e-05
3418	7.92e-05
3430	2.97e-05
3442	0.0001044
3454	1.8e-05
3466	7.47e-05
3478	8.1e-05
3490	0.0001899
3502	0.000153
3514	0.0001674
3526	0.0001449
3538	6.84e-05
3550	0.0001332
3562	0.0003042
3574	0.0017298
3586	0.0035883
3598	0.0005166
3610	0.0001971
3622	9.72e-05
3634	9.72e-05
3646	9.36e-05
3658	0.0001044
3670	0.0001395
3682	6.93e-05
3694	9.27e-05
3706	7.38e-05
3718	8.73e-05
3730	0.000153
3742	4.59e-05
3754	6.12e-05
3766	0.0001008
3778	7.02e-05
3790	2.97e-05
3802	0.0001089
3814	4.77e-05
3826	8.01e-05
3838	4.68e-05
