Infrared Spectrum: Diethyl n-decanephosphonate
Formula: C 14 H 31 O 3 P
CAS: 16165-68-7
State: gas
Origin: EPA-IR VAPOR PHASE LIBRARY
1/CM	ABSORBANCE
549.9	0.03023
559.547	0.01837
569.193	0.00874
578.84	0.00462
588.486	0.003053
598.133	0.00201
607.779	0.0015
617.426	0.00198
627.072	0.002696
636.719	0.00324
646.365	0.0038906
656.012	0.00492
665.658	0.00693
675.305	0.01095
684.951	0.01621
694.598	0.0185
704.245	0.01778
713.891	0.01733
723.538	0.01792
733.184	0.01931
742.831	0.02277
752.477	0.03006
762.124	0.0419
771.77	0.05694
781.417	0.06572
791.063	0.05959
800.71	0.05415
810.356	0.05065
820.003	0.04213
829.649	0.02858
839.296	0.01877
848.943	0.01424
858.589	0.01183
868.236	0.00925
877.882	0.00667
887.529	0.00548
897.175	0.00994
906.822	0.01911
916.468	0.03443
926.115	0.06385
935.761	0.12459
945.408	0.18467
955.054	0.16212
964.701	0.10823
974.347	0.06998
983.994	0.05
993.64	0.04594
1003.29	0.05961
1012.93	0.1008
1022.58	0.18751
1032.23	0.29437
1041.87	0.31179
1051.52	0.26647
1061.17	0.24836
1070.81	0.19136
1080.46	0.11746
1090.11	0.09596
1099.75	0.10028
1109.4	0.06753
1119.05	0.04745
1128.69	0.03809
1138.34	0.03383
1147.99	0.03268
1157.63	0.03165
1167.28	0.02948
1176.92	0.02547
1186.57	0.01677
1196.22	0.0038897
1205.86	0.00497
1215.51	0.01808
1225.16	0.02614
1234.8	0.03511
1244.45	0.05646
1254.1	0.09834
1263.74	0.13307
1273.39	0.11306
1283.04	0.08183
1292.68	0.05625
1302.33	0.03957
1311.98	0.02899
1321.62	0.02086
1331.27	0.01574
1340.92	0.01549
1350.56	0.0173
1360.21	0.01719
1369.86	0.0195
1379.5	0.01964
1389.15	0.02653
1398.79	0.02361
1408.44	0.01322
1418.09	0.00962
1427.73	0.00989
1437.38	0.01554
1447.03	0.02354
1456.67	0.03097
1466.32	0.02999
1475.97	0.01878
1485.61	0.01181
1495.26	0.00847
1504.91	0.00665
1514.55	0.00551
1524.2	0.00454
1533.85	0.0038424
1543.49	0.0034429
1553.14	0.003117
1562.79	0.002768
1572.43	0.002564
1582.08	0.0025
1591.73	0.00245
1601.37	0.0024
1611.02	0.00246
1620.67	0.002637
1630.31	0.002666
1639.96	0.002764
1649.6	0.002781
1659.25	0.002735
1668.9	0.002745
1678.54	0.002857
1688.19	0.002947
1697.84	0.002983
1707.48	0.003237
1717.13	0.0034126
1726.78	0.00352711
1736.42	0.0038033
1746.07	0.0038338
1755.72	0.0037788
1765.36	0.0036319
1775.01	0.0034689
1784.66	0.00358031
1794.3	0.00355476
1803.95	0.0037171
1813.6	0.0038091
1823.24	0.0038958
1832.89	0.0039407
1842.54	0.0039718
1852.18	0.0037829
1861.83	0.00354406
1871.47	0.003244
1881.12	0.002909
1890.77	0.00247
1900.41	0.00214
1910.06	0.00194
1919.71	0.00169
1929.35	0.00164
1939	0.00146
1948.65	0.00143
1958.29	0.00143
1967.94	0.0015
1977.59	0.00153
1987.23	0.00161
1996.88	0.00155
2006.53	0.00159
2016.17	0.00156
2025.82	0.00163
2035.47	0.00159
2045.11	0.00161
2054.76	0.00161
2064.41	0.00165
2074.05	0.00163
2083.7	0.00167
2093.35	0.00163
2102.99	0.00161
2112.64	0.00167
2122.28	0.00158
2131.93	0.00163
2141.58	0.00162
2151.22	0.00166
2160.87	0.00174
2170.52	0.00173
2180.16	0.0017
2189.81	0.00168
2199.46	0.00156
2209.1	0.00157
2218.75	0.00157
2228.4	0.00149
2238.04	0.0015
2247.69	0.00154
2257.34	0.00156
2266.98	0.00159
2276.63	0.00155
2286.28	0.00157
2295.92	0.00165
2305.57	0.0017
2315.22	0.00179
2324.86	0.00185
2334.51	0.00183
2344.16	0.0018
2353.8	0.00164
2363.45	0.00156
2373.09	0.00153
2382.74	0.0015
2392.39	0.00141
2402.03	0.00153
2411.68	0.00161
2421.33	0.00162
2430.97	0.00176
2440.62	0.00176
2450.27	0.00183
2459.91	0.00179
2469.56	0.00179
2479.21	0.00172
2488.85	0.00166
2498.5	0.00172
2508.15	0.00177
2517.79	0.00191
2527.44	0.00193
2537.09	0.00187
2546.73	0.00187
2556.38	0.00201
2566.03	0.00195
2575.67	0.00205
2585.32	0.00212
2594.96	0.0023
2604.61	0.00243
2614.26	0.0026
2623.9	0.002753
2633.55	0.002991
2643.2	0.003147
2652.84	0.003351
2662.49	0.0036241
2672.14	0.0038593
2681.78	0.0040545
2691.43	0.0040397
2701.08	0.0039176
2710.72	0.0039792
2720.37	0.0044754
2730.02	0.00506
2739.66	0.0054
2749.31	0.00563
2758.96	0.00597
2768.6	0.00664
2778.25	0.00743
2787.9	0.00826
2797.54	0.00966
2807.19	0.01162
2816.84	0.01423
2826.48	0.01821
2836.13	0.02456
2845.77	0.04062
2855.42	0.08546
2865.07	0.1219
2874.71	0.10327
2884.36	0.089
2894.01	0.08445
2903.65	0.11207
2913.3	0.16796
2922.95	0.25227
2932.59	0.34172
2942.24	0.28336
2951.89	0.19442
2961.53	0.16253
2971.18	0.13805
2980.83	0.11637
2990.47	0.0933
3000.12	0.06146
3009.77	0.04061
3019.41	0.02769
3029.06	0.019
3038.71	0.01338
3048.35	0.00986
3058	0.00761
3067.64	0.00606
3077.29	0.00501
3086.94	0.0043139
3096.58	0.0038205
3106.23	0.0036572
3115.88	0.003285
3125.52	0.003047
3135.17	0.002778
3144.82	0.002625
3154.46	0.00236
3164.11	0.00226
3173.76	0.00195
3183.4	0.0018
3193.05	0.00171
3202.7	0.00159
3212.34	0.00153
3221.99	0.00137
3231.64	0.00108
3241.28	0.00098
3250.93	0.00077
3260.58	0.0004
3270.22	0.00039
3279.87	0.00039
3289.52	0.00039
3299.16	0.00027
3308.81	0.00034
3318.45	0.00018
3328.1	0.0003
3337.75	0.00045
3347.39	0.00052
3357.04	0.00024
3366.69	0.00042
3376.33	0.00056
3385.98	0.00041
3395.63	0.00044
3405.27	0.00028
3414.92	0.00047
3424.57	0.00042
3434.21	0.00028
3443.86	0.00014
3453.51	0.00026
3463.15	0.00028
3472.8	0.00014
3482.45	0.00029
3492.09	0.00039
3501.74	0.00023
3511.39	0.00023
3521.03	0.00033
3530.68	0.00034
3540.33	0.00032
3549.97	0.00027
3559.62	0.00035
3569.26	0.00046
3578.91	0.00027
3588.56	0.00047
3598.2	0.00049
3607.85	0.00068
3617.5	0.00088
3627.14	0.00076
3636.79	0.00078
3646.44	0.00076
3656.08	0.00086
3665.73	0.00071
3675.38	0.0009
3685.02	0.00098
3694.67	0.00098
3704.32	0.00091
3713.96	0.00097
3723.61	0.00115
3733.26	0.00106
3742.9	0.0012
3752.55	0.00117
3762.2	0.00119
3771.84	0.00122
3781.49	0.0013
3791.13	0.00113
3800.78	0.0012
3810.43	0.00118
3820.07	0.00115
3829.72	0.00114
3839.37	0.00124
3849.01	0.00119
3858.66	0.00136
3868.31	0.00137
3877.95	0.00131
3887.6	0.00147
3897.25	0.0016
3906.89	0.00158
3916.54	0.00168
3926.19	0.00155
3935.83	0.00162
3945.48	0.00168
3955.13	0.00167
3964.77	0.0019
3974.42	0.00189
3984.07	0.00184
3993.71	0.00204
