Infrared Spectrum: Di-n-undecylamine
Formula: C22 H47 N
CAS: 16165-33-6
State: gas
Origin: EPA-IR VAPOR PHASE LIBRARY
1/CM	ABSORBANCE
501.5	0.0009922
513.074	0.00117
524.648	0.0008202
536.222	0.0009291
547.796	0.0008458
559.37	0.0008904
570.944	0.0008701
582.518	0.0008785
594.092	0.00101
605.666	0.00109
617.24	0.00139
628.814	0.0016
640.388	0.00206
651.962	0.00253
663.536	0.00301
675.11	0.00359
686.684	0.00399
698.258	0.00429
709.832	0.00487
721.406	0.00496
732.98	0.00412
744.554	0.00327
756.128	0.00259
767.702	0.0022
779.276	0.00177
790.85	0.00151
802.423	0.00132
813.997	0.00117
825.571	0.00112
837.145	0.00104
848.719	0.00106
860.293	0.00107
871.867	0.0011
883.441	0.00111
895.015	0.00112
906.589	0.00105
918.163	0.00103
929.737	0.00105
941.311	0.00115
952.885	0.00115
964.459	0.00112
976.033	0.0012
987.607	0.00121
999.181	0.00145
1010.76	0.00152
1022.33	0.00158
1033.9	0.00152
1045.48	0.00176
1057.05	0.00199
1068.63	0.00215
1080.2	0.00229
1091.77	0.0026
1103.35	0.00394
1114.92	0.00622
1126.49	0.00936
1138.07	0.00947
1149.64	0.00514
1161.22	0.00326
1172.79	0.00257
1184.36	0.00208
1195.94	0.00184
1207.51	0.00181
1219.09	0.00181
1230.66	0.00198
1242.23	0.00202
1253.81	0.00213
1265.38	0.00232
1276.96	0.00255
1288.53	0.00304
1300.1	0.00364
1311.68	0.00387
1323.25	0.0038
1334.83	0.00523
1346.4	0.00711
1357.97	0.0074
1369.55	0.00618
1381.12	0.00497
1392.7	0.0033
1404.27	0.00266
1415.84	0.00294
1427.42	0.00443
1438.99	0.00839
1450.57	0.01397
1462.14	0.01718
1473.71	0.01129
1485.29	0.00489
1496.86	0.00255
1508.44	0.00163
1520.01	0.00123
1531.58	0.0009962
1543.16	0.0008107
1554.73	0.0006762
1566.31	0.0006612
1577.88	0.0006024
1589.45	0.0005451
1601.03	0.0004975
1612.6	0.0005048
1624.18	0.0004689
1635.75	0.0004479
1647.32	0.0005153
1658.9	0.0005773
1670.47	0.0008562
1682.05	0.0004965
1693.62	0.0003683
1705.19	0.0003245
1716.77	0.0003151
1728.34	0.0003209
1739.92	0.0003337
1751.49	0.0003185
1763.06	0.0003212
1774.64	0.0003088
1786.21	0.000313
1797.79	0.0003616
1809.36	0.0003709
1820.93	0.0003714
1832.51	0.0003619
1844.08	0.0003685
1855.66	0.0003366
1867.23	0.000316
1878.8	0.000295
1890.38	0.0002953
1901.95	0.0002716
1913.53	0.0002682
1925.1	0.0002814
1936.67	0.0002852
1948.25	0.0002781
1959.82	0.0002914
1971.4	0.0002759
1982.97	0.0003136
1994.54	0.0003158
2006.12	0.0003605
2017.69	0.0004264
2029.27	0.0004655
2040.84	0.0004756
2052.41	0.0004427
2063.99	0.0004214
2075.56	0.0004101
2087.14	0.0003732
2098.71	0.000367
2110.28	0.0003575
2121.86	0.0003716
2133.43	0.0003971
2145.01	0.0003844
2156.58	0.0003861
2168.15	0.0004524
2179.73	0.0004178
2191.3	0.0004199
2202.88	0.0003996
2214.45	0.000396
2226.02	0.0003915
2237.6	0.0003888
2249.17	0.0004034
2260.74	0.0003989
2272.32	0.0004271
2283.89	0.0004565
2295.47	0.0004545
2307.04	0.0004848
2318.61	0.0004619
2330.19	0.0004876
2341.76	0.0004635
2353.34	0.0004709
2364.91	0.0004879
2376.48	0.0004574
2388.06	0.0005004
2399.63	0.0004763
2411.21	0.0004924
2422.78	0.0005122
2434.35	0.0004961
2445.93	0.0004663
2457.5	0.0004859
2469.08	0.000507
2480.65	0.0005223
2492.22	0.0005555
2503.8	0.0005937
2515.37	0.0006896
2526.95	0.0008031
2538.52	0.0008522
2550.09	0.0008873
2561.67	0.0009498
2573.24	0.00104
2584.82	0.00117
2596.39	0.00129
2607.96	0.00142
2619.54	0.00157
2631.11	0.00177
2642.69	0.00198
2654.26	0.00233
2665.83	0.00262
2677.41	0.00292
2688.98	0.0031
2700.56	0.00312
2712.13	0.00322
2723.7	0.00344
2735.28	0.00389
2746.85	0.0044
2758.43	0.00478
2770	0.00536
2781.57	0.00685
2793.15	0.00987
2804.72	0.01456
2816.3	0.01897
2827.87	0.01984
2839.44	0.02295
2851.02	0.04095
2862.59	0.06932
2874.17	0.05255
2885.74	0.04344
2897.31	0.04671
2908.89	0.06932
2920.46	0.11871
2932.04	0.1827
2943.61	0.1247
2955.18	0.06466
2966.76	0.05145
2978.33	0.02878
2989.91	0.01454
3001.48	0.00909
3013.05	0.00637
3024.63	0.00483
3036.2	0.00381
3047.78	0.00305
3059.35	0.00253
3070.92	0.00214
3082.5	0.00189
3094.07	0.00169
3105.65	0.00149
3117.22	0.00136
3128.79	0.00127
3140.37	0.00114
3151.94	0.00103
3163.52	0.0009663
3175.09	0.0008946
3186.66	0.0008706
3198.24	0.0007524
3209.81	0.0006649
3221.39	0.0005917
3232.96	0.0005003
3244.53	0.0005154
3256.11	0.000447
3267.68	0.0004499
3279.26	0.0004411
3290.83	0.0003491
3302.4	0.0004215
3313.98	0.0004413
3325.55	0.0003686
3337.13	0.000474
3348.7	0.0004344
3360.27	0.0004586
3371.85	0.0004173
3383.42	0.0004755
3395	0.0004086
3406.57	0.0003445
3418.14	0.0003494
3429.72	0.0003737
3441.29	0.0004028
3452.86	0.0003741
3464.44	0.0003765
3476.01	0.0003235
3487.59	0.0002704
3499.16	0.0002891
3510.73	0.0003501
3522.31	0.0003693
3533.88	0.0003845
3545.46	0.0002817
3557.03	0.0003011
3568.6	0.0003327
3580.18	0.0003615
3591.75	0.000426
3603.33	0.0004639
3614.9	0.0004589
3626.47	0.0004936
3638.05	0.0004798
3649.62	0.0005529
3661.2	0.0006252
3672.77	0.0004976
3684.34	0.0005331
3695.92	0.0005047
3707.49	0.0005303
3719.07	0.0005484
3730.64	0.0005235
3742.21	0.0005255
3753.79	0.0004957
3765.36	0.0005226
3776.94	0.0004697
3788.51	0.0004979
3800.08	0.0005206
3811.66	0.0005083
3823.23	0.0004735
3834.81	0.0005596
3846.38	0.0005153
3857.95	0.0005129
3869.53	0.0004715
3881.1	0.0005891
3892.68	0.0006223
3904.25	0.00062
3915.82	0.0006518
3927.4	0.0005527
3938.97	0.0005995
3950.55	0.0005829
3962.12	0.0006421
3973.69	0.0006938
3985.27	0.000731
3996.84	0.0007304
