Infrared Spectrum: 3-Fluoro-5-(trifluoromethyl)benzoic acid
Formula: C 8 H 4 F 4 O 2
CAS: 161622-05-5
State: gas
Origin: EPA-IR VAPOR PHASE LIBRARY
1/CM	ABSORBANCE
549.8	0.005437
559.445	0.005267
569.09	0.005927
578.734	0.011077
588.379	0.014357
598.024	0.009387
607.669	0.005077
617.313	0.002747
626.958	0.003467
636.603	0.005877
646.248	0.025657
655.893	0.019607
665.537	0.002867
675.182	0.0015234
684.827	0.003277
694.472	0.005117
704.116	0.004137
713.761	0.008617
723.406	0.005847
733.051	0.002117
742.695	0.001767
752.34	0.002827
761.985	0.007027
771.63	0.014377
781.275	0.005687
790.919	0.002457
800.564	0.0014526
810.209	0.001887
819.854	0.0012799
829.498	0.0013098
839.143	0.0015539
848.788	0.002317
858.433	0.004717
868.078	0.003777
877.722	0.003687
887.367	0.010107
897.012	0.008167
906.657	0.004887
916.301	0.004657
925.946	0.004937
935.591	0.014797
945.236	0.025487
954.88	0.015007
964.525	0.004557
974.17	0.002307
983.815	0.00158
993.46	0.001997
1003.1	0.0016807
1012.75	0.0015648
1022.39	0.002267
1032.04	0.002277
1041.68	0.002167
1051.33	0.002287
1060.97	0.003037
1070.62	0.003087
1080.26	0.007567
1089.91	0.012947
1099.55	0.015267
1109.2	0.011087
1118.84	0.011687
1128.49	0.018237
1138.13	0.043537
1147.78	0.089547
1157.42	0.112437
1167.07	0.057947
1176.71	0.068077
1186.36	0.063247
1196	0.023217
1205.64	0.013437
1215.29	0.025427
1224.93	0.043707
1234.58	0.028057
1244.22	0.015347
1253.87	0.012767
1263.51	0.010147
1273.16	0.011377
1282.8	0.014867
1292.45	0.020607
1302.09	0.036057
1311.74	0.055077
1321.38	0.030047
1331.03	0.015277
1340.67	0.014987
1350.32	0.024727
1359.96	0.030717
1369.61	0.025227
1379.25	0.033477
1388.9	0.033857
1398.54	0.013607
1408.18	0.006137
1417.83	0.005087
1427.47	0.005667
1437.12	0.008527
1446.76	0.015037
1456.41	0.018797
1466.05	0.014787
1475.7	0.006587
1485.34	0.003747
1494.99	0.002507
1504.63	0.002327
1514.28	0.001837
1523.92	0.0015674
1533.57	0.0016955
1543.21	0.001489
1552.86	0.0015493
1562.5	0.001827
1572.15	0.002267
1581.79	0.003357
1591.44	0.005917
1601.08	0.010477
1610.73	0.010087
1620.37	0.005817
1630.01	0.004177
1639.66	0.002937
1649.3	0.002427
1658.95	0.0015562
1668.59	0.0015287
1678.24	0.001737
1687.88	0.0015858
1697.53	0.0016364
1707.17	0.002497
1716.82	0.005007
1726.46	0.005477
1736.11	0.004387
1745.75	0.006867
1755.4	0.024087
1765.04	0.078427
1774.69	0.061267
1784.33	0.012327
1793.98	0.005657
1803.62	0.005647
1813.27	0.006937
1822.91	0.004907
1832.55	0.002087
1842.2	0.0014555
1851.84	0.0011795
1861.49	0.0011078
1871.13	0.0009382
1880.78	0.0011051
1890.42	0.0012825
1900.07	0.0010417
1909.71	0.0008939
1919.36	0.00075791
1929	0.0008206
1938.65	0.0006495
1948.29	0.00078352
1957.94	0.00072551
1967.58	0.00072996
1977.23	0.0009922
1986.87	0.0008025
1996.52	0.0008069
2006.16	0.0008182
2015.81	0.0010175
2025.45	0.0009944
2035.1	0.0008109
2044.74	0.0008281
2054.38	0.0007981
2064.03	0.000706054
2073.67	0.0008011
2083.32	0.0009407
2092.96	0.0010053
2102.61	0.0011717
2112.25	0.0007922
2121.9	0.00073258
2131.54	0.000799
2141.19	0.0006635
2150.83	0.00075303
2160.48	0.0006958
2170.12	0.0010983
2179.77	0.0008409
2189.41	0.000558
2199.06	0.0008604
2208.7	0.0009111
2218.35	0.0008121
2227.99	0.00078907
2237.64	0.000849
2247.28	0.00076804
2256.92	0.00079243
2266.57	0.000827
2276.21	0.00078983
2285.86	0.0008219
2295.5	0.00075808
2305.15	0.001094
2314.79	0.001093
2324.44	0.0008905
2334.08	0.00076866
2343.73	0.00075884
2353.37	0.0007982
2363.02	0.0008412
2372.66	0.000751
2382.31	0.0006603
2391.95	0.0006527
2401.6	0.0008013
2411.24	0.00075499
2420.89	0.000905
2430.53	0.00075222
2440.18	0.000457
2449.82	0.000485
2459.47	0.00071187
2469.11	0.00071434
2478.75	0.000591
2488.4	0.0006602
2498.04	0.000864
2507.69	0.000369
2517.33	0.000495
2526.98	0.000476
2536.62	0.0006567
2546.27	0.0010448
2555.91	0.0008659
2565.56	0.000597
2575.2	0.000499
2584.85	0.000428
2594.49	0.000344
2604.14	0.000597
2613.78	0.00071986
2623.43	0.0006496
2633.07	0.000494
2642.72	0.0006626
2652.36	0.000544
2662.01	0.000549
2671.65	0.000591
2681.29	0.00071277
2690.94	0.000576
2700.58	0.000503
2710.23	0.000671
2719.87	0.0006517
2729.52	0.000301
2739.16	0.0006334
2748.81	0.000465
2758.45	0.00034
2768.1	0.0006179
2777.74	0.000981
2787.39	0.000663
2797.03	0.00046
2806.68	0.000324
2816.32	0.0006103
2825.97	0.0004
2835.61	0.0006654
2845.26	0.0006734
2854.9	0.0008917
2864.55	0.000506
2874.19	0.00074275
2883.84	0.0010247
2893.48	0.000353
2903.12	0.0007649
2912.77	0.000464
2922.41	0.00077063
2932.06	0.000529
2941.7	0.0009519
2951.35	0.00055
2960.99	0.000352
2970.64	0.00069066
2980.28	0.000387
2989.93	0.00076454
2999.57	0.000496
3009.22	0.00075998
3018.86	0.0006085
3028.51	0.000508
3038.15	0.00035
3047.8	0.0006844
3057.44	0.000594
3067.09	0.00078879
3076.73	0.0012081
3086.38	0.0014279
3096.02	0.0016674
3105.67	0.0012432
3115.31	0.000449
3124.95	0.000521
3134.6	0.0006372
3144.24	0.000606
3153.89	0.000559
3163.53	0.000374
3173.18	0.0010889
3182.82	0.0006397
3192.47	0.000535
3202.11	0.000443
3211.76	0.00071816
3221.4	0.0006023
3231.05	0.0008327
3240.69	0.0009296
3250.34	0.000273
3259.98	0.0006296
3269.63	0.000671
3279.27	0.00053
3288.92	0.000526
3298.56	0.0009715
3308.21	0.0009755
3317.85	0.0008513
3327.49	0.0006696
3337.14	0.000881
3346.78	0.000701119
3356.43	0.000399
3366.07	0.00070726
3375.72	0.000276
3385.36	0.0011804
3395.01	0.0006019
3404.65	0.0006418
3414.3	0.0006822
3423.94	0.000279
3433.59	0.000499
3443.23	0.0009562
3452.88	0.000461
3462.52	0.0006528
3472.17	0.0007293
3481.81	0.00071493
3491.46	0.000973
3501.1	0.0011913
3510.75	0.0013335
3520.39	0.0016778
3530.04	0.0011597
3539.68	0.0015036
3549.32	0.0010192
3558.97	0.002147
3568.61	0.008517
3578.26	0.029207
3587.9	0.024507
3597.55	0.003497
3607.19	0.0012493
3616.84	0.0012
3626.48	0.0010714
3636.13	0.000419
3645.77	0.0008383
3655.42	0.0006555
3665.06	0.00071251
3674.71	0.000267
3684.35	0.001235
3694	0.0009983
3703.64	0.0008839
3713.29	0.0006398
3722.93	0.0006797
3732.58	0.0009278
3742.22	0.00070927
3751.86	0.0009288
3761.51	0.0008343
3771.15	0.0012295
3780.8	5.4e-05
3790.44	0.00074691
3800.09	0.000578
3809.73	0.0006831
3819.38	0.000499
3829.02	0.000428
3838.67	0.0009939
3848.31	0.000606
3857.96	0.000565
3867.6	0.00076136
3877.25	0.00077259
3886.89	0.00077914
3896.54	0.0009373
3906.18	0.0006392
3915.83	0.0010629
3925.47	0.000276
3935.12	0.0011277
3944.76	0.0009518
3954.41	0.00076042
3964.05	0.000769
3973.69	0.0013104
3983.34	0.0010918
3992.98	0.00079383
