Infrared Spectrum: 2,3,4-Trifluorobenzaldehyde
Formula: C 7 H 3 F 3 O
CAS: 161793-17-5
State: gas
Origin: EPA-IR VAPOR PHASE LIBRARY
1/CM	ABSORBANCE
549.8	0.00315
559.445	0.00157
569.09	0.001978
578.734	0.0021183
588.379	0.003
598.024	0.00376
607.669	0.0022789
617.313	0.00254
626.958	0.0022554
636.603	0.00401
646.248	0.00376
655.893	0.00385
665.537	0.00342
675.182	0.00327
684.827	0.00251
694.472	0.0021763
704.116	0.0022836
713.761	0.00443
723.406	0.0041
733.051	0.0021576
742.695	0.00283
752.34	0.00259
761.985	0.00368
771.63	0.01018
781.275	0.0116
790.919	0.00618
800.564	0.00733
810.209	0.00874
819.854	0.00718
829.498	0.00314
839.143	0.00238
848.788	0.0016063
858.433	0.000976
868.078	0.0022946
877.722	0.001994
887.367	0.0017546
897.012	0.0018155
906.657	0.0015647
916.301	0.0019833
925.946	0.0020806
935.591	0.00295
945.236	0.00308
954.88	0.0031
964.525	0.0016978
974.17	0.0016894
983.815	0.00243
993.46	0.0014832
1003.1	0.0021336
1012.75	0.00485
1022.39	0.00803
1032.04	0.01997
1041.68	0.02538
1051.33	0.01662
1060.97	0.00804
1070.62	0.00637
1080.26	0.00406
1089.91	0.000791
1099.55	0.0019261
1109.2	0.0017154
1118.84	0.0017382
1128.49	0.00461
1138.13	0.00297
1147.78	0.00748
1157.42	0.01277
1167.07	0.01156
1176.71	0.00401
1186.36	0.00289
1196	0.00441
1205.64	0.00521
1215.29	0.00579
1224.93	0.00576
1234.58	0.00646
1244.22	0.00688
1253.87	0.01378
1263.51	0.01923
1273.16	0.01929
1282.8	0.02158
1292.45	0.02564
1302.09	0.03771
1311.74	0.03381
1321.38	0.01046
1331.03	0.00471
1340.67	0.00344
1350.32	0.00318
1359.96	0.00245
1369.61	0.0022212
1379.25	0.00288
1388.9	0.00636
1398.54	0.00879
1408.18	0.00724
1417.83	0.00364
1427.47	0.00272
1437.12	0.00339
1446.76	0.00482
1456.41	0.0084
1466.05	0.01737
1475.7	0.0247
1485.34	0.02229
1494.99	0.01552
1504.63	0.02696
1514.28	0.03346
1523.92	0.01817
1533.57	0.00677
1543.21	0.00499
1552.86	0.00436
1562.5	0.00566
1572.15	0.00784
1581.79	0.00891
1591.44	0.01006
1601.08	0.01475
1610.73	0.02083
1620.37	0.02549
1630.01	0.01972
1639.66	0.0099
1649.3	0.00526
1658.95	0.00428
1668.59	0.00432
1678.24	0.00401
1687.88	0.00588
1697.53	0.0134
1707.17	0.0289
1716.82	0.03183
1726.46	0.02431
1736.11	0.01861
1745.75	0.0076
1755.4	0.00426
1765.04	0.00298
1774.69	0.00239
1784.33	0.0021433
1793.98	0.00243
1803.62	0.0022831
1813.27	0.0017956
1822.91	0.0017323
1832.55	0.001814
1842.2	0.0014189
1851.84	0.0018377
1861.49	0.0016942
1871.13	0.0015265
1880.78	0.0016904
1890.42	0.0021041
1900.07	0.001837
1909.71	0.0017691
1919.36	0.0015491
1929	0.001436
1938.65	0.0016325
1948.29	0.0017547
1957.94	0.0014977
1967.58	0.0018298
1977.23	0.0015668
1986.87	0.0017513
1996.52	0.0017084
2006.16	0.0015805
2015.81	0.001411
2025.45	0.0017258
2035.1	0.0015591
2044.74	0.001279
2054.38	0.00135997
2064.03	0.0012793
2073.67	0.0014806
2083.32	0.001007
2092.96	0.0014348
2102.61	0.0014626
2112.25	0.0014324
2121.9	0.001067
2131.54	0.000993
2141.19	0.0014606
2150.83	0.0013684
2160.48	0.001191
2170.12	0.0015567
2179.77	0.0017553
2189.41	0.00138646
2199.06	0.0017337
2208.7	0.0014909
2218.35	0.00129577
2227.99	0.001134
2237.64	0.001047
2247.28	0.001156
2256.92	0.001133
2266.57	0.00132603
2276.21	0.00136815
2285.86	0.00133356
2295.5	0.0016282
2305.15	0.0016108
2314.79	0.00130324
2324.44	0.0012165
2334.08	0.001149
2343.73	0.001045
2353.37	0.00136395
2363.02	0.000964
2372.66	0.000867
2382.31	0.001014
2391.95	0.00108
2401.6	0.001072
2411.24	0.001008
2420.89	0.0012315
2430.53	0.000896
2440.18	0.001066
2449.82	0.001957
2459.47	0.0017892
2469.11	0.0015363
2478.75	0.0012892
2488.4	0.001714
2498.04	0.000976
2507.69	0.0015727
2517.33	0.0014242
2526.98	0.001211
2536.62	0.0014718
2546.27	0.0017078
2555.91	0.0015639
2565.56	0.00134796
2575.2	0.0019675
2584.85	0.0016073
2594.49	0.0014393
2604.14	0.0015884
2613.78	0.001189
2623.43	0.001119
2633.07	0.00111
2642.72	0.0012705
2652.36	0.0012675
2662.01	0.0014802
2671.65	0.001183
2681.29	0.001129
2690.94	0.001432
2700.58	0.0019343
2710.23	0.0017975
2719.87	0.00244
2729.52	0.0022952
2739.16	0.0019074
2748.81	0.002049
2758.45	0.00364
2768.1	0.0043
2777.74	0.00281
2787.39	0.0018725
2797.03	0.00134247
2806.68	0.0018343
2816.32	0.00236
2825.97	0.00288
2835.61	0.0019992
2845.26	0.0039
2854.9	0.00697
2864.55	0.00797
2874.19	0.00564
2883.84	0.00411
2893.48	0.00258
2903.12	0.0015298
2912.77	0.001109
2922.41	0.0017759
2932.06	0.0015283
2941.7	0.0017662
2951.35	0.001034
2960.99	0.00139816
2970.64	0.000855
2980.28	0.000894
2989.93	0.000817
2999.57	0.0011
3009.22	0.000916
3018.86	0.000927
3028.51	0.001459
3038.15	0.0021633
3047.8	0.0015028
3057.44	0.000927
3067.09	0.001139
3076.73	0.0017316
3086.38	0.000937
3096.02	0.0018743
3105.67	0.001182
3115.31	0.0014157
3124.95	0.00132904
3134.6	0.0012741
3144.24	0.000609
3153.89	0.000924
3163.53	0.001146
3173.18	0.00117
3182.82	0.0019705
3192.47	0.0017057
3202.11	0.000814
3211.76	0.000496
3221.4	0.0018988
3231.05	0.0012482
3240.69	0.0014146
3250.34	0.00130345
3259.98	0.000933
3269.63	0.001
3279.27	0.000448
3288.92	0.00133559
3298.56	0.001192
3308.21	0.0011
3317.85	0.0018158
3327.49	0.0017861
3337.14	0.0016507
3346.78	0.000947
3356.43	0.0014882
3366.07	0.00071
3375.72	0.000816
3385.36	0.0012675
3395.01	0.0021479
3404.65	0.0021901
3414.3	0.0022578
3423.94	0.0019898
3433.59	0.001082
3443.23	0.00130204
3452.88	0.001068
3462.52	0.0014249
3472.17	0.0016243
3481.81	0.000563
3491.46	0.0017001
3501.1	0.001108
3510.75	0.0019481
3520.39	0.0012759
3530.04	0.000507
3539.68	0.001716
3549.32	0.0016696
3558.97	0.0016262
3568.61	0.00139396
3578.26	0.00134676
3587.9	0.000882
3597.55	0.0020213
3607.19	0.00137652
3616.84	0.001229
3626.48	0.0020845
3636.13	0.001061
3645.77	0.0020149
3655.42	0.0012748
3665.06	0.0014034
3674.71	0.0015654
3684.35	0.0014062
3694	0.0015055
3703.64	0.0012666
3713.29	0.001019
3722.93	0.001199
3732.58	0.00116
3742.22	0.000911
3751.86	0.0012765
3761.51	0.001068
3771.15	0.0012003
3780.8	0.000685
3790.44	0.000928
3800.09	0.0012889
3809.73	0.000991
3819.38	0.000773
3829.02	0.0017053
3838.67	0.0018581
3848.31	0.00029
3857.96	0.000713
3867.6	0.001115
3877.25	0.000596
3886.89	0.000904
3896.54	0.0019015
3906.18	0.0015857
3915.83	0.0015626
3925.47	0.0012083
3935.12	0.0014772
3944.76	0.00082
3954.41	0.0017436
3964.05	0.0018431
3973.69	0.001167
3983.34	0.0014052
3992.98	0.0014709
