Infrared Spectrum: N-CYCLOHEXYL-2-BENZOTHIAZOLE SULFONAMIDE
Formula: C13 H16 N2 O2 S2
CAS: 16170-33-5
State: SOLID (MINERAL OIL MULL)
Class: COBLENTZ
Instrument: Not specified, most likely a prism, grating, or hybrid spectrometer.
Sampling: TRANSMISSION
Resolution: 4
Origin: WYANDOTTE CHEMICALS CORP., WYANDOTTE, MICHIGAN, USA
MICROMETERS	TRANSMITTANCE
2.014	0.133
2.05489	0.14
2.09579	0.147
2.13668	0.15
2.17757	0.152
2.21847	0.16
2.25936	0.16
2.30026	0.167
2.34115	0.178
2.38204	0.188
2.42294	0.2
2.46383	0.2
2.50472	0.207
2.54562	0.215
2.58651	0.224
2.6274	0.229
2.6683	0.246
2.70919	0.255
2.75009	0.263
2.79098	0.27
2.83187	0.275
2.87277	0.273
2.91366	0.277
2.95455	0.284
2.99545	0.301
3.03634	0.315
3.07724	0.289
3.11813	0.155
3.15902	0.19
3.19992	0.224
3.24081	0.241
3.2817	0.222
3.3226	0.174
3.36349	0.039
3.40438	0.023
3.44528	0.029
3.48617	0.041
3.52707	0.113
3.56796	0.368
3.60885	0.404
3.64975	0.419
3.69064	0.419
3.73153	0.431
3.77243	0.434
3.81332	0.455
3.85421	0.46
3.89511	0.47
3.936	0.491
3.9769	0.501
4.01779	0.508
4.05868	0.513
4.09958	0.522
4.14047	0.532
4.18136	0.537
4.22226	0.542
4.26315	0.541
4.30404	0.547
4.34494	0.561
4.38583	0.585
4.42673	0.599
4.46762	0.597
4.50851	0.606
4.54941	0.609
4.5903	0.621
4.63119	0.628
4.67209	0.635
4.71298	0.642
4.75388	0.655
4.79477	0.659
4.83566	0.659
4.87656	0.669
4.91745	0.672
4.95834	0.674
4.99924	0.683
5.04013	0.7
5.08102	0.703
5.12192	0.71
5.16281	0.719
5.20371	0.717
5.2446	0.724
5.28549	0.731
5.32639	0.729
5.36728	0.744
5.40817	0.744
5.44907	0.753
5.48996	0.76
5.53085	0.76
5.57175	0.767
5.61264	0.779
5.65354	0.755
5.69443	0.78
5.73532	0.777
5.77622	0.791
5.81711	0.785
5.858	0.782
5.8989	0.785
5.93979	0.779
5.98068	0.791
6.02158	0.785
6.06247	0.794
6.10337	0.792
6.14426	0.78
6.18515	0.775
6.22605	0.782
6.26694	0.782
6.30783	0.787
6.34873	0.78
6.38962	0.755
6.43052	0.748
6.47141	0.748
6.5123	0.773
6.5532	0.791
6.59409	0.809
6.63498	0.821
6.67588	0.816
6.71677	0.78
6.75766	0.618
6.79856	0.125
6.83945	0.075
6.88035	0.135
6.92124	0.248
6.96213	0.236
7.00303	0.145
7.04392	0.414
7.08481	0.535
7.12571	0.587
7.1666	0.595
7.20749	0.53
7.24839	0.383
7.28928	0.494
7.33018	0.539
7.37107	0.628
7.41196	0.587
7.45286	0.648
7.49375	0.702
7.53464	0.743
7.57554	0.75
7.61643	0.611
7.65732	0.662
7.69822	0.736
7.73911	0.767
7.78001	0.773
7.8209	0.751
7.86179	0.643
7.90269	0.702
7.94358	0.65
7.98447	0.732
8.02537	0.77
8.06626	0.604
8.10716	0.601
8.14805	0.729
8.18894	0.758
8.22984	0.787
8.27073	0.801
8.31162	0.809
8.35252	0.816
8.39341	0.806
8.4343	0.732
8.4752	0.78
8.51609	0.779
8.55699	0.751
8.59788	0.731
8.63877	0.768
8.67967	0.803
8.72056	0.787
8.76145	0.791
8.80235	0.83
8.84324	0.811
8.88413	0.823
8.92503	0.852
8.96592	0.857
9.00682	0.871
9.04771	0.876
9.0886	0.849
9.1295	0.765
9.17039	0.736
9.21128	0.594
9.25218	0.645
9.29307	0.599
9.33396	0.525
9.37486	0.467
9.41575	0.669
9.45665	0.755
9.49754	0.75
9.53843	0.748
9.57933	0.799
9.62022	0.797
9.66111	0.763
9.70201	0.681
9.7429	0.416
9.7838	0.45
9.82469	0.686
9.86558	0.417
9.90648	0.373
9.94737	0.577
9.98826	0.69
10.0292	0.732
10.0701	0.772
10.1109	0.792
10.1518	0.797
10.1927	0.796
10.2336	0.779
10.2745	0.71
10.3154	0.643
10.3563	0.732
10.3972	0.789
10.4381	0.813
10.479	0.82
10.5199	0.833
10.5608	0.849
10.6017	0.851
10.6426	0.845
10.6835	0.844
10.7243	0.804
10.7652	0.7
10.8061	0.818
10.847	0.82
10.8879	0.809
10.9288	0.768
10.9697	0.727
11.0106	0.77
11.0515	0.816
11.0924	0.852
11.1333	0.88
11.1742	0.863
11.2151	0.782
11.256	0.625
11.2969	0.739
11.3378	0.842
11.3786	0.875
11.4195	0.868
11.4604	0.828
11.5013	0.758
11.5422	0.734
11.5831	0.768
11.624	0.816
11.6649	0.835
11.7058	0.852
11.7467	0.808
11.7876	0.794
11.8285	0.849
11.8694	0.866
11.9103	0.863
11.9512	0.839
11.9921	0.866
12.0329	0.9
12.0738	0.912
12.1147	0.917
12.1556	0.919
12.1965	0.921
12.2374	0.922
12.2783	0.924
12.3192	0.926
12.3601	0.928
12.401	0.928
12.4419	0.933
12.4828	0.931
12.5237	0.929
12.5646	0.917
12.6055	0.924
12.6464	0.934
12.6872	0.934
12.7281	0.929
12.769	0.931
12.8099	0.933
12.8508	0.934
12.8917	0.931
12.9326	0.926
12.9735	0.907
13.0144	0.895
13.0553	0.861
13.0962	0.804
13.1371	0.782
13.178	0.736
13.2189	0.607
13.2598	0.335
13.3006	0.138
13.3415	0.325
13.3824	0.589
13.4233	0.743
13.4642	0.818
13.5051	0.832
13.546	0.852
13.5869	0.864
13.6278	0.868
13.6687	0.866
13.7096	0.837
13.7505	0.7
13.7914	0.393
13.8323	0.359
13.8732	0.58
13.9141	0.703
13.9549	0.77
13.9958	0.816
14.0367	0.849
14.0776	0.863
14.1185	0.875
14.1594	0.883
14.2003	0.883
14.2412	0.857
14.2821	0.851
14.323	0.856
14.3639	0.873
14.4048	0.881
14.4457	0.869
14.4866	0.869
14.5275	0.854
14.5684	0.849
14.6092	0.837
14.6501	0.823
14.691	0.811
14.7319	0.796
14.7728	0.761
14.8137	0.714
14.8546	0.659
14.8955	0.626
14.9364	0.625
14.9773	0.643
15.0182	0.645
15.0591	0.625
15.1	0.631
15.1409	0.676
15.1818	0.69
15.2227	0.678
15.2635	0.657
15.3044	0.64
15.3453	0.625
15.3862	0.611
15.4271	0.597
15.468	0.58
15.5089	0.565
15.5498	0.559
15.5907	0.553
15.6316	0.546
15.6725	0.537
15.7134	0.525
15.7543	0.52
15.7952	0.508
15.8361	0.494
15.877	0.484
15.9178	0.472
15.9587	0.465
