Infrared Spectrum: 2-(p-CHLOROPHENYL)-1(2H)-PHTHALAZONE
Formula: C14 H9 Cl N2 O
CAS: 161716-23-0
State: SOLID (MINERAL OIL MULL)
Class: COBLENTZ
Instrument: Not specified, most likely a prism, grating, or hybrid spectrometer.
Sampling: TRANSMISSION
Resolution: 4
Origin: DOW CHEMICAL COMPANY
MICROMETERS	TRANSMITTANCE
2.027	0.311
2.0681	0.323
2.1092	0.328
2.1503	0.333
2.19139	0.34
2.23249	0.339
2.27359	0.337
2.31469	0.34
2.35579	0.349
2.39689	0.356
2.43799	0.371
2.47908	0.388
2.52018	0.4
2.56128	0.407
2.60238	0.414
2.64348	0.426
2.68458	0.428
2.72567	0.434
2.76677	0.438
2.80787	0.441
2.84897	0.443
2.89007	0.45
2.93117	0.453
2.97227	0.453
3.01336	0.465
3.05446	0.47
3.09556	0.472
3.13666	0.474
3.17776	0.474
3.21886	0.474
3.25996	0.441
3.30105	0.421
3.34215	0.261
3.38325	0.037
3.42435	0.027
3.46545	0.056
3.50655	0.191
3.54765	0.489
3.58874	0.541
3.62984	0.57
3.67094	0.561
3.71204	0.575
3.75314	0.582
3.79424	0.592
3.83533	0.602
3.87643	0.619
3.91753	0.635
3.95863	0.643
3.99973	0.652
4.04083	0.66
4.08193	0.667
4.12302	0.679
4.16412	0.688
4.20522	0.69
4.24632	0.693
4.28742	0.702
4.32852	0.71
4.36962	0.712
4.41071	0.714
4.45181	0.722
4.49291	0.731
4.53401	0.734
4.57511	0.736
4.61621	0.744
4.65731	0.75
4.6984	0.755
4.7395	0.76
4.7806	0.767
4.8217	0.772
4.8628	0.777
4.9039	0.78
4.945	0.787
4.98609	0.794
5.02719	0.797
5.06829	0.797
5.10939	0.803
5.15049	0.806
5.19159	0.808
5.23268	0.811
5.27378	0.821
5.31488	0.816
5.35598	0.808
5.39708	0.809
5.43818	0.832
5.47928	0.837
5.52037	0.842
5.56147	0.844
5.60257	0.845
5.64367	0.851
5.68477	0.842
5.72587	0.845
5.76697	0.832
5.80806	0.839
5.84916	0.842
5.89026	0.818
5.93136	0.731
5.97246	0.431
6.01356	0.292
6.05466	0.412
6.09575	0.621
6.13685	0.695
6.17795	0.738
6.21905	0.707
6.26015	0.621
6.30125	0.71
6.34234	0.797
6.38344	0.827
6.42454	0.835
6.46564	0.849
6.50674	0.852
6.54784	0.864
6.58894	0.864
6.63003	0.806
6.67113	0.65
6.71223	0.357
6.75333	0.452
6.79443	0.308
6.83553	0.205
6.87663	0.246
6.91772	0.443
6.95882	0.606
6.99992	0.714
7.04102	0.77
7.08212	0.739
7.12322	0.741
7.16432	0.772
7.20541	0.606
7.24651	0.465
7.28761	0.517
7.32871	0.58
7.36981	0.621
7.41091	0.623
7.452	0.489
7.4931	0.299
7.5342	0.457
7.5753	0.501
7.6164	0.631
7.6575	0.659
7.6986	0.69
7.73969	0.739
7.78079	0.715
7.82189	0.744
7.86299	0.779
7.90409	0.806
7.94519	0.827
7.98629	0.832
8.02738	0.744
8.06848	0.722
8.10958	0.82
8.15068	0.833
8.19178	0.823
8.23288	0.835
8.27398	0.849
8.31507	0.861
8.35617	0.869
8.39727	0.869
8.43837	0.854
8.47947	0.833
8.52057	0.804
8.56167	0.763
8.60276	0.782
8.64386	0.828
8.68496	0.827
8.72606	0.785
8.76716	0.65
8.80826	0.547
8.84935	0.611
8.89045	0.758
8.93155	0.78
8.97265	0.828
9.01375	0.861
9.05485	0.845
9.09595	0.775
9.13704	0.595
9.17814	0.554
9.21924	0.714
9.26034	0.758
9.30144	0.809
9.34254	0.835
9.38364	0.851
9.42473	0.785
9.46583	0.748
9.50693	0.847
9.54803	0.857
9.58913	0.873
9.63023	0.888
9.67133	0.897
9.71242	0.875
9.75352	0.773
9.79462	0.791
9.83572	0.732
9.87682	0.672
9.91792	0.823
9.95901	0.849
10.0001	0.868
10.0412	0.875
10.0823	0.859
10.1234	0.881
10.1645	0.895
10.2056	0.9
10.2467	0.898
10.2878	0.873
10.3289	0.815
10.37	0.83
10.4111	0.89
10.4522	0.892
10.4933	0.895
10.5344	0.914
10.5755	0.929
10.6166	0.931
10.6577	0.919
10.6988	0.876
10.7399	0.803
10.781	0.691
10.8221	0.613
10.8632	0.561
10.9043	0.578
10.9454	0.657
10.9865	0.712
11.0276	0.808
11.0687	0.854
11.1098	0.883
11.1509	0.897
11.192	0.907
11.2331	0.912
11.2742	0.919
11.3153	0.91
11.3564	0.902
11.3975	0.905
11.4386	0.916
11.4797	0.845
11.5208	0.743
11.5619	0.808
11.603	0.89
11.6441	0.917
11.6852	0.922
11.7263	0.924
11.7673	0.922
11.8084	0.919
11.8495	0.912
11.8906	0.9
11.9317	0.886
11.9728	0.857
12.0139	0.797
12.055	0.659
12.0961	0.561
12.1372	0.643
12.1783	0.693
12.2194	0.515
12.2605	0.414
12.3016	0.66
12.3427	0.857
12.3838	0.857
12.4249	0.777
12.466	0.768
12.5071	0.895
12.5482	0.929
12.5893	0.898
12.6304	0.806
12.6715	0.837
12.7126	0.928
12.7537	0.948
12.7948	0.95
12.8359	0.948
12.877	0.938
12.9181	0.924
12.9592	0.91
13.0003	0.88
13.0414	0.816
13.0825	0.693
13.1236	0.534
13.1647	0.426
13.2058	0.518
13.2469	0.717
13.288	0.83
13.3291	0.83
13.3702	0.83
13.4113	0.875
13.4524	0.893
13.4935	0.893
13.5346	0.883
13.5757	0.871
13.6168	0.866
13.6579	0.856
13.699	0.835
13.7401	0.801
13.7812	0.714
13.8223	0.587
13.8634	0.518
13.9045	0.609
13.9456	0.732
13.9867	0.789
14.0278	0.818
14.0689	0.83
14.11	0.821
14.1511	0.803
14.1922	0.796
14.2333	0.801
14.2744	0.806
14.3155	0.808
14.3566	0.794
14.3977	0.777
14.4388	0.753
14.4799	0.708
14.521	0.648
14.562	0.573
14.6031	0.494
14.6442	0.452
14.6853	0.465
14.7264	0.53
14.7675	0.611
14.8086	0.667
14.8497	0.7
14.8908	0.708
14.9319	0.71
14.973	0.71
15.0141	0.714
15.0552	0.714
15.0963	0.707
15.1374	0.695
15.1785	0.688
15.2196	0.681
15.2607	0.671
15.3018	0.664
15.3429	0.655
15.384	0.647
15.4251	0.64
15.4662	0.636
15.5073	0.621
15.5484	0.606
15.5895	0.59
15.6306	0.58
15.6717	0.568
15.7128	0.561
15.7539	0.554
15.795	0.551
15.8361	0.544
15.8772	0.541
15.9183	0.541
