Infrared Spectrum: Ethoxycarbonyl isothiocyanate
Formula: C 4 H 5 N O 2 S
CAS: 16182-04-0
State: gas
Origin: EPA-IR VAPOR PHASE LIBRARY
1/CM	ABSORBANCE
549.8	0.001455
559.445	0.001425
569.09	0.001635
578.734	0.002655
588.379	0.003035
598.024	0.004545
607.669	0.005105
617.313	0.006765
626.958	0.008495
636.603	0.010405
646.248	0.011335
655.893	0.009545
665.537	0.006845
675.182	0.005165
684.827	0.005165
694.472	0.005795
704.116	0.007025
713.761	0.009135
723.406	0.012595
733.051	0.017565
742.695	0.024105
752.34	0.030635
761.985	0.035435
771.63	0.039155
781.275	0.038385
790.919	0.034005
800.564	0.029185
810.209	0.025825
819.854	0.027085
829.498	0.029965
839.143	0.024825
848.788	0.017285
858.433	0.014405
868.078	0.013635
877.722	0.011785
887.367	0.009425
897.012	0.007825
906.657	0.006905
916.301	0.006265
925.946	0.005435
935.591	0.004975
945.236	0.004795
954.88	0.004875
964.525	0.004895
974.17	0.005055
983.815	0.006015
993.46	0.007765
1003.1	0.009035
1012.75	0.010435
1022.39	0.012035
1032.04	0.017205
1041.68	0.032615
1051.33	0.073965
1060.97	0.153085
1070.62	0.209535
1080.26	0.185775
1089.91	0.136785
1099.55	0.098265
1109.2	0.054395
1118.84	0.028875
1128.49	0.024295
1138.13	0.025435
1147.78	0.030645
1157.42	0.037535
1167.07	0.048305
1176.71	0.069605
1186.36	0.116955
1196	0.219545
1205.64	0.391975
1215.29	0.545585
1224.93	0.610215
1234.58	0.645495
1244.22	0.622765
1253.87	0.428115
1263.51	0.199205
1273.16	0.097505
1282.8	0.063955
1292.45	0.051645
1302.09	0.049385
1311.74	0.042275
1321.38	0.027725
1331.03	0.017365
1340.67	0.013145
1350.32	0.013865
1359.96	0.025995
1369.61	0.044765
1379.25	0.037665
1388.9	0.018215
1398.54	0.017355
1408.18	0.015515
1417.83	0.011945
1427.47	0.010775
1437.12	0.012375
1446.76	0.014745
1456.41	0.017865
1466.05	0.022075
1475.7	0.021315
1485.34	0.014785
1494.99	0.010415
1504.63	0.008115
1514.28	0.006585
1523.92	0.005755
1533.57	0.005135
1543.21	0.004795
1552.86	0.004565
1562.5	0.004405
1572.15	0.004625
1581.79	0.005145
1591.44	0.005695
1601.08	0.005605
1610.73	0.005255
1620.37	0.004895
1630.01	0.005035
1639.66	0.005375
1649.3	0.005895
1658.95	0.006565
1668.59	0.007495
1678.24	0.008575
1687.88	0.010025
1697.53	0.012245
1707.17	0.016075
1716.82	0.023635
1726.46	0.036715
1736.11	0.061285
1745.75	0.119735
1755.4	0.243935
1765.04	0.401795
1774.69	0.449685
1784.33	0.320615
1793.98	0.162665
1803.62	0.075405
1813.27	0.037145
1822.91	0.023865
1832.55	0.019805
1842.2	0.018995
1851.84	0.020225
1861.49	0.023655
1871.13	0.029725
1880.78	0.038715
1890.42	0.050785
1900.07	0.065435
1909.71	0.081465
1919.36	0.101365
1929	0.130525
1938.65	0.170005
1948.29	0.222465
1957.94	0.305395
1967.58	0.453005
1977.23	0.698935
1986.87	0.886205
1996.52	0.774375
2006.16	0.486885
2015.81	0.307915
2025.45	0.239575
2035.1	0.210695
2044.74	0.190025
2054.38	0.170085
2064.03	0.158595
2073.67	0.148015
2083.32	0.123045
2092.96	0.091345
2102.61	0.066585
2112.25	0.052365
2121.9	0.044795
2131.54	0.039445
2141.19	0.034505
2150.83	0.029135
2160.48	0.023485
2170.12	0.018135
2179.77	0.014085
2189.41	0.011515
2199.06	0.010425
2208.7	0.010045
2218.35	0.010115
2227.99	0.009805
2237.64	0.009545
2247.28	0.009305
2256.92	0.009065
2266.57	0.008775
2276.21	0.008555
2285.86	0.008355
2295.5	0.008415
2305.15	0.008785
2314.79	0.008895
2324.44	0.008365
2334.08	0.007545
2343.73	0.006995
2353.37	0.006905
2363.02	0.007415
2372.66	0.006815
2382.31	0.005595
2391.95	0.005055
2401.6	0.005265
2411.24	0.005385
2420.89	0.005355
2430.53	0.005245
2440.18	0.005195
2449.82	0.005355
2459.47	0.005325
2469.11	0.004985
2478.75	0.004495
2488.4	0.003825
2498.04	0.003405
2507.69	0.003095
2517.33	0.003105
2526.98	0.003495
2536.62	0.003765
2546.27	0.004405
2555.91	0.005135
2565.56	0.005855
2575.2	0.006775
2584.85	0.007385
2594.49	0.007125
2604.14	0.006305
2613.78	0.006245
2623.43	0.006405
2633.07	0.006765
2642.72	0.006565
2652.36	0.005095
2662.01	0.003285
2671.65	0.002205
2681.29	0.001935
2690.94	0.001735
2700.58	0.001875
2710.23	0.001775
2719.87	0.001825
2729.52	0.002105
2739.16	0.002235
2748.81	0.002555
2758.45	0.003045
2768.1	0.003465
2777.74	0.003985
2787.39	0.004445
2797.03	0.004625
2806.68	0.005375
2816.32	0.006125
2825.97	0.006375
2835.61	0.005885
2845.26	0.005335
2854.9	0.005275
2864.55	0.005425
2874.19	0.006275
2883.84	0.007795
2893.48	0.008505
2903.12	0.009335
2912.77	0.010985
2922.41	0.012035
2932.06	0.013635
2941.7	0.019195
2951.35	0.020955
2960.99	0.018225
2970.64	0.021415
2980.28	0.034365
2989.93	0.045735
2999.57	0.039445
3009.22	0.025725
3018.86	0.017875
3028.51	0.010995
3038.15	0.006855
3047.8	0.004705
3057.44	0.003455
3067.09	0.002715
3076.73	0.002245
3086.38	0.001895
3096.02	0.001505
3105.67	0.001425
3115.31	0.0012613
3124.95	0.001385
3134.6	0.0012662
3144.24	0.0011915
3153.89	0.0008773
3163.53	0.0008523
3173.18	0.0008564
3182.82	0.0006062
3192.47	0.0007113
3202.11	0.00038646
3211.76	0.00044504
3221.4	0.00042365
3231.05	0.0003076
3240.69	0.0002913
3250.34	0.000179
3259.98	0.000114
3269.63	0.0002946
3279.27	0.000244
3288.92	0.000137
3298.56	8.6e-05
3308.21	0.00040051
3317.85	0
3327.49	0.000204
3337.14	6.1e-05
3346.78	0.000102
3356.43	0.000234
3366.07	0.000222
3375.72	0.0003646
3385.36	0.000166
3395.01	0.00047377
3404.65	0.000274
3414.3	0.000263
3423.94	0.00046513
3433.59	0.00041072
3443.23	0.0005353
3452.88	0.0005721
3462.52	0.0007363
3472.17	0.0008942
3481.81	0.0013442
3491.46	0.001895
3501.1	0.002415
3510.75	0.002865
3520.39	0.003415
3530.04	0.003715
3539.68	0.003235
3549.32	0.002465
3558.97	0.001605
3568.61	0.0012148
3578.26	0.0009364
3587.9	0.0007957
3597.55	0.0006813
3607.19	0.0005804
3616.84	0.000375023
3626.48	0.00042192
3636.13	0.000378273
3645.77	0.0004785
3655.42	0.0004263
3665.06	0.0005089
3674.71	0.0004446
3684.35	0.0004081
3694	0.0005376
3703.64	0.0005125
3713.29	0.000247
3722.93	0.0005065
3732.58	0.00046305
3742.22	0.0006416
3751.86	0.0005806
3761.51	0.00041082
3771.15	0.0006648
3780.8	0.0008558
3790.44	0.0007973
3800.09	0.000884
3809.73	0.0011036
3819.38	0.0012189
3829.02	0.001485
3838.67	0.001435
3848.31	0.001435
3857.96	0.001765
3867.6	0.001855
3877.25	0.002015
3886.89	0.002145
3896.54	0.002265
3906.18	0.002335
3915.83	0.002845
3925.47	0.002845
3935.12	0.002995
3944.76	0.003315
3954.41	0.003145
3964.05	0.003095
3973.69	0.003105
3983.34	0.002875
3992.98	0.003075
