Infrared Spectrum: 2-(Trifluoromethyl)propiophenone
Formula: C 10 H 9 F 3 O
CAS: 16185-96-9
State: gas
Origin: EPA-IR VAPOR PHASE LIBRARY
1/CM	ABSORBANCE
549.8	0.003522
559.445	0.002932
569.09	0.003392
578.734	0.003182
588.379	0.003732
598.024	0.004712
607.669	0.004012
617.313	0.003722
626.958	0.002142
636.603	0.004602
646.248	0.007192
655.893	0.006782
665.537	0.006042
675.182	0.006482
684.827	0.004022
694.472	0.003122
704.116	0.002922
713.761	0.003602
723.406	0.004852
733.051	0.007702
742.695	0.009792
752.34	0.018632
761.985	0.034952
771.63	0.021152
781.275	0.005932
790.919	0.002562
800.564	0.003262
810.209	0.002772
819.854	0.0014987
829.498	0.002582
839.143	0.001972
848.788	0.001972
858.433	0.0014547
868.078	0.0012307
877.722	0.002202
887.367	0.0017079
897.012	0.002562
906.657	0.00175
916.301	0.004092
925.946	0.007792
935.591	0.017062
945.236	0.020812
954.88	0.012712
964.525	0.005602
974.17	0.003412
983.815	0.003952
993.46	0.003382
1003.1	0.006312
1012.75	0.010682
1022.39	0.016432
1032.04	0.026002
1041.68	0.023692
1051.33	0.023532
1060.97	0.029632
1070.62	0.019042
1080.26	0.012742
1089.91	0.014112
1099.55	0.014582
1109.2	0.022762
1118.84	0.039322
1128.49	0.055442
1138.13	0.083662
1147.78	0.104112
1157.42	0.093332
1167.07	0.108712
1176.71	0.135692
1186.36	0.097482
1196	0.046852
1205.64	0.039632
1215.29	0.038502
1224.93	0.029502
1234.58	0.019222
1244.22	0.015782
1253.87	0.017432
1263.51	0.026672
1273.16	0.030532
1282.8	0.023512
1292.45	0.026572
1302.09	0.060812
1311.74	0.139842
1321.38	0.129902
1331.03	0.040872
1340.67	0.021102
1350.32	0.017432
1359.96	0.010902
1369.61	0.007582
1379.25	0.006242
1388.9	0.006062
1398.54	0.004952
1408.18	0.005242
1417.83	0.006512
1427.47	0.006992
1437.12	0.007202
1446.76	0.008342
1456.41	0.007492
1466.05	0.007232
1475.7	0.005432
1485.34	0.004332
1494.99	0.003832
1504.63	0.003032
1514.28	0.002112
1523.92	0.002202
1533.57	0.001892
1543.21	0.001862
1552.86	0.002092
1562.5	0.002962
1572.15	0.005572
1581.79	0.006402
1591.44	0.004212
1601.08	0.004212
1610.73	0.003972
1620.37	0.003312
1630.01	0.003382
1639.66	0.003502
1649.3	0.003022
1658.95	0.003532
1668.59	0.004102
1678.24	0.005812
1687.88	0.007992
1697.53	0.012312
1707.17	0.028402
1716.82	0.060572
1726.46	0.059282
1736.11	0.023642
1745.75	0.009752
1755.4	0.006602
1765.04	0.004382
1774.69	0.003422
1784.33	0.002362
1793.98	0.002372
1803.62	0.002712
1813.27	0.002852
1822.91	0.002562
1832.55	0.002182
1842.2	0.0016953
1851.84	0.002072
1861.49	0.002022
1871.13	0.0015237
1880.78	0.0014792
1890.42	0.0015235
1900.07	0.0017516
1909.71	0.0016927
1919.36	0.001972
1929	0.002422
1938.65	0.002422
1948.29	0.001952
1957.94	0.002252
1967.58	0.002072
1977.23	0.0015753
1986.87	0.0011284
1996.52	0.0012105
2006.16	0.0013287
2015.81	0.00094601
2025.45	0.0011096
2035.1	0.00119
2044.74	0.0010706
2054.38	0.0013136
2064.03	0.0010334
2073.67	0.0010828
2083.32	0.0012747
2092.96	0.0016203
2102.61	0.0012977
2112.25	0.0013357
2121.9	0.0010213
2131.54	0.001167
2141.19	0.0011719
2150.83	0.00091854
2160.48	0.0010014
2170.12	0.0012247
2179.77	0.0010937
2189.41	0.0011737
2199.06	0.0007632
2208.7	0.0012172
2218.35	0.0012195
2227.99	0.0016553
2237.64	0.0012325
2247.28	0.001286
2256.92	0.0012962
2266.57	0.0011491
2276.21	0.0011966
2285.86	0.0011689
2295.5	0.0013945
2305.15	0.0012905
2314.79	0.0014227
2324.44	0.0016833
2334.08	0.0015277
2343.73	0.001339
2353.37	0.0013542
2363.02	0.0013594
2372.66	0.0012519
2382.31	0.0012432
2391.95	0.0012416
2401.6	0.0008495
2411.24	0.0011861
2420.89	0.00092706
2430.53	0.0011145
2440.18	0.0011569
2449.82	0.0014537
2459.47	0.00088965
2469.11	0.0013083
2478.75	0.0012127
2488.4	0.0012219
2498.04	0.000717
2507.69	0.0012272
2517.33	0.000611
2526.98	0.0013752
2536.62	0.0016275
2546.27	0.000814
2555.91	0.000386
2565.56	0.000762
2575.2	0.0012772
2584.85	0.0009765
2594.49	0.0007906
2604.14	0.0010451
2613.78	0.0017181
2623.43	0.0007747
2633.07	0.0010942
2642.72	0.0011629
2652.36	0.0010235
2662.01	0.0011741
2671.65	0.0010972
2681.29	0.0011011
2690.94	0.0008199
2700.58	0.00095881
2710.23	0.0010309
2719.87	0.0012537
2729.52	0.001225
2739.16	0.0010053
2748.81	0.0012158
2758.45	0.001275
2768.1	0.0012985
2777.74	0.0012079
2787.39	0.0015701
2797.03	0.0013968
2806.68	0.0012512
2816.32	0.002112
2825.97	0.0015736
2835.61	0.002272
2845.26	0.001952
2854.9	0.002672
2864.55	0.002392
2874.19	0.004112
2883.84	0.006112
2893.48	0.007452
2903.12	0.007532
2912.77	0.007722
2922.41	0.006912
2932.06	0.006722
2941.7	0.009932
2951.35	0.013852
2960.99	0.010082
2970.64	0.008412
2980.28	0.012942
2989.93	0.015252
2999.57	0.009352
3009.22	0.005682
3018.86	0.004612
3028.51	0.004072
3038.15	0.004502
3047.8	0.004022
3057.44	0.004582
3067.09	0.006732
3076.73	0.009622
3086.38	0.007392
3096.02	0.003342
3105.67	0.002412
3115.31	0.002622
3124.95	0.002202
3134.6	0.0017459
3144.24	0.0016608
3153.89	0.0017834
3163.53	0.0018443
3173.18	0.00071
3182.82	0.001412
3192.47	0.0013614
3202.11	0.0014131
3211.76	0.0011255
3221.4	0.000379
3231.05	0.0015285
3240.69	0.0011569
3250.34	0.000384
3259.98	0.0009233
3269.63	0.0009647
3279.27	0.0013802
3288.92	0.00094512
3298.56	0.000611
3308.21	0.0012905
3317.85	0.0009625
3327.49	0.001012
3337.14	0.0011019
3346.78	0.0014161
3356.43	0.000122
3366.07	0.0008361
3375.72	0.001862
3385.36	0.001424
3395.01	0.002022
3404.65	0.0013921
3414.3	0.002742
3423.94	0.002862
3433.59	0.002102
3443.23	0.001872
3452.88	0.0015201
3462.52	0.00095673
3472.17	0.0010854
3481.81	0.000686
3491.46	0.0012051
3501.1	0.0008141
3510.75	0.001162
3520.39	0.0012196
3530.04	0.0016656
3539.68	0.0014543
3549.32	0.0008349
3558.97	0.0010689
3568.61	0.000661
3578.26	0.0016405
3587.9	0.0014898
3597.55	0.0010082
3607.19	0.0011317
3616.84	0.0012414
3626.48	0.000304
3636.13	0.0010314
3645.77	0.0011811
3655.42	0.000726
3665.06	0.0010628
3674.71	0.0007784
3684.35	0.000749
3694	0.0010162
3703.64	0.0008203
3713.29	0.001033
3722.93	0.0008305
3732.58	0.0011293
3742.22	0.0005
3751.86	0.000255
3761.51	0.0010676
3771.15	0.000628
3780.8	0.000602
3790.44	0.0009648
3800.09	0.0012081
3809.73	0.000277
3819.38	0.0012803
3829.02	0.0009963
3838.67	0.000587
3848.31	0.00091194
3857.96	0.0011868
3867.6	0.0011655
3877.25	0.0013814
3886.89	0.0017843
3896.54	0.000759
3906.18	0.0013033
3915.83	0.0008493
3925.47	0.0009624
3935.12	0.00089556
3944.76	0.00095416
3954.41	0.0017468
3964.05	0.0013809
3973.69	0.0011942
3983.34	0.0012121
3992.98	0.00072
