Infrared Spectrum: 3-Chloro-2-fluorobenzoic acid
Formula: C 7 H 4 Cl F O 2
CAS: 161957-55-7
State: gas
Origin: EPA-IR VAPOR PHASE LIBRARY
1/CM	ABSORBANCE
549.8	0.0023381
559.446	0.0033481
569.092	0.0049981
578.738	0.0058481
588.384	0.0061981
598.03	0.0035781
607.676	0.0019381
617.322	0.0012981
626.968	0.0013581
636.614	0.0011281
646.26	0.0016681
655.906	0.0054381
665.552	0.0076381
675.198	0.0040681
684.844	0.0014581
694.49	0.0011781
704.136	0.0008318
713.782	0.0006511
723.428	0.0010781
733.073	0.0015381
742.719	0.0039981
752.365	0.0076081
762.011	0.0053981
771.657	0.0026881
781.303	0.0014681
790.949	0.0010045
800.595	0.0007921
810.241	0.0007088
819.887	0.0018181
829.533	0.0023881
839.179	0.0025981
848.825	0.0022381
858.471	0.0010618
868.117	0.0004386
877.763	0.0004172
887.409	0.0005244
897.055	0.0005812
906.701	0.000443
916.347	0.0004927
925.993	0.0004218
935.639	0.0005219
945.285	0.0003718
954.931	0.0004693
964.577	0.0004516
974.223	0.0003782
983.869	0.0004241
993.515	0.000562
1003.16	0.0005027
1012.81	0.0006385
1022.45	0.0006762
1032.1	0.0005925
1041.74	0.0009373
1051.39	0.0017981
1061.04	0.0030381
1070.68	0.0033181
1080.33	0.0033781
1089.97	0.0045881
1099.62	0.0069581
1109.27	0.0066081
1118.91	0.0042281
1128.56	0.0029581
1138.2	0.0045681
1147.85	0.0067181
1157.5	0.0067281
1167.14	0.0060381
1176.79	0.0092381
1186.43	0.0097281
1196.08	0.0049781
1205.73	0.0027381
1215.37	0.0028181
1225.02	0.0033681
1234.66	0.0032881
1244.31	0.0039181
1253.96	0.0049181
1263.6	0.0037381
1273.25	0.0029281
1282.89	0.0030381
1292.54	0.0030881
1302.19	0.0032281
1311.83	0.0036781
1321.48	0.0049481
1331.12	0.0059181
1340.77	0.0054281
1350.42	0.0047181
1360.06	0.0046881
1369.71	0.0041781
1379.35	0.0025581
1389	0.0015181
1398.65	0.0012281
1408.29	0.001016
1417.94	0.0011981
1427.58	0.0014981
1437.23	0.0026481
1446.88	0.0056781
1456.52	0.0110481
1466.17	0.0116281
1475.81	0.0054081
1485.46	0.0017281
1495.11	0.0010561
1504.75	0.0009965
1514.4	0.0008548
1524.04	0.0006887
1533.69	0.0005396
1543.34	0.0006407
1552.98	0.000744
1562.63	0.0011181
1572.27	0.0014781
1581.92	0.0012981
1591.57	0.0017481
1601.21	0.0025581
1610.86	0.0020481
1620.5	0.0010024
1630.15	0.0007087
1639.79	0.0006294
1649.44	0.0005698
1659.09	0.0007062
1668.73	0.0007293
1678.38	0.0007793
1688.02	0.0007987
1697.67	0.0010045
1707.32	0.0010681
1716.96	0.0017381
1726.61	0.0027281
1736.25	0.0041781
1745.9	0.0087381
1755.55	0.0182681
1765.19	0.0201881
1774.84	0.0142681
1784.48	0.0109181
1794.13	0.0061181
1803.78	0.0036481
1813.42	0.0019981
1823.07	0.0010881
1832.71	0.0007745
1842.36	0.0005896
1852.01	0.0004672
1861.65	0.0003941
1871.3	0.0005151
1880.94	0.0005998
1890.59	0.0004586
1900.24	0.0004461
1909.88	0.0004041
1919.53	0.0004082
1929.17	0.000482
1938.82	0.0004625
1948.47	0.0003699
1958.11	0.0003129
1967.76	0.0003155
1977.4	0.0002891
1987.05	0.0003015
1996.7	0.000254
2006.34	0.0003051
2015.99	0.0003129
2025.63	0.0003166
2035.28	0.0002826
2044.93	0.0002516
2054.57	0.0002708
2064.22	0.0002547
2073.86	0.0002272
2083.51	0.0002442
2093.16	0.0002836
2102.8	0.0002559
2112.45	0.0002652
2122.09	0.0002527
2131.74	0.0002919
2141.39	0.0002435
2151.03	0.0002261
2160.68	0.0002983
2170.32	0.0002534
2179.97	0.0002933
2189.62	0.000258
2199.26	0.000199
2208.91	0.0002642
2218.55	0.0002227
2228.2	0.0003112
2237.85	0.0002247
2247.49	0.00022
2257.14	0.0001791
2266.78	0.0002
2276.43	0.0002994
2286.08	0.0003374
2295.72	0.0003174
2305.37	0.0003057
2315.01	0.0002711
2324.66	0.0003435
2334.31	0.0003581
2343.95	0.0002971
2353.6	0.000322
2363.24	0.0003497
2372.89	0.0002956
2382.53	0.0002709
2392.18	0.0003027
2401.83	0.0002727
2411.47	0.0002909
2421.12	0.0002638
2430.76	0.0002534
2440.41	0.0003248
2450.06	0.0003122
2459.7	0.0002297
2469.35	0.0002979
2478.99	0.0002849
2488.64	0.0002013
2498.29	0.0002497
2507.93	0.0002479
2517.58	0.0002601
2527.22	0.0002827
2536.87	0.0001797
2546.52	0.0002803
2556.16	0.0002989
2565.81	0.0002386
2575.45	0.0002401
2585.1	0.0002386
2594.75	0.0002488
2604.39	0.0001783
2614.04	0.0001745
2623.68	0.0002522
2633.33	0.0002502
2642.98	0.0002111
2652.62	0.0002412
2662.27	0.00016011
2671.91	0.0001801
2681.56	0.00011881
2691.21	0.0002267
2700.85	0.00014362
2710.5	0.00014531
2720.14	0.0002046
2729.79	0.0002748
2739.44	0.0002753
2749.08	0.0002718
2758.73	0.0002867
2768.37	0.0002982
2778.02	0.0002451
2787.67	0.0001959
2797.31	0.0002382
2806.96	0.00012507
2816.6	0.0002376
2826.25	0.0002596
2835.9	0.0003009
2845.54	0.0002622
2855.19	0.0003343
2864.83	0.0002862
2874.48	0.0002231
2884.13	0.0002801
2893.77	0.0003548
2903.42	0.000223
2913.06	0.0002219
2922.71	0.0003152
2932.36	0.0002247
2942	0.00011617
2951.65	7.8065e-05
2961.29	0.0002301
2970.94	7.989e-05
2980.59	0.0002078
2990.23	0.000265
2999.88	0.000266
3009.52	0.0002663
3019.17	0.0004227
3028.82	0.0003235
3038.46	0.0004242
3048.11	0.0004133
3057.75	0.0003972
3067.4	0.0005605
3077.04	0.0006351
3086.69	0.0007451
3096.34	0.0007815
3105.98	0.0004473
3115.63	0.0004087
3125.27	0.0002961
3134.92	0.0004624
3144.57	0.0003246
3154.21	0.0002393
3163.86	0.0003535
3173.5	0.0003401
3183.15	0.0002732
3192.8	0.0002722
3202.44	0.000335
3212.09	0.0003503
3221.73	0.000439
3231.38	0.000448
3241.03	0.0004084
3250.67	0.000452
3260.32	0.0004854
3269.96	0.0003434
3279.61	0.0004576
3289.26	0.0002441
3298.9	0.0003344
3308.55	0.0004791
3318.19	0.0004169
3327.84	0.00036
3337.49	0.0004857
3347.13	0.0004119
3356.78	0.0003771
3366.42	0.0003672
3376.07	0.0004806
3385.72	0.0003724
3395.36	0.000338
3405.01	0.0004801
3414.65	0.0005578
3424.3	0.0003384
3433.95	0.0005424
3443.59	0.0004666
3453.24	0.0005289
3462.88	0.0005336
3472.53	0.0005479
3482.18	0.0005208
3491.82	0.0007193
3501.47	0.0007337
3511.11	0.000525
3520.76	0.0006581
3530.41	0.0007766
3540.05	0.0006581
3549.7	0.0007315
3559.34	0.0026681
3568.99	0.0079281
3578.64	0.0085981
3588.28	0.0032981
3597.93	0.0011081
3607.57	0.0011881
3617.22	0.0011981
3626.87	0.0008942
3636.51	0.0006781
3646.16	0.0005908
3655.8	0.0005269
3665.45	0.0005931
3675.1	0.0005613
3684.74	0.0006239
3694.39	0.0004834
3704.03	0.0004972
3713.68	0.0004526
3723.33	0.0004888
3732.97	0.000578
3742.62	0.0006782
3752.26	0.000454
3761.91	0.0005336
3771.56	0.0004217
3781.2	0.0003361
3790.85	0.0004634
3800.49	0.0005515
3810.14	0.0003798
3819.78	0.000444
3829.43	0.0005083
3839.08	0.0004729
3848.72	0.0004347
3858.37	0.0004816
3868.01	0.0006801
3877.66	0.0005128
3887.31	0.0005746
3896.95	0.000599
3906.6	0.0005017
3916.24	0.0005358
3925.89	0.0005483
3935.54	0.0004409
3945.18	0.0003724
3954.83	0.0004838
3964.47	0.0004628
3974.12	0.0002977
3983.77	0.0004791
3993.41	0.000288
