Infrared Spectrum: 3-Quinuclidinol
Formula: C7 H13 N O
CAS: 1619-34-7
State: SOLID (SPLIT MULL), FLUOROLUBE FOR 3800-1330 CM^-^1, NUJOL FOR 1330-400 CM^-^1
Class: COBLENTZ II
Instrument: DOW KBr FOREPRISM-GRATING
Instrument parameters: BLAZED AT 3.5, 12.0, 20.0 MICRON AND CHANGED AT 5.0, 7.5, 14.9 MICRON
Sampling: TRANSMISSION
Resolution: 2
Origin: DOW CHEMICAL COMPANY
1/CM	TRANSMITTANCE
3800	0.7353
3791	0.7374
3782	0.7393
3773	0.7403
3764	0.7412
3755	0.7424
3746	0.7428
3737	0.7425
3728	0.7432
3719	0.7451
3710	0.7493
3701	0.7549
3692	0.7565
3683	0.7575
3674	0.7586
3665	0.7591
3656	0.76
3647	0.7615
3638	0.7632
3629	0.7647
3620	0.7658
3611	0.7671
3602	0.7683
3593	0.7701
3584	0.7722
3575	0.7743
3566	0.7764
3557	0.7786
3548	0.7808
3539	0.783
3530	0.7853
3521	0.7875
3512	0.7896
3503	0.7914
3494	0.7925
3485	0.7935
3476	0.7943
3467	0.7951
3458	0.7951
3449	0.7949
3440	0.7943
3431	0.7933
3422	0.7918
3413	0.7893
3404	0.785
3395	0.7801
3386	0.7731
3377	0.7653
3368	0.7565
3359	0.7485
3350	0.7384
3341	0.7261
3332	0.7128
3323	0.6933
3314	0.6711
3305	0.6525
3296	0.6297
3287	0.601
3278	0.5744
3269	0.5504
3260	0.5239
3251	0.5022
3242	0.4837
3233	0.4656
3224	0.4479
3215	0.4229
3206	0.4016
3197	0.3793
3188	0.3472
3179	0.3241
3170	0.3014
3161	0.2804
3152	0.2614
3143	0.2408
3134	0.2215
3125	0.2116
3116	0.2069
3107	0.2064
3098	0.2114
3089	0.2264
3080	0.2488
3071	0.272
3062	0.2926
3053	0.3167
3044	0.3453
3035	0.3714
3026	0.3934
3017	0.4112
3008	0.4274
2999	0.4444
2990	0.4553
2981	0.4558
2972	0.3359
2963	0.1588
2954	0.0851
2945	0.0618
2936	0.0699
2927	0.0943
2918	0.1732
2909	0.1546
2900	0.2071
2891	0.1991
2882	0.1574
2873	0.1188
2864	0.1172
2855	0.1588
2846	0.2027
2837	0.2165
2828	0.2443
2819	0.2869
2810	0.3071
2801	0.3277
2792	0.3489
2783	0.3678
2774	0.3784
2765	0.382
2756	0.3766
2747	0.359
2738	0.3424
2729	0.3358
2720	0.3414
2711	0.3568
2702	0.383
2693	0.4064
2684	0.429
2675	0.4443
2666	0.4598
2657	0.4809
2648	0.5138
2639	0.5259
2630	0.5373
2621	0.5503
2612	0.5601
2603	0.5695
2594	0.5785
2585	0.5892
2576	0.6
2567	0.6094
2558	0.6208
2549	0.6331
2540	0.6467
2531	0.6575
2522	0.6625
2513	0.6661
2504	0.668
2495	0.6687
2486	0.67
2477	0.6751
2468	0.6865
2459	0.6965
2450	0.7069
2441	0.7136
2432	0.718
2423	0.7212
2414	0.7247
2405	0.7275
2396	0.7304
2387	0.7336
2378	0.7368
2369	0.7392
2360	0.7414
2351	0.7437
2342	0.7461
2333	0.7485
2324	0.7507
2315	0.7525
2306	0.7547
2297	0.7578
2288	0.7611
2279	0.7647
2270	0.7689
2261	0.7728
2252	0.7768
2243	0.7825
2234	0.7886
2225	0.7956
2216	0.8022
2207	0.8101
2198	0.8143
2189	0.8174
2180	0.8201
2171	0.8215
2162	0.822
2153	0.8235
2144	0.8262
2135	0.8292
2126	0.8315
2117	0.8334
2108	0.8364
2099	0.8394
2090	0.8425
2081	0.8457
2072	0.8492
2063	0.8531
2054	0.8566
2045	0.859
2036	0.8618
2027	0.8648
2018	0.8675
2009	0.8694
2000	0.8708
1991	0.8601
1982	0.8696
1973	0.876
1964	0.8762
1955	0.8752
1946	0.8789
1937	0.8796
1928	0.8803
1919	0.8809
1910	0.8784
1901	0.8778
1892	0.8778
1883	0.878
1874	0.8778
1865	0.8771
1856	0.8764
1847	0.8762
1838	0.8762
1829	0.8749
1820	0.8709
1811	0.8681
1802	0.8683
1793	0.8706
1784	0.8731
1775	0.8754
1766	0.8777
1757	0.8791
1748	0.8794
1739	0.8782
1730	0.8728
1721	0.8708
1712	0.8756
1703	0.8748
1694	0.8674
1685	0.858
1676	0.8592
1667	0.8543
1658	0.8525
1649	0.8566
1640	0.8558
1631	0.8543
1622	0.8533
1613	0.8521
1604	0.8503
1595	0.8462
1586	0.842
1577	0.8383
1568	0.8351
1559	0.8312
1550	0.8266
1541	0.8225
1532	0.823
1523	0.8248
1514	0.8265
1505	0.8268
1496	0.8259
1487	0.8213
1478	0.8008
1469	0.7195
1460	0.5479
1451	0.5146
1442	0.5833
1433	0.6789
1424	0.7688
1415	0.7797
1406	0.7796
1397	0.7861
1388	0.7975
1379	0.7892
1370	0.7743
1361	0.6808
1352	0.7121
1343	0.3432
1334	0.6319
1325	0.6305
1316	0.4816
1307	0.4156
1298	0.5917
1289	0.6558
1280	0.6864
1271	0.7128
1262	0.7607
1253	0.8008
1244	0.8278
1235	0.8463
1226	0.8589
1217	0.8001
1208	0.8275
1199	0.8056
1190	0.8702
1181	0.8836
1172	0.8346
1163	0.8654
1154	0.8723
1145	0.8703
1136	0.7089
1127	0.5575
1118	0.5024
1109	0.7278
1100	0.8447
1091	0.8542
1082	0.6765
1073	0.6915
1064	0.7768
1055	0.2702
1046	0.0854
1037	0.415
1028	0.5962
1019	0.7028
1010	0.7915
1001	0.8058
992	0.497
983	0.2973
974	0.4305
965	0.7532
956	0.816
947	0.47
938	0.7601
929	0.8428
920	0.8589
911	0.8625
902	0.8628
893	0.8231
884	0.8454
875	0.871
866	0.7475
857	0.7953
848	0.7917
839	0.7458
830	0.6341
821	0.3343
812	0.6027
803	0.5602
794	0.4057
785	0.5006
776	0.3067
767	0.6406
758	0.7421
749	0.7737
740	0.7844
731	0.7868
722	0.7794
713	0.8205
704	0.8473
695	0.8585
686	0.865
677	0.8641
668	0.8634
659	0.8692
650	0.8771
641	0.8789
632	0.8268
623	0.7414
614	0.8856
605	0.9043
596	0.8556
587	0.7125
578	0.8915
569	0.9099
560	0.9197
551	0.9225
542	0.9205
533	0.9145
524	0.9132
515	0.9124
506	0.9097
497	0.8978
488	0.8945
479	0.879
470	0.8441
461	0.7686
452	0.7984
443	0.8124
434	0.7839
425	0.7778
416	0.7711
407	0.7618
398	0.7578
389	0.7567
