Infrared Spectrum: 3,5-Di-butyl-4-hydroxybenzaldehyde
Formula: C 15 H 22 O 2
CAS: 1620-98-0
State: gas
Origin: EPA-IR VAPOR PHASE LIBRARY
1/CM	ABSORBANCE
501.5	0.0009354
513.074	0.00179
524.648	0.00196
536.222	0.0013
547.796	0.00168
559.37	0.00178
570.944	0.00181
582.518	0.00189
594.092	0.00351
605.666	0.00333
617.24	0.0012
628.814	0.0008777
640.388	0.0007524
651.962	0.00117
663.536	0.00219
675.11	0.00356
686.684	0.00531
698.258	0.00296
709.832	0.00103
721.406	0.0006329
732.98	0.0005265
744.554	0.0007531
756.128	0.0007345
767.702	0.00163
779.276	0.00175
790.85	0.00106
802.423	0.00208
813.997	0.00225
825.571	0.0007676
837.145	0.0004745
848.719	0.0005312
860.293	0.0008465
871.867	0.00268
883.441	0.00503
895.015	0.00253
906.589	0.00155
918.163	0.00147
929.737	0.00176
941.311	0.0015
952.885	0.00323
964.459	0.00457
976.033	0.00163
987.607	0.0008551
999.181	0.0009611
1010.76	0.0008276
1022.33	0.00124
1033.9	0.0008957
1045.48	0.0008161
1057.05	0.0007746
1068.63	0.0008135
1080.2	0.00104
1091.77	0.00156
1103.35	0.00295
1114.92	0.00551
1126.49	0.00389
1138.07	0.00382
1149.64	0.00783
1161.22	0.01467
1172.79	0.01427
1184.36	0.0212
1195.94	0.02843
1207.51	0.01559
1219.09	0.01103
1230.66	0.01618
1242.23	0.01892
1253.81	0.0124
1265.38	0.00716
1276.96	0.00753
1288.53	0.00814
1300.1	0.00475
1311.68	0.0047
1323.25	0.00674
1334.83	0.0041
1346.4	0.00232
1357.97	0.00424
1369.55	0.01143
1381.12	0.0143
1392.7	0.0087
1404.27	0.00818
1415.84	0.00817
1427.42	0.01509
1438.99	0.01058
1450.57	0.00644
1462.14	0.00514
1473.71	0.0057
1485.29	0.00598
1496.86	0.00288
1508.44	0.00153
1520.01	0.00121
1531.58	0.00104
1543.16	0.00104
1554.73	0.00145
1566.31	0.00274
1577.88	0.00628
1589.45	0.01128
1601.03	0.0079
1612.6	0.00283
1624.18	0.00148
1635.75	0.00114
1647.32	0.00109
1658.9	0.00125
1670.47	0.00217
1682.05	0.00317
1693.62	0.00999
1705.19	0.0544
1716.77	0.04454
1728.34	0.00734
1739.92	0.00324
1751.49	0.00273
1763.06	0.00222
1774.64	0.00154
1786.21	0.00118
1797.79	0.0009974
1809.36	0.0008737
1820.93	0.0006376
1832.51	0.0004697
1844.08	0.0005986
1855.66	0.0004837
1867.23	0.0002908
1878.8	0.0002572
1890.38	0.0002451
1901.95	0.0002839
1913.53	0.0003087
1925.1	0.0002866
1936.67	0.0001859
1948.25	0.000141
1959.82	0.0001186
1971.4	0.0001264
1982.97	0.00017
1994.54	0.0001855
2006.12	0.0001547
2017.69	0.0001311
2029.27	0.0001267
2040.84	0.0001142
2052.41	8.005e-05
2063.99	9.179e-05
2075.56	6.048e-05
2087.14	8.706e-05
2098.71	8.322e-05
2110.28	0.0001415
2121.86	0.0001823
2133.43	0.0001782
2145.01	0.0002402
2156.58	0.0002414
2168.15	0.0001935
2179.73	0.0001419
2191.3	0.0001188
2202.88	0.0001353
2214.45	0.0001287
2226.02	0.0001548
2237.6	0.0001106
2249.17	0.0001068
2260.74	8.854e-05
2272.32	0.0001039
2283.89	0.0001085
2295.47	0.0001754
2307.04	0.000152
2318.61	0.0001336
2330.19	0.0001085
2341.76	0.0001637
2353.34	0.0001004
2364.91	0.0001609
2376.48	0.0002498
2388.06	0.0003298
2399.63	0.0002745
2411.21	0.0002558
2422.78	0.0002764
2434.35	0.0002882
2445.93	0.0002304
2457.5	0.0002807
2469.08	0.0003489
2480.65	0.000298
2492.22	0.0002917
2503.8	0.0002795
2515.37	0.0002879
2526.95	0.0003146
2538.52	0.000331
2550.09	0.0004359
2561.67	0.0004879
2573.24	0.000481
2584.82	0.0004502
2596.39	0.000465
2607.96	0.0004831
2619.54	0.0004923
2631.11	0.00061
2642.69	0.000854
2654.26	0.00102
2665.83	0.00125
2677.41	0.00148
2688.98	0.00219
2700.56	0.00559
2712.13	0.01224
2723.7	0.00648
2735.28	0.00237
2746.85	0.00179
2758.43	0.00213
2770	0.00363
2781.57	0.00719
2793.15	0.00708
2804.72	0.00519
2816.3	0.00511
2827.87	0.00366
2839.44	0.00286
2851.02	0.00338
2862.59	0.00512
2874.17	0.00947
2885.74	0.01259
2897.31	0.01191
2908.89	0.01293
2920.46	0.01588
2932.04	0.01634
2943.61	0.01838
2955.18	0.02828
2966.76	0.03986
2978.33	0.03407
2989.91	0.01276
3001.48	0.00743
3013.05	0.00544
3024.63	0.0027
3036.2	0.00182
3047.78	0.00152
3059.35	0.00147
3070.92	0.00166
3082.5	0.00156
3094.07	0.00121
3105.65	0.0008801
3117.22	0.0007565
3128.79	0.0006802
3140.37	0.0006725
3151.94	0.0006269
3163.52	0.0005898
3175.09	0.0006149
3186.66	0.0006234
3198.24	0.0005671
3209.81	0.0004156
3221.39	0.0004237
3232.96	0.0004191
3244.53	0.0003731
3256.11	0.0003698
3267.68	0.0003578
3279.26	0.0004337
3290.83	0.0004316
3302.4	0.0004416
3313.98	0.0004083
3325.55	0.0003899
3337.13	0.0004154
3348.7	0.0003871
3360.27	0.0005031
3371.85	0.0004627
3383.42	0.0006837
3395	0.00106
3406.57	0.00122
3418.14	0.0006065
3429.72	0.0003675
3441.29	0.0003154
3452.86	0.0003246
3464.44	0.0002386
3476.01	0.0002755
3487.59	0.0002481
3499.16	0.0002344
3510.73	0.0002803
3522.31	0.0001558
3533.88	0.0003349
3545.46	0.0003211
3557.03	0.0003404
3568.6	0.00038
3580.18	0.0004621
3591.75	0.0006363
3603.33	0.0009059
3614.9	0.00154
3626.47	0.00308
3638.05	0.00856
3649.62	0.02642
3661.2	0.02308
3672.77	0.00632
3684.34	0.00219
3695.92	0.00107
3707.49	0.000756
3719.07	0.0005331
3730.64	0.0005183
3742.21	0.0003008
3753.79	0.0003131
3765.36	0.0003368
3776.94	0.0003082
3788.51	0.000298
3800.08	0.0005043
3811.66	0.0003518
3823.23	0.0004058
3834.81	0.0003583
3846.38	0.0003469
3857.95	0.000288
3869.53	0.0003577
3881.1	0.0003439
3892.68	0.0004108
3904.25	0.0004977
3915.82	0.0003925
3927.4	0.0003475
3938.97	0.0003486
3950.55	0.0004066
3962.12	0.0003398
3973.69	0.0005115
3985.27	0.0004656
3996.84	0.000366
