Infrared Spectrum: [1,2,5]OXADIAZOLO[3,4-d]PYRIMIDINE, 5,7-DIAMINO-, 1-OXIDE
Formula: C4 H4 N6 O2
CAS: 16206-19-2
State: SOLID (1 mg / 650 mg KBr DISC)
Class: COBLENTZ III
Instrument: PERKIN-ELMER 521 (GRATING)
Instrument parameters: FILTER CHANGE AT 3150, 2500, 2000, 1150, 700, 410 CM^-^1, GRATING CHANGES AT 2000, 630 CM^-^1
Sampling: TRANSMISSION
Resolution: 4
Origin: SOUTHERN RESEARCH INSTITUTE
1/CM	TRANSMITTANCE
236.434	0.299
245.478	0.323
254.522	0.357
263.566	0.412
272.61	0.454
281.654	0.485
290.698	0.513
299.742	0.556
308.786	0.589
317.829	0.613
326.873	0.633
335.917	0.66
344.961	0.689
354.005	0.704
363.049	0.705
372.093	0.7
381.137	0.733
390.181	0.744
399.225	0.749
408.269	0.747
417.313	0.744
426.357	0.741
435.401	0.744
444.445	0.749
453.489	0.75
462.533	0.75
471.576	0.747
480.62	0.743
489.664	0.737
498.708	0.73
507.752	0.72
516.796	0.71
525.84	0.692
534.884	0.68
543.928	0.669
552.972	0.652
562.016	0.654
571.06	0.667
580.104	0.702
589.148	0.722
598.192	0.723
607.236	0.714
616.28	0.697
625.324	0.693
634.367	0.706
643.411	0.699
652.455	0.706
661.499	0.734
670.543	0.755
679.587	0.764
688.631	0.782
697.675	0.768
706.719	0.797
715.763	0.843
724.807	0.856
733.851	0.858
742.895	0.86
751.939	0.862
760.983	0.857
770.027	0.712
779.071	0.781
788.114	0.848
797.158	0.843
806.202	0.839
815.246	0.843
824.29	0.863
833.334	0.857
842.378	0.836
851.422	0.865
860.466	0.881
869.51	0.875
878.554	0.871
887.598	0.868
896.642	0.865
905.686	0.86
914.73	0.857
923.774	0.847
932.818	0.816
941.861	0.683
950.905	0.723
959.949	0.794
968.993	0.829
978.037	0.803
987.081	0.723
996.125	0.776
1005.17	0.796
1014.21	0.794
1023.26	0.788
1032.3	0.783
1041.34	0.776
1050.39	0.768
1059.43	0.754
1068.48	0.738
1077.52	0.72
1086.56	0.703
1095.61	0.72
1104.65	0.769
1113.7	0.781
1122.74	0.779
1131.78	0.767
1140.83	0.751
1149.87	0.732
1158.92	0.74
1167.96	0.762
1177	0.769
1186.05	0.768
1195.09	0.756
1204.14	0.708
1213.18	0.685
1222.22	0.747
1231.27	0.768
1240.31	0.768
1249.36	0.756
1258.4	0.718
1267.44	0.642
1276.49	0.731
1285.53	0.778
1294.58	0.777
1303.62	0.773
1312.66	0.761
1321.71	0.75
1330.75	0.741
1339.79	0.726
1348.84	0.701
1357.88	0.668
1366.93	0.605
1375.97	0.529
1385.01	0.498
1394.06	0.535
1403.1	0.627
1412.15	0.663
1421.19	0.743
1430.23	0.794
1439.28	0.774
1448.32	0.704
1457.37	0.669
1466.41	0.587
1475.45	0.511
1484.5	0.47
1493.54	0.547
1502.59	0.661
1511.63	0.607
1520.67	0.55
1529.72	0.604
1538.76	0.665
1547.81	0.685
1556.85	0.567
1565.89	0.556
1574.94	0.595
1583.98	0.506
1593.03	0.482
1602.07	0.217
1611.11	0.249
1620.16	0.428
1629.2	0.492
1638.25	0.445
1647.29	0.401
1656.33	0.491
1665.38	0.52
1674.42	0.628
1683.46	0.746
1692.51	0.81
1701.55	0.848
1710.6	0.867
1719.64	0.88
1728.68	0.889
1737.73	0.897
1746.77	0.9
1755.82	0.904
1764.86	0.907
1773.9	0.909
1782.95	0.91
1791.99	0.91
1801.04	0.911
1810.08	0.911
1819.12	0.911
1828.17	0.911
1837.21	0.912
1846.26	0.912
1855.3	0.912
1864.34	0.912
1873.39	0.912
1882.43	0.912
1891.48	0.912
1900.52	0.911
1909.56	0.911
1918.61	0.911
1927.65	0.911
1936.7	0.911
1945.74	0.91
1954.78	0.91
1963.83	0.91
1972.87	0.91
1981.91	0.908
1990.96	0.906
2000	0.904
2009.05	0.903
2018.09	0.901
2027.13	0.901
2036.18	0.9
2045.22	0.899
2054.27	0.898
2063.31	0.897
2072.35	0.897
2081.4	0.896
2090.44	0.895
2099.49	0.895
2108.53	0.896
2117.57	0.896
2126.62	0.896
2135.66	0.896
2144.71	0.897
2153.75	0.896
2162.79	0.895
2171.84	0.894
2180.88	0.892
2189.93	0.892
2198.97	0.892
2208.01	0.892
2217.06	0.892
2226.1	0.891
2235.15	0.89
2244.19	0.889
2253.23	0.889
2262.28	0.889
2271.32	0.889
2280.36	0.889
2289.41	0.889
2298.45	0.888
2307.5	0.887
2316.54	0.886
2325.58	0.885
2334.63	0.885
2343.67	0.885
2352.72	0.885
2361.76	0.885
2370.8	0.885
2379.85	0.884
2388.89	0.883
2397.94	0.883
2406.98	0.883
2416.02	0.882
2425.07	0.881
2434.11	0.881
2443.16	0.88
2452.2	0.88
2461.24	0.878
2470.29	0.877
2479.33	0.875
2488.38	0.874
2497.42	0.873
2506.46	0.872
2515.51	0.871
2524.55	0.869
2533.6	0.868
2542.64	0.866
2551.68	0.866
2560.73	0.862
2569.77	0.86
2578.82	0.858
2587.86	0.857
2596.9	0.856
2605.95	0.855
2614.99	0.854
2624.03	0.853
2633.08	0.852
2642.12	0.851
2651.17	0.85
2660.21	0.849
2669.25	0.848
2678.3	0.847
2687.34	0.845
2696.39	0.842
2705.43	0.839
2714.47	0.836
2723.52	0.834
2732.56	0.83
2741.61	0.824
2750.65	0.82
2759.69	0.813
2768.74	0.812
2777.78	0.814
2786.83	0.815
2795.87	0.812
2804.91	0.81
2813.96	0.807
2823	0.804
2832.05	0.802
2841.09	0.799
2850.13	0.795
2859.18	0.79
2868.22	0.785
2877.27	0.78
2886.31	0.778
2895.35	0.775
2904.4	0.772
2913.44	0.769
2922.48	0.767
2931.53	0.765
2940.57	0.764
2949.62	0.763
2958.66	0.76
2967.7	0.758
2976.75	0.752
2985.79	0.747
2994.84	0.738
3003.88	0.73
3012.92	0.724
3021.97	0.712
3031.01	0.698
3040.06	0.683
3049.1	0.669
3058.14	0.657
3067.19	0.644
3076.23	0.631
3085.28	0.615
3094.32	0.595
3103.36	0.571
3112.41	0.563
3121.45	0.575
3130.5	0.589
3139.54	0.607
3148.58	0.61
3157.63	0.613
3166.67	0.615
3175.72	0.616
3184.76	0.616
3193.8	0.604
3202.85	0.6
3211.89	0.598
3220.93	0.596
3229.98	0.594
3239.02	0.581
3248.07	0.562
3257.11	0.544
3266.15	0.532
3275.2	0.528
3284.24	0.526
3293.29	0.514
3302.33	0.477
3311.37	0.446
3320.42	0.44
3329.46	0.449
3338.51	0.469
3347.55	0.512
3356.59	0.538
3365.64	0.564
3374.68	0.579
3383.73	0.589
3392.77	0.594
3401.81	0.585
3410.86	0.554
3419.9	0.493
3428.95	0.438
3437.99	0.473
3447.03	0.564
3456.08	0.616
3465.12	0.642
3474.17	0.655
3483.21	0.661
3492.25	0.671
3501.3	0.681
3510.34	0.692
3519.39	0.705
3528.43	0.715
3537.47	0.726
3546.52	0.736
3555.56	0.747
3564.6	0.757
3573.65	0.765
3582.69	0.779
3591.74	0.792
3600.78	0.803
3609.82	0.813
3618.87	0.822
3627.91	0.831
3636.96	0.839
3646	0.841
3655.04	0.845
3664.09	0.847
3673.13	0.848
3682.18	0.851
3691.22	0.851
3700.26	0.853
3709.31	0.854
3718.35	0.852
3727.4	0.85
3736.44	0.848
3745.48	0.848
3754.53	0.85
3763.57	0.851
3772.62	0.852
3781.66	0.852
3790.7	0.85
3799.75	0.846
3808.79	0.843
