Infrared Spectrum: MALEIMIDE, N-[p-(PHENYLAZO)PHENYL]-
Formula: C16 H11 N3 O2
CAS: 16201-96-0
State: SOLID (SPLIT MULL)
Class: COBLENTZ III
Instrument: DOW KBr FOREPRISM-GRATING
Instrument parameters: BLAZED AT 3.5, 12.0, 20.0 MICRON AND CHANGED AT 5.0, 7.5, 14.9 MICRON
Sampling: TRANSMISSION
Resolution: 2
Origin: DOW CHEMICAL COMPANY
1/CM	TRANSMITTANCE
452	0.7928
461	0.7821
470	0.796
479	0.8101
488	0.8333
497	0.843
506	0.8446
515	0.8424
524	0.8368
533	0.7935
542	0.8267
551	0.6487
560	0.85
569	0.8575
578	0.8534
587	0.8291
596	0.8552
605	0.8638
614	0.8492
623	0.8553
632	0.8615
641	0.8161
650	0.7547
659	0.8434
668	0.8309
677	0.7714
686	0.2279
695	0.6105
704	0.8315
713	0.7815
722	0.6112
731	0.7801
740	0.8043
749	0.818
758	0.7971
767	0.3964
776	0.8206
785	0.8518
794	0.8538
803	0.8745
812	0.8341
821	0.7526
830	0.4556
839	0.6557
848	0.5924
857	0.8028
866	0.827
875	0.83
884	0.8225
893	0.8126
902	0.8154
911	0.7886
920	0.7935
929	0.7787
938	0.8068
947	0.7275
956	0.7944
965	0.8001
974	0.8092
983	0.8165
992	0.8147
1001	0.7825
1010	0.8055
1019	0.7899
1028	0.7741
1037	0.8108
1046	0.8065
1055	0.7954
1064	0.7575
1073	0.7726
1082	0.7925
1091	0.7861
1100	0.7615
1109	0.7337
1118	0.7411
1127	0.6626
1136	0.5352
1145	0.4419
1154	0.6383
1163	0.7371
1172	0.7844
1181	0.7872
1190	0.7828
1199	0.77
1208	0.6544
1217	0.7768
1226	0.7568
1235	0.7736
1244	0.7628
1253	0.7474
1262	0.7315
1271	0.713
1280	0.6939
1289	0.6704
1298	0.567
1307	0.6031
1316	0.5798
1325	0.6662
1334	0.6481
1343	0.6195
1352	0.6387
1361	0.6375
1370	0.5336
1379	0.4918
1388	0.5055
1397	0.3382
1406	0.7185
1415	0.7094
1424	0.7757
1433	0.791
1442	0.7687
1451	0.7715
1460	0.7776
1469	0.7436
1478	0.7599
1487	0.6942
1496	0.713
1505	0.6181
1514	0.6984
1523	0.7911
1532	0.7768
1541	0.7619
1550	0.7617
1559	0.7661
1568	0.7572
1577	0.7371
1586	0.6791
1595	0.7078
1604	0.6828
1613	0.7619
1622	0.7574
1631	0.746
1640	0.7358
1649	0.7304
1658	0.7078
1667	0.6818
1676	0.6433
1685	0.6103
1694	0.5396
1703	0.3432
1712	0.1473
1721	0.3528
1730	0.7945
1739	0.8368
1748	0.8498
1757	0.8367
1766	0.8234
1775	0.8121
1784	0.816
1793	0.8161
1802	0.8236
1811	0.8218
1820	0.8184
1829	0.8146
1838	0.8108
1847	0.8071
1856	0.8021
1865	0.7965
1874	0.7901
1883	0.7846
1892	0.7804
1901	0.7821
1910	0.7821
1919	0.7797
1928	0.7868
1937	0.7851
1946	0.7818
1955	0.7793
1964	0.7778
1973	0.7775
1982	0.7778
1991	0.7781
2000	0.7795
2009	0.7811
2018	0.7818
2027	0.7803
2036	0.7775
2045	0.7749
2054	0.7722
2063	0.7693
2072	0.7661
2081	0.7632
2090	0.7603
2099	0.7575
2108	0.7549
2117	0.7521
2126	0.7493
2135	0.7462
2144	0.7428
2153	0.7395
2162	0.7364
2171	0.7333
2180	0.7301
2189	0.7271
2198	0.7239
2207	0.72
2216	0.7153
2225	0.7099
2234	0.7064
2243	0.7044
2252	0.7031
2261	0.7018
2270	0.7005
2279	0.6991
2288	0.6978
2297	0.6962
2306	0.6935
2315	0.6907
2324	0.689
2333	0.6882
2342	0.6896
2351	0.6921
2360	0.6944
2369	0.695
2378	0.6954
2387	0.6946
2396	0.6937
2405	0.6925
2414	0.6912
2423	0.6899
2432	0.6886
2441	0.6871
2450	0.6857
2459	0.6842
2468	0.6828
2477	0.6819
2486	0.6815
2495	0.681
2504	0.6826
2513	0.6841
2522	0.6845
2531	0.6839
2540	0.6825
2549	0.6812
2558	0.6795
2567	0.6774
2576	0.6753
2585	0.6733
2594	0.6714
2603	0.6698
2612	0.6682
2621	0.6665
2630	0.6649
2639	0.6633
2648	0.6615
2657	0.66
2666	0.6584
2675	0.6567
2684	0.6551
2693	0.6532
2702	0.6512
2711	0.6494
2720	0.6475
2729	0.6457
2738	0.644
2747	0.6421
2756	0.6405
2765	0.6387
2774	0.637
2783	0.6355
2792	0.634
2801	0.6325
2810	0.631
2819	0.6285
2828	0.626
2837	0.6236
2846	0.621
2855	0.619
2864	0.6175
2873	0.616
2882	0.6147
2891	0.6131
2900	0.6095
2909	0.6042
2918	0.601
2927	0.6001
2936	0.5993
2945	0.5995
2954	0.5994
2963	0.599
2972	0.5968
2981	0.5944
2990	0.5921
2999	0.5889
3008	0.5859
3017	0.5847
3026	0.5843
3035	0.5784
3044	0.5744
3053	0.5696
3062	0.5616
3071	0.5552
3080	0.553
3089	0.5066
3098	0.5835
3107	0.5641
3116	0.5903
3125	0.586
3134	0.5818
3143	0.5786
3152	0.5773
3161	0.5756
3170	0.5739
3179	0.5723
3188	0.5706
3197	0.5704
3206	0.5696
3215	0.5681
3224	0.5666
3233	0.565
3242	0.5634
3251	0.5616
3260	0.5599
3269	0.5581
3278	0.5562
3287	0.5548
3296	0.5537
3305	0.5525
3314	0.5514
3323	0.5501
3332	0.5488
3341	0.5474
3350	0.5462
3359	0.5448
3368	0.5435
3377	0.542
3386	0.5407
3395	0.5392
3404	0.5379
3413	0.5365
3422	0.5352
3431	0.5321
3440	0.5258
3449	0.5191
3458	0.5278
3467	0.5324
3476	0.5316
3485	0.5316
3494	0.5334
3503	0.5331
3512	0.5312
3521	0.5286
3530	0.5265
3539	0.5252
3548	0.524
3557	0.5229
3566	0.5221
3575	0.5212
3584	0.5202
3593	0.5188
3602	0.5176
3611	0.516
3620	0.5149
3629	0.5134
3638	0.5115
3647	0.5099
3656	0.5118
3665	0.5119
3674	0.5085
3683	0.5054
3692	0.5046
3701	0.5049
3710	0.5062
3719	0.5087
3728	0.511
3737	0.5083
3746	0.4993
3755	0.4981
3764	0.4973
3773	0.4972
3782	0.497
3791	0.4965
3800	0.4962
