Infrared Spectrum: 2-CYANO-6-METHYL PYRIDINE
Formula: C7 H6 N2
CAS: 1620-75-3
State: SOLID (MINERAL OIL MULL)
Class: COBLENTZ
Instrument: Not specified, most likely a prism, grating, or hybrid spectrometer.
Sampling: TRANSMISSION
Resolution: 4
Origin: DOW CHEMICAL COMPANY
MICROMETERS	TRANSMITTANCE
2.034	0.425
2.07508	0.426
2.11615	0.433
2.15723	0.44
2.1983	0.45
2.23938	0.455
2.28046	0.459
2.32153	0.469
2.36261	0.479
2.40369	0.491
2.44476	0.505
2.48584	0.517
2.52691	0.525
2.56799	0.534
2.60907	0.539
2.65014	0.545
2.69122	0.547
2.73229	0.556
2.77337	0.559
2.81445	0.564
2.85552	0.569
2.8966	0.579
2.93767	0.588
2.97875	0.595
3.01983	0.605
3.0609	0.612
3.10198	0.619
3.14306	0.615
3.18413	0.608
3.22521	0.596
3.26628	0.535
3.30736	0.523
3.34844	0.465
3.38951	0.251
3.43059	0.19
3.47166	0.297
3.51274	0.377
3.55382	0.67
3.59489	0.7
3.63597	0.712
3.67704	0.714
3.71812	0.721
3.7592	0.722
3.80027	0.734
3.84135	0.741
3.88243	0.748
3.9235	0.751
3.96458	0.756
4.00565	0.763
4.04673	0.768
4.08781	0.77
4.12888	0.77
4.16996	0.773
4.21103	0.775
4.25211	0.777
4.29319	0.784
4.33426	0.792
4.37534	0.809
4.41642	0.818
4.45749	0.695
4.49857	0.726
4.53964	0.792
4.58072	0.799
4.6218	0.807
4.66287	0.811
4.70395	0.821
4.74502	0.828
4.7861	0.835
4.82718	0.833
4.86825	0.84
4.90933	0.846
4.9504	0.848
4.99148	0.838
5.03256	0.826
5.07363	0.852
5.11471	0.862
5.15579	0.865
5.19686	0.852
5.23794	0.841
5.27901	0.87
5.32009	0.874
5.36117	0.874
5.40224	0.869
5.44332	0.841
5.48439	0.87
5.52547	0.882
5.56655	0.886
5.60762	0.887
5.6487	0.891
5.68978	0.887
5.73085	0.884
5.77193	0.879
5.813	0.863
5.85408	0.852
5.89516	0.862
5.93623	0.879
5.97731	0.886
6.01838	0.894
6.05946	0.897
6.10054	0.896
6.14161	0.892
6.18269	0.867
6.22376	0.69
6.26484	0.404
6.30592	0.375
6.34699	0.627
6.38807	0.707
6.42915	0.787
6.47022	0.799
6.5113	0.79
6.55237	0.792
6.59345	0.814
6.63453	0.826
6.6756	0.828
6.71668	0.807
6.75775	0.709
6.79883	0.491
6.83991	0.28
6.88098	0.261
6.92206	0.348
6.96313	0.539
7.00421	0.678
7.04529	0.738
7.08636	0.748
7.12744	0.734
7.16852	0.719
7.20959	0.612
7.25067	0.53
7.29174	0.668
7.33282	0.744
7.3739	0.787
7.41497	0.802
7.45605	0.821
7.49712	0.836
7.5382	0.846
7.57928	0.835
7.62035	0.845
7.66143	0.838
7.70251	0.845
7.74358	0.84
7.78466	0.787
7.82573	0.782
7.86681	0.818
7.90789	0.823
7.94896	0.784
7.99004	0.784
8.03111	0.804
8.07219	0.814
8.11327	0.816
8.15434	0.794
8.19542	0.714
8.23649	0.651
8.27757	0.715
8.31865	0.789
8.35972	0.801
8.4008	0.812
8.44188	0.819
8.48295	0.818
8.52403	0.719
8.5651	0.647
8.60618	0.765
8.64726	0.807
8.68833	0.826
8.72941	0.835
8.77048	0.835
8.81156	0.843
8.85264	0.846
8.89371	0.848
8.93479	0.84
8.97587	0.838
9.01694	0.835
9.05802	0.812
9.09909	0.697
9.14017	0.678
9.18125	0.773
9.22232	0.807
9.2634	0.814
9.30447	0.814
9.34555	0.807
9.38663	0.802
9.4277	0.795
9.46878	0.778
9.50985	0.758
9.55093	0.727
9.59201	0.704
9.63308	0.715
9.67416	0.751
9.71524	0.782
9.75631	0.811
9.79739	0.828
9.83846	0.831
9.87954	0.816
9.92062	0.78
9.96169	0.724
10.0028	0.639
10.0438	0.564
10.0849	0.534
10.126	0.508
10.1671	0.52
10.2081	0.726
10.2492	0.802
10.2903	0.833
10.3314	0.841
10.3725	0.85
10.4135	0.853
10.4546	0.853
10.4957	0.858
10.5368	0.862
10.5778	0.863
10.6189	0.865
10.66	0.862
10.7011	0.862
10.7421	0.858
10.7832	0.857
10.8243	0.836
10.8654	0.784
10.9064	0.755
10.9475	0.795
10.9886	0.838
11.0297	0.855
11.0707	0.855
11.1118	0.845
11.1529	0.85
11.194	0.857
11.2351	0.86
11.2761	0.862
11.3172	0.863
11.3583	0.862
11.3994	0.86
11.4404	0.865
11.4815	0.865
11.5226	0.865
11.5637	0.86
11.6047	0.858
11.6458	0.857
11.6869	0.857
11.728	0.853
11.769	0.848
11.8101	0.843
11.8512	0.835
11.8923	0.824
11.9333	0.819
11.9744	0.812
12.0155	0.809
12.0566	0.799
12.0977	0.785
12.1387	0.77
12.1798	0.756
12.2209	0.741
12.262	0.719
12.303	0.681
12.3441	0.612
12.3852	0.532
12.4263	0.411
12.4673	0.282
12.5084	0.188
12.5495	0.193
12.5906	0.321
12.6316	0.542
12.6727	0.69
12.7138	0.767
12.7549	0.787
12.7959	0.806
12.837	0.828
12.8781	0.838
12.9192	0.84
12.9602	0.841
13.0013	0.841
13.0424	0.845
13.0835	0.845
13.1246	0.845
13.1656	0.845
13.2067	0.845
13.2478	0.845
13.2889	0.845
13.3299	0.845
13.371	0.84
13.4121	0.838
13.4532	0.829
13.4942	0.818
13.5353	0.801
13.5764	0.768
13.6175	0.668
13.6585	0.557
13.6996	0.525
13.7407	0.663
13.7818	0.748
13.8228	0.768
13.8639	0.775
13.905	0.777
13.9461	0.78
13.9872	0.782
14.0282	0.777
14.0693	0.765
14.1104	0.738
14.1515	0.685
14.1925	0.641
14.2336	0.639
14.2747	0.678
14.3158	0.715
14.3568	0.732
14.3979	0.736
14.439	0.736
14.4801	0.734
14.5211	0.731
14.5622	0.727
14.6033	0.721
14.6444	0.717
14.6854	0.712
14.7265	0.704
14.7676	0.698
14.8087	0.692
14.8498	0.687
14.8908	0.676
14.9319	0.666
14.973	0.663
15.0141	0.656
15.0551	0.647
15.0962	0.639
15.1373	0.63
15.1784	0.624
15.2194	0.617
15.2605	0.608
15.3016	0.6
15.3427	0.59
15.3837	0.579
15.4248	0.569
15.4659	0.562
15.507	0.556
15.548	0.549
15.5891	0.544
15.6302	0.539
15.6713	0.53
15.7123	0.525
15.7534	0.52
15.7945	0.515
15.8356	0.51
15.8767	0.508
