Infrared Spectrum: 2,5-Dimethylphenylacetonitrile
Formula: C 10 H 11 N
CAS: 16213-85-7
State: gas
Origin: EPA-IR VAPOR PHASE LIBRARY
1/CM	ABSORBANCE
549.8	0.001741
559.445	0.0004748
569.09	0.000836
578.734	0.0008423
588.379	0.0005522
598.024	0.0007785
607.669	0.0007608
617.313	0.000964
626.958	0.001451
636.603	0.001521
646.248	0.0010249
655.893	0.0005272
665.537	0.000573
675.182	0.00046007
684.827	0.0007531
694.472	0.0011262
704.116	0.001631
713.761	0.001411
723.406	0.0011365
733.051	0.001316
742.695	0.001481
752.34	0.002191
761.985	0.002231
771.63	0.001751
781.275	0.002031
790.919	0.006161
800.564	0.015631
810.209	0.024081
819.854	0.011661
829.498	0.003211
839.143	0.002001
848.788	0.001751
858.433	0.002661
868.078	0.003891
877.722	0.003441
887.367	0.001911
897.012	0.001471
906.657	0.001671
916.301	0.002101
925.946	0.002051
935.591	0.001851
945.236	0.001961
954.88	0.001471
964.525	0.001288
974.17	0.0010875
983.815	0.001781
993.46	0.002411
1003.1	0.002221
1012.75	0.001611
1022.39	0.001461
1032.04	0.002141
1041.68	0.002231
1051.33	0.002071
1060.97	0.001891
1070.62	0.0010871
1080.26	0.0011502
1089.91	0.0011905
1099.55	0.001951
1109.2	0.002781
1118.84	0.002251
1128.49	0.001591
1138.13	0.001561
1147.78	0.002471
1157.42	0.003171
1167.07	0.001921
1176.71	0.001421
1186.36	0.0012671
1196	0.000894
1205.64	0.001631
1215.29	0.002031
1224.93	0.002371
1234.58	0.002601
1244.22	0.001941
1253.87	0.001731
1263.51	0.001991
1273.16	0.001801
1282.8	0.001611
1292.45	0.001971
1302.09	0.002181
1311.74	0.002101
1321.38	0.001791
1331.03	0.001751
1340.67	0.001841
1350.32	0.001991
1359.96	0.002061
1369.61	0.002381
1379.25	0.003551
1388.9	0.004381
1398.54	0.004361
1408.18	0.005411
1417.83	0.008991
1427.47	0.013301
1437.12	0.012911
1446.76	0.010221
1456.41	0.009861
1466.05	0.009031
1475.7	0.008051
1485.34	0.009211
1494.99	0.017191
1504.63	0.024581
1514.28	0.017631
1523.92	0.006871
1533.57	0.004271
1543.21	0.003671
1552.86	0.003351
1562.5	0.003221
1572.15	0.003121
1581.79	0.002921
1591.44	0.002611
1601.08	0.003501
1610.73	0.005491
1620.37	0.005271
1630.01	0.002671
1639.66	0.0012844
1649.3	0.0009837
1658.95	0.0008575
1668.59	0.0009565
1678.24	0.0010132
1687.88	0.0008389
1697.53	0.000671
1707.17	0.0006098
1716.82	0.0007894
1726.46	0.001117
1736.11	0.001511
1745.75	0.001591
1755.4	0.001381
1765.04	0.0010058
1774.69	0.0007259
1784.33	0.0007306
1793.98	0.0007152
1803.62	0.000706
1813.27	0.0010311
1822.91	0.0010786
1832.55	0.0009196
1842.2	0.0008636
1851.84	0.0010116
1861.49	0.0010369
1871.13	0.0012351
1880.78	0.0013312
1890.42	0.001491
1900.07	0.001371
1909.71	0.0008693
1919.36	0.0006294
1929	0.0005095
1938.65	0.0004392
1948.29	0.0005337
1957.94	0.0004797
1967.58	0.00041203
1977.23	0.0005155
1986.87	0.00044323
1996.52	0.00039962
2006.16	0.00042416
2015.81	0.0003463
2025.45	0.0003713
2035.1	0.00035616
2044.74	0.0003818
2054.38	0.00035488
2064.03	0.00035172
2073.67	0.00035137
2083.32	0.0004614
2092.96	0.00045718
2102.61	0.0005356
2112.25	0.00042044
2121.9	0.00041279
2131.54	0.0003432
2141.19	0.0003304
2150.83	0.00043205
2160.48	0.0002778
2170.12	0.0003383
2179.77	0.0003098
2189.41	0.00037475
2199.06	0.000319
2208.7	0.0003391
2218.35	0.00035454
2227.99	0.0004984
2237.64	0.000972
2247.28	0.001741
2256.92	0.001991
2266.57	0.0013574
2276.21	0.0006445
2285.86	0.0005346
2295.5	0.0004904
2305.15	0.00045452
2314.79	0.0005186
2324.44	0.0005766
2334.08	0.0005995
2343.73	0.0005726
2353.37	0.00043948
2363.02	0.0004255
2372.66	0.0005267
2382.31	0.0004491
2391.95	0.00044571
2401.6	0.00041917
2411.24	0.0005604
2420.89	0.0005496
2430.53	0.0004958
2440.18	0.0004725
2449.82	0.00042944
2459.47	0.0005781
2469.11	0.0005509
2478.75	0.0005572
2488.4	0.0005322
2498.04	0.00045837
2507.69	0.00041767
2517.33	0.0005122
2526.98	0.0005301
2536.62	0.0005281
2546.27	0.0005028
2555.91	0.00038072
2565.56	0.000559
2575.2	0.0006223
2584.85	0.0006357
2594.49	0.0006142
2604.14	0.0008108
2613.78	0.0006683
2623.43	0.0006337
2633.07	0.0005188
2642.72	0.000505
2652.36	0.0004919
2662.01	0.0005565
2671.65	0.0005203
2681.29	0.0005353
2690.94	0.0005198
2700.58	0.0006587
2710.23	0.0007882
2719.87	0.000831
2729.52	0.0010357
2739.16	0.001521
2748.81	0.001871
2758.45	0.001461
2768.1	0.0010076
2777.74	0.0008522
2787.39	0.0010708
2797.03	0.0011448
2806.68	0.001491
2816.32	0.001671
2825.97	0.002431
2835.61	0.003131
2845.26	0.004181
2854.9	0.006041
2864.55	0.009641
2874.19	0.013631
2883.84	0.014771
2893.48	0.013251
2903.12	0.012881
2912.77	0.015631
2922.41	0.023291
2932.06	0.031751
2941.7	0.028251
2951.35	0.018761
2960.99	0.014061
2970.64	0.012661
2980.28	0.013191
2989.93	0.014331
2999.57	0.015771
3009.22	0.018711
3018.86	0.019951
3028.51	0.017951
3038.15	0.015201
3047.8	0.015561
3057.44	0.015121
3067.09	0.010681
3076.73	0.006911
3086.38	0.004581
3096.02	0.003401
3105.67	0.002511
3115.31	0.002371
3124.95	0.002231
3134.6	0.001751
3144.24	0.0012345
3153.89	0.0010642
3163.53	0.0007071
3173.18	0.0008976
3182.82	0.000833
3192.47	0.0006885
3202.11	0.0006692
3211.76	0.000370806
3221.4	0.0005261
3231.05	0.0006166
3240.69	0.00041592
3250.34	0.0003397
3259.98	0.0004617
3269.63	0.0004996
3279.27	0.00035313
3288.92	0.0002728
3298.56	0.0002683
3308.21	0.00043401
3317.85	0.000228
3327.49	0.000259
3337.14	0.0004915
3346.78	0.000370143
3356.43	0.000141
3366.07	0.0002801
3375.72	0.0003399
3385.36	0.0002614
3395.01	0.000107
3404.65	0.0002746
3414.3	0.0002785
3423.94	0.00014
3433.59	0.0003412
3443.23	0.0003244
3452.88	0.0002858
3462.52	0.00040456
3472.17	0.00038309
3481.81	0.0002922
3491.46	0.0003075
3501.1	0.000206
3510.75	0.000232
3520.39	0.0003524
3530.04	0.000192
3539.68	0.0003055
3549.32	0.000234
3558.97	0.000229
3568.61	0.000109
3578.26	0.0002979
3587.9	0.000249
3597.55	0.0003505
3607.19	0.000364213
3616.84	0.00018
3626.48	0.000254
3636.13	0.0004102
3645.77	0.000219
3655.42	6.6e-05
3665.06	0.000151
3674.71	0.0003077
3684.35	0.000311
3694	0.000366739
3703.64	0.000212
3713.29	0.000208
3722.93	0.0003256
3732.58	0.0002881
3742.22	0.00042899
3751.86	0.00038391
3761.51	0.000215
3771.15	0.00040073
3780.8	0.0003265
3790.44	0.0003122
3800.09	0.0002987
3809.73	0.00038066
3819.38	0.000146
3829.02	0.00035507
3838.67	0.00042522
3848.31	0.0005125
3857.96	0.0003044
3867.6	0.000208
3877.25	0.00037549
3886.89	0.00037563
3896.54	0.0002706
3906.18	0.00040635
3915.83	0.0005471
3925.47	0.0003193
3935.12	0.0004934
3944.76	0.00044928
3954.41	0.00039812
3964.05	0.0003017
3973.69	0.000237
3983.34	0.000317
3992.98	0.000226
