Infrared Spectrum: 3,5-Di-t-butylbenzoic acid
Formula: C 15 H 22 O 2
CAS: 16225-26-6
State: gas
Origin: EPA-IR VAPOR PHASE LIBRARY
1/CM	ABSORBANCE
549.8	0.002741
559.445	0.002881
569.09	0.003881
578.735	0.005191
588.38	0.008191
598.025	0.006491
607.67	0.003461
617.315	0.001841
626.96	0.0013863
636.605	0.001721
646.251	0.007131
655.896	0.014911
665.541	0.002541
675.186	0.0009711
684.831	0.0007382
694.476	0.0013998
704.121	0.003301
713.766	0.0012916
723.411	0.0006258
733.056	0.00057425
742.701	0.0006251
752.346	0.0010258
761.991	0.002861
771.636	0.006631
781.281	0.003051
790.926	0.0013463
800.571	0.0010858
810.216	0.0008197
819.861	0.0007754
829.507	0.0005321
839.152	0.0005831
848.797	0.000688
858.442	0.0006995
868.087	0.0010232
877.732	0.002371
887.377	0.004991
897.022	0.004801
906.667	0.002061
916.312	0.001511
925.957	0.0012193
935.602	0.00103
945.247	0.0009265
954.892	0.0007349
964.537	0.0006299
974.182	0.000702
983.827	0.0005916
993.472	0.00057424
1003.12	0.0007245
1012.76	0.0007185
1022.41	0.0008714
1032.05	0.0008544
1041.7	0.0011843
1051.34	0.001821
1060.99	0.002041
1070.63	0.001681
1080.28	0.002671
1089.92	0.008751
1099.57	0.027741
1109.21	0.021951
1118.86	0.006281
1128.5	0.006201
1138.15	0.006171
1147.79	0.005791
1157.44	0.007121
1167.08	0.010451
1176.73	0.016181
1186.37	0.022021
1196.02	0.016621
1205.66	0.007221
1215.31	0.003911
1224.95	0.003461
1234.6	0.005351
1244.24	0.009471
1253.89	0.007791
1263.53	0.005541
1273.18	0.005141
1282.82	0.004261
1292.47	0.002651
1302.11	0.002801
1311.76	0.003601
1321.4	0.004451
1331.05	0.007381
1340.69	0.010401
1350.34	0.007521
1359.98	0.006941
1369.63	0.009311
1379.27	0.007791
1388.92	0.004771
1398.56	0.004481
1408.21	0.002431
1417.85	0.001891
1427.5	0.002601
1437.14	0.003441
1446.79	0.004571
1456.43	0.005241
1466.08	0.005631
1475.73	0.007181
1485.37	0.005571
1495.02	0.002281
1504.66	0.0012014
1514.31	0.0009013
1523.95	0.0008309
1533.6	0.0009154
1543.24	0.0010482
1552.89	0.0010861
1562.53	0.00116
1572.18	0.001316
1581.82	0.002171
1591.47	0.004651
1601.11	0.006701
1610.76	0.003391
1620.4	0.0013752
1630.05	0.0009629
1639.69	0.000787
1649.34	0.0006968
1658.98	0.0008342
1668.63	0.000847
1678.27	0.0009475
1687.92	0.0010402
1697.56	0.001491
1707.21	0.003131
1716.85	0.003401
1726.5	0.002961
1736.14	0.005521
1745.79	0.021101
1755.43	0.056091
1765.08	0.025861
1774.72	0.006381
1784.37	0.002961
1794.01	0.003271
1803.66	0.004091
1813.3	0.002481
1822.95	0.0013917
1832.59	0.0010121
1842.24	0.0007501
1851.88	0.0006114
1861.53	0.00057715
1871.17	0.0006934
1880.82	0.0008003
1890.46	0.0006531
1900.11	0.00057638
1909.75	0.00047777
1919.4	0.000480087
1929.04	0.000483189
1938.69	0.000482067
1948.33	0.00050309
1957.98	0.0004965
1967.62	0.00051595
1977.27	0.00053715
1986.91	0.0005938
1996.56	0.00055315
2006.2	0.000486249
2015.85	0.00049909
2025.49	0.0004393
2035.14	0.000481586
2044.78	0.00051992
2054.43	0.00051586
2064.07	0.00047695
2073.72	0.00050175
2083.36	0.0004661
2093.01	0.000359
2102.65	0.0004181
2112.3	0.0004474
2121.94	0.000484455
2131.59	0.0004385
2141.23	0.000463
2150.88	0.000490205
2160.52	0.000452
2170.17	0.0004319
2179.81	0.000464
2189.46	0.0004623
2199.1	0.0005821
2208.75	0.00049842
2218.39	0.000487543
2228.04	0.0004625
2237.68	0.00051016
2247.33	0.0004653
2256.97	0.00049361
2266.62	0.00049504
2276.26	0.0004484
2285.91	0.00050325
2295.55	0.0004548
2305.2	0.00047613
2314.84	0.0003969
2324.49	0.0004114
2334.13	0.00049765
2343.78	0.0004377
2353.42	0.00051941
2363.07	0.0004085
2372.72	0.00049909
2382.36	0.0006051
2392.01	0.00053356
2401.65	0.00047969
2411.3	0.000489941
2420.94	0.0005098
2430.59	0.00051869
2440.23	0.00055061
2449.88	0.00047787
2459.52	0.0004388
2469.17	0.00053343
2478.81	0.00051794
2488.46	0.00052879
2498.1	0.00055791
2507.75	0.00054024
2517.39	0.00056337
2527.04	0.0004377
2536.68	0.00054959
2546.33	0.00052005
2555.97	0.0005722
2565.62	0.0006076
2575.26	0.0006577
2584.91	0.0006974
2594.55	0.0006534
2604.2	0.00057596
2613.84	0.0005956
2623.49	0.00051199
2633.13	0.0005901
2642.78	0.0006243
2652.42	0.0007042
2662.07	0.0006949
2671.71	0.0006151
2681.36	0.0006067
2691	0.0005939
2700.65	0.0006529
2710.29	0.0006347
2719.94	0.0008444
2729.58	0.0008368
2739.23	0.0008353
2748.87	0.0007704
2758.52	0.0008229
2768.16	0.0009394
2777.81	0.0007475
2787.45	0.0008724
2797.1	0.0008808
2806.74	0.0009371
2816.39	0.0011545
2826.03	0.0012265
2835.68	0.0013862
2845.32	0.001791
2854.97	0.002721
2864.61	0.004821
2874.26	0.007731
2883.9	0.008201
2893.55	0.007611
2903.19	0.008571
2912.84	0.010421
2922.48	0.009981
2932.13	0.010061
2941.77	0.011471
2951.42	0.018101
2961.06	0.034671
2970.71	0.043651
2980.35	0.020561
2990	0.007601
2999.64	0.003371
3009.29	0.001671
3018.93	0.0012977
3028.58	0.0010723
3038.22	0.0009661
3047.87	0.001047
3057.51	0.0009247
3067.16	0.001041
3076.8	0.0011889
3086.45	0.0013944
3096.09	0.0012165
3105.74	0.0008856
3115.38	0.0007057
3125.03	0.0006731
3134.67	0.0007557
3144.32	0.0006468
3153.96	0.0006138
3163.61	0.0006245
3173.25	0.0006631
3182.9	0.0006704
3192.54	0.00083
3202.19	0.0006403
3211.83	0.0005977
3221.48	0.0005978
3231.12	0.0006504
3240.77	0.00053974
3250.41	0.00052449
3260.06	0.0005896
3269.7	0.0004017
3279.35	0.0004029
3289	0.00051727
3298.64	0.000333
3308.29	0.000291
3317.93	0.000368
3327.58	0.000294
3337.22	0.000333
3346.87	0.000362
3356.51	0.0003
3366.16	0.000347
3375.8	0.000348
3385.45	0.000309
3395.09	0.000211
3404.74	0.000152
3414.38	0.000291
3424.03	0.000351
3433.67	0.0003832
3443.32	0.000227
3452.96	0.000335
3462.61	0.000322
3472.25	0.000284
3481.9	0.000357
3491.54	0.00056128
3501.19	0.00053214
3510.83	0.000352
3520.48	0.000305
3530.12	0.000269
3539.77	0.000345
3549.41	0.000357
3559.06	0.0007294
3568.7	0.003071
3578.35	0.015521
3587.99	0.012791
3597.64	0.0012874
3607.28	0.0004159
3616.93	0.000281
3626.57	0.00027
3636.22	0.000371
3645.86	0.000259
3655.51	0.000165
3665.15	6.6e-05
3674.8	0.000184
3684.44	4.7e-05
3694.09	0.000231
3703.73	0.00015
3713.38	0.000135
3723.02	0.000194
3732.67	7.1e-05
3742.31	0.000111
3751.96	0.000162
3761.6	0.000351
3771.25	0.000187
3780.89	0.000213
3790.54	0.00022
3800.18	0.000136
3809.83	0.000352
3819.47	0.000276
3829.12	0.000193
3838.76	0.000114
3848.41	3.2e-05
3858.05	0.000206
3867.7	0.000259
3877.34	0.000241
3886.99	0.000308
3896.63	0.000359
3906.28	0.000138
3915.92	0.000219
3925.57	0.000273
3935.21	0.000349
3944.86	0.000297
3954.5	0.000291
3964.15	0.000333
3973.79	0.000232
3983.44	0.00028
3993.08	0.000197
