Infrared Spectrum: 5-BENZOFURANOL, 2-PIPERIDINO-2,3-DIHYDRO-3-ETHYL-
Formula: C15 H21 N O2
CAS: 1623-77-4
State: SOLID (KBr PELLET)
Melting point: 173-175 C
Class: COBLENTZ
Instrument: Not specified, most likely a prism, grating, or hybrid spectrometer.
Sampling: TRANSMISSION
Resolution: 4
Origin: TENNESSEE EASTMAN COMPANY, RESEARCH LABORATORIES
MICROMETERS	TRANSMITTANCE
2.191	0.965
2.23193	0.965
2.27287	0.958
2.3138	0.955
2.35474	0.953
2.39567	0.953
2.43661	0.958
2.47754	0.958
2.51847	0.958
2.55941	0.96
2.60034	0.963
2.64128	0.963
2.68221	0.963
2.72315	0.934
2.76408	0.849
2.80501	0.783
2.84595	0.728
2.88688	0.668
2.92782	0.629
2.96875	0.626
3.00969	0.619
3.05062	0.574
3.09156	0.504
3.13249	0.428
3.17342	0.36
3.21436	0.319
3.25529	0.303
3.29623	0.293
3.33716	0.36
3.3781	0.118
3.41903	0.248
3.45996	0.368
3.5009	0.217
3.54183	0.406
3.58277	0.518
3.6237	0.572
3.66464	0.572
3.70557	0.555
3.7465	0.543
3.78744	0.59
3.82837	0.641
3.86931	0.662
3.91024	0.672
3.95118	0.747
3.99211	0.773
4.03304	0.797
4.07398	0.821
4.11491	0.845
4.15585	0.855
4.19678	0.879
4.23772	0.909
4.27865	0.912
4.31958	0.919
4.36052	0.933
4.40145	0.945
4.44239	0.945
4.48332	0.948
4.52426	0.951
4.56519	0.953
4.60613	0.955
4.64706	0.953
4.68799	0.953
4.72893	0.955
4.76986	0.95
4.8108	0.957
4.85173	0.953
4.89267	0.955
4.9336	0.955
4.97453	0.955
5.01547	0.963
5.0564	0.963
5.09734	0.963
5.13827	0.963
5.17921	0.962
5.22014	0.96
5.26107	0.962
5.30201	0.962
5.34294	0.963
5.38388	0.963
5.42481	0.962
5.46575	0.951
5.50668	0.924
5.54761	0.897
5.58855	0.922
5.62948	0.941
5.67042	0.946
5.71135	0.941
5.75229	0.943
5.79322	0.936
5.83415	0.922
5.87509	0.917
5.91602	0.909
5.95696	0.902
5.99789	0.886
6.03883	0.866
6.07976	0.845
6.1207	0.826
6.16163	0.809
6.20256	0.797
6.2435	0.629
6.28443	0.794
6.32537	0.867
6.3663	0.886
6.40724	0.885
6.44817	0.866
6.4891	0.861
6.53004	0.842
6.57097	0.792
6.61191	0.663
6.65284	0.289
6.69378	0.075
6.73471	0.166
6.77564	0.082
6.81658	0.164
6.85751	0.324
6.89845	0.514
6.93938	0.651
6.98032	0.711
7.02125	0.595
7.06218	0.536
7.10312	0.452
7.14405	0.562
7.18499	0.524
7.22592	0.325
7.26686	0.277
7.30779	0.284
7.34872	0.24
7.38966	0.25
7.43059	0.259
7.47153	0.404
7.51246	0.569
7.5534	0.603
7.59433	0.627
7.63527	0.36
7.6762	0.504
7.71713	0.701
7.75807	0.663
7.799	0.5
7.83994	0.32
7.88087	0.444
7.92181	0.55
7.96274	0.701
8.00367	0.665
8.04461	0.62
8.08554	0.351
8.12648	0.212
8.16741	0.185
8.20835	0.094
8.24928	0.039
8.29021	0.152
8.33115	0.138
8.37208	0.132
8.41302	0.293
8.45395	0.511
8.49489	0.626
8.53582	0.617
8.57675	0.384
8.61769	0.293
8.65862	0.632
8.69956	0.77
8.74049	0.639
8.78143	0.452
8.82236	0.481
8.86329	0.319
8.90423	0.497
8.94516	0.55
8.9861	0.315
9.02703	0.186
9.06797	0.404
9.1089	0.584
9.14984	0.608
9.19077	0.777
9.2317	0.864
9.27264	0.907
9.31357	0.914
9.35451	0.854
9.39544	0.632
9.43638	0.718
9.47731	0.843
9.51824	0.874
9.55918	0.84
9.60011	0.806
9.64105	0.753
9.68198	0.596
9.72292	0.509
9.76385	0.74
9.80478	0.83
9.84572	0.871
9.88665	0.902
9.92759	0.917
9.96852	0.927
10.0095	0.924
10.0504	0.91
10.0913	0.888
10.1323	0.804
10.1732	0.68
10.2141	0.744
10.2551	0.828
10.296	0.854
10.3369	0.857
10.3779	0.819
10.4188	0.694
10.4597	0.634
10.5007	0.521
10.5416	0.421
10.5825	0.524
10.6235	0.716
10.6644	0.73
10.7053	0.617
10.7463	0.355
10.7872	0.272
10.8281	0.504
10.8691	0.727
10.91	0.759
10.9509	0.626
10.9919	0.569
11.0328	0.509
11.0737	0.524
11.1147	0.43
11.1556	0.31
11.1966	0.207
11.2375	0.195
11.2784	0.157
11.3194	0.104
11.3603	0.118
11.4012	0.252
11.4422	0.42
11.4831	0.509
11.524	0.547
11.565	0.531
11.6059	0.571
11.6468	0.547
11.6878	0.648
11.7287	0.711
11.7696	0.749
11.8106	0.763
11.8515	0.773
11.8924	0.783
11.9334	0.782
11.9743	0.77
12.0152	0.718
12.0562	0.602
12.0971	0.324
12.138	0.222
12.179	0.365
12.2199	0.499
12.2608	0.536
12.3018	0.531
12.3427	0.454
12.3836	0.324
12.4246	0.202
12.4655	0.15
12.5064	0.132
12.5474	0.15
12.5883	0.274
12.6293	0.497
12.6702	0.578
12.7111	0.608
12.7521	0.61
12.793	0.559
12.8339	0.435
12.8749	0.329
12.9158	0.355
12.9567	0.488
12.9977	0.584
13.0386	0.656
13.0795	0.699
13.1205	0.725
13.1614	0.744
13.2023	0.749
13.2433	0.749
13.2842	0.746
13.3251	0.739
13.3661	0.734
13.407	0.727
13.4479	0.716
13.4889	0.687
13.5298	0.644
13.5707	0.612
13.6117	0.595
13.6526	0.614
13.6935	0.653
13.7345	0.684
13.7754	0.694
13.8163	0.679
13.8573	0.668
13.8982	0.68
13.9392	0.699
13.9801	0.73
14.021	0.744
14.062	0.751
14.1029	0.759
14.1438	0.77
14.1848	0.777
14.2257	0.78
14.2666	0.782
14.3076	0.785
14.3485	0.783
14.3894	0.77
14.4304	0.744
14.4713	0.698
14.5122	0.639
14.5532	0.578
14.5941	0.554
14.635	0.586
14.676	0.648
14.7169	0.692
14.7578	0.727
14.7988	0.751
14.8397	0.763
14.8806	0.78
14.9216	0.789
14.9625	0.792
15.0034	0.794
15.0444	0.789
15.0853	0.79
15.1262	0.789
15.1672	0.787
15.2081	0.782
15.249	0.78
15.29	0.775
15.3309	0.768
15.3719	0.761
15.4128	0.754
15.4537	0.746
15.4947	0.742
15.5356	0.737
15.5765	0.734
15.6175	0.725
15.6584	0.723
15.6993	0.718
15.7403	0.715
15.7812	0.706
15.8221	0.701
15.8631	0.696
15.904	0.696
15.9449	0.691
