Infrared Spectrum: Alpha,Alpha-DIPHENYL-Beta-PROPIOLACTONE
Formula: C15 H12 O2
CAS: 16230-71-0
State: SOLUTION (7% IN CHCl3)
Class: COBLENTZ
Instrument: PERKIN-ELMER
Sampling: TRANSMISSION
Path length: 0.010 CM
Resolution: 4
Origin: ABBOTT LABORATORIES - WASHBURN
MICROMETERS	TRANSMITTANCE
2.063	0.87
2.10268	0.877
2.14237	0.8767
2.18205	0.8837
2.22174	0.889
2.26142	0.8935
2.3011	0.895
2.34079	0.8999
2.38047	0.8991
2.42016	0.9038
2.45984	0.91
2.49952	0.9071
2.53921	0.902
2.57889	0.91
2.61858	0.917
2.65826	0.915
2.69794	0.9123
2.73763	0.9102
2.77731	0.904
2.817	0.8941
2.85668	0.8772
2.89636	0.8779
2.93605	0.887
2.97573	0.89
3.01542	0.889
3.0551	0.8899
3.09478	0.894
3.13447	0.895
3.17415	0.9
3.21384	0.905
3.25352	0.8948
3.2932	0.827
3.33289	0.7862
3.37257	0.8001
3.41226	0.8724
3.45194	0.909
3.49162	0.921
3.53131	0.9407
3.57099	0.947
3.61068	0.9569
3.65036	0.9588
3.69004	0.959
3.72973	0.956
3.76941	0.959
3.8091	0.959
3.84878	0.9471
3.88846	0.9372
3.92815	0.932
3.96783	0.9341
4.00752	0.931
4.0472	0.929
4.08688	0.9144
4.12657	0.9091
4.16625	0.8974
4.20594	0.895
4.24562	0.895
4.2853	0.895
4.32499	0.897
4.36467	0.892
4.40436	0.877
4.44404	0.873
4.48373	0.867
4.52341	0.857
4.56309	0.852
4.60278	0.8484
4.64246	0.8498
4.68215	0.85
4.72183	0.845
4.76151	0.842
4.8012	0.843
4.84088	0.838
4.88057	0.8361
4.92025	0.83
4.95993	0.818
4.99962	0.816
5.0393	0.8176
5.07899	0.7999
5.11867	0.783
5.15835	0.7832
5.19804	0.8095
5.23772	0.815
5.27741	0.7942
5.31709	0.7636
5.35677	0.7428
5.39646	0.7278
5.43614	0.4786
5.47583	0.0664
5.51551	0.1024
5.55519	0.3507
5.59488	0.5756
5.63456	0.7063
5.67425	0.737
5.71393	0.7649
5.75361	0.7744
5.7933	0.7886
5.83298	0.7979
5.87267	0.806
5.91235	0.8102
5.95203	0.8018
5.99172	0.796
6.0314	0.7925
6.07109	0.796
6.11077	0.7978
6.15045	0.796
6.19014	0.7867
6.22982	0.745
6.26951	0.6616
6.30919	0.737
6.34887	0.7376
6.38856	0.7863
6.42824	0.7998
6.46793	0.8064
6.50761	0.8068
6.54729	0.806
6.58698	0.806
6.62666	0.7995
6.66635	0.7779
6.70603	0.5166
6.74571	0.5501
6.7854	0.7366
6.82508	0.7069
6.86477	0.7291
6.90445	0.7256
6.94413	0.5038
6.98382	0.7414
7.0235	0.7829
7.06319	0.7955
7.10287	0.803
7.14255	0.794
7.18224	0.7932
7.22192	0.8007
7.26161	0.7909
7.30129	0.796
7.34097	0.8
7.38066	0.798
7.42034	0.796
7.46003	0.796
7.49971	0.778
7.53939	0.7438
7.57908	0.6501
7.61876	0.6158
7.65845	0.6197
7.69813	0.7139
7.73781	0.77
7.7775	0.7826
7.81718	0.7781
7.85687	0.7828
7.89655	0.7875
7.93623	0.789
7.97592	0.788
8.0156	0.786
8.05529	0.781
8.09497	0.7658
8.13465	0.7413
8.17434	0.719
8.21402	0.7235
8.25371	0.7367
8.29339	0.747
8.33307	0.7512
8.37276	0.7642
8.41244	0.7642
8.45213	0.747
8.49181	0.7417
8.53149	0.744
8.57118	0.7432
8.61086	0.7333
8.65055	0.7167
8.69023	0.697
8.72991	0.6776
8.7696	0.6215
8.80928	0.5316
8.84897	0.434
8.88865	0.2913
8.92834	0.22
8.96802	0.22
9.0077	0.2359
9.04739	0.252
9.08707	0.3014
9.12676	0.3989
9.16644	0.5032
9.20612	0.552
9.24581	0.4607
9.28549	0.4204
9.32518	0.5869
9.36486	0.6716
9.40454	0.7122
9.44423	0.7398
9.48391	0.7524
9.5236	0.7508
9.56328	0.7469
9.60296	0.7726
9.64265	0.784
9.68233	0.78
9.72202	0.7679
9.7617	0.6638
9.80138	0.5894
9.84107	0.6956
9.88075	0.7315
9.92044	0.7376
9.96012	0.727
9.9998	0.7146
10.0395	0.6998
10.0792	0.6645
10.1189	0.5469
10.1585	0.5337
10.1982	0.5575
10.2379	0.6384
10.2776	0.707
10.3173	0.7328
10.357	0.7515
10.3966	0.763
10.4363	0.7707
10.476	0.783
10.5157	0.7885
10.5554	0.79
10.5951	0.791
10.6347	0.7901
10.6744	0.788
10.7141	0.7813
10.7538	0.7837
10.7935	0.7819
10.8332	0.7575
10.8729	0.7147
10.9125	0.6072
10.9522	0.4793
10.9919	0.4116
11.0316	0.3944
11.0713	0.377
11.111	0.3465
11.1506	0.3533
11.1903	0.4869
11.23	0.615
11.2697	0.687
11.3094	0.7273
11.3491	0.7501
11.3887	0.7685
11.4284	0.7767
11.4681	0.7865
11.5078	0.793
11.5475	0.796
11.5872	0.796
11.6268	0.7896
11.6665	0.782
11.7062	0.7696
11.7459	0.757
11.7856	0.7543
11.8253	0.763
11.865	0.7727
11.9046	0.7823
11.9443	0.783
11.984	0.79
12.0237	0.8043
12.0634	0.803
12.1031	0.805
12.1427	0.801
12.1824	0.8096
12.2221	0.8173
12.2618	0.8205
12.3015	0.825
12.3412	0.828
12.3808	0.835
12.4205	0.8397
12.4602	0.842
12.4999	0.842
12.5396	0.845
12.5793	0.848
12.6189	0.8622
12.6586	0.8721
12.6983	0.884
12.738	0.8898
12.7777	0.9013
12.8174	0.911
12.8571	0.9213
12.8967	0.924
12.9364	0.9261
12.9761	0.929
13.0158	0.9436
13.0555	0.9483
13.0952	0.949
13.1348	0.947
13.1745	0.9467
13.2142	0.9461
13.2539	0.949
13.2936	0.951
13.3333	0.951
13.3729	0.949
13.4126	0.949
13.4523	0.946
13.492	0.9461
13.5317	0.947
13.5714	0.946
13.611	0.946
13.6507	0.946
13.6904	0.9351
13.7301	0.927
13.7698	0.9293
13.8095	0.937
13.8492	0.9394
13.8888	0.9294
13.9285	0.9107
13.9682	0.8923
14.0079	0.8395
14.0476	0.7896
14.0873	0.743
14.1269	0.6853
14.1666	0.5952
14.2063	0.4909
14.246	0.3698
14.2857	0.2972
14.3254	0.2496
14.365	0.2328
14.4047	0.2398
14.4444	0.2828
14.4841	0.3721
14.5238	0.4696
14.5635	0.5579
14.6031	0.6139
14.6428	0.6393
14.6825	0.6815
14.7222	0.7064
14.7619	0.7266
14.8016	0.7452
14.8413	0.7719
14.8809	0.7833
14.9206	0.7862
14.9603	0.789
15	0.7882
15.0397	0.7883
15.0794	0.789
15.119	0.786
15.1587	0.7945
15.1984	0.8166
15.2381	0.8309
15.2778	0.8376
15.3175	0.842
15.3571	0.842
15.3968	0.8459
