Infrared Spectrum: p-Octylaniline
Formula: C 14 H 23 N
CAS: 16245-79-7
State: gas
Origin: EPA-IR VAPOR PHASE LIBRARY
1/CM	ABSORBANCE
549.8	0.006933
559.445	0.004753
569.09	0.003923
578.734	0.003483
588.379	0.003113
598.024	0.003263
607.669	0.003793
617.313	0.004273
626.958	0.005743
636.603	0.009283
646.248	0.014423
655.893	0.015593
665.537	0.011733
675.182	0.009683
684.827	0.008503
694.472	0.007233
704.116	0.006443
713.761	0.005893
723.406	0.005493
733.051	0.005223
742.695	0.004983
752.34	0.004893
761.985	0.005223
771.63	0.005603
781.275	0.006293
790.919	0.007743
800.564	0.010733
810.209	0.012923
819.854	0.012263
829.498	0.009193
839.143	0.007253
848.788	0.005213
858.433	0.003913
868.078	0.003073
877.722	0.002533
887.367	0.002303
897.012	0.002043
906.657	0.001913
916.301	0.001953
925.946	0.001953
935.591	0.002073
945.236	0.001963
954.88	0.001673
964.525	0.001973
974.17	0.002083
983.815	0.002093
993.46	0.002093
1003.1	0.001943
1012.75	0.002413
1022.39	0.002453
1032.04	0.002103
1041.68	0.002023
1051.33	0.002413
1060.97	0.003313
1070.62	0.003593
1080.26	0.003923
1089.91	0.003783
1099.55	0.002473
1109.2	0.003113
1118.84	0.003793
1128.49	0.003183
1138.13	0.002233
1147.78	0.001613
1157.42	0.001753
1167.07	0.002233
1176.71	0.006543
1186.36	0.004253
1196	0.001863
1205.64	0.001833
1215.29	0.001473
1224.93	0.002453
1234.58	0.003083
1244.22	0.005683
1253.87	0.011773
1263.51	0.025713
1273.16	0.024353
1282.8	0.010293
1292.45	0.005113
1302.09	0.003993
1311.74	0.003553
1321.38	0.003263
1331.03	0.003643
1340.67	0.004253
1350.32	0.004413
1359.96	0.003823
1369.61	0.003223
1379.25	0.003003
1388.9	0.002693
1398.54	0.002213
1408.18	0.002283
1417.83	0.002643
1427.47	0.003323
1437.12	0.004483
1446.76	0.007053
1456.41	0.008853
1466.05	0.008673
1475.7	0.006373
1485.34	0.005023
1494.99	0.007083
1504.63	0.019033
1514.28	0.047613
1523.92	0.023293
1533.57	0.006993
1543.21	0.003813
1552.86	0.002593
1562.5	0.002623
1572.15	0.002953
1581.79	0.003843
1591.44	0.005013
1601.08	0.007513
1610.73	0.013543
1620.37	0.024813
1630.01	0.027603
1639.66	0.012833
1649.3	0.005263
1658.95	0.003283
1668.59	0.002353
1678.24	0.001853
1687.88	0.001603
1697.53	0.001623
1707.17	0.001473
1716.82	0.001523
1726.46	0.0012677
1736.11	0.001323
1745.75	0.001343
1755.4	0.0011427
1765.04	0.0009999
1774.69	0.0008184
1784.33	0.0006632
1793.98	0.0007457
1803.62	0.0006914
1813.27	0.0007617
1822.91	0.0007861
1832.55	0.0008963
1842.2	0.0011169
1851.84	0.001373
1861.49	0.001773
1871.13	0.001693
1880.78	0.0011937
1890.42	0.0009072
1900.07	0.0008798
1909.71	0.0008492
1919.36	0.0008467
1929	0.000814
1938.65	0.0008273
1948.29	0.000822
1957.94	0.000727
1967.58	0.0006788
1977.23	0.000674
1986.87	0.0006156
1996.52	0.0006314
2006.16	0.0007419
2015.81	0.0008117
2025.45	0.0008599
2035.1	0.0008387
2044.74	0.0008334
2054.38	0.0008011
2064.03	0.0007997
2073.67	0.000845
2083.32	0.0008057
2092.96	0.0007089
2102.61	0.000702
2112.25	0.0007209
2121.9	0.0005353
2131.54	0.0005617
2141.19	0.0005452
2150.83	0.0005976
2160.48	0.0006615
2170.12	0.0006967
2179.77	0.0005825
2189.41	0.0005045
2199.06	0.0005589
2208.7	0.0005861
2218.35	0.0005185
2227.99	0.0005335
2237.64	0.0005073
2247.28	0.000592
2256.92	0.0005638
2266.57	0.0006114
2276.21	0.0007008
2285.86	0.000719
2295.5	0.0007131
2305.15	0.000718
2314.79	0.0008253
2324.44	0.0007503
2334.08	0.0007281
2343.73	0.0007566
2353.37	0.0006462
2363.02	0.000501
2372.66	0.0005672
2382.31	0.0004573
2391.95	0.0005203
2401.6	0.0005456
2411.24	0.0006339
2420.89	0.0005214
2430.53	0.0005204
2440.18	0.0005287
2449.82	0.0005457
2459.47	0.0006074
2469.11	0.0005833
2478.75	0.0005197
2488.4	0.0005101
2498.04	0.0005964
2507.69	0.000522
2517.33	0.0006693
2526.98	0.0008243
2536.62	0.0007511
2546.27	0.0007373
2555.91	0.0007378
2565.56	0.0006662
2575.2	0.000674
2584.85	0.0008438
2594.49	0.0008656
2604.14	0.0009962
2613.78	0.0010271
2623.43	0.0009984
2633.07	0.0010371
2642.72	0.0010897
2652.36	0.001058
2662.01	0.0012105
2671.65	0.001413
2681.29	0.001363
2690.94	0.0012645
2700.58	0.0012612
2710.23	0.0011961
2719.87	0.0011928
2729.52	0.001393
2739.16	0.001423
2748.81	0.001483
2758.45	0.001433
2768.1	0.001713
2777.74	0.001953
2787.39	0.002153
2797.03	0.002583
2806.68	0.003023
2816.32	0.003783
2825.97	0.004953
2835.61	0.007143
2845.26	0.012733
2854.9	0.026983
2864.55	0.036983
2874.19	0.029003
2883.84	0.023333
2893.48	0.021723
2903.12	0.027743
2912.77	0.041843
2922.41	0.069663
2932.06	0.097823
2941.7	0.077053
2951.35	0.042853
2960.99	0.034253
2970.64	0.030843
2980.28	0.016663
2989.93	0.011333
2999.57	0.012093
3009.22	0.012753
3018.86	0.013463
3028.51	0.016033
3038.15	0.011983
3047.8	0.007833
3057.44	0.006523
3067.09	0.004923
3076.73	0.003653
3086.38	0.002963
3096.02	0.002773
3105.67	0.002353
3115.31	0.001883
3124.95	0.001693
3134.6	0.001373
3144.24	0.0011229
3153.89	0.0008827
3163.53	0.0007414
3173.18	0.0005931
3182.82	0.0006319
3192.47	0.0006139
3202.11	0.000617
3211.76	0.0007237
3221.4	0.0007568
3231.05	0.0006831
3240.69	0.000835
3250.34	0.0005594
3259.98	0.0005504
3269.63	0.0005648
3279.27	0.00037911
3288.92	0.00031102
3298.56	0.000178
3308.21	0.0002311
3317.85	0.000183
3327.49	0.0004064
3337.14	0.000175
3346.78	0.00034552
3356.43	0.0002757
3366.07	0.0006501
3375.72	0.0007213
3385.36	0.0009644
3395.01	0.002213
3404.65	0.003333
3414.3	0.002773
3423.94	0.001293
3433.59	0.0008599
3443.23	0.0005981
3452.88	0.0008224
3462.52	0.0009815
3472.17	0.001383
3481.81	0.002193
3491.46	0.002103
3501.1	0.001633
3510.75	0.0008987
3520.39	0.0006426
3530.04	0.0004283
3539.68	0.000147
3549.32	0.00035773
3558.97	0.00035395
3568.61	0.0003951
3578.26	9.8e-05
3587.9	4.3e-05
3597.55	0.000157
3607.19	0.000106
3616.84	0.0002702
3626.48	0.0004009
3636.13	0.00032197
3645.77	0.0004168
3655.42	0.000294315
3665.06	0.0002759
3674.71	0.0002208
3684.35	0.0003102
3694	0.0003779
3703.64	0.0004832
3713.29	0.0002598
3722.93	0.00034676
3732.58	0.0004052
3742.22	0.0002454
3751.86	0.0004005
3761.51	0.0004507
3771.15	0.0002626
3780.8	0.0002275
3790.44	0.0004327
3800.09	0.0002772
3809.73	0.0005202
3819.38	0.0003194
3829.02	0.00035204
3838.67	0.0004922
3848.31	0.000492
3857.96	0.0005238
3867.6	0.0006483
3877.25	0.0005439
3886.89	0.00038862
3896.54	0.0004993
3906.18	0.0004333
3915.83	0.00035733
3925.47	0.0004203
3935.12	0.0005195
3944.76	0.0004788
3954.41	0.0003082
3964.05	0.0004896
3973.69	0.000504
3983.34	0.0002917
3992.98	0.0002395
