Infrared Spectrum: 17-ETHYLENEDIOXY-3Alpha,5-CYCLO-5Alpha-ANDROSTAN-6Beta-OL ACETATE
Formula: C23 H34 O4
CAS: 1624-79-9
State: SOLUTION (7% IN CHCl3 FOR 2.5-13 MICRON) VS. SOLVENT
Melting point: 110-111 C
Class: COBLENTZ
Instrument: PERKIN-ELMER 21 (GRATING)
Instrument parameters: FILTER CHANGE AT 10 MICRON
Sampling: TRANSMISSION
Path length: 0.010 CM
Resolution: 2
Origin: ABBOTT LABORATORIES
MICROMETERS	TRANSMITTANCE
2.492	0.935
2.52075	0.939
2.54951	0.943
2.57826	0.945
2.60701	0.947
2.63577	0.948
2.66452	0.949
2.69327	0.95
2.72203	0.951
2.75078	0.948
2.77953	0.943
2.80828	0.949
2.83704	0.949
2.86579	0.943
2.89454	0.938
2.9233	0.938
2.95205	0.936
2.9808	0.941
3.00956	0.948
3.03831	0.95
3.06706	0.953
3.09582	0.951
3.12457	0.948
3.15332	0.95
3.18208	0.949
3.21083	0.947
3.23958	0.933
3.26834	0.919
3.29709	0.894
3.32584	0.811
3.3546	0.628
3.38335	0.39
3.4121	0.322
3.44085	0.354
3.46961	0.423
3.49836	0.439
3.52711	0.534
3.55587	0.8
3.58462	0.888
3.61337	0.929
3.64213	0.937
3.67088	0.939
3.69963	0.941
3.72839	0.944
3.75714	0.943
3.78589	0.941
3.81465	0.948
3.8434	0.95
3.87215	0.953
3.90091	0.954
3.92966	0.954
3.95841	0.955
3.98716	0.955
4.01592	0.951
4.04467	0.945
4.07342	0.941
4.10218	0.939
4.13093	0.937
4.15968	0.938
4.18844	0.939
4.21719	0.949
4.24594	0.95
4.2747	0.95
4.30345	0.949
4.3322	0.951
4.36096	0.954
4.38971	0.957
4.41846	0.961
4.44722	0.962
4.47597	0.957
4.50472	0.955
4.53348	0.954
4.56223	0.955
4.59098	0.956
4.61973	0.957
4.64849	0.957
4.67724	0.957
4.70599	0.956
4.73475	0.954
4.7635	0.953
4.79225	0.954
4.82101	0.954
4.84976	0.953
4.87851	0.948
4.90727	0.949
4.93602	0.951
4.96477	0.951
4.99353	0.953
5.02228	0.954
5.05103	0.954
5.07979	0.951
5.10854	0.95
5.13729	0.95
5.16604	0.951
5.1948	0.954
5.22355	0.951
5.2523	0.95
5.28106	0.95
5.30981	0.949
5.33856	0.949
5.36732	0.947
5.39607	0.947
5.42482	0.943
5.45358	0.942
5.48233	0.941
5.51108	0.936
5.53984	0.933
5.56859	0.933
5.59734	0.931
5.6261	0.923
5.65485	0.911
5.6836	0.894
5.71235	0.846
5.74111	0.715
5.76986	0.415
5.79861	0.228
5.82737	0.219
5.85612	0.265
5.88487	0.449
5.91363	0.76
5.94238	0.817
5.97113	0.849
5.99989	0.871
6.02864	0.876
6.05739	0.882
6.08615	0.891
6.1149	0.896
6.14365	0.896
6.17241	0.894
6.20116	0.891
6.22991	0.888
6.25867	0.889
6.28742	0.894
6.31617	0.895
6.34492	0.9
6.37368	0.905
6.40243	0.906
6.43118	0.909
6.45994	0.913
6.48869	0.917
6.51744	0.917
6.5462	0.917
6.57495	0.917
6.6037	0.908
6.63246	0.902
6.66121	0.897
6.68996	0.894
6.71872	0.882
6.74747	0.834
6.77622	0.725
6.80498	0.686
6.83373	0.676
6.86248	0.665
6.89123	0.658
6.91999	0.729
6.94874	0.736
6.97749	0.712
7.00625	0.733
7.035	0.783
7.06375	0.813
7.09251	0.834
7.12126	0.843
7.15001	0.831
7.17877	0.775
7.20752	0.677
7.23627	0.552
7.26503	0.485
7.29378	0.4
7.32253	0.424
7.35129	0.697
7.38004	0.775
7.40879	0.788
7.43755	0.774
7.4663	0.777
7.49505	0.796
7.5238	0.792
7.55256	0.775
7.58131	0.766
7.61006	0.725
7.63882	0.612
7.66757	0.516
7.69632	0.651
7.72508	0.721
7.75383	0.728
7.78258	0.706
7.81134	0.592
7.84009	0.466
7.86884	0.304
7.8976	0.199
7.92635	0.128
7.9551	0.118
7.98386	0.128
8.01261	0.151
8.04136	0.215
8.07011	0.252
8.09887	0.281
8.12762	0.31
8.15637	0.338
8.18513	0.367
8.21388	0.396
8.24263	0.425
8.27139	0.454
8.30014	0.483
8.32889	0.512
8.35765	0.54
8.3864	0.633
8.41515	0.646
8.44391	0.645
8.47266	0.682
8.50141	0.657
8.53017	0.563
8.55892	0.471
8.58767	0.437
8.61643	0.436
8.64518	0.456
8.67393	0.531
8.70268	0.64
8.73144	0.704
8.76019	0.709
8.78894	0.703
8.8177	0.707
8.84645	0.685
8.8752	0.621
8.90396	0.649
8.93271	0.718
8.96146	0.717
8.99022	0.639
9.01897	0.503
9.04772	0.441
9.07648	0.43
9.10523	0.457
9.13398	0.516
9.16274	0.594
9.19149	0.644
9.22024	0.663
9.24899	0.649
9.27775	0.674
9.3065	0.717
9.33525	0.722
9.36401	0.717
9.39276	0.651
9.42151	0.546
9.45027	0.532
9.47902	0.538
9.50777	0.484
9.53653	0.454
9.56528	0.469
9.59403	0.427
9.62279	0.442
9.65154	0.513
9.68029	0.501
9.70905	0.443
9.7378	0.366
9.76655	0.338
9.79531	0.33
9.82406	0.4
9.85281	0.457
9.88156	0.498
9.91032	0.508
9.93907	0.509
9.96782	0.567
9.99658	0.644
10.0253	0.698
10.0541	0.752
10.0828	0.758
10.1116	0.656
10.1403	0.602
10.1691	0.659
10.1978	0.758
10.2266	0.778
10.2554	0.777
10.2841	0.748
10.3129	0.676
10.3416	0.637
10.3704	0.627
10.3991	0.615
10.4279	0.609
10.4566	0.611
10.4854	0.627
10.5141	0.625
10.5429	0.588
10.5716	0.574
10.6004	0.561
10.6291	0.531
10.6579	0.516
10.6867	0.572
10.7154	0.689
10.7442	0.772
10.7729	0.822
10.8017	0.835
10.8304	0.837
10.8592	0.837
10.8879	0.83
10.9167	0.789
10.9454	0.711
10.9742	0.62
11.0029	0.563
11.0317	0.599
11.0604	0.691
11.0892	0.771
11.118	0.8
11.1467	0.816
11.1755	0.838
11.2042	0.864
11.233	0.871
11.2617	0.873
11.2905	0.871
11.3192	0.855
11.348	0.823
11.3767	0.828
11.4055	0.849
11.4342	0.864
11.463	0.887
11.4917	0.893
11.5205	0.907
11.5492	0.911
11.578	0.912
11.6068	0.908
11.6355	0.887
11.6643	0.855
11.693	0.847
11.7218	0.844
11.7505	0.848
11.7793	0.853
11.808	0.856
11.8368	0.862
11.8655	0.884
11.8943	0.899
11.923	0.903
11.9518	0.909
11.9805	0.912
12.0093	0.913
12.0381	0.917
12.0668	0.923
12.0956	0.927
12.1243	0.926
12.1531	0.924
12.1818	0.92
12.2106	0.915
12.2393	0.911
12.2681	0.911
12.2968	0.909
12.3256	0.894
12.3543	0.865
12.3831	0.854
12.4118	0.853
12.4406	0.858
12.4693	0.859
12.4981	0.866
12.5269	0.879
12.5556	0.888
12.5844	0.891
12.6131	0.893
12.6419	0.893
12.6706	0.891
12.6994	0.891
12.7281	0.893
12.7569	0.894
12.7856	0.894
12.8144	0.894
12.8431	0.894
12.8719	0.894
12.9006	0.894
12.9294	0.894
12.9582	0.894
12.9869	0.894
13.0157	0.894
13.0444	0.894
13.0732	0.897
13.1019	0.9
13.1307	0.9
13.1594	0.899
13.1882	0.897
13.2169	0.899
13.2457	0.9
13.2744	0.903
13.3032	0.906
13.3319	0.906
13.3607	0.906
13.3895	0.906
13.4182	0.906
13.447	0.907
13.4757	0.908
13.5045	0.909
13.5332	0.909
13.562	0.909
13.5907	0.911
