Infrared Spectrum: (4S,5R)-4-Methyl-5-phenyl-2-oxazolidinone
Formula: C 10 H 11 N O 2
CAS: 16251-45-9
State: gas
Origin: EPA-IR VAPOR PHASE LIBRARY
1/CM	ABSORBANCE
549.8	0.00285
559.445	0.00337
569.09	0.00488
578.734	0.00453
588.379	0.00399
598.024	0.00429
607.669	0.00446
617.313	0.00446
626.958	0.00393
636.603	0.00395
646.248	0.00289
655.893	0.0037
665.537	0.00355
675.182	0.00491
684.827	0.00926
694.472	0.01755
704.116	0.01757
713.761	0.01275
723.406	0.0132
733.051	0.01359
742.695	0.0131
752.34	0.01318
761.985	0.0136
771.63	0.01062
781.275	0.00667
790.919	0.00552
800.564	0.00452
810.209	0.0046
819.854	0.00401
829.498	0.0036
839.143	0.00269
848.788	0.00225
858.433	0.00232
868.078	0.0034
877.722	0.00438
887.367	0.00476
897.012	0.00379
906.657	0.00517
916.301	0.00616
925.946	0.01027
935.591	0.0175
945.236	0.01803
954.88	0.01099
964.525	0.00822
974.17	0.00711
983.815	0.00984
993.46	0.01729
1003.1	0.02709
1012.75	0.02704
1022.39	0.02496
1032.04	0.02183
1041.68	0.01849
1051.33	0.0133
1060.97	0.01136
1070.62	0.0105
1080.26	0.00903
1089.91	0.01461
1099.55	0.0168
1109.2	0.01538
1118.84	0.02143
1128.49	0.01822
1138.13	0.00997
1147.78	0.00658
1157.42	0.00607
1167.07	0.00932
1176.71	0.01416
1186.36	0.02204
1196	0.03375
1205.64	0.0376
1215.29	0.03054
1224.93	0.01426
1234.58	0.00748
1244.22	0.0053
1253.87	0.00513
1263.51	0.00471
1273.16	0.00616
1282.8	0.00753
1292.45	0.00752
1302.09	0.00853
1311.74	0.01185
1321.38	0.01929
1331.03	0.02661
1340.67	0.02178
1350.32	0.01896
1359.96	0.02
1369.61	0.02204
1379.25	0.02507
1388.9	0.024
1398.54	0.01326
1408.18	0.00614
1417.83	0.00403
1427.47	0.00369
1437.12	0.00408
1446.76	0.00718
1456.41	0.00941
1466.05	0.00602
1475.7	0.00336
1485.34	0.00364
1494.99	0.00559
1504.63	0.00456
1514.28	0.00266
1523.92	0.00273
1533.57	0.00267
1543.21	0.00222
1552.86	0.00172
1562.5	0.00175
1572.15	0.00155
1581.79	0.00181
1591.44	0.00209
1601.08	0.00253
1610.73	0.00224
1620.37	0.00165
1630.01	0.0012506
1639.66	0.00152
1649.3	0.00181
1658.95	0.00159
1668.59	0.00176
1678.24	0.00183
1687.88	0.00204
1697.53	0.00247
1707.17	0.00269
1716.82	0.00308
1726.46	0.0035
1736.11	0.00429
1745.75	0.00554
1755.4	0.00859
1765.04	0.01272
1774.69	0.0171
1784.33	0.02555
1793.98	0.05765
1803.62	0.14347
1813.27	0.239
1822.91	0.19917
1832.55	0.09194
1842.2	0.03917
1851.84	0.02232
1861.49	0.01716
1871.13	0.01497
1880.78	0.01268
1890.42	0.0096
1900.07	0.00704
1909.71	0.00566
1919.36	0.00511
1929	0.00479
1938.65	0.00452
1948.29	0.00439
1957.94	0.00353
1967.58	0.003
1977.23	0.00219
1986.87	0.00178
1996.52	0.00153
2006.16	0.0012916
2015.81	0.0014152
2025.45	0.0013144
2035.1	0.0013934
2044.74	0.0012726
2054.38	0.0012289
2064.03	0.0013951
2073.67	0.0014293
2083.32	0.00147
2092.96	0.0014353
2102.61	0.0011437
2112.25	0.0011106
2121.9	0.0010436
2131.54	0.0012281
2141.19	0.0010079
2150.83	0.0010373
2160.48	0.000784
2170.12	0.0007851
2179.77	0.0008095
2189.41	0.0007234
2199.06	0.0009351
2208.7	0.0009688
2218.35	0.0010451
2227.99	0.0007985
2237.64	0.0010939
2247.28	0.0009551
2256.92	0.0010827
2266.57	0.0011538
2276.21	0.0012754
2285.86	0.0011041
2295.5	0.0009172
2305.15	0.0010518
2314.79	0.0010559
2324.44	0.0009394
2334.08	0.0009524
2343.73	0.00104
2353.37	0.00087
2363.02	0.0006409
2372.66	0.0012235
2382.31	0.0008026
2391.95	0.0009582
2401.6	0.0011769
2411.24	0.0008591
2420.89	0.0010595
2430.53	0.0007303
2440.18	0.0008655
2449.82	0.0007021
2459.47	0.0007995
2469.11	0.0007918
2478.75	0.0009847
2488.4	0.0008535
2498.04	0.0005992
2507.69	0.0008439
2517.33	0.0011412
2526.98	0.0009701
2536.62	0.0008942
2546.27	0.0006912
2555.91	0.0007284
2565.56	0.0009475
2575.2	0.0008982
2584.85	0.0008477
2594.49	0.0009019
2604.14	0.0008217
2613.78	0.0007965
2623.43	0.0008841
2633.07	0.0012045
2642.72	0.0005787
2652.36	0.0010787
2662.01	0.0008685
2671.65	0.0010327
2681.29	0.0010185
2690.94	0.0011353
2700.58	0.0007877
2710.23	0.0012337
2719.87	0.001138
2729.52	0.0011399
2739.16	0.0010042
2748.81	0.000921
2758.45	0.0008645
2768.1	0.0009513
2777.74	0.0007473
2787.39	0.0009032
2797.03	0.0010145
2806.68	0.0009106
2816.32	0.0012821
2825.97	0.00159
2835.61	0.0012362
2845.26	0.0013173
2854.9	0.00171
2864.55	0.00284
2874.19	0.00482
2883.84	0.00685
2893.48	0.00763
2903.12	0.00828
2912.77	0.00709
2922.41	0.00704
2932.06	0.01082
2941.7	0.01296
2951.35	0.00955
2960.99	0.00734
2970.64	0.01329
2980.28	0.01581
2989.93	0.00981
2999.57	0.00574
3009.22	0.00356
3018.86	0.00473
3028.51	0.00707
3038.15	0.00857
3047.8	0.00617
3057.44	0.00587
3067.09	0.00907
3076.73	0.01013
3086.38	0.00636
3096.02	0.00478
3105.67	0.00359
3115.31	0.00206
3124.95	0.00189
3134.6	0.0011171
3144.24	0.0008616
3153.89	0.0010337
3163.53	0.0006784
3173.18	0.0013246
3182.82	0.0010351
3192.47	0.0008697
3202.11	0.0007917
3211.76	0.0012563
3221.4	0.0010404
3231.05	0.0009236
3240.69	0.000186
3250.34	0.000826
3259.98	0.00049016
3269.63	0.000549
3279.27	0.000337
3288.92	0.00051345
3298.56	0.0007102
3308.21	0.0007846
3317.85	0.0006149
3327.49	0.00046106
3337.14	0.0007357
3346.78	0.0005705
3356.43	0.00051813
3366.07	0.0007587
3375.72	0.00051545
3385.36	0.0005745
3395.01	0.0008929
3404.65	0.0008564
3414.3	0.0008277
3423.94	0.0006556
3433.59	0.0011778
3443.23	0.0013508
3452.88	0.0024
3462.52	0.00587
3472.17	0.0147
3481.81	0.01467
3491.46	0.0061
3501.1	0.00234
3510.75	0.0014051
3520.39	0.0011994
3530.04	0.00144
3539.68	0.0012323
3549.32	0.0008035
3558.97	0.0008072
3568.61	0.0012132
3578.26	0.00151
3587.9	0.00157
3597.55	0.00215
3607.19	0.0026
3616.84	0.00254
3626.48	0.00247
3636.13	0.00182
3645.77	0.00145
3655.42	0.001418
3665.06	0.0008121
3674.71	0.0004139
3684.35	0.0004237
3694	0.0008522
3703.64	0.0008605
3713.29	0.0007492
3722.93	0.000298
3732.58	0.000151
3742.22	0.0003825
3751.86	0.0007907
3761.51	0.00043671
3771.15	0.0006113
3780.8	0.0006076
3790.44	0.0009892
3800.09	0.0007155
3809.73	0.0008054
3819.38	0.0004848
3829.02	0.0010659
3838.67	0.000281
3848.31	0.000627
3857.96	0.0005495
3867.6	0.000156
3877.25	0.0007527
3886.89	0.0006303
3896.54	0.0009335
3906.18	0.000802
3915.83	0.00052087
3925.47	0.0010155
3935.12	0.000178
3944.76	0.0007546
3954.41	0.001434
3964.05	0.0006119
3973.69	0.000227
3983.34	0.0005732
3992.98	0.0009898
