Infrared Spectrum: 4,4'-Di-t-butylbiphenyl
Formula: C 20 H 26
CAS: 1625-91-8
State: gas
Origin: EPA-IR VAPOR PHASE LIBRARY
1/CM	ABSORBANCE
549.8	0.014106
559.445	0.019916
569.09	0.012676
578.734	0.007116
588.379	0.003346
598.024	0.001526
607.669	0.0009154
617.313	0.0007363
626.958	0.0007283
636.603	0.0009713
646.248	0.001346
655.893	0.0006414
665.537	0.0004186
675.182	0.0008248
684.827	0.0010525
694.472	0.001576
704.116	0.004876
713.761	0.001766
723.406	0.002706
733.051	0.003306
742.695	0.002266
752.34	0.001246
761.985	0.0011239
771.63	0.001646
781.275	0.003266
790.919	0.002986
800.564	0.005996
810.209	0.018726
819.854	0.041166
829.498	0.029186
839.143	0.013666
848.788	0.007296
858.433	0.003076
868.078	0.001546
877.722	0.001496
887.367	0.0007912
897.012	0.0009012
906.657	0.001111
916.301	0.001386
925.946	0.001526
935.591	0.001326
945.236	0.000719
954.88	0.0011046
964.525	0.0008291
974.17	0.001186
983.815	0.001596
993.46	0.004446
1003.1	0.023296
1012.75	0.005996
1022.39	0.003946
1032.04	0.010736
1041.68	0.002846
1051.33	0.001576
1060.97	0.001206
1070.62	0.0005917
1080.26	0.001346
1089.91	0.002386
1099.55	0.004976
1109.2	0.022956
1118.84	0.015626
1128.49	0.005856
1138.13	0.003506
1147.78	0.002026
1157.42	0.001506
1167.07	0.001416
1176.71	0.001646
1186.36	0.003496
1196	0.006226
1205.64	0.004756
1215.29	0.003856
1224.93	0.006006
1234.58	0.005196
1244.22	0.007326
1253.87	0.018106
1263.51	0.045736
1273.16	0.018176
1282.8	0.005486
1292.45	0.003676
1302.09	0.002946
1311.74	0.002336
1321.38	0.002026
1331.03	0.002256
1340.67	0.003446
1350.32	0.007346
1359.96	0.016306
1369.61	0.022816
1379.25	0.019386
1388.9	0.016986
1398.54	0.022116
1408.18	0.007766
1417.83	0.004576
1427.47	0.004376
1437.12	0.005416
1446.76	0.008426
1456.41	0.013036
1466.05	0.017106
1475.7	0.020086
1485.34	0.033706
1494.99	0.070206
1504.63	0.031176
1514.28	0.015236
1523.92	0.007096
1533.57	0.003016
1543.21	0.002096
1552.86	0.001566
1562.5	0.001296
1572.15	0.001186
1581.79	0.0010696
1591.44	0.0009092
1601.08	0.0008692
1610.73	0.0009611
1620.37	0.0008443
1630.01	0.001206
1639.66	0.002066
1649.3	0.002546
1658.95	0.002146
1668.59	0.002146
1678.24	0.001666
1687.88	0.001061
1697.53	0.0006926
1707.17	0.0007061
1716.82	0.0005056
1726.46	0.0006907
1736.11	0.0008305
1745.75	0.0010239
1755.4	0.001326
1765.04	0.002236
1774.69	0.003266
1784.33	0.003286
1793.98	0.001196
1803.62	0.0007145
1813.27	0.0006773
1822.91	0.0005692
1832.55	0.0005429
1842.2	0.0005827
1851.84	0.0007124
1861.49	0.0007502
1871.13	0.0008608
1880.78	0.001606
1890.42	0.002696
1900.07	0.003506
1909.71	0.002566
1919.36	0.001306
1929	0.0008683
1938.65	0.0007068
1948.29	0.0007214
1957.94	0.0006046
1967.58	0.0005027
1977.23	0.0004973
1986.87	0.000389
1996.52	0.0003902
2006.16	0.0002739
2015.81	0.0003537
2025.45	0.0003812
2035.1	0.0004338
2044.74	0.0003835
2054.38	0.00024295
2064.03	0.0003038
2073.67	0.0002806
2083.32	0.0003066
2092.96	0.0003253
2102.61	0.0003285
2112.25	0.0002698
2121.9	0.0002921
2131.54	0.0003014
2141.19	0.0003146
2150.83	0.0002844
2160.48	0.000329
2170.12	0.0002704
2179.77	0.0002879
2189.41	0.0003631
2199.06	0.0004028
2208.7	0.0005601
2218.35	0.0005009
2227.99	0.0004611
2237.64	0.0003877
2247.28	0.0003447
2256.92	0.0003107
2266.57	0.0003628
2276.21	0.0004301
2285.86	0.0004471
2295.5	0.000532
2305.15	0.000534
2314.79	0.0005718
2324.44	0.000561
2334.08	0.0003991
2343.73	0.0004749
2353.37	0.000379
2363.02	0.000267
2372.66	0.0005635
2382.31	0.000936
2391.95	0.0009906
2401.6	0.0006736
2411.24	0.0006044
2420.89	0.0005231
2430.53	0.0004833
2440.18	0.0004688
2449.82	0.0004635
2459.47	0.0004424
2469.11	0.000474
2478.75	0.0004642
2488.4	0.0005207
2498.04	0.0005676
2507.69	0.0005325
2517.33	0.0004452
2526.98	0.0005724
2536.62	0.000634
2546.27	0.0006817
2555.91	0.0008067
2565.56	0.0008837
2575.2	0.0008052
2584.85	0.0009063
2594.49	0.0008601
2604.14	0.0008551
2613.78	0.0008443
2623.43	0.0008771
2633.07	0.0010094
2642.72	0.0009582
2652.36	0.0010271
2662.01	0.001166
2671.65	0.001166
2681.29	0.0010368
2690.94	0.0011081
2700.58	0.001386
2710.23	0.001706
2719.87	0.002146
2729.52	0.001976
2739.16	0.001806
2748.81	0.001846
2758.45	0.001946
2768.1	0.001676
2777.74	0.001966
2787.39	0.002456
2797.03	0.002366
2806.68	0.002776
2816.32	0.003516
2825.97	0.004016
2835.61	0.004766
2845.26	0.006366
2854.9	0.010936
2864.55	0.022636
2874.19	0.039386
2883.84	0.039306
2893.48	0.036356
2903.12	0.043536
2912.77	0.056636
2922.41	0.051716
2932.06	0.049266
2941.7	0.054026
2951.35	0.087696
2960.99	0.175786
2970.64	0.208076
2980.28	0.089916
2989.93	0.038716
2999.57	0.019036
3009.22	0.012576
3018.86	0.012716
3028.51	0.026086
3038.15	0.029176
3047.8	0.014506
3057.44	0.014206
3067.09	0.016416
3076.73	0.017156
3086.38	0.017036
3096.02	0.013646
3105.67	0.008596
3115.31	0.005816
3124.95	0.004326
3134.6	0.003676
3144.24	0.003026
3153.89	0.002286
3163.53	0.002206
3173.18	0.002156
3182.82	0.002246
3192.47	0.002086
3202.11	0.001976
3211.76	0.001896
3221.4	0.001846
3231.05	0.001686
3240.69	0.001566
3250.34	0.001316
3259.98	0.001336
3269.63	0.001296
3279.27	0.001336
3288.92	0.0011199
3298.56	0.001186
3308.21	0.0009101
3317.85	0.0007046
3327.49	0.0007393
3337.14	0.000667
3346.78	0.0006453
3356.43	0.0006796
3366.07	0.0005868
3375.72	0.0004585
3385.36	0.0005839
3395.01	0.0005817
3404.65	0.0005849
3414.3	0.0005263
3423.94	0.0006557
3433.59	0.000554
3443.23	0.000631
3452.88	0.0004931
3462.52	0.0003151
3472.17	0.0004222
3481.81	0.0003448
3491.46	0.00020084
3501.1	0.0003537
3510.75	0.00024583
3520.39	0.0001211
3530.04	0.00024498
3539.68	0.0002253
3549.32	0.00018062
3558.97	0.0002554
3568.61	9.15e-05
3578.26	0.00018098
3587.9	0
3597.55	0.00022405
3607.19	2.4e-05
3616.84	8.67e-05
3626.48	0.00019106
3636.13	0.0003325
3645.77	0.00020888
3655.42	0.00016594
3665.06	0.0003133
3674.71	0.0004306
3684.35	0.0004359
3694	0.00021581
3703.64	0.0004224
3713.29	0.0003119
3722.93	0.000413
3732.58	0.0002862
3742.22	0.00019388
3751.86	5.62e-05
3761.51	0.000287
3771.15	0.0003538
3780.8	0.00022599
3790.44	0.0005262
3800.09	0.0004414
3809.73	0.0005538
3819.38	0.0004479
3829.02	0.0002743
3838.67	0.0004529
3848.31	0.0006558
3857.96	0.0004428
3867.6	0.0005396
3877.25	0.0004731
3886.89	0.0008211
3896.54	0.0007955
3906.18	0.0007773
3915.83	0.0006589
3925.47	0.0006371
3935.12	0.0004784
3944.76	0.0002976
3954.41	0.0003552
3964.05	0.0005742
3973.69	0.000623
3983.34	0.0006703
3992.98	0.000675
