Infrared Spectrum: 10-(N-OCTADECYL)PHENOTHIAZINE
Formula: C30 H45 N S
CAS: 16262-72-9
State: SOLID
Melting point: 51-52.5 C
Class: COBLENTZ
Instrument: Not specified, most likely a prism, grating, or hybrid spectrometer.
Sampling: TRANSMISSION
Path length: SMEAR
Resolution: 4
Origin: TENNESSEE EASTMAN COMPANY, RESEARCH LABORATORIES
MICROMETERS	TRANSMITTANCE
2.033	0.955
2.07268	0.953
2.11236	0.951
2.15204	0.951
2.19172	0.951
2.2314	0.951
2.27108	0.948
2.31076	0.926
2.35044	0.925
2.39012	0.925
2.4298	0.925
2.46948	0.925
2.50916	0.93
2.54884	0.936
2.58852	0.936
2.6282	0.936
2.66788	0.936
2.70756	0.94
2.74723	0.94
2.78691	0.941
2.82659	0.945
2.86627	0.946
2.90595	0.946
2.94563	0.946
2.98531	0.946
3.02499	0.948
3.06467	0.95
3.10435	0.95
3.14403	0.95
3.18371	0.941
3.22339	0.933
3.26307	0.847
3.30275	0.784
3.34243	0.749
3.38211	0.365
3.42179	0.096
3.46147	0.284
3.50115	0.152
3.54083	0.588
3.58051	0.815
3.62019	0.872
3.65987	0.883
3.69955	0.895
3.73923	0.9
3.77891	0.898
3.81859	0.905
3.85827	0.913
3.89795	0.91
3.93763	0.92
3.97731	0.935
4.01699	0.943
4.05667	0.95
4.09635	0.955
4.13602	0.955
4.1757	0.955
4.21538	0.96
4.25506	0.96
4.29474	0.95
4.33442	0.936
4.3741	0.953
4.41378	0.958
4.45346	0.963
4.49314	0.963
4.53282	0.963
4.5725	0.963
4.61218	0.963
4.65186	0.963
4.69154	0.965
4.73122	0.966
4.7709	0.968
4.81058	0.97
4.85026	0.97
4.88994	0.97
4.92962	0.97
4.9693	0.97
5.00898	0.973
5.04866	0.975
5.08834	0.975
5.12802	0.973
5.1677	0.955
5.20738	0.926
5.24706	0.951
5.28674	0.935
5.32642	0.933
5.3661	0.953
5.40578	0.951
5.44546	0.951
5.48514	0.96
5.52482	0.965
5.56449	0.958
5.60417	0.958
5.64385	0.94
5.68353	0.941
5.72321	0.953
5.76289	0.955
5.80257	0.953
5.84225	0.948
5.88193	0.948
5.92161	0.93
5.96129	0.928
6.00097	0.925
6.04065	0.936
6.08033	0.933
6.12001	0.941
6.15969	0.943
6.19937	0.926
6.23905	0.794
6.27873	0.604
6.31841	0.755
6.35809	0.568
6.39777	0.794
6.43745	0.908
6.47713	0.903
6.51681	0.916
6.55649	0.901
6.59617	0.865
6.63585	0.759
6.67553	0.617
6.71521	0.5
6.75489	0.509
6.79457	0.129
6.83425	0.094
6.87393	0.194
6.91361	0.225
6.95328	0.544
6.99296	0.774
7.03264	0.835
7.07232	0.872
7.112	0.872
7.15168	0.852
7.19136	0.805
7.23104	0.684
7.27072	0.598
7.3104	0.556
7.35008	0.591
7.38976	0.656
7.42944	0.631
7.46912	0.524
7.5088	0.445
7.54848	0.593
7.58816	0.692
7.62784	0.704
7.66752	0.654
7.7072	0.617
7.74688	0.549
7.78656	0.418
7.82624	0.579
7.86592	0.676
7.9056	0.679
7.94528	0.574
7.98496	0.383
8.02464	0.37
8.06432	0.441
8.104	0.46
8.14368	0.536
8.18336	0.624
8.22304	0.682
8.26272	0.719
8.3024	0.74
8.34207	0.747
8.38175	0.767
8.42143	0.775
8.46111	0.79
8.50079	0.794
8.54047	0.774
8.58015	0.714
8.61983	0.74
8.65951	0.767
8.69919	0.745
8.73887	0.664
8.77855	0.649
8.81823	0.619
8.85791	0.581
8.89759	0.75
8.93727	0.787
8.97695	0.73
9.01663	0.637
9.05631	0.702
9.09599	0.787
9.13567	0.82
9.17535	0.832
9.21503	0.833
9.25471	0.838
9.29439	0.84
9.33407	0.838
9.37375	0.818
9.41343	0.782
9.45311	0.755
9.49279	0.704
9.53247	0.679
9.57215	0.607
9.61183	0.546
9.65151	0.729
9.69119	0.805
9.73086	0.838
9.77054	0.853
9.81022	0.863
9.8499	0.872
9.88958	0.88
9.92926	0.883
9.96894	0.887
10.0086	0.887
10.0483	0.888
10.088	0.892
10.1277	0.892
10.1673	0.893
10.207	0.897
10.2467	0.897
10.2864	0.895
10.3261	0.888
10.3657	0.878
10.4054	0.88
10.4451	0.892
10.4848	0.9
10.5245	0.905
10.5641	0.91
10.6038	0.911
10.6435	0.911
10.6832	0.906
10.7229	0.88
10.7625	0.827
10.8022	0.784
10.8419	0.8
10.8816	0.85
10.9213	0.887
10.9609	0.898
11.0006	0.9
11.0403	0.897
11.08	0.887
11.1197	0.877
11.1593	0.875
11.199	0.87
11.2387	0.867
11.2784	0.863
11.3181	0.863
11.3577	0.863
11.3974	0.863
11.4371	0.863
11.4768	0.863
11.5165	0.865
11.5561	0.868
11.5958	0.872
11.6355	0.872
11.6752	0.862
11.7149	0.85
11.7545	0.842
11.7942	0.842
11.8339	0.852
11.8736	0.865
11.9132	0.877
11.9529	0.887
11.9926	0.893
12.0323	0.895
12.072	0.895
12.1116	0.895
12.1513	0.895
12.191	0.895
12.2307	0.895
12.2704	0.893
12.31	0.892
12.3497	0.892
12.3894	0.892
12.4291	0.892
12.4688	0.892
12.5084	0.892
12.5481	0.888
12.5878	0.883
12.6275	0.88
12.6672	0.875
12.7068	0.873
12.7465	0.863
12.7862	0.855
12.8259	0.838
12.8656	0.823
12.9052	0.805
12.9449	0.795
12.9846	0.784
13.0243	0.762
13.064	0.714
13.1036	0.632
13.1433	0.465
13.183	0.295
13.2227	0.164
13.2624	0.114
13.302	0.107
13.3417	0.112
13.3814	0.124
13.4211	0.169
13.4608	0.262
13.5004	0.403
13.5401	0.496
13.5798	0.529
13.6195	0.481
13.6592	0.406
13.6988	0.383
13.7385	0.395
13.7782	0.428
13.8179	0.463
13.8576	0.506
13.8972	0.551
13.9369	0.606
13.9766	0.659
14.0163	0.705
14.056	0.739
14.0956	0.76
14.1353	0.772
14.175	0.78
14.2147	0.784
14.2544	0.784
14.294	0.779
14.3337	0.767
14.3734	0.769
14.4131	0.772
14.4528	0.785
14.4924	0.794
14.5321	0.797
14.5718	0.8
14.6115	0.802
14.6511	0.802
14.6908	0.8
14.7305	0.795
14.7702	0.784
14.8099	0.775
14.8495	0.769
14.8892	0.764
14.9289	0.762
14.9686	0.762
15.0083	0.767
15.0479	0.772
15.0876	0.77
15.1273	0.77
15.167	0.77
15.2067	0.769
15.2463	0.765
15.286	0.76
15.3257	0.759
15.3654	0.759
15.4051	0.757
15.4447	0.754
15.4844	0.752
15.5241	0.747
15.5638	0.745
15.6035	0.744
15.6431	0.742
15.6828	0.739
15.7225	0.737
15.7622	0.735
15.8019	0.732
15.8415	0.73
15.8812	0.729
15.9209	0.727
15.9606	0.727
16.0003	0.729
