Infrared Spectrum: 8-Benzoyloctanoic acid
Formula: C 15 H 20 O 3
CAS: 16269-05-9
State: gas
Origin: EPA-IR VAPOR PHASE LIBRARY
1/CM	ABSORBANCE
549.8	0.013164
559.445	0.015484
569.09	0.017084
578.734	0.015994
588.379	0.016734
598.024	0.018264
607.669	0.017374
617.313	0.015784
626.958	0.013914
636.603	0.012704
646.248	0.011574
655.893	0.011684
665.537	0.011194
675.182	0.012764
684.827	0.020644
694.472	0.025094
704.116	0.016074
713.761	0.012554
723.406	0.012184
733.051	0.012924
742.695	0.014704
752.34	0.013654
761.985	0.010004
771.63	0.007194
781.275	0.005864
790.919	0.004804
800.564	0.003684
810.209	0.003294
819.854	0.003174
829.498	0.002904
839.143	0.003164
848.788	0.003114
858.433	0.003364
868.078	0.003754
877.722	0.003334
887.367	0.004234
897.012	0.004054
906.657	0.003754
916.301	0.004324
925.946	0.004524
935.591	0.005354
945.236	0.006284
954.88	0.008034
964.525	0.009744
974.17	0.011184
983.815	0.010904
993.46	0.010924
1003.1	0.012604
1012.75	0.013474
1022.39	0.012554
1032.04	0.009614
1041.68	0.010194
1051.33	0.011684
1060.97	0.015604
1070.62	0.021694
1080.26	0.025624
1089.91	0.028574
1099.55	0.030454
1109.2	0.037094
1118.84	0.045524
1128.49	0.041644
1138.13	0.035324
1147.78	0.030084
1157.42	0.027874
1167.07	0.026944
1176.71	0.030744
1186.36	0.026394
1196	0.023714
1205.64	0.029454
1215.29	0.030604
1224.93	0.026894
1234.58	0.023684
1244.22	0.024064
1253.87	0.024344
1263.51	0.025024
1273.16	0.023934
1282.8	0.020544
1292.45	0.017834
1302.09	0.015624
1311.74	0.015864
1321.38	0.016334
1331.03	0.015934
1340.67	0.017714
1350.32	0.020704
1359.96	0.020884
1369.61	0.019184
1379.25	0.016664
1388.9	0.013304
1398.54	0.009784
1408.18	0.008234
1417.83	0.008884
1427.47	0.009244
1437.12	0.011954
1446.76	0.018424
1456.41	0.016604
1466.05	0.011674
1475.7	0.006464
1485.34	0.004124
1494.99	0.003174
1504.63	0.002694
1514.28	0.002524
1523.92	0.002264
1533.57	0.002394
1543.21	0.002154
1552.86	0.002214
1562.5	0.002714
1572.15	0.004024
1581.79	0.005734
1591.44	0.006034
1601.08	0.006474
1610.73	0.004224
1620.37	0.003054
1630.01	0.002614
1639.66	0.003114
1649.3	0.003844
1658.95	0.005384
1668.59	0.007684
1678.24	0.013754
1687.88	0.032274
1697.53	0.061454
1707.17	0.052404
1716.82	0.023174
1726.46	0.015554
1736.11	0.018974
1745.75	0.027334
1755.4	0.040664
1765.04	0.060604
1774.69	0.083404
1784.33	0.069554
1793.98	0.044074
1803.62	0.027894
1813.27	0.015294
1822.91	0.008064
1832.55	0.004844
1842.2	0.003504
1851.84	0.002534
1861.49	0.002284
1871.13	0.002134
1880.78	0.002224
1890.42	0.002264
1900.07	0.002204
1909.71	0.001994
1919.36	0.001834
1929	0.001615
1938.65	0.001754
1948.29	0.002034
1957.94	0.002224
1967.58	0.002074
1977.23	0.0015402
1986.87	0.0012932
1996.52	0.0010811
2006.16	0.0012439
2015.81	0.0012583
2025.45	0.001143
2035.1	0.0010178
2044.74	0.0010533
2054.38	0.0009374
2064.03	0.0009049
2073.67	0.0010873
2083.32	0.0007965
2092.96	0.0008323
2102.61	0.0010637
2112.25	0.0008568
2121.9	0.0009157
2131.54	0.0009223
2141.19	0.000972
2150.83	0.0009248
2160.48	0.0010871
2170.12	0.001082
2179.77	0.0009435
2189.41	0.0009654
2199.06	0.0010171
2208.7	0.0010014
2218.35	0.0008919
2227.99	0.0010783
2237.64	0.0010347
2247.28	0.0011143
2256.92	0.001027
2266.57	0.0011977
2276.21	0.0010327
2285.86	0.0011028
2295.5	0.0011166
2305.15	0.0011266
2314.79	0.0014144
2324.44	0.0012287
2334.08	0.0011486
2343.73	0.0013015
2353.37	0.0012306
2363.02	0.0011133
2372.66	0.0010825
2382.31	0.001054
2391.95	0.0010407
2401.6	0.0010886
2411.24	0.0010546
2420.89	0.0011156
2430.53	0.000918
2440.18	0.0010695
2449.82	0.0009591
2459.47	0.0009398
2469.11	0.0009297
2478.75	0.0008468
2488.4	0.0010065
2498.04	0.0009601
2507.69	0.0009706
2517.33	0.000979
2526.98	0.0010366
2536.62	0.0010794
2546.27	0.0008234
2555.91	0.000844
2565.56	0.0007795
2575.2	0.0008495
2584.85	0.0010291
2594.49	0.0013259
2604.14	0.0012276
2613.78	0.0010147
2623.43	0.0011251
2633.07	0.0014595
2642.72	0.0013788
2652.36	0.0010791
2662.01	0.0010673
2671.65	0.0013133
2681.29	0.0015339
2690.94	0.0015135
2700.58	0.0013419
2710.23	0.0013813
2719.87	0.0013651
2729.52	0.0012975
2739.16	0.001517
2748.81	0.0016402
2758.45	0.0014352
2768.1	0.0016371
2777.74	0.0016135
2787.39	0.002014
2797.03	0.002174
2806.68	0.002904
2816.32	0.003564
2825.97	0.003574
2835.61	0.005344
2845.26	0.008304
2854.9	0.016504
2864.55	0.026854
2874.19	0.023704
2883.84	0.017184
2893.48	0.016554
2903.12	0.021244
2912.77	0.030464
2922.41	0.044704
2932.06	0.061364
2941.7	0.064884
2951.35	0.050814
2960.99	0.033594
2970.64	0.021644
2980.28	0.013144
2989.93	0.008154
2999.57	0.005534
3009.22	0.004654
3018.86	0.004694
3028.51	0.005854
3038.15	0.006834
3047.8	0.006834
3057.44	0.008314
3067.09	0.012154
3076.73	0.012214
3086.38	0.009394
3096.02	0.007054
3105.67	0.004294
3115.31	0.002334
3124.95	0.0013686
3134.6	0.0011681
3144.24	0.0011039
3153.89	0.0012664
3163.53	0.0015385
3173.18	0.00072494
3182.82	0.0007445
3192.47	0.000897
3202.11	0.0009969
3211.76	0.0010316
3221.4	0.00065798
3231.05	0.000653899
3240.69	0.0007572
3250.34	0.0006023
3259.98	0.0007982
3269.63	0.000622
3279.27	0.0006169
3288.92	0.0005535
3298.56	0.000341
3308.21	0.0007497
3317.85	0.000836
3327.49	0.0009028
3337.14	0.0007697
3346.78	0.0009479
3356.43	0.000831
3366.07	0.0012245
3375.72	0.0011108
3385.36	0.0014174
3395.01	0.0012098
3404.65	0.0009879
3414.3	0.0009217
3423.94	0.00070869
3433.59	0.0005908
3443.23	0.000428
3452.88	0.00067678
3462.52	0.0009384
3472.17	0.00066301
3481.81	0.0008275
3491.46	0.0011701
3501.1	0.0014232
3510.75	0.0012083
3520.39	0.001774
3530.04	0.001824
3539.68	0.002544
3549.32	0.004004
3558.97	0.007894
3568.61	0.023034
3578.26	0.030524
3587.9	0.009364
3597.55	0.003684
3607.19	0.002224
3616.84	0.0013209
3626.48	0.001381
3636.13	0.0008115
3645.77	0.0009328
3655.42	0.000446
3665.06	0.000415
3674.71	0.000401
3684.35	0.0005841
3694	0.0007687
3703.64	0.0008347
3713.29	0.000523
3722.93	0.0005529
3732.58	0.0007904
3742.22	0.000512
3751.86	0.0007492
3761.51	0.00073114
3771.15	0.00027
3780.8	0.000465
3790.44	0.0005896
3800.09	0.00070655
3809.73	0.0005519
3819.38	0.0008187
3829.02	0.000578
3838.67	0.000128
3848.31	0.000647396
3857.96	0.0006027
3867.6	0.0009996
3877.25	0.0009277
3886.89	0.0007497
3896.54	0.0009015
3906.18	0.00071453
3915.83	0.0007486
3925.47	0.000513
3935.12	0.000241
3944.76	0.000389
3954.41	0.0006232
3964.05	0.0005988
3973.69	0.0008457
3983.34	0.000152
3992.98	0.0008978
