Infrared Spectrum: CINNAMYL METHYL ETHER
Formula: C10 H12 O
CAS: 16277-67-1
State: SOLUTION (10% CCl4 FOR 5000-1330, 10% CS2 FOR 1330-625 CM^-^1)
Class: COBLENTZ
Instrument: Not specified, most likely a prism, grating, or hybrid spectrometer.
Sampling: TRANSMISSION
Path length: 0.012 CM, 0.011 CM
Resolution: 4
Origin: DOW CHEMICAL COMPANY
MICROMETERS	TRANSMITTANCE
2.027	0.892
2.06814	0.892
2.10927	0.894
2.15041	0.895
2.19155	0.894
2.23269	0.883
2.27382	0.878
2.31496	0.88
2.3561	0.882
2.39724	0.888
2.43837	0.873
2.47951	0.882
2.52065	0.888
2.56179	0.89
2.60292	0.897
2.64406	0.897
2.6852	0.894
2.72633	0.89
2.76747	0.894
2.80861	0.89
2.84975	0.888
2.89088	0.887
2.93202	0.885
2.97316	0.883
3.0143	0.883
3.05543	0.883
3.09657	0.88
3.13771	0.88
3.17884	0.849
3.21998	0.697
3.26112	0.589
3.30226	0.521
3.34339	0.555
3.38453	0.475
3.42567	0.396
3.46681	0.423
3.50794	0.388
3.54908	0.579
3.59022	0.834
3.63136	0.829
3.67249	0.841
3.71363	0.878
3.75477	0.892
3.7959	0.888
3.83704	0.887
3.87818	0.894
3.91932	0.9
3.96045	0.904
4.00159	0.907
4.04273	0.909
4.08387	0.909
4.125	0.905
4.16614	0.89
4.20728	0.88
4.24841	0.887
4.28955	0.897
4.33069	0.894
4.37183	0.888
4.41296	0.899
4.4541	0.9
4.49524	0.905
4.53638	0.909
4.57751	0.909
4.61865	0.902
4.65979	0.905
4.70093	0.907
4.74206	0.909
4.7832	0.904
4.82434	0.895
4.86547	0.89
4.90661	0.888
4.94775	0.888
4.98889	0.89
5.03002	0.89
5.07116	0.876
5.1123	0.854
5.15344	0.868
5.19457	0.894
5.23571	0.9
5.27685	0.871
5.31799	0.859
5.35912	0.885
5.40026	0.899
5.4414	0.899
5.48253	0.876
5.52367	0.854
5.56481	0.854
5.60595	0.873
5.64708	0.868
5.68822	0.866
5.72936	0.835
5.7705	0.846
5.81163	0.839
5.85277	0.849
5.89391	0.864
5.93504	0.864
5.97618	0.849
6.01732	0.801
6.05846	0.822
6.09959	0.846
6.14073	0.841
6.18187	0.781
6.22301	0.649
6.26414	0.623
6.30528	0.574
6.34642	0.565
6.38756	0.553
6.42869	0.485
6.46983	0.511
6.51097	0.576
6.5521	0.627
6.59324	0.676
6.63438	0.652
6.67552	0.452
6.71665	0.738
6.75779	0.673
6.79893	0.594
6.84007	0.543
6.8812	0.413
6.92234	0.688
6.96348	0.789
7.00461	0.815
7.04575	0.818
7.08689	0.811
7.12803	0.801
7.16916	0.676
7.2103	0.485
7.25144	0.441
7.29258	0.557
7.33371	0.593
7.37485	0.774
7.41599	0.794
7.45713	0.777
7.49826	0.748
7.5394	0.769
7.58054	0.781
7.62167	0.769
7.66281	0.729
7.70395	0.726
7.74509	0.721
7.78622	0.726
7.82736	0.753
7.8685	0.769
7.90964	0.764
7.95077	0.764
7.99191	0.789
8.03305	0.788
8.07419	0.777
8.11532	0.769
8.15646	0.75
8.1976	0.735
8.23873	0.654
8.27987	0.577
8.32101	0.533
8.36215	0.391
8.40328	0.36
8.44442	0.451
8.48556	0.579
8.5267	0.647
8.56783	0.659
8.60897	0.635
8.65011	0.596
8.69124	0.603
8.73238	0.598
8.77352	0.524
8.81466	0.362
8.85579	0.225
8.89693	0.095
8.93807	0.064
8.97921	0.076
9.02034	0.121
9.06148	0.188
9.10262	0.217
9.14376	0.23
9.18489	0.242
9.22603	0.323
9.26717	0.384
9.3083	0.36
9.34944	0.386
9.39058	0.432
9.43172	0.471
9.47285	0.6
9.51399	0.685
9.55513	0.685
9.59627	0.635
9.6374	0.605
9.67854	0.591
9.71968	0.541
9.76081	0.601
9.80195	0.685
9.84309	0.704
9.88423	0.709
9.92536	0.714
9.9665	0.723
10.0076	0.723
10.0488	0.711
10.0899	0.664
10.1311	0.591
10.1722	0.492
10.2133	0.379
10.2545	0.413
10.2956	0.355
10.3367	0.16
10.3779	0.061
10.419	0.1
10.4601	0.275
10.5013	0.482
10.5424	0.581
10.5836	0.652
10.6247	0.702
10.6658	0.729
10.707	0.74
10.7481	0.731
10.7892	0.688
10.8304	0.632
10.8715	0.56
10.9127	0.517
10.9538	0.547
10.9949	0.586
11.0361	0.627
11.0772	0.723
11.1183	0.776
11.1595	0.791
11.2006	0.801
11.2418	0.806
11.2829	0.808
11.324	0.805
11.3652	0.798
11.4063	0.788
11.4474	0.781
11.4886	0.769
11.5297	0.752
11.5709	0.738
11.612	0.728
11.6531	0.721
11.6943	0.721
11.7354	0.731
11.7765	0.747
11.8177	0.755
11.8588	0.762
11.9	0.76
11.9411	0.755
11.9822	0.765
12.0234	0.764
12.0645	0.757
12.1056	0.781
12.1468	0.8
12.1879	0.803
12.2291	0.801
12.2702	0.788
12.3113	0.791
12.3525	0.8
12.3936	0.803
12.4347	0.801
12.4759	0.793
12.517	0.791
12.5582	0.808
12.5993	0.822
12.6404	0.823
12.6816	0.822
12.7227	0.813
12.7638	0.806
12.805	0.796
12.8461	0.786
12.8873	0.757
12.9284	0.728
12.9695	0.712
13.0107	0.716
13.0518	0.731
13.0929	0.74
13.1341	0.74
13.1752	0.717
13.2163	0.675
13.2575	0.627
13.2986	0.562
13.3398	0.492
13.3809	0.365
13.422	0.251
13.4632	0.162
13.5043	0.128
13.5454	0.15
13.5866	0.198
13.6277	0.217
13.6689	0.205
13.71	0.227
13.7511	0.37
13.7923	0.485
13.8334	0.565
13.8745	0.606
13.9157	0.639
13.9568	0.652
13.998	0.652
14.0391	0.644
14.0802	0.629
14.1214	0.601
14.1625	0.548
14.2036	0.497
14.2448	0.423
14.2859	0.345
14.3271	0.285
14.3682	0.23
14.4093	0.169
14.4505	0.116
14.4916	0.105
14.5327	0.169
14.5739	0.299
14.615	0.418
14.6562	0.492
14.6973	0.533
14.7384	0.555
14.7796	0.569
14.8207	0.57
14.8618	0.57
14.903	0.57
14.9441	0.567
14.9853	0.565
15.0264	0.56
15.0675	0.553
15.1087	0.55
15.1498	0.547
15.1909	0.545
15.2321	0.543
15.2732	0.54
15.3144	0.535
15.3555	0.529
15.3966	0.526
15.4378	0.523
15.4789	0.523
15.52	0.517
15.5612	0.514
15.6023	0.516
15.6435	0.516
15.6846	0.516
15.7257	0.516
15.7669	0.514
15.808	0.514
