Infrared Spectrum: CROTONIC ACID, 4-ACETAMIDO-4-HYROXY-, Gamma-LACTONE
Formula: C6 H7 N O3
CAS: 16275-44-8
State: SOLID (0.8 mg / 259 mg, KBr DISC)
Class: COBLENTZ III
Instrument: BECKMAN IR-7 (GRATING)
Instrument parameters: GRATING CHANGED AT 3000, 2200, 1150 CM^-^1
Sampling: TRANSMISSION
Resolution: 4
Origin: WESTERN REGIONAL RES. USDA
1/CM	TRANSMITTANCE
599.312	0.561
608.262	0.588
617.212	0.671
626.162	0.697
635.112	0.696
644.063	0.666
653.013	0.711
661.963	0.723
670.913	0.719
679.863	0.69
688.813	0.578
697.763	0.555
706.713	0.6
715.663	0.629
724.614	0.697
733.564	0.715
742.514	0.755
751.464	0.779
760.414	0.793
769.364	0.799
778.314	0.805
787.264	0.787
796.214	0.62
805.164	0.774
814.115	0.747
823.065	0.434
832.015	0.35
840.965	0.642
849.915	0.767
858.865	0.798
867.815	0.798
876.765	0.785
885.715	0.773
894.666	0.529
903.616	0.516
912.566	0.584
921.516	0.351
930.466	0.526
939.416	0.701
948.366	0.763
957.316	0.765
966.266	0.741
975.217	0.683
984.167	0.557
993.117	0.5659
1002.07	0.625
1011.02	0.604
1019.97	0.617
1028.92	0.559
1037.87	0.475
1046.82	0.45
1055.77	0.654
1064.72	0.735
1073.67	0.729
1082.62	0.587
1091.57	0.38
1100.52	0.526
1109.47	0.72
1118.42	0.718
1127.37	0.5981
1136.32	0.26
1145.27	0.296
1154.22	0.412
1163.17	0.499
1172.12	0.487
1181.07	0.515
1190.02	0.576
1198.97	0.674
1207.92	0.738
1216.87	0.749
1225.82	0.746
1234.77	0.722
1243.72	0.661
1252.67	0.531
1261.62	0.38
1270.57	0.326
1279.52	0.504
1288.47	0.647
1297.42	0.686
1306.37	0.647
1315.32	0.606
1324.27	0.577
1333.22	0.555
1342.17	0.613
1351.12	0.555
1360.07	0.583
1369.02	0.494
1377.97	0.404
1386.92	0.494
1395.87	0.595
1404.82	0.623
1413.77	0.631
1422.72	0.613
1431.67	0.585
1440.62	0.603
1449.57	0.626
1458.52	0.655
1467.47	0.672
1476.42	0.665
1485.37	0.625
1494.32	0.571
1503.27	0.499
1512.22	0.342
1521.17	0.188
1530.12	0.156
1539.07	0.23
1548.02	0.309
1556.97	0.462
1565.92	0.6
1574.87	0.682
1583.82	0.7
1592.77	0.713
1601.72	0.703
1610.67	0.652
1619.62	0.668
1628.57	0.631
1637.52	0.554
1646.47	0.479
1655.42	0.363
1664.37	0.129
1673.32	0.119
1682.28	0.182
1691.23	0.239
1700.18	0.302
1709.13	0.42
1718.08	0.523
1727.03	0.48
1735.98	0.322
1744.93	0.156
1753.88	0.082
1762.83	0.084
1771.78	0.231
1780.73	0.374
1789.68	0.193
1798.63	0.228
1807.58	0.4291
1816.53	0.572
1825.48	0.65
1834.43	0.703
1843.38	0.734
1852.33	0.75
1861.28	0.763
1870.23	0.773
1879.18	0.776
1888.13	0.785
1897.08	0.793
1906.03	0.8
1914.98	0.805
1923.93	0.805
1932.88	0.8
1941.83	0.803
1950.78	0.808
1959.73	0.805
1968.68	0.806
1977.63	0.809
1986.58	0.811
1995.53	0.816
2004.48	0.8195
2013.43	0.8216
2022.38	0.825
2031.33	0.825
2040.28	0.825
2049.23	0.825
2058.18	0.8259
2067.13	0.8269
2076.08	0.827
2085.03	0.828
2093.98	0.828
2102.93	0.828
2111.88	0.8282
2120.83	0.8303
2129.78	0.831
2138.73	0.832
2147.68	0.833
2156.63	0.834
2165.58	0.834
2174.53	0.834
2183.48	0.834
2192.43	0.834
2201.38	0.834
2210.33	0.834
2219.28	0.834
2228.23	0.834
2237.18	0.834
2246.13	0.8339
2255.08	0.8319
2264.03	0.8308
2272.98	0.828
2281.93	0.829
2290.88	0.8304
2299.83	0.831
2308.78	0.8325
2317.73	0.834
2326.68	0.8344
2335.63	0.832
2344.58	0.831
2353.53	0.828
2362.48	0.8262
2371.43	0.8269
2380.38	0.829
2389.33	0.831
2398.28	0.831
2407.23	0.83
2416.18	0.83
2425.13	0.83
2434.08	0.83
2443.03	0.8304
2451.98	0.8314
2460.93	0.8315
2469.88	0.831
2478.83	0.829
2487.78	0.828
2496.73	0.827
2505.68	0.8278
2514.64	0.828
2523.59	0.8289
2532.54	0.83
2541.49	0.83
2550.44	0.831
2559.39	0.8321
2568.34	0.834
2577.29	0.835
2586.24	0.8347
2595.19	0.834
2604.14	0.835
2613.09	0.835
2622.04	0.834
2630.99	0.8334
2639.94	0.832
2648.89	0.831
2657.84	0.831
2666.79	0.83
2675.74	0.829
2684.69	0.83
2693.64	0.831
2702.59	0.832
2711.54	0.833
2720.49	0.833
2729.44	0.8318
2738.39	0.8307
2747.34	0.8273
2756.29	0.8208
2765.24	0.8096
2774.19	0.79
2783.14	0.7866
2792.09	0.7913
2801.04	0.7964
2809.99	0.8017
2818.94	0.8076
2827.89	0.808
2836.84	0.809
2845.79	0.807
2854.74	0.805
2863.69	0.803
2872.64	0.8019
2881.59	0.7988
2890.54	0.7935
2899.49	0.7887
2908.44	0.7727
2917.39	0.7487
2926.34	0.742
2935.29	0.741
2944.24	0.7388
2953.19	0.727
2962.14	0.7344
2971.09	0.7342
2980.04	0.7265
2988.99	0.72
2997.94	0.7151
3006.89	0.6989
3015.84	0.6627
3024.79	0.6401
3033.74	0.6262
3042.69	0.6325
3051.64	0.6514
3060.59	0.6621
3069.54	0.6698
3078.49	0.671
3087.44	0.6674
3096.39	0.6572
3105.34	0.578
3114.29	0.6269
3123.24	0.6648
3132.19	0.6796
3141.14	0.6744
3150.09	0.6524
3159.04	0.6291
3167.99	0.6005
3176.94	0.5734
3185.89	0.5541
3194.84	0.5445
3203.79	0.5334
3212.74	0.5287
3221.69	0.5256
3230.64	0.5205
3239.59	0.5139
3248.54	0.4975
3257.49	0.4697
3266.44	0.4255
3275.39	0.321
3284.34	0.2388
3293.29	0.2581
3302.24	0.3435
3311.19	0.4086
3320.14	0.4814
3329.09	0.501
3338.04	0.5295
3347	0.5483
3355.95	0.5645
3364.9	0.581
3373.85	0.5894
3382.8	0.5973
3391.75	0.6085
3400.7	0.6166
3409.65	0.6203
3418.6	0.628
3427.55	0.6317
3436.5	0.633
3445.45	0.6386
3454.4	0.6448
3463.35	0.65
3472.3	0.6541
3481.25	0.6622
3490.2	0.6673
3499.15	0.6712
3508.1	0.6793
3517.05	0.6886
3526	0.6959
3534.95	0.7032
3543.9	0.722
3552.85	0.7338
3561.8	0.7436
3570.75	0.7523
3579.7	0.7616
3588.65	0.7721
3597.6	0.7895
3606.55	0.7919
3615.5	0.7999
3624.45	0.811
3633.4	0.8191
3642.35	0.822
3651.3	0.8234
3660.25	0.8262
3669.2	0.828
3678.15	0.8284
3687.1	0.8304
3696.05	0.8325
3705	0.834
3713.95	0.8356
3722.9	0.836
3731.85	0.836
3740.8	0.836
3749.75	0.8368
3758.7	0.837
3767.65	0.837
3776.6	0.837
3785.55	0.837
3794.5	0.837
3803.45	0.837
3812.4	0.836
3821.35	0.836
3830.3	0.836
3839.25	0.836
3848.2	0.836
3857.15	0.836
3866.1	0.836
3875.05	0.836
3884	0.836
3892.95	0.836
3901.9	0.836
3910.85	0.837
3919.8	0.837
3928.75	0.837
3937.7	0.837
3946.65	0.839
3955.6	0.84
3964.55	0.84
