Infrared Spectrum: 1,3,5-Trisilacyclohexane, 1,1,3,3,5,5-hexamethyl-
Formula: C9 H24 Si3
CAS: 1627-99-2
State: SOLUTION (11% CCl4 FOR 3800-1300, 2% CS2 FOR 1300-650, AND 11% CCl4 FOR 650-250) VS SOLVENT
Boiling point: 201 C
Class: COBLENTZ II
Instrument: PERKIN-ELMER 521 (GRATING)
Instrument parameters: FILTERS AT 3150, 2500, 2000, 1150, 700, 410. GRATING CHANGES: 2000, 630
Path length: 0.011 CM, 0.010 CM, AND 0.011 CM
Resolution: 2
Origin: DOW CORNING CORP.
1/CM	TRANSMITTANCE
251	0.7857
260	0.7848
269	0.7827
278	0.7744
287	0.7754
296	0.7815
305	0.7844
314	0.7866
323	0.7886
332	0.79
341	0.7887
350	0.7835
359	0.7746
368	0.7728
377	0.7731
386	0.7749
395	0.775
404	0.7658
413	0.7641
422	0.766
431	0.7681
440	0.7735
449	0.7802
458	0.7856
467	0.7903
476	0.794
485	0.7915
494	0.7869
503	0.7822
512	0.7792
521	0.7763
530	0.773
539	0.7661
548	0.7467
557	0.6982
566	0.6788
575	0.6814
584	0.4752
593	0.3149
602	0.6684
611	0.7007
620	0.764
629	0.7824
638	0.7741
647	0.7538
656	0.7502
665	0.7627
674	0.7306
683	0.6677
692	0.7772
701	0.7895
710	0.7793
719	0.7334
728	0.6598
737	0.5025
746	0.679
755	0.7495
764	0.7293
773	0.7572
782	0.7436
791	0.6839
800	0.4588
809	0.1678
818	0.1484
827	0.2699
836	0.2985
845	0.172
854	0.2117
863	0.5454
872	0.7115
881	0.7737
890	0.808
899	0.8192
908	0.8242
917	0.8307
926	0.8325
935	0.8269
944	0.8167
953	0.825
962	0.8299
971	0.831
980	0.8293
989	0.8242
998	0.8115
1007	0.7855
1016	0.7146
1025	0.4709
1034	0.2615
1043	0.2975
1052	0.7593
1061	0.8141
1070	0.8478
1079	0.854
1088	0.8561
1097	0.8657
1106	0.873
1115	0.8761
1124	0.8781
1133	0.8791
1142	0.8784
1151	0.8734
1160	0.8663
1169	0.859
1178	0.8518
1187	0.8477
1196	0.8479
1205	0.8334
1214	0.8152
1223	0.782
1232	0.6913
1241	0.3485
1250	0.5326
1259	0.7342
1268	0.8
1277	0.8108
1286	0.8144
1295	0.8109
1304	0.7314
1313	0.7328
1322	0.7367
1331	0.7081
1340	0.682
1349	0.4518
1358	0.538
1367	0.6767
1376	0.6698
1385	0.6501
1394	0.58
1403	0.5448
1412	0.5631
1421	0.6244
1430	0.6937
1439	0.7408
1448	0.7486
1457	0.7545
1466	0.7757
1475	0.8102
1484	0.8201
1493	0.8311
1502	0.8427
1511	0.8545
1520	0.8642
1529	0.8679
1538	0.8692
1547	0.8687
1556	0.8682
1565	0.8586
1574	0.8487
1583	0.8408
1592	0.8356
1601	0.8261
1610	0.8084
1619	0.8293
1628	0.8405
1637	0.8459
1646	0.8489
1655	0.8479
1664	0.8455
1673	0.8422
1682	0.839
1691	0.8367
1700	0.8388
1709	0.8423
1718	0.8513
1727	0.8609
1736	0.8626
1745	0.8632
1754	0.8642
1763	0.8652
1772	0.8581
1781	0.8599
1790	0.8635
1799	0.8695
1808	0.8704
1817	0.8703
1826	0.8696
1835	0.8675
1844	0.8666
1853	0.8732
1862	0.8753
1871	0.8739
1880	0.8688
1889	0.8568
1898	0.8437
1907	0.8385
1916	0.8388
1925	0.838
1934	0.8433
1943	0.8586
1952	0.8604
1961	0.8638
1970	0.8656
1979	0.8639
1988	0.8646
1997	0.866
2006	0.8871
2015	0.8873
2024	0.8871
2033	0.8873
2042	0.8864
2051	0.8847
2060	0.8816
2069	0.8802
2078	0.8788
2087	0.8816
2096	0.8849
2105	0.8884
2114	0.892
2123	0.8937
2132	0.8944
2141	0.8949
2150	0.8951
2159	0.8948
2168	0.895
2177	0.8952
2186	0.8954
2195	0.8955
2204	0.8959
2213	0.8961
2222	0.8965
2231	0.8966
2240	0.8976
2249	0.8988
2258	0.9004
2267	0.902
2276	0.9038
2285	0.9059
2294	0.9081
2303	0.9109
2312	0.9138
2321	0.9161
2330	0.9158
2339	0.9136
2348	0.9111
2357	0.9081
2366	0.9034
2375	0.8953
2384	0.8918
2393	0.8924
2402	0.8936
2411	0.8948
2420	0.8958
2429	0.8965
2438	0.8965
2447	0.8929
2456	0.893
2465	0.894
2474	0.8829
2483	0.8856
2492	0.8942
2501	0.8965
2510	0.8977
2519	0.898
2528	0.8982
2537	0.8974
2546	0.8967
2555	0.8963
2564	0.896
2573	0.8956
2582	0.895
2591	0.8928
2600	0.8909
2609	0.8905
2618	0.8898
2627	0.8859
2636	0.8816
2645	0.8803
2654	0.8803
2663	0.8772
2672	0.8734
2681	0.8703
2690	0.8702
2699	0.8721
2708	0.8751
2717	0.8774
2726	0.8769
2735	0.8784
2744	0.8764
2753	0.8696
2762	0.8563
2771	0.8382
2780	0.8126
2789	0.7877
2798	0.7727
2807	0.7616
2816	0.7579
2825	0.7549
2834	0.7426
2843	0.7172
2852	0.6435
2861	0.4705
2870	0.4398
2879	0.4212
2888	0.4587
2897	0.3672
2906	0.223
2915	0.28
2924	0.4502
2933	0.4501
2942	0.3999
2951	0.171
2960	0.026
2969	0.0932
2978	0.3001
2987	0.6244
2996	0.7173
3005	0.7634
3014	0.7924
3023	0.8032
3032	0.8115
3041	0.8185
3050	0.8234
3059	0.8274
3068	0.8302
3077	0.8302
3086	0.8302
3095	0.8305
3104	0.8336
3113	0.8409
3122	0.8495
3131	0.8546
3140	0.8591
3149	0.8633
3158	0.8673
3167	0.8716
3176	0.8759
3185	0.8791
3194	0.879
3203	0.8788
3212	0.8842
3221	0.8897
3230	0.8952
3239	0.9003
3248	0.9024
3257	0.9028
3266	0.9034
3275	0.9031
3284	0.9027
3293	0.9026
3302	0.9014
3311	0.8981
3320	0.8955
3329	0.8935
3338	0.8936
3347	0.8935
3356	0.8933
3365	0.893
3374	0.8926
3383	0.8922
3392	0.8917
3401	0.8912
3410	0.8898
3419	0.8877
3428	0.8862
3437	0.885
3446	0.8846
3455	0.8845
3464	0.8844
3473	0.8845
3482	0.8845
3491	0.8843
3500	0.8841
3509	0.8839
3518	0.8835
3527	0.8831
3536	0.8827
3545	0.8827
3554	0.8829
3563	0.8828
3572	0.8827
3581	0.8821
3590	0.8825
3599	0.8821
3608	0.8788
3617	0.874
3626	0.872
3635	0.871
3644	0.8713
3653	0.8723
3662	0.875
3671	0.8747
3680	0.8743
3689	0.8738
3698	0.8635
3707	0.8623
3716	0.8636
3725	0.8638
3734	0.8695
3743	0.8785
3752	0.878
3761	0.8782
3770	0.8793
3779	0.8805
3788	0.8825
3797	0.8877
3806	0.8942
3815	0.9002
