Infrared Spectrum: N-METHYL-Gamma-PICOLINYLIDINIMINE
Formula: C7 H8 N2
CAS: 16273-55-5
Class: COBLENTZ
Instrument: PERKIN-ELMER
Sampling: TRANSMISSION
Path length: CAPILLARY
Resolution: 4
Origin: ABBOTT LABORATORIES - WASHBURN
MICROMETERS	TRANSMITTANCE
2.05	0.898
2.08307	0.9
2.11614	0.9
2.14921	0.898
2.18228	0.8921
2.21535	0.8802
2.24842	0.878
2.28149	0.882
2.31456	0.8635
2.34763	0.8679
2.3807	0.8749
2.41377	0.882
2.44684	0.8671
2.47991	0.8649
2.51298	0.873
2.54605	0.878
2.57912	0.88
2.61219	0.883
2.64526	0.888
2.67833	0.885
2.7114	0.883
2.74447	0.8848
2.77754	0.8733
2.81061	0.8583
2.84368	0.842
2.87675	0.8152
2.90982	0.81
2.94289	0.805
2.97596	0.812
3.00903	0.823
3.0421	0.8031
3.07517	0.828
3.10824	0.8299
3.14131	0.828
3.17438	0.8153
3.20745	0.7744
3.24052	0.6335
3.27359	0.5273
3.30666	0.5217
3.33973	0.5981
3.3728	0.4459
3.40587	0.4544
3.43894	0.3772
3.47201	0.299
3.50508	0.3506
3.53815	0.626
3.57122	0.7268
3.60429	0.6628
3.63736	0.7954
3.67043	0.8377
3.7035	0.8566
3.73657	0.8668
3.76964	0.872
3.80271	0.8799
3.83578	0.883
3.86885	0.8849
3.90192	0.893
3.93499	0.89
3.96806	0.893
4.00113	0.892
4.0342	0.8919
4.06727	0.8819
4.10034	0.8779
4.13341	0.8829
4.16648	0.8896
4.19955	0.8902
4.23262	0.883
4.26569	0.8915
4.29876	0.8869
4.33183	0.8969
4.3649	0.885
4.39797	0.8979
4.43104	0.9
4.46411	0.9
4.49718	0.8949
4.53025	0.885
4.56331	0.893
4.59638	0.897
4.62945	0.897
4.66252	0.893
4.69559	0.882
4.72866	0.883
4.76173	0.8901
4.7948	0.887
4.82787	0.893
4.86094	0.898
4.89401	0.898
4.92708	0.893
4.96015	0.893
4.99322	0.878
5.02629	0.8701
5.05936	0.8583
5.09243	0.836
5.1255	0.827
5.15857	0.8363
5.19164	0.8557
5.22471	0.8816
5.25778	0.876
5.29085	0.8676
5.32392	0.8676
5.35699	0.8594
5.39006	0.8589
5.42313	0.8773
5.4562	0.8905
5.48927	0.8946
5.52234	0.8898
5.55541	0.8799
5.58848	0.875
5.62155	0.8729
5.65462	0.878
5.68769	0.8754
5.72076	0.8685
5.75383	0.856
5.7869	0.8524
5.81997	0.85
5.85304	0.8301
5.88611	0.8055
5.91918	0.7683
5.95225	0.7465
5.98532	0.6029
6.01839	0.1613
6.05146	0.2246
6.08453	0.5341
6.1176	0.6606
6.15067	0.6988
6.18374	0.686
6.21681	0.4256
6.24988	0.0799
6.28295	0.4391
6.31602	0.658
6.34909	0.692
6.38216	0.5409
6.41523	0.2911
6.4483	0.5896
6.48137	0.7048
6.51444	0.734
6.54751	0.7584
6.58058	0.7874
6.61365	0.79
6.64672	0.7838
6.67979	0.7699
6.71286	0.7322
6.74593	0.7238
6.779	0.7257
6.81207	0.645
6.84514	0.4887
6.87821	0.328
6.91128	0.4644
6.94435	0.483
6.97742	0.4489
7.01049	0.5086
7.04356	0.408
7.07663	0.1207
7.1097	0.1423
7.14277	0.1821
7.17584	0.3882
7.20891	0.5899
7.24198	0.6369
7.27505	0.5708
7.30812	0.4597
7.34119	0.4765
7.37426	0.6732
7.40733	0.7478
7.4404	0.7664
7.47347	0.772
7.50654	0.7057
7.53961	0.5111
7.57268	0.1736
7.60575	0.5712
7.63882	0.7301
7.67189	0.7542
7.70496	0.7709
7.73803	0.792
7.7711	0.805
7.80417	0.8153
7.83724	0.8271
7.87031	0.828
7.90338	0.8281
7.93645	0.8221
7.96952	0.7985
8.00259	0.7302
8.03566	0.5843
8.06873	0.3751
8.1018	0.3792
8.13487	0.4685
8.16794	0.5283
8.20101	0.5523
8.23408	0.5859
8.26715	0.7024
8.30022	0.719
8.33329	0.7481
8.36636	0.7893
8.39943	0.8179
8.4325	0.832
8.46557	0.835
8.49864	0.8334
8.53171	0.8344
8.56478	0.8322
8.59785	0.8315
8.63092	0.8344
8.66399	0.835
8.69706	0.835
8.73013	0.835
8.7632	0.8326
8.79627	0.8145
8.82934	0.7782
8.86241	0.707
8.89548	0.6662
8.92855	0.6927
8.96162	0.7302
8.99469	0.75
9.02776	0.754
9.06083	0.7548
9.0939	0.7679
9.12697	0.7826
9.16004	0.792
9.19311	0.7693
9.22618	0.7103
9.25925	0.7246
9.29232	0.7797
9.32539	0.794
9.35846	0.7861
9.39153	0.6776
9.4246	0.5951
9.45767	0.6946
9.49074	0.7553
9.52381	0.7754
9.55687	0.789
9.58994	0.794
9.62301	0.7968
9.65608	0.7942
9.68915	0.7905
9.72222	0.7897
9.75529	0.792
9.78836	0.7858
9.82143	0.7714
9.8545	0.7336
9.88757	0.6463
9.92064	0.514
9.95371	0.2393
9.98678	0.1004
10.0199	0.1562
10.0529	0.3143
10.086	0.3719
10.1191	0.269
10.1521	0.6275
10.1852	0.6769
10.2183	0.6692
10.2513	0.6378
10.2844	0.5698
10.3175	0.5198
10.3506	0.501
10.3836	0.5356
10.4167	0.6101
10.4498	0.632
10.4828	0.5959
10.5159	0.5183
10.549	0.4164
10.582	0.361
10.6151	0.4008
10.6482	0.5344
10.6813	0.667
10.7143	0.7383
10.7474	0.7761
10.7805	0.8034
10.8135	0.821
10.8466	0.832
10.8797	0.8412
10.9127	0.8464
10.9458	0.8513
10.9789	0.852
11.012	0.853
11.045	0.8524
11.0781	0.855
11.1112	0.855
11.1442	0.8535
11.1773	0.8546
11.2104	0.8518
11.2434	0.848
11.2765	0.847
11.3096	0.8351
11.3427	0.8237
11.3757	0.8126
11.4088	0.802
11.4419	0.795
11.4749	0.7866
11.508	0.7523
11.5411	0.7469
11.5741	0.7691
11.6072	0.7964
11.6403	0.8073
11.6734	0.8154
11.7064	0.818
11.7395	0.82
11.7726	0.818
11.8056	0.8168
11.8387	0.8119
11.8718	0.803
11.9048	0.79
11.9379	0.7707
11.971	0.7376
12.0041	0.7033
12.0371	0.6534
12.0702	0.5832
12.1033	0.4996
12.1363	0.3758
12.1694	0.2431
12.2025	0.1397
12.2355	0.0941
12.2686	0.0615
12.3017	0.039
12.3347	0.0433
12.3678	0.0988
12.4009	0.2754
12.434	0.423
12.467	0.5629
12.5001	0.6459
12.5332	0.708
12.5662	0.7381
12.5993	0.7636
12.6324	0.776
12.6654	0.7878
12.6985	0.8016
12.7316	0.812
12.7647	0.8124
12.7977	0.8157
12.8308	0.8205
12.8639	0.823
12.8969	0.8283
12.93	0.833
12.9631	0.835
12.9961	0.835
13.0292	0.835
13.0623	0.835
13.0954	0.8365
13.1284	0.837
13.1615	0.837
13.1946	0.838
13.2276	0.84
13.2607	0.8374
13.2938	0.838
13.3268	0.838
13.3599	0.8362
13.393	0.8373
13.4261	0.8365
13.4591	0.8316
13.4922	0.8279
13.5253	0.8248
13.5583	0.822
13.5914	0.82
13.6245	0.8218
13.6575	0.823
13.6906	0.823
13.7237	0.8236
13.7568	0.822
13.7898	0.822
13.8229	0.82
13.856	0.82
13.889	0.818
13.9221	0.815
13.9552	0.817
13.9882	0.8146
14.0213	0.8098
14.0544	0.805
14.0875	0.802
14.1205	0.803
14.1536	0.8
14.1867	0.8
14.2197	0.7972
14.2528	0.795
14.2859	0.7925
14.3189	0.7893
14.352	0.789
14.3851	0.784
14.4182	0.781
14.4512	0.78
14.4843	0.779
14.5174	0.7747
14.5504	0.772
14.5835	0.769
14.6166	0.7668
14.6496	0.759
14.6827	0.754
14.7158	0.752
14.7489	0.747
14.7819	0.7442
14.815	0.735
14.8481	0.732
14.8811	0.7275
14.9142	0.7276
14.9473	0.7208
14.9803	0.6956
