Infrared Spectrum: 2,4-Dichlorobenzenesulfonyl chloride
Formula: C 6 H 3 Cl 3 O 2 S
CAS: 16271-33-3
State: gas
Origin: EPA-IR VAPOR PHASE LIBRARY
1/CM	ABSORBANCE
549.8	0.055062
559.445	0.033392
569.09	0.057512
578.734	0.146542
588.379	0.094472
598.024	0.055882
607.669	0.222632
617.313	0.227972
626.958	0.036502
636.603	0.013282
646.248	0.007982
655.893	0.006292
665.537	0.011082
675.182	0.030082
684.827	0.010672
694.472	0.011602
704.116	0.011742
713.761	0.003352
723.406	0.002542
733.051	0.002932
742.695	0.004022
752.34	0.004892
761.985	0.004892
771.63	0.003382
781.275	0.003172
790.919	0.004972
800.564	0.014062
810.209	0.049132
819.854	0.174012
829.498	0.133812
839.143	0.019922
848.788	0.009742
858.433	0.008502
868.078	0.021012
877.722	0.022242
887.367	0.007922
897.012	0.003102
906.657	0.001942
916.301	0.001962
925.946	0.001362
935.591	0.0011331
945.236	0.0012332
954.88	0.001272
964.525	0.001672
974.17	0.001552
983.815	0.001812
993.46	0.001802
1003.1	0.0012203
1012.75	0.002552
1022.39	0.006512
1032.04	0.020552
1041.68	0.018102
1051.33	0.005482
1060.97	0.004442
1070.62	0.005872
1080.26	0.008622
1089.91	0.015512
1099.55	0.043752
1109.2	0.053432
1118.84	0.068242
1128.49	0.035732
1138.13	0.039972
1147.78	0.040902
1157.42	0.025582
1167.07	0.029932
1176.71	0.076152
1186.36	0.209122
1196	0.125092
1205.64	0.022222
1215.29	0.015382
1224.93	0.022062
1234.58	0.020492
1244.22	0.022892
1253.87	0.016212
1263.51	0.007352
1273.16	0.006382
1282.8	0.004262
1292.45	0.003142
1302.09	0.003052
1311.74	0.003492
1321.38	0.003452
1331.03	0.004032
1340.67	0.005392
1350.32	0.008512
1359.96	0.017142
1369.61	0.023072
1379.25	0.023832
1388.9	0.053482
1398.54	0.175452
1408.18	0.236122
1417.83	0.069192
1427.47	0.022522
1437.12	0.023022
1446.76	0.041912
1456.41	0.045412
1466.05	0.024322
1475.7	0.005702
1485.34	0.003462
1494.99	0.004062
1504.63	0.006192
1514.28	0.007532
1523.92	0.009002
1533.57	0.016512
1543.21	0.040052
1552.86	0.068072
1562.5	0.085232
1572.15	0.125542
1581.79	0.060212
1591.44	0.020142
1601.08	0.008062
1610.73	0.004152
1620.37	0.003272
1630.01	0.004022
1639.66	0.005082
1649.3	0.003832
1658.95	0.001932
1668.59	0.0012242
1678.24	0.001312
1687.88	0.0011227
1697.53	0.0011255
1707.17	0.001682
1716.82	0.002072
1726.46	0.001702
1736.11	0.002622
1745.75	0.003072
1755.4	0.001962
1765.04	0.002292
1774.69	0.003032
1784.33	0.001912
1793.98	0.001362
1803.62	0.0010105
1813.27	0.0010096
1822.91	0.0010888
1832.55	0.0011584
1842.2	0.0010963
1851.84	0.001402
1861.49	0.001242
1871.13	0.0008177
1880.78	0.0007123
1890.42	0.0009549
1900.07	0.001532
1909.71	0.002812
1919.36	0.002802
1929	0.001562
1938.65	0.001332
1948.29	0.0010922
1957.94	0.0008394
1967.58	0.0009271
1977.23	0.0009165
1986.87	0.0007207
1996.52	0.0005328
2006.16	0.0005345
2015.81	0.0004792
2025.45	0.000346
2035.1	0.0004084
2044.74	0.0004294
2054.38	0.0005323
2064.03	0.0006016
2073.67	0.0006846
2083.32	0.0004465
2092.96	0.000518
2102.61	0.0004166
2112.25	0.000465
2121.9	0.0005832
2131.54	0.0010555
2141.19	0.0011526
2150.83	0.0007951
2160.48	0.000613
2170.12	0.0004371
2179.77	0.0004432
2189.41	0.0005831
2199.06	0.0005242
2208.7	0.0004835
2218.35	0.0007639
2227.99	0.0008816
2237.64	0.0006103
2247.28	0.0007491
2256.92	0.0005637
2266.57	0.0005549
2276.21	0.0006718
2285.86	0.0008847
2295.5	0.0010248
2305.15	0.0007653
2314.79	0.0006593
2324.44	0.0004902
2334.08	0.0005652
2343.73	0.0008925
2353.37	0.0009733
2363.02	0.0012309
2372.66	0.001432
2382.31	0.001027
2391.95	0.00081
2401.6	0.0008233
2411.24	0.0006577
2420.89	0.0004364
2430.53	0.0004912
2440.18	0.0005249
2449.82	0.0004927
2459.47	0.0004749
2469.11	0.0004415
2478.75	0.0006975
2488.4	0.0009704
2498.04	0.0011299
2507.69	0.001352
2517.33	0.001612
2526.98	0.001642
2536.62	0.001802
2546.27	0.001592
2555.91	0.001332
2565.56	0.001204
2575.2	0.001472
2584.85	0.001802
2594.49	0.001352
2604.14	0.0010505
2613.78	0.0010396
2623.43	0.0009288
2633.07	0.0009514
2642.72	0.0009051
2652.36	0.0007473
2662.01	0.0008309
2671.65	0.0009139
2681.29	0.0006177
2690.94	0.0006924
2700.58	0.0009307
2710.23	0.0005614
2719.87	0.00028968
2729.52	0.0003715
2739.16	0.0004248
2748.81	0.0004907
2758.45	0.0004655
2768.1	0.0006149
2777.74	0.0005583
2787.39	0.0005074
2797.03	0.0006663
2806.68	0.0007673
2816.32	0.0005796
2825.97	0.000566
2835.61	0.0003689
2845.26	0.0003481
2854.9	0.00032878
2864.55	0.0003584
2874.19	0.00031177
2883.84	0.00011
2893.48	0.0002191
2903.12	0.00031743
2912.77	0.0003536
2922.41	0.0004129
2932.06	0.0006052
2941.7	0.0005755
2951.35	0.0004789
2960.99	0.0003948
2970.64	0.0005065
2980.28	0.0007525
2989.93	0.0008497
2999.57	0.0011004
3009.22	0.001552
3018.86	0.001292
3028.51	0.0007957
3038.15	0.0006857
3047.8	0.000468
3057.44	0.000675
3067.09	0.0009279
3076.73	0.001542
3086.38	0.002922
3096.02	0.006152
3105.67	0.004842
3115.31	0.001502
3124.95	0.0006776
3134.6	0.000552
3144.24	0.000535
3153.89	0.0004328
3163.53	0.00028099
3173.18	0.000443
3182.82	0.0005522
3192.47	0.00033409
3202.11	0.000251246
3211.76	0.00029322
3221.4	0.0003602
3231.05	0.0004859
3240.69	0.00032296
3250.34	0.000512
3259.98	0.0004805
3269.63	0.00030392
3279.27	0.0004309
3288.92	0.0003714
3298.56	0.0002174
3308.21	0.0005609
3317.85	0.0003813
3327.49	0.00033979
3337.14	0.0005932
3346.78	0.0005404
3356.43	0.0005968
3366.07	0.00031201
3375.72	0.0005112
3385.36	0.000477
3395.01	0.0003817
3404.65	0.0004651
3414.3	0.00032578
3423.94	0.0003465
3433.59	0.0003453
3443.23	0.0005097
3452.88	0.0004338
3462.52	0.0005146
3472.17	0.00032218
3481.81	0.0006139
3491.46	0.0004027
3501.1	0.0004943
3510.75	0.0005477
3520.39	0.0005113
3530.04	0.0005869
3539.68	0.0005002
3549.32	0.0003847
3558.97	0.0003999
3568.61	0.0004967
3578.26	0.0004171
3587.9	0.0004298
3597.55	0.0003608
3607.19	0.00030799
3616.84	0.0005234
3626.48	0.0005423
3636.13	0.0005321
3645.77	0.0003957
3655.42	0.0004898
3665.06	0.0004131
3674.71	0.00028706
3684.35	0.0006478
3694	0.0006344
3703.64	0.0003853
3713.29	0.0005782
3722.93	0.0005007
3732.58	0.0004627
3742.22	0.0004749
3751.86	0.0005268
3761.51	0.000609
3771.15	0.0007816
3780.8	0.0005583
3790.44	0.00028992
3800.09	0.000434
3809.73	0.000416
3819.38	0.0004183
3829.02	0.0005228
3838.67	0.00029465
3848.31	0.0004664
3857.96	0.00032094
3867.6	0.0004225
3877.25	0.0004906
3886.89	0.0005661
3896.54	0.00058
3906.18	0.0006637
3915.83	0.0006296
3925.47	0.0007448
3935.12	0.00023702
3944.76	0.000669
3954.41	0.00029641
3964.05	0.0004689
3973.69	0.000218
3983.34	0.00023201
3992.98	0.0005057
