Infrared Spectrum: TETRAKIS[DIMETHYLAMINO]DIBORANE
Formula: C8 H24 N4 B2
CAS: 1630-79-1
State: SOLID (BETWEEN SALTS)
Class: COBLENTZ
Instrument: BECKMAN IR-4 (HYBRID PRISM-GRATING)
Sampling: TRANSMISSION
Resolution: 4
Origin: UNITED STATES BORAX & CHEMICAL CORP.
MICROMETERS	TRANSMITTANCE
2.02	0.923
2.05496	0.928
2.08991	0.937
2.12487	0.94
2.15983	0.938
2.19478	0.933
2.22974	0.922
2.2647	0.92
2.29965	0.917
2.33461	0.913
2.36957	0.913
2.40452	0.915
2.43948	0.912
2.47444	0.916
2.50939	0.908
2.54435	0.917
2.5793	0.923
2.61426	0.93
2.64922	0.931
2.68417	0.933
2.71913	0.938
2.75409	0.931
2.78904	0.925
2.824	0.933
2.85896	0.928
2.89391	0.923
2.92887	0.921
2.96383	0.918
2.99878	0.921
3.03374	0.92
3.0687	0.913
3.10365	0.911
3.13861	0.911
3.17357	0.91
3.20852	0.902
3.24348	0.883
3.27844	0.868
3.31339	0.842
3.34835	0.753
3.38331	0.536
3.41826	0.635
3.45322	0.453
3.48818	0.317
3.52313	0.207
3.55809	0.348
3.59304	0.443
3.628	0.402
3.66296	0.798
3.69791	0.866
3.73287	0.886
3.76783	0.898
3.80278	0.901
3.83774	0.902
3.8727	0.902
3.90765	0.901
3.94261	0.901
3.97757	0.907
4.01252	0.907
4.04748	0.92
4.08244	0.923
4.11739	0.922
4.15235	0.917
4.18731	0.918
4.22226	0.95
4.25722	0.952
4.29218	0.953
4.32713	0.951
4.36209	0.936
4.39705	0.927
4.432	0.925
4.46696	0.922
4.50192	0.926
4.53687	0.925
4.57183	0.925
4.60679	0.936
4.64174	0.94
4.6767	0.94
4.71165	0.94
4.74661	0.94
4.78157	0.937
4.81652	0.933
4.85148	0.952
4.88644	0.953
4.92139	0.953
4.95635	0.958
4.99131	0.961
5.02626	0.96
5.06122	0.951
5.09618	0.938
5.13113	0.921
5.16609	0.931
5.20105	0.926
5.236	0.922
5.27096	0.925
5.30592	0.928
5.34087	0.917
5.37583	0.923
5.41079	0.926
5.44574	0.928
5.4807	0.933
5.51566	0.926
5.55061	0.928
5.58557	0.935
5.62053	0.913
5.65548	0.922
5.69044	0.91
5.72539	0.918
5.76035	0.912
5.79531	0.917
5.83026	0.915
5.86522	0.898
5.90018	0.912
5.93513	0.888
5.97009	0.9
6.00505	0.892
6.04	0.872
6.07496	0.896
6.10992	0.877
6.14487	0.873
6.17983	0.875
6.21479	0.87
6.24974	0.863
6.2847	0.862
6.31966	0.861
6.35461	0.853
6.38957	0.857
6.42453	0.84
6.45948	0.828
6.49444	0.772
6.5294	0.728
6.56435	0.628
6.59931	0.521
6.63427	0.317
6.66922	0.232
6.70418	0.347
6.73913	0.561
6.77409	0.611
6.80905	0.576
6.844	0.447
6.87896	0.323
6.91392	0.372
6.94887	0.572
6.98383	0.73
7.01879	0.753
7.05374	0.715
7.0887	0.561
7.12366	0.616
7.15861	0.585
7.19357	0.43
7.22853	0.206
7.26348	0.142
7.29844	0.081
7.3334	0.136
7.36835	0.33
7.40331	0.493
7.43827	0.468
7.47322	0.38
7.50818	0.503
7.54314	0.66
7.57809	0.745
7.61305	0.786
7.64801	0.811
7.68296	0.825
7.71792	0.846
7.75288	0.85
7.78783	0.853
7.82279	0.856
7.85774	0.855
7.8927	0.855
7.92766	0.851
7.96261	0.848
7.99757	0.837
8.03253	0.822
8.06748	0.783
8.10244	0.703
8.1374	0.561
8.17235	0.431
8.20731	0.312
8.24227	0.412
8.27722	0.575
8.31218	0.671
8.34714	0.725
8.38209	0.686
8.41705	0.533
8.45201	0.592
8.48696	0.708
8.52192	0.801
8.55688	0.823
8.59183	0.823
8.62679	0.812
8.66175	0.781
8.6967	0.712
8.73166	0.6
8.76662	0.533
8.80157	0.538
8.83653	0.457
8.87148	0.417
8.90644	0.37
8.9414	0.178
8.97635	0.18
9.01131	0.331
9.04627	0.533
9.08122	0.55
9.11618	0.607
9.15114	0.708
9.18609	0.785
9.22105	0.805
9.25601	0.807
9.29096	0.798
9.32592	0.766
9.36088	0.69
9.39583	0.493
9.43079	0.383
9.46575	0.523
9.5007	0.497
9.53566	0.443
9.57062	0.591
9.60557	0.72
9.64053	0.806
9.67549	0.837
9.71044	0.851
9.7454	0.861
9.78036	0.863
9.81531	0.868
9.85027	0.878
9.88522	0.893
9.92018	0.898
9.95514	0.902
9.99009	0.902
10.0251	0.903
10.06	0.906
10.095	0.91
10.1299	0.913
10.1649	0.915
10.1998	0.92
10.2348	0.927
10.2697	0.932
10.3047	0.936
10.3397	0.937
10.3746	0.938
10.4096	0.94
10.4445	0.941
10.4795	0.942
10.5144	0.943
10.5494	0.943
10.5844	0.945
10.6193	0.945
10.6543	0.946
10.6892	0.947
10.7242	0.947
10.7591	0.948
10.7941	0.948
10.8291	0.948
10.864	0.946
10.899	0.942
10.9339	0.937
10.9689	0.931
11.0038	0.917
11.0388	0.893
11.0737	0.845
11.1087	0.787
11.1437	0.751
11.1786	0.69
11.2136	0.611
11.2485	0.668
11.2835	0.773
11.3184	0.868
11.3534	0.92
11.3884	0.942
11.4233	0.952
11.4583	0.955
11.4932	0.961
11.5282	0.962
11.5631	0.962
11.5981	0.962
11.6331	0.962
11.668	0.963
11.703	0.962
11.7379	0.962
11.7729	0.961
11.8078	0.962
11.8428	0.957
11.8777	0.94
11.9127	0.93
11.9477	0.94
11.9826	0.93
12.0176	0.887
12.0525	0.883
12.0875	0.938
12.1224	0.961
12.1574	0.963
12.1924	0.965
12.2273	0.963
12.2623	0.962
12.2972	0.962
12.3322	0.962
12.3671	0.963
12.4021	0.963
12.4371	0.962
12.472	0.961
12.507	0.962
12.5419	0.962
12.5769	0.962
12.6118	0.961
12.6468	0.958
12.6817	0.957
12.7167	0.956
12.7517	0.955
12.7866	0.953
12.8216	0.95
12.8565	0.948
12.8915	0.95
12.9264	0.95
12.9614	0.946
12.9964	0.941
13.0313	0.94
13.0663	0.938
13.1012	0.938
13.1362	0.938
13.1711	0.938
13.2061	0.935
13.2411	0.932
13.276	0.932
13.311	0.93
13.3459	0.928
13.3809	0.925
13.4158	0.921
13.4508	0.92
13.4858	0.918
13.5207	0.917
13.5557	0.913
13.5906	0.911
13.6256	0.907
13.6605	0.906
13.6955	0.902
13.7304	0.897
13.7654	0.892
13.8004	0.887
13.8353	0.885
13.8703	0.881
13.9052	0.875
13.9402	0.87
13.9751	0.87
14.0101	0.871
14.0451	0.868
14.08	0.865
14.115	0.857
14.1499	0.853
14.1849	0.848
14.2198	0.852
14.2548	0.856
14.2898	0.855
14.3247	0.851
14.3597	0.85
14.3946	0.846
14.4296	0.842
14.4645	0.842
14.4995	0.836
14.5344	0.831
14.5694	0.822
14.6044	0.817
14.6393	0.806
14.6743	0.801
14.7092	0.792
14.7442	0.782
14.7791	0.775
14.8141	0.756
14.8491	0.74
14.884	0.727
