Infrared Spectrum: Silane, chloro(methyl)phenyl-
Formula: C7 H9 Cl Si
CAS: 1631-82-9
State: SOLUTION (10% CCl4 FOR 3800-1300, 2% CS2 FOR 1300-650, AND 10% CCl4 FOR 650-250)
Boiling point: 176 C
Class: COBLENTZ III
Instrument: PERKIN-ELMER 521 (GRATING)
Instrument parameters: FILTERS AT 3150, 2500, 2000, 1150, 700, 410. GRATING CHANGES: 2000, 630
Path length: 0.010 CM, 0.011 CM, AND 0.020 CM
Resolution: 2
Origin: DOW CORNING CORP.
1/CM	TRANSMITTANCE
244	0.7494
253	0.7529
262	0.7539
271	0.7501
280	0.7421
289	0.7361
298	0.7976
307	0.8446
316	0.8505
325	0.8536
334	0.8528
343	0.8472
352	0.8327
361	0.8013
370	0.741
379	0.5829
388	0.3756
397	0.464
406	0.6872
415	0.7618
424	0.7765
433	0.7749
442	0.762
451	0.6724
460	0.2812
469	0.5304
478	0.6397
487	0.6166
496	0.4614
505	0.2546
514	0.0066
523	0.0717
532	0.2822
541	0.624
550	0.6742
559	0.7158
568	0.7699
577	0.7917
586	0.7989
595	0.8009
604	0.8098
613	0.807
622	0.845
631	0.9106
640	0.911
649	0.9078
658	0.8816
667	0.8434
676	0.8608
685	0.8441
694	0.542
703	0.6961
712	0.7523
721	0.5662
730	0.531
739	0.5956
748	0.6568
757	0.7769
766	0.845
775	0.8583
784	0.848
793	0.8408
802	0.824
811	0.7737
820	0.586
829	0.3376
838	0.3913
847	0.6451
856	0.6985
865	0.6607
874	0.4582
883	0.4271
892	0.6618
901	0.7962
910	0.8207
919	0.8356
928	0.8523
937	0.8552
946	0.8672
955	0.873
964	0.8699
973	0.8762
982	0.8776
991	0.8672
1000	0.8793
1009	0.8757
1018	0.8685
1027	0.8648
1036	0.8684
1045	0.8582
1054	0.8448
1063	0.8397
1072	0.8504
1081	0.8511
1090	0.8497
1099	0.8453
1108	0.793
1117	0.4266
1126	0.7533
1135	0.8869
1144	0.8959
1153	0.8967
1162	0.8966
1171	0.8947
1180	0.8921
1189	0.8916
1198	0.8962
1207	0.898
1216	0.8932
1225	0.8884
1234	0.8763
1243	0.8229
1252	0.6503
1261	0.8417
1270	0.887
1279	0.894
1288	0.8907
1297	0.779
1306	0.7786
1315	0.8695
1324	0.8603
1333	0.7688
1342	0.876
1351	0.873
1360	0.8667
1369	0.8392
1378	0.8305
1387	0.813
1396	0.7666
1405	0.7451
1414	0.7536
1423	0.6445
1432	0.2053
1441	0.813
1450	0.8389
1459	0.8569
1468	0.8691
1477	0.8603
1486	0.7219
1495	0.8843
1504	0.9062
1513	0.9198
1522	0.9292
1531	0.9349
1540	0.9359
1549	0.9322
1558	0.9171
1567	0.897
1576	0.8826
1585	0.8471
1594	0.7528
1603	0.8837
1612	0.8818
1621	0.8892
1630	0.8943
1639	0.8798
1648	0.8851
1657	0.8915
1666	0.8927
1675	0.8948
1684	0.9004
1693	0.9015
1702	0.9041
1711	0.9045
1720	0.9038
1729	0.9025
1738	0.9006
1747	0.8968
1756	0.8841
1765	0.8723
1774	0.891
1783	0.9007
1792	0.9001
1801	0.8948
1810	0.8707
1819	0.842
1828	0.8869
1837	0.8921
1846	0.9026
1855	0.9021
1864	0.8989
1873	0.8888
1882	0.8426
1891	0.8756
1900	0.8623
1909	0.8944
1918	0.8966
1927	0.8951
1936	0.8915
1945	0.878
1954	0.8398
1963	0.8818
1972	0.869
1981	0.8954
1990	0.8981
1999	0.9028
2008	0.9057
2017	0.9067
2026	0.9076
2035	0.9077
2044	0.9068
2053	0.9046
2062	0.9007
2071	0.896
2080	0.8874
2089	0.8762
2098	0.8565
2107	0.8299
2116	0.7845
2125	0.7367
2134	0.6657
2143	0.5535
2152	0.3782
2161	0.2028
2170	0.1425
2179	0.3374
2188	0.5063
2197	0.6032
2206	0.7685
2215	0.8189
2224	0.8429
2233	0.8568
2242	0.8772
2251	0.8869
2260	0.8929
2269	0.8962
2278	0.8976
2287	0.898
2296	0.899
2305	0.9
2314	0.901
2323	0.902
2332	0.9032
2341	0.9039
2350	0.9045
2359	0.9054
2368	0.9057
2377	0.9055
2386	0.9055
2395	0.9054
2404	0.9053
2413	0.9053
2422	0.9053
2431	0.9049
2440	0.904
2449	0.9032
2458	0.9023
2467	0.9015
2476	0.9007
2485	0.8999
2494	0.8996
2503	0.8993
2512	0.899
2521	0.899
2530	0.8993
2539	0.8995
2548	0.8998
2557	0.9
2566	0.9
2575	0.8999
2584	0.8999
2593	0.8998
2602	0.8997
2611	0.8995
2620	0.9015
2629	0.9032
2638	0.9034
2647	0.9029
2656	0.9017
2665	0.9004
2674	0.8991
2683	0.8975
2692	0.8958
2701	0.8944
2710	0.8996
2719	0.9019
2728	0.9015
2737	0.9002
2746	0.8981
2755	0.896
2764	0.894
2773	0.892
2782	0.8894
2791	0.8869
2800	0.8849
2809	0.8809
2818	0.877
2827	0.8742
2836	0.8724
2845	0.8648
2854	0.8554
2863	0.8472
2872	0.8441
2881	0.8487
2890	0.8444
2899	0.8241
2908	0.811
2917	0.8022
2926	0.8086
2935	0.8146
2944	0.814
2953	0.7947
2962	0.6968
2971	0.6491
2980	0.6847
2989	0.7956
2998	0.7806
3007	0.6979
3016	0.6858
3025	0.6756
3034	0.7172
3043	0.7399
3052	0.6536
3061	0.5813
3070	0.6566
3079	0.5198
3088	0.7651
3097	0.7734
3106	0.8427
3115	0.8674
3124	0.8717
3133	0.8718
3142	0.8474
3151	0.8727
3160	0.8779
3169	0.8814
3178	0.889
3187	0.8952
3196	0.8989
3205	0.9013
3214	0.9036
3223	0.9055
3232	0.9073
3241	0.9088
3250	0.9104
3259	0.9118
3268	0.9133
3277	0.9147
3286	0.916
3295	0.9173
3304	0.9179
3313	0.9183
3322	0.9188
3331	0.9191
3340	0.9194
3349	0.9197
3358	0.92
3367	0.9202
3376	0.9205
3385	0.9207
3394	0.9209
3403	0.9212
3412	0.9215
3421	0.9218
3430	0.9221
3439	0.9223
3448	0.9228
3457	0.9232
3466	0.9237
3475	0.9241
3484	0.9246
3493	0.9249
3502	0.9253
3511	0.9255
3520	0.9259
3529	0.9262
3538	0.9266
3547	0.9269
3556	0.9273
3565	0.9277
3574	0.9281
3583	0.9286
3592	0.9291
3601	0.9291
3610	0.9292
3619	0.9301
3628	0.9303
3637	0.9256
3646	0.9239
3655	0.9346
3664	0.9289
3673	0.9249
3682	0.9359
3691	0.932
3700	0.924
3709	0.9235
3718	0.9259
3727	0.9314
3736	0.9348
3745	0.937
3754	0.9386
3763	0.9381
3772	0.9329
3781	0.928
3790	0.926
3799	0.9266
3808	0.9289
3817	0.9344
