Infrared Spectrum: Silane, dichloro-phenyl-,
Formula: C6 H6 Cl2 Si
CAS: 1631-84-1
State: SOLUTION (7% CCl4 FOR 3800-1250, 2% CS2 FOR 1250-650, AND 7% CCl4 FOR 650-250)
Boiling point: 185 C
Class: COBLENTZ III
Instrument: PERKIN-ELMER 521 (GRATING)
Instrument parameters: FILTERS AT 3150, 2500, 2000, 1150, 700, 410. GRATING CHANGES: 2000, 630
Path length: 0.010 CM, 0.020 CM, AND 0.011 CM
Resolution: 2
Origin: DOW CORNING CORP.
1/CM	TRANSMITTANCE
238	0.8743
247	0.8704
256	0.8712
265	0.8729
274	0.8727
283	0.8723
292	0.8873
301	0.8924
310	0.8921
319	0.8902
328	0.8867
337	0.8795
346	0.8697
355	0.8535
364	0.8341
373	0.8038
382	0.6703
391	0.6341
400	0.5837
409	0.5628
418	0.6986
427	0.7571
436	0.7788
445	0.7752
454	0.7239
463	0.4754
472	0.4618
481	0.7083
490	0.72
499	0.692
508	0.6558
517	0.396
526	0.0188
535	0.1412
544	0.4716
553	0.4463
562	0.2078
571	0.0045
580	0.0798
589	0.3523
598	0.4286
607	0.749
616	0.7086
625	0.7117
634	0.7615
643	0.7675
652	0.9028
661	0.8904
670	0.8836
679	0.8711
688	0.7679
697	0.637
706	0.7908
715	0.846
724	0.8282
733	0.4572
742	0.8386
751	0.8646
760	0.8565
769	0.8276
778	0.7812
787	0.602
796	0.3575
805	0.3324
814	0.4714
823	0.7014
832	0.7387
841	0.758
850	0.8126
859	0.8398
868	0.8544
877	0.8611
886	0.8628
895	0.8685
904	0.8655
913	0.8616
922	0.8639
931	0.8729
940	0.8732
949	0.8717
958	0.8728
967	0.8705
976	0.8706
985	0.8681
994	0.8453
1003	0.8648
1012	0.8611
1021	0.8458
1030	0.839
1039	0.8356
1048	0.8192
1057	0.8034
1066	0.7938
1075	0.785
1084	0.776
1093	0.7666
1102	0.7568
1111	0.7104
1120	0.4725
1129	0.7306
1138	0.8383
1147	0.8663
1156	0.8807
1165	0.886
1174	0.8851
1183	0.8781
1192	0.8874
1201	0.8938
1210	0.8947
1219	0.8941
1228	0.8924
1237	0.888
1246	0.8777
1255	0.8575
1264	0.8545
1273	0.8732
1282	0.8857
1291	0.8771
1300	0.8265
1309	0.8334
1318	0.869
1327	0.8616
1336	0.7903
1345	0.8844
1354	0.886
1363	0.8796
1372	0.8556
1381	0.868
1390	0.8625
1399	0.8331
1408	0.8233
1417	0.8238
1426	0.7525
1435	0.4897
1444	0.8519
1453	0.87
1462	0.8774
1471	0.8811
1480	0.8585
1489	0.8075
1498	0.8967
1507	0.9016
1516	0.9041
1525	0.9023
1534	0.8991
1543	0.8987
1552	0.9045
1561	0.8952
1570	0.8713
1579	0.8428
1588	0.7447
1597	0.8059
1606	0.8761
1615	0.8687
1624	0.8745
1633	0.8792
1642	0.8736
1651	0.8628
1660	0.8684
1669	0.8854
1678	0.8822
1687	0.8831
1696	0.8822
1705	0.8806
1714	0.8799
1723	0.8796
1732	0.8788
1741	0.8774
1750	0.8776
1759	0.8748
1768	0.8683
1777	0.8785
1786	0.8883
1795	0.8887
1804	0.8791
1813	0.8436
1822	0.8662
1831	0.8773
1840	0.8807
1849	0.8885
1858	0.8886
1867	0.8881
1876	0.8832
1885	0.8492
1894	0.8734
1903	0.8664
1912	0.8838
1921	0.8888
1930	0.8901
1939	0.8862
1948	0.8733
1957	0.8512
1966	0.8751
1975	0.8742
1984	0.8877
1993	0.8886
2002	0.8911
2011	0.8913
2020	0.8912
2029	0.8913
2038	0.8915
2047	0.8915
2056	0.8915
2065	0.8914
2074	0.8904
2083	0.8895
2092	0.887
2101	0.8842
2110	0.8814
2119	0.8787
2128	0.8745
2137	0.8615
2146	0.8487
2155	0.8331
2164	0.8034
2173	0.7457
2182	0.7119
2191	0.656
2200	0.4379
2209	0.3985
2218	0.4842
2227	0.6097
2236	0.7354
2245	0.8267
2254	0.8446
2263	0.8615
2272	0.8711
2281	0.8756
2290	0.8781
2299	0.8792
2308	0.8799
2317	0.8806
2326	0.8813
2335	0.882
2344	0.8826
2353	0.8819
2362	0.8813
2371	0.8808
2380	0.8806
2389	0.8804
2398	0.8804
2407	0.8806
2416	0.8808
2425	0.881
2434	0.8811
2443	0.8811
2452	0.8789
2461	0.8741
2470	0.8781
2479	0.8791
2488	0.8793
2497	0.8794
2506	0.8796
2515	0.8796
2524	0.879
2533	0.8782
2542	0.8775
2551	0.8767
2560	0.876
2569	0.8758
2578	0.8757
2587	0.8756
2596	0.8755
2605	0.8755
2614	0.8757
2623	0.8758
2632	0.8758
2641	0.8758
2650	0.875
2659	0.8743
2668	0.8736
2677	0.8729
2686	0.8708
2695	0.8684
2704	0.8659
2713	0.8713
2722	0.876
2731	0.8761
2740	0.8758
2749	0.8751
2758	0.8741
2767	0.8726
2776	0.8712
2785	0.8696
2794	0.8678
2803	0.8653
2812	0.8628
2821	0.8601
2830	0.8577
2839	0.8573
2848	0.8567
2857	0.856
2866	0.8562
2875	0.8568
2884	0.8568
2893	0.8513
2902	0.8426
2911	0.8382
2920	0.8346
2929	0.8333
2938	0.8372
2947	0.8418
2956	0.842
2965	0.8412
2974	0.8421
2983	0.8408
2992	0.8347
3001	0.7825
3010	0.7753
3019	0.7808
3028	0.7836
3037	0.7865
3046	0.7755
3055	0.7012
3064	0.7445
3073	0.6997
3082	0.8025
3091	0.808
3100	0.8474
3109	0.8523
3118	0.8508
3127	0.8473
3136	0.8357
3145	0.8343
3154	0.8528
3163	0.8567
3172	0.859
3181	0.8615
3190	0.864
3199	0.8664
3208	0.8696
3217	0.8728
3226	0.8763
3235	0.8799
3244	0.8822
3253	0.8841
3262	0.8855
3271	0.8867
3280	0.8879
3289	0.8891
3298	0.8901
3307	0.8911
3316	0.8922
3325	0.8932
3334	0.8938
3343	0.8944
3352	0.8951
3361	0.8957
3370	0.8955
3379	0.8952
3388	0.8952
3397	0.8954
3406	0.8956
3415	0.8958
3424	0.896
3433	0.8962
3442	0.8966
3451	0.897
3460	0.8974
3469	0.8978
3478	0.8982
3487	0.8986
3496	0.899
3505	0.8994
3514	0.9
3523	0.9004
3532	0.9009
3541	0.9019
3550	0.9029
3559	0.9038
3568	0.9048
3577	0.9061
3586	0.9076
3595	0.9085
3604	0.9084
3613	0.907
3622	0.9067
3631	0.9069
3640	0.9057
3649	0.9065
3658	0.9068
3667	0.9094
3676	0.9129
3685	0.9144
3694	0.9126
3703	0.9104
3712	0.9083
3721	0.9115
3730	0.9162
3739	0.9187
3748	0.9179
3757	0.9155
3766	0.9126
3775	0.9097
3784	0.9075
3793	0.9068
3802	0.9108
