Infrared Spectrum: Benzyldimethylsilane
Formula: C 9 H 14 Si
CAS: 1631-70-5
State: gas
Origin: EPA-IR VAPOR PHASE LIBRARY
1/CM	ABSORBANCE
549.9	0.00679
559.547	0.00428
569.193	0.0033735
578.84	0.0033556
588.486	0.00404
598.133	0.00628
607.779	0.01104
617.426	0.01594
627.072	0.01891
636.719	0.02084
646.365	0.01774
656.012	0.01434
665.658	0.01418
675.305	0.02147
684.951	0.04608
694.598	0.07949
704.245	0.06709
713.891	0.03851
723.538	0.02723
733.184	0.03609
742.831	0.03425
752.477	0.02362
762.124	0.03009
771.77	0.04156
781.417	0.04512
791.063	0.04303
800.71	0.04472
810.356	0.05737
820.003	0.06081
829.649	0.05465
839.296	0.06622
848.943	0.07466
858.589	0.07344
868.236	0.08961
877.882	0.17814
887.529	0.36246
897.175	0.35546
906.822	0.21013
916.468	0.11056
926.115	0.05531
935.761	0.03073
945.408	0.01848
955.054	0.01215
964.701	0.00877
974.347	0.0067
983.994	0.00536
993.64	0.00531
1003.29	0.00543
1012.93	0.00568
1022.58	0.00991
1032.23	0.01075
1041.87	0.00976
1051.52	0.01498
1061.17	0.01602
1070.81	0.01061
1080.46	0.00651
1090.11	0.0055
1099.75	0.00479
1109.4	0.00419
1119.05	0.00394
1128.69	0.00431
1138.34	0.00596
1147.99	0.01412
1157.63	0.03224
1167.28	0.02536
1176.92	0.00998
1186.57	0.01139
1196.22	0.03041
1205.86	0.04142
1215.51	0.02309
1225.16	0.01635
1234.8	0.02378
1244.45	0.03807
1254.1	0.05841
1263.74	0.05839
1273.39	0.02965
1283.04	0.01408
1292.68	0.01022
1302.33	0.00923
1311.98	0.00894
1321.62	0.0078
1331.27	0.00611
1340.92	0.00498
1350.56	0.0046
1360.21	0.00491
1369.86	0.00573
1379.5	0.00664
1389.15	0.00797
1398.79	0.01062
1408.44	0.01315
1418.09	0.0132
1427.73	0.01183
1437.38	0.01263
1447.03	0.01449
1456.67	0.01229
1466.32	0.0082
1475.97	0.00943
1485.61	0.0297
1495.26	0.0423
1504.91	0.01814
1514.55	0.00593
1524.2	0.00458
1533.85	0.00448
1543.49	0.00442
1553.14	0.00424
1562.79	0.0048
1572.43	0.00706
1582.08	0.01239
1591.73	0.024
1601.37	0.02845
1611.02	0.01592
1620.67	0.00662
1630.31	0.00387
1639.96	0.0028752
1649.6	0.00260999
1659.25	0.002451
1668.9	0.0025468
1678.54	0.0024918
1688.19	0.002311
1697.84	0.002299
1707.48	0.002388
1717.13	0.0025576
1726.78	0.0030277
1736.42	0.0033052
1746.07	0.0031823
1755.72	0.0030951
1765.36	0.0033728
1775.01	0.00424
1784.66	0.00538
1794.3	0.0058
1803.95	0.00446
1813.6	0.0033329
1823.24	0.0027112
1832.89	0.00261542
1842.54	0.0030716
1852.18	0.0039
1861.83	0.00462
1871.47	0.00494
1881.12	0.00424
1890.77	0.0031224
1900.41	0.00263656
1910.06	0.0029784
1919.71	0.00412
1929.35	0.00543
1939	0.00612
1948.65	0.00564
1958.29	0.0039
1967.94	0.0027982
1977.59	0.0025339
1987.23	0.002391
1996.88	0.0024982
2006.53	0.00262376
2016.17	0.0027572
2025.82	0.0027946
2035.47	0.0032499
2045.11	0.00439
2054.76	0.00542
2064.41	0.00556
2074.05	0.00627
2083.7	0.00908
2093.35	0.01663
2102.99	0.03732
2112.64	0.11144
2122.28	0.19665
2131.93	0.15652
2141.58	0.07258
2151.22	0.0286
2160.87	0.01297
2170.52	0.00657
2180.16	0.00419
2189.81	0.0034383
2199.46	0.0031009
2209.1	0.0025469
2218.75	0.001983
2228.4	0.00177
2238.04	0.001599
2247.69	0.00155
2257.34	0.00148
2266.98	0.00146
2276.63	0.00149
2286.28	0.001585
2295.92	0.001722
2305.57	0.002077
2315.22	0.00215
2324.86	0.001839
2334.51	0.001749
2344.16	0.001785
2353.8	0.001781
2363.45	0.001781
2373.09	0.001655
2382.74	0.001702
2392.39	0.001938
2402.03	0.002057
2411.68	0.00188
2421.33	0.00155
2430.97	0.00151
2440.62	0.00136
2450.27	0.00131
2459.91	0.00125
2469.56	0.0012
2479.21	0.00123
2488.85	0.0013
2498.5	0.00137
2508.15	0.00135
2517.79	0.00114
2527.44	0.00124
2537.09	0.00126
2546.73	0.00133
2556.38	0.00141
2566.03	0.00151
2575.67	0.001596
2585.32	0.00156
2594.96	0.00146
2604.61	0.00141
2614.26	0.00124
2623.9	0.0013
2633.55	0.00129
2643.2	0.00129
2652.84	0.00127
2662.49	0.00128
2672.14	0.00117
2681.78	0.00104
2691.43	0.0011
2701.08	0.00118
2710.72	0.00124
2720.37	0.00132
2730.02	0.00126
2739.66	0.00128
2749.31	0.00151
2758.96	0.001724
2768.6	0.002086
2778.25	0.00260173
2787.9	0.0035772
2797.54	0.00442
2807.19	0.0052
2816.84	0.00551
2826.48	0.00569
2836.13	0.00582
2845.77	0.00626
2855.42	0.00737
2865.07	0.00913
2874.71	0.01242
2884.36	0.01981
2894.01	0.03243
2903.65	0.03866
2913.3	0.03317
2922.95	0.02633
2932.59	0.02062
2942.24	0.01852
2951.89	0.02838
2961.53	0.04912
2971.18	0.04729
2980.83	0.02375
2990.47	0.01274
3000.12	0.01337
3009.77	0.01884
3019.41	0.03252
3029.06	0.04908
3038.71	0.04166
3048.35	0.02465
3058	0.03096
3067.64	0.04867
3077.29	0.0459
3086.94	0.03056
3096.58	0.02075
3106.23	0.01263
3115.88	0.00723
3125.52	0.00379
3135.17	0.002463
3144.82	0.002017
3154.46	0.001604
3164.11	0.00133
3173.76	0.00082
3183.4	0.00037
3193.05	0.00063
3202.7	0.00057
3212.34	0.00031
3221.99	0.0002
3231.64	9e-05
3241.28	0.00013
3250.93	0.00012
3260.58	0.00035
3270.22	0.00031
3279.87	0.00028
3289.52	0.00029
3299.16	0.00016
3308.81	0.00011
3318.45	0.00024
3328.1	7e-05
3337.75	0.00019
3347.39	3e-05
3357.04	6e-05
3366.69	0.00025
3376.33	0.00021
3385.98	0.00019
3395.63	0.00029
3405.27	0.00038
3414.92	0.00037
3424.57	0.00038
3434.21	0.0005
3443.86	0.00064
3453.51	0.00049
3463.15	0.00053
3472.8	0.00053
3482.45	0.00063
3492.09	0.0006
3501.74	0.00077
3511.39	0.00104
3521.03	0.00107
3530.68	0.00095
3540.33	0.00105
3549.97	0.0012
3559.62	0.00115
3569.26	0.00127
3578.91	0.0013
3588.56	0.00157
3598.2	0.00143
3607.85	0.00141
3617.5	0.00148
3627.14	0.001596
3636.79	0.0015
3646.44	0.0015
3656.08	0.00164
3665.73	0.00158
3675.38	0.001634
3685.02	0.001757
3694.67	0.001957
3704.32	0.002123
3713.96	0.002048
3723.61	0.002022
3733.26	0.002094
3742.9	0.002028
3752.55	0.00199
3762.2	0.001849
3771.84	0.001743
3781.49	0.001765
3791.13	0.001868
3800.78	0.00201
3810.43	0.001833
3820.07	0.001713
3829.72	0.001639
3839.37	0.001614
3849.01	0.00179
3858.66	0.001674
3868.31	0.001607
3877.95	0.00135
3887.6	0.00144
3897.25	0.00121
3906.89	0.00131
3916.54	0.00145
3926.19	0.00134
3935.83	0.00144
3945.48	0.00131
3955.13	0.00136
3964.77	0.00151
3974.42	0.00149
3984.07	0.00149
3993.71	0.00143
