Infrared Spectrum: 5Beta-ANDROSTAN-12-ONE,17Beta-ACETAMIDO-3Alpha-HYDROXY-,ACETATE
Formula: C23 H35 N O4
CAS: 16319-63-4
State: SOLUTION (7% IN CHCl3 FOR 4000-650 CM^-^1) VS. SOLVENT
Melting point: 247-248 C
Class: COBLENTZ
Instrument: PERKIN-ELMER 421 (GRATING)
Instrument parameters: GRATINGS: 1999 CM^-^1
Sampling: TRANSMISSION
Path length: 0.01 CM
Resolution: 2
Origin: ABBOTT LABORATORIES
1/CM	TRANSMITTANCE
649.741	0.929
659.144	0.929
668.547	0.929
677.95	0.929
687.353	0.929
696.756	0.928
706.159	0.927
715.561	0.921
724.964	0.92
734.367	0.919
743.77	0.918
753.173	0.914
762.576	0.914
771.979	0.913
781.382	0.912
790.785	0.908
800.188	0.899
809.591	0.885
818.994	0.874
828.397	0.865
837.799	0.853
847.202	0.816
856.605	0.804
866.008	0.79
875.411	0.761
884.814	0.801
894.217	0.81
903.62	0.795
913.023	0.801
922.426	0.791
931.829	0.759
941.232	0.726
950.634	0.713
960.037	0.657
969.44	0.563
978.843	0.614
988.246	0.61
997.649	0.504
1007.05	0.376
1016.45	0.272
1025.86	0.364
1035.26	0.534
1044.66	0.57
1054.07	0.638
1063.47	0.683
1072.87	0.694
1082.28	0.667
1091.68	0.65
1101.08	0.665
1110.48	0.759
1119.89	0.733
1129.29	0.667
1138.69	0.749
1148.1	0.755
1157.5	0.755
1166.9	0.734
1176.3	0.617
1185.71	0.451
1195.11	0.338
1204.51	0.266
1213.92	0.201
1223.32	0.147
1232.72	0.095
1242.13	0.077
1251.53	0.088
1260.93	0.15
1270.33	0.335
1279.74	0.453
1289.14	0.449
1298.54	0.61
1307.95	0.628
1317.35	0.647
1326.75	0.637
1336.15	0.605
1345.56	0.534
1354.96	0.264
1364.36	0.345
1373.77	0.298
1383.17	0.443
1392.57	0.58
1401.97	0.607
1411.38	0.566
1420.78	0.513
1430.18	0.49
1439.59	0.367
1448.99	0.4
1458.39	0.442
1467.8	0.505
1477.2	0.479
1486.6	0.349
1496	0.293
1505.41	0.328
1514.81	0.437
1524.21	0.515
1533.62	0.625
1543.02	0.754
1552.42	0.777
1561.82	0.798
1571.23	0.8
1580.63	0.792
1590.03	0.78
1599.44	0.721
1608.84	0.67
1618.24	0.584
1627.64	0.414
1637.05	0.178
1646.45	0.147
1655.85	0.138
1665.26	0.175
1674.66	0.229
1684.06	0.168
1693.47	0.058
1702.87	0.077
1712.27	0.092
1721.67	0.246
1731.08	0.492
1740.48	0.654
1749.88	0.777
1759.29	0.814
1768.69	0.825
1778.09	0.842
1787.49	0.852
1796.9	0.856
1806.3	0.863
1815.7	0.867
1825.11	0.867
1834.51	0.876
1843.91	0.881
1853.31	0.883
1862.72	0.883
1872.12	0.883
1881.52	0.883
1890.93	0.881
1900.33	0.881
1909.73	0.881
1919.14	0.883
1928.54	0.883
1937.94	0.884
1947.34	0.884
1956.75	0.885
1966.15	0.885
1975.55	0.886
1984.96	0.888
1994.36	0.891
2003.76	0.892
2013.16	0.894
2022.57	0.897
2031.97	0.898
2041.37	0.9
2050.78	0.902
2060.18	0.902
2069.58	0.902
2078.99	0.902
2088.39	0.901
2097.79	0.9
2107.19	0.9
2116.6	0.9
2126	0.9
2135.4	0.898
2144.81	0.899
2154.21	0.899
2163.61	0.899
2173.01	0.899
2182.42	0.899
2191.82	0.899
2201.22	0.899
2210.63	0.899
2220.03	0.899
2229.43	0.899
2238.83	0.9
2248.24	0.901
2257.64	0.902
2267.04	0.905
2276.45	0.907
2285.85	0.908
2295.25	0.911
2304.66	0.914
2314.06	0.915
2323.46	0.916
2332.86	0.918
2342.27	0.918
2351.67	0.918
2361.07	0.918
2370.48	0.918
2379.88	0.918
2389.28	0.916
2398.68	0.898
2408.09	0.876
2417.49	0.872
2426.89	0.86
2436.3	0.842
2445.7	0.837
2455.1	0.833
2464.5	0.83
2473.91	0.828
2483.31	0.825
2492.71	0.828
2502.12	0.832
2511.52	0.833
2520.92	0.833
2530.33	0.833
2539.73	0.833
2549.13	0.833
2558.53	0.832
2567.94	0.83
2577.34	0.826
2586.74	0.824
2596.15	0.821
2605.55	0.818
2614.95	0.815
2624.35	0.811
2633.76	0.81
2643.16	0.808
2652.56	0.805
2661.97	0.804
2671.37	0.803
2680.77	0.8
2690.17	0.796
2699.58	0.794
2708.98	0.792
2718.38	0.792
2727.79	0.792
2737.19	0.791
2746.59	0.789
2756	0.785
2765.4	0.783
2774.8	0.783
2784.2	0.782
2793.61	0.782
2803.01	0.778
2812.41	0.767
2821.82	0.73
2831.22	0.672
2840.62	0.616
2850.02	0.476
2859.43	0.329
2868.83	0.336
2878.23	0.451
2887.64	0.451
2897.04	0.391
2906.44	0.315
2915.85	0.228
2925.25	0.194
2934.65	0.191
2944.05	0.221
2953.46	0.263
2962.86	0.298
2972.26	0.299
2981.67	0.319
2991.07	0.341
3000.47	0.493
3009.87	0.726
3019.28	0.733
3028.68	0.757
3038.08	0.809
3047.49	0.826
3056.89	0.835
3066.29	0.836
3075.69	0.831
3085.1	0.83
3094.5	0.836
3103.9	0.84
3113.31	0.846
3122.71	0.852
3132.11	0.856
3141.52	0.859
3150.92	0.864
3160.32	0.867
3169.72	0.87
3179.13	0.872
3188.53	0.872
3197.93	0.873
3207.34	0.876
3216.74	0.88
3226.14	0.881
3235.54	0.88
3244.95	0.877
3254.35	0.873
3263.75	0.865
3273.16	0.854
3282.56	0.846
3291.96	0.837
3301.36	0.825
3310.77	0.811
3320.17	0.796
3329.57	0.796
3338.98	0.788
3348.38	0.785
3357.78	0.784
3367.19	0.774
3376.59	0.753
3385.99	0.736
3395.39	0.742
3404.8	0.755
3414.2	0.753
3423.6	0.725
3433.01	0.663
3442.41	0.633
3451.81	0.709
3461.21	0.803
3470.62	0.835
3480.02	0.84
3489.42	0.843
3498.83	0.844
3508.23	0.847
3517.63	0.849
3527.03	0.85
3536.44	0.85
3545.84	0.85
3555.24	0.85
3564.65	0.85
3574.05	0.851
3583.45	0.852
3592.86	0.853
3602.26	0.853
3611.66	0.853
3621.06	0.853
3630.47	0.852
3639.87	0.852
3649.27	0.851
3658.68	0.85
3668.08	0.852
3677.48	0.857
3686.88	0.859
3696.29	0.858
3705.69	0.856
3715.09	0.856
3724.5	0.856
3733.9	0.856
3743.3	0.854
3752.71	0.854
3762.11	0.854
3771.51	0.854
3780.91	0.854
3790.32	0.854
3799.72	0.854
3809.12	0.854
3818.53	0.854
3827.93	0.854
3837.33	0.854
3846.73	0.854
3856.14	0.854
3865.54	0.854
3874.94	0.854
3884.35	0.854
3893.75	0.853
3903.15	0.853
3912.55	0.853
3921.96	0.853
3931.36	0.853
3940.76	0.853
3950.17	0.853
3959.57	0.853
3968.97	0.853
3978.38	0.853
3987.78	0.854
3997.18	0.854
4006.58	0.856
