Infrared Spectrum: 2-Norbornanol
Formula: C7 H12 O
CAS: 1632-68-4
State: SOLUTION (20% CCl4 FOR 4000-1200, 20% CS2 FOR 1200-450 CM^-^1) VS SOLVENT
Class: COBLENTZ III
Instrument: CARY 90 (GRATING)
Instrument parameters: ORDER CHANGES: 3000, 2000, 1200 CM^-^1
Path length: 0.010 CM, AND 0.010 CM
Resolution: 2
Origin: WESTERN REGIONAL RES. USDA
1/CM	TRANSMITTANCE
471	0.7416
480	0.7576
489	0.7719
498	0.7828
507	0.7905
516	0.7941
525	0.7935
534	0.7904
543	0.7862
552	0.7804
561	0.7746
570	0.7691
579	0.7636
588	0.7585
597	0.7506
606	0.6865
615	0.7161
624	0.7416
633	0.7474
642	0.7397
651	0.7345
660	0.7415
669	0.7474
678	0.7551
687	0.7632
696	0.772
705	0.7834
714	0.7966
723	0.8103
732	0.818
741	0.8056
750	0.7593
759	0.6449
768	0.7882
777	0.8527
786	0.8683
795	0.8606
804	0.8901
813	0.8929
822	0.8755
831	0.6007
840	0.683
849	0.5675
858	0.8062
867	0.8813
876	0.7516
885	0.8304
894	0.9222
903	0.8792
912	0.4057
921	0.5865
930	0.8102
939	0.7652
948	0.7231
957	0.8533
966	0.8943
975	0.8631
984	0.7806
993	0.4263
1002	0.0362
1011	0.3354
1020	0.7699
1029	0.7855
1038	0.6709
1047	0.8296
1056	0.7717
1065	0.6465
1074	0.2639
1083	0.0297
1092	0.3427
1101	0.6865
1110	0.5836
1119	0.6451
1128	0.7078
1137	0.6683
1146	0.5946
1155	0.6971
1164	0.5816
1173	0.6912
1182	0.777
1191	0.7284
1200	0.6407
1209	0.6329
1218	0.5945
1227	0.7362
1236	0.717
1245	0.6491
1254	0.5496
1263	0.6056
1272	0.6406
1281	0.6167
1290	0.4826
1299	0.5822
1308	0.4962
1317	0.5685
1326	0.5754
1335	0.4288
1344	0.4807
1353	0.6413
1362	0.7603
1371	0.7853
1380	0.7744
1389	0.7845
1398	0.716
1407	0.7015
1416	0.7097
1425	0.7368
1434	0.6219
1443	0.6407
1452	0.4776
1461	0.6625
1470	0.7618
1479	0.7918
1488	0.8854
1497	0.8966
1506	0.9067
1515	0.9225
1524	0.9168
1533	0.9116
1542	0.9072
1551	0.9079
1560	0.9098
1569	0.9143
1578	0.9253
1587	0.937
1596	0.9467
1605	0.951
1614	0.9505
1623	0.9524
1632	0.9575
1641	0.9613
1650	0.9584
1659	0.9627
1668	0.9654
1677	0.9582
1686	0.9619
1695	0.9618
1704	0.9529
1713	0.9449
1722	0.9373
1731	0.9299
1740	0.9235
1749	0.923
1758	0.9305
1767	0.9439
1776	0.9404
1785	0.9344
1794	0.9336
1803	0.9551
1812	0.9489
1821	0.9486
1830	0.9483
1839	0.9467
1848	0.9448
1857	0.9428
1866	0.941
1875	0.9399
1884	0.9389
1893	0.939
1902	0.9392
1911	0.9386
1920	0.9375
1929	0.9364
1938	0.936
1947	0.9357
1956	0.9354
1965	0.9353
1974	0.9356
1983	0.9358
1992	0.9438
2001	0.9723
2010	0.9857
2019	0.986
2028	0.9865
2037	0.9868
2046	0.9867
2055	0.9864
2064	0.9861
2073	0.9855
2082	0.9847
2091	0.9839
2100	0.9831
2109	0.9823
2118	0.9815
2127	0.9807
2136	0.9797
2145	0.9787
2154	0.9778
2163	0.9767
2172	0.9757
2181	0.9746
2190	0.9735
2199	0.9724
2208	0.9713
2217	0.9699
2226	0.9685
2235	0.967
2244	0.9657
2253	0.9636
2262	0.9616
2271	0.9595
2280	0.9575
2289	0.9555
2298	0.954
2307	0.9525
2316	0.951
2325	0.9495
2334	0.948
2343	0.9466
2352	0.9459
2361	0.9451
2370	0.9444
2379	0.9438
2388	0.9446
2397	0.9456
2406	0.9465
2415	0.9466
2424	0.9465
2433	0.9464
2442	0.9463
2451	0.946
2460	0.9456
2469	0.9453
2478	0.9446
2487	0.9422
2496	0.9399
2505	0.9374
2514	0.9347
2523	0.9319
2532	0.9289
2541	0.9246
2550	0.9207
2559	0.9168
2568	0.9134
2577	0.9132
2586	0.914
2595	0.9155
2604	0.9159
2613	0.9143
2622	0.9129
2631	0.9107
2640	0.9086
2649	0.9056
2658	0.9023
2667	0.8989
2676	0.8964
2685	0.894
2694	0.8916
2703	0.8888
2712	0.8857
2721	0.8824
2730	0.8793
2739	0.878
2748	0.8774
2757	0.8767
2766	0.8764
2775	0.8762
2784	0.8741
2793	0.8697
2802	0.8618
2811	0.8505
2820	0.8301
2829	0.7978
2838	0.7118
2847	0.6324
2856	0.3363
2865	0.0682
2874	0.1466
2883	0.2905
2892	0.286
2901	0.1688
2910	0.2329
2919	0.1924
2928	0.108
2937	0.0266
2946	0.0087
2955	0.009
2964	0.0901
2973	0.2906
2982	0.4929
2991	0.6308
3000	0.7388
3009	0.8032
3018	0.8369
3027	0.8545
3036	0.8653
3045	0.8731
3054	0.8758
3063	0.8752
3072	0.8733
3081	0.872
3090	0.8687
3099	0.865
3108	0.8601
3117	0.8538
3126	0.8416
3135	0.8242
3144	0.7953
3153	0.7637
3162	0.737
3171	0.7193
3180	0.7014
3189	0.682
3198	0.6626
3207	0.6349
3216	0.6043
3225	0.5731
3234	0.5249
3243	0.473
3252	0.4337
3261	0.4101
3270	0.383
3279	0.348
3288	0.3124
3297	0.2953
3306	0.2854
3315	0.2758
3324	0.269
3333	0.2666
3342	0.2656
3351	0.2661
3360	0.2686
3369	0.2827
3378	0.3009
3387	0.3069
3396	0.3239
3405	0.3597
3414	0.3762
3423	0.3955
3432	0.4071
3441	0.434
3450	0.4572
3459	0.474
3468	0.4879
3477	0.5135
3486	0.5556
3495	0.5883
3504	0.6272
3513	0.6643
3522	0.6969
3531	0.7347
3540	0.7857
3549	0.8216
3558	0.8411
3567	0.8578
3576	0.8673
3585	0.8629
3594	0.7776
3603	0.6885
3612	0.5994
3621	0.6769
3630	0.8078
3639	0.8911
3648	0.9074
3657	0.9157
3666	0.9194
3675	0.9231
3684	0.9259
3693	0.9281
3702	0.9303
3711	0.9323
3720	0.9333
3729	0.9344
3738	0.9351
3747	0.9353
3756	0.9355
3765	0.9357
3774	0.936
3783	0.9356
3792	0.9352
3801	0.9346
3810	0.9341
3819	0.9333
3828	0.9324
3837	0.9316
3846	0.9309
3855	0.9298
3864	0.9284
3873	0.9271
3882	0.9275
3891	0.9281
3900	0.9297
3909	0.9314
3918	0.9323
3927	0.9331
3936	0.9341
3945	0.9352
3954	0.9363
3963	0.9371
3972	0.9379
3981	0.9386
3990	0.9393
