Infrared Spectrum: 3-Methylpyridazine
Formula: C 5 H 6 N 2
CAS: 1632-76-4
State: gas
Origin: EPA-IR VAPOR PHASE LIBRARY
1/CM	ABSORBANCE
549.8	0.001843
559.445	0.001633
569.09	0.001713
578.734	0.00051355
588.379	0.001603
598.024	0.000826
607.669	0.0014221
617.313	0.000726
626.958	0.00056807
636.603	0.0010433
646.248	0
655.893	0.0008804
665.537	0.0014962
675.182	0.000839
684.827	0.001017
694.472	0.0013241
704.116	0.0013362
713.761	0.002123
723.406	0.003093
733.051	0.003683
742.695	0.009113
752.34	0.010173
761.985	0.015903
771.63	0.020743
781.275	0.041073
790.919	0.019653
800.564	0.015213
810.209	0.010453
819.854	0.004703
829.498	0.001973
839.143	0.0013641
848.788	0.0009982
858.433	0.0007735
868.078	0.0009389
877.722	0.0009825
887.367	0.0004996
897.012	0.0010083
906.657	0.0010201
916.301	0.0013415
925.946	0.001329
935.591	0.001146
945.236	0.001573
954.88	0.0013589
964.525	0.0014958
974.17	0.002123
983.815	0.003243
993.46	0.005193
1003.1	0.005693
1012.75	0.005633
1022.39	0.004903
1032.04	0.004103
1041.68	0.004753
1051.33	0.007133
1060.97	0.012463
1070.62	0.012473
1080.26	0.012233
1089.91	0.008703
1099.55	0.003253
1109.2	0.0015087
1118.84	0.002363
1128.49	0.001683
1138.13	0.0012701
1147.78	0.0014749
1157.42	0.001603
1167.07	0.0008733
1176.71	0.001793
1186.36	0.0009001
1196	0.002753
1205.64	0.002543
1215.29	0.002133
1224.93	0.003263
1234.58	0.005823
1244.22	0.009513
1253.87	0.009453
1263.51	0.008643
1273.16	0.003093
1282.8	0.002303
1292.45	0.002083
1302.09	0.001923
1311.74	0.0015208
1321.38	0.001593
1331.03	0.001993
1340.67	0.002873
1350.32	0.003983
1359.96	0.006723
1369.61	0.010343
1379.25	0.011683
1388.9	0.011743
1398.54	0.008923
1408.18	0.010833
1417.83	0.023763
1427.47	0.032873
1437.12	0.034713
1446.76	0.029013
1456.41	0.013073
1466.05	0.006443
1475.7	0.004403
1485.34	0.004203
1494.99	0.004483
1504.63	0.004403
1514.28	0.004423
1523.92	0.004823
1533.57	0.005643
1543.21	0.006863
1552.86	0.008433
1562.5	0.013263
1572.15	0.018713
1581.79	0.018323
1591.44	0.016313
1601.08	0.006643
1610.73	0.002933
1620.37	0.001673
1630.01	0.0010791
1639.66	0.0011262
1649.3	0.0011209
1658.95	0.0010349
1668.59	0.0010596
1678.24	0.0012782
1687.88	0.0014391
1697.53	0.001853
1707.17	0.001733
1716.82	0.001963
1726.46	0.0013912
1736.11	0.001371
1745.75	0.0012472
1755.4	0.0010215
1765.04	0.0011328
1774.69	0.0010419
1784.33	0.000927
1793.98	0.0008613
1803.62	0.000916
1813.27	0.0010572
1822.91	0.0010411
1832.55	0.0012889
1842.2	0.001713
1851.84	0.001813
1861.49	0.001543
1871.13	0.0013413
1880.78	0.0013089
1890.42	0.001633
1900.07	0.001813
1909.71	0.001993
1919.36	0.002033
1929	0.001533
1938.65	0.001633
1948.29	0.001903
1957.94	0.002093
1967.58	0.001863
1977.23	0.001763
1986.87	0.0013187
1996.52	0.0011448
2006.16	0.0011114
2015.81	0.0012177
2025.45	0.0012427
2035.1	0.0012236
2044.74	0.0011146
2054.38	0.0011806
2064.03	0.0012949
2073.67	0.001245
2083.32	0.0013395
2092.96	0.001306
2102.61	0.0010417
2112.25	0.0010015
2121.9	0.000914
2131.54	0.0010611
2141.19	0.0010773
2150.83	0.0009873
2160.48	0.0010201
2170.12	0.0011888
2179.77	0.0013966
2189.41	0.0013749
2199.06	0.0012398
2208.7	0.000932
2218.35	0.0009312
2227.99	0.0010715
2237.64	0.0011133
2247.28	0.0009845
2256.92	0.0009695
2266.57	0.0009788
2276.21	0.0009839
2285.86	0.0012477
2295.5	0.0011424
2305.15	0.0010387
2314.79	0.000991
2324.44	0.0008707
2334.08	0.0008762
2343.73	0.0010778
2353.37	0.0013984
2363.02	0.0011345
2372.66	0.0011594
2382.31	0.0009348
2391.95	0.0011184
2401.6	0.000924
2411.24	0.0010452
2420.89	0.0010995
2430.53	0.0009062
2440.18	0.0009815
2449.82	0.000866
2459.47	0.0009212
2469.11	0.0008915
2478.75	0.00091
2488.4	0.0009657
2498.04	0.0009308
2507.69	0.0009645
2517.33	0.0009566
2526.98	0.0008052
2536.62	0.00058101
2546.27	0.0008641
2555.91	0.0009785
2565.56	0.000924
2575.2	0.0007968
2584.85	0.0007439
2594.49	0.000831
2604.14	0.000892
2613.78	0.0006408
2623.43	0.0010462
2633.07	0.0008407
2642.72	0.0009858
2652.36	0.0009877
2662.01	0.00073
2671.65	0.00061756
2681.29	0.0007386
2690.94	0.0007334
2700.58	0.0007619
2710.23	0.0007263
2719.87	0.0006324
2729.52	0.0011158
2739.16	0.0013289
2748.81	0.0011991
2758.45	0.0011199
2768.1	0.000872
2777.74	0.0006675
2787.39	0.0008045
2797.03	0.0012096
2806.68	0.001475
2816.32	0.001633
2825.97	0.001467
2835.61	0.001763
2845.26	0.002233
2854.9	0.002983
2864.55	0.003573
2874.19	0.004073
2883.84	0.004053
2893.48	0.004563
2903.12	0.005003
2912.77	0.007053
2922.41	0.010173
2932.06	0.013633
2941.7	0.013773
2951.35	0.012023
2960.99	0.008863
2970.64	0.007373
2980.28	0.005763
2989.93	0.005393
2999.57	0.005773
3009.22	0.005753
3018.86	0.006443
3028.51	0.007723
3038.15	0.010483
3047.8	0.016993
3057.44	0.022013
3067.09	0.022543
3076.73	0.019343
3086.38	0.010703
3096.02	0.007333
3105.67	0.005793
3115.31	0.004483
3124.95	0.003453
3134.6	0.002153
3144.24	0.001743
3153.89	0.0012919
3163.53	0.0014164
3173.18	0.0014265
3182.82	0.0009409
3192.47	0.00057693
3202.11	0.000834
3211.76	0.0004818
3221.4	0.0006969
3231.05	0.0008966
3240.69	0.00058648
3250.34	0.0008576
3259.98	0.000475
3269.63	0.0006662
3279.27	0.0004
3288.92	0.0008896
3298.56	0.0006269
3308.21	0.0005476
3317.85	0.0008339
3327.49	0.00059814
3337.14	0.0007477
3346.78	0.0006561
3356.43	0.0004842
3366.07	0.00043
3375.72	0.00054045
3385.36	0.0010146
3395.01	0.0006739
3404.65	0.0010241
3414.3	0.0009881
3423.94	0.0008682
3433.59	0.0007334
3443.23	0.000761
3452.88	0.0006794
3462.52	0.00059696
3472.17	0.0006301
3481.81	0.000718
3491.46	0.0004484
3501.1	0.00047
3510.75	0.0007189
3520.39	0.0009277
3530.04	0.0007867
3539.68	0.000888
3549.32	0.00054549
3558.97	0.0007374
3568.61	0.0007456
3578.26	0.0006594
3587.9	0.0006326
3597.55	0.0010857
3607.19	0.0004893
3616.84	0.0009558
3626.48	0.00053634
3636.13	0.00060182
3645.77	0.0009425
3655.42	0.000448
3665.06	0.00056348
3674.71	0.0004662
3684.35	0.0007961
3694	0.000833
3703.64	0.00057468
3713.29	0.0007061
3722.93	0.0004349
3732.58	0.0008574
3742.22	0.0005042
3751.86	0.0008555
3761.51	0.0009841
3771.15	0.0005087
3780.8	0.0006243
3790.44	0.0007432
3800.09	0.0007349
3809.73	0.000346
3819.38	0.0008194
3829.02	0.0009303
3838.67	0.0007844
3848.31	0.0006931
3857.96	0.0010758
3867.6	0.0008477
3877.25	0.0011255
3886.89	0.0010246
3896.54	0.0004737
3906.18	0.0006504
3915.83	0.0006651
3925.47	0.0005375
3935.12	0.0010031
3944.76	0.0007421
3954.41	0.0007984
3964.05	0.000411
3973.69	0.000723
3983.34	0.00062121
3992.98	0.000877
