Infrared Spectrum: 1,3,5-Pentanetricarbonitrile, 3-phenyl
Formula: C14 H13 N3
CAS: 16320-20-0
State: SOLID (SPLIT MULL), FLUOROLUBE FOR 3800-1330 CM^-^1, NUJOL FOR 1330-400 CM^-^1
Class: COBLENTZ III
Instrument: BECKMAN IR-9 (GRATING)
Instrument parameters: ORDER CHANGES: 670, 1200, 2000 CM^-^1
Sampling: TRANSMISSION
Resolution: 2
Origin: DOW CHEMICAL COMPANY
1/CM	TRANSMITTANCE
401	0.5759
410	0.6054
419	0.6622
428	0.7149
437	0.7255
446	0.7726
455	0.8021
464	0.8184
473	0.8291
482	0.8375
491	0.8438
500	0.8405
509	0.6796
518	0.7372
527	0.8225
536	0.6701
545	0.8292
554	0.8511
563	0.8563
572	0.8571
581	0.8533
590	0.8405
599	0.8488
608	0.8591
617	0.8555
626	0.8001
635	0.8653
644	0.8701
653	0.8706
662	0.86
671	0.7615
680	0.867
689	0.8443
698	0.5995
707	0.5659
716	0.7581
725	0.774
734	0.7958
743	0.7924
752	0.5651
761	0.1377
770	0.691
779	0.7878
788	0.7992
797	0.8346
806	0.846
815	0.839
824	0.8058
833	0.8227
842	0.8206
851	0.6725
860	0.8153
869	0.8221
878	0.7311
887	0.7878
896	0.8132
905	0.653
914	0.7648
923	0.701
932	0.78
941	0.7971
950	0.8006
959	0.7887
968	0.7267
977	0.7565
986	0.6996
995	0.7801
1004	0.7968
1013	0.7946
1022	0.5769
1031	0.7712
1040	0.7868
1049	0.7598
1058	0.7705
1067	0.7722
1076	0.6696
1085	0.7955
1094	0.8096
1103	0.7751
1112	0.7756
1121	0.76
1130	0.8021
1139	0.8054
1148	0.7919
1157	0.7788
1166	0.7595
1175	0.76
1184	0.7937
1193	0.7885
1202	0.7721
1211	0.7774
1220	0.7681
1229	0.7043
1238	0.7686
1247	0.7553
1256	0.6756
1265	0.7475
1274	0.7326
1283	0.7033
1292	0.5614
1301	0.7118
1310	0.7218
1319	0.7208
1328	0.6881
1337	0.6794
1346	0.7636
1355	0.7553
1364	0.7908
1373	0.7811
1382	0.7811
1391	0.7805
1400	0.7467
1409	0.6942
1418	0.159
1427	0.7554
1436	0.7805
1445	0.3858
1454	0.5366
1463	0.8616
1472	0.8697
1481	0.8598
1490	0.7386
1499	0.5622
1508	0.8768
1517	0.8718
1526	0.8808
1535	0.8856
1544	0.8843
1553	0.8721
1562	0.8781
1571	0.8801
1580	0.8667
1589	0.8658
1598	0.8167
1607	0.8482
1616	0.8568
1625	0.8805
1634	0.8738
1643	0.8675
1652	0.8657
1661	0.865
1670	0.8647
1679	0.8627
1688	0.8578
1697	0.8582
1706	0.8617
1715	0.8655
1724	0.866
1733	0.8602
1742	0.8568
1751	0.8527
1760	0.8485
1769	0.8448
1778	0.8337
1787	0.8382
1796	0.8418
1805	0.8396
1814	0.8248
1823	0.795
1832	0.8174
1841	0.8281
1850	0.8268
1859	0.8308
1868	0.8287
1877	0.8192
1886	0.8118
1895	0.8169
1904	0.7971
1913	0.8192
1922	0.8202
1931	0.8157
1940	0.8187
1949	0.8149
1958	0.8106
1967	0.8044
1976	0.7786
1985	0.8024
1994	0.7878
2003	0.795
2012	0.7983
2021	0.7962
2030	0.7943
2039	0.7922
2048	0.7904
2057	0.7878
2066	0.7851
2075	0.7824
2084	0.7793
2093	0.776
2102	0.7731
2111	0.7701
2120	0.7674
2129	0.7645
2138	0.7614
2147	0.7583
2156	0.7551
2165	0.751
2174	0.7471
2183	0.7424
2192	0.7376
2201	0.7319
2210	0.7258
2219	0.7171
2228	0.693
2237	0.6424
2246	0.2772
2255	0.6918
2264	0.7194
2273	0.7119
2282	0.7058
2291	0.7074
2300	0.7056
2309	0.6997
2318	0.6955
2327	0.6914
2336	0.6885
2345	0.6903
2354	0.6925
2363	0.6947
2372	0.6969
2381	0.6978
2390	0.6948
2399	0.6895
2408	0.6893
2417	0.6899
2426	0.6905
2435	0.6907
2444	0.6906
2453	0.6908
2462	0.6903
2471	0.6893
2480	0.6884
2489	0.6868
2498	0.6851
2507	0.6836
2516	0.6819
2525	0.6805
2534	0.6791
2543	0.6775
2552	0.6761
2561	0.6746
2570	0.6728
2579	0.6708
2588	0.6691
2597	0.6665
2606	0.6624
2615	0.6589
2624	0.6567
2633	0.6544
2642	0.6525
2651	0.6514
2660	0.6504
2669	0.6488
2678	0.6468
2687	0.6447
2696	0.6426
2705	0.6406
2714	0.6385
2723	0.636
2732	0.6339
2741	0.6315
2750	0.6292
2759	0.6267
2768	0.6243
2777	0.6218
2786	0.6196
2795	0.6173
2804	0.6151
2813	0.6127
2822	0.6075
2831	0.598
2840	0.5957
2849	0.5964
2858	0.5972
2867	0.5929
2876	0.5816
2885	0.571
2894	0.5716
2903	0.5725
2912	0.5684
2921	0.5512
2930	0.519
2939	0.5479
2948	0.5472
2957	0.5046
2966	0.5433
2975	0.5592
2984	0.5453
2993	0.5416
3002	0.5504
3011	0.5302
3020	0.5335
3029	0.5415
3038	0.5409
3047	0.536
3056	0.4882
3065	0.4284
3074	0.4947
3083	0.5292
3092	0.5318
3101	0.5312
3110	0.531
3119	0.531
3128	0.531
3137	0.5308
3146	0.5306
3155	0.5303
3164	0.5301
3173	0.5298
3182	0.5294
3191	0.5288
3200	0.5282
3209	0.5276
3218	0.5264
3227	0.5252
3236	0.5238
3245	0.5216
3254	0.5195
3263	0.5173
3272	0.5144
3281	0.5112
3290	0.5084
3299	0.5055
3308	0.5037
3317	0.502
3326	0.5003
3335	0.4985
3344	0.4965
3353	0.4941
3362	0.4917
3371	0.4893
3380	0.4869
3389	0.4845
3398	0.4827
3407	0.4816
3416	0.4806
3425	0.4795
3434	0.4785
3443	0.4774
3452	0.4762
3461	0.4752
3470	0.4742
3479	0.473
3488	0.4719
3497	0.4707
3506	0.4696
3515	0.4686
3524	0.4678
3533	0.4669
3542	0.466
3551	0.4653
3560	0.4643
3569	0.4633
3578	0.4622
3587	0.4612
3596	0.4603
3605	0.4593
3614	0.4583
3623	0.4579
3632	0.4575
3641	0.4571
3650	0.4567
3659	0.4556
3668	0.4547
3677	0.4544
3686	0.4542
3695	0.4537
3704	0.4526
3713	0.4512
3722	0.4495
3731	0.4475
3740	0.4454
3749	0.4434
3758	0.442
3767	0.4404
3776	0.4388
3785	0.4372
3794	0.4356
