Infrared Spectrum: Pyridine-3,4-dicarbonitrile
Formula: C 7 H 3 N 3
CAS: 1633-44-9
State: gas
Origin: EPA-IR VAPOR PHASE LIBRARY
1/CM	ABSORBANCE
549.8	0.00154
559.445	0.00181
569.09	0.00591
578.734	0.00928
588.379	0.01013
598.024	0.00596
607.669	0.00143
617.313	0.0009152
626.958	0.0014066
636.603	0.00177
646.248	0.00146
655.893	0.00196
665.537	0.00172
675.182	0.00263
684.827	0.0021
694.472	0.00322
704.116	0.0046
713.761	0.00694
723.406	0.00782
733.051	0.00965
742.695	0.00816
752.34	0.00395
761.985	0.00222
771.63	0.0011669
781.275	0.00219
790.919	0.00315
800.564	0.00784
810.209	0.01649
819.854	0.02232
829.498	0.02683
839.143	0.0459
848.788	0.0245
858.433	0.01268
868.078	0.00516
877.722	0.00244
887.367	0.00157
897.012	0.00217
906.657	0.0012221
916.301	0.00261
925.946	0.00299
935.591	0.00412
945.236	0.00269
954.88	0.002
964.525	0.000623
974.17	0.0013015
983.815	0.0012488
993.46	0.0013126
1003.1	0.0013412
1012.75	0.0003313
1022.39	0.0013566
1032.04	0.0013389
1041.68	0.00356
1051.33	0.00364
1060.97	0.00217
1070.62	0.00168
1080.26	0.0011866
1089.91	0.0011945
1099.55	0.0010579
1109.2	0.0017
1118.84	0.0019
1128.49	0.0003897
1138.13	0.0006466
1147.78	0.00154
1157.42	0.00364
1167.07	0.00921
1176.71	0.01433
1186.36	0.01358
1196	0.00606
1205.64	0.00319
1215.29	0.00404
1224.93	0.00671
1234.58	0.00534
1244.22	0.00169
1253.87	0.00048201
1263.51	0.0007961
1273.16	0.0007523
1282.8	0.00155
1292.45	0.00218
1302.09	0.0013198
1311.74	0.0008053
1321.38	0.0009562
1331.03	0.0008515
1340.67	0.0010566
1350.32	0.0010805
1359.96	0.0010689
1369.61	0.00148
1379.25	0.00389
1388.9	0.01657
1398.54	0.02749
1408.18	0.02598
1417.83	0.00872
1427.47	0.00303
1437.12	0.001359
1446.76	0.00149
1456.41	0.0025
1466.05	0.00607
1475.7	0.01357
1485.34	0.01309
1494.99	0.0056
1504.63	0.0026
1514.28	0.00284
1523.92	0.00418
1533.57	0.00862
1543.21	0.01595
1552.86	0.02267
1562.5	0.02651
1572.15	0.03968
1581.79	0.03383
1591.44	0.01387
1601.08	0.004
1610.73	0.00202
1620.37	0.001324
1630.01	0.0013904
1639.66	0.0012858
1649.3	0.00145
1658.95	0.00185
1668.59	0.00238
1678.24	0.00246
1687.88	0.00196
1697.53	0.0011826
1707.17	0.0008047
1716.82	0.0008454
1726.46	0.0007358
1736.11	0.0006975
1745.75	0.0008944
1755.4	0.0012644
1765.04	0.00182
1774.69	0.00185
1784.33	0.00147
1793.98	0.0009924
1803.62	0.0011077
1813.27	0.00147
1822.91	0.0012341
1832.55	0.0009402
1842.2	0.000875
1851.84	0.0011938
1861.49	0.001407
1871.13	0.0012637
1880.78	0.0011723
1890.42	0.00145
1900.07	0.00219
1909.71	0.00313
1919.36	0.00265
1929	0.0012516
1938.65	0.00146
1948.29	0.00234
1957.94	0.00246
1967.58	0.00175
1977.23	0.0008766
1986.87	0.0007292
1996.52	0.0007115
2006.16	0.0007191
2015.81	0.0007366
2025.45	0.0007145
2035.1	0.0007944
2044.74	0.0007756
2054.38	0.0007913
2064.03	0.0006761
2073.67	0.0007501
2083.32	0.0008588
2092.96	0.0009958
2102.61	0.0008304
2112.25	0.0008653
2121.9	0.000881
2131.54	0.0010346
2141.19	0.0007851
2150.83	0.0007209
2160.48	0.00049158
2170.12	0.0007063
2179.77	0.0007978
2189.41	0.0005278
2199.06	0.00043302
2208.7	0.0006037
2218.35	0.0011222
2227.99	0.00197
2237.64	0.00296
2247.28	0.00276
2256.92	0.001173
2266.57	0.0010382
2276.21	0.0008451
2285.86	0.0007654
2295.5	0.0007138
2305.15	0.000623
2314.79	0.0008529
2324.44	0.000681
2334.08	0.0009661
2343.73	0.0012982
2353.37	0.0013161
2363.02	0.0010264
2372.66	0.0006238
2382.31	0.0007796
2391.95	0.0009997
2401.6	0.0007034
2411.24	0.0009512
2420.89	0.0010536
2430.53	0.0008831
2440.18	0.000884
2449.82	0.0007459
2459.47	0.0006436
2469.11	0.0009758
2478.75	0.0006765
2488.4	0.0005953
2498.04	0.0006197
2507.69	0.0006922
2517.33	0.0008869
2526.98	0.0005865
2536.62	0.000618
2546.27	0.00050578
2555.91	0.0005713
2565.56	0.0006124
2575.2	0.000829
2584.85	0.000852
2594.49	0.0008788
2604.14	0.0010102
2613.78	0.0009452
2623.43	0.0007274
2633.07	0.0006895
2642.72	0.0006907
2652.36	0.0008256
2662.01	0.0009187
2671.65	0.0006656
2681.29	0.0007432
2690.94	0.0009701
2700.58	0.0011642
2710.23	0.0008759
2719.87	0.0009168
2729.52	0.00085
2739.16	0.00050012
2748.81	0.0009282
2758.45	0.0007799
2768.1	0.0007304
2777.74	0.0006228
2787.39	0.0010074
2797.03	0.0007911
2806.68	0.0008212
2816.32	0.0009124
2825.97	0.0007725
2835.61	0.0007261
2845.26	0.0011751
2854.9	0.0011121
2864.55	0.0010758
2874.19	0.0003779
2883.84	0.0008384
2893.48	0.0003534
2903.12	0.0005947
2912.77	0.0008051
2922.41	0.0006327
2932.06	0.0010253
2941.7	0.0010347
2951.35	0.0008252
2960.99	0.0009521
2970.64	0.0007709
2980.28	0.0008411
2989.93	0.0008268
2999.57	0.0008499
3009.22	0.0013576
3018.86	0.00184
3028.51	0.00215
3038.15	0.00267
3047.8	0.00582
3057.44	0.00967
3067.09	0.00942
3076.73	0.005
3086.38	0.00376
3096.02	0.00307
3105.67	0.00299
3115.31	0.0021
3124.95	0.00166
3134.6	0.00163
3144.24	0.0011458
3153.89	0.0011015
3163.53	0.0008092
3173.18	0.0008531
3182.82	0.0005341
3192.47	0.0007602
3202.11	0.0005798
3211.76	0.0006692
3221.4	0.0003984
3231.05	0.0007624
3240.69	0.00042855
3250.34	0.0008109
3259.98	0.0006781
3269.63	0.0007119
3279.27	0.0007312
3288.92	0.00050801
3298.56	0.00049136
3308.21	0.000695
3317.85	0.000631
3327.49	0.0008468
3337.14	0.0011009
3346.78	0.0008521
3356.43	0.0007748
3366.07	0.0008457
3375.72	0.0006144
3385.36	0.0006939
3395.01	0.0007322
3404.65	0.0006542
3414.3	0.0007812
3423.94	0.0006113
3433.59	0.0009223
3443.23	0.0005634
3452.88	0.0006228
3462.52	0.0006974
3472.17	0.0008398
3481.81	0.0007218
3491.46	0.0005774
3501.1	0.0006077
3510.75	0.0010064
3520.39	0.0006648
3530.04	0.0005748
3539.68	0.0008312
3549.32	0.0006037
3558.97	0.000397
3568.61	0.0007974
3578.26	0.00048642
3587.9	0.0007795
3597.55	0.0005287
3607.19	0.00049672
3616.84	0.0007776
3626.48	0.0007117
3636.13	0.0012345
3645.77	0.0010236
3655.42	0.0008224
3665.06	0.0006314
3674.71	0.0009184
3684.35	0.0005462
3694	0.00047813
3703.64	0.0009864
3713.29	0.0005669
3722.93	0.0005503
3732.58	0.0003322
3742.22	0.000122
3751.86	0.0006272
3761.51	0.0006329
3771.15	0.0009302
3780.8	0.0008661
3790.44	0.0008543
3800.09	0.0006152
3809.73	0.0006288
3819.38	0.0012377
3829.02	0.0009403
3838.67	0.0010995
3848.31	0.0009922
3857.96	0.000648
3867.6	0.00103
3877.25	0.0008018
3886.89	0.0009203
3896.54	0.0008983
3906.18	0.0011389
3915.83	0.0008922
3925.47	0.0006627
3935.12	0.0011348
3944.76	0.0010217
3954.41	0.000942
3964.05	0.0005557
3973.69	0.0006665
3983.34	0.0010464
3992.98	0.0005752
