Infrared Spectrum: Pyrido[2,3-b]Pyrazine-6-carbamic acid, 8-[(diphenylmethyl)amino]-2,3-diphenyl-, ethyl ester
Formula: C35 H29 N5 O2
CAS: 16335-98-1
State: SOLID (1 mg / 650 mg KBr DISC)
Class: COBLENTZ III
Instrument: PERKIN-ELMER 221 (GRATING)
Instrument parameters: FILTER AT 2490, 980 CM^-^1. GRATING 4000-1428 CM^-^1, NaCl PRISM 1428-650 CM^-^1
Sampling: TRANSMISSION
Resolution: 2
Origin: SOUTHERN RESEARCH INSTITUTE
1/CM	TRANSMITTANCE
603.702	0.7816
612.71	0.7956
621.718	0.7979
630.726	0.8196
639.734	0.8178
648.742	0.8206
657.75	0.8469
666.758	0.8442
675.766	0.8086
684.774	0.5749
693.782	0.3753
702.79	0.6566
711.798	0.8975
720.806	0.8913
729.814	0.8463
738.822	0.7431
747.829	0.7617
756.837	0.8022
765.845	0.6702
774.853	0.7448
783.861	0.8042
792.869	0.8962
801.877	0.9008
810.885	0.8908
819.893	0.8619
828.901	0.7969
837.909	0.7749
846.917	0.8527
855.925	0.8996
864.933	0.9015
873.941	0.896
882.949	0.8912
891.957	0.8889
900.965	0.8901
909.973	0.8737
918.981	0.8403
927.989	0.8854
936.997	0.8806
946.005	0.869
955.013	0.7989
964.021	0.8455
973.029	0.8489
982.037	0.8268
991.045	0.8156
1000.05	0.8103
1009.06	0.7704
1018.07	0.6463
1027.08	0.612
1036.08	0.8006
1045.09	0.7709
1054.1	0.6466
1063.11	0.4877
1072.12	0.6291
1081.12	0.6657
1090.13	0.7378
1099.14	0.73
1108.15	0.8006
1117.16	0.8037
1126.16	0.7927
1135.17	0.7582
1144.18	0.6397
1153.19	0.664
1162.2	0.6362
1171.2	0.504
1180.21	0.4115
1189.22	0.2405
1198.23	0.2473
1207.24	0.4386
1216.24	0.504
1225.25	0.555
1234.26	0.5739
1243.27	0.7531
1252.28	0.84
1261.28	0.8182
1270.29	0.7925
1279.3	0.7463
1288.31	0.7466
1297.32	0.6958
1306.32	0.6745
1315.33	0.6791
1324.34	0.6817
1333.35	0.6159
1342.36	0.4504
1351.36	0.4339
1360.37	0.601
1369.38	0.6685
1378.39	0.6135
1387.4	0.6562
1396.4	0.587
1405.41	0.3989
1414.42	0.4543
1423.43	0.5458
1432.43	0.5942
1441.44	0.5196
1450.45	0.3889
1459.46	0.5728
1468.47	0.6966
1477.47	0.6335
1486.48	0.4653
1495.49	0.454
1504.5	0.5054
1513.51	0.37
1522.51	0.5795
1531.52	0.5341
1540.53	0.4036
1549.54	0.6532
1558.55	0.5317
1567.55	0.3165
1576.56	0.4642
1585.57	0.4637
1594.58	0.3129
1603.59	0.3789
1612.59	0.5604
1621.6	0.7779
1630.61	0.8341
1639.62	0.8661
1648.63	0.8752
1657.63	0.8776
1666.64	0.8772
1675.65	0.874
1684.66	0.8626
1693.67	0.8348
1702.67	0.802
1711.68	0.7646
1720.69	0.642
1729.7	0.5278
1738.71	0.3412
1747.71	0.4252
1756.72	0.7697
1765.73	0.8856
1774.74	0.9032
1783.75	0.9079
1792.75	0.9089
1801.76	0.907
1810.77	0.9027
1819.78	0.8998
1828.79	0.9006
1837.79	0.9052
1846.8	0.9087
1855.81	0.9084
1864.82	0.9047
1873.83	0.9002
1882.83	0.8962
1891.84	0.893
1900.85	0.8912
1909.86	0.8916
1918.87	0.8946
1927.87	0.8943
1936.88	0.8887
1945.89	0.8824
1954.9	0.882
1963.91	0.8826
1972.91	0.8852
1981.92	0.8877
1990.93	0.89
1999.94	0.8887
2008.94	0.8851
2017.95	0.8807
2026.96	0.8754
2035.97	0.8726
2044.98	0.8699
2053.98	0.8687
2062.99	0.8676
2072	0.8665
2081.01	0.8654
2090.02	0.8642
2099.02	0.863
2108.03	0.8619
2117.04	0.8606
2126.05	0.8593
2135.06	0.8581
2144.06	0.8579
2153.07	0.8579
2162.08	0.8578
2171.09	0.8577
2180.1	0.8578
2189.1	0.858
2198.11	0.8582
2207.12	0.8584
2216.13	0.8586
2225.14	0.8588
2234.14	0.8586
2243.15	0.8583
2252.16	0.858
2261.17	0.8577
2270.18	0.8564
2279.18	0.8549
2288.19	0.8533
2297.2	0.8506
2306.21	0.8477
2315.22	0.8445
2324.22	0.8421
2333.23	0.8407
2342.24	0.8395
2351.25	0.8385
2360.26	0.838
2369.26	0.8376
2378.27	0.8372
2387.28	0.8368
2396.29	0.8362
2405.3	0.8352
2414.3	0.8343
2423.31	0.8334
2432.32	0.8328
2441.33	0.8321
2450.34	0.8315
2459.34	0.8312
2468.35	0.8311
2477.36	0.8285
2486.37	0.7951
2495.38	0.7989
2504.38	0.8149
2513.39	0.8149
2522.4	0.8144
2531.41	0.8134
2540.41	0.8126
2549.42	0.8119
2558.43	0.8112
2567.44	0.8101
2576.45	0.8089
2585.45	0.8077
2594.46	0.8064
2603.47	0.8051
2612.48	0.8042
2621.49	0.8034
2630.49	0.8025
2639.5	0.8017
2648.51	0.8009
2657.52	0.8002
2666.53	0.7994
2675.53	0.7986
2684.54	0.7978
2693.55	0.7963
2702.56	0.7948
2711.57	0.7934
2720.57	0.7918
2729.58	0.7901
2738.59	0.7884
2747.6	0.7871
2756.61	0.7858
2765.61	0.7844
2774.62	0.7818
2783.63	0.779
2792.64	0.7762
2801.65	0.7732
2810.65	0.7694
2819.66	0.7647
2828.67	0.7588
2837.68	0.7536
2846.69	0.749
2855.69	0.7458
2864.7	0.7445
2873.71	0.7432
2882.72	0.7401
2891.73	0.7338
2900.73	0.7257
2909.74	0.7274
2918.75	0.7285
2927.76	0.7211
2936.77	0.7248
2945.77	0.7293
2954.78	0.7275
2963.79	0.7176
2972.8	0.6925
2981.81	0.7024
2990.81	0.7208
2999.82	0.7284
3008.83	0.7227
3017.84	0.7061
3026.85	0.6927
3035.85	0.6978
3044.86	0.6977
3053.87	0.6871
3062.88	0.6786
3071.88	0.7171
3080.89	0.7303
3089.9	0.7336
3098.91	0.7441
3107.92	0.7462
3116.92	0.7466
3125.93	0.7467
3134.94	0.7465
3143.95	0.7462
3152.96	0.7456
3161.96	0.7448
3170.97	0.7434
3179.98	0.7417
3188.99	0.7388
3198	0.7359
3207	0.7331
3216.01	0.7314
3225.02	0.7301
3234.03	0.7284
3243.04	0.7266
3252.04	0.7244
3261.05	0.7219
3270.06	0.7183
3279.07	0.7113
3288.08	0.7058
3297.08	0.7027
3306.09	0.7009
3315.1	0.6989
3324.11	0.6955
3333.12	0.6911
3342.12	0.6846
3351.13	0.677
3360.14	0.6671
3369.15	0.6539
3378.16	0.6345
3387.16	0.6122
3396.17	0.5867
3405.18	0.5849
3414.19	0.6311
3423.2	0.5979
3432.2	0.5807
3441.21	0.6896
3450.22	0.6961
3459.23	0.6982
3468.24	0.6997
3477.24	0.7001
3486.25	0.702
3495.26	0.7073
3504.27	0.7122
3513.28	0.7146
3522.28	0.7165
3531.29	0.7183
3540.3	0.7201
3549.31	0.7222
3558.32	0.7245
3567.32	0.7269
3576.33	0.7288
3585.34	0.7308
3594.35	0.7327
3603.36	0.7344
3612.36	0.7361
3621.37	0.7369
3630.38	0.7375
3639.39	0.7378
3648.39	0.7378
3657.4	0.7377
3666.41	0.7374
3675.42	0.7366
3684.43	0.7349
3693.43	0.7406
3702.44	0.743
3711.45	0.7456
3720.46	0.7432
3729.47	0.7409
3738.47	0.7385
3747.48	0.7362
3756.49	0.7338
3765.5	0.7321
3774.51	0.7422
3783.51	0.7464
3792.52	0.7464
3801.53	0.744
3810.54	0.7388
3819.55	0.7338
3828.55	0.7335
3837.56	0.7332
3846.57	0.7338
3855.58	0.7354
3864.59	0.7353
3873.59	0.7243
3882.6	0.729
3891.61	0.7297
3900.62	0.7303
3909.63	0.7297
3918.63	0.7299
3927.64	0.7337
3936.65	0.7289
3945.66	0.728
3954.67	0.7287
3963.67	0.729
3972.68	0.7282
3981.69	0.7266
3990.7	0.725
3999.71	0.7234
