Infrared Spectrum: PYRIDO[3,4-b]PYRAZINE-5,7-DICARBAMIC ACID, 2,3-DIPHENYL-, DIETHYL ESTER
Formula: C25 H23 N5 O4
CAS: 16335-96-9
State: SOLID (1 mg / 650 mg KBr DISC)
Class: COBLENTZ III
Instrument: PERKIN-ELMER 521 (GRATING)
Instrument parameters: GRATING CHANGES AT2000, 620, FILTERS AT 3130, 2475, 2000, 1150, 700, 410 CM^-^1
Sampling: TRANSMISSION
Resolution: 4
Origin: SOUTHERN RESEARCH INSTITUTE
1/CM	TRANSMITTANCE
242.57	0.314
252.094	0.3506
261.618	0.4548
271.141	0.5108
280.665	0.5731
290.189	0.6288
299.713	0.6548
309.237	0.6725
318.76	0.6848
328.284	0.6967
337.808	0.7162
347.332	0.7314
356.856	0.7376
366.38	0.7875
375.903	0.813
385.427	0.8278
394.951	0.8261
404.475	0.8296
413.999	0.8388
423.522	0.844
433.046	0.8364
442.57	0.831
452.094	0.8129
461.618	0.8256
471.141	0.8536
480.665	0.8618
490.189	0.851
499.713	0.847
509.237	0.851
518.76	0.8374
528.284	0.7895
537.808	0.734
547.332	0.8042
556.856	0.7475
566.38	0.7764
575.903	0.7615
585.427	0.7406
594.951	0.7363
604.475	0.6639
613.999	0.7354
623.522	0.7097
633.046	0.7011
642.57	0.718
652.094	0.7329
661.618	0.7301
671.141	0.7252
680.665	0.6902
690.189	0.5119
699.713	0.5689
709.237	0.8025
718.76	0.794
728.284	0.8052
737.808	0.7334
747.332	0.734
756.856	0.6699
766.38	0.5523
775.903	0.7939
785.427	0.8121
794.951	0.8694
804.475	0.8621
813.999	0.8271
823.522	0.859
833.046	0.8395
842.57	0.7681
852.094	0.771
861.618	0.8519
871.141	0.8534
880.665	0.832
890.189	0.8469
899.713	0.847
909.237	0.837
918.76	0.8239
928.284	0.8337
937.808	0.8312
947.332	0.8146
956.856	0.7891
966.379	0.7566
975.903	0.703
985.427	0.6873
994.951	0.7065
1004.47	0.6582
1014	0.5632
1023.52	0.407
1033.05	0.4314
1042.57	0.5931
1052.09	0.4389
1061.62	0.4684
1071.14	0.505
1080.67	0.4798
1090.19	0.5298
1099.71	0.6781
1109.24	0.736
1118.76	0.736
1128.28	0.6667
1137.81	0.5545
1147.33	0.4965
1156.86	0.4333
1166.38	0.2293
1175.9	0.207
1185.43	0.1709
1194.95	0.207
1204.47	0.3117
1214	0.2807
1223.52	0.3222
1233.05	0.4916
1242.57	0.619
1252.09	0.5769
1261.62	0.6775
1271.14	0.6863
1280.67	0.6832
1290.19	0.5669
1299.71	0.4934
1309.24	0.432
1318.76	0.4576
1328.28	0.5088
1337.81	0.402
1347.33	0.5529
1356.86	0.6258
1366.38	0.5735
1375.9	0.6439
1385.43	0.636
1394.95	0.6297
1404.47	0.6234
1414	0.5922
1423.52	0.61
1433.05	0.493
1442.57	0.5086
1452.09	0.426
1461.62	0.5625
1471.14	0.5631
1480.67	0.4603
1490.19	0.315
1499.71	0.2214
1509.24	0.1665
1518.76	0.172
1528.28	0.167
1537.81	0.2034
1547.33	0.3114
1556.86	0.4186
1566.38	0.5679
1575.9	0.543
1585.43	0.6263
1594.95	0.5934
1604.47	0.4619
1614	0.3697
1623.52	0.6774
1633.05	0.8272
1642.57	0.87
1652.09	0.8798
1661.62	0.8786
1671.14	0.8613
1680.67	0.8177
1690.19	0.7546
1699.71	0.6419
1709.24	0.5021
1718.76	0.3539
1728.28	0.297
1737.81	0.3368
1747.33	0.4052
1756.86	0.3406
1766.38	0.4522
1775.9	0.7982
1785.43	0.8866
1794.95	0.9127
1804.47	0.9236
1814	0.9342
1823.52	0.942
1833.05	0.9501
1842.57	0.955
1852.09	0.958
1861.62	0.961
1871.14	0.958
1880.67	0.955
1890.19	0.954
1899.71	0.956
1909.24	0.958
1918.76	0.9586
1928.28	0.958
1937.81	0.954
1947.33	0.9498
1956.86	0.9461
1966.38	0.9481
1975.9	0.95
1985.43	0.951
1994.95	0.9491
2004.47	0.9442
2014	0.942
2023.52	0.941
2033.05	0.941
2042.57	0.939
2052.09	0.938
2061.62	0.936
2071.14	0.935
2080.67	0.933
2090.19	0.932
2099.71	0.932
2109.24	0.931
2118.76	0.931
2128.28	0.9292
2137.81	0.927
2147.33	0.923
2156.86	0.92
2166.38	0.917
2175.9	0.915
2185.43	0.913
2194.95	0.912
2204.47	0.912
2214	0.912
2223.52	0.911
2233.05	0.911
2242.57	0.911
2252.09	0.911
2261.62	0.911
2271.14	0.911
2280.67	0.9082
2290.19	0.907
2299.71	0.905
2309.24	0.904
2318.76	0.902
2328.28	0.898
2337.81	0.8952
2347.33	0.894
2356.86	0.893
2366.38	0.893
2375.9	0.893
2385.43	0.893
2394.95	0.8922
2404.47	0.892
2414	0.891
2423.52	0.89
2433.05	0.889
2442.57	0.888
2452.09	0.8862
2461.62	0.885
2471.14	0.882
2480.67	0.879
2490.19	0.878
2499.71	0.876
2509.24	0.874
2518.76	0.874
2528.28	0.874
2537.81	0.874
2547.33	0.874
2556.86	0.874
2566.38	0.873
2575.9	0.872
2585.43	0.869
2594.95	0.867
2604.47	0.8652
2614	0.864
2623.52	0.863
2633.05	0.863
2642.57	0.862
2652.09	0.8612
2661.62	0.859
2671.14	0.8582
2680.67	0.8552
2690.19	0.851
2699.71	0.849
2709.24	0.848
2718.76	0.847
2728.28	0.847
2737.81	0.8442
2747.33	0.843
2756.86	0.841
2766.38	0.84
2775.9	0.841
2785.43	0.8402
2794.95	0.8392
2804.47	0.836
2814	0.832
2823.52	0.829
2833.05	0.8262
2842.57	0.8174
2852.09	0.8064
2861.62	0.7964
2871.14	0.792
2880.67	0.7872
2890.19	0.7775
2899.71	0.7567
2909.24	0.7478
2918.76	0.7494
2928.28	0.7292
2937.81	0.7289
2947.33	0.7384
2956.86	0.7189
2966.38	0.6979
2975.9	0.6395
2985.43	0.6716
2994.95	0.7157
3004.47	0.7511
3014	0.7708
3023.52	0.7596
3033.05	0.7512
3042.57	0.7434
3052.09	0.7287
3061.62	0.7232
3071.14	0.7466
3080.67	0.7588
3090.19	0.7664
3099.71	0.771
3109.24	0.7708
3118.76	0.7704
3128.28	0.7652
3137.81	0.764
3147.33	0.7642
3156.86	0.7522
3166.38	0.749
3175.9	0.748
3185.43	0.7362
3194.95	0.7245
3204.47	0.7072
3214	0.6926
3223.52	0.6765
3233.05	0.6577
3242.57	0.6395
3252.09	0.634
3261.62	0.6428
3271.14	0.6533
3280.67	0.6628
3290.19	0.6716
3299.71	0.6856
3309.24	0.6998
3318.76	0.7068
3328.28	0.707
3337.81	0.7032
3347.33	0.6962
3356.86	0.6637
3366.38	0.6532
3375.9	0.646
3385.43	0.647
3394.95	0.6586
3404.47	0.6971
3414	0.7138
3423.52	0.7208
3433.05	0.7246
3442.57	0.7499
3452.09	0.7678
3461.62	0.771
3471.14	0.771
3480.67	0.7728
3490.19	0.7748
3499.71	0.775
3509.24	0.7768
3518.76	0.779
3528.28	0.784
3537.81	0.7898
3547.33	0.792
3556.86	0.793
3566.38	0.794
3575.9	0.8
3585.43	0.802
3594.95	0.805
3604.47	0.806
3614	0.8108
3623.52	0.813
3633.05	0.814
3642.57	0.814
3652.09	0.813
3661.62	0.812
3671.14	0.811
3680.67	0.81
3690.19	0.8118
3699.71	0.8148
3709.24	0.814
3718.76	0.813
3728.28	0.813
3737.81	0.812
3747.33	0.811
3756.86	0.811
3766.38	0.81
3775.9	0.809
3785.43	0.809
3794.95	0.808
