Infrared Spectrum: 3-Hydroxyhexadecane-1-sulfonic acid, Gamma-sultone
Formula: C16 H32 O3 S
CAS: 1633-76-7
State: SOLID (1 mg / 100 mg KBr DISC)
Class: COBLENTZ III
Instrument: BECKMAN IR-12 (GRATING)
Instrument parameters: GRATING
Sampling: TRANSMISSION
Resolution: 2
Origin: COLGATE-PALMOLIVE COMPANY (KELLENBACH)
1/CM	TRANSMITTANCE
206	0.0386
216	0.0572
226	0.1911
236	0.3261
246	0.4394
256	0.513
266	0.6212
276	0.7294
286	0.7467
296	0.7861
306	0.7869
316	0.766
326	0.7584
336	0.7604
346	0.756
356	0.7599
366	0.7505
376	0.7561
386	0.7874
396	0.7889
406	0.8047
416	0.7938
426	0.8354
436	0.8773
446	0.8804
456	0.8745
466	0.8502
476	0.81
486	0.842
496	0.8086
506	0.8705
516	0.9082
526	0.8618
536	0.8651
546	0.8858
556	0.9229
566	0.9272
576	0.9209
586	0.9122
596	0.907
606	0.839
616	0.7368
626	0.7521
636	0.8626
646	0.9175
656	0.9182
666	0.9185
676	0.9205
686	0.9176
696	0.9084
706	0.895
716	0.7898
726	0.7549
736	0.8809
746	0.8919
756	0.8833
766	0.866
776	0.8534
786	0.8061
796	0.6851
806	0.56
816	0.3245
826	0.4803
836	0.28
846	0.635
856	0.5497
866	0.6191
876	0.494
886	0.6389
896	0.7913
906	0.7238
916	0.8111
926	0.8078
936	0.5426
946	0.5099
956	0.557
966	0.7508
976	0.8116
986	0.7647
996	0.678
1006	0.751
1016	0.8147
1026	0.8347
1036	0.8152
1046	0.8279
1056	0.8392
1066	0.8396
1076	0.8108
1086	0.794
1096	0.8157
1106	0.8229
1116	0.8038
1126	0.7907
1136	0.7443
1146	0.6543
1156	0.2587
1166	0.3016
1176	0.4529
1186	0.4425
1196	0.4597
1206	0.6397
1216	0.7687
1226	0.7724
1236	0.7941
1246	0.7791
1256	0.7835
1266	0.7301
1276	0.6642
1286	0.705
1296	0.7238
1306	0.6376
1316	0.4884
1326	0.4303
1336	0.1187
1346	0.2047
1356	0.592
1366	0.6996
1376	0.7064
1386	0.7409
1396	0.7831
1406	0.7977
1416	0.7799
1426	0.7167
1436	0.7696
1446	0.7471
1456	0.6423
1466	0.5033
1476	0.44
1486	0.7774
1496	0.7957
1506	0.7925
1516	0.7982
1526	0.7944
1536	0.7972
1546	0.7937
1556	0.7866
1566	0.794
1576	0.7995
1586	0.7992
1596	0.7928
1606	0.7873
1616	0.7819
1626	0.7766
1636	0.7732
1646	0.7702
1656	0.7775
1666	0.7907
1676	0.7897
1686	0.7893
1696	0.789
1706	0.789
1716	0.7889
1726	0.7881
1736	0.7856
1746	0.785
1756	0.7886
1766	0.7924
1776	0.7945
1786	0.7932
1796	0.7904
1806	0.788
1816	0.7853
1826	0.7839
1836	0.7828
1846	0.7836
1856	0.7866
1866	0.7868
1876	0.7823
1886	0.7779
1896	0.7753
1906	0.7738
1916	0.7728
1926	0.7719
1936	0.7709
1946	0.7699
1956	0.7687
1966	0.7674
1976	0.7661
1986	0.7648
1996	0.7626
2006	0.7602
2016	0.7585
2026	0.7565
2036	0.7545
2046	0.7535
2056	0.7531
2066	0.7523
2076	0.7506
2086	0.749
2096	0.7476
2106	0.7461
2116	0.7465
2126	0.7475
2136	0.7476
2146	0.7461
2156	0.7442
2166	0.7424
2176	0.7404
2186	0.7386
2196	0.738
2206	0.7366
2216	0.7338
2226	0.7311
2236	0.7283
2246	0.7255
2256	0.7229
2266	0.7203
2276	0.7192
2286	0.7208
2296	0.7228
2306	0.714
2316	0.7046
2326	0.6995
2336	0.6823
2346	0.6704
2356	0.6694
2366	0.6747
2376	0.6922
2386	0.7033
2396	0.7033
2406	0.7029
2416	0.7024
2426	0.702
2436	0.7015
2446	0.7011
2456	0.7006
2466	0.6985
2476	0.692
2486	0.6911
2496	0.692
2506	0.6931
2516	0.6937
2526	0.6935
2536	0.6922
2546	0.6895
2556	0.6861
2566	0.6835
2576	0.6815
2586	0.6802
2596	0.6795
2606	0.676
2616	0.6726
2626	0.6701
2636	0.668
2646	0.6664
2656	0.6652
2666	0.6645
2676	0.6649
2686	0.6652
2696	0.6649
2706	0.661
2716	0.657
2726	0.6543
2736	0.6515
2746	0.65
2756	0.6525
2766	0.651
2776	0.6453
2786	0.6361
2796	0.6246
2806	0.6091
2816	0.5867
2826	0.5332
2836	0.4189
2846	0.2375
2856	0.0769
2866	0.3314
2876	0.3893
2886	0.3406
2896	0.254
2906	0.1673
2916	0.0806
2926	0.0133
2936	0.0898
2946	0.1958
2956	0.2033
2966	0.3048
2976	0.4733
2986	0.5204
2996	0.5384
3006	0.547
3016	0.5408
3026	0.5255
3036	0.5455
3046	0.5683
3056	0.5774
3066	0.582
3076	0.5848
3086	0.5868
3096	0.5885
3106	0.59
3116	0.5914
3126	0.5911
3136	0.5907
3146	0.5905
3156	0.5903
3166	0.5895
3176	0.5882
3186	0.5869
3196	0.5854
3206	0.5839
3216	0.5824
3226	0.5807
3236	0.579
3246	0.5773
3256	0.5754
3266	0.5734
3276	0.5714
3286	0.5693
3296	0.5671
3306	0.5649
3316	0.5626
3326	0.5594
3336	0.5551
3346	0.5507
3356	0.5463
3366	0.5416
3376	0.5368
3386	0.5321
3396	0.5273
3406	0.5223
3416	0.5172
3426	0.5136
3436	0.5112
3446	0.5102
3456	0.5115
3466	0.515
3476	0.5181
3486	0.5193
3496	0.52
3506	0.519
3516	0.5194
3526	0.5207
3536	0.5232
3546	0.5255
3556	0.5265
3566	0.5275
3576	0.5297
3586	0.5326
3596	0.534
3606	0.5354
3616	0.5367
3626	0.5379
3636	0.5391
3646	0.5403
3656	0.5396
3666	0.5389
3676	0.5379
3686	0.5376
3696	0.5401
3706	0.5429
3716	0.5411
3726	0.5378
3736	0.5322
3746	0.5322
3756	0.5354
3766	0.5398
3776	0.5404
3786	0.5407
3796	0.5396
3806	0.5379
3816	0.5359
3826	0.5322
3836	0.5284
3846	0.5259
3856	0.5244
3866	0.5231
3876	0.5228
3886	0.5225
3896	0.5223
3906	0.5221
3916	0.522
3926	0.5203
3936	0.5225
3946	0.5229
3956	0.5228
3966	0.5222
3976	0.5206
3986	0.5195
3996	0.52
