Infrared Spectrum: 4-Ethylbenzoyl chloride
Formula: C 9 H 9 Cl O
CAS: 16331-45-6
State: gas
Origin: EPA-IR VAPOR PHASE LIBRARY
1/CM	ABSORBANCE
549.8	0.00264
559.445	0.00322
569.09	0.00362
578.734	0.00419
588.379	0.00559
598.024	0.01539
607.669	0.05055
617.313	0.05626
626.958	0.01872
636.603	0.01827
646.248	0.0295
655.893	0.02732
665.537	0.01496
675.182	0.00765
684.827	0.00632
694.472	0.00632
704.116	0.00645
713.761	0.00775
723.406	0.01074
733.051	0.01372
742.695	0.01852
752.34	0.03732
761.985	0.07043
771.63	0.04896
781.275	0.01707
790.919	0.01537
800.564	0.02162
810.209	0.01789
819.854	0.0185
829.498	0.03118
839.143	0.04673
848.788	0.05319
858.433	0.07335
868.078	0.14335
877.722	0.20896
887.367	0.16674
897.012	0.08787
906.657	0.04351
916.301	0.02443
925.946	0.01637
935.591	0.01071
945.236	0.00666
954.88	0.00538
964.525	0.00611
974.17	0.00512
983.815	0.00362
993.46	0.00337
1003.1	0.00439
1012.75	0.00546
1022.39	0.00583
1032.04	0.00458
1041.68	0.00585
1051.33	0.00759
1060.97	0.00937
1070.62	0.00623
1080.26	0.00338
1089.91	0.00293
1099.55	0.00353
1109.2	0.00419
1118.84	0.00587
1128.49	0.00825
1138.13	0.0106
1147.78	0.01581
1157.42	0.03223
1167.07	0.08522
1176.71	0.15399
1186.36	0.08534
1196	0.06308
1205.64	0.11997
1215.29	0.07423
1224.93	0.02438
1234.58	0.01936
1244.22	0.01295
1253.87	0.00666
1263.51	0.00473
1273.16	0.00453
1282.8	0.00501
1292.45	0.00669
1302.09	0.00751
1311.74	0.00768
1321.38	0.00833
1331.03	0.00647
1340.67	0.00456
1350.32	0.00427
1359.96	0.00409
1369.61	0.00383
1379.25	0.00419
1388.9	0.00555
1398.54	0.00934
1408.18	0.01716
1417.83	0.0192
1427.47	0.01202
1437.12	0.00826
1446.76	0.00839
1456.41	0.01
1466.05	0.0107
1475.7	0.00907
1485.34	0.0076
1494.99	0.00723
1504.63	0.00649
1514.28	0.00429
1523.92	0.00302
1533.57	0.00267
1543.21	0.00287
1552.86	0.00415
1562.5	0.00843
1572.15	0.01288
1581.79	0.01103
1591.44	0.01978
1601.08	0.05408
1610.73	0.05688
1620.37	0.01649
1630.01	0.00712
1639.66	0.00512
1649.3	0.00435
1658.95	0.00458
1668.59	0.00525
1678.24	0.00536
1687.88	0.00516
1697.53	0.00553
1707.17	0.00735
1716.82	0.01146
1726.46	0.01982
1736.11	0.03637
1745.75	0.05835
1755.4	0.07278
1765.04	0.08521
1774.69	0.12989
1784.33	0.19651
1793.98	0.18122
1803.62	0.0872
1813.27	0.03233
1822.91	0.01598
1832.55	0.0109
1842.2	0.0072
1851.84	0.00432
1861.49	0.00274
1871.13	0.00229
1880.78	0.00206
1890.42	0.00215
1900.07	0.00273
1909.71	0.00363
1919.36	0.00454
1929	0.00412
1938.65	0.00287
1948.29	0.002
1957.94	0.00148
1967.58	0.0011801
1977.23	0.0010854
1986.87	0.0009058
1996.52	0.0008877
2006.16	0.0009002
2015.81	0.0010975
2025.45	0.0013029
2035.1	0.00165
2044.74	0.00181
2054.38	0.00186
2064.03	0.00157
2073.67	0.00145
2083.32	0.00136
2092.96	0.0012652
2102.61	0.0009133
2112.25	0.0007745
2121.9	0.0006862
2131.54	0.0005353
2141.19	0.0004822
2150.83	0.0005156
2160.48	0.0005723
2170.12	0.0006437
2179.77	0.000692
2189.41	0.0007579
2199.06	0.0007616
2208.7	0.0008
2218.35	0.0005589
2227.99	0.0006678
2237.64	0.0006094
2247.28	0.000487
2256.92	0.0004825
2266.57	0.0005841
2276.21	0.0005656
2285.86	0.0006354
2295.5	0.0008193
2305.15	0.0009442
2314.79	0.0008918
2324.44	0.0010605
2334.08	0.0011029
2343.73	0.00127
2353.37	0.00141
2363.02	0.0012584
2372.66	0.0014
2382.31	0.00164
2391.95	0.00134
2401.6	0.0012943
2411.24	0.00142
2420.89	0.0012344
2430.53	0.00111
2440.18	0.0009181
2449.82	0.0007181
2459.47	0.0005522
2469.11	0.0006105
2478.75	0.0006713
2488.4	0.0007826
2498.04	0.0006487
2507.69	0.0007405
2517.33	0.0009693
2526.98	0.0009688
2536.62	0.0009457
2546.27	0.0008971
2555.91	0.0008093
2565.56	0.0009753
2575.2	0.0010323
2584.85	0.0011946
2594.49	0.0011748
2604.14	0.0011408
2613.78	0.0010054
2623.43	0.00135
2633.07	0.0013024
2642.72	0.0010481
2652.36	0.0010175
2662.01	0.0008292
2671.65	0.0009343
2681.29	0.0009986
2690.94	0.0010132
2700.58	0.0011094
2710.23	0.00111
2719.87	0.0010548
2729.52	0.0009182
2739.16	0.0011197
2748.81	0.0012933
2758.45	0.00139
2768.1	0.00176
2777.74	0.00214
2787.39	0.00203
2797.03	0.00212
2806.68	0.00239
2816.32	0.00277
2825.97	0.00296
2835.61	0.00338
2845.26	0.00441
2854.9	0.00596
2864.55	0.00917
2874.19	0.01343
2883.84	0.01738
2893.48	0.01839
2903.12	0.0168
2912.77	0.01679
2922.41	0.01684
2932.06	0.02141
2941.7	0.03075
2951.35	0.03256
2960.99	0.02849
2970.64	0.04519
2980.28	0.06179
2989.93	0.02935
2999.57	0.01617
3009.22	0.01149
3018.86	0.00862
3028.51	0.00952
3038.15	0.01369
3047.8	0.01325
3057.44	0.01059
3067.09	0.00867
3076.73	0.00775
3086.38	0.00604
3096.02	0.0057
3105.67	0.00428
3115.31	0.0033
3124.95	0.0025
3134.6	0.00206
3144.24	0.00157
3153.89	0.0013119
3163.53	0.00135
3173.18	0.0012627
3182.82	0.0011231
3192.47	0.0011746
3202.11	0.0009074
3211.76	0.000742
3221.4	0.0007278
3231.05	0.0005773
3240.69	0.00042627
3250.34	0.0004556
3259.98	0.0004621
3269.63	0.00042344
3279.27	0.00036125
3288.92	0.00039667
3298.56	0.00039813
3308.21	0.0005115
3317.85	0.0002669
3327.49	0.00040312
3337.14	0.000196
3346.78	0.00043085
3356.43	0.00035792
3366.07	0.00037131
3375.72	0.0004407
3385.36	0.0006259
3395.01	0.0005885
3404.65	0.0004953
3414.3	0.00040181
3423.94	0.00034598
3433.59	0.00037848
3443.23	0.00035846
3452.88	0.0005182
3462.52	0.00043529
3472.17	0.0006675
3481.81	0.0007782
3491.46	0.0008314
3501.1	0.001246
3510.75	0.00181
3520.39	0.00257
3530.04	0.00299
3539.68	0.00217
3549.32	0.00147
3558.97	0.00147
3568.61	0.00138
3578.26	0.0012216
3587.9	0.0008088
3597.55	0.000703
3607.19	0.0007238
3616.84	0.0006062
3626.48	0.0004866
3636.13	0.0005406
3645.77	0.00041919
3655.42	0.0004874
3665.06	0.0005467
3674.71	0.000564
3684.35	0.000314
3694	0.00037935
3703.64	0.00038701
3713.29	0.000339138
3722.93	0.0004901
3732.58	0.00043021
3742.22	0.000309
3751.86	0.00023
3761.51	0.00039995
3771.15	0.0002762
3780.8	0.000111
3790.44	0.000503
3800.09	0.0003171
3809.73	0.000472
3819.38	0.00041359
3829.02	0.0002664
3838.67	0.000165
3848.31	0.00039926
3857.96	0.0004566
3867.6	0.00042369
3877.25	0.00039102
3886.89	0.0002991
3896.54	0.0003085
3906.18	0.0002698
3915.83	0.0002503
3925.47	0.0004783
3935.12	0.0005217
3944.76	0.0004685
3954.41	0.0004435
3964.05	0.0003055
3973.69	0.00033873
3983.34	0.00042513
3992.98	0.00046
