Infrared Spectrum: [2.2]Paracyclophane
Formula: C 16 H 16
CAS: 1633-22-3
State: gas
Instrument: HP-GC/MS/IRD
Origin: NIST Mass Spectrometry Data Center
1/CM	ABSORBANCE
550	0.0004158
562	0.0001158
574	8.64e-05
586	7.86e-05
598	0.0005898
610	0.0013428
622	0.0013212
634	0.0004764
646	0.0001434
658	0.0002274
670	0.0003018
682	0.0003042
694	0.000387
706	0.000912
718	0.002373
730	0.001071
742	0.0003078
754	0.000303
766	0.000279
778	0.0002904
790	0.0008388
802	0.002442
814	0.001176
826	0.000426
838	0.0003948
850	0.0002976
862	0.0002676
874	0.0003564
886	0.0007104
898	0.0009882
910	0.0005964
922	0.0006186
934	0.0007824
946	0.000267
958	0.0002154
970	0.0001722
982	0.0001404
994	0.0002406
1006	0.0001314
1018	0.0001494
1030	0.0001638
1042	0.000144
1054	0.000261
1066	0.0001932
1078	0.0002988
1090	0.0003456
1102	0.000264
1114	0.0001644
1126	0.0001962
1138	0.0001284
1150	0.0002016
1162	0.0002352
1174	0.0003174
1186	0.000252
1198	0.0001572
1210	0.0001938
1222	0.0001602
1234	0.0001614
1246	0.000105
1258	8.1e-05
1270	7.5e-05
1282	2.4e-05
1294	3.3e-05
1306	5.04e-05
1318	5.94e-05
1330	6.78e-05
1342	9.3e-05
1354	0.0001422
1366	0.0001788
1378	0.0001728
1390	0.0002136
1402	0.0004362
1414	0.0006348
1426	0.0002856
1438	0.000297
1450	0.0004116
1462	0.0003576
1474	0.0002622
1486	0.0004266
1498	0.0008406
1510	0.0005124
1522	0.0001416
1534	0.0001212
1546	0.0001164
1558	0.0001206
1570	0.0002232
1582	0.0004824
1594	0.0006522
1606	0.0003474
1618	0.0001914
1630	0.0001728
1642	0.000138
1654	0.0001038
1666	0.000111
1678	9.78e-05
1690	9.42e-05
1702	8.64e-05
1714	0.0001398
1726	0.0001548
1738	9.9e-05
1750	0.0001272
1762	0.0001194
1774	7.68e-05
1786	9.96e-05
1798	8.34e-05
1810	8.04e-05
1822	8.04e-05
1834	9e-05
1846	9.54e-05
1858	0.0001416
1870	0.0002676
1882	0.0003588
1894	0.0002136
1906	0.0001506
1918	0.000111
1930	7.8e-05
1942	0.000105
1954	9.54e-05
1966	9.42e-05
1978	6.06e-05
1990	8.16e-05
2002	0.0001218
2014	0.0001056
2026	5.28e-05
2038	9.36e-05
2050	5.94e-05
2062	0.0001014
2074	0.0001026
2086	8.94e-05
2098	9e-05
2110	8.64e-05
2122	8.82e-05
2134	0.0001008
2146	9.6e-05
2158	8.82e-05
2170	9.6e-05
2182	0.000105
2194	0.0001122
2206	0.0001212
2218	9.72e-05
2230	9.12e-05
2242	8.76e-05
2254	9.84e-05
2266	8.82e-05
2278	0.0001314
2290	0.0001038
2302	9.9e-05
2314	0.0001164
2326	0.0001092
2338	0.0001026
2350	6.6e-05
2362	6.72e-05
2374	6.96e-05
2386	0.0001002
2398	8.04e-05
2410	9.78e-05
2422	8.52e-05
2434	0.0001476
2446	0.0001272
2458	0.000126
2470	0.0001194
2482	9.12e-05
2494	0.000111
2506	7.98e-05
2518	0.0001098
2530	7.5e-05
2542	5.64e-05
2554	7.74e-05
2566	9e-05
2578	9.66e-05
2590	6.18e-05
2602	9.42e-05
2614	0.000132
2626	0.0001206
2638	8.94e-05
2650	0.0001278
2662	0.0001134
2674	0.000111
2686	0.0001176
2698	9.24e-05
2710	0.0001134
2722	8.88e-05
2734	0.0001404
2746	0.0001206
2758	0.0001152
2770	0.0001314
2782	0.0001548
2794	0.000159
2806	0.0001782
2818	0.0002436
2830	0.0003102
2842	0.0004806
2854	0.001644
2866	0.0020382
2878	0.000921
2890	0.0012276
2902	0.0016716
2914	0.0019848
2926	0.0042966
2938	0.0059106
2950	0.0043302
2962	0.0029064
2974	0.0011424
2986	0.0010188
2998	0.0011484
3010	0.0019128
3022	0.0018342
3034	0.0017646
3046	0.001371
3058	0.0011094
3070	0.0010536
3082	0.0005646
3094	0.0003222
3106	0.0002808
3118	0.0002136
3130	0.0001308
3142	0.0001218
3154	0.0001122
3166	0.0001392
3178	0.0001416
3190	0.0001884
3202	9.48e-05
3214	8.76e-05
3226	0.0001608
3238	0.0001494
3250	0.0001764
3262	0.0001518
3274	0.0001338
3286	7.08e-05
3298	0.0001464
3310	0.0001362
3322	8.82e-05
3334	0.0001368
3346	0.0001164
3358	0.0001482
3370	0.0001752
3382	0.0001314
3394	0.0001866
3406	0.0001332
3418	0.0001764
3430	0.0001266
3442	0.000156
3454	0.0001242
3466	0.0001824
3478	0.0001272
3490	0.0002196
3502	0.0002172
3514	0.0001194
3526	9.54e-05
3538	0.0001848
3550	0.0001536
3562	0.0001464
3574	0.0001722
3586	0.000105
3598	0.0001536
3610	0.0001206
3622	6.84e-05
3634	0.0001272
3646	0.0001626
3658	0.0001764
3670	0.0002004
3682	0.0001644
3694	0.0001224
3706	0.000156
3718	0.0002088
3730	0.0001788
3742	0.000249
3754	0.0002052
3766	0.0001908
3778	0.0002574
3790	0.0002622
3802	0.0001806
3814	0.0002058
3826	0.0001674
3838	0.000129
