Infrared Spectrum: 2,6-PYRIDINEDICARBAMIC ACID, 4-AMINO-3-NITRO-, DIETHYL ESTER
Formula: C11 H15 N5 O6
CAS: 16335-92-5
State: SOLID (1 mg / 650 mg KBr DISC)
Class: COBLENTZ III
Instrument: PERKIN-ELMER 521 (GRATING)
Instrument parameters: FILTER CHANGE ABOUT 3150, 2500, 2000, 1150, 700, 410 CM^-^1, GRATING CHANGES AT 2000, 630 CM^-^1
Sampling: TRANSMISSION
Resolution: 4
Origin: SOUTHERN RES. INSTITUTE
1/CM	TRANSMITTANCE
247.943	0.348
257.066	0.394
266.19	0.453
275.313	0.5
284.437	0.553
293.56	0.602
302.684	0.635
311.807	0.666
320.93	0.689
330.054	0.702
339.177	0.71
348.301	0.713
357.424	0.73
366.548	0.761
375.671	0.759
384.794	0.77
393.918	0.772
403.041	0.766
412.165	0.792
421.288	0.796
430.412	0.774
439.535	0.768
448.658	0.769
457.782	0.773
466.905	0.791
476.029	0.781
485.152	0.778
494.276	0.775
503.399	0.766
512.523	0.75
521.646	0.729
530.769	0.701
539.893	0.66
549.016	0.668
558.14	0.655
567.263	0.673
576.387	0.711
585.51	0.73
594.633	0.71
603.757	0.747
612.88	0.768
622.004	0.772
631.127	0.767
640.251	0.751
649.374	0.735
658.497	0.748
667.621	0.758
676.744	0.731
685.868	0.724
694.991	0.723
704.115	0.721
713.238	0.748
722.361	0.731
731.485	0.723
740.608	0.744
749.732	0.721
758.855	0.63
767.979	0.652
777.102	0.704
786.225	0.71
795.349	0.805
804.472	0.807
813.596	0.8
822.719	0.736
831.843	0.771
840.966	0.756
850.089	0.719
859.213	0.821
868.336	0.823
877.46	0.809
886.583	0.793
895.707	0.808
904.83	0.803
913.953	0.803
923.077	0.803
932.2	0.793
941.324	0.786
950.447	0.775
959.571	0.767
968.694	0.748
977.817	0.723
986.941	0.709
996.064	0.697
1005.19	0.664
1014.31	0.533
1023.43	0.445
1032.56	0.506
1041.68	0.486
1050.8	0.615
1059.93	0.596
1069.05	0.538
1078.18	0.549
1087.3	0.606
1096.42	0.576
1105.55	0.635
1114.67	0.612
1123.79	0.6
1132.92	0.541
1142.04	0.507
1151.16	0.384
1160.29	0.361
1169.41	0.317
1178.53	0.319
1187.66	0.341
1196.78	0.284
1205.9	0.227
1215.03	0.261
1224.15	0.249
1233.27	0.28
1242.4	0.385
1251.52	0.326
1260.64	0.348
1269.77	0.388
1278.89	0.497
1288.01	0.624
1297.14	0.626
1306.26	0.635
1315.38	0.51
1324.51	0.38
1333.63	0.424
1342.75	0.545
1351.88	0.621
1361	0.626
1370.13	0.582
1379.25	0.6
1388.37	0.636
1397.5	0.612
1406.62	0.543
1415.74	0.63
1424.87	0.646
1433.99	0.538
1443.11	0.455
1452.24	0.514
1461.36	0.544
1470.48	0.439
1479.61	0.356
1488.73	0.207
1497.85	0.228
1506.98	0.323
1516.1	0.417
1525.22	0.335
1534.35	0.257
1543.47	0.276
1552.59	0.286
1561.72	0.338
1570.84	0.344
1579.96	0.421
1589.09	0.569
1598.21	0.622
1607.33	0.486
1616.46	0.373
1625.58	0.24
1634.7	0.339
1643.83	0.467
1652.95	0.631
1662.07	0.704
1671.2	0.763
1680.32	0.774
1689.45	0.78
1698.57	0.756
1707.69	0.614
1716.82	0.366
1725.94	0.486
1735.06	0.446
1744.19	0.251
1753.31	0.323
1762.43	0.381
1771.56	0.561
1780.68	0.654
1789.8	0.738
1798.93	0.774
1808.05	0.798
1817.17	0.811
1826.3	0.823
1835.42	0.835
1844.54	0.843
1853.67	0.852
1862.79	0.86
1871.91	0.865
1881.04	0.869
1890.16	0.872
1899.28	0.874
1908.41	0.875
1917.53	0.876
1926.65	0.88
1935.78	0.881
1944.9	0.883
1954.02	0.883
1963.15	0.886
1972.27	0.886
1981.39	0.886
1990.52	0.883
1999.64	0.883
2008.77	0.883
2017.89	0.883
2027.01	0.885
2036.14	0.886
2045.26	0.887
2054.38	0.888
2063.51	0.889
2072.63	0.887
2081.75	0.889
2090.88	0.887
2100	0.886
2109.12	0.887
2118.25	0.887
2127.37	0.886
2136.49	0.885
2145.62	0.884
2154.74	0.884
2163.86	0.884
2172.99	0.883
2182.11	0.883
2191.23	0.882
2200.36	0.882
2209.48	0.883
2218.6	0.881
2227.73	0.88
2236.85	0.88
2245.97	0.88
2255.1	0.878
2264.22	0.879
2273.34	0.88
2282.47	0.88
2291.59	0.88
2300.72	0.879
2309.84	0.878
2318.96	0.878
2328.09	0.876
2337.21	0.876
2346.33	0.875
2355.46	0.874
2364.58	0.873
2373.7	0.875
2382.83	0.876
2391.95	0.874
2401.07	0.873
2410.2	0.873
2419.32	0.876
2428.44	0.876
2437.57	0.876
2446.69	0.873
2455.81	0.87
2464.94	0.872
2474.06	0.872
2483.18	0.871
2492.31	0.871
2501.43	0.87
2510.55	0.87
2519.68	0.87
2528.8	0.87
2537.92	0.87
2547.05	0.87
2556.17	0.87
2565.29	0.87
2574.42	0.87
2583.54	0.87
2592.66	0.868
2601.79	0.868
2610.91	0.867
2620.04	0.866
2629.16	0.863
2638.28	0.861
2647.41	0.858
2656.53	0.855
2665.65	0.855
2674.78	0.854
2683.9	0.854
2693.02	0.854
2702.15	0.853
2711.27	0.852
2720.39	0.852
2729.52	0.85
2738.64	0.849
2747.76	0.847
2756.89	0.847
2766.01	0.847
2775.13	0.848
2784.26	0.848
2793.38	0.847
2802.5	0.844
2811.63	0.843
2820.75	0.84
2829.87	0.837
2839	0.83
2848.12	0.827
2857.24	0.82
2866.37	0.809
2875.49	0.811
2884.61	0.808
2893.74	0.795
2902.86	0.775
2911.98	0.766
2921.11	0.763
2930.23	0.749
2939.36	0.742
2948.48	0.769
2957.6	0.759
2966.73	0.741
2975.85	0.694
2984.97	0.701
2994.1	0.726
3003.22	0.757
3012.34	0.766
3021.47	0.781
3030.59	0.778
3039.71	0.773
3048.84	0.762
3057.96	0.749
3067.08	0.738
3076.21	0.74
3085.33	0.743
3094.45	0.75
3103.58	0.753
3112.7	0.758
3121.82	0.755
3130.95	0.738
3140.07	0.72
3149.19	0.701
3158.32	0.699
3167.44	0.697
3176.56	0.678
3185.69	0.647
3194.81	0.613
3203.93	0.589
3213.06	0.598
3222.18	0.6
3231.3	0.601
3240.43	0.603
3249.55	0.605
3258.68	0.616
3267.8	0.626
3276.92	0.625
3286.05	0.609
3295.17	0.593
3304.29	0.542
3313.42	0.496
3322.54	0.529
3331.66	0.551
3340.79	0.451
3349.91	0.627
3359.03	0.685
3368.16	0.721
3377.28	0.741
3386.4	0.756
3395.53	0.758
3404.65	0.739
3413.77	0.695
3422.9	0.677
3432.02	0.66
3441.14	0.578
3450.27	0.675
3459.39	0.652
3468.51	0.686
3477.64	0.753
3486.76	0.787
3495.88	0.806
3505.01	0.821
3514.13	0.832
3523.25	0.84
3532.38	0.85
3541.5	0.853
3550.63	0.855
3559.75	0.857
3568.87	0.86
3578	0.862
3587.12	0.863
3596.24	0.866
3605.37	0.868
3614.49	0.872
3623.61	0.873
3632.74	0.873
3641.86	0.875
3650.98	0.874
3660.11	0.875
3669.23	0.874
3678.35	0.873
3687.48	0.873
3696.6	0.875
3705.72	0.875
3714.85	0.873
3723.97	0.875
3733.09	0.873
3742.22	0.87
3751.34	0.863
3760.46	0.872
3769.59	0.873
3778.71	0.873
3787.83	0.873
3796.96	0.871
