Infrared Spectrum: 4-Ethoxybenzoyl chloride
Formula: C 9 H 9 Cl O 2
CAS: 16331-46-7
State: gas
Origin: EPA-IR VAPOR PHASE LIBRARY
1/CM	ABSORBANCE
549.8	0.002192
559.445	0.001812
569.09	0.001802
578.734	0.002372
588.379	0.002992
598.024	0.007212
607.669	0.019662
617.313	0.029622
626.958	0.026612
636.603	0.019202
646.248	0.031982
655.893	0.026772
665.537	0.015142
675.182	0.004152
684.827	0.002482
694.472	0.001982
704.116	0.002112
713.761	0.001902
723.406	0.002622
733.051	0.003772
742.695	0.004422
752.34	0.006052
761.985	0.010442
771.63	0.012882
781.275	0.012022
790.919	0.011952
800.564	0.010442
810.209	0.011332
819.854	0.015602
829.498	0.018752
839.143	0.025232
848.788	0.026302
858.433	0.032792
868.078	0.067002
877.722	0.099692
887.367	0.072012
897.012	0.042242
906.657	0.026092
916.301	0.017102
925.946	0.012212
935.591	0.007442
945.236	0.004722
954.88	0.003662
964.525	0.002802
974.17	0.002712
983.815	0.002902
993.46	0.003882
1003.1	0.004952
1012.75	0.007152
1022.39	0.011502
1032.04	0.021702
1041.68	0.028602
1051.33	0.022692
1060.97	0.012112
1070.62	0.007892
1080.26	0.008282
1089.91	0.009942
1099.55	0.010132
1109.2	0.011282
1118.84	0.011142
1128.49	0.010712
1138.13	0.013722
1147.78	0.026532
1157.42	0.069852
1167.07	0.163172
1176.71	0.080162
1186.36	0.025702
1196	0.045822
1205.64	0.077112
1215.29	0.063892
1224.93	0.047382
1234.58	0.043912
1244.22	0.069822
1253.87	0.087932
1263.51	0.080772
1273.16	0.034482
1282.8	0.020282
1292.45	0.025422
1302.09	0.034902
1311.74	0.031812
1321.38	0.018082
1331.03	0.007992
1340.67	0.005392
1350.32	0.004562
1359.96	0.004582
1369.61	0.005462
1379.25	0.006482
1388.9	0.010142
1398.54	0.012832
1408.18	0.009532
1417.83	0.009132
1427.47	0.006862
1437.12	0.005722
1446.76	0.006252
1456.41	0.007292
1466.05	0.009142
1475.7	0.015062
1485.34	0.017282
1494.99	0.023162
1504.63	0.046072
1514.28	0.024872
1523.92	0.008842
1533.57	0.007002
1543.21	0.006782
1552.86	0.008302
1562.5	0.013962
1572.15	0.027192
1581.79	0.036302
1591.44	0.058972
1601.08	0.108482
1610.73	0.060982
1620.37	0.015022
1630.01	0.006822
1639.66	0.005342
1649.3	0.004712
1658.95	0.004112
1668.59	0.003662
1678.24	0.003462
1687.88	0.003522
1697.53	0.003882
1707.17	0.004632
1716.82	0.006242
1726.46	0.010022
1736.11	0.018292
1745.75	0.028932
1755.4	0.035202
1765.04	0.042912
1774.69	0.069652
1784.33	0.096922
1793.98	0.068882
1803.62	0.027262
1813.27	0.010812
1822.91	0.006412
1832.55	0.004952
1842.2	0.003622
1851.84	0.002652
1861.49	0.002082
1871.13	0.001872
1880.78	0.001852
1890.42	0.002122
1900.07	0.002432
1909.71	0.002622
1919.36	0.002512
1929	0.002202
1938.65	0.001842
1948.29	0.001502
1957.94	0.001442
1967.58	0.001332
1977.23	0.0012151
1986.87	0.001135
1996.52	0.0011257
2006.16	0.0012517
2015.81	0.001602
2025.45	0.001762
2035.1	0.001792
2044.74	0.002052
2054.38	0.001952
2064.03	0.001732
2073.67	0.001612
2083.32	0.001482
2092.96	0.0012288
2102.61	0.0010385
2112.25	0.0008609
2121.9	0.0007975
2131.54	0.0008372
2141.19	0.000701
2150.83	0.0006825
2160.48	0.0007589
2170.12	0.0006245
2179.77	0.0005756
2189.41	0.0004626
2199.06	0.0005157
2208.7	0.0004429
2218.35	0.0004873
2227.99	0.0005403
2237.64	0.0005293
2247.28	0.00040622
2256.92	0.0005277
2266.57	0.0005567
2276.21	0.000745
2285.86	0.0007456
2295.5	0.0007388
2305.15	0.0006228
2314.79	0.0007656
2324.44	0.0007528
2334.08	0.0008256
2343.73	0.000692
2353.37	0.0007805
2363.02	0.0007701
2372.66	0.0009324
2382.31	0.0009719
2391.95	0.0010801
2401.6	0.0012748
2411.24	0.001322
2420.89	0.001352
2430.53	0.0011763
2440.18	0.0010274
2449.82	0.000891
2459.47	0.0009846
2469.11	0.0011458
2478.75	0.001372
2488.4	0.001332
2498.04	0.0012142
2507.69	0.001352
2517.33	0.001322
2526.98	0.0011445
2536.62	0.0011742
2546.27	0.001412
2555.91	0.001882
2565.56	0.002222
2575.2	0.002022
2584.85	0.001782
2594.49	0.001692
2604.14	0.001402
2613.78	0.0011718
2623.43	0.001047
2633.07	0.0009252
2642.72	0.0008227
2652.36	0.0005897
2662.01	0.0006131
2671.65	0.000543
2681.29	0.0007389
2690.94	0.0006512
2700.58	0.0007131
2710.23	0.0007974
2719.87	0.000753
2729.52	0.0009023
2739.16	0.0009222
2748.81	0.0013005
2758.45	0.001412
2768.1	0.001482
2777.74	0.001472
2787.39	0.0012898
2797.03	0.001392
2806.68	0.001322
2816.32	0.001472
2825.97	0.001552
2835.61	0.001622
2845.26	0.001752
2854.9	0.002082
2864.55	0.002852
2874.19	0.004542
2883.84	0.006592
2893.48	0.007662
2903.12	0.008162
2912.77	0.008552
2922.41	0.009002
2932.06	0.010052
2941.7	0.012392
2951.35	0.011222
2960.99	0.007642
2970.64	0.008712
2980.28	0.013992
2989.93	0.019402
2999.57	0.014822
3009.22	0.007242
3018.86	0.003852
3028.51	0.002882
3038.15	0.002432
3047.8	0.002302
3057.44	0.002442
3067.09	0.002602
3076.73	0.003612
3086.38	0.004202
3096.02	0.002902
3105.67	0.002342
3115.31	0.001792
3124.95	0.0011467
3134.6	0.0007884
3144.24	0.0009047
3153.89	0.0009158
3163.53	0.0006374
3173.18	0.0005312
3182.82	0.0007116
3192.47	0.000808
3202.11	0.0006189
3211.76	0.0007012
3221.4	0.0004143
3231.05	0.0003269
3240.69	0.0004696
3250.34	0.00034468
3259.98	0.0002637
3269.63	0.00036928
3279.27	0.0004975
3288.92	0.000131
3298.56	0.0002975
3308.21	0.00033445
3317.85	0.000195
3327.49	0.0002841
3337.14	0.0002127
3346.78	0.000178
3356.43	0.0004692
3366.07	0.00040411
3375.72	0.0004479
3385.36	0.0004921
3395.01	0.0002965
3404.65	0.0002847
3414.3	0.000169
3423.94	0.0005674
3433.59	0.0004558
3443.23	0.0002356
3452.88	0.0004533
3462.52	0.00040977
3472.17	0.0004888
3481.81	0.0004404
3491.46	0.0006763
3501.1	0.0008963
3510.75	0.00117
3520.39	0.0012346
3530.04	0.001372
3539.68	0.0010345
3549.32	0.0008916
3558.97	0.0007423
3568.61	0.0005072
3578.26	0.0006069
3587.9	0.0004819
3597.55	0.00041132
3607.19	0.0002353
3616.84	0.0002611
3626.48	0.0002875
3636.13	0.000115
3645.77	0.00037343
3655.42	0.0004403
3665.06	0.000159
3674.71	0.00035424
3684.35	0.0002203
3694	0.0004264
3703.64	0.0002917
3713.29	0.000277
3722.93	0.00035993
3732.58	0.0003431
3742.22	0.00039833
3751.86	0.0002969
3761.51	0.000179
3771.15	0.0005158
3780.8	0.00039925
3790.44	7.3e-05
3800.09	0.0002591
3809.73	0.00034874
3819.38	0.0002955
3829.02	0.000123
3838.67	0.00035608
3848.31	0.0002748
3857.96	0.000198
3867.6	0.000131
3877.25	0.000383
3886.89	0.000273
3896.54	0.00038782
3906.18	0.0002978
3915.83	0.000108
3925.47	0.00031059
3935.12	0.000287
3944.76	3.1e-05
3954.41	0.00036687
3964.05	0.00038455
3973.69	0.000203
3983.34	0.000229
3992.98	0.000205
