Infrared Spectrum: NAPHTHALENE, 1-BUTYL-
Formula: C14 H16
CAS: 1634-09-9
State: LIQUID (NEAT)
Class: COBLENTZ
Instrument: PERKIN-ELMER
Sampling: TRANSMISSION
Path length: 0.02 CM (CsI CELL)
Resolution: 4
Origin: AIR MAT. LAB., WRIGHT-PAT. AFB
1/CM	TRANSMITTANCE
217.259	0.765
226.735	0.765
236.21	0.767
245.686	0.77
255.161	0.774
264.637	0.775
274.112	0.78
283.588	0.786
293.063	0.789
302.539	0.794
312.014	0.801
321.49	0.804
330.965	0.811
340.441	0.814
349.916	0.814
359.392	0.813
368.867	0.809
378.343	0.808
387.818	0.806
397.294	0.782
406.769	0.728
416.245	0.6889
425.72	0.648
435.196	0.626
444.671	0.626
454.147	0.7479
463.622	0.719
473.098	0.74
482.573	0.774
492.049	0.706
501.524	0.755
511	0.738
520.476	0.704
529.951	0.758
539.427	0.704
548.902	0.76
558.378	0.702
567.853	0.68
577.329	0.786
586.804	0.774
596.28	0.724
605.755	0.7399
615.231	0.772
624.706	0.792
634.182	0.794
643.657	0.745
653.133	0.794
662.608	0.792
672.084	0.789
681.559	0.777
691.035	0.735
700.51	0.765
709.986	0.696
719.461	0.674
728.937	0.4782
738.412	0.64
747.888	0.611
757.363	0.594
766.839	0.1542
776.314	0.023
785.79	0.042
795.266	0.0669
804.741	0.4819
814.217	0.702
823.692	0.748
833.168	0.758
842.643	0.755
852.119	0.6751
861.594	0.689
871.07	0.758
880.545	0.76
890.021	0.735
899.496	0.728
908.972	0.747
918.447	0.755
927.923	0.719
937.398	0.719
946.874	0.663
956.349	0.707
965.825	0.65
975.3	0.716
984.776	0.75
994.251	0.745
1003.73	0.713
1013.2	0.424
1022.68	0.68
1032.15	0.699
1041.63	0.758
1051.1	0.752
1060.58	0.741
1070.06	0.714
1079.53	0.641
1089.01	0.726
1098.48	0.679
1107.96	0.6819
1117.43	0.764
1126.91	0.762
1136.38	0.733
1145.86	0.728
1155.34	0.68
1164.81	0.514
1174.29	0.736
1183.76	0.738
1193.24	0.719
1202.71	0.713
1212.19	0.668
1221.66	0.706
1231.14	0.699
1240.61	0.692
1250.09	0.668
1259.57	0.611
1269.04	0.679
1278.52	0.73
1287.99	0.716
1297.47	0.713
1306.94	0.74
1316.42	0.721
1325.89	0.696
1335.37	0.699
1344.85	0.668
1354.32	0.626
1363.8	0.643
1373.27	0.497
1382.75	0.578
1392.22	0.4091
1401.7	0.5
1411.17	0.682
1420.65	0.685
1430.13	0.589
1439.6	0.55
1449.08	0.4508
1458.55	0.285
1468.03	0.254
1477.5	0.667
1486.98	0.697
1496.45	0.682
1505.93	0.249
1515.4	0.5558
1524.88	0.679
1534.36	0.726
1543.83	0.74
1553.31	0.741
1562.78	0.743
1572.26	0.709
1581.73	0.643
1591.21	0.5719
1600.68	0.4072
1610.16	0.74
1619.64	0.731
1629.11	0.736
1638.59	0.74
1648.06	0.741
1657.54	0.741
1667.01	0.736
1676.49	0.713
1685.96	0.711
1695.44	0.718
1704.92	0.733
1714.39	0.73
1723.87	0.723
1733.34	0.73
1742.82	0.728
1752.29	0.733
1761.77	0.733
1771.24	0.738
1780.72	0.74
1790.19	0.733
1799.67	0.704
1809.15	0.699
1818.62	0.73
1828.1	0.721
1837.57	0.73
1847.05	0.731
1856.52	0.724
1866	0.728
1875.47	0.74
1884.95	0.745
1894.43	0.735
1903.9	0.724
1913.38	0.685
1922.85	0.675
1932.33	0.684
1941.8	0.691
1951.28	0.706
1960.75	0.748
1970.23	0.762
1979.71	0.765
1989.18	0.765
1998.66	0.765
2008.13	0.769
2017.61	0.766
2027.08	0.764
2036.56	0.764
2046.03	0.764
2055.51	0.7629
2064.98	0.764
2074.46	0.764
2083.94	0.765
2093.41	0.765
2102.89	0.7649
2112.36	0.764
2121.84	0.764
2131.31	0.764
2140.79	0.764
2150.26	0.764
2159.74	0.762
2169.22	0.762
2178.69	0.762
2188.17	0.762
2197.64	0.762
2207.12	0.762
2216.59	0.762
2226.07	0.76
2235.54	0.757
2245.02	0.757
2254.5	0.755
2263.97	0.753
2273.45	0.752
2282.92	0.748
2292.4	0.747
2301.87	0.747
2311.35	0.747
2320.82	0.747
2330.3	0.747
2339.77	0.747
2349.25	0.7478
2358.73	0.747
2368.2	0.748
2377.68	0.7477
2387.15	0.747
2396.63	0.7455
2406.1	0.743
2415.58	0.745
2425.05	0.748
2434.53	0.75
2444.01	0.75
2453.48	0.75
2462.96	0.75
2472.43	0.75
2481.91	0.7494
2491.38	0.747
2500.86	0.7444
2510.33	0.743
2519.81	0.741
2529.29	0.741
2538.76	0.741
2548.24	0.741
2557.71	0.74
2567.19	0.738
2576.66	0.738
2586.14	0.7363
2595.61	0.736
2605.09	0.736
2614.56	0.7335
2624.04	0.726
2633.52	0.7252
2642.99	0.724
2652.47	0.724
2661.94	0.724
2671.42	0.724
2680.89	0.724
2690.37	0.724
2699.84	0.723
2709.32	0.7186
2718.8	0.7131
2728.27	0.707
2737.75	0.7129
2747.22	0.716
2756.7	0.716
2766.17	0.7111
2775.65	0.7011
2785.12	0.6925
2794.6	0.687
2804.08	0.6715
2813.55	0.651
2823.03	0.6208
2832.5	0.5767
2841.98	0.4988
2851.45	0.3447
2860.93	0.1246
2870.4	0.106
2879.88	0.2656
2889.35	0.3315
2898.83	0.2818
2908.31	0.2157
2917.78	0.1096
2927.26	0.032
2936.73	0.0551
2946.21	0.0769
2955.68	0.037
2965.16	0.0687
2974.63	0.2899
2984.11	0.4984
2993.59	0.5202
3003.06	0.4451
3012.54	0.47
3022.01	0.4582
3031.49	0.3588
3040.96	0.2759
3050.44	0.2849
3059.91	0.2863
3069.39	0.3056
3078.86	0.4621
3088.34	0.5594
3097.82	0.584
3107.29	0.6777
3116.77	0.7074
3126.24	0.713
3135.72	0.716
3145.19	0.718
3154.67	0.714
3164.14	0.714
3173.62	0.716
3183.1	0.7205
3192.57	0.721
3202.05	0.723
3211.52	0.724
3221	0.7295
3230.47	0.7303
3239.95	0.731
3249.42	0.731
3258.9	0.733
3268.38	0.733
3277.85	0.733
3287.33	0.731
3296.8	0.733
3306.28	0.731
3315.75	0.731
3325.23	0.731
3334.7	0.731
3344.18	0.731
3353.65	0.731
3363.13	0.731
3372.61	0.731
3382.08	0.731
3391.56	0.731
3401.03	0.731
3410.51	0.731
3419.98	0.73
3429.46	0.73
3438.93	0.731
3448.41	0.731
3457.89	0.73
3467.36	0.73
3476.84	0.73
3486.31	0.73
3495.79	0.728
3505.26	0.728
3514.74	0.726
3524.21	0.726
3533.69	0.726
3543.17	0.724
3552.64	0.723
3562.12	0.723
3571.59	0.723
3581.07	0.723
3590.54	0.723
3600.02	0.724
3609.49	0.724
3618.97	0.724
3628.44	0.723
3637.92	0.721
3647.4	0.721
3656.87	0.7209
3666.35	0.718
3675.82	0.718
3685.3	0.718
3694.77	0.716
3704.25	0.7134
3713.72	0.711
3723.2	0.711
3732.68	0.711
3742.15	0.711
3751.63	0.711
3761.1	0.711
3770.58	0.711
3780.05	0.707
3789.53	0.707
3799	0.707
3808.48	0.707
3817.96	0.706
3827.43	0.7057
3836.91	0.704
3846.38	0.702
3855.86	0.704
3865.33	0.704
3874.81	0.706
3884.28	0.706
3893.76	0.706
3903.23	0.707
3912.71	0.707
3922.19	0.707
3931.66	0.707
3941.14	0.706
3950.61	0.706
3960.09	0.704
3969.56	0.704
3979.04	0.704
