Infrared Spectrum: FORMANILIDE, N-BENZYL-
Formula: C14 H13 N O
CAS: 16350-99-5
State: SOLID (0.6 mg / 650 mg KBr DISC)
Class: COBLENTZ III
Instrument: PERKIN-ELMER 221 (GRATING)
Instrument parameters: FILTER AT 980 CM^-^1, GRATING FOR 4000-1428 CM^-^1, NaCl PRISM FOR 1428-650 CM^-^1
Sampling: TRANSMISSION
Resolution: 4
Origin: SOUTHERN RESEARCH INSTITUTE
1/CM	TRANSMITTANCE
661.555	0.992
670.607	0.931
679.659	0.879
688.712	0.562
697.764	0.502
706.816	0.836
715.868	0.892
724.92	0.859
733.973	0.695
743.025	0.744
752.077	0.82
761.129	0.785
770.181	0.677
779.234	0.864
788.286	0.935
797.338	0.927
806.39	0.933
815.443	0.946
824.495	0.947
833.547	0.943
842.599	0.943
851.651	0.948
860.704	0.95
869.756	0.943
878.808	0.942
887.86	0.936
896.912	0.923
905.965	0.911
915.017	0.908
924.069	0.911
933.121	0.912
942.173	0.893
951.226	0.849
960.278	0.775
969.33	0.742
978.382	0.839
987.434	0.892
996.487	0.87
1005.54	0.857
1014.59	0.849
1023.64	0.813
1032.7	0.791
1041.75	0.82
1050.8	0.841
1059.85	0.861
1068.9	0.861
1077.96	0.823
1087.01	0.745
1096.06	0.833
1105.11	0.846
1114.17	0.846
1123.22	0.845
1132.27	0.843
1141.32	0.842
1150.37	0.835
1159.43	0.822
1168.48	0.809
1177.53	0.801
1186.58	0.769
1195.64	0.75
1204.69	0.654
1213.74	0.588
1222.79	0.645
1231.84	0.74
1240.9	0.781
1249.95	0.775
1259	0.734
1268.05	0.524
1277.11	0.551
1286.16	0.709
1295.21	0.727
1304.26	0.71
1313.31	0.721
1322.37	0.723
1331.42	0.718
1340.47	0.709
1349.52	0.697
1358.57	0.447
1367.63	0.488
1376.68	0.622
1385.73	0.701
1394.78	0.749
1403.84	0.76
1412.89	0.767
1421.94	0.783
1430.99	0.749
1440.04	0.697
1449.1	0.686
1458.15	0.681
1467.2	0.652
1476.25	0.725
1485.31	0.744
1494.36	0.619
1503.41	0.362
1512.46	0.665
1521.51	0.716
1530.57	0.739
1539.62	0.743
1548.67	0.745
1557.72	0.739
1566.78	0.73
1575.83	0.71
1584.88	0.687
1593.93	0.598
1602.98	0.382
1612.04	0.521
1621.09	0.628
1630.14	0.66
1639.19	0.627
1648.25	0.528
1657.3	0.388
1666.35	0.27
1675.4	0.16
1684.45	0.166
1693.51	0.302
1702.56	0.393
1711.61	0.618
1720.66	0.655
1729.72	0.695
1738.77	0.721
1747.82	0.727
1756.87	0.731
1765.92	0.735
1774.98	0.738
1784.03	0.74
1793.08	0.74
1802.13	0.74
1811.19	0.739
1820.24	0.74
1829.29	0.741
1838.34	0.743
1847.39	0.743
1856.45	0.742
1865.5	0.74
1874.55	0.733
1883.6	0.728
1892.66	0.727
1901.71	0.727
1910.76	0.727
1919.81	0.727
1928.86	0.726
1937.92	0.721
1946.97	0.716
1956.02	0.715
1965.07	0.716
1974.12	0.717
1983.18	0.718
1992.23	0.716
2001.28	0.712
2010.33	0.711
2019.39	0.71
2028.44	0.709
2037.49	0.708
2046.54	0.707
2055.59	0.706
2064.65	0.705
2073.7	0.704
2082.75	0.704
2091.8	0.704
2100.86	0.703
2109.91	0.703
2118.96	0.702
2128.01	0.702
2137.06	0.702
2146.12	0.701
2155.17	0.698
2164.22	0.697
2173.27	0.696
2182.33	0.696
2191.38	0.695
2200.43	0.694
2209.48	0.694
2218.53	0.693
2227.59	0.692
2236.64	0.69
2245.69	0.689
2254.74	0.687
2263.8	0.686
2272.85	0.685
2281.9	0.683
2290.95	0.681
2300	0.678
2309.06	0.675
2318.11	0.67
2327.16	0.669
2336.21	0.669
2345.27	0.668
2354.32	0.668
2363.37	0.669
2372.42	0.669
2381.47	0.671
2390.53	0.671
2399.58	0.669
2408.63	0.669
2417.68	0.667
2426.74	0.665
2435.79	0.662
2444.84	0.661
2453.89	0.661
2462.94	0.659
2472	0.658
2481.05	0.656
2490.1	0.656
2499.15	0.656
2508.21	0.656
2517.26	0.655
2526.31	0.653
2535.36	0.652
2544.41	0.649
2553.47	0.647
2562.52	0.647
2571.57	0.646
2580.62	0.645
2589.67	0.645
2598.73	0.644
2607.78	0.644
2616.83	0.643
2625.88	0.642
2634.94	0.64
2643.99	0.639
2653.04	0.639
2662.09	0.639
2671.14	0.638
2680.2	0.638
2689.25	0.638
2698.3	0.636
2707.35	0.636
2716.41	0.634
2725.46	0.633
2734.51	0.631
2743.56	0.629
2752.61	0.628
2761.67	0.626
2770.72	0.624
2779.77	0.621
2788.82	0.619
2797.88	0.618
2806.93	0.616
2815.98	0.614
2825.03	0.611
2834.08	0.603
2843.14	0.596
2852.19	0.593
2861.24	0.591
2870.29	0.59
2879.35	0.59
2888.4	0.59
2897.45	0.589
2906.5	0.586
2915.55	0.584
2924.61	0.588
2933.66	0.597
2942.71	0.6
2951.76	0.603
2960.82	0.604
2969.87	0.605
2978.92	0.604
2987.97	0.603
2997.02	0.597
3006.08	0.59
3015.13	0.577
3024.18	0.567
3033.23	0.568
3042.29	0.569
3051.34	0.568
3060.39	0.582
3069.44	0.595
3078.49	0.599
3087.55	0.603
3096.6	0.608
3105.65	0.61
3114.7	0.611
3123.76	0.61
3132.81	0.609
3141.86	0.608
3150.91	0.607
3159.96	0.606
3169.02	0.606
3178.07	0.605
3187.12	0.605
3196.17	0.604
3205.22	0.604
3214.28	0.603
3223.33	0.603
3232.38	0.601
3241.43	0.599
3250.49	0.597
3259.54	0.595
3268.59	0.594
3277.64	0.589
3286.69	0.585
3295.75	0.581
3304.8	0.578
3313.85	0.576
3322.9	0.571
3331.96	0.565
3341.01	0.56
3350.06	0.555
3359.11	0.552
3368.16	0.55
3377.22	0.55
3386.27	0.55
3395.32	0.55
3404.37	0.55
3413.43	0.552
3422.48	0.554
3431.53	0.559
3440.58	0.562
3449.63	0.566
3458.69	0.57
3467.74	0.573
3476.79	0.579
3485.84	0.584
3494.9	0.586
3503.95	0.587
3513	0.589
3522.05	0.595
3531.1	0.599
3540.16	0.603
3549.21	0.609
3558.26	0.613
3567.31	0.618
3576.37	0.622
3585.42	0.627
3594.47	0.635
3603.52	0.64
3612.57	0.643
3621.63	0.644
3630.68	0.652
3639.73	0.658
3648.78	0.661
3657.84	0.663
3666.89	0.667
3675.94	0.669
3684.99	0.67
3694.04	0.671
3703.1	0.673
3712.15	0.676
3721.2	0.677
3730.25	0.68
3739.31	0.682
3748.36	0.684
3757.41	0.686
3766.46	0.687
3775.51	0.689
3784.57	0.69
3793.62	0.692
3802.67	0.693
3811.72	0.694
3820.77	0.696
3829.83	0.7
3838.88	0.701
3847.93	0.701
3856.98	0.702
3866.04	0.702
3875.09	0.702
3884.14	0.702
3893.19	0.702
3902.24	0.703
3911.3	0.704
3920.35	0.705
3929.4	0.706
3938.45	0.707
3947.51	0.708
3956.56	0.708
3965.61	0.708
3974.66	0.708
3983.71	0.708
3992.77	0.708
4001.82	0.707
