Infrared Spectrum: 2,4-DIMETHYL-6-NITROANILINE
Formula: C8 H10 N2 O2
CAS: 1635-84-3
State: SOLID (MINERAL OIL MULL)
Melting point: 69-71 C
Class: COBLENTZ
Instrument: Not specified, most likely a prism, grating, or hybrid spectrometer.
Sampling: TRANSMISSION
Resolution: 4
Origin: WYANDOTTE CHEMICALS CORP., WYANDOTTE, MICHIGAN, USA
MICROMETERS	TRANSMITTANCE
2.019	0.475
2.05613	0.48
2.09327	0.474
2.1304	0.471
2.16753	0.465
2.20467	0.452
2.2418	0.447
2.27894	0.446
2.31607	0.438
2.3532	0.444
2.39034	0.454
2.42747	0.468
2.4646	0.468
2.50174	0.466
2.53887	0.479
2.576	0.485
2.61314	0.494
2.65027	0.502
2.68741	0.5
2.72454	0.505
2.76167	0.516
2.79881	0.51
2.83594	0.447
2.87307	0.373
2.91021	0.427
2.94734	0.451
2.98447	0.293
3.02161	0.332
3.05874	0.393
3.09588	0.404
3.13301	0.401
3.17014	0.399
3.20728	0.398
3.24441	0.387
3.28154	0.343
3.31868	0.157
3.35581	0.029
3.39294	0.031
3.43008	0.034
3.46721	0.035
3.50435	0.096
3.54148	0.272
3.57861	0.398
3.61575	0.44
3.65288	0.43
3.69001	0.451
3.72715	0.463
3.76428	0.465
3.80141	0.475
3.83855	0.483
3.87568	0.489
3.91282	0.508
3.94995	0.525
3.98708	0.528
4.02422	0.533
4.06135	0.528
4.09848	0.534
4.13562	0.534
4.17275	0.531
4.20988	0.536
4.24702	0.506
4.28415	0.536
4.32128	0.562
4.35842	0.592
4.39555	0.58
4.43269	0.575
4.46982	0.583
4.50695	0.587
4.54409	0.597
4.58122	0.601
4.61835	0.608
4.65549	0.608
4.69262	0.612
4.72975	0.618
4.76689	0.626
4.80402	0.637
4.84116	0.642
4.87829	0.65
4.91542	0.657
4.95256	0.66
4.98969	0.664
5.02682	0.673
5.06396	0.67
5.10109	0.674
5.13822	0.693
5.17536	0.702
5.21249	0.704
5.24963	0.71
5.28676	0.715
5.32389	0.727
5.36103	0.735
5.39816	0.757
5.43529	0.76
5.47243	0.769
5.50956	0.774
5.54669	0.772
5.58383	0.78
5.62096	0.794
5.6581	0.774
5.69523	0.786
5.73236	0.824
5.7695	0.864
5.80663	0.869
5.84376	0.875
5.8809	0.928
5.91803	0.94
5.95516	0.956
5.9923	0.916
6.02943	0.632
6.06657	0.402
6.1037	0.483
6.14083	0.656
6.17797	0.491
6.2151	0.32
6.25223	0.297
6.28937	0.409
6.3265	0.455
6.36363	0.548
6.40077	0.676
6.4379	0.738
6.47504	0.66
6.51217	0.335
6.5493	0.171
6.58644	0.169
6.62357	0.248
6.6607	0.311
6.69784	0.328
6.73497	0.237
6.7721	0.079
6.80924	0.082
6.84637	0.107
6.88351	0.146
6.92064	0.199
6.95777	0.239
6.99491	0.275
7.03204	0.377
7.06917	0.373
7.10631	0.312
7.14344	0.359
7.18057	0.307
7.21771	0.138
7.25484	0.143
7.29198	0.189
7.32911	0.273
7.36624	0.427
7.40338	0.584
7.44051	0.516
7.47764	0.244
7.51478	0.138
7.55191	0.181
7.58904	0.284
7.62618	0.377
7.66331	0.475
7.70045	0.553
7.73758	0.6
7.77471	0.617
7.81185	0.614
7.84898	0.522
7.88611	0.371
7.92325	0.265
7.96038	0.192
7.99751	0.265
8.03465	0.314
8.07178	0.177
8.10892	0.138
8.14605	0.13
8.18318	0.13
8.22032	0.135
8.25745	0.157
8.29458	0.172
8.33172	0.2
8.36885	0.214
8.40598	0.239
8.44312	0.25
8.48025	0.267
8.51738	0.269
8.55452	0.289
8.59165	0.301
8.62879	0.3
8.66592	0.295
8.70305	0.321
8.74019	0.359
8.77732	0.384
8.81445	0.412
8.85159	0.419
8.88872	0.43
8.92585	0.441
8.96299	0.458
9.00012	0.469
9.03726	0.468
9.07439	0.444
9.11152	0.418
9.14866	0.398
9.18579	0.388
9.22292	0.385
9.26006	0.382
9.29719	0.385
9.33432	0.393
9.37146	0.401
9.40859	0.401
9.44573	0.405
9.48286	0.404
9.51999	0.402
9.55713	0.395
9.59426	0.421
9.63139	0.413
9.66853	0.413
9.70566	0.421
9.74279	0.432
9.77993	0.407
9.81706	0.395
9.8542	0.415
9.89133	0.423
9.92846	0.415
9.9656	0.398
10.0027	0.407
10.0399	0.421
10.077	0.437
10.1141	0.444
10.1513	0.441
10.1884	0.449
10.2255	0.449
10.2627	0.447
10.2998	0.465
10.3369	0.447
10.3741	0.377
10.4112	0.349
10.4483	0.365
10.4855	0.382
10.5226	0.387
10.5597	0.393
10.5969	0.401
10.634	0.407
10.6711	0.404
10.7083	0.409
10.7454	0.413
10.7825	0.413
10.8197	0.419
10.8568	0.419
10.8939	0.429
10.9311	0.429
10.9682	0.446
11.0053	0.44
11.0425	0.419
11.0796	0.412
11.1167	0.418
11.1539	0.424
11.191	0.413
11.2281	0.423
11.2653	0.424
11.3024	0.433
11.3395	0.441
11.3767	0.437
11.4138	0.43
11.4509	0.412
11.4881	0.351
11.5252	0.32
11.5623	0.373
11.5995	0.424
11.6366	0.387
11.6737	0.304
11.7109	0.37
11.748	0.485
11.7851	0.533
11.8223	0.545
11.8594	0.556
11.8965	0.566
11.9337	0.572
11.9708	0.57
12.0079	0.58
12.0451	0.584
12.0822	0.597
12.1193	0.59
12.1565	0.595
12.1936	0.595
12.2307	0.603
12.2679	0.608
12.305	0.608
12.3421	0.614
12.3793	0.625
12.4164	0.631
12.4535	0.636
12.4907	0.646
12.5278	0.629
12.565	0.618
12.6021	0.618
12.6392	0.618
12.6764	0.62
12.7135	0.62
12.7506	0.622
12.7878	0.608
12.8249	0.603
12.862	0.575
12.8992	0.533
12.9363	0.485
12.9734	0.374
13.0106	0.318
13.0477	0.272
13.0848	0.293
13.122	0.407
13.1591	0.489
13.1962	0.564
13.2334	0.609
13.2705	0.637
13.3076	0.653
13.3448	0.66
13.3819	0.664
13.419	0.668
13.4562	0.67
13.4933	0.668
13.5304	0.664
13.5676	0.654
13.6047	0.66
13.6418	0.657
13.679	0.662
13.7161	0.664
13.7532	0.657
13.7904	0.656
13.8275	0.654
13.8646	0.653
13.9018	0.653
13.9389	0.668
13.976	0.676
14.0132	0.681
14.0503	0.678
14.0874	0.679
14.1246	0.715
14.1617	0.752
14.1988	0.757
14.236	0.769
14.2731	0.766
14.3102	0.772
14.3474	0.777
14.3845	0.78
14.4216	0.774
14.4588	0.782
14.4959	0.776
14.533	0.771
14.5702	0.771
14.6073	0.774
14.6444	0.766
14.6816	0.762
14.7187	0.76
14.7558	0.757
14.793	0.752
14.8301	0.738
14.8672	0.735
14.9044	0.734
14.9415	0.73
14.9786	0.715
15.0158	0.684
15.0529	0.65
15.09	0.615
15.1272	0.623
15.1643	0.646
15.2014	0.664
15.2386	0.674
15.2757	0.688
15.3128	0.676
15.35	0.676
15.3871	0.679
15.4242	0.674
15.4614	0.671
15.4985	0.667
15.5356	0.654
15.5728	0.643
15.6099	0.642
15.647	0.634
15.6842	0.632
15.7213	0.623
15.7584	0.617
15.7956	0.606
15.8327	0.598
15.8698	0.586
15.907	0.58
15.9441	0.569
15.9812	0.552
