Infrared Spectrum: Bicyclopentyl
Formula: C 10 H 18
CAS: 1636-39-1
State: gas
Instrument: HP-GC/MS/IRD
Origin: NIST Mass Spectrometry Data Center
1/CM	ABSORBANCE
550	0.0006004
562	0.0002774
574	0.000285
586	0.0002356
598	0.0002774
610	0.0002052
622	0.0002014
634	0.0002166
646	0.0001748
658	0.0002128
670	0.0001406
682	9.5e-05
694	0.0001786
706	0.0001368
718	0.000133
730	0.0001558
742	0.000114
754	8.74e-05
766	9.88e-05
778	0.0001482
790	0.0001368
802	0.0001482
814	9.5e-05
826	0.0001976
838	0.0001216
850	0.00019
862	0.0002052
874	0.0003458
886	0.0005548
898	0.0006536
910	0.0005206
922	0.0005738
934	0.0005206
946	0.0003648
958	0.0002698
970	0.0002622
982	0.0002546
994	0.000247
1006	0.0002166
1018	0.0002166
1030	0.0002014
1042	0.0001672
1054	8.74e-05
1066	6.46e-05
1078	1.52e-05
1090	6.08e-05
1102	0
1114	7.6e-05
1126	1.9e-05
1138	9.12e-05
1150	7.6e-05
1162	0.000152
1174	0.0002014
1186	0.0002242
1198	0.000209
1210	0.000247
1222	0.0002584
1234	0.0002432
1246	0.0002964
1258	0.0002964
1270	0.0003268
1282	0.0003002
1294	0.000418
1306	0.0004408
1318	0.000589
1330	0.000494
1342	0.000418
1354	0.0003268
1366	0.000418
1378	0.0002812
1390	0.0003648
1402	0.000342
1414	0.0004408
1426	0.0005738
1438	0.0010298
1450	0.001406
1462	0.001501
1474	0.001406
1486	0.0009994
1498	0.0006194
1510	0.000836
1522	0.0005966
1534	0.0003268
1546	0.000399
1558	0.000551
1570	0.0001444
1582	7.98e-05
1594	4.18e-05
1606	9.5e-05
1618	0.0001444
1630	0.0001216
1642	0.0001558
1654	0.0004712
1666	0.0001634
1678	0.000228
1690	0.00019
1702	0.0003876
1714	0.000285
1726	0.000114
1738	0.0002508
1750	0.0003192
1762	0.0001558
1774	0.0001862
1786	0.0001748
1798	0.0001672
1810	0.0001026
1822	8.36e-05
1834	6.84e-05
1846	0.0001824
1858	4.18e-05
1870	0.0001368
1882	3.04e-05
1894	8.36e-05
1906	4.56e-05
1918	9.88e-05
1930	1.52e-05
1942	7.22e-05
1954	4.18e-05
1966	4.56e-05
1978	1.9e-05
1990	7.22e-05
2002	1.9e-05
2014	7.6e-06
2026	2.28e-05
2038	1.52e-05
2050	3.04e-05
2062	4.18e-05
2074	1.9e-05
2086	1.52e-05
2098	1.52e-05
2110	3.42e-05
2122	3.04e-05
2134	4.56e-05
2146	5.32e-05
2158	3.8e-05
2170	6.08e-05
2182	6.84e-05
2194	6.84e-05
2206	7.6e-05
2218	5.7e-05
2230	4.94e-05
2242	4.94e-05
2254	7.6e-05
2266	9.12e-05
2278	6.84e-05
2290	8.36e-05
2302	0.0001216
2314	0.0001368
2326	0.0001482
2338	0.0001748
2350	0.000152
2362	0.00019
2374	0.0001292
2386	4.94e-05
2398	4.18e-05
2410	4.56e-05
2422	7.6e-06
2434	3.04e-05
2446	3.42e-05
2458	3.8e-05
2470	5.32e-05
2482	4.56e-05
2494	5.32e-05
2506	7.22e-05
2518	4.18e-05
2530	7.22e-05
2542	7.6e-05
2554	0.0001064
2566	0.0001444
2578	0.0001786
2590	0.0002014
2602	0.0002128
2614	0.000171
2626	0.0001976
2638	0.0001976
2650	0.0001824
2662	0.0002128
2674	0.000228
2686	0.0002204
2698	0.0002242
2710	0.0002774
2722	0.0002812
2734	0.000304
2746	0.0003382
2758	0.0004142
2770	0.000456
2782	0.0005662
2794	0.0006612
2806	0.0008816
2818	0.0011704
2830	0.0017746
2842	0.0029184
2854	0.005757
2866	0.011647
2878	0.01596
2890	0.0128288
2902	0.0103588
2914	0.0120954
2926	0.0151848
2938	0.0209038
2950	0.0327674
2962	0.036252
2974	0.0196612
2986	0.0077064
2998	0.0038798
3010	0.0023826
3022	0.0015428
3034	0.0010374
3046	0.0007182
3058	0.00057
3070	0.000418
3082	0.0003268
3094	0.0003306
3106	0.0002812
3118	0.000266
3130	0.0002622
3142	0.0002242
3154	0.0002128
3166	0.0001786
3178	0.0001672
3190	0.0001596
3202	0.000152
3214	0.0001102
3226	0.0001406
3238	6.84e-05
3250	9.88e-05
3262	0.0001216
3274	0.000114
3286	9.5e-05
3298	0.0001026
3310	5.32e-05
3322	8.74e-05
3334	4.18e-05
3346	5.7e-05
3358	8.36e-05
3370	6.46e-05
3382	4.94e-05
3394	4.94e-05
3406	1.52e-05
3418	3.42e-05
3430	3.8e-06
3442	5.32e-05
3454	4.56e-05
3466	8.74e-05
3478	6.46e-05
3490	7.22e-05
3502	0.000133
3514	6.08e-05
3526	0.0001634
3538	6.08e-05
3550	0.0001292
3562	0.000114
3574	2.28e-05
3586	0.000247
3598	0.000133
3610	0.0002622
3622	0.0001976
3634	0.0001026
3646	0.0001596
3658	8.36e-05
3670	0.0002356
3682	6.46e-05
3694	5.7e-05
3706	8.36e-05
3718	0.0001102
3730	0.0002356
3742	0.0003382
3754	0.0002166
3766	0.000114
3778	8.74e-05
3790	4.18e-05
3802	0.000171
3814	0.0001064
3826	0.0001102
3838	0.0002736
