Infrared Spectrum: 2-(p-Nitrophenoxy)ethanol
Formula: C 8 H 9 N O 4
CAS: 16365-27-8
State: gas
Origin: EPA-IR VAPOR PHASE LIBRARY
1/CM	ABSORBANCE
549.8	0.00173
559.445	0.00173
569.09	0.0017
578.734	0.00153
588.379	0.00159
598.024	0.0022
607.669	0.00361
617.313	0.00597
626.958	0.00704
636.603	0.0081
646.248	0.01183
655.893	0.01419
665.537	0.00647
675.182	0.00578
684.827	0.00699
694.472	0.00588
704.116	0.00399
713.761	0.00243
723.406	0.00227
733.051	0.00385
742.695	0.00833
752.34	0.01121
761.985	0.00662
771.63	0.00316
781.275	0.0026
790.919	0.00235
800.564	0.00233
810.209	0.00269
819.854	0.0052
829.498	0.01157
839.143	0.02239
848.788	0.03706
858.433	0.04039
868.078	0.01898
877.722	0.01221
887.367	0.01263
897.012	0.01501
906.657	0.01789
916.301	0.01525
925.946	0.00847
935.591	0.00587
945.236	0.00497
954.88	0.00486
964.525	0.0048
974.17	0.00598
983.815	0.0073
993.46	0.00936
1003.1	0.01407
1012.75	0.02064
1022.39	0.03291
1032.04	0.04995
1041.68	0.05266
1051.33	0.03679
1060.97	0.02728
1070.62	0.02495
1080.26	0.02679
1089.91	0.02506
1099.55	0.0246
1109.2	0.036
1118.84	0.02577
1128.49	0.009
1138.13	0.00595
1147.78	0.00687
1157.42	0.0139
1167.07	0.03683
1176.71	0.02731
1186.36	0.01483
1196	0.01445
1205.64	0.01935
1215.29	0.02784
1224.93	0.0413
1234.58	0.06741
1244.22	0.10599
1253.87	0.1481
1263.51	0.10525
1273.16	0.04459
1282.8	0.03215
1292.45	0.04256
1302.09	0.03502
1311.74	0.027
1321.38	0.03386
1331.03	0.04646
1340.67	0.10884
1350.32	0.14049
1359.96	0.06579
1369.61	0.03918
1379.25	0.02599
1388.9	0.01553
1398.54	0.01098
1408.18	0.00906
1417.83	0.00819
1427.47	0.00822
1437.12	0.00904
1446.76	0.0121
1456.41	0.02275
1466.05	0.02174
1475.7	0.02202
1485.34	0.04044
1494.99	0.08616
1504.63	0.05774
1514.28	0.03765
1523.92	0.06289
1533.57	0.09503
1543.21	0.08539
1552.86	0.04418
1562.5	0.02302
1572.15	0.02243
1581.79	0.04211
1591.44	0.08808
1601.08	0.08864
1610.73	0.04899
1620.37	0.02613
1630.01	0.01011
1639.66	0.00538
1649.3	0.00429
1658.95	0.00357
1668.59	0.00273
1678.24	0.00206
1687.88	0.00173
1697.53	0.0015
1707.17	0.00133
1716.82	0.00131
1726.46	0.00127
1736.11	0.0013
1745.75	0.0017
1755.4	0.00225
1765.04	0.00241
1774.69	0.00163
1784.33	0.00135
1793.98	0.00126
1803.62	0.00121
1813.27	0.0009837
1822.91	0.0008422
1832.55	0.0008155
1842.2	0.0007983
1851.84	0.000919
1861.49	0.00108
1871.13	0.00133
1880.78	0.00164
1890.42	0.00214
1900.07	0.00241
1909.71	0.00236
1919.36	0.00188
1929	0.00149
1938.65	0.00127
1948.29	0.00123
1957.94	0.00124
1967.58	0.00124
1977.23	0.00115
1986.87	0.00111
1996.52	0.00112
2006.16	0.00129
2015.81	0.00146
2025.45	0.00143
2035.1	0.00166
2044.74	0.00177
2054.38	0.00155
2064.03	0.00142
2073.67	0.00134
2083.32	0.00127
2092.96	0.00122
2102.61	0.00121
2112.25	0.00117
2121.9	0.0009989
2131.54	0.0007467
2141.19	0.0006657
2150.83	0.0006606
2160.48	0.000582
2170.12	0.0004672
2179.77	0.0004223
2189.41	0.0004278
2199.06	0.0005513
2208.7	0.0006415
2218.35	0.0006697
2227.99	0.0006758
2237.64	0.0005952
2247.28	0.0005872
2256.92	0.0006524
2266.57	0.0007535
2276.21	0.0008561
2285.86	0.0009065
2295.5	0.0007359
2305.15	0.0006929
2314.79	0.0006221
2324.44	0.0006603
2334.08	0.0006577
2343.73	0.0006395
2353.37	0.00075
2363.02	0.0008708
2372.66	0.0009846
2382.31	0.0011
2391.95	0.00118
2401.6	0.00109
2411.24	0.000975
2420.89	0.0009712
2430.53	0.00114
2440.18	0.00143
2449.82	0.0019
2459.47	0.00202
2469.11	0.00181
2478.75	0.00151
2488.4	0.00152
2498.04	0.00164
2507.69	0.00155
2517.33	0.00133
2526.98	0.00125
2536.62	0.00144
2546.27	0.00165
2555.91	0.00168
2565.56	0.00161
2575.2	0.00157
2584.85	0.00151
2594.49	0.00136
2604.14	0.00137
2613.78	0.00134
2623.43	0.0012
2633.07	0.00103
2642.72	0.00111
2652.36	0.0009503
2662.01	0.0009969
2671.65	0.000949
2681.29	0.00115
2690.94	0.00118
2700.58	0.00135
2710.23	0.00144
2719.87	0.00156
2729.52	0.00171
2739.16	0.00153
2748.81	0.00158
2758.45	0.0015
2768.1	0.00154
2777.74	0.00167
2787.39	0.00174
2797.03	0.00176
2806.68	0.00193
2816.32	0.00226
2825.97	0.00275
2835.61	0.00327
2845.26	0.0041
2854.9	0.00542
2864.55	0.00774
2874.19	0.01111
2883.84	0.01425
2893.48	0.01423
2903.12	0.01238
2912.77	0.01226
2922.41	0.01441
2932.06	0.01923
2941.7	0.02292
2951.35	0.02254
2960.99	0.01958
2970.64	0.01534
2980.28	0.01166
2989.93	0.00732
2999.57	0.00378
3009.22	0.00232
3018.86	0.00152
3028.51	0.00132
3038.15	0.00118
3047.8	0.00114
3057.44	0.00149
3067.09	0.00199
3076.73	0.00273
3086.38	0.00501
3096.02	0.00428
3105.67	0.00123
3115.31	0.0007528
3124.95	0.0004603
3134.6	0.0003547
3144.24	0.0003239
3153.89	0.0003199
3163.53	0.0004001
3173.18	0.0003822
3182.82	0.0004344
3192.47	0.0005379
3202.11	0.0007094
3211.76	0.0006898
3221.4	0.0006303
3231.05	0.0004303
3240.69	0.0003174
3250.34	0.0002139
3259.98	0.0002305
3269.63	0.000212
3279.27	0.0001464
3288.92	0.0002629
3298.56	0.0003329
3308.21	0.0002857
3317.85	0.0004682
3327.49	0.0004767
3337.14	0.0004741
3346.78	0.0002331
3356.43	0.0005153
3366.07	0.0004415
3375.72	0.0004074
3385.36	0.0004052
3395.01	0.0003109
3404.65	0.0003362
3414.3	0.0005528
3423.94	0.0004592
3433.59	0.0005272
3443.23	0.0004381
3452.88	0.0005455
3462.52	0.0005805
3472.17	0.0005003
3481.81	0.0006239
3491.46	0.0005247
3501.1	0.0005896
3510.75	0.0007413
3520.39	0.0006381
3530.04	0.0006638
3539.68	0.0007484
3549.32	0.0007387
3558.97	0.0008687
3568.61	0.000888
3578.26	0.0009245
3587.9	0.0008301
3597.55	0.00106
3607.19	0.00117
3616.84	0.00163
3626.48	0.00217
3636.13	0.00406
3645.77	0.00662
3655.42	0.00729
3665.06	0.00754
3674.71	0.00717
3684.35	0.00483
3694	0.00286
3703.64	0.00179
3713.29	0.00113
3722.93	0.00108
3732.58	0.00103
3742.22	0.00102
3751.86	0.0009558
3761.51	0.0009009
3771.15	0.0005903
3780.8	0.0006609
3790.44	0.0006466
3800.09	0.0006203
3809.73	0.0006001
3819.38	0.0005984
3829.02	0.0004146
3838.67	0.0004591
3848.31	0.0006019
3857.96	0.0003722
3867.6	0.0005609
3877.25	0.0005096
3886.89	0.0006938
3896.54	0.0005649
3906.18	0.0005218
3915.83	0.000705
3925.47	0.0005884
3935.12	0.0007642
3944.76	0.0006238
3954.41	0.0006206
3964.05	0.0007537
3973.69	0.0007298
3983.34	0.0006965
3992.98	0.0006364
