Infrared Spectrum: 2-PENTANONE, 2,4-DINITROPHENYL HYDRAZONE
Formula: C11 H14 N4 O4
CAS: 1636-82-4
State: SOLID (KBr PELLET)
Melting point: 142 C
Class: COBLENTZ
Instrument: Not specified, most likely a grating spectrometer.
Sampling: TRANSMISSION
Resolution: 4
Origin: CITRUS EXPERIMENT STATION, UNIVERSITY OF FLORIDA (G. EDWARDS)
MICROMETERS	TRANSMITTANCE
2.02	0.375
2.05333	0.379
2.08666	0.382
2.12	0.387
2.15333	0.391
2.18666	0.395
2.21999	0.399
2.25333	0.402
2.28666	0.408
2.31999	0.411
2.35332	0.418
2.38666	0.42
2.41999	0.428
2.45332	0.438
2.48665	0.449
2.51999	0.454
2.55332	0.457
2.58665	0.458
2.61998	0.458
2.65332	0.458
2.68665	0.457
2.71998	0.457
2.75331	0.457
2.78665	0.457
2.81998	0.458
2.85331	0.458
2.88664	0.457
2.91997	0.455
2.95331	0.447
2.98664	0.404
3.01997	0.449
3.0533	0.513
3.08664	0.528
3.11997	0.526
3.1533	0.52
3.18663	0.497
3.21997	0.466
3.2533	0.509
3.28663	0.502
3.31996	0.481
3.3533	0.388
3.38663	0.396
3.41996	0.431
3.45329	0.438
3.48663	0.478
3.51996	0.516
3.55329	0.53
3.58662	0.54
3.61995	0.544
3.65329	0.55
3.68662	0.55
3.71995	0.553
3.75328	0.556
3.78662	0.56
3.81995	0.568
3.85328	0.571
3.88661	0.571
3.91995	0.576
3.95328	0.579
3.98661	0.58
4.01994	0.58
4.05328	0.581
4.08661	0.584
4.11994	0.589
4.15327	0.592
4.18661	0.604
4.21994	0.609
4.25327	0.609
4.2866	0.608
4.31994	0.608
4.35327	0.609
4.3866	0.612
4.41993	0.616
4.45326	0.62
4.4866	0.62
4.51993	0.621
4.55326	0.624
4.58659	0.627
4.61993	0.63
4.65326	0.63
4.68659	0.63
4.71992	0.631
4.75326	0.631
4.78659	0.63
4.81992	0.631
4.85325	0.638
4.88659	0.638
4.91992	0.638
4.95325	0.636
4.98658	0.635
5.01992	0.636
5.05325	0.644
5.08658	0.654
5.11991	0.656
5.15324	0.659
5.18658	0.659
5.21991	0.659
5.25324	0.658
5.28657	0.658
5.31991	0.655
5.35324	0.655
5.38657	0.655
5.4199	0.652
5.45324	0.655
5.48657	0.66
5.5199	0.66
5.55323	0.66
5.58657	0.658
5.6199	0.655
5.65323	0.654
5.68656	0.652
5.7199	0.652
5.75323	0.652
5.78656	0.651
5.81989	0.644
5.85323	0.624
5.88656	0.621
5.91989	0.603
5.95322	0.593
5.98655	0.567
6.01989	0.502
6.05322	0.383
6.08655	0.316
6.11988	0.128
6.15322	0.135
6.18655	0.243
6.21988	0.26
6.25321	0.112
6.28655	0.127
6.31988	0.234
6.35321	0.42
6.38654	0.5
6.41988	0.495
6.45321	0.45
6.48654	0.343
6.51987	0.294
6.55321	0.233
6.58654	0.243
6.61987	0.285
6.6532	0.31
6.68653	0.395
6.71987	0.491
6.7532	0.5
6.78653	0.479
6.81986	0.432
6.8532	0.431
6.88653	0.432
6.91986	0.42
6.95319	0.36
6.98653	0.294
7.01986	0.159
7.05319	0.138
7.08652	0.239
7.11986	0.458
7.15319	0.556
7.18652	0.545
7.21985	0.509
7.25319	0.432
7.28652	0.288
7.31985	0.209
7.35318	0.281
7.38652	0.308
7.41985	0.16
7.45318	0.038
7.48651	0.049
7.51984	0.131
7.55318	0.142
7.58651	0.099
7.61984	0.081
7.65317	0.081
7.68651	0.109
7.71984	0.221
7.75317	0.26
7.7865	0.245
7.81984	0.21
7.85317	0.148
7.8865	0.065
7.91983	0.032
7.95317	0.036
7.9865	0.075
8.01983	0.199
8.05316	0.312
8.0865	0.404
8.11983	0.375
8.15316	0.202
8.18649	0.142
8.21982	0.211
8.25316	0.282
8.28649	0.364
8.31982	0.426
8.35315	0.47
8.38649	0.528
8.41982	0.546
8.45315	0.56
8.48648	0.583
8.51982	0.611
8.55315	0.624
8.58648	0.621
8.61981	0.601
8.65315	0.532
8.68648	0.41
8.71981	0.266
8.75314	0.21
8.78648	0.159
8.81981	0.121
8.85314	0.151
8.88647	0.193
8.91981	0.225
8.95314	0.26
8.98647	0.305
9.0198	0.365
9.05313	0.394
9.08647	0.43
9.1198	0.454
9.15313	0.459
9.18646	0.457
9.2198	0.449
9.25313	0.419
9.28646	0.335
9.31979	0.242
9.35313	0.272
9.38646	0.376
9.41979	0.449
9.45312	0.439
9.48646	0.372
9.51979	0.368
9.55312	0.458
9.58645	0.518
9.61979	0.544
9.65312	0.571
9.68645	0.599
9.71978	0.607
9.75311	0.62
9.78645	0.626
9.81978	0.63
9.85311	0.628
9.88644	0.624
9.91978	0.62
9.95311	0.613
9.98644	0.609
10.0198	0.605
10.0531	0.603
10.0864	0.605
10.1198	0.62
10.1531	0.631
10.1864	0.64
10.2198	0.65
10.2531	0.659
10.2864	0.662
10.3198	0.668
10.3531	0.67
10.3864	0.67
10.4198	0.67
10.4531	0.67
10.4864	0.67
10.5198	0.67
10.5531	0.67
10.5864	0.67
10.6198	0.667
10.6531	0.663
10.6864	0.655
10.7198	0.631
10.7531	0.549
10.7864	0.443
10.8198	0.43
10.8531	0.5
10.8864	0.489
10.9197	0.446
10.9531	0.532
10.9864	0.592
11.0197	0.635
11.0531	0.659
11.0864	0.667
11.1197	0.671
11.1531	0.671
11.1864	0.671
11.2197	0.671
11.2531	0.671
11.2864	0.67
11.3197	0.67
11.3531	0.666
11.3864	0.662
11.4197	0.658
11.4531	0.656
11.4864	0.656
11.5197	0.658
11.5531	0.658
11.5864	0.658
11.6197	0.656
11.6531	0.65
11.6864	0.627
11.7197	0.525
11.7531	0.398
11.7864	0.337
11.8197	0.396
11.8531	0.524
11.8864	0.6
11.9197	0.603
11.9531	0.599
11.9864	0.583
12.0197	0.549
12.0531	0.49
12.0864	0.533
12.1197	0.635
12.153	0.659
12.1864	0.671
12.2197	0.672
12.253	0.672
12.2864	0.672
12.3197	0.672
12.353	0.672
12.3864	0.672
12.4197	0.672
12.453	0.671
12.4864	0.671
12.5197	0.668
12.553	0.667
12.5864	0.666
12.6197	0.664
12.653	0.663
12.6864	0.662
12.7197	0.662
12.753	0.662
12.7864	0.662
12.8197	0.662
12.853	0.662
12.8864	0.66
12.9197	0.658
12.953	0.652
12.9864	0.65
13.0197	0.632
13.053	0.621
13.0864	0.605
13.1197	0.6
13.153	0.621
13.1864	0.632
13.2197	0.63
13.253	0.619
13.2863	0.608
13.3197	0.58
13.353	0.529
13.3863	0.454
13.4197	0.329
13.453	0.331
13.4863	0.424
13.5197	0.538
13.553	0.569
13.5863	0.569
13.6197	0.563
13.653	0.538
13.6863	0.498
13.7197	0.439
13.753	0.378
13.7863	0.355
13.8197	0.383
13.853	0.439
13.8863	0.513
13.9197	0.542
13.953	0.569
13.9863	0.575
14.0197	0.576
14.053	0.579
14.0863	0.579
14.1197	0.575
14.153	0.571
14.1863	0.571
14.2197	0.565
14.253	0.561
14.2863	0.553
14.3197	0.545
14.353	0.538
14.3863	0.533
14.4196	0.526
14.453	0.518
14.4863	0.517
14.5196	0.517
14.553	0.52
14.5863	0.522
14.6196	0.522
14.653	0.522
14.6863	0.522
14.7196	0.52
14.753	0.518
14.7863	0.513
14.8196	0.509
14.853	0.505
14.8863	0.5
14.9196	0.498
14.953	0.498
14.9863	0.5
