Infrared Spectrum: 2,3-Diphenyl-2,3-dihydroxybutane
Formula: C16 H18 O2
CAS: 1636-34-6
State: SOLUTION (10% CCl4 FOR 3800-1335, 10% CS2 FOR 1335-450 CM^-^1)
Class: COBLENTZ III
Instrument: DOW KBr FOREPRISM-GRATING
Instrument parameters: BLAZED AT 3.5, 12.0, 20.0 MICRON AND CHANGED AT 5.0, 7.5, 14.9 MICRON
Sampling: TRANSMISSION
Path length: 0.011 CM, 0.011 CM
Resolution: 2
Origin: DOW CHEMICAL COMPANY
1/CM	TRANSMITTANCE
3800	0.918
3791	0.9193
3782	0.9173
3773	0.9185
3764	0.9186
3755	0.9188
3746	0.9191
3737	0.9209
3728	0.9213
3719	0.9202
3710	0.9222
3701	0.9196
3692	0.9079
3683	0.9046
3674	0.9038
3665	0.9033
3656	0.9018
3647	0.8962
3638	0.8852
3629	0.861
3620	0.7492
3611	0.5782
3602	0.6463
3593	0.7341
3584	0.7644
3575	0.7645
3566	0.7709
3557	0.7807
3548	0.7894
3539	0.7858
3530	0.7859
3521	0.7843
3512	0.7775
3503	0.7635
3494	0.7473
3485	0.7307
3476	0.7168
3467	0.705
3458	0.7032
3449	0.7049
3440	0.7076
3431	0.7112
3422	0.7146
3413	0.7179
3404	0.7218
3395	0.7255
3386	0.7292
3377	0.7341
3368	0.7395
3359	0.7455
3350	0.752
3341	0.7586
3332	0.7666
3323	0.7745
3314	0.7833
3305	0.7937
3296	0.8011
3287	0.8091
3278	0.8182
3269	0.8254
3260	0.8319
3251	0.8379
3242	0.8431
3233	0.8476
3224	0.852
3215	0.8555
3206	0.8569
3197	0.8599
3188	0.8622
3179	0.8613
3170	0.86
3161	0.8607
3152	0.8643
3143	0.8644
3134	0.8645
3125	0.858
3116	0.8354
3107	0.7794
3098	0.7677
3089	0.5789
3080	0.6477
3071	0.5237
3062	0.5531
3053	0.6752
3044	0.5767
3035	0.3928
3026	0.5035
3017	0.7309
3008	0.7399
2999	0.7673
2990	0.7397
2981	0.6491
2972	0.4164
2963	0.3341
2954	0.4978
2945	0.5461
2936	0.4433
2927	0.4201
2918	0.5246
2909	0.5638
2900	0.6201
2891	0.6266
2882	0.6184
2873	0.6024
2864	0.7294
2855	0.7941
2846	0.8127
2837	0.8239
2828	0.8402
2819	0.85
2810	0.8573
2801	0.8662
2792	0.8724
2783	0.8776
2774	0.8838
2765	0.8879
2756	0.8911
2747	0.8906
2738	0.8889
2729	0.8881
2720	0.8878
2711	0.8892
2702	0.891
2693	0.8934
2684	0.8958
2675	0.8969
2666	0.8967
2657	0.8968
2648	0.8947
2639	0.8928
2630	0.8923
2621	0.8927
2612	0.8924
2603	0.8926
2594	0.8936
2585	0.8949
2576	0.8965
2567	0.9037
2558	0.9055
2549	0.901
2540	0.9012
2531	0.9013
2522	0.9014
2513	0.9015
2504	0.9009
2495	0.9003
2486	0.9011
2477	0.9037
2468	0.9053
2459	0.9073
2450	0.9077
2441	0.9104
2432	0.9114
2423	0.9116
2414	0.9099
2405	0.9091
2396	0.9062
2387	0.906
2378	0.9084
2369	0.9077
2360	0.9072
2351	0.9101
2342	0.904
2333	0.8982
2324	0.9041
2315	0.9034
2306	0.904
2297	0.9048
2288	0.9055
2279	0.9059
2270	0.9038
2261	0.9015
2252	0.9
2243	0.8988
2234	0.8992
2225	0.9011
2216	0.9015
2207	0.9032
2198	0.9048
2189	0.9047
2180	0.9061
2171	0.9087
2162	0.9079
2153	0.9085
2144	0.9088
2135	0.909
2126	0.9094
2117	0.9098
2108	0.9089
2099	0.9078
2090	0.9077
2081	0.9075
2072	0.907
2063	0.9061
2054	0.9066
2045	0.9038
2036	0.9029
2027	0.9032
2018	0.9032
2009	0.9017
2000	0.8974
1991	0.887
1982	0.8852
1973	0.8822
1964	0.8632
1955	0.8419
1946	0.8154
1937	0.8418
1928	0.8751
1919	0.8789
1910	0.88
1901	0.8765
1892	0.8614
1883	0.8363
1874	0.8379
1865	0.8501
1856	0.8733
1847	0.8842
1838	0.8866
1829	0.8781
1820	0.8558
1811	0.8341
1802	0.8261
1793	0.8622
1784	0.8794
1775	0.8756
1766	0.8729
1757	0.866
1748	0.8495
1739	0.8512
1730	0.8656
1721	0.863
1712	0.8631
1703	0.8488
1694	0.6779
1685	0.6867
1676	0.7622
1667	0.8205
1658	0.8486
1649	0.8648
1640	0.8693
1631	0.8644
1622	0.8543
1613	0.8411
1604	0.5891
1595	0.7445
1586	0.8004
1577	0.8302
1568	0.8256
1559	0.8158
1550	0.8452
1541	0.8465
1532	0.86
1523	0.8518
1514	0.8391
1505	0.7965
1496	0.2924
1487	0.7575
1478	0.8159
1469	0.7917
1460	0.6463
1451	0.3261
1442	0.6826
1433	0.7323
1424	0.7908
1415	0.7894
1406	0.7726
1397	0.7494
1388	0.6984
1379	0.5991
1370	0.6742
1361	0.6775
1352	0.7402
1343	0.7645
1334	0.7141
1325	0.6936
1316	0.7156
1307	0.6926
1298	0.6811
1289	0.6359
1280	0.6329
1271	0.6272
1262	0.7271
1253	0.7722
1244	0.7761
1235	0.8059
1226	0.8116
1217	0.7737
1208	0.7638
1199	0.6953
1190	0.7614
1181	0.6877
1172	0.7461
1163	0.7843
1154	0.7768
1145	0.8361
1136	0.8667
1127	0.8638
1118	0.8248
1109	0.766
1100	0.7456
1091	0.7137
1082	0.6711
1073	0.602
1064	0.4919
1055	0.5445
1046	0.5108
1037	0.5318
1028	0.4524
1019	0.3746
1010	0.542
1001	0.6484
992	0.7019
983	0.7274
974	0.7643
965	0.7564
956	0.7994
947	0.8661
938	0.8705
929	0.8644
920	0.8587
911	0.7725
902	0.6237
893	0.8469
884	0.8833
875	0.8952
866	0.8181
857	0.832
848	0.8561
839	0.8391
830	0.8309
821	0.8221
812	0.8592
803	0.8723
794	0.8722
785	0.8286
776	0.76
767	0.4373
758	0.2311
749	0.4302
740	0.4089
731	0.7912
722	0.8206
713	0.7774
704	0.304
695	0.0515
686	0.6224
677	0.7924
668	0.8386
659	0.8278
650	0.8436
641	0.8448
632	0.7957
623	0.8033
614	0.8261
605	0.8219
596	0.826
587	0.8278
578	0.8146
569	0.7638
560	0.5696
551	0.4367
542	0.6681
533	0.7401
524	0.7593
515	0.7581
506	0.7718
497	0.7843
488	0.7892
479	0.7859
470	0.7779
461	0.7684
452	0.7608
