Infrared Spectrum: Ethyl 5,6-dimethoxyindole-2-carboxylate
Formula: C 13 H 15 N O 4
CAS: 16382-18-6
State: gas
Origin: EPA-IR VAPOR PHASE LIBRARY
1/CM	ABSORBANCE
549.8	0.006277
559.445	0.002937
569.09	0.001717
578.734	0.0010456
588.379	0.0009044
598.024	0.001827
607.669	0.001807
617.313	0.002237
626.958	0.002367
636.603	0.002307
646.248	0.001437
655.893	0.001497
665.537	0.0011257
675.182	0.0007195
684.827	0.001317
694.472	0.001537
704.116	0.002157
713.761	0.002987
723.406	0.003997
733.051	0.004687
742.695	0.004407
752.34	0.006597
761.985	0.013367
771.63	0.012127
781.275	0.004957
790.919	0.002597
800.564	0.004117
810.209	0.005397
819.854	0.004807
829.498	0.005787
839.143	0.008367
848.788	0.011007
858.433	0.010897
868.078	0.009577
877.722	0.007337
887.367	0.005067
897.012	0.003427
906.657	0.003507
916.301	0.003667
925.946	0.004137
935.591	0.005277
945.236	0.005607
954.88	0.004547
964.525	0.005997
974.17	0.007647
983.815	0.009367
993.46	0.014387
1003.1	0.020237
1012.75	0.025837
1022.39	0.035767
1032.04	0.029467
1041.68	0.016457
1051.33	0.009177
1060.97	0.006847
1070.62	0.008287
1080.26	0.013537
1089.91	0.019847
1099.55	0.023537
1109.2	0.016287
1118.84	0.017047
1128.49	0.029557
1138.13	0.041867
1147.78	0.030817
1157.42	0.024557
1167.07	0.031207
1176.71	0.051077
1186.36	0.070127
1196	0.069127
1205.64	0.098147
1215.29	0.160237
1224.93	0.188047
1234.58	0.237237
1244.22	0.159417
1253.87	0.085247
1263.51	0.097687
1273.16	0.084897
1282.8	0.035567
1292.45	0.020037
1302.09	0.016027
1311.74	0.013587
1321.38	0.013387
1331.03	0.017147
1340.67	0.017127
1350.32	0.011817
1359.96	0.008177
1369.61	0.010327
1379.25	0.008857
1388.9	0.009367
1398.54	0.013087
1408.18	0.019837
1417.83	0.019257
1427.47	0.012507
1437.12	0.017197
1446.76	0.015977
1456.41	0.016637
1466.05	0.028717
1475.7	0.028447
1485.34	0.022227
1494.99	0.020127
1504.63	0.012827
1514.28	0.019067
1523.92	0.045717
1533.57	0.070317
1543.21	0.046607
1552.86	0.015917
1562.5	0.009937
1572.15	0.009087
1581.79	0.006627
1591.44	0.004637
1601.08	0.004687
1610.73	0.005957
1620.37	0.008997
1630.01	0.011577
1639.66	0.009017
1649.3	0.006257
1658.95	0.005197
1668.59	0.005307
1678.24	0.006597
1687.88	0.007667
1697.53	0.011687
1707.17	0.028587
1716.82	0.095957
1726.46	0.086217
1736.11	0.041517
1745.75	0.055087
1755.4	0.015357
1765.04	0.006517
1774.69	0.005097
1784.33	0.004397
1793.98	0.004057
1803.62	0.003547
1813.27	0.002917
1822.91	0.002507
1832.55	0.002047
1842.2	0.001907
1851.84	0.001797
1861.49	0.001637
1871.13	0.001637
1880.78	0.001637
1890.42	0.001607
1900.07	0.001597
1909.71	0.001647
1919.36	0.001367
1929	0.001477
1938.65	0.001357
1948.29	0.001537
1957.94	0.001737
1967.58	0.001827
1977.23	0.001757
1986.87	0.001807
1996.52	0.001927
2006.16	0.001717
2015.81	0.001557
2025.45	0.001637
2035.1	0.001657
2044.74	0.001487
2054.38	0.001587
2064.03	0.001567
2073.67	0.001567
2083.32	0.001367
2092.96	0.001387
2102.61	0.0012565
2112.25	0.0012274
2121.9	0.001317
2131.54	0.0011918
2141.19	0.0012643
2150.83	0.0012679
2160.48	0.001287
2170.12	0.001347
2179.77	0.001317
2189.41	0.001347
2199.06	0.001246
2208.7	0.001317
2218.35	0.001507
2227.99	0.0012017
2237.64	0.0010641
2247.28	0.0010618
2256.92	0.0009861
2266.57	0.0009509
2276.21	0.0009933
2285.86	0.0009676
2295.5	0.0008429
2305.15	0.0011134
2314.79	0.0010079
2324.44	0.0009352
2334.08	0.0009552
2343.73	0.0011044
2353.37	0.0010281
2363.02	0.0011468
2372.66	0.0011188
2382.31	0.000829
2391.95	0.0010034
2401.6	0.0011039
2411.24	0.0008535
2420.89	0.001009
2430.53	0.0008778
2440.18	0.0008905
2449.82	0.0007204
2459.47	0.0009637
2469.11	0.0008671
2478.75	0.0010824
2488.4	0.0009993
2498.04	0.0010224
2507.69	0.0010592
2517.33	0.0010712
2526.98	0.0008644
2536.62	0.0011915
2546.27	0.0011621
2555.91	0.0012731
2565.56	0.001447
2575.2	0.001627
2584.85	0.001457
2594.49	0.001527
2604.14	0.001447
2613.78	0.001627
2623.43	0.001497
2633.07	0.001427
2642.72	0.001437
2652.36	0.001307
2662.01	0.001307
2671.65	0.001517
2681.29	0.0012393
2690.94	0.0010671
2700.58	0.0010602
2710.23	0.0012597
2719.87	0.0012851
2729.52	0.001397
2739.16	0.001377
2748.81	0.001497
2758.45	0.001537
2768.1	0.001587
2777.74	0.001767
2787.39	0.002017
2797.03	0.002307
2806.68	0.002837
2816.32	0.004287
2825.97	0.007057
2835.61	0.012057
2845.26	0.012267
2854.9	0.008397
2864.55	0.006497
2874.19	0.007197
2883.84	0.009287
2893.48	0.010777
2903.12	0.012547
2912.77	0.014327
2922.41	0.015067
2932.06	0.019377
2941.7	0.028657
2951.35	0.024997
2960.99	0.020207
2970.64	0.018707
2980.28	0.021717
2989.93	0.023157
2999.57	0.022157
3009.22	0.018257
3018.86	0.009217
3028.51	0.006247
3038.15	0.005207
3047.8	0.005497
3057.44	0.004837
3067.09	0.004517
3076.73	0.003317
3086.38	0.002787
3096.02	0.002367
3105.67	0.002197
3115.31	0.002107
3124.95	0.001927
3134.6	0.001847
3144.24	0.001567
3153.89	0.0012638
3163.53	0.0012118
3173.18	0.0006465
3182.82	0.0009134
3192.47	0.0005471
3202.11	0.0008186
3211.76	0.0006895
3221.4	0.0006216
3231.05	0.000817
3240.69	0.0009858
3250.34	0.0007883
3259.98	0.0010249
3269.63	0.0006786
3279.27	0.0007749
3288.92	0.0005221
3298.56	0.0003594
3308.21	0.0006699
3317.85	0.0005811
3327.49	0.00034019
3337.14	0.0002666
3346.78	0.0005007
3356.43	0.00035603
3366.07	0.0004924
3375.72	0.00036567
3385.36	0.0006064
3395.01	0.0003697
3404.65	0.0008004
3414.3	0.0012669
3423.94	0.001427
3433.59	0.001192
3443.23	0.001297
3452.88	0.002227
3462.52	0.003527
3472.17	0.006617
3481.81	0.015117
3491.46	0.024707
3501.1	0.013827
3510.75	0.008947
3520.39	0.002597
3530.04	0.0012483
3539.68	0.0007622
3549.32	0.0005636
3558.97	0.00031936
3568.61	0.0005047
3578.26	0.0005298
3587.9	0.0006647
3597.55	0.000286866
3607.19	0.0004749
3616.84	0.0004416
3626.48	0.00037312
3636.13	0.0002408
3645.77	0.0004869
3655.42	0.00033394
3665.06	0.00030935
3674.71	0.0004513
3684.35	0.0002626
3694	0.0002601
3703.64	7.5e-05
3713.29	5.8e-05
3722.93	0.0004193
3732.58	0.000289817
3742.22	0.00056
3751.86	0.00037919
3761.51	0.00037074
3771.15	0.00030378
3780.8	0.000417
3790.44	0.0009372
3800.09	0.00031141
3809.73	0.0004433
3819.38	0.0003934
3829.02	0.0007667
3838.67	0.00034916
3848.31	0.0004463
3857.96	0.0006482
3867.6	0.000167
3877.25	0.000458
3886.89	0.0002224
3896.54	0.000804
3906.18	0.0005288
3915.83	0.0005316
3925.47	0.000614
3935.12	0.0005137
3944.76	0.0009507
3954.41	0.0005488
3964.05	0.000462
3973.69	0.0004216
3983.34	0.0006988
3992.98	0.0007607
