Infrared Spectrum: 4,6-Decadiyne
Formula: C 10 H 14
CAS: 16387-71-6
State: gas
Instrument: HP-GC/MS/IRD
Origin: NIST Mass Spectrometry Data Center
1/CM	ABSORBANCE
550	0.0008272
562	0.0005676
574	0.0006248
586	0.0007502
598	0.0006688
610	0.000583
622	0.0004488
634	0.0002684
646	0.000253
658	0.0002728
670	8.14e-05
682	7.7e-05
694	0.0001254
706	9.24e-05
718	0.0001188
730	0.000165
742	0.0002112
754	0.0004906
766	0.0007128
778	0.0005522
790	0.0003366
802	0.0001826
814	0.0001474
826	0.000231
838	0.0002354
850	0.000209
862	0.0002728
874	0.0004114
886	0.000363
898	0.0002266
910	9.9e-05
922	0.000143
934	0.0001804
946	0.0001408
958	9.9e-05
970	9.02e-05
982	5.5e-05
994	0.0001078
1006	0.0001276
1018	0.000209
1030	0.000286
1042	0.0005258
1054	0.0004774
1066	0.00077
1078	0.0009812
1090	0.0006952
1102	0.0005214
1114	0.0002728
1126	0.0001892
1138	0.000187
1150	0.0002024
1162	0.0001892
1174	0.0002354
1186	0.0002134
1198	0.0002486
1210	0.0003806
1222	0.000726
1234	0.0006314
1246	0.000583
1258	0.000946
1270	0.0022154
1282	0.003278
1294	0.0014652
1306	0.0016082
1318	0.004015
1330	0.005478
1342	0.004169
1354	0.0012716
1366	0.0009284
1378	0.0014102
1390	0.001771
1402	0.001144
1414	0.0011594
1426	0.0019316
1438	0.0029458
1450	0.0025916
1462	0.0027742
1474	0.002068
1486	0.0012386
1498	0.0007722
1510	0.0005082
1522	0.0003608
1534	0.0002838
1546	0.0002508
1558	0.0002398
1570	0.0002288
1582	0.0002134
1594	0.000176
1606	0.0001496
1618	0.000121
1630	0.000121
1642	0.0001078
1654	9.02e-05
1666	9.46e-05
1678	0.0001166
1690	0.0001386
1702	9.46e-05
1714	0.0001012
1726	8.14e-05
1738	7.04e-05
1750	4.84e-05
1762	2.86e-05
1774	2.2e-05
1786	0
1798	4.18e-05
1810	1.1e-05
1822	8.8e-06
1834	2.64e-05
1846	4.18e-05
1858	2.86e-05
1870	3.3e-05
1882	2.42e-05
1894	2.86e-05
1906	2.64e-05
1918	2.2e-05
1930	3.3e-05
1942	3.52e-05
1954	3.52e-05
1966	4.84e-05
1978	4.62e-05
1990	3.52e-05
2002	3.74e-05
2014	3.96e-05
2026	7.48e-05
2038	8.58e-05
2050	8.36e-05
2062	6.16e-05
2074	4.84e-05
2086	4.18e-05
2098	6.16e-05
2110	6.16e-05
2122	5.06e-05
2134	7.26e-05
2146	0.0001034
2158	0.0001386
2170	0.0001826
2182	0.00022
2194	0.0001606
2206	0.0001452
2218	0.0001034
2230	9.02e-05
2242	0.0001144
2254	0.0001144
2266	0.0001342
2278	0.000143
2290	0.000154
2302	0.0001584
2314	0.0001716
2326	0.0001254
2338	0.0001144
2350	9.24e-05
2362	9.24e-05
2374	9.68e-05
2386	9.9e-05
2398	7.7e-05
2410	9.46e-05
2422	9.46e-05
2434	9.68e-05
2446	0.0001078
2458	8.8e-05
2470	3.3e-05
2482	7.04e-05
2494	7.92e-05
2506	0.0001342
2518	0.0001386
2530	9.68e-05
2542	9.68e-05
2554	0.0001518
2566	0.0001408
2578	0.0001276
2590	0.0001452
2602	0.0001254
2614	0.0001694
2626	0.0001958
2638	0.0002486
2650	0.0003278
2662	0.000418
2674	0.0003762
2686	0.0002948
2698	0.0002706
2710	0.0002618
2722	0.0002794
2734	0.0003344
2746	0.0004334
2758	0.0004642
2770	0.0004972
2782	0.0005566
2794	0.0006754
2806	0.000825
2818	0.0010978
2830	0.0018084
2842	0.0033814
2854	0.003905
2866	0.004609
2878	0.0091498
2890	0.0098736
2902	0.0092796
2914	0.011902
2926	0.0131736
2938	0.0201212
2950	0.0198484
2962	0.0164714
2974	0.0204952
2986	0.014421
2998	0.0057882
3010	0.0028182
3022	0.0019184
3034	0.001441
3046	0.0011
3058	0.0008998
3070	0.000759
3082	0.0006886
3094	0.0005786
3106	0.0005346
3118	0.000418
3130	0.0004136
3142	0.0003696
3154	0.0003454
3166	0.0003432
3178	0.0003762
3190	0.0003366
3202	0.0003256
3214	0.0002222
3226	0.000176
3238	0.0001078
3250	0.0001166
3262	0.0001144
3274	0.000132
3286	0.0001034
3298	0.0001474
3310	9.46e-05
3322	0.000121
3334	8.14e-05
3346	0.000121
3358	0.0001144
3370	6.6e-05
3382	9.68e-05
3394	9.9e-05
3406	0.0001254
3418	0.0001254
3430	0.000121
3442	5.28e-05
3454	7.7e-05
3466	9.02e-05
3478	7.26e-05
3490	9.24e-05
3502	7.92e-05
3514	9.9e-05
3526	4.84e-05
3538	7.7e-05
3550	6.82e-05
3562	6.16e-05
3574	4.18e-05
3586	7.48e-05
3598	0.0001056
3610	7.48e-05
3622	4.4e-05
3634	6.16e-05
3646	6.16e-05
3658	6.82e-05
3670	0.0001144
3682	0.0001012
3694	9.24e-05
3706	8.36e-05
3718	0.0001386
3730	0.0001254
3742	6.16e-05
3754	0.0001078
3766	9.68e-05
3778	0.0001078
3790	7.26e-05
3802	6.38e-05
3814	9.02e-05
3826	2.64e-05
3838	7.92e-05
