Infrared Spectrum: 4-PENTENOIC ACID, 2,2-DIMETHYL-
Formula: C7 H12 O2
CAS: 16386-93-9
Boiling point: 92 C AT 8.5 mmHg
Class: COBLENTZ
Instrument: Not specified, most likely a prism, grating, or hybrid spectrometer.
Sampling: TRANSMISSION
Resolution: 4
Origin: TENNESSEE EASTMAN COMPANY, RESEARCH LABORATORIES
MICROMETERS	TRANSMITTANCE
2.007	0.877
2.0481	0.88
2.08919	0.88
2.13029	0.882
2.17138	0.882
2.21248	0.878
2.25357	0.86
2.29467	0.858
2.33576	0.86
2.37686	0.86
2.41796	0.863
2.45905	0.863
2.50015	0.865
2.54124	0.87
2.58234	0.872
2.62343	0.873
2.66453	0.873
2.70562	0.873
2.74672	0.872
2.78782	0.86
2.82891	0.839
2.87001	0.81
2.9111	0.75
2.9522	0.665
2.99329	0.588
3.03439	0.5
3.07549	0.402
3.11658	0.332
3.15768	0.261
3.19877	0.206
3.23987	0.148
3.28096	0.145
3.32206	0.116
3.36315	0.098
3.40425	0.098
3.44535	0.121
3.48644	0.177
3.52754	0.216
3.56863	0.249
3.60973	0.284
3.65082	0.288
3.69192	0.274
3.73301	0.279
3.77411	0.281
3.81521	0.286
3.8563	0.286
3.8974	0.327
3.93849	0.348
3.97959	0.399
4.02068	0.472
4.06178	0.518
4.10287	0.561
4.14397	0.604
4.18507	0.638
4.22616	0.689
4.26726	0.691
4.30835	0.692
4.34945	0.718
4.39054	0.747
4.43164	0.754
4.47274	0.759
4.51383	0.752
4.55493	0.744
4.59602	0.769
4.63712	0.783
4.67821	0.783
4.71931	0.779
4.7604	0.773
4.8015	0.774
4.8426	0.773
4.88369	0.774
4.92479	0.767
4.96588	0.754
5.00698	0.744
5.04807	0.744
5.08917	0.737
5.13026	0.733
5.17136	0.732
5.21246	0.725
5.25355	0.723
5.29465	0.713
5.33574	0.684
5.37684	0.655
5.41793	0.629
5.45903	0.645
5.50012	0.663
5.54122	0.662
5.58232	0.653
5.62341	0.612
5.66451	0.511
5.7056	0.361
5.7467	0.254
5.78779	0.1
5.82889	0.02
5.86998	0.015
5.91108	0.075
5.95218	0.267
5.99327	0.404
6.03437	0.467
6.07546	0.366
6.11656	0.6
6.15765	0.656
6.19875	0.706
6.23985	0.737
6.28094	0.75
6.32204	0.757
6.36313	0.764
6.40423	0.745
6.44532	0.742
6.48642	0.744
6.52751	0.754
6.56861	0.766
6.60971	0.745
6.6508	0.699
6.6919	0.479
6.73299	0.175
6.77409	0.344
6.81518	0.401
6.85628	0.402
6.89737	0.448
6.93847	0.465
6.97957	0.453
7.02066	0.31
7.06176	0.274
7.10285	0.409
7.14395	0.515
7.18504	0.479
7.22614	0.598
7.26723	0.5
7.30833	0.433
7.34943	0.65
7.39052	0.672
7.43162	0.648
7.47271	0.568
7.51381	0.407
7.5549	0.271
7.596	0.254
7.63709	0.264
7.67819	0.295
7.71929	0.343
7.76038	0.327
7.80148	0.307
7.84257	0.3
7.88367	0.284
7.92476	0.278
7.96586	0.283
8.00696	0.252
8.04805	0.187
8.08915	0.182
8.13024	0.29
8.17134	0.349
8.21243	0.356
8.25353	0.322
8.29462	0.308
8.33572	0.351
8.37682	0.3
8.41791	0.23
8.45901	0.23
8.5001	0.3
8.5412	0.319
8.58229	0.324
8.62339	0.366
8.66448	0.479
8.70558	0.559
8.74668	0.619
8.78777	0.656
8.82887	0.677
8.86996	0.703
8.91106	0.725
8.95215	0.74
8.99325	0.754
9.03434	0.75
9.07544	0.701
9.11654	0.655
9.15763	0.672
9.19873	0.697
9.23982	0.703
9.28092	0.718
9.32201	0.744
9.36311	0.764
9.40421	0.781
9.4453	0.783
9.4864	0.784
9.52749	0.784
9.56859	0.784
9.60968	0.776
9.65078	0.761
9.69187	0.733
9.73297	0.672
9.77407	0.621
9.81516	0.627
9.85626	0.629
9.89735	0.583
9.93845	0.455
9.97954	0.349
10.0206	0.332
10.0617	0.433
10.1028	0.488
10.1439	0.491
10.185	0.5
10.2261	0.484
10.2672	0.459
10.3083	0.436
10.3494	0.411
10.3905	0.385
10.4316	0.353
10.4727	0.327
10.5138	0.31
10.5549	0.291
10.596	0.284
10.6371	0.278
10.6782	0.269
10.7193	0.259
10.7604	0.228
10.8015	0.175
10.8426	0.133
10.8836	0.117
10.9247	0.148
10.9658	0.233
11.0069	0.336
11.048	0.377
11.0891	0.387
11.1302	0.412
11.1713	0.435
11.2124	0.469
11.2535	0.498
11.2946	0.53
11.3357	0.549
11.3768	0.547
11.4179	0.505
11.459	0.465
11.5001	0.45
11.5412	0.445
11.5823	0.43
11.6234	0.448
11.6645	0.523
11.7056	0.588
11.7467	0.624
11.7877	0.653
11.8288	0.675
11.8699	0.689
11.911	0.699
11.9521	0.704
11.9932	0.713
12.0343	0.72
12.0754	0.73
12.1165	0.735
12.1576	0.74
12.1987	0.749
12.2398	0.752
12.2809	0.755
12.322	0.759
12.3631	0.761
12.4042	0.766
12.4453	0.769
12.4864	0.766
12.5275	0.737
12.5686	0.697
12.6097	0.663
12.6508	0.653
12.6919	0.653
12.7329	0.674
12.774	0.689
12.8151	0.694
12.8562	0.686
12.8973	0.672
12.9384	0.67
12.9795	0.674
13.0206	0.687
13.0617	0.704
13.1028	0.725
13.1439	0.745
13.185	0.752
13.2261	0.762
13.2672	0.771
13.3083	0.773
13.3494	0.778
13.3905	0.779
13.4316	0.783
13.4727	0.781
13.5138	0.783
13.5549	0.783
13.596	0.781
13.6371	0.784
13.6781	0.784
13.7192	0.784
13.7603	0.784
13.8014	0.784
13.8425	0.784
13.8836	0.783
13.9247	0.778
13.9658	0.776
14.0069	0.773
14.048	0.771
14.0891	0.764
14.1302	0.762
14.1713	0.755
14.2124	0.752
14.2535	0.745
14.2946	0.738
14.3357	0.73
14.3768	0.723
14.4179	0.715
14.459	0.704
14.5001	0.691
14.5412	0.675
14.5822	0.656
14.6233	0.638
14.6644	0.626
14.7055	0.616
14.7466	0.61
14.7877	0.61
14.8288	0.61
14.8699	0.614
14.911	0.614
14.9521	0.619
14.9932	0.624
15.0343	0.619
15.0754	0.609
15.1165	0.6
15.1576	0.59
15.1987	0.576
15.2398	0.564
15.2809	0.551
15.322	0.542
15.3631	0.53
15.4042	0.522
15.4453	0.517
15.4864	0.515
15.5274	0.513
15.5685	0.515
15.6096	0.515
15.6507	0.515
15.6918	0.523
15.7329	0.534
15.774	0.535
15.8151	0.54
15.8562	0.549
15.8973	0.556
15.9384	0.563
