Infrared Spectrum: 2-Octyn-1-al diethyl acetal
Formula: C 10 H 22 O 2
CAS: 16387-55-6
State: gas
Origin: EPA-IR VAPOR PHASE LIBRARY
1/CM	ABSORBANCE
549.8	0.0009548
559.445	0.0012942
569.09	0.0013057
578.734	0.000328
588.379	0.0011215
598.024	0.0013763
607.669	0.00066627
617.313	0.000379
626.958	0.0010159
636.603	0.0008796
646.248	0.0012526
655.893	0.0006584
665.537	0.0008565
675.182	0.0013084
684.827	0.0011648
694.472	0.0013633
704.116	0.0014708
713.761	0.0015848
723.406	0.002242
733.051	0.002192
742.695	0.002432
752.34	0.001892
761.985	0.002362
771.63	0.002952
781.275	0.002472
790.919	0.002472
800.564	0.002892
810.209	0.003232
819.854	0.003252
829.498	0.004612
839.143	0.003742
848.788	0.004692
858.433	0.003462
868.078	0.003282
877.722	0.003932
887.367	0.004702
897.012	0.005932
906.657	0.007142
916.301	0.006322
925.946	0.005592
935.591	0.005152
945.236	0.005862
954.88	0.006922
964.525	0.010392
974.17	0.016802
983.815	0.025912
993.46	0.033152
1003.1	0.035352
1012.75	0.031852
1022.39	0.026022
1032.04	0.030242
1041.68	0.053082
1051.33	0.089272
1060.97	0.106732
1070.62	0.091892
1080.26	0.074942
1089.91	0.064092
1099.55	0.059022
1109.2	0.057162
1118.84	0.041222
1128.49	0.034442
1138.13	0.040552
1147.78	0.060242
1157.42	0.056962
1167.07	0.034692
1176.71	0.023002
1186.36	0.015102
1196	0.012512
1205.64	0.010752
1215.29	0.007692
1224.93	0.004742
1234.58	0.005382
1244.22	0.005052
1253.87	0.004412
1263.51	0.004992
1273.16	0.005422
1282.8	0.006832
1292.45	0.008822
1302.09	0.009772
1311.74	0.012272
1321.38	0.022072
1331.03	0.036302
1340.67	0.034652
1350.32	0.037042
1359.96	0.028652
1369.61	0.019992
1379.25	0.015092
1388.9	0.013292
1398.54	0.011322
1408.18	0.008502
1417.83	0.006862
1427.47	0.007282
1437.12	0.009032
1446.76	0.010302
1456.41	0.010172
1466.05	0.009712
1475.7	0.007592
1485.34	0.005352
1494.99	0.003892
1504.63	0.002992
1514.28	0.002532
1523.92	0.001932
1533.57	0.002172
1543.21	0.001912
1552.86	0.001702
1562.5	0.001692
1572.15	0.0012728
1581.79	0.0013834
1591.44	0.001258
1601.08	0.0013396
1610.73	0.0011613
1620.37	0.0013864
1630.01	0.0014299
1639.66	0.0012106
1649.3	0.0014202
1658.95	0.0013996
1668.59	0.0012885
1678.24	0.0013133
1687.88	0.0010192
1697.53	0.0010664
1707.17	0.0011897
1716.82	0.0010585
1726.46	0.0010173
1736.11	0.0011091
1745.75	0.0011439
1755.4	0.0008859
1765.04	0.0011237
1774.69	0.0007666
1784.33	0.000908
1793.98	0.0008563
1803.62	0.000982
1813.27	0.0009123
1822.91	0.0012515
1832.55	0.0009225
1842.2	0.0011606
1851.84	0.001143
1861.49	0.001376
1871.13	0.0013277
1880.78	0.0014042
1890.42	0.0014866
1900.07	0.0014951
1909.71	0.0014731
1919.36	0.0015913
1929	0.0012751
1938.65	0.0016185
1948.29	0.001632
1957.94	0.0016319
1967.58	0.0016252
1977.23	0.0014057
1986.87	0.001486
1996.52	0.0014349
2006.16	0.0015389
2015.81	0.0014779
2025.45	0.0013319
2035.1	0.0013124
2044.74	0.0011229
2054.38	0.0012816
2064.03	0.0013381
2073.67	0.0011898
2083.32	0.0010656
2092.96	0.0011693
2102.61	0.0012102
2112.25	0.0013808
2121.9	0.0012695
2131.54	0.0013811
2141.19	0.001281
2150.83	0.0014794
2160.48	0.001982
2170.12	0.001982
2179.77	0.002032
2189.41	0.002392
2199.06	0.003422
2208.7	0.004362
2218.35	0.005592
2227.99	0.007352
2237.64	0.007202
2247.28	0.005942
2256.92	0.004482
2266.57	0.003682
2276.21	0.003002
2285.86	0.002452
2295.5	0.002402
2305.15	0.002162
2314.79	0.0016013
2324.44	0.0011375
2334.08	0.0011025
2343.73	0.0012729
2353.37	0.0011954
2363.02	0.0007889
2372.66	0.0010379
2382.31	0.0009897
2391.95	0.0010711
2401.6	0.0009825
2411.24	0.0010569
2420.89	0.0013086
2430.53	0.0010843
2440.18	0.0008937
2449.82	0.0011334
2459.47	0.0009362
2469.11	0.0010864
2478.75	0.0011201
2488.4	0.0010793
2498.04	0.0011445
2507.69	0.0007765
2517.33	0.0008438
2526.98	0.0008148
2536.62	0.0009733
2546.27	0.00066506
2555.91	0.0011239
2565.56	0.0011558
2575.2	0.0010557
2584.85	0.0015136
2594.49	0.0013289
2604.14	0.0014361
2613.78	0.001672
2623.43	0.001742
2633.07	0.002292
2642.72	0.002002
2652.36	0.002042
2662.01	0.001912
2671.65	0.001812
2681.29	0.001822
2690.94	0.002062
2700.58	0.001672
2710.23	0.002272
2719.87	0.002472
2729.52	0.002992
2739.16	0.003092
2748.81	0.003632
2758.45	0.003492
2768.1	0.003822
2777.74	0.003912
2787.39	0.004562
2797.03	0.004692
2806.68	0.005602
2816.32	0.006442
2825.97	0.008322
2835.61	0.011032
2845.26	0.015192
2854.9	0.021902
2864.55	0.031862
2874.19	0.040242
2883.84	0.042322
2893.48	0.043452
2903.12	0.046442
2912.77	0.049552
2922.41	0.057302
2932.06	0.078082
2941.7	0.087712
2951.35	0.065012
2960.99	0.056402
2970.64	0.061212
2980.28	0.059172
2989.93	0.041462
2999.57	0.021322
3009.22	0.013952
3018.86	0.009652
3028.51	0.007102
3038.15	0.005472
3047.8	0.004892
3057.44	0.003992
3067.09	0.003432
3076.73	0.002942
3086.38	0.002432
3096.02	0.002772
3105.67	0.002832
3115.31	0.002022
3124.95	0.002382
3134.6	0.001862
3144.24	0.0012556
3153.89	0.002112
3163.53	0.002142
3173.18	0.0015143
3182.82	0.001682
3192.47	0.0014619
3202.11	0.001972
3211.76	0.0013699
3221.4	0.0011485
3231.05	0.001066
3240.69	0.0010527
3250.34	0.0009933
3259.98	0.0007736
3269.63	0.0008008
3279.27	0.0011781
3288.92	0.0010045
3298.56	0.001527
3308.21	0.000374
3317.85	0.0008092
3327.49	0.0007349
3337.14	0.0012997
3346.78	0.00064777
3356.43	0.000333
3366.07	0.0013014
3375.72	0.0015005
3385.36	0.0009303
3395.01	0.0010315
3404.65	0.0010016
3414.3	0.00069811
3423.94	0.0013691
3433.59	0.0010898
3443.23	0.0009021
3452.88	0.00070895
3462.52	0.000399
3472.17	0.0010579
3481.81	0.0012181
3491.46	0.0005939
3501.1	0.0012047
3510.75	0.0006571
3520.39	0.0009545
3530.04	0.0005601
3539.68	0.0009341
3549.32	0.0010875
3558.97	0.0012136
3568.61	0.00070298
3578.26	0.0012594
3587.9	0.00064398
3597.55	0.00070074
3607.19	0.0005474
3616.84	0.0012008
3626.48	0.0011046
3636.13	0.0009119
3645.77	0.0009992
3655.42	0.0007863
3665.06	0.000359
3674.71	0.00066254
3684.35	0.0011845
3694	0.000485
3703.64	0.0007061
3713.29	0.00067637
3722.93	0.000287
3732.58	0.0011948
3742.22	0.0014367
3751.86	0.0009637
3761.51	0.000414
3771.15	0.00064198
3780.8	0.0014257
3790.44	0.0007823
3800.09	0.0011705
3809.73	0.00065567
3819.38	0.0008782
3829.02	0.00064892
3838.67	0.0010535
3848.31	0.0009932
3857.96	0.001018
3867.6	0.00125
3877.25	0.0014472
3886.89	0.0014715
3896.54	0.001712
3906.18	0.0010423
3915.83	0.0009116
3925.47	0.001311
3935.12	0.0009851
3944.76	0.0010563
3954.41	0.0011524
3964.05	0.001922
3973.69	0.0016244
3983.34	0.0012156
3992.98	0.0013867
