Infrared Spectrum: 1-Heptanethiol
Formula: C 7 H 16 S
CAS: 1639-09-4
State: gas
Instrument: HP-GC/MS/IRD
Origin: NIST Mass Spectrometry Data Center
1/CM	ABSORBANCE
550	9.52e-05
562	0.0001224
574	0.0001496
586	0.0001088
598	0.0002176
610	0.0002992
622	0.0002992
634	0.0004352
646	0.0007616
658	0.0008704
670	0.0007208
682	0.0008704
694	0.0014688
706	0.0024344
718	0.0034
730	0.0035632
742	0.002856
754	0.0022576
766	0.0019856
778	0.0016592
790	0.0013464
802	0.0011832
814	0.0011968
826	0.001224
838	0.001156
850	0.0011288
862	0.0010744
874	0.0011696
886	0.0012512
898	0.0012512
910	0.001292
922	0.0013328
934	0.0013872
946	0.0013736
958	0.0012648
970	0.0011288
982	0.0010744
994	0.001088
1006	0.0010608
1018	0.0010608
1030	0.0010472
1042	0.001088
1054	0.0010608
1066	0.0009928
1078	0.0010472
1090	0.0011832
1102	0.001564
1114	0.0015096
1126	0.0010608
1138	0.0007208
1150	0.000816
1162	0.0010608
1174	0.0012376
1186	0.001292
1198	0.0014416
1210	0.0017952
1222	0.0022712
1234	0.0034544
1246	0.0048688
1258	0.005168
1270	0.00612
1282	0.007344
1294	0.0069496
1306	0.00612
1318	0.004624
1330	0.0037264
1342	0.0042976
1354	0.0045288
1366	0.003944
1378	0.0040664
1390	0.0037944
1402	0.0026656
1414	0.0027744
1426	0.0045696
1438	0.008568
1450	0.0117776
1462	0.01292
1474	0.00918
1486	0.0045696
1498	0.0023392
1510	0.0014824
1522	0.0010744
1534	0.0007888
1546	0.000612
1558	0.000476
1570	0.0004488
1582	0.0003944
1594	0.0003672
1606	0.00034
1618	0.0002992
1630	0.0002992
1642	0.0002584
1654	0.000204
1666	0.0001904
1678	0.000204
1690	0.0001632
1702	0.0001496
1714	0.0001224
1726	0.0001088
1738	8.16e-05
1750	0.0001088
1762	8.16e-05
1774	6.8e-05
1786	6.8e-05
1798	6.8e-05
1810	4.08e-05
1822	1.36e-05
1834	5.44e-05
1846	4.08e-05
1858	5.44e-05
1870	2.72e-05
1882	2.72e-05
1894	0
1906	1.36e-05
1918	1.36e-05
1930	1.36e-05
1942	2.72e-05
1954	5.44e-05
1966	5.44e-05
1978	5.44e-05
1990	8.16e-05
2002	9.52e-05
2014	0.0001088
2026	0.000136
2038	0.0001632
2050	0.0001496
2062	0.000136
2074	0.0001088
2086	0.0001224
2098	0.0001088
2110	0.0001088
2122	9.52e-05
2134	9.52e-05
2146	0.0001632
2158	0.0001496
2170	0.000136
2182	0.0001496
2194	0.0001496
2206	0.0001496
2218	9.52e-05
2230	0.0001088
2242	0.0001224
2254	0.0001224
2266	0.0001496
2278	0.0001632
2290	0.000136
2302	0.0001496
2314	0.0001632
2326	0.0001904
2338	0.0001632
2350	0.0001904
2362	0.0002176
2374	0.0002176
2386	0.000204
2398	0.000204
2410	0.0001768
2422	0.000204
2434	0.0001904
2446	0.000204
2458	0.0002176
2470	0.000204
2482	0.0002312
2494	0.0002448
2506	0.0002856
2518	0.0003264
2530	0.0003944
2542	0.0004488
2554	0.0005712
2566	0.0007344
2578	0.0011968
2590	0.0018768
2602	0.0016184
2614	0.0011968
2626	0.0011152
2638	0.0011968
2650	0.0012512
2662	0.0014144
2674	0.0015912
2686	0.0016864
2698	0.0016184
2710	0.0015504
2722	0.0017136
2734	0.0019176
2746	0.0021352
2758	0.0021488
2770	0.0023392
2782	0.0028832
2794	0.0037128
2806	0.0048416
2818	0.00646
2830	0.009452
2842	0.0173808
2854	0.0348296
2866	0.0494088
2878	0.0471376
2890	0.0402424
2902	0.042908
2914	0.068476
2926	0.115886
2938	0.135089
2950	0.101388
2962	0.0825792
2974	0.0656608
2986	0.0290088
2998	0.014008
3010	0.0086496
3022	0.00612
3034	0.0045696
3046	0.0033728
3058	0.0025976
3070	0.0022032
3082	0.0018904
3094	0.0017136
3106	0.001496
3118	0.0013464
3130	0.001224
3142	0.0011016
3154	0.0010608
3166	0.0009656
3178	0.0009248
3190	0.0008296
3202	0.0006528
3214	0.000544
3226	0.0004488
3238	0.0003536
3250	0.00034
3262	0.000272
3274	0.000272
3286	0.000272
3298	0.0001904
3310	0.0002176
3322	0.0002312
3334	0.0002448
3346	0.0002312
3358	0.000204
3370	0.000204
3382	0.000204
3394	0.0002448
3406	0.0001904
3418	0.0001904
3430	0.000204
3442	0.0001632
3454	0.0001496
3466	0.000136
3478	0.0001224
3490	8.16e-05
3502	9.52e-05
3514	0.0001224
3526	0.0001632
3538	0.0001496
3550	0.0001768
3562	0.0001632
3574	0.0001632
3586	0.000204
3598	0.000272
3610	0.000272
3622	0.0002992
3634	0.00034
3646	0.0003128
3658	0.0003536
3670	0.0003264
3682	0.0003672
3694	0.0003264
3706	0.0002992
3718	0.00034
3730	0.00034
3742	0.00034
3754	0.0003264
3766	0.0003128
3778	0.0003536
3790	0.0003128
3802	0.0003672
3814	0.0003808
3826	0.0003944
3838	0.0003264
