Infrared Spectrum: 3Beta-ACETOXY-5-ANDROSTEN-17Beta-OL
Formula: C21 H32 O3
CAS: 1639-43-6
State: SOLUTION (0.2 M CHCl3 FOR 2.5-12.5 MICRON) VS SOLVENT
Class: COBLENTZ
Instrument: PERKIN-ELMER 21 (GRATING)
Instrument parameters: FILTER AT ABOUT 10 MICRONS
Path length: 0.010 CM
Resolution: 2
Origin: ABBOTT LABORATORIES
1/CM	TRANSMITTANCE
799	0.8726
808	0.835
817	0.87
826	0.8485
835	0.8154
844	0.858
853	0.8872
862	0.8845
871	0.861
880	0.8753
889	0.8642
898	0.7954
907	0.8309
916	0.8518
925	0.8476
934	0.8124
943	0.812
952	0.6815
961	0.7949
970	0.7095
979	0.7647
988	0.7361
997	0.5795
1006	0.4849
1015	0.3454
1024	0.2639
1033	0.318
1042	0.4507
1051	0.6319
1060	0.5967
1069	0.6054
1078	0.7045
1087	0.7941
1096	0.8181
1105	0.8026
1114	0.7334
1123	0.6977
1132	0.639
1141	0.7982
1150	0.8075
1159	0.8051
1168	0.789
1177	0.7751
1186	0.6673
1195	0.3672
1204	0.2952
1213	0.2415
1222	0.1886
1231	0.1365
1240	0.0846
1249	0.085
1258	0.2193
1267	0.4714
1276	0.6278
1285	0.736
1294	0.7706
1303	0.7603
1312	0.7706
1321	0.765
1330	0.7585
1339	0.7594
1348	0.6833
1357	0.4359
1366	0.4012
1375	0.553
1384	0.7038
1393	0.754
1402	0.7798
1411	0.7677
1420	0.7287
1429	0.635
1438	0.6731
1447	0.6766
1456	0.6591
1465	0.7032
1474	0.8299
1483	0.8645
1492	0.8813
1501	0.8947
1510	0.9016
1519	0.9031
1528	0.9021
1537	0.8994
1546	0.8949
1555	0.8917
1564	0.8898
1573	0.8878
1582	0.8852
1591	0.8781
1600	0.8745
1609	0.8757
1618	0.8739
1627	0.8698
1636	0.8645
1645	0.8561
1654	0.8443
1663	0.8298
1672	0.8115
1681	0.7736
1690	0.7092
1699	0.4863
1708	0.2613
1717	0.1404
1726	0.2966
1735	0.6099
1744	0.7154
1753	0.7993
1762	0.841
1771	0.8611
1780	0.8738
1789	0.8812
1798	0.8867
1807	0.8912
1816	0.8949
1825	0.898
1834	0.9002
1843	0.9019
1852	0.9036
1861	0.9049
1870	0.9055
1879	0.906
1888	0.9064
1897	0.9063
1906	0.9062
1915	0.9064
1924	0.9068
1933	0.909
1942	0.914
1951	0.9145
1960	0.9146
1969	0.9149
1978	0.9148
1987	0.9146
1996	0.9144
2005	0.9141
2014	0.9139
2023	0.9136
2032	0.9135
2041	0.9133
2050	0.9132
2059	0.913
2068	0.9126
2077	0.9122
2086	0.9118
2095	0.9111
2104	0.9104
2113	0.9097
2122	0.9095
2131	0.9092
2140	0.9111
2149	0.913
2158	0.9143
2167	0.9153
2176	0.916
2185	0.9159
2194	0.9157
2203	0.9155
2212	0.9151
2221	0.9145
2230	0.914
2239	0.9134
2248	0.9129
2257	0.9129
2266	0.9129
2275	0.9128
2284	0.9128
2293	0.9128
2302	0.9124
2311	0.9117
2320	0.9112
2329	0.9106
2338	0.9098
2347	0.909
2356	0.9082
2365	0.9074
2374	0.9064
2383	0.9053
2392	0.9042
2401	0.903
2410	0.9021
2419	0.9014
2428	0.9009
2437	0.9004
2446	0.901
2455	0.9018
2464	0.9024
2473	0.9035
2482	0.9046
2491	0.9056
2500	0.9061
2509	0.9058
2518	0.9055
2527	0.9052
2536	0.9041
2545	0.9029
2554	0.9018
2563	0.9002
2572	0.8983
2581	0.8964
2590	0.8949
2599	0.8935
2608	0.8922
2617	0.8909
2626	0.8898
2635	0.8887
2644	0.8876
2653	0.8865
2662	0.8851
2671	0.8838
2680	0.8825
2689	0.8812
2698	0.8795
2707	0.8772
2716	0.8749
2725	0.8727
2734	0.8689
2743	0.8642
2752	0.8574
2761	0.848
2770	0.834
2779	0.8185
2788	0.8017
2797	0.7784
2806	0.715
2815	0.6521
2824	0.5897
2833	0.539
2842	0.5156
2851	0.4879
2860	0.4633
2869	0.4411
2878	0.4193
2887	0.395
2896	0.3719
2905	0.3556
2914	0.3458
2923	0.3386
2932	0.3333
2941	0.3302
2950	0.3349
2959	0.42
2968	0.5177
2977	0.6148
2986	0.7113
2995	0.8037
3004	0.8349
3013	0.8474
3022	0.86
3031	0.8728
3040	0.8812
3049	0.8879
3058	0.8923
3067	0.8963
3076	0.8998
3085	0.9023
3094	0.9046
3103	0.9068
3112	0.9077
3121	0.9084
3130	0.9092
3139	0.9099
3148	0.9101
3157	0.9104
3166	0.9106
3175	0.9108
3184	0.911
3193	0.9113
3202	0.911
3211	0.9106
3220	0.9101
3229	0.9097
3238	0.9089
3247	0.9079
3256	0.907
3265	0.906
3274	0.905
3283	0.9037
3292	0.9023
3301	0.901
3310	0.8996
3319	0.8976
3328	0.8953
3337	0.893
3346	0.8906
3355	0.8882
3364	0.8858
3373	0.8832
3382	0.8806
3391	0.8781
3400	0.8755
3409	0.8735
3418	0.8723
3427	0.8712
3436	0.8701
3445	0.869
3454	0.8687
3463	0.8688
3472	0.8688
3481	0.8688
3490	0.8689
3499	0.8691
3508	0.8691
3517	0.8682
3526	0.8596
3535	0.8502
3544	0.8398
3553	0.8287
3562	0.8167
3571	0.8104
3580	0.8098
3589	0.8113
3598	0.8072
3607	0.8576
3616	0.8771
3625	0.8903
3634	0.9009
3643	0.9074
3652	0.9136
3661	0.9161
3670	0.9172
3679	0.9176
3688	0.9177
3697	0.9177
3706	0.9178
3715	0.9179
3724	0.9179
3733	0.918
3742	0.918
3751	0.9178
3760	0.9176
3769	0.9174
3778	0.9171
3787	0.9169
3796	0.9167
3805	0.9165
3814	0.9161
3823	0.9157
3832	0.9153
3841	0.9148
3850	0.9145
3859	0.914
3868	0.9136
3877	0.9132
3886	0.9127
3895	0.9122
3904	0.9116
3913	0.911
3922	0.9105
3931	0.9099
3940	0.9094
3949	0.9089
3958	0.9086
3967	0.9082
3976	0.9079
3985	0.9076
3994	0.9073
