Infrared Spectrum: 2,3,3-Trimethyl-3H-indole
Formula: C 11 H 13 N
CAS: 1640-39-7
State: gas
Origin: EPA-IR VAPOR PHASE LIBRARY
1/CM	ABSORBANCE
549.8	0.0006158
559.445	0.002452
569.09	0.004932
578.734	0.001932
588.379	9.16e-05
598.024	0.0002938
607.669	0.0006984
617.313	0.003332
626.958	0.006862
636.603	0.006942
646.248	0.007442
655.893	0.007092
665.537	0.002762
675.182	0.0009835
684.827	0.0009891
694.472	0.0008198
704.116	0.0005659
713.761	0.0008023
723.406	0.003092
733.051	0.020582
742.695	0.058352
752.34	0.075132
761.985	0.042962
771.63	0.021672
781.275	0.011592
790.919	0.005742
800.564	0.002362
810.209	0.001372
819.854	0.0008955
829.498	0.001492
839.143	0.002152
848.788	0.004382
858.433	0.008012
868.078	0.007032
877.722	0.002542
887.367	0.001352
897.012	0.001452
906.657	0.002142
916.301	0.004172
925.946	0.007982
935.591	0.007882
945.236	0.004802
954.88	0.001792
964.525	0.0010408
974.17	0.001172
983.815	0.001832
993.46	0.004172
1003.1	0.010372
1012.75	0.011272
1022.39	0.005092
1032.04	0.001742
1041.68	0.001272
1051.33	0.0009735
1060.97	0.0010473
1070.62	0.002982
1080.26	0.005032
1089.91	0.004052
1099.55	0.007272
1109.2	0.009222
1118.84	0.005602
1128.49	0.003482
1138.13	0.004112
1147.78	0.003942
1157.42	0.002622
1167.07	0.001832
1176.71	0.002762
1186.36	0.008372
1196	0.017742
1205.64	0.015912
1215.29	0.006682
1224.93	0.008872
1234.58	0.014592
1244.22	0.019422
1253.87	0.020432
1263.51	0.014812
1273.16	0.007432
1282.8	0.005012
1292.45	0.008242
1302.09	0.008172
1311.74	0.004542
1321.38	0.003892
1331.03	0.003882
1340.67	0.004562
1350.32	0.007682
1359.96	0.013852
1369.61	0.020542
1379.25	0.023642
1388.9	0.017432
1398.54	0.008702
1408.18	0.007622
1417.83	0.012702
1427.47	0.021572
1437.12	0.028922
1446.76	0.049432
1456.41	0.063512
1466.05	0.049732
1475.7	0.029272
1485.34	0.012462
1494.99	0.007572
1504.63	0.005902
1514.28	0.004822
1523.92	0.005032
1533.57	0.005822
1543.21	0.007912
1552.86	0.012362
1562.5	0.022232
1572.15	0.043382
1581.79	0.065142
1591.44	0.050282
1601.08	0.020982
1610.73	0.012132
1620.37	0.006832
1630.01	0.003532
1639.66	0.002522
1649.3	0.002262
1658.95	0.002322
1668.59	0.003232
1678.24	0.003682
1687.88	0.002352
1697.53	0.001782
1707.17	0.001972
1716.82	0.002402
1726.46	0.002302
1736.11	0.001752
1745.75	0.001132
1755.4	0.0008501
1765.04	0.0010353
1774.69	0.001852
1784.33	0.003612
1793.98	0.003712
1803.62	0.002002
1813.27	0.001322
1822.91	0.001912
1832.55	0.001872
1842.2	0.001382
1851.84	0.001932
1861.49	0.002162
1871.13	0.001312
1880.78	0.001802
1890.42	0.003502
1900.07	0.003552
1909.71	0.001912
1919.36	0.001772
1929	0.003632
1938.65	0.003402
1948.29	0.001312
1957.94	0.0006277
1967.58	0.0005701
1977.23	0.0005106
1986.87	0.0004739
1996.52	0.0005006
2006.16	0.0005261
2015.81	0.0005429
2025.45	0.0005294
2035.1	0.0005811
2044.74	0.0007507
2054.38	0.0008674
2064.03	0.0008219
2073.67	0.0006604
2083.32	0.0004831
2092.96	0.000411
2102.61	0.0004396
2112.25	0.0005078
2121.9	0.0004503
2131.54	0.0003897
2141.19	0.0004813
2150.83	0.0004986
2160.48	0.0006061
2170.12	0.0007385
2179.77	0.0005317
2189.41	0.0003843
2199.06	0.0004584
2208.7	0.0005189
2218.35	0.0005779
2227.99	0.0006553
2237.64	0.0007377
2247.28	0.0007592
2256.92	0.0007554
2266.57	0.0007556
2276.21	0.0006321
2285.86	0.0006871
2295.5	0.0009632
2305.15	0.001342
2314.79	0.0011077
2324.44	0.000523
2334.08	0.0005066
2343.73	0.000488
2353.37	0.0004857
2363.02	0.0005791
2372.66	0.0007463
2382.31	0.0007678
2391.95	0.0007635
2401.6	0.0008417
2411.24	0.0007612
2420.89	0.0007475
2430.53	0.0008593
2440.18	0.0009289
2449.82	0.0009339
2459.47	0.0009202
2469.11	0.0010807
2478.75	0.0010439
2488.4	0.0010163
2498.04	0.0010011
2507.69	0.001172
2517.33	0.001172
2526.98	0.0010368
2536.62	0.0009374
2546.27	0.0008022
2555.91	0.0007692
2565.56	0.0008271
2575.2	0.0009749
2584.85	0.0008215
2594.49	0.0007699
2604.14	0.0008706
2613.78	0.0008357
2623.43	0.0008294
2633.07	0.0008437
2642.72	0.0008963
2652.36	0.000792
2662.01	0.0008221
2671.65	0.0007764
2681.29	0.0008988
2690.94	0.000996
2700.58	0.001172
2710.23	0.001412
2719.87	0.001642
2729.52	0.002012
2739.16	0.002222
2748.81	0.001782
2758.45	0.001772
2768.1	0.001932
2777.74	0.001752
2787.39	0.001782
2797.03	0.002122
2806.68	0.002592
2816.32	0.002882
2825.97	0.003462
2835.61	0.004762
2845.26	0.007752
2854.9	0.012822
2864.55	0.023112
2874.19	0.031792
2883.84	0.026692
2893.48	0.022172
2903.12	0.024832
2912.77	0.035602
2922.41	0.051312
2932.06	0.059042
2941.7	0.048922
2951.35	0.044222
2960.99	0.081022
2970.64	0.117392
2980.28	0.070482
2989.93	0.022412
2999.57	0.013802
3009.22	0.015732
3018.86	0.019922
3028.51	0.022092
3038.15	0.020612
3047.8	0.023402
3057.44	0.031962
3067.09	0.042882
3076.73	0.040312
3086.38	0.026622
3096.02	0.014542
3105.67	0.006372
3115.31	0.003522
3124.95	0.002862
3134.6	0.002832
3144.24	0.002802
3153.89	0.003042
3163.53	0.002822
3173.18	0.002432
3182.82	0.002322
3192.47	0.002432
3202.11	0.002132
3211.76	0.001702
3221.4	0.001522
3231.05	0.001342
3240.69	0.001172
3250.34	0.0008386
3259.98	0.0005182
3269.63	0.0003171
3279.27	0.0004226
3288.92	0.0005502
3298.56	0.0007638
3308.21	0.0009089
3317.85	0.0005555
3327.49	0.000453
3337.14	0.0003554
3346.78	0.00019273
3356.43	0.0003622
3366.07	0.0003368
3375.72	0.00021387
3385.36	0.0002614
3395.01	0.00038
3404.65	0.0004404
3414.3	0.0003434
3423.94	0.0004006
3433.59	0.0003229
3443.23	0.00018229
3452.88	0.0001481
3462.52	0.00022136
3472.17	9.16e-05
3481.81	0.0002344
3491.46	0.0004569
3501.1	0.0003047
3510.75	0.00020455
3520.39	0.0004035
3530.04	0.0003994
3539.68	0.0003324
3549.32	0.0002917
3558.97	0.000304
3568.61	0.0004011
3578.26	0.0002038
3587.9	0.000478
3597.55	0.0004114
3607.19	0.0003716
3616.84	0.000125644
3626.48	0.0003317
3636.13	0.0003829
3645.77	0.0002647
3655.42	0.0002284
3665.06	0.000228
3674.71	0.0003095
3684.35	0.00022066
3694	0.0003336
3703.64	0.0005013
3713.29	0.0004612
3722.93	0.0004973
3732.58	0.000437
3742.22	0.0004969
3751.86	0.0006592
3761.51	0.0004411
3771.15	0.0004478
3780.8	0.0003911
3790.44	0.0004563
3800.09	0.0005629
3809.73	0.0006134
3819.38	0.0004027
3829.02	0.0005122
3838.67	0.0004792
3848.31	0.0004969
3857.96	0.0006661
3867.6	0.0008203
3877.25	0.0008903
3886.89	0.000777
3896.54	0.0009424
3906.18	0.0008795
3915.83	0.0007578
3925.47	0.0007792
3935.12	0.0007947
3944.76	0.0005131
3954.41	0.0008539
3964.05	0.0006189
3973.69	0.0005236
3983.34	0.0004739
3992.98	0.0008818
