Infrared Spectrum: 3,7-DIMETHYL-2,6-OCTADIEN-1-OL-ACETATE
Formula: C12 H20 O2
CAS: 16409-44-2
State: LIQUID (NEAT)
Class: COBLENTZ III
Instrument: BECKMAN IR-4 (HYBRID PRISM-GRATING)
Sampling: TRANSMISSION
Path length: CAPILLARY
Resolution: 4
Origin: UNIVERSITY OF FLORIDA
MICROMETERS	TRANSMITTANCE
0.982	0.858
1.01856	0.858
1.05512	0.859
1.09168	0.86
1.12824	0.861
1.1648	0.862
1.20136	0.866
1.23792	0.869
1.27448	0.87
1.31103	0.872
1.34759	0.873
1.38415	0.873
1.42071	0.874
1.45727	0.873
1.49383	0.865
1.53039	0.865
1.56695	0.869
1.60351	0.873
1.64007	0.878
1.67663	0.88
1.71319	0.881
1.74975	0.882
1.78631	0.882
1.82287	0.882
1.85943	0.884
1.89599	0.884
1.93254	0.884
1.9691	0.885
2.00566	0.883
2.04222	0.882
2.07878	0.883
2.11534	0.881
2.1519	0.872
2.18846	0.842
2.22502	0.831
2.26158	0.83
2.29814	0.837
2.3347	0.85
2.37126	0.86
2.40782	0.856
2.44438	0.861
2.48094	0.862
2.5175	0.87
2.55405	0.875
2.59061	0.878
2.62717	0.877
2.66373	0.87
2.70029	0.868
2.73685	0.866
2.77341	0.859
2.80997	0.857
2.84653	0.849
2.88309	0.823
2.91965	0.859
2.95621	0.86
2.99277	0.863
3.02933	0.865
3.06589	0.862
3.10245	0.858
3.13901	0.848
3.17556	0.832
3.21212	0.8
3.24868	0.729
3.28524	0.642
3.3218	0.449
3.35836	0.108
3.39492	0.068
3.43148	0.062
3.46804	0.165
3.5046	0.392
3.54116	0.719
3.57772	0.799
3.61428	0.802
3.65084	0.782
3.6874	0.832
3.72396	0.851
3.76052	0.857
3.79707	0.861
3.83363	0.862
3.87019	0.865
3.90675	0.872
3.94331	0.872
3.97987	0.87
4.01643	0.86
4.05299	0.857
4.08955	0.865
4.12611	0.869
4.16267	0.87
4.19923	0.874
4.23579	0.876
4.27235	0.878
4.30891	0.88
4.34547	0.881
4.38203	0.88
4.41858	0.878
4.45514	0.877
4.4917	0.874
4.52826	0.877
4.56482	0.874
4.60138	0.87
4.63794	0.868
4.6745	0.868
4.71106	0.87
4.74762	0.87
4.78418	0.867
4.82074	0.859
4.8573	0.862
4.89386	0.866
4.93042	0.869
4.96698	0.869
5.00354	0.87
5.04009	0.87
5.07665	0.868
5.11321	0.867
5.14977	0.865
5.18633	0.864
5.22289	0.859
5.25945	0.857
5.29601	0.85
5.33257	0.842
5.36913	0.835
5.40569	0.827
5.44225	0.81
5.47881	0.799
5.51537	0.775
5.55193	0.728
5.58849	0.68
5.62505	0.587
5.6616	0.382
5.69816	0.118
5.73472	0.009
5.77128	0.03
5.80784	0.212
5.8444	0.499
5.88096	0.588
5.91752	0.648
5.95408	0.618
5.99064	0.574
6.0272	0.662
6.06376	0.703
6.10032	0.718
6.13688	0.764
6.17344	0.784
6.21	0.79
6.24656	0.798
6.28311	0.801
6.31967	0.802
6.35623	0.798
6.39279	0.79
6.42935	0.78
6.46591	0.766
6.50247	0.759
6.53903	0.74
6.57559	0.73
6.61215	0.718
6.64871	0.709
6.68527	0.688
6.72183	0.612
6.75839	0.519
6.79495	0.367
6.83151	0.236
6.86807	0.161
6.90462	0.165
6.94118	0.18
6.97774	0.254
7.0143	0.38
7.05086	0.495
7.08742	0.529
7.12398	0.51
7.16054	0.378
7.1971	0.213
7.23366	0.098
7.27022	0.094
7.30678	0.08
7.34334	0.209
7.3799	0.458
7.41646	0.584
7.45302	0.629
7.48958	0.642
7.52613	0.648
7.56269	0.649
7.59925	0.628
7.63581	0.591
7.67237	0.575
7.70893	0.549
7.74549	0.47
7.78205	0.362
7.81861	0.229
7.85517	0.169
7.89173	0.142
7.92829	0.097
7.96485	0.039
8.00141	0.002
8.03797	0.002
8.07453	0.002
8.11109	0.002
8.14764	0.002
8.1842	0.003
8.22076	0.08
8.25732	0.2
8.29388	0.309
8.33044	0.409
8.367	0.501
8.40356	0.571
8.44012	0.607
8.47668	0.637
8.51324	0.677
8.5498	0.704
8.58636	0.721
8.62292	0.721
8.65948	0.712
8.69604	0.706
8.7326	0.71
8.76915	0.728
8.80571	0.738
8.84227	0.729
8.87883	0.713
8.91539	0.661
8.95195	0.619
8.98851	0.579
9.02507	0.549
9.06163	0.556
9.09819	0.568
9.13475	0.587
9.17131	0.592
9.20787	0.59
9.24443	0.596
9.28099	0.593
9.31755	0.562
9.35411	0.51
9.39066	0.429
9.42722	0.329
9.46378	0.259
9.50034	0.223
9.5369	0.232
9.57346	0.235
9.61002	0.21
9.64658	0.169
9.68314	0.127
9.7197	0.098
9.75626	0.093
9.79282	0.095
9.82938	0.129
9.86594	0.2
9.9025	0.291
9.93906	0.373
9.97562	0.428
10.0122	0.475
10.0487	0.495
10.0853	0.494
10.1219	0.477
10.1584	0.448
10.195	0.439
10.2315	0.447
10.2681	0.449
10.3046	0.437
10.3412	0.42
10.3778	0.401
10.4143	0.369
10.4509	0.33
10.4874	0.319
10.524	0.351
10.5606	0.419
10.5971	0.499
10.6337	0.57
10.6702	0.63
10.7068	0.662
10.7434	0.67
10.7799	0.668
10.8165	0.665
10.853	0.668
10.8896	0.669
10.9262	0.668
10.9627	0.663
10.9993	0.663
11.0358	0.67
11.0724	0.674
11.109	0.678
11.1455	0.68
11.1821	0.681
11.2186	0.671
11.2552	0.669
11.2918	0.671
11.3283	0.688
11.3649	0.704
11.4014	0.718
11.438	0.723
11.4746	0.727
11.5111	0.728
11.5477	0.729
11.5842	0.725
11.6208	0.718
11.6573	0.709
11.6939	0.694
11.7305	0.673
11.767	0.653
11.8036	0.64
11.8401	0.628
11.8767	0.616
11.9133	0.602
11.9498	0.591
11.9864	0.575
12.0229	0.557
12.0595	0.543
12.0961	0.541
12.1326	0.552
12.1692	0.579
12.2057	0.609
12.2423	0.638
12.2789	0.659
12.3154	0.678
12.352	0.688
12.3885	0.698
12.4251	0.702
12.4617	0.71
12.4982	0.719
12.5348	0.728
12.5713	0.737
12.6079	0.741
12.6445	0.747
12.681	0.75
12.7176	0.747
12.7541	0.741
12.7907	0.735
12.8272	0.726
12.8638	0.722
12.9004	0.722
12.9369	0.73
12.9735	0.737
13.01	0.753
13.0466	0.761
13.0832	0.778
13.1197	0.787
13.1563	0.791
13.1928	0.793
13.2294	0.793
13.266	0.79
13.3025	0.788
13.3391	0.777
13.3756	0.759
13.4122	0.747
13.4488	0.739
13.4853	0.735
13.5219	0.74
13.5584	0.756
13.595	0.765
13.6316	0.78
13.6681	0.791
13.7047	0.799
13.7412	0.808
13.7778	0.813
13.8144	0.816
13.8509	0.821
13.8875	0.823
13.924	0.823
13.9606	0.822
13.9972	0.819
14.0337	0.818
14.0703	0.816
14.1068	0.815
14.1434	0.812
14.1799	0.811
14.2165	0.809
14.2531	0.803
14.2896	0.802
14.3262	0.799
14.3627	0.795
14.3993	0.791
14.4359	0.789
14.4724	0.782
14.509	0.78
14.5455	0.774
14.5821	0.768
14.6187	0.762
14.6552	0.756
14.6918	0.751
14.7283	0.738
14.7649	0.731
14.8015	0.726
14.838	0.722
14.8746	0.718
14.9111	0.711
14.9477	0.701
14.9843	0.691
