Infrared Spectrum: l-Menthol acetate
Formula: C 12 H 22 O 2
CAS: 16409-45-3
State: gas
Instrument: HP-GC/MS/IRD
Origin: NIST Mass Spectrometry Data Center
1/CM	ABSORBANCE
550	0.0002451
562	5.16e-05
574	4.3e-06
586	0.000172
598	0.0003526
610	0.0009847
622	0.0004515
634	0.0004472
646	0.0005977
658	0.0003483
670	0.0002193
682	3.87e-05
694	7.31e-05
706	0.0001118
718	9.03e-05
730	4.3e-06
742	3.87e-05
754	6.88e-05
766	6.88e-05
778	6.45e-05
790	9.46e-05
802	0.0001935
814	0.0002494
826	0.0004085
838	0.0007009
850	0.0004687
862	0.0003526
874	0.0003784
886	0.0004816
898	0.0011653
910	0.0011524
922	0.0009589
934	0.0010019
946	0.0011696
958	0.002107
970	0.0030788
982	0.0035217
994	0.0037367
1006	0.0059039
1018	0.0091418
1030	0.0083764
1042	0.005418
1054	0.0028423
1066	0.0025843
1078	0.0032895
1090	0.0034701
1102	0.0025413
1114	0.0015566
1126	0.0011997
1138	0.0014964
1150	0.0019651
1162	0.0018619
1174	0.0025972
1186	0.0032809
1198	0.0036765
1210	0.0072455
1222	0.0175483
1234	0.0388892
1246	0.0345892
1258	0.0098943
1270	0.0043817
1282	0.0029928
1294	0.0022016
1306	0.0015824
1318	0.0012685
1330	0.0012513
1342	0.0017759
1354	0.0035475
1366	0.0081442
1378	0.0083119
1390	0.0046526
1402	0.002021
1414	0.0011997
1426	0.0011997
1438	0.0015566
1450	0.0029455
1462	0.0037496
1474	0.0024725
1486	0.0011481
1498	0.000688
1510	0.0005977
1522	0.000602
1534	0.0005375
1546	0.000516
1558	0.0005418
1570	0.0004558
1582	0.0003655
1594	0.0003096
1606	0.0002666
1618	0.0003268
1630	0.0003354
1642	0.0003655
1654	0.0004343
1666	0.0004902
1678	0.0006192
1690	0.0009073
1702	0.0015093
1714	0.00215
1726	0.0031734
1738	0.0091547
1750	0.0218698
1762	0.012943
1774	0.0045752
1786	0.0027305
1798	0.0016856
1810	0.0009718
1822	0.0006493
1834	0.0004386
1846	0.0003655
1858	0.0002752
1870	0.0002193
1882	0.0001419
1894	0.0001376
1906	0.0001247
1918	0.0001634
1930	0.0001333
1942	9.89e-05
1954	6.02e-05
1966	4.73e-05
1978	2.58e-05
1990	3.44e-05
2002	4.3e-06
2014	2.15e-05
2026	1.29e-05
2038	2.58e-05
2050	0
2062	5.16e-05
2074	6.88e-05
2086	6.02e-05
2098	4.3e-05
2110	6.45e-05
2122	8.6e-05
2134	0.0001204
2146	0.0001161
2158	6.45e-05
2170	6.02e-05
2182	1.72e-05
2194	1.72e-05
2206	3.01e-05
2218	2.58e-05
2230	2.15e-05
2242	3.01e-05
2254	5.16e-05
2266	5.59e-05
2278	3.44e-05
2290	3.44e-05
2302	5.16e-05
2314	3.87e-05
2326	4.73e-05
2338	7.31e-05
2350	4.3e-05
2362	8.6e-05
2374	5.59e-05
2386	3.44e-05
2398	3.87e-05
2410	3.87e-05
2422	5.59e-05
2434	6.45e-05
2446	6.45e-05
2458	0.0001032
2470	0.0001032
2482	6.45e-05
2494	3.44e-05
2506	2.15e-05
2518	1.72e-05
2530	1.29e-05
2542	2.15e-05
2554	6.88e-05
2566	5.59e-05
2578	7.31e-05
2590	0.0001161
2602	0.0001462
2614	0.0001849
2626	0.0001978
2638	0.0002064
2650	0.000215
2662	0.0002322
2674	0.000215
2686	0.0002451
2698	0.0002881
2710	0.0002838
2722	0.0003698
2734	0.0004343
2746	0.0004257
2758	0.0003311
2770	0.0003268
2782	0.0004214
2794	0.0005203
2806	0.0006235
2818	0.000817
2830	0.0010449
2842	0.0016813
2854	0.0045279
2866	0.0069058
2878	0.0102297
2890	0.0082259
2902	0.0075551
2914	0.0103931
2926	0.016555
2938	0.0184857
2950	0.0169162
2962	0.0227212
2974	0.0134332
2986	0.0044677
2998	0.0020167
3010	0.00129
3022	0.0010406
3034	0.0009288
3046	0.0007568
3058	0.0006493
3070	0.0005891
3082	0.0005504
3094	0.0005203
3106	0.0004085
3118	0.0003569
3130	0.0003483
3142	0.0003053
3154	0.0003096
3166	0.0002881
3178	0.0003053
3190	0.0002279
3202	0.0002021
3214	0.0001419
3226	0.0001118
3238	9.46e-05
3250	6.45e-05
3262	7.74e-05
3274	3.87e-05
3286	3.44e-05
3298	4.3e-05
3310	5.59e-05
3322	3.01e-05
3334	4.73e-05
3346	8.17e-05
3358	6.45e-05
3370	8.17e-05
3382	9.46e-05
3394	3.87e-05
3406	5.59e-05
3418	3.87e-05
3430	9.03e-05
3442	8.17e-05
3454	9.03e-05
3466	0.0001376
3478	0.0002537
3490	0.0002752
3502	0.0001677
3514	0.0001376
3526	0.0001075
3538	3.44e-05
3550	9.03e-05
3562	9.89e-05
3574	3.87e-05
3586	5.59e-05
3598	6.02e-05
3610	3.01e-05
3622	6.02e-05
3634	3.87e-05
3646	9.03e-05
3658	5.59e-05
3670	6.45e-05
3682	9.89e-05
3694	5.59e-05
3706	6.02e-05
3718	8.6e-05
3730	3.44e-05
3742	7.31e-05
3754	7.74e-05
3766	0.0001333
3778	6.02e-05
3790	0.0001118
3802	0.0001462
3814	0.0001419
3826	0.0001505
3838	0.0001892
