Infrared Spectrum: Thiophene-3-carbonitrile
Formula: C 5 H 3 N S
CAS: 1641-09-4
State: gas
Origin: EPA-IR VAPOR PHASE LIBRARY
1/CM	ABSORBANCE
549.9	0.0005407
559.547	0.0007526
569.193	0.0007297
578.84	0.0009055
588.486	0.0011245
598.133	0.0024645
607.779	0.0043245
617.426	0.0058345
627.072	0.0056945
636.719	0.0055945
646.365	0.0037245
656.012	0.0020345
665.658	0.0018845
675.305	0.0028045
684.951	0.0033845
694.598	0.0045245
704.245	0.0035645
713.891	0.0024345
723.538	0.0014245
733.184	0.0010647
742.831	0.0010945
752.477	0.0020445
762.124	0.0053345
771.77	0.0111645
781.417	0.0147445
791.063	0.0245745
800.71	0.0143445
810.356	0.0091945
820.003	0.0047945
829.649	0.0028745
839.296	0.0025745
848.943	0.0029845
858.589	0.0061545
868.236	0.0082145
877.882	0.0080645
887.529	0.0024445
897.175	0.0009535
906.822	0.000922
916.468	0.0021445
926.115	0.0030345
935.761	0.0031145
945.408	0.0011545
955.054	0.0005242
964.701	0.0004239
974.347	0.0003596
983.994	0.0002979
993.64	0.0003015
1003.29	0.0004073
1012.93	0.0003369
1022.58	0.0003072
1032.23	0.0003063
1041.87	0.0002928
1051.52	0.0004247
1061.17	0.0005209
1070.81	0.0009948
1080.46	0.0011645
1090.11	0.0012345
1099.75	0.0009046
1109.4	0.0004222
1119.05	0.0003646
1128.69	0.0006948
1138.34	0.0010822
1147.99	0.0016445
1157.63	0.0015045
1167.28	0.000895
1176.92	0.0005279
1186.57	0.0004648
1196.22	0
1205.86	0.0003724
1215.51	0.0011545
1225.16	0.0014445
1234.8	0.000912
1244.45	0.0009523
1254.1	0.0004207
1263.74	0.0004597
1273.39	0.0007217
1283.04	0.0004202
1292.68	0.0005348
1302.33	0.0005731
1311.98	0.0005903
1321.62	0.0006368
1331.27	0.0004997
1340.92	0.0006765
1350.56	0.0012045
1360.21	0.0022145
1369.86	0.0025245
1379.5	0.0023245
1389.15	0.0018945
1398.79	0.0028045
1408.44	0.0030445
1418.09	0.0026145
1427.73	0.0008544
1437.38	0.0005721
1447.03	0.000674
1456.67	0.0009958
1466.32	0.0016745
1475.97	0.0016545
1485.61	0.0019645
1495.26	0.0012945
1504.91	0.000884
1514.55	0.0008213
1524.2	0.0006888
1533.85	0.0005284
1543.49	0.0004111
1553.14	0.0009123
1562.79	0.0021045
1572.43	0.0023445
1582.08	0.0019445
1591.73	0.0006749
1601.37	0.0004981
1611.02	0.0003625
1620.67	0.0003209
1630.31	0.0003288
1639.96	0.0003395
1649.6	0.000344
1659.25	0.0005459
1668.9	0.0005986
1678.54	0.0006451
1688.19	0.0005258
1697.84	0.0009285
1707.48	0.0020545
1717.13	0.0018745
1726.78	0.0013445
1736.42	0.0006331
1746.07	0.000782
1755.72	0.0008171
1765.36	0.0007947
1775.01	0.0005993
1784.66	0.000426
1794.3	0.000283
1803.95	0.0003136
1813.6	0.0002681
1823.24	0.0002676
1832.89	0.0002794
1842.54	0.0002604
1852.18	0.0002995
1861.83	0.0002476
1871.47	0.0002687
1881.12	0.0002828
1890.77	0.0002874
1900.41	0.0002967
1910.06	0.0002828
1919.71	0.0002763
1929.35	0.0002057
1939	0.0002288
1948.65	0.0002235
1958.29	0.0002743
1967.94	0.0003216
1977.59	0.000228
1987.23	0.0002317
1996.88	0.0002956
2006.53	0.000321
2016.17	0.0003585
2025.82	0.0003975
2035.47	0.0003685
2045.11	0.0003543
2054.76	0.0003446
2064.41	0.0003561
2074.05	0.0003173
2083.7	0.0003051
2093.35	0.000336
2102.99	0.0003574
2112.64	0.0002265
2122.28	0.0002591
2131.93	0.0003178
2141.58	0.0002914
2151.22	0.0003352
2160.87	0.0003906
2170.52	0.0003929
2180.16	0.0004118
2189.81	0.0004011
2199.46	0.0004217
2209.1	0.0007209
2218.75	0.0020345
2228.4	0.0043245
2238.04	0.0052445
2247.69	0.0040645
2257.34	0.0010009
2266.98	0.0004344
2276.63	0.0004476
2286.28	0.0004426
2295.92	0.0004663
2305.57	0.0004592
2315.22	0.0004443
2324.86	0.0003555
2334.51	0.000264
2344.16	0.0002934
2353.8	0.0002525
2363.45	0.0002419
2373.09	0.0002945
2382.74	0.0004584
2392.39	0.0004228
2402.03	0.0003168
2411.68	0.0003081
2421.33	0.0003182
2430.97	0.0003582
2440.62	0.0004387
2450.27	0.0004422
2459.91	0.0003979
2469.56	0.0002827
2479.21	0.0002731
2488.85	0.0001868
2498.5	0.0002642
2508.15	0.000277
2517.79	0.0002957
2527.44	0.0002247
2537.09	0.0002588
2546.73	0.0002847
2556.38	0.0002712
2566.03	0.0002473
2575.67	0.0002165
2585.32	0.0002742
2594.96	0.000253
2604.61	0.0003136
2614.26	0.0002687
2623.9	0.0002616
2633.55	0.0002395
2643.2	0.0003612
2652.84	0.0003601
2662.49	0.0003454
2672.14	0.0004123
2681.78	0.0004108
2691.43	0.0003579
2701.08	0.0004933
2710.72	0.0005637
2720.37	0.0006635
2730.02	0.0005877
2739.66	0.0005076
2749.31	0.0005695
2758.96	0.0005036
2768.6	0.0004191
2778.25	0.0004826
2787.9	0.0005024
2797.54	0.000516
2807.19	0.0005041
2816.84	0.0003714
2826.48	0.0003562
2836.13	0.000399
2845.77	0.0002878
2855.42	0.0003994
2865.07	0.0003188
2874.71	0.0004651
2884.36	0.0004233
2894.01	0.0004097
2903.65	0.00012064
2913.3	0.00034
2922.95	0.0003532
2932.59	0.0003254
2942.24	0.000229
2951.89	0.0002957
2961.53	0.0001848
2971.18	0.0004469
2980.83	0.0003424
2990.47	0.0002066
3000.12	0.00016538
3009.77	0.0002794
3019.41	0.00028
3029.06	0.0003767
3038.71	0.0002875
3048.35	0.00017064
3058	0.00028
3067.64	0.0002751
3077.29	0.000428
3086.94	0.0005912
3096.58	0.0006075
3106.23	0.0010342
3115.88	0.0014645
3125.52	0.0013645
3135.17	0.0013745
3144.82	0.0008359
3154.46	0.0005403
3164.11	0.0004844
3173.76	0.0003378
3183.4	0.000222
3193.05	0.0003561
3202.7	0.0002411
3212.34	0.0003977
3221.99	0.000196
3231.64	0.0002664
3241.28	0.0004304
3250.93	0.0003326
3260.58	0.0002898
3270.22	0.00012241
3279.87	0.0003264
3289.52	0.0002485
3299.16	0.0002336
3308.81	0.0005074
3318.45	0.0005084
3328.1	0.00011198
3337.75	0.0002338
3347.39	0.00012871
3357.04	0.0002899
3366.69	0.0003401
3376.33	0.0003746
3385.98	0.0003306
3395.63	0.0002917
3405.27	0.0003771
3414.92	0.0004385
3424.57	0.0002223
3434.21	0.0004841
3443.86	0.0002595
3453.51	0.0002664
3463.15	0.0004097
3472.8	0.0003807
3482.45	0.0003791
3492.09	0.0002518
3501.74	0.0003322
3511.39	0.0004258
3521.03	0.000238
3530.68	0.00018145
3540.33	0.000282
3549.97	0.0002572
3559.62	0.0004496
3569.26	0.0003894
3578.91	0.0004323
3588.56	0.0004933
3598.2	0.0003304
3607.85	0.0004547
3617.5	0.0003767
3627.14	0.0004275
3636.79	0.0005142
3646.44	0.0004418
3656.08	0.000529
3665.73	0.0002087
3675.38	0.0004485
3685.02	0.0003315
3694.67	0.0002381
3704.32	0.0004594
3713.96	0.0002724
3723.61	0.0004269
3733.26	0.0006096
3742.9	0.0003969
3752.55	0.0004588
3762.2	0.0005858
3771.84	0.0003843
3781.49	0.0004643
3791.13	0.0004002
3800.78	0.0002319
3810.43	0.0003713
3820.07	0.0003776
3829.72	0.0002969
3839.37	0.00015042
3849.01	0.0002613
3858.66	0.0004545
3868.31	0.0003742
3877.95	0.000325
3887.6	0.000272
3897.25	0.0003186
3906.89	0.00017044
3916.54	0.0003465
3926.19	0.0003045
3935.83	0.0002627
3945.48	0.0003338
3955.13	0.0003197
3964.77	0.0003534
3974.42	0.0002965
3984.07	0.000368
3993.71	0.0004633
