Infrared Spectrum: 3-(2-Chlorophenyl)propionic acid
Formula: C 9 H 9 Cl O 2
CAS: 1643-28-3
State: gas
Origin: EPA-IR VAPOR PHASE LIBRARY
1/CM	ABSORBANCE
549.8	0.02763
559.445	0.03421
569.09	0.04196
578.734	0.03148
588.379	0.02372
598.024	0.02167
607.669	0.02233
617.313	0.02366
626.958	0.02336
636.603	0.02114
646.248	0.01559
655.893	0.0122
665.537	0.0128
675.182	0.01684
684.827	0.018
694.472	0.01229
704.116	0.00927
713.761	0.00958
723.406	0.01172
733.051	0.02078
742.695	0.05148
752.34	0.05091
761.985	0.01953
771.63	0.00871
781.275	0.00813
790.919	0.00778
800.564	0.00831
810.209	0.00679
819.854	0.00467
829.498	0.0032
839.143	0.00253
848.788	0.00225
858.433	0.00233
868.078	0.00245
877.722	0.00299
887.367	0.003
897.012	0.00351
906.657	0.00411
916.301	0.00376
925.946	0.00443
935.591	0.0061
945.236	0.00719
954.88	0.00683
964.525	0.00602
974.17	0.00548
983.815	0.00589
993.46	0.00704
1003.1	0.00834
1012.75	0.01157
1022.39	0.017
1032.04	0.02868
1041.68	0.04129
1051.33	0.04765
1060.97	0.03562
1070.62	0.01884
1080.26	0.02144
1089.91	0.03107
1099.55	0.05275
1109.2	0.08796
1118.84	0.1108
1128.49	0.10122
1138.13	0.08248
1147.78	0.05415
1157.42	0.03537
1167.07	0.02881
1176.71	0.02884
1186.36	0.02981
1196	0.02891
1205.64	0.02419
1215.29	0.0189
1224.93	0.01606
1234.58	0.01444
1244.22	0.01393
1253.87	0.01437
1263.51	0.01517
1273.16	0.01459
1282.8	0.01397
1292.45	0.01365
1302.09	0.01237
1311.74	0.01127
1321.38	0.01114
1331.03	0.0117
1340.67	0.01258
1350.32	0.0145
1359.96	0.01801
1369.61	0.0229
1379.25	0.02708
1388.9	0.02326
1398.54	0.01526
1408.18	0.01136
1417.83	0.01231
1427.47	0.01665
1437.12	0.0237
1446.76	0.02603
1456.41	0.02121
1466.05	0.02215
1475.7	0.0289
1485.34	0.01969
1494.99	0.0088
1504.63	0.00454
1514.28	0.00282
1523.92	0.00205
1533.57	0.0018
1543.21	0.00188
1552.86	0.00249
1562.5	0.00405
1572.15	0.00593
1581.79	0.00557
1591.44	0.00528
1601.08	0.00453
1610.73	0.00283
1620.37	0.00195
1630.01	0.00174
1639.66	0.00168
1649.3	0.0016
1658.95	0.00181
1668.59	0.00236
1678.24	0.00324
1687.88	0.00409
1697.53	0.00493
1707.17	0.00686
1716.82	0.00985
1726.46	0.01519
1736.11	0.02472
1745.75	0.03967
1755.4	0.06166
1765.04	0.10504
1774.69	0.15778
1784.33	0.13692
1793.98	0.0826
1803.62	0.05035
1813.27	0.02865
1822.91	0.01581
1832.55	0.00931
1842.2	0.00589
1851.84	0.00408
1861.49	0.00321
1871.13	0.00282
1880.78	0.00265
1890.42	0.00259
1900.07	0.00315
1909.71	0.00363
1919.36	0.00283
1929	0.00244
1938.65	0.00293
1948.29	0.00253
1957.94	0.00151
1967.58	0.00127
1977.23	0.00112
1986.87	0.00106
1996.52	0.00101
2006.16	0.00106
2015.81	0.00104
2025.45	0.00103
2035.1	0.0009268
2044.74	0.0008181
2054.38	0.0007782
2064.03	0.0007035
2073.67	0.0008077
2083.32	0.0007697
2092.96	0.0007487
2102.61	0.0007242
2112.25	0.0007487
2121.9	0.0007339
2131.54	0.0008879
2141.19	0.0008925
2150.83	0.0008661
2160.48	0.0008756
2170.12	0.0009368
2179.77	0.0008634
2189.41	0.0009353
2199.06	0.0009416
2208.7	0.00101
2218.35	0.00109
2227.99	0.00114
2237.64	0.0012
2247.28	0.00118
2256.92	0.0009103
2266.57	0.00103
2276.21	0.0009529
2285.86	0.0009702
2295.5	0.0009219
2305.15	0.0007816
2314.79	0.00104
2324.44	0.00102
2334.08	0.0008193
2343.73	0.000775
2353.37	0.000855
2363.02	0.0007925
2372.66	0.0008202
2382.31	0.0009393
2391.95	0.0007686
2401.6	0.0008486
2411.24	0.000846
2420.89	0.0008441
2430.53	0.0009194
2440.18	0.000921
2449.82	0.0008109
2459.47	0.0008676
2469.11	0.0007036
2478.75	0.0007066
2488.4	0.000654
2498.04	0.0007233
2507.69	0.0006219
2517.33	0.0005991
2526.98	0.0006456
2536.62	0.0006725
2546.27	0.0006802
2555.91	0.0007407
2565.56	0.0007136
2575.2	0.0006711
2584.85	0.0006303
2594.49	0.0007738
2604.14	0.0007461
2613.78	0.0006008
2623.43	0.0006175
2633.07	0.0007213
2642.72	0.0006018
2652.36	0.0005704
2662.01	0.0005872
2671.65	0.0005107
2681.29	0.0006016
2690.94	0.0006497
2700.58	0.0006048
2710.23	0.0005042
2719.87	0.000575
2729.52	0.0004598
2739.16	0.0005835
2748.81	0.0005115
2758.45	0.0004774
2768.1	0.0004855
2777.74	0.0005317
2787.39	0.0004814
2797.03	0.0005642
2806.68	0.000579
2816.32	0.0005553
2825.97	0.0009336
2835.61	0.0008735
2845.26	0.00145
2854.9	0.00169
2864.55	0.00212
2874.19	0.00296
2883.84	0.00312
2893.48	0.00299
2903.12	0.00298
2912.77	0.00392
2922.41	0.00604
2932.06	0.00891
2941.7	0.01109
2951.35	0.0119
2960.99	0.0094
2970.64	0.00772
2980.28	0.00681
2989.93	0.00575
2999.57	0.00459
3009.22	0.0048
3018.86	0.00666
3028.51	0.00676
3038.15	0.00466
3047.8	0.00478
3057.44	0.0085
3067.09	0.01678
3076.73	0.01884
3086.38	0.0113
3096.02	0.00509
3105.67	0.00226
3115.31	0.00129
3124.95	0.00109
3134.6	0.00118
3144.24	0.00109
3153.89	0.0008073
3163.53	0.0007459
3173.18	0.0005273
3182.82	0.0005809
3192.47	0.0004883
3202.11	0.0004498
3211.76	0.0003856
3221.4	0.0003219
3231.05	0.0003137
3240.69	0.0002981
3250.34	0.0001506
3259.98	0.0003114
3269.63	0.0001814
3279.27	0.0002809
3288.92	0.0003764
3298.56	0.0003461
3308.21	0.0003398
3317.85	0.0002848
3327.49	0.0004848
3337.14	0.0002481
3346.78	0.0003124
3356.43	0.0001895
3366.07	0.0004555
3375.72	0.0002652
3385.36	0.000335
3395.01	0.0005113
3404.65	0.0005088
3414.3	0.0004284
3423.94	0.0005301
3433.59	0.00041
3443.23	0.0001654
3452.88	0.0005708
3462.52	0.0004536
3472.17	0.000647
3481.81	0.0007423
3491.46	0.0009028
3501.1	0.00111
3510.75	0.00182
3520.39	0.00193
3530.04	0.00303
3539.68	0.00402
3549.32	0.00536
3558.97	0.01133
3568.61	0.05353
3578.26	0.06689
3587.9	0.01568
3597.55	0.00531
3607.19	0.00329
3616.84	0.00225
3626.48	0.00175
3636.13	0.00131
3645.77	0.0009607
3655.42	0.0009744
3665.06	0.0006493
3674.71	0.0004298
3684.35	0.0006333
3694	0.000623
3703.64	0.0006084
3713.29	0.0007608
3722.93	0.0006725
3732.58	0.0005774
3742.22	0.0005705
3751.86	0.0002831
3761.51	0.0004551
3771.15	0.0005549
3780.8	0.0005429
3790.44	0.0003746
3800.09	0.0002301
3809.73	0.0005308
3819.38	0.0003626
3829.02	0.0003783
3838.67	0.0004615
3848.31	0.0005156
3857.96	0.0005581
3867.6	0.0005228
3877.25	0.0004085
3886.89	0.0003936
3896.54	0.0005508
3906.18	0.0003419
3915.83	0.0001744
3925.47	0.0003255
3935.12	0.0002349
3944.76	0.0005959
3954.41	0.0006105
3964.05	0.0005171
3973.69	0.0004234
3983.34	0.0004285
3992.98	0.0003547
