Infrared Spectrum: 4-BROMO-2-PHENYL PHENOL
Formula: C12 H9 Br O
CAS: 16434-97-2
State: SOLUTION (10% CCl4 FOR 2.5-7.5, 10% CS2 FOR 7.5-16 MICRON)
Class: COBLENTZ
Instrument: Not specified, most likely a prism, grating, or hybrid spectrometer.
Sampling: TRANSMISSION
Path length: 0.01 CM, 0.01 CM
Resolution: 4
Origin: DOW CHEMICAL COMPANY
MICROMETERS	TRANSMITTANCE
2.079	0.9
2.11932	0.9
2.15965	0.9
2.19997	0.901
2.24029	0.9
2.28061	0.901
2.32094	0.9
2.36126	0.905
2.40158	0.903
2.44191	0.89
2.48223	0.893
2.52255	0.895
2.56288	0.892
2.6032	0.903
2.64352	0.911
2.68384	0.908
2.72417	0.901
2.76449	0.827
2.80481	0.644
2.84514	0.5
2.88546	0.792
2.92578	0.799
2.96611	0.862
3.00643	0.882
3.04675	0.888
3.08707	0.895
3.1274	0.895
3.16772	0.895
3.20804	0.86
3.24837	0.803
3.28869	0.772
3.32901	0.843
3.36934	0.91
3.40966	0.918
3.44998	0.918
3.4903	0.915
3.53063	0.923
3.57095	0.92
3.61127	0.92
3.6516	0.918
3.69192	0.921
3.73224	0.92
3.77256	0.92
3.81289	0.92
3.85321	0.92
3.89353	0.915
3.93386	0.92
3.97418	0.915
4.0145	0.913
4.05483	0.915
4.09515	0.913
4.13547	0.915
4.17579	0.915
4.21612	0.916
4.25644	0.915
4.29676	0.911
4.33709	0.9
4.37741	0.903
4.41773	0.916
4.45806	0.918
4.49838	0.923
4.5387	0.928
4.57902	0.93
4.61935	0.935
4.65967	0.935
4.69999	0.935
4.74032	0.933
4.78064	0.931
4.82096	0.926
4.86129	0.923
4.90161	0.925
4.94193	0.921
4.98225	0.916
5.02258	0.913
5.0629	0.901
5.10322	0.888
5.14355	0.906
5.18387	0.923
5.22419	0.913
5.26451	0.897
5.30484	0.868
5.34516	0.877
5.38548	0.908
5.42581	0.908
5.46613	0.906
5.50645	0.883
5.54678	0.91
5.5871	0.921
5.62742	0.903
5.66774	0.875
5.70807	0.875
5.74839	0.918
5.78871	0.93
5.82904	0.931
5.86936	0.923
5.90968	0.913
5.95001	0.915
5.99033	0.92
6.03065	0.908
6.07097	0.89
6.1113	0.877
6.15162	0.862
6.19194	0.789
6.23227	0.7
6.27259	0.647
6.31291	0.573
6.35324	0.538
6.39356	0.531
6.43388	0.503
6.4742	0.498
6.51453	0.574
6.55485	0.626
6.59517	0.651
6.6355	0.621
6.67582	0.563
6.71614	0.416
6.75646	0.093
6.79679	0.299
6.83711	0.568
6.87743	0.495
6.91776	0.571
6.95808	0.833
6.9984	0.842
7.03873	0.808
7.07905	0.702
7.11937	0.687
7.15969	0.697
7.20002	0.823
7.24034	0.867
7.28066	0.88
7.32099	0.882
7.36131	0.882
7.40163	0.832
7.44196	0.767
7.48228	0.538
7.5226	0.383
7.56292	0.541
7.60325	0.725
7.64357	0.775
7.68389	0.792
7.72422	0.757
7.76454	0.681
7.80486	0.652
7.84519	0.669
7.88551	0.478
7.92583	0.196
7.96615	0.32
8.00648	0.539
8.0468	0.397
8.08712	0.191
8.12745	0.277
8.16777	0.491
8.20809	0.578
8.24841	0.553
8.28874	0.556
8.32906	0.632
8.36938	0.593
8.40971	0.451
8.45003	0.31
8.49035	0.187
8.53068	0.181
8.571	0.152
8.61132	0.24
8.65164	0.456
8.69197	0.598
8.73229	0.684
8.77261	0.722
8.81294	0.754
8.85326	0.759
8.89358	0.687
8.93391	0.602
8.97423	0.624
9.01455	0.725
9.05487	0.769
9.0952	0.799
9.13552	0.82
9.17584	0.82
9.21617	0.79
9.25649	0.699
9.29681	0.667
9.33714	0.727
9.37746	0.813
9.41778	0.843
9.4581	0.85
9.49843	0.85
9.53875	0.852
9.57907	0.749
9.6194	0.667
9.65972	0.779
9.70004	0.843
9.74036	0.848
9.78069	0.817
9.82101	0.742
9.86133	0.732
9.90166	0.837
9.94198	0.863
9.9823	0.863
10.0226	0.852
10.0629	0.873
10.1033	0.88
10.1436	0.877
10.1839	0.873
10.2242	0.877
10.2646	0.878
10.3049	0.878
10.3452	0.88
10.3855	0.882
10.4259	0.883
10.4662	0.883
10.5065	0.89
10.5468	0.89
10.5871	0.888
10.6275	0.87
10.6678	0.853
10.7081	0.862
10.7484	0.873
10.7888	0.873
10.8291	0.855
10.8694	0.832
10.9097	0.823
10.9501	0.855
10.9904	0.868
11.0307	0.875
11.071	0.875
11.1113	0.872
11.1517	0.86
11.192	0.837
11.2323	0.799
11.2726	0.709
11.313	0.529
11.3533	0.433
11.3936	0.493
11.4339	0.679
11.4743	0.722
11.5146	0.732
11.5549	0.73
11.5952	0.724
11.6355	0.712
11.6759	0.699
11.7162	0.692
11.7565	0.692
11.7968	0.692
11.8372	0.702
11.8775	0.702
11.9178	0.727
11.9581	0.757
11.9985	0.782
12.0388	0.774
12.0791	0.747
12.1194	0.691
12.1597	0.554
12.2001	0.365
12.2404	0.171
12.2807	0.196
12.321	0.451
12.3614	0.563
12.4017	0.581
12.442	0.583
12.4823	0.651
12.5226	0.749
12.563	0.784
12.6033	0.797
12.6436	0.803
12.6839	0.805
12.7243	0.805
12.7646	0.803
12.8049	0.799
12.8452	0.78
12.8856	0.744
12.9259	0.662
12.9662	0.495
13.0065	0.34
13.0468	0.33
13.0872	0.563
13.1275	0.666
13.1678	0.71
13.2081	0.729
13.2485	0.73
13.2888	0.724
13.3291	0.714
13.3694	0.714
13.4098	0.71
13.4501	0.672
13.4904	0.563
13.5307	0.413
13.571	0.323
13.6114	0.425
13.6517	0.561
13.692	0.616
13.7323	0.627
13.7727	0.583
13.813	0.526
13.8533	0.451
13.8936	0.433
13.934	0.48
13.9743	0.551
14.0146	0.568
14.0549	0.568
14.0952	0.498
14.1356	0.395
14.1759	0.245
14.2162	0.149
14.2565	0.142
14.2969	0.197
14.3372	0.28
14.3775	0.365
14.4178	0.453
14.4582	0.529
14.4985	0.578
14.5388	0.614
14.5791	0.627
14.6194	0.632
14.6598	0.636
14.7001	0.632
14.7404	0.629
14.7807	0.626
14.8211	0.619
14.8614	0.616
14.9017	0.606
14.942	0.598
14.9824	0.598
15.0227	0.598
15.063	0.598
15.1033	0.589
15.1436	0.581
15.184	0.571
15.2243	0.566
15.2646	0.559
15.3049	0.549
15.3453	0.543
15.3856	0.538
15.4259	0.538
15.4662	0.529
15.5065	0.524
15.5469	0.521
15.5872	0.518
15.6275	0.514
15.6678	0.508
15.7082	0.501
15.7485	0.49
15.7888	0.476
15.8291	0.456
15.8695	0.441
15.9098	0.441
