Infrared Spectrum: 2,7-Dibromofluorene
Formula: C 13 H 8 Br 2
CAS: 16433-88-8
State: gas
Origin: EPA-IR VAPOR PHASE LIBRARY
1/CM	ABSORBANCE
549.8	0.000496
559.445	0.0007006
569.09	0.0009218
578.734	0.0013547
588.379	0.000183
598.024	0.000879
607.669	0.0009361
617.313	0.000643
626.958	0.0008357
636.603	0.0010631
646.248	0.000538
655.893	0.0012336
665.537	0.002433
675.182	0.0014337
684.827	0.0010757
694.472	0.0009219
704.116	0.0011089
713.761	0.0010312
723.406	0.0010468
733.051	0.00084852
742.695	0.0010268
752.34	0.00086775
761.985	0.000647
771.63	0.001144
781.275	0.0012427
790.919	0.002313
800.564	0.006083
810.209	0.007503
819.854	0.003543
829.498	0.003743
839.143	0.002623
848.788	0.007493
858.433	0.003383
868.078	0.0016259
877.722	0.001221
887.367	0.0007127
897.012	0.0010938
906.657	0.0009365
916.301	0.0012596
925.946	0.0010014
935.591	0.0010514
945.236	0.00082996
954.88	0.001873
964.525	0.0011034
974.17	0.0007572
983.815	0.0009582
993.46	0.0010885
1003.1	0.004723
1012.75	0.001717
1022.39	0.001486
1032.04	0.0014641
1041.68	0.0013141
1051.33	0.003303
1060.97	0.008013
1070.62	0.002073
1080.26	0.002283
1089.91	0.0010292
1099.55	0.0011312
1109.2	0.000537
1118.84	0.00076831
1128.49	0.0010822
1138.13	0.0013022
1147.78	0.001973
1157.42	0.003243
1167.07	0.003633
1176.71	0.002003
1186.36	0.0011216
1196	0.00083828
1205.64	0.000778937
1215.29	0.002203
1224.93	0.0008869
1234.58	0.0012502
1244.22	0.002003
1253.87	0.002133
1263.51	0.002993
1273.16	0.004003
1282.8	0.0012698
1292.45	0.0013887
1302.09	0.0008442
1311.74	0.0009691
1321.38	0.0010215
1331.03	0.0009731
1340.67	0.0009216
1350.32	0.0010543
1359.96	0.001051
1369.61	0.001364
1379.25	0.0016034
1388.9	0.002003
1398.54	0.002683
1408.18	0.004203
1417.83	0.005713
1427.47	0.004473
1437.12	0.003583
1446.76	0.004293
1456.41	0.013183
1466.05	0.002903
1475.7	0.0013914
1485.34	0.0011207
1494.99	0.0010014
1504.63	0.001067
1514.28	0.0009711
1523.92	0.00082801
1533.57	0.0010154
1543.21	0.00082083
1552.86	0.0011461
1562.5	0.0015391
1572.15	0.002333
1581.79	0.001843
1591.44	0.002153
1601.08	0.002413
1610.73	0.001813
1620.37	0.0012295
1630.01	0.0010385
1639.66	0.0010728
1649.3	0.0011288
1658.95	0.0010221
1668.59	0.0009044
1678.24	0.00079353
1687.88	0.00078496
1697.53	0.0010697
1707.17	0.0010703
1716.82	0.0008242
1726.46	0.0011296
1736.11	0.0010183
1745.75	0.0012401
1755.4	0.0010774
1765.04	0.0010812
1774.69	0.0010448
1784.33	0.0010097
1793.98	0.0010385
1803.62	0.0009438
1813.27	0.0009667
1822.91	0.00085106
1832.55	0.00080936
1842.2	0.0010239
1851.84	0.0010011
1861.49	0.0010891
1871.13	0.0012524
1880.78	0.0012163
1890.42	0.0010724
1900.07	0.0010606
1909.71	0.0010005
1919.36	0.0009004
1929	0.0009006
1938.65	0.0009078
1948.29	0.0008815
1957.94	0.00078848
1967.58	0.00078448
1977.23	0.00079389
1986.87	0.00082725
1996.52	0.0008749
2006.16	0.000943
2015.81	0.0008823
2025.45	0.0007397
2035.1	0.00085679
2044.74	0.0008975
2054.38	0.00083666
2064.03	0.0008856
2073.67	0.00097
2083.32	0.00082103
2092.96	0.0009414
2102.61	0.000846
2112.25	0.0010031
2121.9	0.00085679
2131.54	0.00086038
2141.19	0.000975
2150.83	0.00080493
2160.48	0.00080939
2170.12	0.0010088
2179.77	0.0010705
2189.41	0.0011825
2199.06	0.00082164
2208.7	0.00084987
2218.35	0.0009038
2227.99	0.0009326
2237.64	0.0008899
2247.28	0.0010527
2256.92	0.0010664
2266.57	0.0009289
2276.21	0.0010553
2285.86	0.0009684
2295.5	0.0009804
2305.15	0.0008366
2314.79	0.00087163
2324.44	0.0009332
2334.08	0.0010224
2343.73	0.0009368
2353.37	0.0009187
2363.02	0.0008987
2372.66	0.0010587
2382.31	0.0009034
2391.95	0.0009368
2401.6	0.00082278
2411.24	0.0008912
2420.89	0.0010239
2430.53	0.0011163
2440.18	0.00082373
2449.82	0.0009758
2459.47	0.0008784
2469.11	0.0009298
2478.75	0.0009118
2488.4	0.0009787
2498.04	0.0009844
2507.69	0.000982
2517.33	0.0010302
2526.98	0.00081561
2536.62	0.0009498
2546.27	0.0009147
2555.91	0.0010685
2565.56	0.000961
2575.2	0.0009677
2584.85	0.0011501
2594.49	0.0011319
2604.14	0.0010168
2613.78	0.0009169
2623.43	0.0010533
2633.07	0.0010638
2642.72	0.00084656
2652.36	0.0010132
2662.01	0.0009191
2671.65	0.00086927
2681.29	0.0011972
2690.94	0.00080275
2700.58	0.001024
2710.23	0.0008993
2719.87	0.00086225
2729.52	0.0010668
2739.16	0.0010023
2748.81	0.0011663
2758.45	0.0010359
2768.1	0.0009804
2777.74	0.0010259
2787.39	0.0012018
2797.03	0.0010644
2806.68	0.0014839
2816.32	0.0012812
2825.97	0.0009018
2835.61	0.001085
2845.26	0.0009456
2854.9	0.0009934
2864.55	0.0011519
2874.19	0.0011255
2883.84	0.0010449
2893.48	0.0012404
2903.12	0.0014482
2912.77	0.001993
2922.41	0.001873
2932.06	0.0012569
2941.7	0.0010239
2951.35	0.0009985
2960.99	0.0010681
2970.64	0.0008171
2980.28	0.0010074
2989.93	0.0011646
2999.57	0.0008982
3009.22	0.0011581
3018.86	0.0010142
3028.51	0.0013963
3038.15	0.0017391
3047.8	0.0013951
3057.44	0.0012452
3067.09	0.001883
3076.73	0.002023
3086.38	0.001963
3096.02	0.0013357
3105.67	0.0013517
3115.31	0.0012434
3124.95	0.0009402
3134.6	0.0008796
3144.24	0.00087031
3153.89	0.0008899
3163.53	0.0011162
3173.18	0.0012164
3182.82	0.0008874
3192.47	0.00086288
3202.11	0.00085848
3211.76	0.0009745
3221.4	0.00085552
3231.05	0.00085349
3240.69	0.001061
3250.34	0.000642
3259.98	0.0009605
3269.63	0.0010127
3279.27	0.0009478
3288.92	0.0011497
3298.56	0.00084045
3308.21	0.00078512
3317.85	0.00082896
3327.49	0.0010503
3337.14	0.0008834
3346.78	0.0011099
3356.43	0.0007317
3366.07	0.0010101
3375.72	0.00083832
3385.36	0.00085413
3395.01	0.0009182
3404.65	0.0010736
3414.3	0.0011607
3423.94	0.0010053
3433.59	0.0010034
3443.23	0.0011159
3452.88	0.0011284
3462.52	0.0009191
3472.17	0.00082082
3481.81	0.0009488
3491.46	0.0011137
3501.1	0.00079871
3510.75	0.0010212
3520.39	0.0012589
3530.04	0.0009164
3539.68	0.0009615
3549.32	0.0009796
3558.97	0.0011801
3568.61	0.000944
3578.26	0.0010096
3587.9	0.000644
3597.55	0.0011083
3607.19	0.0008772
3616.84	0.001031
3626.48	0.0009286
3636.13	0.0009796
3645.77	0.0010607
3655.42	0.00085553
3665.06	0.00081876
3674.71	0.0011381
3684.35	0.00076881
3694	0.0011053
3703.64	0.0009165
3713.29	0.0011924
3722.93	0.00082803
3732.58	0.0011451
3742.22	0.000562
3751.86	0.0008869
3761.51	0.0007055
3771.15	0.0007356
3780.8	0.0009936
3790.44	0.0009263
3800.09	0.0009592
3809.73	0.000529
3819.38	0.00084925
3829.02	0.0009991
3838.67	0.0010799
3848.31	0.0007345
3857.96	0.0007657
3867.6	0.0009484
3877.25	0.0007943
3886.89	0.0007462
3896.54	0.0008299
3906.18	0.000544
3915.83	0.0006952
3925.47	0.000742
3935.12	0.0011717
3944.76	0.001069
3954.41	0.00105
3964.05	0.0010078
3973.69	0.0009087
3983.34	0.000671
3992.98	0.0010504
