Infrared Spectrum: 3-Methylphenoxyacetic acid
Formula: C 9 H 10 O 3
CAS: 1643-15-8
State: gas
Origin: EPA-IR VAPOR PHASE LIBRARY
1/CM	ABSORBANCE
549.9	0.03262
559.547	0.03558
569.193	0.03592
578.84	0.03567
588.486	0.03665
598.133	0.03901
607.779	0.04305
617.426	0.0465
627.072	0.04579
636.719	0.04108
646.365	0.03647
656.012	0.03283
665.658	0.0311
675.305	0.03435
684.951	0.04062
694.598	0.03203
704.245	0.01945
713.891	0.01403
723.538	0.01688
733.184	0.01888
742.831	0.01974
752.477	0.02441
762.124	0.03451
771.77	0.04439
781.417	0.03887
791.063	0.02123
800.71	0.01123
810.356	0.00864
820.003	0.00923
829.649	0.01219
839.296	0.01647
848.943	0.01955
858.589	0.01981
868.236	0.01841
877.882	0.01682
887.529	0.01505
897.175	0.01676
906.822	0.02341
916.468	0.02315
926.115	0.0172
935.761	0.01292
945.408	0.00973
955.054	0.00922
964.701	0.00997
974.347	0.01142
983.994	0.01353
993.64	0.01643
1003.29	0.01848
1012.93	0.02016
1022.58	0.0243
1032.23	0.03282
1041.87	0.04862
1051.52	0.0687
1061.17	0.08812
1070.81	0.10745
1080.46	0.11766
1090.11	0.09606
1099.75	0.06639
1109.4	0.08259
1119.05	0.12474
1128.69	0.12363
1138.34	0.11026
1147.99	0.14366
1157.63	0.17512
1167.28	0.14197
1176.92	0.0877
1186.57	0.05254
1196.22	0.04068
1205.86	0.03909
1215.51	0.04024
1225.16	0.04873
1234.8	0.07918
1244.45	0.11808
1254.1	0.12944
1263.74	0.11199
1273.39	0.093
1283.04	0.09506
1292.68	0.0886
1302.33	0.0626
1311.98	0.05479
1321.62	0.06065
1331.27	0.07147
1340.92	0.07397
1350.56	0.06667
1360.21	0.05761
1369.86	0.04709
1379.5	0.03703
1389.15	0.03165
1398.79	0.02803
1408.44	0.02433
1418.09	0.02505
1427.73	0.03376
1437.38	0.05009
1447.03	0.05909
1456.67	0.04366
1466.32	0.03167
1475.97	0.03988
1485.61	0.07563
1495.26	0.07619
1504.91	0.04419
1514.55	0.03454
1524.2	0.0252
1533.85	0.02223
1543.49	0.02026
1553.14	0.02056
1562.79	0.02643
1572.43	0.04241
1582.08	0.0745
1591.73	0.09489
1601.37	0.09037
1611.02	0.07729
1620.67	0.0453
1630.31	0.02056
1639.96	0.01148
1649.6	0.00868
1659.25	0.00765
1668.9	0.00752
1678.54	0.00767
1688.19	0.00808
1697.84	0.0089
1707.48	0.01052
1717.13	0.01335
1726.78	0.01795
1736.42	0.02564
1746.07	0.03649
1755.72	0.05193
1765.36	0.08139
1775.01	0.14036
1784.66	0.15773
1794.3	0.14282
1803.95	0.1856
1813.6	0.18084
1823.24	0.09893
1832.89	0.04579
1842.54	0.02782
1852.18	0.01872
1861.83	0.01325
1871.47	0.01015
1881.12	0.00837
1890.77	0.00737
1900.41	0.007
1910.06	0.0071
1919.71	0.00696
1929.35	0.0060685
1939	0.004863
1948.65	0.004351
1958.29	0.004375
1967.94	0.004379
1977.59	0.004263
1987.23	0.004247
1996.88	0.004265
2006.53	0.004246
2016.17	0.004113
2025.82	0.00403
2035.47	0.00398
2045.11	0.00399
2054.76	0.00406
2064.41	0.004143
2074.05	0.004123
2083.7	0.00398
2093.35	0.00373
2102.99	0.00366
2112.64	0.00369
2122.28	0.0038
2131.93	0.00394
2141.58	0.004129
2151.22	0.004303
2160.87	0.004353
2170.52	0.004346
2180.16	0.004318
2189.81	0.004297
2199.46	0.004226
2209.1	0.00409
2218.75	0.00399
2228.4	0.00396
2238.04	0.00398
2247.69	0.00386
2257.34	0.00366
2266.98	0.00342
2276.63	0.00334
2286.28	0.00341
2295.92	0.0035
2305.57	0.00361
2315.22	0.00383
2324.86	0.00396
2334.51	0.00396
2344.16	0.00387
2353.8	0.00386
2363.45	0.00383
2373.09	0.00368
2382.74	0.00352
2392.39	0.00352
2402.03	0.0036
2411.68	0.0036
2421.33	0.00352
2430.97	0.00345
2440.62	0.00338
2450.27	0.00324
2459.91	0.0032
2469.56	0.00312
2479.21	0.00316
2488.85	0.00317
2498.5	0.00312
2508.15	0.00309
2517.79	0.00308
2527.44	0.00307
2537.09	0.00315
2546.73	0.00308
2556.38	0.00286
2566.03	0.00261
2575.67	0.00246
2585.32	0.0024
2594.96	0.00229
2604.61	0.00223
2614.26	0.00208
2623.9	0.00201
2633.55	0.00195
2643.2	0.00189
2652.84	0.0019
2662.49	0.00183
2672.14	0.00186
2681.78	0.00187
2691.43	0.00196
2701.08	0.00208
2710.72	0.00201
2720.37	0.00208
2730.02	0.0023
2739.66	0.00279
2749.31	0.00284
2758.96	0.00233
2768.6	0.00212
2778.25	0.00215
2787.9	0.00213
2797.54	0.00226
2807.19	0.00237
2816.84	0.00289
2826.48	0.00364
2836.13	0.0050688
2845.77	0.00698
2855.42	0.00932
2865.07	0.01359
2874.71	0.01689
2884.36	0.01597
2894.01	0.01499
2903.65	0.01756
2913.3	0.02394
2922.95	0.0354
2932.59	0.044
2942.24	0.04044
2951.89	0.0306
2961.53	0.0231
2971.18	0.01818
2980.83	0.01428
2990.47	0.01317
3000.12	0.01358
3009.77	0.01427
3019.41	0.01631
3029.06	0.02271
3038.71	0.02772
3048.35	0.02821
3058	0.02618
3067.64	0.02328
3077.29	0.02014
3086.94	0.01457
3096.58	0.00919
3106.23	0.00652
3115.88	0.004109
3125.52	0.00224
3135.17	0.0013
3144.82	0.00057
3154.46	0.00028
3164.11	0.00014
3173.76	4e-05
3183.4	9e-05
3193.05	0
3202.7	6e-05
3212.34	0.00014
3221.99	0.00024
3231.64	0.00015
3241.28	0.00022
3250.93	0.00037
3260.58	0.00026
3270.22	0.00054
3279.87	0.00065
3289.52	0.00072
3299.16	0.00074
3308.81	0.00063
3318.45	0.00062
3328.1	0.00063
3337.75	0.00075
3347.39	0.00071
3357.04	0.00088
3366.69	0.00089
3376.33	0.00102
3385.98	0.00106
3395.63	0.00119
3405.27	0.00131
3414.92	0.00152
3424.57	0.00187
3434.21	0.00209
3443.86	0.0024
3453.51	0.00257
3463.15	0.00309
3472.8	0.00355
3482.45	0.00515421
3492.09	0.00795
3501.74	0.01272
3511.39	0.02166
3521.03	0.03518
3530.68	0.03354
3540.33	0.02244
3549.97	0.01887
3559.62	0.02636
3569.26	0.06444
3578.91	0.08021
3588.56	0.0354
3598.2	0.01302
3607.85	0.0078
3617.5	0.0057228
3627.14	0.004447
3636.79	0.0036
3646.44	0.0034
3656.08	0.00307
3665.73	0.00272
3675.38	0.0025
3685.02	0.00243
3694.67	0.0024
3704.32	0.00237
3713.96	0.00237
3723.61	0.00251
3733.26	0.00249
3742.9	0.0026
3752.55	0.00254
3762.2	0.0026
3771.84	0.00254
3781.49	0.00258
3791.13	0.00241
3800.78	0.00255
3810.43	0.00252
3820.07	0.00247
3829.72	0.00246
3839.37	0.00249
3849.01	0.00247
3858.66	0.00244
3868.31	0.00245
3877.95	0.00253
3887.6	0.00247
3897.25	0.00253
3906.89	0.00253
3916.54	0.00264
3926.19	0.00263
3935.83	0.00259
3945.48	0.00265
3955.13	0.00266
3964.77	0.00275
3974.42	0.00274
3984.07	0.00282
3993.71	0.00276
