Infrared Spectrum: 4-Isopropylphenoxyacetic acid
Formula: C 11 H 14 O 3
CAS: 1643-16-9
State: gas
Origin: EPA-IR VAPOR PHASE LIBRARY
1/CM	ABSORBANCE
549.8	0.028527
559.445	0.030547
569.09	0.030407
578.735	0.029437
588.38	0.028387
598.025	0.030577
607.67	0.034987
617.315	0.036327
626.96	0.032127
636.605	0.025767
646.251	0.020447
655.896	0.016857
665.541	0.014337
675.186	0.012647
684.831	0.013577
694.476	0.014387
704.121	0.011647
713.766	0.009687
723.411	0.008637
733.056	0.006457
742.701	0.004477
752.346	0.003307
761.991	0.002397
771.636	0.002047
781.281	0.002557
790.926	0.005677
800.571	0.013427
810.216	0.019477
819.861	0.031617
829.507	0.046467
839.152	0.035447
848.797	0.019787
858.442	0.013357
868.087	0.010127
877.732	0.008877
887.377	0.007147
897.022	0.004637
906.667	0.002307
916.312	0.002077
925.957	0.003177
935.602	0.003177
945.247	0.003247
954.892	0.003527
964.537	0.003987
974.182	0.005057
983.827	0.006257
993.472	0.007827
1003.12	0.011657
1012.76	0.020327
1022.41	0.018467
1032.05	0.026437
1041.7	0.048147
1051.34	0.071057
1060.99	0.067007
1070.63	0.071917
1080.28	0.072197
1089.92	0.051427
1099.57	0.041317
1109.21	0.050587
1118.86	0.074227
1128.5	0.079647
1138.15	0.062657
1147.79	0.058927
1157.44	0.060537
1167.08	0.064307
1176.73	0.083027
1186.37	0.057997
1196.02	0.049477
1205.66	0.074047
1215.31	0.108917
1224.95	0.141957
1234.6	0.127537
1244.24	0.094917
1253.89	0.067237
1263.53	0.053147
1273.18	0.049277
1282.82	0.056807
1292.47	0.048917
1302.11	0.040027
1311.76	0.036187
1321.4	0.040867
1331.05	0.051407
1340.69	0.057027
1350.34	0.051927
1359.98	0.045827
1369.63	0.039177
1379.27	0.031647
1388.92	0.027567
1398.56	0.021157
1408.21	0.016697
1417.85	0.014937
1427.5	0.014667
1437.14	0.016387
1446.79	0.021607
1456.43	0.020027
1466.08	0.018177
1475.73	0.018267
1485.37	0.021727
1495.02	0.043687
1504.66	0.129567
1514.31	0.141187
1523.95	0.031977
1533.6	0.011167
1543.24	0.006577
1552.89	0.005307
1562.53	0.004907
1572.18	0.005867
1581.82	0.010497
1591.47	0.016187
1601.11	0.024667
1610.76	0.030407
1620.4	0.017427
1630.05	0.008477
1639.69	0.005987
1649.34	0.004757
1658.98	0.003927
1668.63	0.003377
1678.27	0.003317
1687.92	0.003697
1697.56	0.004517
1707.21	0.005407
1716.85	0.006667
1726.5	0.008757
1736.14	0.013417
1745.79	0.022687
1755.43	0.034777
1765.08	0.051147
1774.72	0.090337
1784.37	0.103707
1794.01	0.099027
1803.66	0.137857
1813.3	0.134037
1822.95	0.068347
1832.59	0.033787
1842.24	0.020367
1851.88	0.013087
1861.53	0.009007
1871.17	0.007147
1880.82	0.005747
1890.46	0.004367
1900.11	0.003407
1909.75	0.002547
1919.4	0.001947
1929.04	0.001587
1938.69	0.0014112
1948.33	0.0012637
1957.98	0.0012384
1967.62	0.0012938
1977.27	0.0014556
1986.91	0.0014674
1996.56	0.0014315
2006.2	0.0014371
2015.85	0.001607
2025.49	0.001787
2035.14	0.001657
2044.78	0.0015422
2054.43	0.0015483
2064.07	0.001587
2073.72	0.001597
2083.36	0.001567
2093.01	0.0014456
2102.65	0.001349
2112.3	0.0013508
2121.94	0.0012652
2131.59	0.0012179
2141.23	0.001119
2150.88	0.0010912
2160.52	0.0010338
2170.17	0.0010052
2179.81	0.0009441
2189.46	0.0009794
2199.1	0.0009509
2208.75	0.0008186
2218.39	0.0007726
2228.04	0.0007877
2237.68	0.0008707
2247.33	0.0009547
2256.97	0.0010574
2266.62	0.0010906
2276.26	0.0011459
2285.91	0.0012918
2295.55	0.001372
2305.2	0.0014634
2314.84	0.0014481
2324.49	0.0013353
2334.13	0.001205
2343.78	0.0012414
2353.42	0.0011467
2363.07	0.001054
2372.72	0.0010513
2382.36	0.0011238
2392.01	0.0011096
2401.65	0.0011255
2411.3	0.0012034
2420.94	0.001162
2430.59	0.0011512
2440.23	0.001204
2449.88	0.0012534
2459.52	0.0012217
2469.17	0.0012687
2478.81	0.0012667
2488.46	0.001202
2498.1	0.0012429
2507.75	0.0012399
2517.39	0.001239
2527.04	0.0011641
2536.68	0.0010448
2546.33	0.0010247
2555.97	0.0009432
2565.62	0.0009524
2575.26	0.0009818
2584.91	0.0011685
2594.55	0.0011724
2604.2	0.0010391
2613.84	0.0008455
2623.49	0.0007082
2633.13	0.0006028
2642.78	0.00054829
2652.42	0.000562353
2662.07	0.00064636
2671.71	0.0007216
2681.36	0.0006921
2691	0.0007802
2700.65	0.0009348
2710.29	0.0010348
2719.94	0.0013805
2729.58	0.0014914
2739.23	0.0014636
2748.87	0.0013485
2758.52	0.0014885
2768.16	0.001617
2777.81	0.001657
2787.45	0.001817
2797.1	0.001977
2806.74	0.002237
2816.39	0.002667
2826.03	0.003087
2835.68	0.003737
2845.32	0.005437
2854.97	0.008557
2864.61	0.014117
2874.26	0.023967
2883.9	0.029947
2893.55	0.028327
2903.19	0.029627
2912.84	0.031477
2922.48	0.035427
2932.13	0.043557
2941.77	0.049657
2951.42	0.049287
2961.06	0.087977
2970.71	0.122177
2980.35	0.055747
2990	0.023527
2999.64	0.015127
3009.29	0.011207
3018.93	0.010817
3028.58	0.015327
3038.22	0.019237
3047.87	0.013817
3057.51	0.010767
3067.16	0.009737
3076.8	0.008467
3086.45	0.006687
3096.09	0.006437
3105.74	0.005757
3115.38	0.004227
3125.03	0.003127
3134.67	0.002297
3144.32	0.001567
3153.96	0.0013348
3163.61	0.0014156
3173.25	0.0011349
3182.9	0.0012117
3192.54	0.0011433
3202.19	0.0010488
3211.83	0.0008238
3221.48	0.0007091
3231.12	0.0005407
3240.77	0.000369
3250.41	0.000245
3260.06	0.000239
3269.7	0.000185
3279.35	0.00022
3289	0.000173
3298.64	0.000228
3308.29	0.000212
3317.93	0.000164
3327.58	0.000213
3337.22	0.000186
3346.87	0.000151
3356.51	0.000191
3366.16	7.5e-05
3375.8	0.000203
3385.45	0.00014
3395.09	0.000209
3404.74	0.000132
3414.38	0.000261
3424.03	0.0005127
3433.67	0.0006978
3443.32	0.0007434
3452.96	0.0009967
3462.61	0.0013699
3472.25	0.001937
3481.9	0.002887
3491.54	0.005287
3501.19	0.009387
3510.83	0.016397
3520.48	0.026897
3530.12	0.022807
3539.77	0.014417
3549.41	0.011587
3559.06	0.015067
3568.7	0.038357
3578.35	0.056677
3587.99	0.024007
3597.64	0.008297
3607.28	0.004377
3616.93	0.002437
3626.57	0.001617
3636.22	0.0009648
3645.86	0.000674
3655.51	0.000559192
3665.15	0.000301
3674.8	0.000326
3684.44	0.000195
3694.09	0.00023
3703.73	0.000116
3713.38	0.000173
3723.02	0.000293
3732.67	0.000293
3742.31	0.000329
3751.96	0.000248
3761.6	0.000175
3771.25	0.000205
3780.89	0.000229
3790.54	0.000191
3800.18	0.000134
3809.83	0.000185
3819.47	0.000329
3829.12	0.000434
3838.76	0.000391
3848.41	0.000392
3858.05	0.000413
3867.7	0.000255
3877.34	0.000254
3886.99	0.000335
3896.63	0.00019
3906.28	0.000204
3915.92	0.000315
3925.57	0.000395
3935.21	0.000328
3944.86	0.00045
3954.5	0.000464
3964.15	0.0005099
3973.79	0.00054769
3983.44	0.000423
3993.08	0.0004666
