Infrared Spectrum: 4-(Trifluoromethyl)phenyl isothiocyanate
Formula: C 8 H 4 F 3 N S
CAS: 1645-65-4
State: gas
Origin: EPA-IR VAPOR PHASE LIBRARY
1/CM	ABSORBANCE
549.8	0.009291
559.445	0.011181
569.09	0.015661
578.734	0.019691
588.379	0.022521
598.024	0.022761
607.669	0.016051
617.313	0.008721
626.958	0.006031
636.603	0.005171
646.248	0.003121
655.893	0.002441
665.537	0.001771
675.182	0.002211
684.827	0.003671
694.472	0.005711
704.116	0.005831
713.761	0.006151
723.406	0.006041
733.051	0.008201
742.695	0.009041
752.34	0.008001
761.985	0.013681
771.63	0.028551
781.275	0.033631
790.919	0.007851
800.564	0.008121
810.209	0.013611
819.854	0.031311
829.498	0.074081
839.143	0.117071
848.788	0.092761
858.433	0.048861
868.078	0.016721
877.722	0.010221
887.367	0.009901
897.012	0.016981
906.657	0.021891
916.301	0.027091
925.946	0.032911
935.591	0.053801
945.236	0.064761
954.88	0.046761
964.525	0.025481
974.17	0.014891
983.815	0.009781
993.46	0.009331
1003.1	0.014931
1012.75	0.050291
1022.39	0.069851
1032.04	0.008371
1041.68	0.010931
1051.33	0.032131
1060.97	0.186871
1070.62	0.455921
1080.26	0.077251
1089.91	0.048631
1099.55	0.078041
1109.2	0.100591
1118.84	0.109291
1128.49	0.142121
1138.13	0.258701
1147.78	0.474541
1157.42	0.470181
1167.07	0.425031
1176.71	0.409231
1186.36	0.186061
1196	0.066941
1205.64	0.033681
1215.29	0.027831
1224.93	0.028081
1234.58	0.027501
1244.22	0.039521
1253.87	0.062701
1263.51	0.059491
1273.16	0.039381
1282.8	0.047191
1292.45	0.063491
1302.09	0.104211
1311.74	0.370781
1321.38	1.00242
1331.03	0.646451
1340.67	0.147221
1350.32	0.061841
1359.96	0.044881
1369.61	0.026571
1379.25	0.014231
1388.9	0.012221
1398.54	0.015831
1408.18	0.020251
1417.83	0.019061
1427.47	0.014271
1437.12	0.010461
1446.76	0.007331
1456.41	0.006321
1466.05	0.005671
1475.7	0.005621
1485.34	0.007421
1494.99	0.013551
1504.63	0.040821
1514.28	0.053221
1523.92	0.022231
1533.57	0.014501
1543.21	0.013301
1552.86	0.014071
1562.5	0.017661
1572.15	0.027351
1581.79	0.048841
1591.44	0.087441
1601.08	0.134881
1610.73	0.228491
1620.37	0.125461
1630.01	0.043911
1639.66	0.047141
1649.3	0.039321
1658.95	0.017711
1668.59	0.012431
1678.24	0.010691
1687.88	0.007251
1697.53	0.004761
1707.17	0.004701
1716.82	0.005071
1726.46	0.005741
1736.11	0.006741
1745.75	0.007711
1755.4	0.008081
1765.04	0.008981
1774.69	0.011711
1784.33	0.011461
1793.98	0.008401
1803.62	0.009091
1813.27	0.010701
1822.91	0.012431
1832.55	0.013551
1842.2	0.014621
1851.84	0.016741
1861.49	0.019881
1871.13	0.022421
1880.78	0.024681
1890.42	0.029151
1900.07	0.035191
1909.71	0.040861
1919.36	0.049991
1929	0.064011
1938.65	0.087021
1948.29	0.121921
1957.94	0.167531
1967.58	0.221201
1977.23	0.290691
1986.87	0.395131
1996.52	0.525201
2006.16	0.656121
2015.81	0.769461
2025.45	0.938551
2035.1	1.0827
2044.74	0.762661
2054.38	0.468461
2064.03	0.407361
2073.67	0.472131
2083.32	0.641371
2092.96	0.611121
2102.61	0.375801
2112.25	0.234121
2121.9	0.174131
2131.54	0.166951
2141.19	0.169321
2150.83	0.134241
2160.48	0.100141
2170.12	0.077661
2179.77	0.060961
2189.41	0.053751
2199.06	0.053331
2208.7	0.048181
2218.35	0.035071
2227.99	0.023711
2237.64	0.017011
2247.28	0.013011
2256.92	0.010681
2266.57	0.010011
2276.21	0.010801
2285.86	0.011291
2295.5	0.011731
2305.15	0.011871
2314.79	0.010271
2324.44	0.007831
2334.08	0.006561
2343.73	0.006801
2353.37	0.007691
2363.02	0.007281
2372.66	0.005421
2382.31	0.004571
2391.95	0.004191
2401.6	0.003711
2411.24	0.003791
2420.89	0.004071
2430.53	0.004501
2440.18	0.004631
2449.82	0.004161
2459.47	0.004061
2469.11	0.004691
2478.75	0.005641
2488.4	0.006751
2498.04	0.008441
2507.69	0.010061
2517.33	0.009741
2526.98	0.008001
2536.62	0.007661
2546.27	0.008371
2555.91	0.008991
2565.56	0.011421
2575.2	0.015951
2584.85	0.021741
2594.49	0.027341
2604.14	0.023981
2613.78	0.012341
2623.43	0.006921
2633.07	0.005991
2642.72	0.006331
2652.36	0.005761
2662.01	0.004321
2671.65	0.003461
2681.29	0.003171
2690.94	0.003441
2700.58	0.003931
2710.23	0.004741
2719.87	0.005861
2729.52	0.006861
2739.16	0.008431
2748.81	0.008401
2758.45	0.006041
2768.1	0.004881
2777.74	0.004481
2787.39	0.004531
2797.03	0.004561
2806.68	0.003861
2816.32	0.003301
2825.97	0.002701
2835.61	0.002361
2845.26	0.002131
2854.9	0.002141
2864.55	0.002231
2874.19	0.002101
2883.84	0.002081
2893.48	0.002491
2903.12	0.003041
2912.77	0.003781
2922.41	0.004641
2932.06	0.005571
2941.7	0.005301
2951.35	0.004831
2960.99	0.005051
2970.64	0.005731
2980.28	0.005671
2989.93	0.004061
2999.57	0.003131
3009.22	0.002941
3018.86	0.003091
3028.51	0.003661
3038.15	0.003851
3047.8	0.004371
3057.44	0.006011
3067.09	0.004901
3076.73	0.003591
3086.38	0.003531
3096.02	0.002861
3105.67	0.002841
3115.31	0.002601
3124.95	0.002621
3134.6	0.001911
3144.24	0.0013567
3153.89	0.0010449
3163.53	0.00079516
3173.18	0.000495
3182.82	0.00044
3192.47	0.000529
3202.11	0.000527
3211.76	0.000562
3221.4	0.0006469
3231.05	0.000508
3240.69	0.000209
3250.34	0.000303
3259.98	0.000267
3269.63	0.00012
3279.27	2.9e-05
3288.92	0.000386
3298.56	0.000173
3308.21	0.000211
3317.85	0.000366
3327.49	0.00034
3337.14	0.000461
3346.78	0.000347
3356.43	0.000365
3366.07	0.000411
3375.72	0.000306
3385.36	0.000504
3395.01	0.000275
3404.65	0.000404
3414.3	0.00038
3423.94	0.000558
3433.59	0.000437
3443.23	0.000432
3452.88	0.000311
3462.52	0.000394
3472.17	0.000472
3481.81	0.000305
3491.46	0.000399
3501.1	0.000347
3510.75	0.000481
3520.39	0.000512
3530.04	0.000376
3539.68	0.000524
3549.32	0.000497
3558.97	0.000565
3568.61	0.000567
3578.26	0.0006524
3587.9	0.00053
3597.55	0.000515
3607.19	0.000315
3616.84	0.000449
3626.48	0.000455
3636.13	0.000606
3645.77	0.0006461
3655.42	0.000625
3665.06	0.0007202
3674.71	0.0006819
3684.35	0.00078681
3694	0.00082825
3703.64	0.0008475
3713.29	0.00072625
3722.93	0.0009546
3732.58	0.000866
3742.22	0.00082525
3751.86	0.0009861
3761.51	0.0009165
3771.15	0.00082293
3780.8	0.0008955
3790.44	0.0010925
3800.09	0.0010704
3809.73	0.0008501
3819.38	0.0010654
3829.02	0.0010911
3838.67	0.001221
3848.31	0.0012048
3857.96	0.0013217
3867.6	0.0014939
3877.25	0.0014782
3886.89	0.0016674
3896.54	0.001741
3906.18	0.001771
3915.83	0.002171
3925.47	0.002231
3935.12	0.002371
3944.76	0.002611
3954.41	0.002861
3964.05	0.002951
3973.69	0.003141
3983.34	0.003431
3992.98	0.003491
