Infrared Spectrum: 1-Bromo-2,3,5,6-tetramethylbenzene
Formula: C 10 H 13 Br
CAS: 1646-53-3
State: gas
Instrument: HP-GC/MS/IRD
Origin: NIST Mass Spectrometry Data Center
1/CM	ABSORBANCE
550	0.0003645
562	0.000156
574	1.5e-06
586	0.0001935
598	0.0001335
610	0.0001695
622	0.00018
634	6.75e-05
646	0
658	0.00015
670	0.00018
682	0.00024
694	0.000273
706	0.000492
718	0.0002415
730	0.000156
742	0.000276
754	0.0002715
766	0.0003075
778	0.000759
790	0.0037725
802	0.0062955
814	0.001476
826	0.000462
838	0.000402
850	0.000975
862	0.0026355
874	0.0015675
886	0.0006195
898	0.0005085
910	0.00057
922	0.0006075
934	0.0007095
946	0.0010185
958	0.001911
970	0.004119
982	0.005877
994	0.0049275
1006	0.0038625
1018	0.0030495
1030	0.002091
1042	0.0015495
1054	0.0011715
1066	0.000834
1078	0.0006255
1090	0.000552
1102	0.0004395
1114	0.000435
1126	0.0002955
1138	0.000282
1150	0.000381
1162	0.0006615
1174	0.001272
1186	0.001671
1198	0.001044
1210	0.000351
1222	0.0003285
1234	0.0004215
1246	0.0006585
1258	0.0012345
1270	0.001329
1282	0.0005715
1294	0.000456
1306	0.000501
1318	0.0005235
1330	0.000558
1342	0.0006825
1354	0.000753
1366	0.001032
1378	0.001719
1390	0.003378
1402	0.0031905
1414	0.002277
1426	0.002574
1438	0.004143
1450	0.0065265
1462	0.008151
1474	0.0075105
1486	0.004251
1498	0.002535
1510	0.001941
1522	0.001962
1534	0.0027765
1546	0.003159
1558	0.0021525
1570	0.001491
1582	0.0013515
1594	0.0015045
1606	0.0015375
1618	0.0007545
1630	0.0004665
1642	0.000309
1654	0.000123
1666	0.000186
1678	0.000177
1690	0.000213
1702	0.000141
1714	0.0003315
1726	0.0005295
1738	0.000264
1750	0.000189
1762	0.000201
1774	0.000108
1786	0.000123
1798	0.0001155
1810	0.0001275
1822	0.0001125
1834	0.000135
1846	0.000114
1858	0.0001035
1870	0.000153
1882	0.0001725
1894	0.0002445
1906	0.000138
1918	0.0001125
1930	8.55e-05
1942	5.55e-05
1954	9.3e-05
1966	7.8e-05
1978	7.35e-05
1990	7.8e-05
2002	8.1e-05
2014	0.000141
2026	9.9e-05
2038	0.000156
2050	0.0001185
2062	0.0001185
2074	0.0001335
2086	6.75e-05
2098	6e-05
2110	5.1e-05
2122	8.25e-05
2134	4.35e-05
2146	8.55e-05
2158	9.9e-05
2170	8.7e-05
2182	0.0001005
2194	0.0001245
2206	9.9e-05
2218	9e-05
2230	9e-05
2242	0.0001155
2254	0.000105
2266	7.65e-05
2278	0.0001095
2290	4.2e-05
2302	4.65e-05
2314	1.2e-05
2326	5.55e-05
2338	2.7e-05
2350	5.7e-05
2362	9e-06
2374	8.7e-05
2386	0.0001155
2398	0.000162
2410	0.000168
2422	0.000195
2434	0.0002385
2446	0.0001995
2458	0.000183
2470	0.0001935
2482	0.000201
2494	0.000177
2506	0.0001785
2518	0.0001575
2530	0.000144
2542	0.000117
2554	0.000129
2566	0.000102
2578	0.000132
2590	0.0001455
2602	0.0001515
2614	0.000177
2626	0.000198
2638	0.0001935
2650	0.000216
2662	0.0002055
2674	0.0001785
2686	0.000237
2698	0.0002925
2710	0.0003345
2722	0.000408
2734	0.000594
2746	0.0007005
2758	0.0007125
2770	0.000648
2782	0.000606
2794	0.0006195
2806	0.000675
2818	0.0008835
2830	0.0012075
2842	0.0016935
2854	0.0027315
2866	0.004842
2878	0.006876
2890	0.006039
2902	0.005676
2914	0.0071655
2926	0.011649
2938	0.015
2950	0.0117285
2962	0.008745
2974	0.007575
2986	0.0063675
2998	0.005139
3010	0.006753
3022	0.0058755
3034	0.003963
3046	0.003273
3058	0.0027495
3070	0.0022875
3082	0.0018165
3094	0.0012975
3106	0.00093
3118	0.00069
3130	0.0005415
3142	0.000537
3154	0.0004365
3166	0.0003255
3178	0.0003855
3190	0.000282
3202	0.000309
3214	0.0002205
3226	0.000237
3238	0.00024
3250	0.000201
3262	0.000198
3274	0.000231
3286	0.0001785
3298	0.000234
3310	0.000156
3322	0.0002055
3334	0.0001905
3346	0.0001425
3358	0.00021
3370	0.00018
3382	0.00018
3394	0.00015
3406	0.0001545
3418	0.000117
3430	0.000141
3442	0.000123
3454	0.000111
3466	6.9e-05
3478	7.5e-05
3490	8.1e-05
3502	0.0001185
3514	0.0001455
3526	0.0002175
3538	0.0002055
3550	0.000189
3562	0.0001485
3574	0.00015
3586	9.9e-05
3598	0.0001455
3610	9.6e-05
3622	0.0001155
3634	0.0001155
3646	4.05e-05
3658	0.000114
3670	9.45e-05
3682	0.000168
3694	0.000174
3706	0.0001695
3718	0.0002025
3730	5.4e-05
3742	8.1e-05
3754	0.0001005
3766	0.000114
3778	0.000228
3790	0.000114
3802	0.0001545
3814	9.75e-05
3826	0.0001875
3838	0.000177
