Infrared Spectrum: Di-t-butylhydrazodicarboxylate
Formula: C 10 H 20 N 2 O 4
CAS: 16466-61-8
State: gas
Origin: EPA-IR VAPOR PHASE LIBRARY
1/CM	ABSORBANCE
549.8	0.00775
559.445	0.00737
569.09	0.0066
578.735	0.00596
588.38	0.00524
598.025	0.0048
607.67	0.00439
617.315	0.0042
626.96	0.0037
636.605	0.0037
646.251	0.00427
655.896	0.00403
665.541	0.00532
675.186	0.00436
684.831	0.00415
694.476	0.00379
704.121	0.00359
713.766	0.00356
723.411	0.00357
733.056	0.00419
742.701	0.00562
752.346	0.00792
761.991	0.00912
771.636	0.00869
781.281	0.00951
790.926	0.01014
800.571	0.00934
810.216	0.00774
819.861	0.00697
829.507	0.00696
839.152	0.00794
848.797	0.00969
858.442	0.00931
868.087	0.00899
877.732	0.01003
887.377	0.01262
897.022	0.00829
906.667	0.00514
916.312	0.00415
925.957	0.00338
935.602	0.00263
945.247	0.00246
954.892	0.00244
964.537	0.00294
974.182	0.0038
983.827	0.00587
993.472	0.0098
1003.12	0.01429
1012.76	0.01632
1022.41	0.01388
1032.05	0.01223
1041.7	0.01354
1051.34	0.01216
1060.99	0.00889
1070.63	0.00735
1080.28	0.00708
1089.92	0.00766
1099.57	0.00951
1109.21	0.01305
1118.86	0.01967
1128.5	0.03358
1138.15	0.06488
1147.79	0.11438
1157.44	0.13504
1167.08	0.1168
1176.73	0.09026
1186.37	0.06324
1196.02	0.04242
1205.66	0.03879
1215.31	0.05475
1224.95	0.07738
1234.6	0.06334
1244.24	0.04815
1253.89	0.04082
1263.53	0.02952
1273.18	0.02062
1282.82	0.01768
1292.47	0.01659
1302.11	0.01662
1311.76	0.01787
1321.4	0.01839
1331.05	0.02181
1340.69	0.0291
1350.34	0.02975
1359.98	0.02823
1369.63	0.0427
1379.27	0.03632
1388.92	0.02373
1398.56	0.02777
1408.21	0.02054
1417.85	0.02084
1427.5	0.02613
1437.14	0.03585
1446.79	0.04218
1456.43	0.03813
1466.08	0.03494
1475.73	0.0376
1485.37	0.03279
1495.02	0.02278
1504.66	0.01478
1514.31	0.0097
1523.95	0.00729
1533.6	0.00592
1543.24	0.00487
1552.89	0.00414
1562.53	0.0036
1572.18	0.00325
1581.82	0.00304
1591.47	0.00295
1601.11	0.00294
1610.76	0.003
1620.4	0.00322
1630.05	0.00347
1639.69	0.00374
1649.34	0.00364
1658.98	0.00348
1668.63	0.00363
1678.27	0.00413
1687.92	0.00489
1697.56	0.00603
1707.21	0.00853
1716.85	0.01297
1726.5	0.02085
1736.14	0.03886
1745.79	0.07696
1755.43	0.11379
1765.08	0.09494
1774.72	0.05229
1784.37	0.0231
1794.01	0.01366
1803.66	0.01035
1813.3	0.00685
1822.95	0.00491
1832.59	0.00363
1842.24	0.0028
1851.88	0.00236
1861.53	0.00209
1871.17	0.00198
1880.82	0.00179
1890.46	0.00163
1900.11	0.0014566
1909.75	0.0013079
1919.4	0.001255
1929.04	0.0011492
1938.69	0.0011263
1948.33	0.0010779
1957.98	0.0010411
1967.62	0.0010671
1977.27	0.0010098
1986.91	0.0010385
1996.56	0.0010057
2006.2	0.0010231
2015.85	0.0009678
2025.49	0.0009005
2035.14	0.000844
2044.78	0.0007466
2054.43	0.0006866
2064.07	0.0006697
2073.72	0.0006236
2083.36	0.0006262
2093.01	0.0005806
2102.65	0.00058792
2112.3	0.000589
2121.94	0.0005792
2131.59	0.00055848
2141.23	0.00057108
2150.88	0.00059351
2160.52	0.0006496
2170.17	0.0006566
2179.81	0.0006532
2189.46	0.0006155
2199.1	0.00059409
2208.75	0.0006471
2218.39	0.0006293
2228.04	0.0006998
2237.68	0.0007061
2247.33	0.0008644
2256.97	0.0010013
2266.62	0.0011994
2276.26	0.00165
2285.91	0.00259
2295.55	0.00428
2305.2	0.00655
2314.84	0.009
2324.49	0.01035
2334.13	0.00964
2343.78	0.0088
2353.42	0.01005
2363.07	0.01335
2372.72	0.01076
2382.36	0.00423
2392.01	0.0009943
2401.65	0.0006121
2411.3	0.00057265
2420.94	0.00055456
2430.59	0.00055587
2440.23	0.000558
2449.88	0.000455
2459.52	0.0004499
2469.17	0.00056046
2478.81	0.000474
2488.46	0.00055041
2498.1	0.0004467
2507.75	0.000469
2517.39	0.0004159
2527.04	0.000377
2536.68	0.000346
2546.33	0.000315
2555.97	0.000268
2565.62	0.000344
2575.26	0.000326
2584.91	0.000325
2594.55	0.000373
2604.2	0.0004
2613.84	0.000394
2623.49	0.0004851
2633.13	0.0004416
2642.78	0.000395
2652.42	0.0004713
2662.07	0.0004367
2671.71	0.0004495
2681.36	0.0004359
2691	0.0004559
2700.65	0.0005217
2710.29	0.00050754
2719.94	0.0006451
2729.58	0.0009558
2739.23	0.0008744
2748.87	0.0007478
2758.52	0.0007412
2768.16	0.0008344
2777.81	0.0007535
2787.45	0.0009677
2797.1	0.0009252
2806.74	0.0010377
2816.39	0.0011334
2826.03	0.0014812
2835.68	0.00154
2845.32	0.00186
2854.97	0.0025
2864.61	0.00362
2874.26	0.00514
2883.9	0.00652
2893.55	0.00767
2903.19	0.00907
2912.84	0.0105
2922.48	0.01203
2932.13	0.0165
2941.77	0.02137
2951.42	0.01726
2961.06	0.01595
2970.71	0.024
2980.35	0.04256
2990	0.043
2999.64	0.01577
3009.29	0.01314
3018.93	0.00739
3028.58	0.00295
3038.22	0.0018
3047.87	0.0014467
3057.51	0.0012903
3067.16	0.001314
3076.8	0.0011711
3086.45	0.0012269
3096.09	0.0013142
3105.74	0.0010844
3115.38	0.0009261
3125.03	0.0007024
3134.67	0.0007236
3144.32	0.0006654
3153.96	0.0006185
3163.61	0.0007001
3173.25	0.0005594
3182.9	0.0007683
3192.54	0.00060245
3202.19	0.00060878
3211.83	0.00054233
3221.48	0.0004611
3231.12	0.00050492
3240.77	0.000378
3250.41	0.000365
3260.06	0.000235
3269.7	0.000129
3279.35	0.000182
3289	8.9e-05
3298.64	0.000318
3308.29	0.00016
3317.93	0.000246
3327.58	0.00012
3337.22	0.000175
3346.87	0.000373
3356.51	0.000262
3366.16	0.0004796
3375.8	0.000511525
3385.45	0.0008853
3395.09	0.0013554
3404.74	0.00207
3414.38	0.00288
3424.03	0.00436
3433.67	0.00763
3443.32	0.01097
3452.96	0.01114
3462.61	0.00781
3472.25	0.00582
3481.9	0.00424
3491.54	0.00284
3501.19	0.00191
3510.83	0.0014097
3520.48	0.0009723
3530.12	0.0009108
3539.77	0.00055973
3549.41	0.0004229
3559.06	0.000435
3568.7	0.00041
3578.35	0.000233
3587.99	0.000372
3597.64	0.00029
3607.28	0.000158
3616.93	0.000231
3626.57	0.000207
3636.22	0.000271
3645.86	0.000207
3655.51	0.000129
3665.15	8.3e-05
3674.8	0.000117
3684.44	0.000363
3694.09	0.0002
3703.73	0.000189
3713.38	0.000118
3723.02	0.0003
3732.67	0.0005417
3742.31	0.000291
3751.96	3.2e-05
3761.6	0.00014
3771.25	8.2e-05
3780.89	6.5e-05
3790.54	0.000227
3800.18	0.000243
3809.83	0.00017
3819.47	0.000191
3829.12	0.000211
3838.76	0.000254
3848.41	0.000207
3858.05	0.000281
3867.7	0.000178
3877.34	0.000342
3886.99	0.000317
3896.63	0.000373
3906.28	0.000249
3915.92	0.000289
3925.57	0.000367
3935.21	0.000283
3944.86	0.000191
3954.5	0.000115
3964.15	0.000231
3973.79	0.00023
3983.44	0.000147
3993.08	0.000122
