Infrared Spectrum: Aldicarb sulfone
Formula: C 7 H 14 N 2 O 4 S
CAS: 1646-88-4
State: gas
Instrument: HP-GC/MS/IRD
Origin: NIST Mass Spectrometry Data Center
1/CM	ABSORBANCE
550	0.0007416
562	0.0013428
574	0.0007764
586	2.52e-05
598	0.0001632
610	8.28e-05
622	0.0001176
634	0.0001116
646	0.000174
658	0.000258
670	0.000372
682	0.000378
694	0.0003228
706	0.0003564
718	0.0005136
730	0.0009648
742	0.0020856
754	0.0025152
766	0.0014004
778	0.0006312
790	0.0004044
802	0.00036
814	0.0003996
826	0.0007692
838	0.0010416
850	0.0006984
862	0.0004356
874	0.00048
886	0.0005532
898	0.0006648
910	0.0010728
922	0.0022644
934	0.0048984
946	0.005748
958	0.0038196
970	0.0018924
982	0.0013608
994	0.001248
1006	0.0006732
1018	0.0004536
1030	0.0002676
1042	0.0002904
1054	0.000234
1066	0.0004512
1078	0.0003588
1090	0.0004092
1102	0.0006984
1114	0.0025992
1126	0.0044676
1138	0.0030936
1150	0.001818
1162	0.0022908
1174	0.0022032
1186	0.0008988
1198	0.0002352
1210	5.64e-05
1222	7.68e-05
1234	0.0003324
1246	0.0005388
1258	0.0011412
1270	0.0012852
1282	0.0007212
1294	0.000708
1306	0.0017376
1318	0.0052584
1330	0.0112644
1342	0.008514
1354	0.001944
1366	0.0010632
1378	0.0016092
1390	0.0015636
1402	0.0013512
1414	0.0007644
1426	0.0004968
1438	0.0004776
1450	0.00063
1462	0.0007716
1474	0.0007428
1486	0.0004392
1498	0.0002508
1510	0.0002496
1522	0.0002172
1534	0.0002076
1546	0.000228
1558	0.0001932
1570	0.0001848
1582	0.0001464
1594	0.0001704
1606	0.0001356
1618	0.0001512
1630	0.0001224
1642	0.0001188
1654	0.0001152
1666	0.0001272
1678	9.24e-05
1690	8.28e-05
1702	8.16e-05
1714	8.04e-05
1726	7.56e-05
1738	8.16e-05
1750	7.44e-05
1762	9.96e-05
1774	8.28e-05
1786	8.64e-05
1798	0.0001044
1810	9.84e-05
1822	0.0001068
1834	7.44e-05
1846	0.0001212
1858	0.0001296
1870	0.0001392
1882	0.0001308
1894	0.0001008
1906	8.76e-05
1918	6.36e-05
1930	5.64e-05
1942	8.64e-05
1954	5.76e-05
1966	2.76e-05
1978	5.64e-05
1990	7.68e-05
2002	5.88e-05
2014	5.28e-05
2026	5.88e-05
2038	4.2e-05
2050	5.88e-05
2062	8.76e-05
2074	7.08e-05
2086	4.08e-05
2098	7.32e-05
2110	3.36e-05
2122	4.32e-05
2134	5.4e-05
2146	2.88e-05
2158	6.6e-05
2170	6.84e-05
2182	5.88e-05
2194	5.52e-05
2206	8.64e-05
2218	6.48e-05
2230	6.84e-05
2242	8.28e-05
2254	9.96e-05
2266	9.96e-05
2278	9.84e-05
2290	8.88e-05
2302	4.8e-05
2314	3.6e-06
2326	0
2338	0
2350	4.8e-06
2362	0
2374	0
2386	7.08e-05
2398	6e-05
2410	8.04e-05
2422	7.56e-05
2434	6.48e-05
2446	0.0001068
2458	0.0001284
2470	8.52e-05
2482	5.64e-05
2494	0.0001272
2506	9.24e-05
2518	0.000132
2530	0.0001344
2542	7.68e-05
2554	0.0001068
2566	0.0001032
2578	0.0001224
2590	0.0001296
2602	6.72e-05
2614	0.0001248
2626	0.0001632
2638	0.0001824
2650	0.0001284
2662	0.0001344
2674	8.76e-05
2686	0.0001332
2698	0.000108
2710	0.0001284
2722	0.0001608
2734	0.0001152
2746	0.0001392
2758	0.000102
2770	0.0001452
2782	0.0001368
2794	0.0001896
2806	0.0001404
2818	0.0001368
2830	0.0001668
2842	0.000198
2854	0.0002136
2866	0.0002904
2878	0.0004128
2890	0.0004248
2902	0.0003588
2914	0.0004176
2926	0.0005508
2938	0.0008064
2950	0.0010008
2962	0.0007452
2974	0.0007464
2986	0.0011484
2998	0.001236
3010	0.000822
3022	0.0003672
3034	0.0001944
3046	0.0001944
3058	0.0002652
3070	0.0001728
3082	0.0001764
3094	0.0002076
3106	0.00015
3118	0.0002208
3130	0.0001632
3142	0.0001644
3154	0.000186
3166	0.0001368
3178	0.0001644
3190	0.0001452
3202	0.0001284
3214	0.000168
3226	0.000102
3238	0.0001668
3250	0.0001248
3262	0.0001848
3274	0.000132
3286	0.0001188
3298	6.48e-05
3310	0.0001332
3322	6.12e-05
3334	0.0001044
3346	0.0001812
3358	0.0001464
3370	0.0001104
3382	8.64e-05
3394	0.0001308
3406	0.0001188
3418	2.88e-05
3430	5.16e-05
3442	8.28e-05
3454	5.28e-05
3466	0.0001176
3478	1.32e-05
3490	0.000114
3502	0.0001296
3514	0.0001236
3526	0.0002124
3538	0.000102
3550	0.0001164
3562	0.000168
3574	0.0001908
3586	0.0001896
3598	0.0002976
3610	0.0005424
3622	0.0014328
3634	0.0034524
3646	0.0029832
3658	0.0005724
3670	0.0002076
3682	0.0001608
3694	0.0002088
3706	0.0001176
3718	0.0001476
3730	0.0001416
3742	0.0001164
3754	6.84e-05
3766	0.0001548
3778	0.0001344
3790	0.0001512
3802	0.0001944
3814	0.000192
3826	0.000108
3838	0.000216
