Infrared Spectrum: 3-Amino-4-bromopyrazole
Formula: C 3 H 4 Br N 3
CAS: 16461-94-2
State: gas
Origin: EPA-IR VAPOR PHASE LIBRARY
1/CM	ABSORBANCE
549.8	0.00392
559.445	0.00428
569.09	0.00411
578.735	0.0041
588.38	0.00469
598.025	0.00597
607.67	0.00737
617.315	0.00932
626.96	0.00898
636.605	0.00869
646.251	0.00837
655.896	0.00807
665.541	0.00782
675.186	0.00831
684.831	0.01007
694.476	0.01095
704.121	0.01063
713.766	0.00978
723.411	0.0085
733.056	0.0074
742.701	0.00637
752.346	0.00584
761.991	0.00586
771.636	0.00682
781.281	0.0081
790.926	0.00874
800.571	0.00655
810.216	0.00471
819.861	0.00455
829.507	0.00585
839.152	0.00875
848.797	0.01287
858.442	0.01522
868.087	0.01575
877.732	0.01331
887.377	0.0097
897.022	0.00783
906.667	0.00938
916.312	0.00982
925.957	0.00755
935.602	0.0045
945.247	0.00319
954.892	0.00259
964.537	0.00245
974.182	0.00237
983.827	0.00227
993.472	0.00219
1003.12	0.00242
1012.76	0.00327
1022.41	0.00585
1032.05	0.01107
1041.7	0.01832
1051.34	0.01927
1060.99	0.01215
1070.63	0.00634
1080.28	0.00443
1089.92	0.00427
1099.57	0.00437
1109.21	0.00568
1118.86	0.00672
1128.5	0.00605
1138.15	0.00339
1147.79	0.002
1157.44	0.00158
1167.08	0.00156
1176.73	0.00207
1186.37	0.00276
1196.02	0.00256
1205.66	0.00174
1215.31	0.00114
1224.95	0.0009214
1234.6	0.00109
1244.24	0.00133
1253.89	0.00226
1263.53	0.00323
1273.18	0.00328
1282.82	0.00197
1292.47	0.0014
1302.11	0.00145
1311.76	0.00159
1321.4	0.00165
1331.05	0.00135
1340.69	0.00114
1350.34	0.00104
1359.98	0.00127
1369.63	0.00177
1379.27	0.00256
1388.92	0.00318
1398.56	0.00334
1408.21	0.00269
1417.85	0.00239
1427.5	0.00251
1437.14	0.00324
1446.79	0.0032
1456.43	0.00345
1466.08	0.00428
1475.73	0.0069
1485.37	0.01124
1495.02	0.01633
1504.66	0.01832
1514.31	0.0156
1523.95	0.01013
1533.6	0.0092
1543.24	0.01186
1552.89	0.01324
1562.53	0.01245
1572.18	0.01124
1581.82	0.0115
1591.47	0.01405
1601.11	0.02075
1610.76	0.02771
1620.4	0.02815
1630.05	0.02
1639.69	0.01026
1649.34	0.00514
1658.98	0.00286
1668.63	0.00202
1678.27	0.00167
1687.92	0.00155
1697.56	0.00136
1707.21	0.00127
1716.85	0.00115
1726.5	0.0011
1736.14	0.00111
1745.79	0.0011
1755.43	0.00101
1765.08	0.0009702
1774.72	0.0009502
1784.37	0.0008742
1794.01	0.0008633
1803.66	0.000776
1813.3	0.0007241
1822.95	0.0008113
1832.59	0.0008542
1842.24	0.0008315
1851.88	0.0007624
1861.53	0.0007021
1871.17	0.0006207
1880.82	0.0006444
1890.46	0.0006269
1900.11	0.0006308
1909.75	0.0006952
1919.4	0.0005801
1929.04	0.0006783
1938.69	0.000632
1948.33	0.0006365
1957.98	0.0006249
1967.62	0.0006616
1977.27	0.0006821
1986.91	0.0005967
1996.56	0.0006248
2006.2	0.0006294
2015.85	0.0005587
2025.49	0.0006014
2035.14	0.0006255
2044.78	0.0006065
2054.43	0.0006127
2064.07	0.0006639
2073.72	0.0006586
2083.36	0.0007307
2093.01	0.000666
2102.65	0.000771
2112.3	0.0006745
2121.94	0.0006856
2131.59	0.0006761
2141.23	0.0006201
2150.88	0.0007036
2160.52	0.0007231
2170.17	0.0006731
2179.81	0.0007731
2189.46	0.00069
2199.1	0.0007724
2208.75	0.0007853
2218.39	0.0008605
2228.04	0.0007554
2237.68	0.0007621
2247.33	0.0007314
2256.97	0.0006922
2266.62	0.000669
2276.26	0.0006714
2285.91	0.0006348
2295.55	0.0007133
2305.2	0.0006636
2314.84	0.0007683
2324.49	0.0007024
2334.13	0.0006863
2343.78	0.0005392
2353.42	0.0006521
2363.07	0.0006583
2372.72	0.0005762
2382.36	0.000615
2392.01	0.0005387
2401.65	0.0005376
2411.3	0.000581
2420.94	0.0005155
2430.59	0.0005221
2440.23	0.0005649
2449.88	0.00052
2459.52	0.000654
2469.17	0.0005808
2478.81	0.0006989
2488.46	0.000676
2498.1	0.0005815
2507.75	0.0005902
2517.39	0.0005976
2527.04	0.0006142
2536.68	0.0005463
2546.33	0.0006191
2555.97	0.0006093
2565.62	0.0006399
2575.26	0.0006353
2584.91	0.0007329
2594.55	0.0006813
2604.2	0.0007049
2613.84	0.0007929
2623.49	0.0008558
2633.13	0.0008041
2642.78	0.0007813
2652.42	0.0006178
2662.07	0.0006189
2671.71	0.0005357
2681.36	0.0004788
2691	0.0005907
2700.65	0.000592
2710.29	0.0005676
2719.94	0.0005703
2729.58	0.0005656
2739.23	0.0006036
2748.87	0.0005488
2758.52	0.000509
2768.16	0.0005463
2777.81	0.0005242
2787.45	0.0005518
2797.1	0.0006074
2806.74	0.0004602
2816.39	0.0004629
2826.03	0.0005431
2835.68	0.0006496
2845.32	0.0006784
2854.97	0.0005138
2864.61	0.0006033
2874.26	0.0007114
2883.9	0.0005466
2893.55	0.0005279
2903.19	0.0006026
2912.84	0.0005491
2922.48	0.0005635
2932.13	0.0006159
2941.77	0.0006983
2951.42	0.0006492
2961.06	0.0005925
2970.71	0.0004622
2980.35	0.0007088
2990	0.0006266
2999.64	0.0006478
3009.29	0.0006107
3018.93	0.0005741
3028.58	0.0005177
3038.22	0.0004551
3047.87	0.0006269
3057.51	0.0005949
3067.16	0.0005645
3076.8	0.000657
3086.45	0.0005706
3096.09	0.0006993
3105.74	0.0008527
3115.38	0.000803
3125.03	0.0008108
3134.67	0.0007365
3144.32	0.0007188
3153.96	0.0006936
3163.61	0.0005775
3173.25	0.0006353
3182.9	0.0005002
3192.54	0.0005415
3202.19	0.0006416
3211.83	0.0006313
3221.48	0.0007086
3231.12	0.0008148
3240.77	0.0009126
3250.41	0.0006935
3260.06	0.0006918
3269.7	0.0006689
3279.35	0.000652
3289	0.0005234
3298.64	0.0007254
3308.29	0.0006769
3317.93	0.0006919
3327.58	0.0006432
3337.22	0.000758
3346.87	0.0007402
3356.51	0.0008063
3366.16	0.00116
3375.8	0.00194
3385.45	0.0027
3395.09	0.00387
3404.74	0.00389
3414.38	0.00346
3424.03	0.0024
3433.67	0.00211
3443.32	0.00188
3452.96	0.00247
3462.61	0.00363
3472.25	0.00586
3481.9	0.01004
3491.54	0.01593
3501.19	0.02047
3510.83	0.02519
3520.48	0.03009
3530.12	0.02486
3539.77	0.00908
3549.41	0.00231
3559.06	0.00109
3568.7	0.0008431
3578.35	0.00068
3587.99	0.0007291
3597.64	0.0007974
3607.28	0.0008074
3616.93	0.0008151
3626.57	0.0007909
3636.22	0.0008088
3645.86	0.0007148
3655.51	0.0006827
3665.15	0.0007125
3674.8	0.0007773
3684.44	0.0007162
3694.09	0.0007133
3703.73	0.000625
3713.38	0.0006475
3723.02	0.0007322
3732.67	0.0005502
3742.31	0.0006021
3751.96	0.0005272
3761.6	0.0006386
3771.25	0.0004392
3780.89	0.0006279
3790.54	0.0005755
3800.18	0.0004912
3809.83	0.0007262
3819.47	0.0005455
3829.12	0.000676
3838.76	0.0006493
3848.41	0.0004574
3858.05	0.0006902
3867.7	0.0006557
3877.34	0.000637
3886.99	0.0007163
3896.63	0.0007757
3906.28	0.0008736
3915.92	0.0009255
3925.57	0.0007373
3935.21	0.0008542
3944.86	0.0008126
3954.5	0.0007775
3964.15	0.0005202
3973.79	0.0006855
3983.44	0.0006919
3993.08	0.0007342
