Infrared Spectrum: 4,4-Dimethyl-1-hexene
Formula: C 8 H 16
CAS: 1647-08-1
State: gas
Instrument: HP-GC/MS/IRD
Origin: NIST Mass Spectrometry Data Center
1/CM	ABSORBANCE
550	0.0002034
562	0.0002268
574	7.92e-05
586	3.6e-05
598	0.000378
610	0.0004158
622	0.0003996
634	0.000252
646	0.000144
658	0.000153
670	3.24e-05
682	0.0001008
694	0.0001296
706	7.02e-05
718	0.0001818
730	0.0002214
742	0.0001584
754	7.02e-05
766	0.000144
778	0.0003078
790	0.000324
802	0.0002394
814	0.0001314
826	0.000162
838	0.0002718
850	0.0003636
862	0.0003582
874	0.0005148
886	0.000765
898	0.0017316
910	0.0034956
922	0.0033192
934	0.0014976
946	0.0006336
958	0.0005328
970	0.000747
982	0.001395
994	0.002043
1006	0.00171
1018	0.0010692
1030	0.0006876
1042	0.0005634
1054	0.0004824
1066	0.0003348
1078	0.0002592
1090	0.000288
1102	0.00027
1114	0.0002052
1126	0.0002016
1138	0.0001458
1150	0.0001836
1162	0.000324
1174	0.0005778
1186	0.0007686
1198	0.0007578
1210	0.0006048
1222	0.0003492
1234	0.000225
1246	0.0001602
1258	0.000297
1270	0.0003474
1282	0.0003636
1294	0.0003744
1306	0.000351
1318	0.0003168
1330	0.0002898
1342	0.0004104
1354	0.0008208
1366	0.0016812
1378	0.0022104
1390	0.0020394
1402	0.0012114
1414	0.0007308
1426	0.0008568
1438	0.001287
1450	0.0018954
1462	0.0025398
1474	0.0024732
1486	0.0014202
1498	0.0005454
1510	0.0003078
1522	0.0002574
1534	0.0002016
1546	0.0001638
1558	0.000162
1570	0.0001512
1582	0.0001926
1594	0.0001944
1606	0.000306
1618	0.0004914
1630	0.0010656
1642	0.0012258
1654	0.0005598
1666	0.0001872
1678	0.000126
1690	7.92e-05
1702	6.48e-05
1714	8.28e-05
1726	5.94e-05
1738	4.14e-05
1750	5.22e-05
1762	3.6e-05
1774	4.68e-05
1786	3.96e-05
1798	6.84e-05
1810	0.0001512
1822	0.0003546
1834	0.0004428
1846	0.000288
1858	9.72e-05
1870	3.96e-05
1882	7.02e-05
1894	4.68e-05
1906	4.68e-05
1918	3.06e-05
1930	4.14e-05
1942	3.42e-05
1954	2.88e-05
1966	2.88e-05
1978	5.94e-05
1990	5.76e-05
2002	3.6e-05
2014	2.7e-05
2026	2.88e-05
2038	5.22e-05
2050	3.78e-05
2062	1.62e-05
2074	1.8e-05
2086	1.44e-05
2098	3.96e-05
2110	1.08e-05
2122	4.32e-05
2134	2.16e-05
2146	2.16e-05
2158	1.8e-05
2170	1.8e-05
2182	3.06e-05
2194	4.86e-05
2206	2.7e-05
2218	3.6e-05
2230	2.34e-05
2242	2.52e-05
2254	2.7e-05
2266	2.7e-05
2278	1.8e-05
2290	1.98e-05
2302	3.42e-05
2314	2.52e-05
2326	1.62e-05
2338	3.24e-05
2350	1.44e-05
2362	2.16e-05
2374	1.8e-05
2386	3.78e-05
2398	5.04e-05
2410	1.98e-05
2422	5.76e-05
2434	2.7e-05
2446	2.52e-05
2458	5.22e-05
2470	5.58e-05
2482	4.5e-05
2494	4.32e-05
2506	4.14e-05
2518	5.4e-05
2530	4.86e-05
2542	4.5e-05
2554	2.88e-05
2566	5.58e-05
2578	9.54e-05
2590	9.18e-05
2602	8.1e-05
2614	9.72e-05
2626	8.46e-05
2638	0.0001116
2650	0.0001368
2662	0.000171
2674	0.0001314
2686	0.000135
2698	0.0001458
2710	0.0001872
2722	0.0002484
2734	0.0002592
2746	0.000297
2758	0.0002844
2770	0.000342
2782	0.0003852
2794	0.000468
2806	0.0005958
2818	0.0008442
2830	0.0012906
2842	0.0020052
2854	0.0031572
2866	0.0046314
2878	0.0060552
2890	0.0072054
2902	0.008577
2914	0.0100188
2926	0.0103374
2938	0.0103014
2950	0.0120384
2962	0.017145
2974	0.0166284
2986	0.008523
2998	0.0035676
3010	0.0022086
3022	0.0015624
3034	0.00108
3046	0.0010116
3058	0.0013176
3070	0.0021618
3082	0.0028188
3094	0.0018594
3106	0.0006642
3118	0.0004374
3130	0.0003654
3142	0.0003474
3154	0.0003258
3166	0.0002862
3178	0.0002772
3190	0.00027
3202	0.0002772
3214	0.000234
3226	0.0001818
3238	0.0001494
3250	0.000153
3262	0.0001116
3274	0.0001062
3286	0.0001494
3298	9.9e-05
3310	0.0001224
3322	0.0001206
3334	8.1e-05
3346	0.0001044
3358	8.1e-05
3370	7.74e-05
3382	9.72e-05
3394	6.12e-05
3406	5.22e-05
3418	7.02e-05
3430	6.84e-05
3442	6.12e-05
3454	8.46e-05
3466	2.16e-05
3478	8.82e-05
3490	6.3e-05
3502	4.5e-05
3514	6.66e-05
3526	0.000108
3538	5.4e-05
3550	6.3e-05
3562	7.38e-05
3574	5.4e-06
3586	8.82e-05
3598	6.3e-05
3610	4.32e-05
3622	8.28e-05
3634	6.48e-05
3646	5.58e-05
3658	7.92e-05
3670	4.86e-05
3682	6.66e-05
3694	6.48e-05
3706	5.04e-05
3718	5.4e-05
3730	5.4e-05
3742	3.6e-05
3754	3.78e-05
3766	7.38e-05
3778	0.000108
3790	6.66e-05
3802	3.6e-05
3814	1.98e-05
3826	9.36e-05
3838	5.76e-05
