Infrared Spectrum: VALERAMIDE, N-TERT-BUTYL-2,2,4-TRIMETHYL-3-OXO-
Formula: C12 H23 N O2
CAS: 16478-84-5
State: SOLID (KBr PELLET)
Melting point: 80.5-83 C
Class: COBLENTZ
Instrument: Not specified, most likely a prism, grating, or hybrid spectrometer.
Sampling: TRANSMISSION
Resolution: 4
Origin: TENNESSEE EASTMAN COMPANY, RESEARCH LABORATORIES
MICROMETERS	TRANSMITTANCE
2.02	0.86
2.06064	0.86
2.10128	0.86
2.14192	0.86
2.18256	0.863
2.22319	0.865
2.26383	0.858
2.30447	0.854
2.34511	0.866
2.38575	0.868
2.42639	0.872
2.46703	0.875
2.50767	0.882
2.54831	0.887
2.58895	0.887
2.62958	0.889
2.67022	0.89
2.71086	0.889
2.7515	0.883
2.79214	0.86
2.83278	0.848
2.87342	0.832
2.91406	0.8
2.9547	0.378
2.99534	0.68
3.03597	0.827
3.07661	0.861
3.11725	0.866
3.15789	0.866
3.19853	0.88
3.23917	0.883
3.27981	0.868
3.32045	0.773
3.36109	0.187
3.40173	0.373
3.44236	0.602
3.483	0.648
3.52364	0.872
3.56428	0.894
3.60492	0.919
3.64556	0.916
3.6862	0.912
3.72684	0.926
3.76748	0.938
3.80812	0.947
3.84875	0.95
3.88939	0.95
3.93003	0.95
3.97067	0.952
4.01131	0.955
4.05195	0.957
4.09259	0.959
4.13323	0.95
4.17387	0.952
4.21451	0.955
4.25514	0.95
4.29578	0.936
4.33642	0.94
4.37706	0.952
4.4177	0.96
4.45834	0.965
4.49898	0.969
4.53962	0.969
4.58026	0.969
4.6209	0.969
4.66153	0.97
4.70217	0.97
4.74281	0.97
4.78345	0.972
4.82409	0.974
4.86473	0.972
4.90537	0.972
4.94601	0.972
4.98665	0.977
5.02729	0.976
5.06792	0.974
5.10856	0.976
5.1492	0.976
5.18984	0.976
5.23048	0.972
5.27112	0.97
5.31176	0.97
5.3524	0.965
5.39304	0.967
5.43368	0.953
5.47431	0.95
5.51495	0.95
5.55559	0.941
5.59623	0.941
5.63687	0.94
5.67751	0.921
5.71815	0.882
5.75879	0.829
5.79943	0.75
5.84006	0.46
5.8807	0.336
5.92134	0.197
5.96198	0.027
6.00262	0.177
6.04326	0.394
6.0839	0.629
6.12454	0.704
6.16518	0.803
6.20582	0.843
6.24645	0.88
6.28709	0.878
6.32773	0.844
6.36837	0.824
6.40901	0.781
6.44965	0.682
6.49029	0.131
6.53093	0.088
6.57157	0.349
6.61221	0.668
6.65284	0.75
6.69348	0.738
6.73412	0.506
6.77476	0.344
6.8154	0.404
6.85604	0.372
6.89668	0.578
6.93732	0.718
6.97796	0.829
7.0186	0.858
7.05923	0.872
7.09987	0.851
7.14051	0.697
7.18115	0.37
7.22179	0.513
7.26243	0.626
7.30307	0.462
7.34371	0.389
7.38435	0.75
7.42499	0.873
7.46562	0.902
7.50626	0.923
7.5469	0.912
7.58754	0.889
7.62818	0.784
7.66882	0.82
7.70946	0.832
7.7501	0.759
7.79074	0.445
7.83138	0.336
7.87201	0.634
7.91265	0.755
7.95329	0.803
7.99393	0.808
8.03457	0.752
8.07521	0.436
8.11585	0.332
8.15649	0.363
8.19713	0.305
8.23777	0.462
8.2784	0.648
8.31904	0.723
8.35968	0.757
8.40032	0.73
8.44096	0.684
8.4816	0.646
8.52224	0.704
8.56288	0.733
8.60352	0.738
8.64416	0.733
8.68479	0.745
8.72543	0.769
8.76607	0.79
8.80671	0.808
8.84735	0.82
8.88799	0.832
8.92863	0.837
8.96927	0.839
9.00991	0.825
9.05055	0.754
9.09118	0.581
9.13182	0.552
9.17246	0.72
9.2131	0.795
9.25374	0.807
9.29438	0.82
9.33502	0.827
9.37566	0.822
9.4163	0.798
9.45693	0.752
9.49757	0.593
9.53821	0.245
9.57885	0.225
9.61949	0.544
9.66013	0.699
9.70077	0.791
9.74141	0.834
9.78205	0.843
9.82269	0.844
9.86332	0.819
9.90396	0.696
9.9446	0.455
9.98524	0.682
10.0259	0.807
10.0665	0.858
10.1072	0.882
10.1478	0.899
10.1884	0.907
10.2291	0.907
10.2697	0.911
10.3104	0.895
10.351	0.872
10.3916	0.86
10.4323	0.851
10.4729	0.807
10.5135	0.679
10.5542	0.648
10.5948	0.771
10.6355	0.834
10.6761	0.831
10.7167	0.807
10.7574	0.791
10.798	0.878
10.8387	0.902
10.8793	0.861
10.9199	0.887
10.9606	0.933
11.0012	0.95
11.0419	0.957
11.0825	0.96
11.1231	0.945
11.1638	0.87
11.2044	0.687
11.2451	0.747
11.2857	0.885
11.3263	0.935
11.367	0.953
11.4076	0.972
11.4482	0.981
11.4889	0.981
11.5295	0.965
11.5702	0.935
11.6108	0.953
11.6514	0.974
11.6921	0.979
11.7327	0.981
11.7734	0.986
11.814	0.989
11.8546	0.989
11.8953	0.986
11.9359	0.988
11.9766	0.988
12.0172	0.986
12.0578	0.982
12.0985	0.982
12.1391	0.982
12.1797	0.984
12.2204	0.984
12.261	0.981
12.3017	0.977
12.3423	0.981
12.3829	0.981
12.4236	0.979
12.4642	0.974
12.5049	0.97
12.5455	0.967
12.5861	0.95
12.6268	0.914
12.6674	0.872
12.7081	0.875
12.7487	0.931
12.7893	0.952
12.83	0.96
12.8706	0.962
12.9112	0.962
12.9519	0.962
12.9925	0.964
13.0332	0.967
13.0738	0.967
13.1144	0.967
13.1551	0.967
13.1957	0.96
13.2364	0.953
13.277	0.953
13.3176	0.957
13.3583	0.96
13.3989	0.96
13.4396	0.96
13.4802	0.96
13.5208	0.96
13.5615	0.952
13.6021	0.941
13.6428	0.931
13.6834	0.924
13.724	0.923
13.7647	0.926
13.8053	0.936
13.8459	0.94
13.8866	0.938
13.9272	0.938
13.9679	0.938
14.0085	0.938
14.0491	0.936
14.0898	0.936
14.1304	0.936
14.1711	0.935
14.2117	0.93
14.2523	0.928
14.293	0.926
14.3336	0.924
14.3743	0.919
14.4149	0.919
14.4555	0.916
14.4962	0.912
14.5368	0.906
14.5774	0.902
14.6181	0.897
14.6587	0.892
14.6994	0.889
14.74	0.882
14.7806	0.877
14.8213	0.868
14.8619	0.856
14.9026	0.834
14.9432	0.815
14.9838	0.803
15.0245	0.8
15.0651	0.795
15.1058	0.786
15.1464	0.776
15.187	0.773
15.2277	0.764
15.2683	0.757
15.3089	0.749
15.3496	0.737
15.3902	0.732
15.4309	0.725
15.4715	0.715
15.5121	0.706
15.5528	0.701
15.5934	0.692
15.6341	0.684
15.6747	0.668
15.7153	0.667
15.756	0.658
15.7966	0.653
15.8373	0.646
15.8779	0.638
15.9185	0.634
