Infrared Spectrum: 3-Methyl-4-phenyl-1-butene
Formula: C 11 H 14
CAS: 1647-06-9
State: gas
Instrument: HP-GC/MS/IRD
Origin: NIST Mass Spectrometry Data Center
1/CM	ABSORBANCE
550	0.0004444
562	0.0001815
574	0.0003036
586	0.0004565
598	0.000165
610	3.08e-05
622	0.0001155
634	0.0001925
646	0.0006127
658	0.0012672
670	0.002398
682	0.0041712
694	0.0078012
706	0.0066671
718	0.0039017
730	0.0051293
742	0.0046849
754	0.0017303
766	0.0006204
778	0.0003311
790	0.0001628
802	0.0003124
814	0.0003454
826	0.0002541
838	0.00022
850	0.0002013
862	0.0003201
874	0.000495
886	0.0010274
898	0.0024695
910	0.0059994
922	0.0053548
934	0.0019547
946	0.0009691
958	0.00077
970	0.0009944
982	0.0020878
994	0.0027445
1006	0.0017193
1018	0.0011066
1030	0.0014157
1042	0.0008745
1054	0.0007777
1066	0.0009933
1078	0.0009823
1090	0.0009427
1102	0.0009042
1114	0.0006765
1126	0.0004279
1138	0.0004499
1150	0.0002464
1162	0.000121
1174	6.49e-05
1186	0.0001672
1198	0.0001782
1210	0.0001848
1222	9.35e-05
1234	0.0001089
1246	0.0001089
1258	0.0001848
1270	0.0002376
1282	0.0002695
1294	0.0003949
1306	0.0004433
1318	0.0004345
1330	0.0004675
1342	0.0005291
1354	0.0004983
1366	0.0008272
1378	0.0014487
1390	0.0009493
1402	0.0007018
1414	0.0012221
1426	0.0014454
1438	0.0016203
1450	0.0027093
1462	0.0025905
1474	0.0015202
1486	0.0021373
1498	0.0030063
1510	0.0009669
1522	0.0003146
1534	0.0002662
1546	0.0002398
1558	0.0003102
1570	0.0005104
1582	0.0009757
1594	0.0016929
1606	0.0018997
1618	0.0011539
1630	0.0016676
1642	0.0022044
1654	0.0010769
1666	0.0004345
1678	0.0002398
1690	0.0001606
1702	0.0001474
1714	0.0001199
1726	0.0001518
1738	0.0002134
1750	0.0002101
1762	0.0001386
1774	0.0001837
1786	0.0004114
1798	0.0005236
1810	0.0004026
1822	0.0005599
1834	0.0007249
1846	0.0004422
1858	0.0003817
1870	0.0003674
1882	0.000341
1894	0.0001881
1906	0.0001331
1918	0.0002211
1930	0.0004037
1942	0.0005049
1954	0.0003916
1966	0.0001386
1978	0.0001045
1990	8.14e-05
2002	3.63e-05
2014	3.19e-05
2026	1.65e-05
2038	6.16e-05
2050	1.65e-05
2062	2.31e-05
2074	6.71e-05
2086	2.97e-05
2098	3.74e-05
2110	4.29e-05
2122	4.29e-05
2134	4.95e-05
2146	4.62e-05
2158	2.53e-05
2170	1.76e-05
2182	4.84e-05
2194	5.72e-05
2206	3.3e-05
2218	6.05e-05
2230	3.96e-05
2242	4.84e-05
2254	5.72e-05
2266	3.41e-05
2278	4.29e-05
2290	7.15e-05
2302	5.61e-05
2314	0.0001111
2326	9.35e-05
2338	8.69e-05
2350	7.7e-05
2362	8.58e-05
2374	4.62e-05
2386	4.62e-05
2398	5.39e-05
2410	2.97e-05
2422	5.39e-05
2434	5.5e-05
2446	2.64e-05
2458	3.19e-05
2470	5.06e-05
2482	3.85e-05
2494	4.51e-05
2506	3.41e-05
2518	7.37e-05
2530	7.48e-05
2542	7.15e-05
2554	9.79e-05
2566	8.8e-05
2578	8.69e-05
2590	0.0001155
2602	0.0001155
2614	6.71e-05
2626	0.0001122
2638	0.0001364
2650	6.16e-05
2662	0.0001122
2674	5.94e-05
2686	9.35e-05
2698	9.57e-05
2710	0.0001045
2722	0.0001672
2734	0.0001771
2746	0.0002046
2758	0.0001804
2770	0.0002145
2782	0.0002354
2794	0.0002442
2806	0.000352
2818	0.0004433
2830	0.0007161
2842	0.001309
2854	0.0023309
2866	0.0033572
2878	0.0042691
2890	0.0043065
2902	0.0046519
2914	0.0066836
2926	0.0091795
2938	0.0081477
2950	0.0060181
2962	0.0081191
2974	0.011
2986	0.0070367
2998	0.0040425
3010	0.0040931
3022	0.0054802
3034	0.0073766
3046	0.0049984
3058	0.004939
3070	0.0079662
3082	0.0078133
3094	0.0054527
3106	0.0024563
3118	0.0011924
3130	0.0005764
3142	0.000407
3154	0.0003652
3166	0.0002882
3178	0.0002717
3190	0.0002266
3202	0.0001584
3214	0.0001265
3226	0.0001232
3238	0.0001144
3250	0.0001408
3262	0.0001661
3274	0.0001155
3286	7.04e-05
3298	9.35e-05
3310	0.0001243
3322	4.73e-05
3334	6.16e-05
3346	8.03e-05
3358	9.79e-05
3370	7.15e-05
3382	6.27e-05
3394	1.1e-05
3406	4.73e-05
3418	7.26e-05
3430	5.06e-05
3442	6.16e-05
3454	4.4e-05
3466	1.32e-05
3478	6.93e-05
3490	3.74e-05
3502	5.17e-05
3514	3.08e-05
3526	3.52e-05
3538	2.09e-05
3550	5.72e-05
3562	1.43e-05
3574	3.3e-05
3586	2.86e-05
3598	2.53e-05
3610	4.95e-05
3622	9.9e-05
3634	6.27e-05
3646	9.68e-05
3658	0.0001694
3670	7.26e-05
3682	8.03e-05
3694	2.64e-05
3706	2.86e-05
3718	8.36e-05
3730	7.48e-05
3742	6.16e-05
3754	8.47e-05
3766	8.03e-05
3778	5.5e-05
3790	5.28e-05
3802	6.05e-05
3814	8.03e-05
3826	8.69e-05
3838	6.6e-05
