Infrared Spectrum: 1-Bromo-3,3-dimethylbutane
Formula: C 6 H 13 Br
CAS: 1647-23-0
State: gas
Instrument: HP-GC/MS/IRD
Origin: NIST Mass Spectrometry Data Center
1/CM	ABSORBANCE
550	0.0002877
562	0.000336
574	0.0002478
586	0.0001687
598	0.0003668
610	0.0002744
622	0.000553
634	0.0005264
646	0.0004816
658	0.0005208
670	0.0005978
682	0.0004333
694	0.0002275
706	0.0001225
718	0.0001344
730	8.75e-05
742	9.59e-05
754	8.89e-05
766	2.52e-05
778	9.94e-05
790	0.0001547
802	0.0003073
814	0.0004641
826	0.0005642
838	0.0006489
850	0.0008673
862	0.0011683
874	0.0019152
886	0.0032361
898	0.0050197
910	0.0068698
922	0.0065023
934	0.0044471
946	0.003528
958	0.0036085
970	0.0042364
982	0.0053977
994	0.0061509
1006	0.0052339
1018	0.0035756
1030	0.0021889
1042	0.0013174
1054	0.0008701
1066	0.0006965
1078	0.0005222
1090	0.0005453
1102	0.0005894
1114	0.0004648
1126	0.0003612
1138	0.0003136
1150	0.0003276
1162	0.0003633
1174	0.0003045
1186	0.0001463
1198	0.0001925
1210	0.0002856
1222	0.0002422
1234	0.000231
1246	0.0004466
1258	0.0007056
1270	0.0007938
1282	0.0006685
1294	0.0007266
1306	0.000693
1318	0.0005089
1330	0.0003444
1342	0.0002646
1354	0.0002317
1366	0.000203
1378	0.0002688
1390	0.0003997
1402	0.0006566
1414	0.001036
1426	0.0011592
1438	0.0010374
1450	0.0007448
1462	0.0004032
1474	0.0002541
1486	0.0001974
1498	0.0001911
1510	0.0002072
1522	0.0002422
1534	0.0002597
1546	0.0003073
1558	0.0003682
1570	0.0004886
1582	0.000658
1594	0.0010927
1606	0.0014329
1618	0.0015778
1630	0.0027027
1642	0.0030632
1654	0.0018025
1666	0.0007126
1678	0.0002709
1690	0.0001673
1702	0.0001442
1714	0.0001302
1726	0.000126
1738	0.0001344
1750	0.0001771
1762	0.0002534
1774	0.000259
1786	0.0004144
1798	0.0010136
1810	0.0012712
1822	0.0009107
1834	0.0007147
1846	0.000546
1858	0.000357
1870	0.0001876
1882	0.0001484
1894	0.0001498
1906	0.000126
1918	0.0001141
1930	9.24e-05
1942	8.05e-05
1954	8.89e-05
1966	0.0001099
1978	8.68e-05
1990	0.000119
2002	6.44e-05
2014	5.67e-05
2026	5.39e-05
2038	2.03e-05
2050	1.33e-05
2062	1.96e-05
2074	6.3e-06
2086	3.85e-05
2098	2.52e-05
2110	2.8e-05
2122	2.73e-05
2134	2.8e-05
2146	3.99e-05
2158	3.43e-05
2170	3.43e-05
2182	5.18e-05
2194	3.15e-05
2206	3.43e-05
2218	3.08e-05
2230	2.31e-05
2242	5.18e-05
2254	3.08e-05
2266	4.34e-05
2278	6.3e-05
2290	6.79e-05
2302	3.01e-05
2314	5.25e-05
2326	0.0001001
2338	8.82e-05
2350	2.87e-05
2362	7.98e-05
2374	9.03e-05
2386	6.16e-05
2398	3.78e-05
2410	7.35e-05
2422	4.69e-05
2434	5.81e-05
2446	5.81e-05
2458	0
2470	4.69e-05
2482	3.57e-05
2494	4.76e-05
2506	5.6e-06
2518	3.71e-05
2530	1.47e-05
2542	5.11e-05
2554	5.11e-05
2566	4.27e-05
2578	2.52e-05
2590	5.46e-05
2602	5.04e-05
2614	4.55e-05
2626	4.62e-05
2638	4.97e-05
2650	4.13e-05
2662	6.58e-05
2674	7e-05
2686	4.83e-05
2698	3.36e-05
2710	0.0001057
2722	8.68e-05
2734	9.94e-05
2746	9.8e-05
2758	0.0001547
2770	0.0001295
2782	0.0001603
2794	0.0001925
2806	0.0003248
2818	0.0005166
2830	0.000763
2842	0.0009513
2854	0.0009114
2866	0.0009499
2878	0.001281
2890	0.0020412
2902	0.0026019
2914	0.0025907
2926	0.0023478
2938	0.0019509
2950	0.001757
2962	0.0019145
2974	0.0024563
2986	0.0031465
2998	0.0040103
3010	0.0051772
3022	0.0047551
3034	0.0033327
3046	0.0027027
3058	0.0025508
3070	0.0027202
3082	0.0038948
3094	0.0041979
3106	0.0024311
3118	0.0010339
3130	0.0005936
3142	0.0003514
3154	0.0003206
3166	0.0002184
3178	0.0002107
3190	0.0001456
3202	0.00014
3214	0.0001435
3226	0.0001512
3238	0.0001162
3250	8.47e-05
3262	0.0001099
3274	0.0001232
3286	0.0001456
3298	8.4e-05
3310	6.79e-05
3322	3.64e-05
3334	8.89e-05
3346	9.03e-05
3358	7.84e-05
3370	0.000105
3382	7e-06
3394	9.8e-05
3406	0.0001526
3418	1.54e-05
3430	7.63e-05
3442	6.3e-05
3454	0.0001183
3466	0.000168
3478	0.0001057
3490	0.0001001
3502	0.0001232
3514	5.81e-05
3526	0.0001715
3538	0.0001134
3550	8.05e-05
3562	0.0001449
3574	0.0001099
3586	0.0002135
3598	0.0001323
3610	9.17e-05
3622	0.0001078
3634	6.23e-05
3646	0.0001162
3658	0.0001414
3670	9.52e-05
3682	0.0001288
3694	0.0001372
3706	0.000196
3718	0.000154
3730	0.000147
3742	0.0001708
3754	0.0001029
3766	0.0001652
3778	0.0001967
3790	0.0001365
3802	0.000161
3814	0.0001288
3826	8.96e-05
3838	0.0001848
