Infrared Spectrum: 2Alpha-FLUORO-17Beta-HYDROXY-5Alpha-ANDROSTAN-3-ONE
Formula: C19 H29 F O2
CAS: 1649-46-3
State: SOLID (KBr DISC)
Class: COBLENTZ III
Instrument: BECKMAN IR-7
Sampling: TRANSMISSION
Resolution: 4
Origin: THE WORCESTER FOUNDATION FOR EXPERIMENTAL BIOLOGY, Neal L. McNiven
1/CM	TRANSMITTANCE
603.638	0.635
612.37	0.571
621.102	0.567
629.833	0.642
638.565	0.672
647.297	0.548
656.029	0.738
664.761	0.77
673.493	0.815
682.224	0.852
690.956	0.86
699.688	0.849
708.42	0.873
717.152	0.894
725.884	0.905
734.615	0.908
743.347	0.891
752.079	0.92
760.811	0.923
769.543	0.912
778.275	0.903
787.006	0.937
795.738	0.937
804.47	0.936
813.202	0.919
821.934	0.936
830.666	0.888
839.397	0.917
848.129	0.928
856.861	0.939
865.593	0.941
874.325	0.897
883.057	0.905
891.788	0.897
900.52	0.82
909.252	0.818
917.984	0.824
926.716	0.87
935.448	0.873
944.179	0.796
952.911	0.815
961.643	0.808
970.375	0.796
979.107	0.76
987.839	0.6261
996.57	0.689
1005.3	0.586
1014.03	0.502
1022.77	0.368
1031.5	0.346
1040.23	0.484
1048.96	0.477
1057.69	0.38
1066.43	0.377
1075.16	0.428
1083.89	0.343
1092.62	0.49
1101.35	0.595
1110.08	0.624
1118.82	0.572
1127.55	0.625
1136.28	0.559
1145.01	0.722
1153.74	0.711
1162.48	0.723
1171.21	0.757
1179.94	0.8
1188.67	0.727
1197.4	0.72
1206.13	0.767
1214.87	0.792
1223.6	0.821
1232.33	0.791
1241.06	0.779
1249.79	0.749
1258.53	0.712
1267.26	0.732
1275.99	0.704
1284.72	0.736
1293.45	0.689
1302.18	0.785
1310.92	0.689
1319.65	0.687
1328.38	0.675
1337.11	0.69
1345.84	0.743
1354.58	0.738
1363.31	0.741
1372.04	0.623
1380.77	0.659
1389.5	0.581
1398.23	0.684
1406.97	0.654
1415.7	0.716
1424.43	0.69
1433.16	0.6559
1441.89	0.455
1450.63	0.585
1459.36	0.691
1468.09	0.667
1476.82	0.805
1485.55	0.854
1494.28	0.872
1503.02	0.883
1511.75	0.889
1520.48	0.894
1529.21	0.897
1537.94	0.899
1546.68	0.902
1555.41	0.905
1564.14	0.905
1572.87	0.902
1581.6	0.899
1590.33	0.895
1599.07	0.892
1607.8	0.89
1616.53	0.883
1625.26	0.877
1633.99	0.87
1642.73	0.867
1651.46	0.864
1660.19	0.862
1668.92	0.857
1677.65	0.813
1686.39	0.779
1695.12	0.714
1703.85	0.665
1712.58	0.136
1721.31	0.153
1730.04	0.329
1738.78	0.6121
1747.51	0.83
1756.24	0.881
1764.97	0.909
1773.7	0.918
1782.44	0.924
1791.17	0.928
1799.9	0.931
1808.63	0.936
1817.36	0.941
1826.09	0.945
1834.83	0.95
1843.56	0.95
1852.29	0.952
1861.02	0.954
1869.75	0.955
1878.49	0.955
1887.22	0.955
1895.95	0.955
1904.68	0.955
1913.41	0.956
1922.14	0.956
1930.88	0.955
1939.61	0.953
1948.34	0.952
1957.07	0.951
1965.8	0.95
1974.54	0.949
1983.27	0.949
1992	0.949
2000.73	0.947
2009.46	0.947
2018.19	0.947
2026.93	0.947
2035.66	0.947
2044.39	0.947
2053.12	0.947
2061.85	0.947
2070.59	0.947
2079.32	0.947
2088.05	0.947
2096.78	0.947
2105.51	0.947
2114.24	0.947
2122.98	0.947
2131.71	0.947
2140.44	0.947
2149.17	0.947
2157.9	0.947
2166.64	0.946
2175.37	0.945
2184.1	0.9443
2192.83	0.944
2201.56	0.9412
2210.3	0.9392
2219.03	0.938
2227.76	0.936
2236.49	0.9341
2245.22	0.9321
2253.95	0.931
2262.69	0.928
2271.42	0.927
2280.15	0.926
2288.88	0.924
2297.61	0.924
2306.35	0.924
2315.08	0.925
2323.81	0.9239
2332.54	0.9239
2341.27	0.923
2350	0.9228
2358.74	0.9218
2367.47	0.9208
2376.2	0.92
2384.93	0.9197
2393.66	0.9187
2402.4	0.9177
2411.13	0.915
2419.86	0.9146
2428.59	0.913
2437.32	0.912
2446.05	0.91
2454.79	0.9085
2463.52	0.907
2472.25	0.9055
2480.98	0.903
2489.71	0.902
2498.45	0.902
2507.18	0.9
2515.91	0.899
2524.64	0.8973
2533.37	0.8953
2542.1	0.8933
2550.84	0.891
2559.57	0.8903
2568.3	0.8872
2577.03	0.8852
2585.76	0.8812
2594.5	0.8782
2603.23	0.8741
2611.96	0.8691
2620.69	0.8641
2629.42	0.8601
2638.15	0.858
2646.89	0.855
2655.62	0.852
2664.35	0.851
2673.08	0.85
2681.81	0.851
2690.55	0.852
2699.28	0.852
2708.01	0.852
2716.74	0.8518
2725.47	0.8508
2734.2	0.8498
2742.94	0.8488
2751.67	0.847
2760.4	0.8457
2769.13	0.8434
2777.86	0.836
2786.6	0.8256
2795.33	0.8011
2804.06	0.7563
2812.79	0.6972
2821.52	0.5861
2830.26	0.3756
2838.99	0.3645
2847.72	0.3916
2856.45	0.3807
2865.18	0.3565
2873.91	0.3906
2882.65	0.3829
2891.38	0.3517
2900.11	0.3096
2908.84	0.2448
2917.57	0.2128
2926.31	0.2117
2935.04	0.2353
2943.77	0.2653
2952.5	0.2952
2961.23	0.3523
2969.96	0.4287
2978.7	0.515
2987.43	0.6011
2996.16	0.678
3004.89	0.7369
3013.62	0.7697
3022.36	0.7899
3031.09	0.801
3039.82	0.8071
3048.55	0.812
3057.28	0.8131
3066.01	0.815
3074.75	0.8151
3083.48	0.816
3092.21	0.815
3100.94	0.815
3109.67	0.8138
3118.41	0.811
3127.14	0.81
3135.87	0.8097
3144.6	0.808
3153.33	0.807
3162.06	0.8056
3170.8	0.8016
3179.53	0.7982
3188.26	0.7946
3196.99	0.7925
3205.72	0.7895
3214.46	0.787
3223.19	0.7835
3231.92	0.7825
3240.65	0.7784
3249.38	0.7728
3258.11	0.7674
3266.85	0.7624
3275.58	0.754
3284.31	0.7483
3293.04	0.7453
3301.77	0.7433
3310.51	0.7402
3319.24	0.7364
3327.97	0.7332
3336.7	0.7255
3345.43	0.7203
3354.16	0.7183
3362.9	0.7094
3371.63	0.7031
3380.36	0.6991
3389.09	0.6921
3397.82	0.681
3406.56	0.6619
3415.29	0.6422
3424.02	0.6059
3432.75	0.6008
3441.48	0.5822
3450.22	0.5582
3458.95	0.5019
3467.68	0.442
3476.41	0.4007
3485.14	0.3881
3493.87	0.3809
3502.61	0.3276
3511.34	0.3345
3520.07	0.4253
3528.8	0.4811
3537.53	0.5319
3546.27	0.5764
3555	0.6134
3563.73	0.6361
3572.46	0.6523
3581.19	0.6683
3589.92	0.6926
3598.66	0.7142
3607.39	0.7384
3616.12	0.7599
3624.85	0.7758
3633.58	0.7925
3642.32	0.8033
3651.05	0.8097
3659.78	0.8134
3668.51	0.8184
3677.24	0.8272
3685.97	0.831
3694.71	0.8318
3703.44	0.832
3712.17	0.8338
3720.9	0.8406
3729.63	0.8489
3738.37	0.8499
3747.1	0.851
3755.83	0.851
3764.56	0.85
3773.29	0.849
3782.02	0.849
3790.76	0.848
3799.49	0.8459
3808.22	0.844
3816.95	0.8428
3825.68	0.841
3834.42	0.8408
3843.15	0.84
3851.88	0.84
3860.61	0.8402
3869.34	0.841
3878.07	0.8387
3886.81	0.836
3895.54	0.8363
3904.27	0.8373
3913	0.8366
3921.73	0.8346
3930.47	0.833
3939.2	0.832
3947.93	0.8315
3956.66	0.831
3965.39	0.831
3974.13	0.8325
3982.86	0.8324
3991.59	0.8314
4000.32	0.831
4009.05	0.8304
