Infrared Spectrum: 1,5-Dimethylcyclopentene
Formula: C 7 H 12
CAS: 16491-15-9
State: gas
Instrument: HP-GC/MS/IRD
Origin: NIST Mass Spectrometry Data Center
1/CM	ABSORBANCE
550	0.0013283
562	0.0006105
574	3.33e-05
586	7.77e-05
598	3.33e-05
610	0.0001998
622	9.99e-05
634	0.0002257
646	0.0002923
658	0.000296
670	0.0003663
682	0.0004662
694	0.0003922
706	0.000444
718	0.0004662
730	0.0004292
742	0.0004847
754	0.0007252
766	0.0010545
778	0.0019647
790	0.0031672
802	0.0038221
814	0.0027269
826	0.0015318
838	0.0009657
850	0.0006216
862	0.000555
874	0.0005106
886	0.0005846
898	0.0008177
910	0.0009694
922	0.0008621
934	0.0006364
946	0.0005698
958	0.0006068
970	0.0006438
982	0.0007474
994	0.0012543
1006	0.0023199
1018	0.0026122
1030	0.0020276
1042	0.0013024
1054	0.0011877
1066	0.001295
1078	0.0015873
1090	0.0012691
1102	0.0008399
1114	0.0004847
1126	0.000407
1138	0.0004736
1150	0.0006068
1162	0.000555
1174	0.000444
1186	0.000444
1198	0.0003996
1210	0.0003848
1222	0.0004255
1234	0.0004218
1246	0.0006068
1258	0.0006919
1270	0.0007918
1282	0.000925
1294	0.0011026
1306	0.0011137
1318	0.0013949
1330	0.0017131
1342	0.0016095
1354	0.00148
1366	0.0019203
1378	0.0026566
1390	0.0023125
1402	0.0012173
1414	0.0011322
1426	0.0019573
1438	0.0036038
1450	0.0047397
1462	0.0043327
1474	0.0026418
1486	0.0012913
1498	0.0007289
1510	0.0006105
1522	0.0004995
1534	0.0004255
1546	0.0004662
1558	0.0004514
1570	0.0005439
1582	0.0006771
1594	0.0007289
1606	0.0007326
1618	0.0006771
1630	0.0006512
1642	0.0007511
1654	0.0006919
1666	0.0005439
1678	0.0003293
1690	0.0002664
1702	0.0001998
1714	0.0001998
1726	0.000185
1738	0.0002035
1750	0.0002146
1762	0.0002109
1774	0.0001776
1786	0.0001517
1798	0.000148
1810	0.0001332
1822	0.000148
1834	0.0001554
1846	0.0001443
1858	0.0001332
1870	0.0001665
1882	0.0001776
1894	0.0001295
1906	0.0001221
1918	8.51e-05
1930	8.88e-05
1942	8.14e-05
1954	7.77e-05
1966	8.14e-05
1978	5.55e-05
1990	8.88e-05
2002	9.62e-05
2014	7.77e-05
2026	8.51e-05
2038	9.25e-05
2050	4.81e-05
2062	5.18e-05
2074	4.81e-05
2086	2.22e-05
2098	2.22e-05
2110	2.22e-05
2122	2.59e-05
2134	2.96e-05
2146	5.55e-05
2158	5.92e-05
2170	8.51e-05
2182	5.18e-05
2194	4.44e-05
2206	5.55e-05
2218	2.22e-05
2230	2.22e-05
2242	4.44e-05
2254	5.18e-05
2266	1.48e-05
2278	3.33e-05
2290	2.22e-05
2302	1.48e-05
2314	7.4e-05
2326	5.18e-05
2338	0.000111
2350	8.51e-05
2362	7.4e-05
2374	4.81e-05
2386	2.22e-05
2398	4.44e-05
2410	6.66e-05
2422	5.55e-05
2434	8.88e-05
2446	6.29e-05
2458	7.03e-05
2470	4.81e-05
2482	7.03e-05
2494	7.4e-05
2506	9.62e-05
2518	9.62e-05
2530	0.0001295
2542	0.0001924
2554	0.0001887
2566	0.0002146
2578	0.0002035
2590	0.000296
2602	0.0002997
2614	0.0002886
2626	0.0002479
2638	0.0002257
2650	0.0001998
2662	0.0002035
2674	0.0001961
2686	0.0001702
2698	0.000296
2710	0.0003811
2722	0.0005735
2734	0.0007844
2746	0.0008288
2758	0.0007733
2770	0.0007696
2782	0.0009583
2794	0.0013172
2806	0.0017982
2818	0.0025826
2830	0.0043882
2842	0.0090835
2854	0.01591
2866	0.0211529
2878	0.0200984
2890	0.0163096
2902	0.0156806
2914	0.0195545
2926	0.0245791
2938	0.0295926
2950	0.0357605
2962	0.0347208
2974	0.0235098
2986	0.0102453
2998	0.0041255
3010	0.0028823
3022	0.0033115
3034	0.0056018
3046	0.0063899
3058	0.0050542
3070	0.0020387
3082	0.0011803
3094	0.0009509
3106	0.0007659
3118	0.0007326
3130	0.0005735
3142	0.0004921
3154	0.0004255
3166	0.0004921
3178	0.0004736
3190	0.0003996
3202	0.0002294
3214	0.0002923
3226	0.0001887
3238	0.0001739
3250	0.000148
3262	0.0001776
3274	0.000148
3286	0.0001813
3298	0.0001961
3310	0.0001332
3322	0.000185
3334	0.0001258
3346	0.0001147
3358	5.92e-05
3370	4.81e-05
3382	4.44e-05
3394	3.7e-05
3406	7.03e-05
3418	0.0001258
3430	4.44e-05
3442	2.96e-05
3454	3.7e-06
3466	2.22e-05
3478	8.51e-05
3490	0.0001147
3502	9.62e-05
3514	0.000111
3526	0.000111
3538	4.81e-05
3550	9.99e-05
3562	7.03e-05
3574	5.55e-05
3586	8.51e-05
3598	9.99e-05
3610	0.0001147
3622	0.0001036
3634	0.0001147
3646	8.88e-05
3658	0.0001369
3670	9.99e-05
3682	7.77e-05
3694	0.0001924
3706	0.0001998
3718	0.0001517
3730	0.0001406
3742	0.0001147
3754	0.0001147
3766	9.99e-05
3778	0.0001406
3790	0.0001591
3802	0.0001591
3814	0.0001554
3826	0.0002405
3838	0.0001776
