Infrared Spectrum: 2-Iodo-5-methylthiophene
Formula: C 5 H 5 I S
CAS: 16494-36-3
State: gas
Origin: EPA-IR VAPOR PHASE LIBRARY
1/CM	ABSORBANCE
549.8	0.0008536
559.445	0.0010557
569.09	0.001924
578.734	0.002104
588.379	0.0008034
598.024	0.0007278
607.669	0.0006296
617.313	0.0006807
626.958	0.0005202
636.603	0.0008668
646.248	0.001904
655.893	0.004224
665.537	0.005374
675.182	0.002954
684.827	0.001624
694.472	0.0013389
704.116	0.0011009
713.761	0.001574
723.406	0.003054
733.051	0.003384
742.695	0.002694
752.34	0.002284
761.985	0.007424
771.63	0.022274
781.275	0.037114
790.919	0.039214
800.564	0.026554
810.209	0.008854
819.854	0.002694
829.498	0.001624
839.143	0.001444
848.788	0.001434
858.433	0.0011701
868.078	0.0005823
877.722	0.0008693
887.367	0.001714
897.012	0.001984
906.657	0.002794
916.301	0.006964
925.946	0.019114
935.591	0.022624
945.236	0.009014
954.88	0.004014
964.525	0.003124
974.17	0.004604
983.815	0.006174
993.46	0.003884
1003.1	0.002014
1012.75	0.002324
1022.39	0.003724
1032.04	0.005344
1041.68	0.009874
1051.33	0.010504
1060.97	0.006224
1070.62	0.002624
1080.26	0.001654
1089.91	0.000983
1099.55	0.001444
1109.2	0.001524
1118.84	0.001884
1128.49	0.002284
1138.13	0.004194
1147.78	0.007124
1157.42	0.009604
1167.07	0.007814
1176.71	0.003614
1186.36	0.002074
1196	0.001684
1205.64	0.005394
1215.29	0.020484
1224.93	0.013454
1234.58	0.001794
1244.22	0.0012705
1253.87	0.001474
1263.51	0.0011805
1273.16	0.001229
1282.8	0.001404
1292.45	0.0012732
1302.09	0.0012614
1311.74	0.001564
1321.38	0.001734
1331.03	0.002064
1340.67	0.002084
1350.32	0.001894
1359.96	0.002044
1369.61	0.002334
1379.25	0.002724
1388.9	0.002884
1398.54	0.003234
1408.18	0.004954
1417.83	0.009114
1427.47	0.015724
1437.12	0.017124
1446.76	0.012394
1456.41	0.006984
1466.05	0.004634
1475.7	0.003334
1485.34	0.002474
1494.99	0.002244
1504.63	0.002694
1514.28	0.003414
1523.92	0.004444
1533.57	0.005834
1543.21	0.005774
1552.86	0.004404
1562.5	0.004444
1572.15	0.004234
1581.79	0.003494
1591.44	0.001974
1601.08	0.0012956
1610.73	0.0010641
1620.37	0.0011122
1630.01	0.0011075
1639.66	0.0012659
1649.3	0.0012068
1658.95	0.0008753
1668.59	0.0007218
1678.24	0.000733
1687.88	0.0008287
1697.53	0.0013067
1707.17	0.002194
1716.82	0.003544
1726.46	0.003644
1736.11	0.002824
1745.75	0.001346
1755.4	0.0005665
1765.04	0.0005045
1774.69	0.0004897
1784.33	0.0005434
1793.98	0.0005626
1803.62	0.0006083
1813.27	0.0006664
1822.91	0.0007362
1832.55	0.0005435
1842.2	0.00043146
1851.84	0.00040362
1861.49	0.0004531
1871.13	0.0005377
1880.78	0.00040356
1890.42	0.0004743
1900.07	0.00041373
1909.71	0.000365944
1919.36	0.00037613
1929	0.00041104
1938.65	0.00038874
1948.29	0.00042875
1957.94	0.0005147
1967.58	0.0005181
1977.23	0.0004888
1986.87	0.0005157
1996.52	0.0005755
2006.16	0.0005272
2015.81	0.0004788
2025.45	0.00044346
2035.1	0.00041826
2044.74	0.0004669
2054.38	0.0004957
2064.03	0.0004883
2073.67	0.000493
2083.32	0.0006268
2092.96	0.0007079
2102.61	0.0007789
2112.25	0.0006318
2121.9	0.0005802
2131.54	0.0005474
2141.19	0.00046349
2150.83	0.0005492
2160.48	0.0005932
2170.12	0.0005174
2179.77	0.0005135
2189.41	0.0003762
2199.06	0.00044899
2208.7	0.00044211
2218.35	0.000425
2227.99	0.000365475
2237.64	0.00044087
2247.28	0.0005077
2256.92	0.0006686
2266.57	0.0006138
2276.21	0.0005551
2285.86	0.0004427
2295.5	0.0006437
2305.15	0.0008304
2314.79	0.0008138
2324.44	0.0007248
2334.08	0.0005756
2343.73	0.0006551
2353.37	0.0007388
2363.02	0.000851
2372.66	0.000772
2382.31	0.0006327
2391.95	0.0005669
2401.6	0.000711
2411.24	0.0006464
2420.89	0.0007204
2430.53	0.0007246
2440.18	0.000761
2449.82	0.0006324
2459.47	0.0006925
2469.11	0.0007377
2478.75	0.0008915
2488.4	0.0005613
2498.04	0.0005843
2507.69	0.0006237
2517.33	0.0007358
2526.98	0.0007322
2536.62	0.0008485
2546.27	0.000855
2555.91	0.0005789
2565.56	0.0005191
2575.2	0.0005703
2584.85	0.0005684
2594.49	0.0005686
2604.14	0.00044547
2613.78	0.0004724
2623.43	0.00044218
2633.07	0.00042361
2642.72	0.0003305
2652.36	0.0005179
2662.01	0.0003207
2671.65	0.00045413
2681.29	0.00044998
2690.94	0.00043844
2700.58	0.00040805
2710.23	0.00040394
2719.87	0.00042152
2729.52	0.0006253
2739.16	0.0011542
2748.81	0.001794
2758.45	0.0012281
2768.1	0.0005067
2777.74	0.0007279
2787.39	0.0006813
2797.03	0.0007948
2806.68	0.0008655
2816.32	0.0010268
2825.97	0.001494
2835.61	0.001964
2845.26	0.002924
2854.9	0.004484
2864.55	0.007954
2874.19	0.012774
2883.84	0.012194
2893.48	0.008964
2903.12	0.007584
2912.77	0.008024
2922.41	0.013794
2932.06	0.030624
2941.7	0.025644
2951.35	0.009194
2960.99	0.008424
2970.64	0.008564
2980.28	0.008444
2989.93	0.006644
2999.57	0.004444
3009.22	0.003374
3018.86	0.003554
3028.51	0.004524
3038.15	0.006294
3047.8	0.007824
3057.44	0.007684
3067.09	0.006834
3076.73	0.007504
3086.38	0.006834
3096.02	0.004364
3105.67	0.003034
3115.31	0.001714
3124.95	0.0009761
3134.6	0.0007659
3144.24	0.0006253
3153.89	0.0003318
3163.53	0.0005265
3173.18	0.00026
3182.82	0.00042033
3192.47	0.00038538
3202.11	0.00042417
3211.76	0.0005236
3221.4	0.0002681
3231.05	0.0006
3240.69	0.0002644
3250.34	0.000366551
3259.98	0.0002659
3269.63	0.00042655
3279.27	0.0003264
3288.92	0.00035771
3298.56	0.0002828
3308.21	0.0003323
3317.85	0.000234
3327.49	0.00040919
3337.14	0.0003224
3346.78	0.00045335
3356.43	7.7e-05
3366.07	0.0003192
3375.72	0.0003339
3385.36	0.000242
3395.01	0.000215
3404.65	0.000245
3414.3	0.0003083
3423.94	0.00044096
3433.59	0.0002887
3443.23	0.0003181
3452.88	0.000225
3462.52	0.000222
3472.17	0.000257
3481.81	0.000121
3491.46	0.000247
3501.1	9.7e-05
3510.75	0.00044999
3520.39	0.0003099
3530.04	0.0002819
3539.68	0.000252
3549.32	0.0002693
3558.97	0.000158
3568.61	0.0002801
3578.26	0.000233
3587.9	0.000151
3597.55	0
3607.19	0.000178
3616.84	0.000243
3626.48	0.000247
3636.13	0.000292
3645.77	0.00036021
3655.42	0.0004067
3665.06	0.000213
3674.71	0.00040936
3684.35	0.0003174
3694	0.000251
3703.64	0.000221
3713.29	0.00040943
3722.93	0.000192
3732.58	0.000204
3742.22	0.0004898
3751.86	0.0003507
3761.51	0.0003137
3771.15	0.0003311
3780.8	0.00039037
3790.44	0.0004726
3800.09	0.0006554
3809.73	0.0005914
3819.38	0.0008101
3829.02	0.0007791
3838.67	0.00043383
3848.31	0.00043378
3857.96	0.000217
3867.6	0.0003393
3877.25	0.0003474
3886.89	0.0002773
3896.54	0.00041114
3906.18	0.00041397
3915.83	0.000368362
3925.47	0.00040487
3935.12	0.00037472
3944.76	0.0002789
3954.41	0.00042061
3964.05	0.0004792
3973.69	3.1e-05
3983.34	0.0007105
3992.98	0.00043841
