Infrared Spectrum: 4-FLUORO-17Beta-HYDROXYANDROST-4-EN-3-ONE
Formula: C19 H27 F O2
CAS: 1649-25-8
State: SOLID (KBr DISC)
Class: COBLENTZ III
Instrument: BECKMAN IR-7
Sampling: TRANSMISSION
Resolution: 4
Origin: THE WORCESTER FOUNDATION FOR EXPERIMENTAL BIOLOGY, Neal L. McNiven
1/CM	TRANSMITTANCE
599.272	0.686
608.008	0.547
616.745	0.577
625.481	0.626
634.217	0.675
642.954	0.722
651.69	0.751
660.426	0.763
669.163	0.751
677.899	0.801
686.635	0.802
695.372	0.844
704.108	0.851
712.845	0.836
721.581	0.852
730.317	0.886
739.054	0.906
747.79	0.904
756.526	0.912
765.263	0.918
773.999	0.917
782.735	0.88
791.472	0.919
800.208	0.922
808.944	0.911
817.681	0.907
826.417	0.861
835.153	0.809
843.89	0.894
852.626	0.893
861.362	0.859
870.099	0.691
878.835	0.858
887.571	0.901
896.308	0.872
905.044	0.75
913.78	0.842
922.517	0.845
931.253	0.722
939.99	0.803
948.726	0.764
957.462	0.749
966.199	0.801
974.935	0.818
983.671	0.769
992.408	0.653
1001.14	0.731
1009.88	0.601
1018.62	0.631
1027.35	0.662
1036.09	0.595
1044.83	0.597
1053.56	0.447
1062.3	0.484
1071.03	0.404
1079.77	0.571
1088.51	0.7
1097.24	0.716
1105.98	0.724
1114.72	0.632
1123.45	0.705
1132.19	0.64
1140.93	0.607
1149.66	0.473
1158.4	0.6469
1167.13	0.751
1175.87	0.749
1184.61	0.69
1193.34	0.613
1202.08	0.725
1210.82	0.724
1219.55	0.668
1228.29	0.775
1237.03	0.78
1245.76	0.712
1254.5	0.735
1263.23	0.714
1271.97	0.739
1280.71	0.735
1289.44	0.76
1298.18	0.765
1306.92	0.722
1315.65	0.615
1324.39	0.587
1333.13	0.63
1341.86	0.626
1350.6	0.648
1359.33	0.528
1368.07	0.68
1376.81	0.634
1385.54	0.672
1394.28	0.693
1403.02	0.719
1411.75	0.64
1420.49	0.687
1429.22	0.634
1437.96	0.571
1446.7	0.574
1455.43	0.664
1464.17	0.677
1472.91	0.761
1481.64	0.862
1490.38	0.888
1499.12	0.894
1507.85	0.898
1516.59	0.899
1525.32	0.899
1534.06	0.897
1542.8	0.896
1551.53	0.894
1560.27	0.891
1569.01	0.88
1577.74	0.87
1586.48	0.857
1595.22	0.834
1603.95	0.802
1612.69	0.732
1621.42	0.621
1630.16	0.552
1638.9	0.597
1647.63	0.602
1656.37	0.544
1665.11	0.431
1673.84	0.401
1682.58	0.394
1691.32	0.251
1700.05	0.505
1708.79	0.686
1717.52	0.752
1726.26	0.802
1735	0.843
1743.73	0.866
1752.47	0.901
1761.21	0.918
1769.94	0.92
1778.68	0.926
1787.42	0.933
1796.15	0.938
1804.89	0.945
1813.62	0.949
1822.36	0.951
1831.1	0.951
1839.83	0.951
1848.57	0.951
1857.31	0.95
1866.04	0.949
1874.78	0.949
1883.52	0.949
1892.25	0.949
1900.99	0.949
1909.72	0.949
1918.46	0.947
1927.2	0.947
1935.93	0.946
1944.67	0.944
1953.41	0.943
1962.14	0.943
1970.88	0.943
1979.61	0.941
1988.35	0.941
1997.09	0.94
2005.82	0.939
2014.56	0.939
2023.3	0.938
2032.03	0.938
2040.77	0.938
2049.51	0.938
2058.24	0.937
2066.98	0.937
2075.71	0.936
2084.45	0.936
2093.19	0.936
2101.92	0.9359
2110.66	0.9349
2119.4	0.9339
2128.13	0.933
2136.87	0.9319
2145.61	0.931
2154.34	0.93
2163.08	0.9288
2171.81	0.928
2180.55	0.9268
2189.29	0.925
2198.02	0.924
2206.76	0.923
2215.5	0.922
2224.23	0.92
2232.97	0.918
2241.71	0.9158
2250.44	0.914
2259.18	0.912
2267.91	0.9107
2276.65	0.91
2285.39	0.911
2294.12	0.912
2302.86	0.912
2311.6	0.912
2320.33	0.912
2329.07	0.9117
2337.81	0.911
2346.54	0.9097
2355.28	0.904
2364.01	0.9006
2372.75	0.8973
2381.49	0.894
2390.22	0.8906
2398.96	0.888
2407.7	0.8876
2416.43	0.886
2425.17	0.885
2433.9	0.884
2442.64	0.883
2451.38	0.883
2460.11	0.8816
2468.85	0.88
2477.59	0.88
2486.32	0.8785
2495.06	0.878
2503.8	0.877
2512.53	0.876
2521.27	0.875
2530	0.875
2538.74	0.873
2547.48	0.8705
2556.21	0.8665
2564.95	0.865
2573.69	0.8634
2582.42	0.862
2591.16	0.8583
2599.9	0.8528
2608.63	0.8498
2617.37	0.8442
2626.1	0.8374
2634.84	0.8354
2643.58	0.835
2652.31	0.833
2661.05	0.832
2669.79	0.8303
2678.52	0.83
2687.26	0.829
2696	0.828
2704.73	0.8253
2713.47	0.8243
2722.2	0.8213
2730.94	0.8193
2739.68	0.817
2748.41	0.8143
2757.15	0.8123
2765.89	0.8103
2774.62	0.8035
2783.36	0.7849
2792.1	0.7608
2800.83	0.7441
2809.57	0.7092
2818.3	0.6451
2827.04	0.5817
2835.78	0.5569
2844.51	0.5002
2853.25	0.4512
2861.99	0.4731
2870.72	0.506
2879.46	0.5003
2888.19	0.4802
2896.93	0.4318
2905.67	0.4093
2914.4	0.3846
2923.14	0.3659
2931.88	0.346
2940.61	0.346
2949.35	0.3587
2958.09	0.4412
2966.82	0.5164
2975.56	0.6395
2984.29	0.6747
2993.03	0.695
3001.77	0.7523
3010.5	0.7769
3019.24	0.784
3027.98	0.786
3036.71	0.789
3045.45	0.79
3054.19	0.791
3062.92	0.79
3071.66	0.788
3080.39	0.7829
3089.13	0.7769
3097.87	0.7719
3106.6	0.7679
3115.34	0.7646
3124.08	0.7547
3132.81	0.7499
3141.55	0.7469
3150.29	0.7428
3159.02	0.7346
3167.76	0.7276
3176.49	0.7194
3185.23	0.7085
3193.97	0.6973
3202.7	0.6853
3211.44	0.6736
3220.18	0.664
3228.91	0.6464
3237.65	0.6272
3246.39	0.6071
3255.12	0.5941
3263.86	0.5821
3272.59	0.5668
3281.33	0.5465
3290.07	0.5287
3298.8	0.5139
3307.54	0.4991
3316.28	0.4837
3325.01	0.4648
3333.75	0.4567
3342.48	0.4527
3351.22	0.449
3359.96	0.448
3368.69	0.449
3377.43	0.4523
3386.17	0.4574
3394.9	0.4631
3403.64	0.4721
3412.38	0.4811
3421.11	0.4989
3429.85	0.5236
3438.58	0.5493
3447.32	0.5696
3456.06	0.5831
3464.79	0.6043
3473.53	0.6368
3482.27	0.6666
3491	0.6848
3499.74	0.7003
3508.48	0.7129
3517.21	0.7294
3525.95	0.7425
3534.68	0.7525
3543.42	0.7615
3552.16	0.765
3560.89	0.7615
3569.63	0.759
3578.37	0.757
3587.1	0.7576
3595.84	0.7627
3604.58	0.7737
3613.31	0.7837
3622.05	0.7937
3630.78	0.8028
3639.52	0.8212
3648.26	0.8326
3656.99	0.8386
3665.73	0.8406
3674.47	0.8426
3683.2	0.845
3691.94	0.846
3700.68	0.848
3709.41	0.848
3718.15	0.847
3726.88	0.846
3735.62	0.8446
3744.36	0.844
3753.09	0.843
3761.83	0.843
3770.57	0.842
3779.3	0.842
3788.04	0.842
3796.77	0.841
3805.51	0.84
3814.25	0.841
3822.98	0.84
3831.72	0.84
3840.46	0.8382
3849.19	0.838
3857.93	0.8372
3866.67	0.837
3875.4	0.8352
3884.14	0.835
3892.87	0.835
3901.61	0.835
3910.35	0.835
3919.08	0.835
3927.82	0.835
3936.56	0.835
3945.29	0.835
3954.03	0.835
3962.77	0.835
3971.5	0.835
3980.24	0.836
3988.97	0.835
3997.71	0.835
4006.45	0.835
4015.18	0.835
4023.92	0.835
