Infrared Spectrum: TRANS-1-CHLORO-1,3-BUTADIENE
Formula: C4 H5 Cl
CAS: 16503-25-6
Class: COBLENTZ
Instrument: Not specified, most likely a prism, grating, or hybrid spectrometer.
Sampling: TRANSMISSION
Path length: 0.0025 CM
Resolution: 4
Origin: W.T. BOLLETER
MICROMETERS	TRANSMITTANCE
14.502	0.352
14.5725	0.35
14.643	0.341
14.7135	0.334
14.784	0.329
14.8546	0.318
14.9251	0.298
14.9956	0.27
15.0661	0.228
15.1366	0.177
15.2071	0.13
15.2776	0.084
15.3481	0.051
15.4186	0.023
15.4892	0.014
15.5597	0.003
15.6302	0
15.7007	0
15.7712	0
15.8417	0
15.9122	0
15.9827	0.003
16.0532	0.007
16.1238	0.019
16.1943	0.035
16.2648	0.089
16.3353	0.143
16.4058	0.203
16.4763	0.259
16.5468	0.345
16.6173	0.388
16.6878	0.423
16.7584	0.466
16.8289	0.509
16.8994	0.561
16.9699	0.615
17.0404	0.652
17.1109	0.69
17.1814	0.713
17.2519	0.729
17.3224	0.744
17.393	0.751
17.4635	0.763
17.534	0.774
17.6045	0.779
17.675	0.797
17.7455	0.806
17.816	0.815
17.8865	0.824
17.9571	0.83
18.0276	0.833
18.0981	0.833
18.1686	0.831
18.2391	0.83
18.3096	0.828
18.3801	0.824
18.4506	0.821
18.5211	0.812
18.5917	0.805
18.6622	0.799
18.7327	0.803
18.8032	0.813
18.8737	0.828
18.9442	0.837
19.0147	0.849
19.0852	0.86
19.1557	0.865
19.2263	0.865
19.2968	0.865
19.3673	0.865
19.4378	0.865
19.5083	0.865
19.5788	0.865
19.6493	0.865
19.7198	0.862
19.7903	0.856
19.8609	0.851
19.9314	0.849
20.0019	0.846
20.0724	0.84
20.1429	0.838
20.2134	0.833
20.2839	0.83
20.3544	0.83
20.4249	0.828
20.4955	0.826
20.566	0.824
20.6365	0.821
20.707	0.817
20.7775	0.815
20.848	0.813
20.9185	0.812
20.989	0.806
21.0595	0.801
21.1301	0.797
21.2006	0.778
21.2711	0.765
21.3416	0.747
21.4121	0.719
21.4826	0.674
21.5531	0.647
21.6236	0.61
21.6941	0.599
21.7647	0.608
21.8352	0.64
21.9057	0.688
21.9762	0.72
22.0467	0.737
22.1172	0.747
22.1877	0.753
22.2582	0.751
22.3287	0.749
22.3993	0.745
22.4698	0.749
22.5403	0.76
22.6108	0.776
22.6813	0.79
22.7518	0.806
22.8223	0.813
22.8928	0.83
22.9633	0.837
23.0339	0.84
23.1044	0.842
23.1749	0.847
23.2454	0.849
23.3159	0.849
23.3864	0.851
23.4569	0.853
23.5274	0.851
23.598	0.849
23.6685	0.849
23.739	0.847
23.8095	0.837
23.88	0.831
23.9505	0.821
24.021	0.803
24.0915	0.788
24.162	0.767
24.2326	0.751
24.3031	0.737
24.3736	0.726
24.4441	0.711
24.5146	0.686
24.5851	0.667
24.6556	0.64
24.7261	0.604
24.7966	0.583
24.8672	0.567
24.9377	0.525
25.0082	0.456
25.0787	0.395
25.1492	0.323
25.2197	0.239
25.2902	0.175
25.3607	0.132
25.4312	0.087
25.5018	0.062
25.5723	0.053
25.6428	0.053
25.7133	0.059
25.7838	0.08
25.8543	0.107
25.9248	0.153
25.9953	0.202
26.0658	0.241
26.1364	0.3
26.2069	0.352
26.2774	0.397
26.3479	0.42
26.4184	0.449
26.4889	0.466
26.5594	0.475
26.6299	0.484
26.7004	0.49
26.771	0.488
26.8415	0.483
26.912	0.461
26.9825	0.452
27.053	0.425
27.1235	0.4
27.194	0.37
27.2645	0.336
27.335	0.309
27.4056	0.275
27.4761	0.259
27.5466	0.234
27.6171	0.221
27.6876	0.207
27.7581	0.196
27.8286	0.193
27.8991	0.191
27.9696	0.198
28.0402	0.211
28.1107	0.236
28.1812	0.257
28.2517	0.296
28.3222	0.35
28.3927	0.382
28.4632	0.418
28.5337	0.47
28.6042	0.509
28.6748	0.55
28.7453	0.599
28.8158	0.629
28.8863	0.649
28.9568	0.697
29.0273	0.728
29.0978	0.756
29.1683	0.771
29.2389	0.788
29.3094	0.812
29.3799	0.824
29.4504	0.835
29.5209	0.842
29.5914	0.846
29.6619	0.86
29.7324	0.871
29.8029	0.876
29.8735	0.88
29.944	0.881
30.0145	0.892
30.085	0.894
30.1555	0.906
30.226	0.912
30.2965	0.915
30.367	0.921
30.4375	0.924
30.5081	0.926
30.5786	0.93
30.6491	0.935
30.7196	0.944
30.7901	0.948
30.8606	0.949
30.9311	0.955
31.0016	0.957
31.0721	0.953
31.1427	0.951
31.2132	0.955
31.2837	0.96
31.3542	0.96
31.4247	0.962
31.4952	0.958
31.5657	0.962
31.6362	0.964
31.7067	0.964
31.7773	0.964
31.8478	0.964
31.9183	0.964
31.9888	0.962
32.0593	0.962
32.1298	0.962
32.2003	0.962
32.2708	0.962
32.3413	0.962
32.4119	0.964
32.4824	0.964
32.5529	0.964
32.6234	0.964
32.6939	0.969
32.7644	0.971
32.8349	0.973
32.9054	0.974
32.9759	0.978
33.0465	0.978
33.117	0.974
33.1875	0.971
33.258	0.964
33.3285	0.962
33.399	0.96
33.4695	0.96
33.54	0.964
33.6105	0.964
33.6811	0.96
33.7516	0.958
33.8221	0.958
33.8926	0.96
33.9631	0.962
34.0336	0.962
34.1041	0.96
34.1746	0.958
34.2451	0.96
34.3157	0.958
34.3862	0.949
34.4567	0.949
34.5272	0.946
34.5977	0.937
34.6682	0.935
34.7387	0.932
34.8092	0.926
34.8797	0.923
34.9503	0.921
35.0208	0.917
35.0913	0.912
35.1618	0.908
35.2323	0.905
35.3028	0.901
35.3733	0.899
35.4438	0.898
35.5144	0.896
35.5849	0.889
35.6554	0.883
35.7259	0.881
35.7964	0.881
35.8669	0.878
35.9374	0.876
36.0079	0.872
36.0784	0.869
36.149	0.862
36.2195	0.858
36.29	0.855
36.3605	0.853
36.431	0.853
36.5015	0.851
36.572	0.849
36.6425	0.847
36.713	0.846
36.7836	0.842
36.8541	0.835
36.9246	0.831
36.9951	0.83
37.0656	0.828
37.1361	0.826
37.2066	0.824
37.2771	0.824
37.3476	0.824
37.4182	0.826
37.4887	0.83
37.5592	0.833
37.6297	0.835
37.7002	0.831
37.7707	0.831
37.8412	0.831
37.9117	0.83
37.9822	0.828
