Infrared Spectrum: 2,4,5-Trifluorobenzaldehyde
Formula: C 7 H 3 F 3 O
CAS: 165047-24-5
State: gas
Origin: EPA-IR VAPOR PHASE LIBRARY
1/CM	ABSORBANCE
549.8	0.010806
559.445	0.035046
569.09	0.038816
578.734	0.012506
588.379	0.003226
598.024	0.003136
607.669	0.002506
617.313	0.002676
626.958	0.004326
636.603	0.004146
646.248	0.002436
655.893	0.002416
665.537	0.001906
675.182	0.002526
684.827	0.006946
694.472	0.029106
704.116	0.033296
713.761	0.015116
723.406	0.007696
733.051	0.005856
742.695	0.009516
752.34	0.037796
761.985	0.039656
771.63	0.010626
781.275	0.007486
790.919	0.008216
800.564	0.005526
810.209	0.004276
819.854	0.005186
829.498	0.008306
839.143	0.016896
848.788	0.031806
858.433	0.022316
868.078	0.016106
877.722	0.027656
887.367	0.043256
897.012	0.047746
906.657	0.019586
916.301	0.006796
925.946	0.003366
935.591	0.002506
945.236	0.0013195
954.88	0.0010428
964.525	0.0013306
974.17	0.001856
983.815	0.001696
993.46	0.002396
1003.1	0.001876
1012.75	0.0012996
1022.39	0.001696
1032.04	0.002036
1041.68	0.0014835
1051.33	0.001896
1060.97	0.002546
1070.62	0.005036
1080.26	0.011916
1089.91	0.028386
1099.55	0.056366
1109.2	0.075936
1118.84	0.062426
1128.49	0.040226
1138.13	0.057156
1147.78	0.060126
1157.42	0.027126
1167.07	0.009806
1176.71	0.007046
1186.36	0.014826
1196	0.040426
1205.64	0.067816
1215.29	0.065816
1224.93	0.047426
1234.58	0.018616
1244.22	0.009806
1253.87	0.011786
1263.51	0.015766
1273.16	0.024836
1282.8	0.040046
1292.45	0.042706
1302.09	0.037036
1311.74	0.045926
1321.38	0.087366
1331.03	0.129806
1340.67	0.092076
1350.32	0.026406
1359.96	0.008946
1369.61	0.007656
1379.25	0.012626
1388.9	0.025166
1398.54	0.031366
1408.18	0.026576
1417.83	0.041806
1427.47	0.094576
1437.12	0.092296
1446.76	0.026166
1456.41	0.010876
1466.05	0.011526
1475.7	0.019906
1485.34	0.054266
1494.99	0.129876
1504.63	0.188276
1514.28	0.216046
1523.92	0.165676
1533.57	0.058446
1543.21	0.017286
1552.86	0.010046
1562.5	0.009786
1572.15	0.011406
1581.79	0.012796
1591.44	0.018196
1601.08	0.041006
1610.73	0.081956
1620.37	0.102386
1630.01	0.071606
1639.66	0.031846
1649.3	0.017176
1658.95	0.017896
1668.59	0.019896
1678.24	0.018666
1687.88	0.020976
1697.53	0.044986
1707.17	0.139886
1716.82	0.175236
1726.46	0.097356
1736.11	0.046726
1745.75	0.023876
1755.4	0.008156
1765.04	0.005606
1774.69	0.005846
1784.33	0.006306
1793.98	0.006186
1803.62	0.005136
1813.27	0.003506
1822.91	0.002416
1832.55	0.002516
1842.2	0.002966
1851.84	0.002776
1861.49	0.002676
1871.13	0.002556
1880.78	0.002506
1890.42	0.002796
1900.07	0.002376
1909.71	0.001956
1919.36	0.0015056
1929	0.0012345
1938.65	0.0014753
1948.29	0.0013442
1957.94	0.0014801
1967.58	0.001706
1977.23	0.001646
1986.87	0.001536
1996.52	0.0013476
2006.16	0.0012646
2015.81	0.0013812
2025.45	0.001457
2035.1	0.001556
2044.74	0.0012641
2054.38	0.0011746
2064.03	0.0010661
2073.67	0.0011637
2083.32	0.001246
2092.96	0.0012158
2102.61	0.0009939
2112.25	0.0008436
2121.9	0.0009006
2131.54	0.0010101
2141.19	0.00056388
2150.83	0.0007864
2160.48	0.0008206
2170.12	0.0013131
2179.77	0.0011381
2189.41	0.001546
2199.06	0.001596
2208.7	0.001596
2218.35	0.001866
2227.99	0.001876
2237.64	0.001636
2247.28	0.001676
2256.92	0.001636
2266.57	0.001676
2276.21	0.001626
2285.86	0.0012772
2295.5	0.0011397
2305.15	0.0014873
2314.79	0.001576
2324.44	0.001846
2334.08	0.001846
2343.73	0.002006
2353.37	0.002046
2363.02	0.001866
2372.66	0.001566
2382.31	0.0015077
2391.95	0.0014262
2401.6	0.0010789
2411.24	0.0013941
2420.89	0.0013872
2430.53	0.001636
2440.18	0.0014015
2449.82	0.0013255
2459.47	0.001526
2469.11	0.0012881
2478.75	0.001465
2488.4	0.0011863
2498.04	0.0010564
2507.69	0.0011683
2517.33	0.001339
2526.98	0.001626
2536.62	0.001866
2546.27	0.002106
2555.91	0.001786
2565.56	0.001976
2575.2	0.001996
2584.85	0.002136
2594.49	0.001986
2604.14	0.002476
2613.78	0.002806
2623.43	0.002936
2633.07	0.002676
2642.72	0.002236
2652.36	0.001936
2662.01	0.0015055
2671.65	0.001606
2681.29	0.001836
2690.94	0.002716
2700.58	0.003406
2710.23	0.005596
2719.87	0.006886
2729.52	0.005576
2739.16	0.004026
2748.81	0.006026
2758.45	0.012976
2768.1	0.013006
2777.74	0.007336
2787.39	0.005366
2797.03	0.004406
2806.68	0.003976
2816.32	0.003806
2825.97	0.004716
2835.61	0.005126
2845.26	0.007586
2854.9	0.018676
2864.55	0.043276
2874.19	0.039056
2883.84	0.012176
2893.48	0.004396
2903.12	0.003566
2912.77	0.002976
2922.41	0.002766
2932.06	0.002066
2941.7	0.002146
2951.35	0.002336
2960.99	0.0012346
2970.64	0.0013545
2980.28	0.0010435
2989.93	0.0012297
2999.57	0.0013613
3009.22	0.002236
3018.86	0.001866
3028.51	0.001606
3038.15	0.0013486
3047.8	0.002146
3057.44	0.003276
3067.09	0.006166
3076.73	0.007146
3086.38	0.004356
3096.02	0.002696
3105.67	0.002336
3115.31	0.002206
3124.95	0.001536
3134.6	0.001616
3144.24	0.001826
3153.89	0.0009373
3163.53	0.000831
3173.18	0.00060827
3182.82	0.000414
3192.47	0.0011425
3202.11	0.0008364
3211.76	0.0005021
3221.4	0.0010834
3231.05	0.0011975
3240.69	0.0010846
3250.34	0.0011653
3259.98	0.00058736
3269.63	0.000849
3279.27	0.0009875
3288.92	0.0007137
3298.56	0.00058733
3308.21	0.0010066
3317.85	0.0004652
3327.49	0.0009392
3337.14	0.0007646
3346.78	0.000348
3356.43	0.000837
3366.07	0.0012861
3375.72	0.0009755
3385.36	0.0009244
3395.01	0.002686
3404.65	0.004256
3414.3	0.004276
3423.94	0.002556
3433.59	0.0012672
3443.23	0.0013591
3452.88	0.0014409
3462.52	0.0012966
3472.17	0.0008418
3481.81	0.000674
3491.46	0.00061874
3501.1	0.000628
3510.75	0.000357
3520.39	0.000359
3530.04	0.0008813
3539.68	0.0007097
3549.32	0.0006731
3558.97	0.000355
3568.61	0.0006551
3578.26	0.00055561
3587.9	0.00061549
3597.55	0.000311
3607.19	0.0004462
3616.84	0.000409
3626.48	0.0006583
3636.13	0.000192
3645.77	0.000201
3655.42	0.00054891
3665.06	0.0004293
3674.71	0.00058244
3684.35	0.00039
3694	0.000381
3703.64	0.0009532
3713.29	0.0012163
3722.93	0.0008868
3732.58	0.000279
3742.22	0.00062318
3751.86	0.000263
3761.51	0.000641
3771.15	0.0007325
3780.8	0.000885
3790.44	0.0007529
3800.09	0.000365
3809.73	0.000364
3819.38	0.000733
3829.02	0.0008454
3838.67	0.0005063
3848.31	0.00055701
3857.96	0.000804
3867.6	0.0009
3877.25	0.0008038
3886.89	0.0004414
3896.54	0.000177
3906.18	0.00055097
3915.83	0.000534239
3925.47	0.0011753
3935.12	0.0007759
3944.76	0.0007835
3954.41	0.0007587
3964.05	0.0008155
3973.69	0.000314
3983.34	0.000734
3992.98	0.000387
