Infrared Spectrum: 1,2,3-Triphenylcyclopropene
Formula: C 21 H 16
CAS: 16510-49-9
State: gas
Origin: EPA-IR VAPOR PHASE LIBRARY
1/CM	ABSORBANCE
549.8	0.003092
559.445	0.002552
569.09	0.00154
578.735	0.002372
588.38	0.004072
598.025	0.003022
607.67	0.003672
617.315	0.001962
626.96	0.0014113
636.605	0.0015826
646.251	0.002052
655.896	0.003702
665.541	0.005062
675.186	0.006572
684.831	0.014302
694.476	0.024372
704.121	0.014192
713.766	0.007722
723.411	0.011032
733.056	0.010772
742.701	0.015532
752.346	0.026162
761.991	0.017302
771.636	0.007582
781.281	0.003722
790.926	0.003002
800.571	0.002592
810.216	0.002182
819.861	0.0015598
829.507	0.0014902
839.152	0.0014685
848.797	0.001852
858.442	0.00142
868.087	0.001862
877.732	0.004162
887.377	0.001882
897.022	0.0013701
906.667	0.002212
916.312	0.002102
925.957	0.0016177
935.602	0.002022
945.247	0.001662
954.892	0.0011428
964.537	0.0010311
974.182	0.0009793
983.827	0.0012004
993.472	0.0014167
1003.12	0.002482
1012.76	0.005902
1022.41	0.004962
1032.05	0.004022
1041.7	0.0016607
1051.34	0.0015824
1060.99	0.002522
1070.63	0.003122
1080.28	0.001742
1089.92	0.0011404
1099.57	0.0013997
1109.21	0.0009728
1118.86	0.00068055
1128.5	0.000776
1138.15	0.000669901
1147.79	0.001345
1157.44	0.0014354
1167.08	0.0014511
1176.73	0.002262
1186.37	0.0015822
1196.02	0.0009722
1205.66	0.0013266
1215.31	0.0014912
1224.95	0.0013882
1234.6	0.001772
1244.24	0.0015691
1253.89	0.0009125
1263.53	0.0009296
1273.18	0.0010685
1282.82	0.0012048
1292.47	0.0016369
1302.11	0.0014188
1311.76	0.0012572
1321.4	0.0015412
1331.05	0.0013265
1340.69	0.001732
1350.34	0.001982
1359.98	0.0011999
1369.63	0.0010692
1379.27	0.0011827
1388.92	0.0011802
1398.56	0.001752
1408.21	0.0011335
1417.85	0.0010991
1427.5	0.0013383
1437.14	0.002852
1446.79	0.006572
1456.43	0.007172
1466.08	0.006442
1475.73	0.003462
1485.37	0.008002
1495.02	0.011552
1504.66	0.003942
1514.31	0.0016043
1523.95	0.0012693
1533.6	0.0010963
1543.24	0.0010398
1552.89	0.0009569
1562.53	0.0012847
1572.18	0.001962
1581.82	0.003352
1591.47	0.006562
1601.11	0.008652
1610.76	0.004542
1620.4	0.0016008
1630.05	0.0008792
1639.69	0.0007713
1649.34	0.001029
1658.98	0.0012881
1668.63	0.001143
1678.27	0.0009627
1687.92	0.00075027
1697.56	0.0008298
1707.21	0.0008095
1716.85	0.0008852
1726.5	0.0009707
1736.14	0.0011201
1745.79	0.0010782
1755.43	0.0010311
1765.08	0.0009519
1774.72	0.0011186
1784.37	0.001742
1794.01	0.002242
1803.66	0.001892
1813.3	0.002362
1822.95	0.002382
1832.59	0.002032
1842.24	0.0012181
1851.88	0.0010157
1861.53	0.001377
1871.17	0.001614
1880.82	0.001626
1890.46	0.0014355
1900.11	0.001138
1909.75	0.0008006
1919.4	0.000853
1929.04	0.001722
1938.69	0.002362
1948.33	0.001692
1957.98	0.0014887
1967.62	0.000558
1977.27	0.000398
1986.91	0.000301
1996.56	0.000291
2006.2	0.000243
2015.85	0.00029
2025.49	0.000267
2035.14	0.000244
2044.78	0.00028
2054.43	0.000248
2064.07	0.000264
2073.72	0.000228
2083.36	0.000196
2093.01	0.000258
2102.65	0.000129
2112.3	0.000226
2121.94	0.000175
2131.59	0.000188
2141.23	0.00018
2150.88	0.000171
2160.52	0.000301
2170.17	0.000289
2179.81	0.000282
2189.46	0.000202
2199.1	0.000257
2208.75	0.000241
2218.39	0.000253
2228.04	0.00032
2237.68	0.000324
2247.33	0.000349
2256.97	0.000332
2266.62	0.000244
2276.26	0.000345
2285.91	0.00022
2295.55	0.000335
2305.2	0.000427
2314.84	0.0005801
2324.49	0.000456
2334.13	0.000546
2343.78	0.000556
2353.42	0.000449
2363.07	0.000479
2372.72	0.000345
2382.36	0.00038
2392.01	0.00034
2401.65	0.000255
2411.3	0.000339
2420.94	0.000323
2430.59	0.000403
2440.23	0.000252
2449.88	0.000421
2459.52	0.000218
2469.17	0.000355
2478.81	0.00037
2488.46	0.000349
2498.1	0.000342
2507.75	0.000332
2517.39	0.000429
2527.04	0.000295
2536.68	0.000306
2546.33	0.000357
2555.97	0.000405
2565.62	0.000359
2575.26	0.000343
2584.91	0.000431
2594.55	0.000457
2604.2	0.000428
2613.84	0.000467
2623.49	0.000478
2633.13	0.000393
2642.78	0.000235
2652.42	0.000283
2662.07	0.000252
2671.71	0.000357
2681.36	0.000361
2691	0.000295
2700.65	0.000302
2710.29	0.00029
2719.94	0.000389
2729.58	0.000302
2739.23	0.000298
2748.87	0.000351
2758.52	0.00044
2768.16	0.000473
2777.81	0.00068895
2787.45	0.000666002
2797.1	0.000532
2806.74	0.000561
2816.39	0.000467
2826.03	0.000443
2835.68	0.0006286
2845.32	0.000462
2854.97	0.000636
2864.61	0.0008501
2874.26	0.0012192
2883.9	0.002162
2893.55	0.002272
2903.19	0.002942
2912.84	0.003872
2922.48	0.004712
2932.13	0.002532
2941.77	0.0014046
2951.42	0.0012138
2961.06	0.0009568
2970.71	0.0009354
2980.35	0.0010368
2990	0.0013856
2999.64	0.002212
3009.29	0.003772
3018.93	0.008542
3028.58	0.015022
3038.22	0.012852
3047.87	0.010172
3057.51	0.016682
3067.16	0.030952
3076.8	0.023092
3086.45	0.014562
3096.09	0.007392
3105.74	0.004682
3115.38	0.002332
3125.03	0.0013089
3134.67	0.0011998
3144.32	0.000944
3153.96	0.0010521
3163.61	0.000556
3173.25	0.000663569
3182.9	0.00052
3192.54	0.0006366
3202.19	0.00049
3211.83	0.00046
3221.48	0.000249
3231.12	0.000302
3240.77	0.00046
3250.41	0.00044
3260.06	0.000395
3269.7	0.000334
3279.35	0.000254
3289	0.00033
3298.64	0.000381
3308.29	0.000381
3317.93	0.000463
3327.58	0.00041
3337.22	0.000274
3346.87	0.000265
3356.51	0.000289
3366.16	0.000327
3375.8	0.000197
3385.45	0.000417
3395.09	0.000324
3404.74	0.0001
3414.38	0.000209
3424.03	0.000417
3433.67	0.000359
3443.32	0.000319
3452.96	0.000322
3462.61	0.000277
3472.25	0.000305
3481.9	0.000381
3491.54	0.000388
3501.19	0.000237
3510.83	0.000334
3520.48	0.000409
3530.12	0.0002
3539.77	0
3549.41	8.5e-05
3559.06	0.000331
3568.7	0.000329
3578.35	0.000328
3587.99	0.0005716
3597.64	0.000302
3607.28	0.000351
3616.93	0.000158
3626.57	0.000531
3636.22	0.000248
3645.86	0.000396
3655.51	0.000557
3665.15	0.000407
3674.8	0.000381
3684.44	0.000428
3694.09	0.000438
3703.73	0.000344
3713.38	0.000442
3723.02	0.000298
3732.67	0.0006346
3742.31	0.000435
3751.96	0.00037
3761.6	0.000493
3771.25	0.000357
3780.89	0.00045
3790.54	0.000353
3800.18	0.000437
3809.83	0.000339
3819.47	0.000481
3829.12	0.000427
3838.76	0.000306
3848.41	0.00044
3858.05	0.00033
3867.7	0.000431
3877.34	0.000532
3886.99	0.00072692
3896.63	0.000382
3906.28	0.000453
3915.92	0.000411
3925.57	0.000432
3935.21	0.000507
3944.86	0.000526
3954.5	0.00042
3964.15	0.0005714
3973.79	0.000438
3983.44	0.000426
3993.08	0.00044
