Infrared Spectrum: 4-Phenyl-1-butyne
Formula: C 10 H 10
CAS: 16520-62-0
State: gas
Origin: EPA-IR VAPOR PHASE LIBRARY
1/CM	ABSORBANCE
549.9	0.002174
559.547	0.003544
569.193	0.006554
578.84	0.008214
588.486	0.006424
598.133	0.005144
607.779	0.008094
617.426	0.022244
627.072	0.057244
636.719	0.107564
646.365	0.049634
656.012	0.018944
665.658	0.010404
675.305	0.012674
684.951	0.021554
694.598	0.033764
704.245	0.029554
713.891	0.021494
723.538	0.018564
733.184	0.021394
742.831	0.022744
752.477	0.015994
762.124	0.008724
771.77	0.004394
781.417	0.002444
791.063	0.001774
800.71	0.0015658
810.356	0.0014632
820.003	0.0012495
829.649	0.0010127
839.296	0.000804
848.943	0.0007387
858.589	0.0008643
868.236	0.0009724
877.882	0.0010119
887.529	0.0012846
897.175	0.0014758
906.822	0.0013071
916.468	0.0010964
926.115	0.0012168
935.761	0.0011828
945.408	0.0011273
955.054	0.0011148
964.701	0.0011492
974.347	0.0012045
983.994	0.0013847
993.64	0.0015354
1003.29	0.001734
1012.93	0.002294
1022.58	0.004354
1032.23	0.004624
1041.87	0.002384
1051.52	0.001634
1061.17	0.002904
1070.81	0.004074
1080.46	0.003784
1090.11	0.002414
1099.75	0.0015426
1109.4	0.0010774
1119.05	0.0007581
1128.69	0.000471
1138.34	0.000384
1147.99	0.0005167
1157.63	0.000474
1167.28	0.00070258
1176.92	0.0008496
1186.57	0.0011977
1196.22	0.001714
1205.86	0.0015654
1215.51	0.001904
1225.16	0.003934
1234.8	0.008674
1244.45	0.020504
1254.1	0.026524
1263.74	0.016294
1273.39	0.006004
1283.04	0.003604
1292.68	0.002784
1302.33	0.002774
1311.98	0.003174
1321.62	0.003914
1331.27	0.005454
1340.92	0.005964
1350.56	0.003944
1360.21	0.001854
1369.86	0.0014171
1379.5	0.0014054
1389.15	0.0013689
1398.79	0.0014216
1408.44	0.001844
1418.09	0.003054
1427.73	0.006364
1437.38	0.010684
1447.03	0.012184
1456.67	0.010194
1466.32	0.006854
1475.97	0.005064
1485.61	0.008164
1495.26	0.013924
1504.91	0.011144
1514.55	0.003144
1524.2	0.001904
1533.85	0.001614
1543.49	0.0014336
1553.14	0.0013286
1562.79	0.0015014
1572.43	0.002074
1582.08	0.003524
1591.73	0.005494
1601.37	0.007384
1611.02	0.005754
1620.67	0.002434
1630.31	0.001533
1639.96	0.0012821
1649.6	0.0010078
1659.25	0.0008756
1668.9	0.0007889
1678.54	0.0007447
1688.19	0.00071387
1697.84	0.000789
1707.48	0.0008768
1717.13	0.0010864
1726.78	0.0012773
1736.42	0.0011859
1746.07	0.0010644
1755.72	0.0008822
1765.36	0.0009902
1775.01	0.0013061
1784.66	0.002204
1794.3	0.002944
1803.95	0.002194
1813.6	0.0012256
1823.24	0.0010553
1832.89	0.0010837
1842.54	0.0013847
1852.18	0.001794
1861.83	0.002094
1871.47	0.002134
1881.12	0.0015783
1890.77	0.0010388
1900.41	0.0008862
1910.06	0.0010388
1919.71	0.0014645
1929.35	0.002104
1939	0.002534
1948.65	0.002654
1958.29	0.001994
1967.94	0.0008862
1977.59	0.000603
1987.23	0.0005642
1996.88	0.0005799
2006.53	0.0005824
2016.17	0.00060739
2025.82	0.00060527
2035.47	0.00063409
2045.11	0.00066939
2054.76	0.00063418
2064.41	0.000618677
2074.05	0.00071032
2083.7	0.0008463
2093.35	0.0014566
2102.99	0.002654
2112.64	0.004364
2122.28	0.004864
2131.93	0.002884
2141.58	0.0012537
2151.22	0.0009041
2160.87	0.0008806
2170.52	0.00069008
2180.16	0.000619034
2189.81	0.0005986
2199.46	0.0005477
2209.1	0.0005367
2218.75	0.0005257
2228.4	0.0005238
2238.04	0.0005922
2247.69	0.0005391
2257.34	0.0005964
2266.98	0.00062884
2276.63	0.000621528
2286.28	0.0005725
2295.92	0.0005962
2305.57	0.0007328
2315.22	0.0007816
2324.86	0.0007788
2334.51	0.0008112
2344.16	0.000799
2353.8	0.000726
2363.45	0.00064987
2373.09	0.00066338
2382.74	0.00065525
2392.39	0.00060438
2402.03	0.0005557
2411.68	0.00064005
2421.33	0.00063041
2430.97	0.00068255
2440.62	0.000620981
2450.27	0.0005729
2459.91	0.000593
2469.56	0.000563
2479.21	0.0005964
2488.85	0.0005216
2498.5	0.0005609
2508.15	0.0005472
2517.79	0.0005554
2527.44	0.000499
2537.09	0.0005791
2546.73	0.0005465
2556.38	0.00062513
2566.03	0.00063696
2575.67	0.0007349
2585.32	0.00082
2594.96	0.0008991
2604.61	0.000827
2614.26	0.0008101
2623.9	0.0007954
2633.55	0.0008141
2643.2	0.00083
2652.84	0.0008981
2662.49	0.0010533
2672.14	0.0010543
2681.78	0.0010104
2691.43	0.0012374
2701.08	0.0008875
2710.72	0.00067181
2720.37	0.00066464
2730.02	0.00067264
2739.66	0.0007463
2749.31	0.0007687
2758.96	0.00070282
2768.6	0.000849
2778.25	0.001057
2787.9	0.0013248
2797.54	0.0012836
2807.19	0.0011289
2816.84	0.001274
2826.48	0.001814
2836.13	0.002644
2845.77	0.004534
2855.42	0.006494
2865.07	0.007604
2874.71	0.007764
2884.36	0.006244
2894.01	0.005594
2903.65	0.007334
2913.3	0.012534
2922.95	0.020304
2932.59	0.027694
2942.24	0.029734
2951.89	0.025524
2961.53	0.017944
2971.18	0.009874
2980.83	0.005794
2990.47	0.004344
3000.12	0.005244
3009.77	0.008424
3019.41	0.015354
3029.06	0.026194
3038.71	0.028014
3048.35	0.018944
3058	0.018274
3067.64	0.026354
3077.29	0.025974
3086.94	0.016634
3096.58	0.012344
3106.23	0.008294
3115.88	0.005034
3125.52	0.002424
3135.17	0.0012167
3144.82	0.0009037
3154.46	0.0005727
3164.11	0.0007761
3173.76	0.0005751
3183.4	0.000471
3193.05	0.000295
3202.7	0.000272
3212.34	0.000194
3221.99	0.000349
3231.64	0.000468
3241.28	0.00068248
3250.93	0.0011298
3260.58	0.001724
3270.22	0.002684
3279.87	0.004214
3289.52	0.006844
3299.16	0.012334
3308.81	0.018984
3318.45	0.029224
3328.1	0.040254
3337.75	0.025684
3347.39	0.006684
3357.04	0.003834
3366.69	0.002534
3376.33	0.0014348
3385.98	0.0009651
3395.63	0.0008211
3405.27	0.000369
3414.92	0.000156
3424.57	0.000418
3434.21	0.000237
3443.86	0.000206
3453.51	0.000389
3463.15	0.000177
3472.8	0.000231
3482.45	0.000186
3492.09	0.000498
3501.74	0.000403
3511.39	0.000303
3521.03	0.000149
3530.68	0.000157
3540.33	8.7e-05
3549.97	0.000237
3559.62	0
3569.26	8e-05
3578.91	0.000125
3588.56	0.000197
3598.2	7.4e-05
3607.85	0.000368
3617.5	0.000315
3627.14	0.000299
3636.79	0.000466
3646.44	0.000435
3656.08	0.000425
3665.73	0.000345
3675.38	0.000245
3685.02	0.000471
3694.67	0.000293
3704.32	0.000405
3713.96	0.000274
3723.61	0.00037
3733.26	0.000221
3742.9	0.000185
3752.55	0.000413
3762.2	0.000504
3771.84	0.000349
3781.49	0.000452
3791.13	0.00018
3800.78	0.000343
3810.43	0.000394
3820.07	0.0005227
3829.72	0.000468
3839.37	0.0005201
3849.01	0.000408
3858.66	0.0005312
3868.31	0.00045
3877.95	0.000347
3887.6	0.000383
3897.25	0.000541
3906.89	0.00063352
3916.54	0.0008097
3926.19	0.0009031
3935.83	0.0010209
3945.48	0.0011298
3955.13	0.00070583
3964.77	0.000481
3974.42	0.000479
3984.07	0.000504
3993.71	0.000493
