Infrared Spectrum: 1,1,1-TRIFLUORO-2,2,3,3,3-PENTACHLORO PROPANE
Formula: C3 Cl5 F3
CAS: 1652-89-7
State: SOLUTION (10% CCl4 FOR 5000-1330, 10% CS2 FOR 1330-625 CM^-^1)
Melting point: 109 C
Class: COBLENTZ
Instrument: Not specified, most likely a prism, grating, or hybrid spectrometer.
Sampling: TRANSMISSION
Path length: 0.0130 CM, 0.0123 CM
Resolution: 4
Origin: DOW CHEMICAL COMPANY
MICROMETERS	TRANSMITTANCE
2.021	0.807
2.06217	0.812
2.10335	0.817
2.14452	0.817
2.1857	0.819
2.22687	0.824
2.26804	0.825
2.30922	0.831
2.35039	0.832
2.39157	0.832
2.43274	0.834
2.47392	0.837
2.51509	0.839
2.55626	0.843
2.59744	0.846
2.63861	0.843
2.67979	0.846
2.72096	0.846
2.76213	0.843
2.80331	0.829
2.84448	0.803
2.88566	0.784
2.92683	0.773
2.968	0.779
3.00918	0.795
3.05035	0.802
3.09153	0.813
3.1327	0.829
3.17388	0.839
3.21505	0.846
3.25622	0.849
3.2974	0.849
3.33857	0.846
3.37975	0.843
3.42092	0.848
3.46209	0.848
3.50327	0.861
3.54444	0.866
3.58562	0.868
3.62679	0.87
3.66796	0.868
3.70914	0.873
3.75031	0.875
3.79149	0.875
3.83266	0.875
3.87383	0.878
3.91501	0.88
3.95618	0.88
3.99736	0.883
4.03853	0.88
4.07971	0.868
4.12088	0.865
4.16205	0.873
4.20323	0.882
4.2444	0.882
4.28558	0.878
4.32675	0.872
4.36792	0.878
4.4091	0.885
4.45027	0.895
4.49145	0.897
4.53262	0.897
4.57379	0.897
4.61497	0.897
4.65614	0.894
4.69732	0.895
4.73849	0.897
4.77967	0.901
4.82084	0.901
4.86201	0.899
4.90319	0.897
4.94436	0.895
4.98554	0.894
5.02671	0.895
5.06788	0.897
5.10906	0.897
5.15023	0.899
5.19141	0.899
5.23258	0.899
5.27375	0.899
5.31493	0.899
5.3561	0.897
5.39728	0.897
5.43845	0.899
5.47963	0.899
5.5208	0.901
5.56197	0.901
5.60315	0.892
5.64432	0.897
5.6855	0.897
5.72667	0.895
5.76784	0.895
5.80902	0.892
5.85019	0.892
5.89137	0.89
5.93254	0.873
5.97371	0.872
6.01489	0.872
6.05606	0.868
6.09724	0.858
6.13841	0.843
6.17959	0.805
6.22076	0.723
6.26193	0.621
6.30311	0.585
6.34428	0.554
6.38546	0.501
6.42663	0.43
6.4678	0.45
6.50898	0.552
6.55015	0.612
6.59133	0.67
6.6325	0.747
6.67367	0.783
6.71485	0.802
6.75602	0.822
6.7972	0.836
6.83837	0.844
6.87955	0.846
6.92072	0.841
6.96189	0.834
7.00307	0.829
7.04424	0.822
7.08542	0.825
7.12659	0.837
7.16776	0.848
7.20894	0.851
7.25011	0.851
7.29129	0.849
7.33246	0.843
7.37363	0.837
7.41481	0.834
7.45598	0.832
7.49716	0.844
7.53833	0.844
7.5795	0.832
7.62068	0.817
7.66185	0.802
7.70303	0.796
7.7442	0.812
7.78538	0.82
7.82655	0.815
7.86772	0.795
7.9089	0.721
7.95007	0.646
7.99125	0.576
8.03242	0.412
8.07359	0.145
8.11477	0.025
8.15594	0.025
8.19712	0.013
8.23829	0.013
8.27946	0.017
8.32064	0.04
8.36181	0.264
8.40299	0.558
8.44416	0.627
8.48534	0.643
8.52651	0.697
8.56768	0.749
8.60886	0.757
8.65003	0.781
8.69121	0.81
8.73238	0.822
8.77355	0.827
8.81473	0.82
8.8559	0.819
8.89708	0.827
8.93825	0.839
8.97942	0.843
9.0206	0.841
9.06177	0.844
9.10295	0.841
9.14412	0.831
9.1853	0.834
9.22647	0.843
9.26764	0.846
9.30882	0.844
9.34999	0.843
9.39117	0.846
9.43234	0.841
9.47351	0.839
9.51469	0.834
9.55586	0.831
9.59704	0.834
9.63821	0.824
9.67938	0.815
9.72056	0.815
9.76173	0.82
9.80291	0.825
9.84408	0.829
9.88526	0.832
9.92643	0.822
9.9676	0.788
10.0088	0.779
10.05	0.812
10.0911	0.829
10.1323	0.831
10.1735	0.832
10.2146	0.839
10.2558	0.843
10.297	0.844
10.3382	0.844
10.3793	0.843
10.4205	0.843
10.4617	0.839
10.5029	0.834
10.544	0.831
10.5852	0.832
10.6264	0.829
10.6676	0.813
10.7087	0.802
10.7499	0.791
10.7911	0.767
10.8323	0.744
10.8734	0.762
10.9146	0.79
10.9558	0.8
10.997	0.802
11.0381	0.803
11.0793	0.8
11.1205	0.779
11.1617	0.713
11.2028	0.578
11.244	0.395
11.2852	0.394
11.3263	0.564
11.3675	0.674
11.4087	0.701
11.4499	0.703
11.491	0.699
11.5322	0.691
11.5734	0.679
11.6146	0.668
11.6557	0.66
11.6969	0.653
11.7381	0.658
11.7793	0.677
11.8204	0.704
11.8616	0.732
11.9028	0.752
11.944	0.757
11.9851	0.759
12.0263	0.759
12.0675	0.761
12.1087	0.767
12.1498	0.769
12.191	0.764
12.2322	0.749
12.2734	0.72
12.3145	0.682
12.3557	0.616
12.3969	0.515
12.4381	0.351
12.4792	0.155
12.5204	0.018
12.5616	0.005
12.6027	0.003
12.6439	0.017
12.6851	0.104
12.7263	0.261
12.7674	0.344
12.8086	0.382
12.8498	0.433
12.891	0.503
12.9321	0.558
12.9733	0.604
13.0145	0.638
13.0557	0.648
13.0968	0.643
13.138	0.619
13.1792	0.583
13.2204	0.544
13.2615	0.465
13.3027	0.341
13.3439	0.155
13.3851	0.047
13.4262	0.071
13.4674	0.245
13.5086	0.424
13.5498	0.51
13.5909	0.551
13.6321	0.583
13.6733	0.604
13.7144	0.629
13.7556	0.636
13.7968	0.634
13.838	0.627
13.8791	0.616
13.9203	0.609
13.9615	0.612
14.0027	0.619
14.0438	0.629
14.085	0.636
14.1262	0.636
14.1674	0.633
14.2085	0.622
14.2497	0.61
14.2909	0.597
14.3321	0.576
14.3732	0.551
14.4144	0.517
14.4556	0.457
14.4968	0.372
14.5379	0.242
14.5791	0.146
14.6203	0.087
14.6615	0.083
14.7026	0.146
14.7438	0.237
14.785	0.315
14.8261	0.397
14.8673	0.421
14.9085	0.44
14.9497	0.453
14.9908	0.467
15.032	0.47
15.0732	0.47
15.1144	0.469
15.1555	0.467
15.1967	0.46
15.2379	0.459
15.2791	0.452
15.3202	0.448
15.3614	0.445
15.4026	0.44
15.4438	0.436
15.4849	0.435
15.5261	0.428
15.5673	0.424
15.6085	0.421
15.6496	0.419
15.6908	0.418
15.732	0.412
15.7732	0.412
15.8143	0.411
15.8555	0.409
15.8967	0.407
