Infrared Spectrum: 4-Tetradecanol
Formula: C 14 H 30 O
CAS: 1653-33-4
State: gas
Instrument: HP-GC/MS/IRD
Origin: NIST Mass Spectrometry Data Center
1/CM	ABSORBANCE
550	0.0004148
562	0.0001952
574	0.0001037
586	0.0001098
598	0.0001037
610	0.0001464
622	0.0001159
634	5.49e-05
646	4.27e-05
658	0.0001159
670	9.76e-05
682	0.0001647
694	0.0002867
706	0.0004758
718	0.000793
730	0.0007259
742	0.000732
754	0.0006588
766	0.0005307
778	0.0004575
790	0.0003843
802	0.0004026
814	0.0004941
826	0.0007442
838	0.0008235
850	0.0009211
862	0.0007564
874	0.0007869
886	0.0008235
898	0.0009577
910	0.000915
922	0.000854
934	0.000915
946	0.001098
958	0.0013664
970	0.0018239
982	0.0023973
994	0.0029341
1006	0.003416
1018	0.0031903
1030	0.0023424
1042	0.0019703
1054	0.0021533
1066	0.0023607
1078	0.0023851
1090	0.0023058
1102	0.0024217
1114	0.0026291
1126	0.002684
1138	0.002196
1150	0.0015677
1162	0.0013603
1174	0.0013359
1186	0.0014091
1198	0.0016287
1210	0.001891
1222	0.0019276
1234	0.0019398
1246	0.002013
1258	0.0020801
1270	0.0020252
1282	0.0018849
1294	0.0018239
1306	0.0017751
1318	0.0016775
1330	0.0017873
1342	0.0023485
1354	0.0028609
1366	0.0031293
1378	0.0033367
1390	0.0029158
1402	0.0020191
1414	0.0015006
1426	0.0015982
1438	0.0025132
1450	0.0040138
1462	0.0052155
1474	0.0035014
1486	0.0015128
1498	0.0008357
1510	0.0005673
1522	0.0004331
1534	0.0003416
1546	0.0002806
1558	0.0002318
1570	0.0001769
1582	0.0001525
1594	0.000122
1606	0.0001098
1618	7.93e-05
1630	7.93e-05
1642	7.93e-05
1654	7.32e-05
1666	7.93e-05
1678	7.32e-05
1690	6.1e-05
1702	4.27e-05
1714	4.27e-05
1726	4.88e-05
1738	4.27e-05
1750	4.27e-05
1762	3.05e-05
1774	3.66e-05
1786	2.44e-05
1798	1.83e-05
1810	3.05e-05
1822	2.44e-05
1834	2.44e-05
1846	4.27e-05
1858	3.66e-05
1870	2.44e-05
1882	3.05e-05
1894	3.66e-05
1906	1.83e-05
1918	1.83e-05
1930	3.05e-05
1942	1.83e-05
1954	3.66e-05
1966	3.66e-05
1978	3.05e-05
1990	3.05e-05
2002	3.05e-05
2014	5.49e-05
2026	9.15e-05
2038	7.93e-05
2050	4.88e-05
2062	6.1e-05
2074	3.66e-05
2086	3.05e-05
2098	2.44e-05
2110	3.05e-05
2122	3.66e-05
2134	3.05e-05
2146	4.27e-05
2158	1.83e-05
2170	1.22e-05
2182	5.49e-05
2194	4.27e-05
2206	3.66e-05
2218	2.44e-05
2230	3.05e-05
2242	3.66e-05
2254	3.05e-05
2266	4.27e-05
2278	4.88e-05
2290	4.27e-05
2302	6.1e-05
2314	7.93e-05
2326	6.1e-05
2338	3.66e-05
2350	7.32e-05
2362	4.27e-05
2374	8.54e-05
2386	6.1e-05
2398	7.93e-05
2410	8.54e-05
2422	7.93e-05
2434	7.32e-05
2446	6.71e-05
2458	6.1e-05
2470	5.49e-05
2482	6.1e-05
2494	8.54e-05
2506	9.15e-05
2518	0.000122
2530	0.0001403
2542	0.0001586
2554	0.000183
2566	0.0002013
2578	0.0002623
2590	0.0002745
2602	0.0003111
2614	0.000366
2626	0.0004148
2638	0.0004819
2650	0.0005551
2662	0.0005978
2674	0.0006954
2686	0.0007137
2698	0.0006832
2710	0.0006771
2722	0.0007076
2734	0.0007991
2746	0.0009089
2758	0.0009333
2770	0.0010492
2782	0.0012505
2794	0.001586
2806	0.0020557
2818	0.0027694
2830	0.0040809
2842	0.0071736
2854	0.0155916
2866	0.022753
2878	0.019337
2890	0.0168604
2902	0.0192577
2914	0.0301462
2926	0.0519659
2938	0.0578036
2950	0.034465
2962	0.0265472
2974	0.0208071
2986	0.0087962
2998	0.0046665
3010	0.0030012
3022	0.0021716
3034	0.0016958
3046	0.0013481
3058	0.0010431
3070	0.0008418
3082	0.0007625
3094	0.0006283
3106	0.0005368
3118	0.0004758
3130	0.0004331
3142	0.0004026
3154	0.0003416
3166	0.0003477
3178	0.0002928
3190	0.0002745
3202	0.0002562
3214	0.0001708
3226	0.000122
3238	0.0001098
3250	6.71e-05
3262	7.93e-05
3274	4.88e-05
3286	7.32e-05
3298	9.76e-05
3310	4.88e-05
3322	4.27e-05
3334	9.15e-05
3346	9.15e-05
3358	4.88e-05
3370	5.49e-05
3382	6.1e-05
3394	7.93e-05
3406	9.76e-05
3418	0.0001159
3430	0.000122
3442	0.000122
3454	0.0001037
3466	8.54e-05
3478	6.1e-05
3490	6.1e-05
3502	3.66e-05
3514	4.27e-05
3526	6.1e-05
3538	6.71e-05
3550	3.05e-05
3562	6.1e-05
3574	6.1e-05
3586	8.54e-05
3598	0.0001037
3610	0.000244
3622	0.0004392
3634	0.0006893
3646	0.0012383
3658	0.0014701
3670	0.0007259
3682	0.0003294
3694	0.000183
3706	0.0001464
3718	0.000122
3730	0.0001037
3742	0.0001403
3754	0.000122
3766	0.0001464
3778	0.0001403
3790	0.0001281
3802	0.0001342
3814	0.0001464
3826	0.0001464
3838	0.0001952
