Infrared Spectrum: 2-Pentadecanol
Formula: C 15 H 32 O
CAS: 1653-34-5
State: gas
Origin: EPA-IR VAPOR PHASE LIBRARY
1/CM	ABSORBANCE
549.8	0.0004961
559.445	0.0003851
569.09	0.0004751
578.734	0.0001911
588.379	0.0011497
598.024	0.0011197
607.669	0.0011397
617.313	0.0004153
626.958	0.0006063
636.603	0.0011597
646.248	0.0008123
655.893	0.0009679
665.537	0.0007145
675.182	0.0014697
684.827	0.0016097
694.472	0.0018797
704.116	0.0036197
713.761	0.0050797
723.406	0.0053397
733.051	0.0043097
742.695	0.0037597
752.34	0.0030097
761.985	0.0030197
771.63	0.0022797
781.275	0.0019097
790.919	0.0024797
800.564	0.0022897
810.209	0.0027497
819.854	0.0025797
829.498	0.0034197
839.143	0.0042397
848.788	0.0042897
858.433	0.0034797
868.078	0.0033097
877.722	0.0041197
887.367	0.0045997
897.012	0.0053597
906.657	0.0061097
916.301	0.0075197
925.946	0.0089697
935.591	0.0104597
945.236	0.0091597
954.88	0.0083597
964.525	0.0074597
974.17	0.0069397
983.815	0.0077097
993.46	0.0082297
1003.1	0.0101997
1012.75	0.0097597
1022.39	0.0108297
1032.04	0.0111597
1041.68	0.0133897
1051.33	0.0147697
1060.97	0.0153797
1070.62	0.0148897
1080.26	0.0163997
1089.91	0.0178797
1099.55	0.0187397
1109.2	0.0181997
1118.84	0.0172797
1128.49	0.0157097
1138.13	0.0147997
1147.78	0.0115097
1157.42	0.0100897
1167.07	0.0079997
1176.71	0.0078397
1186.36	0.0072097
1196	0.0070697
1205.64	0.0080597
1215.29	0.0101397
1224.93	0.0118097
1234.58	0.0134497
1244.22	0.0146097
1253.87	0.0134697
1263.51	0.0115897
1273.16	0.0100397
1282.8	0.0095797
1292.45	0.0095597
1302.09	0.0100597
1311.74	0.0102697
1321.38	0.0099097
1331.03	0.0111197
1340.67	0.0143897
1350.32	0.0180497
1359.96	0.0196497
1369.61	0.0217297
1379.25	0.0243197
1388.9	0.0202797
1398.54	0.0142697
1408.18	0.0102397
1417.83	0.0084997
1427.47	0.0090197
1437.12	0.0124997
1446.76	0.0202097
1456.41	0.0282597
1466.05	0.0279997
1475.7	0.0162697
1485.34	0.0080097
1494.99	0.0048997
1504.63	0.0034997
1514.28	0.0026297
1523.92	0.0021897
1533.57	0.0016097
1543.21	0.0014197
1552.86	0.0012597
1562.5	0.0011497
1572.15	0.0011097
1581.79	0.0010404
1591.44	0.0008493
1601.08	0.0009051
1610.73	0.0007632
1620.37	0.0007759
1630.01	0.0007716
1639.66	0.0007248
1649.3	0.000841
1658.95	0.000905
1668.59	0.0006533
1678.24	0.0006081
1687.88	0.0007146
1697.53	0.0005903
1707.17	0.0005395
1716.82	0.0006278
1726.46	0.0004243
1736.11	0.0005396
1745.75	0.0006034
1755.4	0.0005517
1765.04	0.000678
1774.69	0.0003703
1784.33	0.0004342
1793.98	0.0004861
1803.62	0.0004278
1813.27	0.0004903
1822.91	0.0004364
1832.55	0.0005926
1842.2	0.0004321
1851.84	0.0005571
1861.49	0.0004829
1871.13	0.0004449
1880.78	0.0004439
1890.42	0.0004819
1900.07	0.0003442
1909.71	0.0004661
1919.36	0.0005704
1929	0.0003786
1938.65	0.0004959
1948.29	0.000481
1957.94	0.0003641
1967.58	0.0002963
1977.23	0.0004119
1986.87	0.0004348
1996.52	0.0005205
2006.16	0.0006221
2015.81	0.0005349
2025.45	0.0007342
2035.1	0.0007527
2044.74	0.0007516
2054.38	0.0007208
2064.03	0.0006254
2073.67	0.000507
2083.32	0.0006233
2092.96	0.0006209
2102.61	0.0004034
2112.25	0.0005674
2121.9	0.0004669
2131.54	0.0005957
2141.19	0.0006742
2150.83	0.0006053
2160.48	0.0005179
2170.12	0.0007558
2179.77	0.000647
2189.41	0.0006961
2199.06	0.0007321
2208.7	0.0006144
2218.35	0.0006621
2227.99	0.0006866
2237.64	0.0006229
2247.28	0.0005726
2256.92	0.0007863
2266.57	0.0006239
2276.21	0.0008754
2285.86	0.0005246
2295.5	0.0007458
2305.15	0.000849
2314.79	0.0008486
2324.44	0.0008253
2334.08	0.0008453
2343.73	0.0009213
2353.37	0.000794
2363.02	0.0008781
2372.66	0.000784
2382.31	0.0008627
2391.95	0.0008806
2401.6	0.0009419
2411.24	0.0010424
2420.89	0.0009604
2430.53	0.0008039
2440.18	0.0010255
2449.82	0.0009885
2459.47	0.0008364
2469.11	0.0006522
2478.75	0.001029
2488.4	0.0010337
2498.04	0.0010597
2507.69	0.0010997
2517.33	0.0012297
2526.98	0.0014897
2536.62	0.0015597
2546.27	0.0016297
2555.91	0.0015197
2565.56	0.0018097
2575.2	0.0018397
2584.85	0.0019797
2594.49	0.0023397
2604.14	0.0023497
2613.78	0.0026197
2623.43	0.0029797
2633.07	0.0031597
2642.72	0.0035797
2652.36	0.0038197
2662.01	0.0040797
2671.65	0.0042197
2681.29	0.0044097
2690.94	0.0044997
2700.58	0.0042897
2710.23	0.0039197
2719.87	0.0042297
2729.52	0.0043797
2739.16	0.0049197
2748.81	0.0048397
2758.45	0.0053597
2768.1	0.0059197
2777.74	0.0063997
2787.39	0.0079197
2797.03	0.0096697
2806.68	0.0116097
2816.32	0.0149097
2825.97	0.0195297
2835.61	0.0281497
2845.26	0.0491097
2854.9	0.10437
2864.55	0.14586
2874.19	0.11092
2883.84	0.0902797
2893.48	0.0863297
2903.12	0.1117
2912.77	0.16636
2922.41	0.27631
2932.06	0.39689
2941.7	0.29769
2951.35	0.16419
2960.99	0.12261
2970.64	0.11382
2980.28	0.0760397
2989.93	0.0410297
2999.57	0.0230897
3009.22	0.0150197
3018.86	0.0110797
3028.51	0.0086497
3038.15	0.0070597
3047.8	0.0054497
3057.44	0.0049097
3067.09	0.0044397
3076.73	0.0037597
3086.38	0.0035297
3096.02	0.0030097
3105.67	0.0029197
3115.31	0.0029797
3124.95	0.0025297
3134.6	0.0021597
3144.24	0.0020297
3153.89	0.0019097
3163.53	0.0018297
3173.18	0.0018197
3182.82	0.0017897
3192.47	0.0018797
3202.11	0.0014897
3211.76	0.0012897
3221.4	0.0009547
3231.05	0.0009497
3240.69	0.0011397
3250.34	0.0007437
3259.98	0.0007369
3269.63	0.0005921
3279.27	0.0006519
3288.92	0.0005451
3298.56	0.0005073
3308.21	0.0004998
3317.85	0.0005649
3327.49	0.0005728
3337.14	0.0005857
3346.78	0.0007263
3356.43	0.0008709
3366.07	0.0006643
3375.72	0.0008192
3385.36	0.0009183
3395.01	0.0006799
3404.65	0.0011297
3414.3	0.0010597
3423.94	0.0006469
3433.59	0.0009167
3443.23	0.0007583
3452.88	0.0009284
3462.52	0.0006595
3472.17	0.0004164
3481.81	0.0008049
3491.46	0.0005443
3501.1	0.00038
3510.75	0.0001106
3520.39	0.0005647
3530.04	0.0003157
3539.68	0.0007199
3549.32	0.0003433
3558.97	0.000563
3568.61	0.0003458
3578.26	0.0005393
3587.9	0.0006745
3597.55	0.0005508
3607.19	0.0013897
3616.84	0.0017597
3626.48	0.0029697
3636.13	0.0044897
3645.77	0.0066197
3655.42	0.0089297
3665.06	0.0052597
3674.71	0.0031397
3684.35	0.0018597
3694	0.0014197
3703.64	0.0011797
3713.29	0.0007505
3722.93	0.0008171
3732.58	0.0009287
3742.22	0.0007954
3751.86	0.0008778
3761.51	0.0009303
3771.15	0.001028
3780.8	0.0009064
3790.44	0.0009105
3800.09	0.0007142
3809.73	0.0014197
3819.38	0.0010001
3829.02	0.0011097
3838.67	0.0011697
3848.31	0.000964
3857.96	0.0010697
3867.6	0.0010471
3877.25	0.0011697
3886.89	0.00103
3896.54	0.0009465
3906.18	0.0013797
3915.83	0.0011297
3925.47	0.0012397
3935.12	0.0010597
3944.76	0.0009238
3954.41	0.0010121
3964.05	0.0007935
3973.69	0.0007628
3983.34	0.0010997
3992.98	0.0009951
