Infrared Spectrum: 2-Tridecanol
Formula: C 13 H 28 O
CAS: 1653-31-2
State: gas
Instrument: HP-GC/MS/IRD
Origin: NIST Mass Spectrometry Data Center
1/CM	ABSORBANCE
550	0.0001716
562	0.0002376
574	3.96e-05
586	0.000165
598	0.0001914
610	0.0002508
622	0.0002046
634	0.0001782
646	7.92e-05
658	0.0001716
670	0.0002046
682	0.0003102
694	0.000495
706	0.0007062
718	0.0010164
730	0.0009042
742	0.0007392
754	0.0006468
766	0.0006138
778	0.0005742
790	0.0005082
802	0.0005808
814	0.000627
826	0.0007722
838	0.0008778
850	0.0008844
862	0.0008316
874	0.0008514
886	0.0009636
898	0.0012078
910	0.0015378
922	0.0019272
934	0.0023232
946	0.0020988
958	0.0016962
970	0.0016104
982	0.0017754
994	0.0018942
1006	0.0019998
1018	0.0023034
1030	0.0027522
1042	0.0029832
1054	0.0030096
1066	0.0032406
1078	0.0035838
1090	0.0038874
1102	0.0039996
1114	0.003663
1126	0.0035904
1138	0.0032142
1150	0.0023826
1162	0.0019338
1174	0.0016764
1186	0.0015642
1198	0.0015972
1210	0.0018348
1222	0.0021582
1234	0.0026466
1246	0.0029502
1258	0.002541
1270	0.0021318
1282	0.0019272
1294	0.0019008
1306	0.0019668
1318	0.0019206
1330	0.0021384
1342	0.002871
1354	0.00363
1366	0.0041052
1378	0.0049038
1390	0.0040656
1402	0.00264
1414	0.0018612
1426	0.0017886
1438	0.002574
1450	0.0042438
1462	0.0054054
1474	0.0034782
1486	0.0015246
1498	0.0008646
1510	0.0005544
1522	0.0004224
1534	0.0003432
1546	0.0002508
1558	0.000297
1570	0.0001914
1582	0.0001584
1594	0.000132
1606	0.0001254
1618	0.0001188
1630	0.0001188
1642	0.0001254
1654	0.0001518
1666	0.0001386
1678	0.0001056
1690	8.58e-05
1702	0.0001188
1714	0.0001188
1726	0.0001386
1738	0.0001518
1750	7.26e-05
1762	3.96e-05
1774	5.28e-05
1786	3.96e-05
1798	4.62e-05
1810	3.96e-05
1822	3.96e-05
1834	4.62e-05
1846	5.28e-05
1858	1.98e-05
1870	1.98e-05
1882	1.98e-05
1894	2.64e-05
1906	1.98e-05
1918	3.3e-05
1930	6.6e-06
1942	0
1954	6.6e-06
1966	6.6e-06
1978	0
1990	1.98e-05
2002	1.98e-05
2014	3.3e-05
2026	8.58e-05
2038	7.26e-05
2050	5.28e-05
2062	6.6e-05
2074	4.62e-05
2086	3.96e-05
2098	1.32e-05
2110	2.64e-05
2122	1.98e-05
2134	4.62e-05
2146	7.26e-05
2158	3.3e-05
2170	5.28e-05
2182	6.6e-05
2194	3.96e-05
2206	5.94e-05
2218	5.28e-05
2230	6.6e-05
2242	5.28e-05
2254	6.6e-05
2266	6.6e-05
2278	9.9e-05
2290	6.6e-05
2302	9.9e-05
2314	9.24e-05
2326	6.6e-05
2338	0.0001122
2350	9.9e-05
2362	0.0001254
2374	0.0001056
2386	0.0001254
2398	0.0001122
2410	0.0001188
2422	0.0001254
2434	0.0001254
2446	0.0001056
2458	0.0001254
2470	0.0001254
2482	0.000132
2494	0.0001386
2506	0.0001716
2518	0.0001914
2530	0.0002442
2542	0.0002178
2554	0.000264
2566	0.0003036
2578	0.00033
2590	0.000396
2602	0.000429
2614	0.0004752
2626	0.0005346
2638	0.0006138
2650	0.0006798
2662	0.000759
2674	0.000825
2686	0.0008184
2698	0.0007986
2710	0.0007722
2722	0.0008316
2734	0.0008976
2746	0.0010032
2758	0.0010692
2770	0.0011748
2782	0.0014322
2794	0.0017886
2806	0.0022968
2818	0.003069
2830	0.0043494
2842	0.0074448
2854	0.0169554
2866	0.0246444
2878	0.0191598
2890	0.0166452
2902	0.0200244
2914	0.0318384
2926	0.056892
2938	0.061413
2950	0.034386
2962	0.0245586
2974	0.0209946
2986	0.0113322
2998	0.0053262
3010	0.0031284
3022	0.0021648
3034	0.0015642
3046	0.0012078
3058	0.0009438
3070	0.0008184
3082	0.000759
3094	0.0006732
3106	0.0006138
3118	0.0005214
3130	0.0005016
3142	0.0004686
3154	0.0004488
3166	0.0004026
3178	0.0003828
3190	0.0003894
3202	0.0003234
3214	0.0002772
3226	0.0002244
3238	0.0001914
3250	0.0001584
3262	0.0001584
3274	8.58e-05
3286	0.0001254
3298	0.0001254
3310	0.0001386
3322	0.0001122
3334	0.0001584
3346	5.94e-05
3358	0.000165
3370	0.0001188
3382	0.0001122
3394	0.000165
3406	0.000132
3418	0.0001518
3430	0.000198
3442	0.000198
3454	0.0001386
3466	0.0001122
3478	9.9e-05
3490	0.000132
3502	5.28e-05
3514	8.58e-05
3526	8.58e-05
3538	8.58e-05
3550	4.62e-05
3562	5.94e-05
3574	9.9e-05
3586	8.58e-05
3598	0.0001782
3610	0.0002442
3622	0.0004422
3634	0.0008052
3646	0.0013926
3658	0.0016632
3670	0.0008382
3682	0.0004158
3694	0.0002574
3706	0.0001848
3718	0.000198
3730	0.0001782
3742	0.000165
3754	0.0001914
3766	0.000165
3778	0.000165
3790	0.0001716
3802	0.0002706
3814	0.0002442
3826	0.0002244
3838	0.0002442
