Infrared Spectrum: 2-Undecanol
Formula: C 11 H 24 O
CAS: 1653-30-1
State: gas
Instrument: HP-GC/MS/IRD
Origin: NIST Mass Spectrometry Data Center
1/CM	ABSORBANCE
550	0.0007191
562	0.0001887
574	0.0001887
586	0.0001428
598	5.61e-05
610	1.02e-05
622	8.67e-05
634	0.0001224
646	0.0001173
658	3.06e-05
670	4.59e-05
682	0.0002091
694	0.0002652
706	0.0004488
718	0.0007344
730	0.0007191
742	0.0005151
754	0.0004131
766	0.0004182
778	0.0004182
790	0.000408
802	0.0004488
814	0.0004896
826	0.0005253
838	0.0007446
850	0.0008058
862	0.0006834
874	0.0007701
886	0.0008364
898	0.0010608
910	0.0013566
922	0.0016881
934	0.0020145
946	0.0018972
958	0.0016269
970	0.0014739
982	0.0014943
994	0.0017748
1006	0.0023001
1018	0.0026775
1030	0.0026367
1042	0.0025602
1054	0.0027897
1066	0.0030498
1078	0.0032895
1090	0.0036108
1102	0.0036618
1114	0.0033507
1126	0.0034221
1138	0.0031416
1150	0.0022032
1162	0.0017544
1174	0.0015708
1186	0.0015045
1198	0.0015351
1210	0.0017544
1222	0.0020757
1234	0.0024072
1246	0.0026673
1258	0.0022695
1270	0.0019125
1282	0.0016575
1294	0.0016473
1306	0.0016422
1318	0.0016983
1330	0.0018411
1342	0.0025908
1354	0.0031161
1366	0.003774
1378	0.0046665
1390	0.0039933
1402	0.0025245
1414	0.0017493
1426	0.0016065
1438	0.0023562
1450	0.0035751
1462	0.0044982
1474	0.0031365
1486	0.0014229
1498	0.0008058
1510	0.0008925
1522	0.000612
1534	0.0003978
1546	0.000408
1558	0.0004386
1570	0.0001428
1582	8.16e-05
1594	4.59e-05
1606	7.65e-05
1618	0.0001428
1630	8.67e-05
1642	0.0001377
1654	0.0003315
1666	0.0001581
1678	0.0001989
1690	0.0001836
1702	0.0003417
1714	0.0003009
1726	0.0001683
1738	0.000255
1750	0.0002703
1762	0.000153
1774	0.0001632
1786	0.0001326
1798	0.0001326
1810	7.65e-05
1822	7.14e-05
1834	7.14e-05
1846	0.0001377
1858	4.59e-05
1870	0.0001224
1882	2.55e-05
1894	4.08e-05
1906	2.55e-05
1918	5.61e-05
1930	2.04e-05
1942	4.59e-05
1954	1.02e-05
1966	4.08e-05
1978	1.53e-05
1990	5.1e-05
2002	2.55e-05
2014	3.57e-05
2026	5.1e-05
2038	4.59e-05
2050	4.08e-05
2062	4.59e-05
2074	2.55e-05
2086	3.57e-05
2098	2.55e-05
2110	1.02e-05
2122	2.04e-05
2134	2.55e-05
2146	4.59e-05
2158	4.08e-05
2170	4.59e-05
2182	4.59e-05
2194	3.57e-05
2206	3.57e-05
2218	2.04e-05
2230	5.1e-05
2242	3.57e-05
2254	5.61e-05
2266	5.1e-05
2278	4.59e-05
2290	5.1e-05
2302	7.65e-05
2314	9.69e-05
2326	0.000102
2338	0.0001173
2350	9.69e-05
2362	0.0001275
2374	0.0001173
2386	9.69e-05
2398	8.16e-05
2410	7.14e-05
2422	6.12e-05
2434	7.14e-05
2446	8.16e-05
2458	6.63e-05
2470	9.18e-05
2482	8.16e-05
2494	9.69e-05
2506	9.18e-05
2518	0.0001173
2530	0.0001326
2542	0.0001632
2554	0.0001581
2566	0.0001938
2578	0.0002397
2590	0.0002397
2602	0.0002907
2614	0.0003162
2626	0.000408
2638	0.0004284
2650	0.0005304
2662	0.0005712
2674	0.0006069
2686	0.0006222
2698	0.0005967
2710	0.0005814
2722	0.0006324
2734	0.0006783
2746	0.0007497
2758	0.0008058
2770	0.000918
2782	0.0010914
2794	0.0013668
2806	0.0017646
2818	0.0024174
2830	0.0034527
2842	0.0060945
2854	0.0132447
2866	0.0192219
2878	0.0165189
2890	0.0144279
2902	0.0166617
2914	0.0259947
2926	0.0444975
2938	0.0482715
2950	0.0293913
2962	0.0223941
2974	0.0198186
2986	0.0106131
2998	0.0048042
3010	0.0027183
3022	0.0018462
3034	0.0013209
3046	0.0010302
3058	0.0008364
3070	0.000714
3082	0.0006324
3094	0.0005202
3106	0.0004692
3118	0.0003927
3130	0.0003519
3142	0.0003315
3154	0.0002907
3166	0.0002805
3178	0.0002652
3190	0.0002601
3202	0.0002346
3214	0.0001938
3226	0.0001377
3238	0.0001071
3250	7.65e-05
3262	5.61e-05
3274	5.1e-05
3286	4.59e-05
3298	5.1e-05
3310	6.63e-05
3322	5.1e-05
3334	4.59e-05
3346	3.57e-05
3358	4.08e-05
3370	8.16e-05
3382	6.12e-05
3394	0.0001173
3406	6.12e-05
3418	9.69e-05
3430	8.16e-05
3442	8.67e-05
3454	6.12e-05
3466	4.59e-05
3478	6.63e-05
3490	3.06e-05
3502	9.69e-05
3514	2.55e-05
3526	0.0001479
3538	6.12e-05
3550	8.16e-05
3562	0.0001173
3574	3.06e-05
3586	0.0002448
3598	0.0001428
3610	0.0003162
3622	0.0004386
3634	0.0008007
3646	0.0014178
3658	0.0015759
3670	0.0008823
3682	0.0002958
3694	0.000153
3706	0.000102
3718	0.0001275
3730	0.0001428
3742	0.0002091
3754	0.0001071
3766	4.08e-05
3778	1.53e-05
3790	1.02e-05
3802	0.0001173
3814	7.65e-05
3826	8.67e-05
3838	0.0001479
