Infrared Spectrum: 3-Tetradecanol
Formula: C 14 H 30 O
CAS: 1653-32-3
State: gas
Instrument: HP-GC/MS/IRD
Origin: NIST Mass Spectrometry Data Center
1/CM	ABSORBANCE
550	0.000221
562	0.0002535
574	0.000351
586	0.000273
598	0.0003055
610	0.000143
622	0.0002275
634	0.0001365
646	0.0001755
658	0.0001495
670	0.0001235
682	0.0002145
694	0.000351
706	0.0006565
718	0.0009555
730	0.000819
742	0.000637
754	0.000546
766	0.0005785
778	0.0006175
790	0.0005135
802	0.000442
814	0.000494
826	0.0005915
838	0.0005005
850	0.0005915
862	0.0006825
874	0.000754
886	0.000858
898	0.000975
910	0.001196
922	0.0014235
934	0.0016315
946	0.002054
958	0.0029835
970	0.003692
982	0.003341
994	0.0029965
1006	0.002756
1018	0.002561
1030	0.002301
1042	0.0021515
1054	0.002028
1066	0.0020345
1078	0.0021515
1090	0.002314
1102	0.002626
1114	0.0026325
1126	0.0025415
1138	0.0020865
1150	0.001508
1162	0.001365
1174	0.0013325
1186	0.001378
1198	0.001586
1210	0.001911
1222	0.002223
1234	0.0022555
1246	0.0021125
1258	0.0019695
1270	0.001872
1282	0.0018655
1294	0.0019305
1306	0.0019565
1318	0.001807
1330	0.001807
1342	0.0023465
1354	0.002964
1366	0.003237
1378	0.003302
1390	0.0029575
1402	0.002054
1414	0.001521
1426	0.0015665
1438	0.002522
1450	0.004238
1462	0.0056095
1474	0.0037375
1486	0.0016185
1498	0.0008385
1510	0.0005915
1522	0.00039
1534	0.000286
1546	0.0002405
1558	0.0001625
1570	0.000169
1582	0.000169
1594	0.0001495
1606	0.0001235
1618	9.1e-05
1630	8.45e-05
1642	8.45e-05
1654	1.95e-05
1666	5.85e-05
1678	8.45e-05
1690	5.2e-05
1702	3.25e-05
1714	4.55e-05
1726	7.15e-05
1738	5.2e-05
1750	5.2e-05
1762	1.95e-05
1774	0
1786	4.55e-05
1798	2.6e-05
1810	3.25e-05
1822	3.25e-05
1834	1.95e-05
1846	3.25e-05
1858	1.95e-05
1870	3.25e-05
1882	2.6e-05
1894	1.95e-05
1906	3.25e-05
1918	1.95e-05
1930	6.5e-06
1942	3.25e-05
1954	2.6e-05
1966	1.95e-05
1978	1.95e-05
1990	3.9e-05
2002	1.3e-05
2014	5.85e-05
2026	7.8e-05
2038	8.45e-05
2050	6.5e-05
2062	5.85e-05
2074	5.2e-05
2086	4.55e-05
2098	4.55e-05
2110	1.95e-05
2122	3.9e-05
2134	5.85e-05
2146	6.5e-05
2158	6.5e-05
2170	7.8e-05
2182	7.8e-05
2194	5.85e-05
2206	7.15e-05
2218	7.8e-05
2230	6.5e-05
2242	5.85e-05
2254	7.15e-05
2266	9.1e-05
2278	9.75e-05
2290	9.75e-05
2302	0.0001105
2314	0.000117
2326	9.1e-05
2338	6.5e-05
2350	9.1e-05
2362	3.9e-05
2374	0.000104
2386	0.000143
2398	0.0001235
2410	0.0001235
2422	0.000117
2434	0.000117
2446	0.0001235
2458	0.0001235
2470	0.000117
2482	0.0001105
2494	0.0001235
2506	0.00013
2518	0.0001755
2530	0.0002015
2542	0.0002145
2554	0.0002275
2566	0.0002665
2578	0.0003185
2590	0.000338
2602	0.000416
2614	0.0004355
2626	0.0004745
2638	0.0005265
2650	0.000598
2662	0.000676
2674	0.000754
2686	0.000767
2698	0.0007475
2710	0.0007475
2722	0.0007735
2734	0.000871
2746	0.0009815
2758	0.001027
2770	0.0011505
2782	0.0013455
2794	0.001651
2806	0.0021255
2818	0.0028925
2830	0.004212
2842	0.0073645
2854	0.016861
2866	0.024609
2878	0.019084
2890	0.016796
2902	0.019344
2914	0.0306215
2926	0.055224
2938	0.0611715
2950	0.0351715
2962	0.0243555
2974	0.0206375
2986	0.009932
2998	0.0050505
3010	0.0031135
3022	0.0021905
3034	0.0016835
3046	0.001326
3058	0.0010595
3070	0.000897
3082	0.0008255
3094	0.0007475
3106	0.000611
3118	0.000546
3130	0.000481
3142	0.0004355
3154	0.000364
3166	0.000351
3178	0.0003185
3190	0.0002795
3202	0.0002405
3214	0.000182
3226	0.000156
3238	0.000104
3250	0.000117
3262	0.0001235
3274	9.75e-05
3286	0.000104
3298	9.1e-05
3310	7.8e-05
3322	7.15e-05
3334	8.45e-05
3346	9.1e-05
3358	6.5e-05
3370	6.5e-05
3382	9.1e-05
3394	9.75e-05
3406	0.0001235
3418	0.0001495
3430	0.000182
3442	0.00013
3454	0.0001755
3466	0.0001495
3478	6.5e-05
3490	0.0001365
3502	9.75e-05
3514	7.8e-05
3526	8.45e-05
3538	0.000117
3550	5.85e-05
3562	9.75e-05
3574	0.000104
3586	0.000156
3598	0.000169
3610	0.000273
3622	0.000403
3634	0.000754
3646	0.00117
3658	0.001586
3670	0.000806
3682	0.000364
3694	0.000208
3706	0.000156
3718	0.000169
3730	0.00013
3742	0.000143
3754	0.0001365
3766	0.000156
3778	0.00013
3790	0.0001755
3802	0.00013
3814	0.000117
3826	0.0001625
3838	0.000156
