Infrared Spectrum: Trihexyl citrate
Formula: C24 H44 O7
CAS: 16544-70-0
State: SOLUTION (10% CCl4 FOR 2.7-7.5, 10% CS2 FOR 7.5-26 MICRON) VS SOLVENT
Class: COBLENTZ III
Instrument: DOW KBr FOREPRISM-GRATING
Instrument parameters: BLAZED AT 3.5, 12.0, 20.0 MICRON AND CHANGED AT 5.0, 7.5, 14.9 MICRON
Sampling: TRANSMISSION
Path length: 0.011 CM, 0.011 CM
Resolution: 2
Origin: DOW CHEMICAL COMPANY
1/CM	TRANSMITTANCE
3800	0.8523
3791	0.8517
3782	0.8515
3773	0.8517
3764	0.8525
3755	0.8535
3746	0.8541
3737	0.8546
3728	0.8551
3719	0.8556
3710	0.8563
3701	0.8568
3692	0.8574
3683	0.8575
3674	0.8575
3665	0.8574
3656	0.8573
3647	0.857
3638	0.8568
3629	0.8541
3620	0.8496
3611	0.8473
3602	0.8453
3593	0.8412
3584	0.8237
3575	0.7928
3566	0.7661
3557	0.7634
3548	0.7608
3539	0.7392
3530	0.709
3521	0.6797
3512	0.6548
3503	0.641
3494	0.6394
3485	0.6508
3476	0.6712
3467	0.6918
3458	0.7107
3449	0.7254
3440	0.7393
3431	0.7522
3422	0.7636
3413	0.7748
3404	0.7842
3395	0.793
3386	0.8018
3377	0.8107
3368	0.8199
3359	0.8291
3350	0.8368
3341	0.8439
3332	0.8509
3323	0.8557
3314	0.8603
3305	0.8631
3296	0.8652
3287	0.8671
3278	0.869
3269	0.8701
3260	0.8714
3251	0.872
3242	0.8724
3233	0.8727
3224	0.8728
3215	0.873
3206	0.8721
3197	0.8701
3188	0.8665
3179	0.8648
3170	0.8645
3161	0.8644
3152	0.8634
3143	0.8636
3134	0.864
3125	0.863
3116	0.8615
3107	0.8599
3098	0.8573
3089	0.8543
3080	0.8512
3071	0.8478
3062	0.8434
3053	0.8381
3044	0.8284
3035	0.8169
3026	0.8045
3017	0.7676
3008	0.7355
2999	0.7011
2990	0.607
2981	0.3484
2972	0.1514
2963	0.0295
2954	0.0232
2945	0.0538
2936	0.0566
2927	0.0348
2918	0.0362
2909	0.1042
2900	0.1924
2891	0.2659
2882	0.3542
2873	0.1459
2864	0.1826
2855	0.132
2846	0.3039
2837	0.5391
2828	0.6593
2819	0.7056
2810	0.7338
2801	0.7528
2792	0.7707
2783	0.7826
2774	0.7938
2765	0.8025
2756	0.8087
2747	0.8135
2738	0.8158
2729	0.8131
2720	0.8061
2711	0.8104
2702	0.8165
2693	0.8194
2684	0.8194
2675	0.8182
2666	0.8161
2657	0.8172
2648	0.8208
2639	0.8244
2630	0.8273
2621	0.8297
2612	0.8311
2603	0.8321
2594	0.8335
2585	0.8351
2576	0.8375
2567	0.8401
2558	0.8421
2549	0.8442
2540	0.8462
2531	0.8471
2522	0.8478
2513	0.8487
2504	0.8497
2495	0.8508
2486	0.8518
2477	0.8525
2468	0.8528
2459	0.8532
2450	0.8531
2441	0.8528
2432	0.8525
2423	0.8514
2414	0.8502
2405	0.848
2396	0.8456
2387	0.844
2378	0.843
2369	0.8446
2360	0.8463
2351	0.8481
2342	0.8497
2333	0.8499
2324	0.8477
2315	0.8454
2306	0.8433
2297	0.8427
2288	0.8424
2279	0.8438
2270	0.846
2261	0.8477
2252	0.8495
2243	0.8508
2234	0.8517
2225	0.8525
2216	0.8533
2207	0.8539
2198	0.8543
2189	0.8547
2180	0.8568
2171	0.8606
2162	0.856
2153	0.8551
2144	0.8546
2135	0.854
2126	0.8535
2117	0.853
2108	0.8525
2099	0.8518
2090	0.8514
2081	0.8508
2072	0.8504
2063	0.8498
2054	0.8493
2045	0.8488
2036	0.8485
2027	0.8482
2018	0.848
2009	0.8477
2000	0.8475
1991	0.848
1982	0.8487
1973	0.8487
1964	0.8484
1955	0.848
1946	0.8475
1937	0.847
1928	0.8467
1919	0.8466
1910	0.8465
1901	0.8464
1892	0.8444
1883	0.8389
1874	0.8357
1865	0.8341
1856	0.8325
1847	0.8301
1838	0.8268
1829	0.8225
1820	0.8168
1811	0.8068
1802	0.7928
1793	0.7728
1784	0.745
1775	0.6964
1766	0.4068
1757	0.1296
1748	0.0338
1739	0.0079
1730	0.0063
1721	0.0425
1712	0.174
1703	0.4183
1694	0.5308
1685	0.6407
1676	0.7161
1667	0.748
1658	0.7689
1649	0.7818
1640	0.7907
1631	0.7974
1622	0.8032
1613	0.808
1604	0.8126
1595	0.8168
1586	0.8198
1577	0.8216
1568	0.8224
1559	0.8236
1550	0.8255
1541	0.8261
1532	0.8253
1523	0.8169
1514	0.8138
1505	0.7995
1496	0.7822
1487	0.7525
1478	0.4805
1469	0.2034
1460	0.2909
1451	0.4665
1442	0.529
1433	0.4601
1424	0.4806
1415	0.4262
1406	0.3752
1397	0.3438
1388	0.3507
1379	0.3259
1370	0.4074
1361	0.3584
1352	0.2646
1343	0.2084
1334	0.2217
1325	0.2575
1316	0.2989
1307	0.2893
1298	0.2828
1289	0.2852
1280	0.2655
1271	0.2657
1262	0.2696
1253	0.2616
1244	0.1961
1235	0.1588
1226	0.143
1217	0.108
1208	0.0749
1199	0.0415
1190	0.0254
1181	0.0189
1172	0.0202
1163	0.068
1154	0.2101
1145	0.3032
1136	0.319
1127	0.3126
1118	0.3106
1109	0.316
1100	0.358
1091	0.3928
1082	0.3775
1073	0.3578
1064	0.3759
1055	0.3708
1046	0.4335
1037	0.4703
1028	0.5525
1019	0.5862
1010	0.497
1001	0.4385
992	0.3605
983	0.3857
974	0.4957
965	0.5722
956	0.5824
947	0.585
938	0.6098
929	0.6451
920	0.6589
911	0.6431
902	0.5699
893	0.591
884	0.6461
875	0.6882
866	0.7148
857	0.7384
848	0.7525
839	0.7567
830	0.7451
821	0.7442
812	0.7295
803	0.716
794	0.7178
785	0.7208
776	0.7217
767	0.7246
758	0.7307
749	0.7348
740	0.7349
731	0.691
722	0.6236
713	0.7199
704	0.746
695	0.7614
686	0.7687
677	0.7724
668	0.7681
659	0.7611
650	0.7469
641	0.7381
632	0.7356
623	0.7226
614	0.688
605	0.6736
596	0.6706
587	0.6665
578	0.6643
569	0.6669
560	0.6708
551	0.675
542	0.6786
533	0.6814
524	0.6831
515	0.6834
506	0.6842
497	0.6855
488	0.6874
479	0.689
470	0.6889
461	0.6878
452	0.6865
443	0.6847
434	0.6828
425	0.6818
416	0.6838
407	0.6855
398	0.6857
389	0.6878
