Infrared Spectrum: 4-HEPTANONE, (2,4-DINITROPHENYL)HYDRAZONE
Formula: C13 H18 N4 O4
CAS: 1655-41-0
State: SOLUTION (CS2) VS. SOLVENT
Class: COBLENTZ III
Instrument: PERKIN-ELMER 21 (GRATING)
Instrument parameters: NaCl PRISM
Sampling: TRANSMISSION
Path length: 0.10 CM
Resolution: 4
Origin: E. REGION RESEARCH LAB.
1/CM	TRANSMITTANCE
647.269	0.905
655.706	0.834
664.143	0.904
672.58	0.912
681.017	0.856
689.454	0.881
697.891	0.922
706.328	0.911
714.765	0.812
723.202	0.701
731.639	0.827
740.076	0.659
748.513	0.6649
756.95	0.87
765.387	0.8068
773.824	0.914
782.261	0.926
790.698	0.929
799.135	0.929
807.572	0.924
816.009	0.909
824.446	0.848
832.883	0.244
841.32	0.8169
849.757	0.912
858.194	0.928
866.631	0.926
875.068	0.932
883.505	0.926
891.942	0.905
900.379	0.884
908.816	0.829
917.253	0.666
925.69	0.4689
934.127	0.853
942.564	0.915
951.001	0.926
959.438	0.931
967.875	0.928
976.312	0.918
984.749	0.928
993.186	0.929
1001.62	0.924
1010.06	0.912
1018.5	0.893
1026.93	0.852
1035.37	0.774
1043.81	0.648
1052.24	0.575
1060.68	0.616
1069.12	0.398
1077.56	0.265
1085.99	0.466
1094.43	0.495
1102.87	0.548
1111.3	0.526
1119.74	0.358
1128.18	0.289
1136.61	0.205
1145.05	0.4048
1153.49	0.835
1161.93	0.919
1170.36	0.921
1178.8	0.895
1187.24	0.872
1195.67	0.817
1204.11	0.774
1212.55	0.734
1220.98	0.582
1229.42	0.5369
1237.86	0.728
1246.3	0.717
1254.73	0.606
1263.17	0.436
1271.61	0.201
1280.04	0.195
1288.48	0.257
1296.92	0.251
1305.35	0.13
1313.79	0.028
1322.23	0.18
1330.67	0.042
1339.1	0.002
1347.54	0.095
1355.98	0.267
1364.41	0.376
1372.85	0.54
1381.29	0.607
1389.72	0.704
1398.16	0.774
1406.6	0.839
1415.04	0.94
1423.47	0.957
1431.91	0.978
1440.35	0.969
1448.78	0.964
1457.22	0.956
1465.66	0.947
1474.09	0.925
1482.53	0.898
1490.97	0.874
1499.41	0.86
1507.84	0.824
1516.28	0.798
1524.72	0.758
1533.15	0.713
1541.59	0.669
1550.03	0.623
1558.46	0.579
1566.9	0.535
1575.34	0.492
1583.78	0.443
1592.21	0.375
1600.65	0.312
1609.09	0.234
1617.52	0.213
1625.96	0.303
1634.4	0.527
1642.83	0.694
1651.27	0.789
1659.71	0.815
1668.15	0.829
1676.58	0.88
1685.02	0.902
1693.46	0.919
1701.89	0.925
1710.33	0.943
1718.77	0.942
1727.2	0.956
1735.64	0.96
1744.08	0.957
1752.52	0.95
1760.95	0.964
1769.39	0.96
1777.83	0.962
1786.26	0.964
1794.7	0.954
1803.14	0.954
1811.57	0.964
1820.01	0.963
1828.45	0.943
1836.89	0.939
1845.32	0.954
1853.76	0.956
1862.2	0.953
1870.63	0.95
1879.07	0.949
1887.51	0.943
1895.94	0.942
1904.38	0.94
1912.82	0.938
1921.26	0.935
1929.69	0.924
1938.13	0.907
1946.57	0.867
1955	0.888
1963.44	0.909
1971.88	0.909
1980.31	0.912
1988.75	0.915
1997.19	0.919
2005.63	0.922
2014.06	0.924
2022.5	0.925
2030.94	0.926
2039.37	0.928
2047.81	0.9306
2056.25	0.9318
2064.68	0.9327
2073.12	0.9344
2081.56	0.935
2090	0.936
2098.43	0.938
2106.87	0.9385
2115.31	0.939
2123.74	0.94
2132.18	0.942
2140.62	0.9424
2149.05	0.943
2157.49	0.945
2165.93	0.945
2174.37	0.945
2182.8	0.945
2191.24	0.943
2199.68	0.9428
2208.11	0.94
2216.55	0.9389
2224.99	0.936
2233.42	0.935
2241.86	0.933
2250.3	0.932
2258.74	0.9291
2267.17	0.928
2275.61	0.926
2284.05	0.9252
2292.48	0.9242
2300.92	0.922
2309.36	0.921
2317.79	0.919
2326.23	0.9144
2334.67	0.9114
2343.11	0.9084
2351.54	0.905
2359.98	0.8995
2368.42	0.8935
2376.85	0.8906
2385.29	0.887
2393.73	0.8836
2402.16	0.8797
2410.6	0.8767
2419.04	0.8697
2427.48	0.8623
2435.91	0.8528
2444.35	0.85
2452.79	0.8521
2461.22	0.8563
2469.66	0.8661
2478.1	0.886
2486.53	0.9009
2494.97	0.9079
2503.41	0.9147
2511.85	0.914
2520.28	0.9073
2528.72	0.8988
2537.16	0.8824
2545.59	0.8723
2554.03	0.8727
2562.47	0.8809
2570.9	0.8959
2579.34	0.9012
2587.78	0.9076
2596.22	0.9064
2604.65	0.892
2613.09	0.8871
2621.53	0.8723
2629.96	0.8551
2638.4	0.8399
2646.84	0.8287
2655.27	0.8223
2663.71	0.81
2672.15	0.8116
2680.59	0.8228
2689.02	0.8466
2697.46	0.8575
2705.9	0.8661
2714.33	0.8628
2722.77	0.85
2731.21	0.8312
2739.64	0.829
2748.08	0.8319
2756.52	0.8359
2764.96	0.8382
2773.39	0.8296
2781.83	0.8067
2790.27	0.7892
2798.7	0.7422
2807.14	0.6893
2815.58	0.67
2824.01	0.6441
2832.45	0.6164
2840.89	0.5414
2849.33	0.497
2857.76	0.3617
2866.2	0.2511
2874.64	0.211
2883.07	0.2728
2891.51	0.3125
2899.95	0.3295
2908.38	0.3284
2916.82	0.3037
2925.26	0.1949
2933.7	0.1291
2942.13	0.1105
2950.57	0.0844
2959.01	0.0731
2967.44	0.1059
2975.88	0.3325
2984.32	0.5367
2992.75	0.5708
3001.19	0.6509
3009.63	0.7376
3018.07	0.7518
3026.5	0.7942
3034.94	0.8122
3043.38	0.826
3051.81	0.8442
3060.25	0.843
3068.69	0.8124
3077.12	0.7564
3085.56	0.6537
3094	0.552
3102.44	0.5081
3110.87	0.6089
3119.31	0.722
3127.75	0.7962
3136.18	0.8478
3144.62	0.8717
3153.06	0.8872
3161.49	0.8913
3169.93	0.893
3178.37	0.891
3186.81	0.8931
3195.24	0.8981
3203.68	0.901
3212.12	0.8981
3220.55	0.8941
3228.99	0.8873
3237.43	0.8813
3245.86	0.8826
3254.3	0.893
3262.74	0.8887
3271.18	0.8787
3279.61	0.8557
3288.05	0.8298
3296.49	0.7929
3304.92	0.5973
3313.36	0.4306
3321.8	0.3226
3330.23	0.2903
3338.67	0.4231
3347.11	0.66
3355.55	0.7474
3363.98	0.832
3372.42	0.8754
3380.86	0.8983
3389.29	0.9149
3397.73	0.9252
3406.17	0.9335
3414.6	0.9402
3423.04	0.9461
3431.48	0.9501
3439.92	0.954
3448.35	0.956
3456.79	0.956
3465.23	0.956
3473.66	0.957
3482.1	0.9599
3490.54	0.963
3498.97	0.964
3507.41	0.964
3515.85	0.963
3524.29	0.964
3532.72	0.967
3541.16	0.966
3549.6	0.966
3558.03	0.966
3566.47	0.964
3574.91	0.963
3583.34	0.9612
3591.78	0.9608
3600.22	0.9634
3608.66	0.967
3617.09	0.969
3625.53	0.97
3633.97	0.969
3642.4	0.9702
3650.84	0.973
3659.28	0.9709
3667.71	0.969
3676.15	0.9689
3684.59	0.966
3693.03	0.964
3701.46	0.9659
3709.9	0.9697
3718.34	0.971
3726.77	0.971
3735.21	0.9692
3743.65	0.9662
3752.08	0.964
3760.52	0.964
3768.96	0.964
3777.4	0.967
3785.83	0.969
3794.27	0.9706
3802.71	0.9705
3811.14	0.973
3819.58	0.9749
3828.02	0.976
3836.45	0.976
3844.89	0.9753
3853.33	0.9737
3861.77	0.9707
3870.2	0.969
3878.64	0.969
3887.08	0.969
3895.51	0.966
3903.95	0.9639
3912.39	0.962
3920.82	0.962
3929.26	0.962
3937.7	0.962
3946.14	0.9602
3954.57	0.96
3963.01	0.96
3971.45	0.96
3979.88	0.96
3988.32	0.96
3996.76	0.96
4005.19	0.96
