Infrared Spectrum: 4-METHYL-2-PENTANONE, 2,4-DINITROPHENYL-HYDRAZONE
Formula: C12 H16 N4 O4
CAS: 1655-42-1
State: SOLID (1.4 mg / 212 mg KBr DISC) VS. KBr
Class: COBLENTZ III
Instrument: BECKMAN IR-4 (HYBRID PRISM-GRATING)
Sampling: TRANSMISSION
Resolution: 4
Origin: UNIVERSITY OF FLORIDA
MICROMETERS	TRANSMITTANCE
0.994	0.288
1.03066	0.297
1.06733	0.302
1.10399	0.308
1.14066	0.319
1.17732	0.327
1.21399	0.335
1.25065	0.343
1.28732	0.355
1.32398	0.361
1.36065	0.371
1.39731	0.381
1.43398	0.389
1.47064	0.399
1.50731	0.403
1.54397	0.408
1.58064	0.418
1.6173	0.421
1.65397	0.428
1.69063	0.44
1.7273	0.446
1.76396	0.45
1.80063	0.46
1.83729	0.467
1.87396	0.474
1.91062	0.481
1.94729	0.488
1.98395	0.495
2.02062	0.504
2.05728	0.508
2.09395	0.513
2.13061	0.52
2.16728	0.526
2.20394	0.535
2.24061	0.535
2.27727	0.543
2.31393	0.552
2.3506	0.559
2.38726	0.562
2.42393	0.569
2.46059	0.579
2.49726	0.586
2.53392	0.595
2.57059	0.605
2.60725	0.611
2.64392	0.608
2.68058	0.62
2.71725	0.626
2.75391	0.638
2.79058	0.644
2.82724	0.645
2.86391	0.649
2.90057	0.653
2.93724	0.66
2.9739	0.668
3.01057	0.587
3.04723	0.56
3.0839	0.649
3.12056	0.664
3.15723	0.67
3.19389	0.674
3.23056	0.551
3.26722	0.628
3.30389	0.679
3.34055	0.633
3.37722	0.47
3.41388	0.517
3.45055	0.569
3.48721	0.558
3.52388	0.657
3.56054	0.667
3.5972	0.685
3.63387	0.691
3.67053	0.706
3.7072	0.715
3.74386	0.72
3.78053	0.726
3.81719	0.729
3.85386	0.739
3.89052	0.744
3.92719	0.747
3.96385	0.753
4.00052	0.761
4.03718	0.763
4.07385	0.767
4.11051	0.761
4.14718	0.766
4.18384	0.769
4.22051	0.79
4.25717	0.807
4.29384	0.808
4.3305	0.809
4.36717	0.806
4.40383	0.803
4.4405	0.805
4.47716	0.813
4.51383	0.822
4.55049	0.82
4.58716	0.821
4.62382	0.831
4.66049	0.837
4.69715	0.837
4.73382	0.846
4.77048	0.85
4.80715	0.855
4.84381	0.856
4.88047	0.856
4.91714	0.865
4.9538	0.87
4.99047	0.87
5.02713	0.866
5.0638	0.848
5.10046	0.868
5.13713	0.877
5.17379	0.891
5.21046	0.894
5.24712	0.897
5.28379	0.904
5.32045	0.904
5.35712	0.903
5.39378	0.901
5.43045	0.903
5.46711	0.887
5.50378	0.899
5.54044	0.914
5.57711	0.921
5.61377	0.927
5.65044	0.923
5.6871	0.921
5.72377	0.921
5.76043	0.917
5.7971	0.928
5.83376	0.919
5.87043	0.911
5.90709	0.899
5.94376	0.881
5.98042	0.871
6.01709	0.848
6.05375	0.764
6.09042	0.625
6.12708	0.38
6.16374	0.115
6.20041	0.28
6.23707	0.473
6.27374	0.212
6.3104	0.242
6.34707	0.4
6.38373	0.638
6.4204	0.733
6.45706	0.761
6.49373	0.623
6.53039	0.503
6.56706	0.38
6.60372	0.359
6.64039	0.291
6.67705	0.366
6.71372	0.537
6.75038	0.653
6.78705	0.653
6.82371	0.63
6.86038	0.634
6.89704	0.567
6.93371	0.6
6.97037	0.567
7.00704	0.424
7.0437	0.307
7.08037	0.315
7.11703	0.506
7.1537	0.68
7.19036	0.764
7.22703	0.752
7.26369	0.68
7.30036	0.514
7.33702	0.391
7.37369	0.366
7.41035	0.394
7.44701	0.176
7.48368	0.123
7.52034	0.174
7.55701	0.299
7.59367	0.24
7.63034	0.175
7.667	0.261
7.70367	0.28
7.74033	0.224
7.777	0.338
7.81366	0.379
7.85033	0.339
7.88699	0.199
7.92366	0.119
7.96032	0.166
7.99699	0.281
8.03365	0.387
8.07032	0.496
8.10698	0.578
8.14365	0.591
8.18031	0.403
8.21698	0.329
8.25364	0.4
8.29031	0.49
8.32697	0.555
8.36364	0.604
8.4003	0.65
8.43697	0.686
8.47363	0.706
8.5103	0.72
8.54696	0.73
8.58363	0.741
8.62029	0.781
8.65696	0.788
8.69362	0.71
8.73028	0.475
8.76695	0.401
8.80361	0.36
8.84028	0.35
8.87694	0.398
8.91361	0.441
8.95027	0.469
8.98694	0.503
9.0236	0.521
9.06027	0.561
9.09693	0.597
9.1336	0.621
9.17026	0.627
9.20693	0.615
9.24359	0.574
9.28026	0.48
9.31692	0.395
9.35359	0.456
9.39025	0.54
9.42692	0.615
9.46358	0.625
9.50025	0.565
9.53691	0.56
9.57358	0.632
9.61024	0.671
9.64691	0.696
9.68357	0.71
9.72024	0.719
9.7569	0.733
9.79357	0.74
9.83023	0.754
9.8669	0.76
9.90356	0.762
9.94023	0.759
9.97689	0.755
10.0136	0.754
10.0502	0.752
10.0869	0.753
10.1235	0.757
10.1602	0.77
10.1969	0.785
10.2335	0.796
10.2702	0.803
10.3069	0.809
10.3435	0.813
10.3802	0.82
10.4169	0.82
10.4535	0.815
10.4902	0.816
10.5269	0.824
10.5635	0.831
10.6002	0.834
10.6369	0.846
10.6735	0.844
10.7102	0.838
10.7469	0.815
10.7835	0.741
10.8202	0.595
10.8568	0.51
10.8935	0.554
10.9302	0.561
10.9668	0.619
11.0035	0.702
11.0402	0.779
11.0768	0.8
11.1135	0.811
11.1502	0.824
11.1868	0.832
11.2235	0.833
11.2602	0.838
11.2968	0.846
11.3335	0.849
11.3702	0.849
11.4068	0.854
11.4435	0.846
11.4801	0.837
11.5168	0.846
11.5535	0.856
11.5901	0.858
11.6268	0.856
11.6635	0.848
11.7001	0.834
11.7368	0.803
11.7735	0.786
11.8101	0.707
11.8468	0.527
11.8835	0.531
11.9201	0.647
11.9568	0.741
11.9935	0.764
12.0301	0.725
12.0668	0.656
12.1035	0.668
12.1401	0.753
12.1768	0.781
12.2134	0.788
12.2501	0.806
12.2868	0.832
12.3234	0.846
12.3601	0.852
12.3968	0.852
12.4334	0.851
12.4701	0.858
12.5068	0.86
12.5434	0.862
12.5801	0.864
12.6168	0.864
12.6534	0.865
12.6901	0.865
12.7268	0.866
12.7634	0.867
12.8001	0.868
12.8367	0.862
12.8734	0.862
12.9101	0.864
12.9467	0.867
12.9834	0.867
13.0201	0.864
13.0567	0.854
13.0934	0.797
13.1301	0.743
13.1667	0.78
13.2034	0.835
13.2401	0.847
13.2767	0.845
13.3134	0.833
13.3501	0.791
13.3867	0.734
13.4234	0.509
13.4601	0.418
13.4967	0.511
13.5334	0.669
13.57	0.733
13.6067	0.775
13.6434	0.786
13.68	0.785
13.7167	0.762
13.7534	0.697
13.79	0.588
13.8267	0.559
13.8634	0.623
13.9	0.678
13.9367	0.729
13.9734	0.752
14.01	0.766
14.0467	0.773
14.0834	0.774
14.12	0.782
14.1567	0.788
14.1933	0.785
14.23	0.784
14.2667	0.784
14.3033	0.78
14.34	0.781
14.3767	0.774
14.4133	0.765
14.45	0.753
14.4867	0.743
14.5233	0.731
14.56	0.711
14.5967	0.701
14.6333	0.7
14.67	0.707
14.7067	0.723
14.7433	0.728
14.78	0.736
14.8167	0.74
14.8533	0.744
14.89	0.745
14.9266	0.748
14.9633	0.743
