Infrared Spectrum: Pyridone, 2(1H)-, 4-chloro-3-nitro-
Formula: C5 H3 Cl N2 O3
CAS: 165547-79-5
State: SOLID (0.6 mg / 650 mg KBr DISC)
Class: COBLENTZ III
Instrument: PERKIN-ELMER 21 (GRATING)
Instrument parameters: FILTER CHANGE AT 1090 CM^-^1
Sampling: TRANSMISSION
Resolution: 2
Origin: SOUTHERN RESEARCH INSTITUTE, W.C. Coburn, Jr.
1/CM	TRANSMITTANCE
642.8	1.0266
651.83	1.0209
660.86	1.0033
669.89	0.9803
678.92	0.9698
687.95	0.9405
696.98	0.9174
706.01	0.8698
715.04	0.8632
724.07	0.8329
733.1	0.7827
742.13	0.7188
751.16	0.749
760.19	0.6551
769.22	0.6759
778.25	0.401
787.28	0.5521
796.31	0.7002
805.34	0.7114
814.37	0.8088
823.4	0.7995
832.43	0.7985
841.46	0.805
850.49	0.7828
859.52	0.618
868.55	0.8278
877.58	0.8916
886.61	0.9028
895.64	0.911
904.67	0.9032
913.7	0.8947
922.73	0.8944
931.76	0.8918
940.79	0.8642
949.82	0.8324
958.85	0.7273
967.88	0.5288
976.91	0.7843
985.94	0.8696
994.97	0.8748
1004	0.87
1013.03	0.8601
1022.06	0.848
1031.09	0.8302
1040.12	0.8146
1049.15	0.7924
1058.18	0.7708
1067.21	0.7967
1076.24	0.7284
1085.27	0.7257
1094.3	0.7932
1103.33	0.775
1112.36	0.7307
1121.39	0.5342
1130.42	0.708
1139.45	0.7718
1148.48	0.7205
1157.51	0.6037
1166.54	0.723
1175.57	0.6456
1184.6	0.5635
1193.63	0.5254
1202.66	0.4793
1211.69	0.5448
1220.72	0.6084
1229.75	0.49
1238.78	0.3013
1247.81	0.6733
1256.84	0.7456
1265.87	0.6592
1274.9	0.6337
1283.93	0.7194
1292.96	0.7043
1301.99	0.6489
1311.02	0.6861
1320.05	0.749
1329.08	0.7272
1338.11	0.6748
1347.14	0.575
1356.17	0.4174
1365.2	0.3131
1374.23	0.5309
1383.26	0.7528
1392.29	0.768
1401.32	0.7575
1410.35	0.7377
1419.38	0.7028
1428.41	0.6531
1437.44	0.5605
1446.47	0.5716
1455.5	0.5488
1464.53	0.5475
1473.56	0.5647
1482.59	0.5885
1491.62	0.5771
1500.65	0.4865
1509.68	0.4165
1518.71	0.2877
1527.74	0.1252
1536.77	0.1273
1545.8	0.4064
1554.83	0.4276
1563.86	0.4172
1572.89	0.3651
1581.92	0.3325
1590.95	0.239
1599.98	0.15
1609.01	0.1588
1618.04	0.3157
1627.07	0.4735
1636.1	0.5275
1645.13	0.3425
1654.16	0.2252
1663.19	0.3099
1672.22	0.4228
1681.25	0.4647
1690.28	0.426
1699.31	0.2269
1708.34	0.2158
1717.37	0.2994
1726.4	0.5089
1735.43	0.6434
1744.46	0.7269
1753.49	0.7787
1762.52	0.8098
1771.55	0.8416
1780.58	0.8606
1789.61	0.8706
1798.64	0.8774
1807.67	0.8819
1816.7	0.894
1825.73	0.896
1834.76	0.8983
1843.79	0.8947
1852.82	0.8954
1861.85	0.8998
1870.88	0.9073
1879.91	0.9107
1888.94	0.9093
1897.97	0.9054
1907	0.8998
1916.03	0.8975
1925.06	0.8998
1934.09	0.903
1943.12	0.905
1952.15	0.9056
1961.18	0.9042
1970.21	0.9023
1979.24	0.9018
1988.27	0.9029
1997.3	0.9053
2006.33	0.9048
2015.36	0.9006
2024.39	0.9008
2033.42	0.9034
2042.45	0.9047
2051.48	0.9031
2060.51	0.8992
2069.54	0.8945
2078.57	0.8896
2087.6	0.8871
2096.63	0.8853
2105.66	0.8839
2114.69	0.8818
2123.72	0.8795
2132.75	0.8791
2141.78	0.8808
2150.81	0.8801
2159.84	0.8736
2168.87	0.87
2177.9	0.8682
2186.93	0.8685
2195.96	0.8726
2204.99	0.8718
2214.02	0.8684
2223.05	0.8632
2232.08	0.8577
2241.11	0.8546
2250.14	0.8536
2259.17	0.8532
2268.2	0.8534
2277.23	0.8534
2286.26	0.8535
2295.29	0.8572
2304.32	0.8644
2313.35	0.8697
2322.38	0.8663
2331.41	0.8578
2340.44	0.85
2349.47	0.8453
2358.5	0.841
2367.53	0.8367
2376.56	0.833
2385.59	0.83
2394.62	0.8273
2403.65	0.8246
2412.68	0.8283
2421.71	0.8335
2430.74	0.834
2439.77	0.8254
2448.8	0.8204
2457.83	0.8172
2466.86	0.815
2475.89	0.8128
2484.92	0.8104
2493.95	0.8076
2502.98	0.8045
2512.01	0.8013
2521.04	0.8012
2530.07	0.8034
2539.1	0.807
2548.13	0.8112
2557.16	0.8102
2566.19	0.8062
2575.22	0.8007
2584.25	0.7963
2593.28	0.7957
2602.31	0.7938
2611.34	0.7905
2620.37	0.7873
2629.4	0.7837
2638.43	0.78
2647.46	0.7759
2656.49	0.7695
2665.52	0.7614
2674.55	0.7628
2683.58	0.7665
2692.61	0.765
2701.64	0.7634
2710.67	0.7572
2719.7	0.7537
2728.73	0.7577
2737.76	0.7578
2746.79	0.7526
2755.82	0.7456
2764.85	0.7394
2773.88	0.7338
2782.91	0.7266
2791.94	0.7191
2800.97	0.7088
2810	0.6954
2819.03	0.685
2828.06	0.6762
2837.09	0.6671
2846.12	0.6597
2855.15	0.6555
2864.18	0.653
2873.21	0.6514
2882.24	0.6471
2891.27	0.6395
2900.3	0.63
2909.33	0.6113
2918.36	0.597
2927.39	0.5966
2936.42	0.6041
2945.45	0.6069
2954.48	0.601
2963.51	0.5909
2972.54	0.5814
2981.57	0.5761
2990.6	0.5702
2999.63	0.5553
3008.66	0.5396
3017.69	0.5281
3026.72	0.5203
3035.75	0.5164
3044.78	0.4985
3053.81	0.488
3062.84	0.4762
3071.87	0.46
3080.9	0.4434
3089.93	0.4243
3098.96	0.3879
3107.99	0.3763
3117.02	0.3854
3126.05	0.3953
3135.08	0.3851
3144.11	0.3842
3153.14	0.3918
3162.17	0.397
3171.2	0.4012
3180.23	0.4035
3189.26	0.4082
3198.29	0.4213
3207.32	0.4337
3216.35	0.4503
3225.38	0.4704
3234.41	0.4915
3243.44	0.5127
3252.47	0.5348
3261.5	0.5603
3270.53	0.5821
3279.56	0.6068
3288.59	0.63
3297.62	0.6506
3306.65	0.6662
3315.68	0.6797
3324.71	0.689
3333.74	0.6949
3342.77	0.6984
3351.8	0.6985
3360.83	0.6982
3369.86	0.6968
3378.89	0.6922
3387.92	0.6866
3396.95	0.6851
3405.98	0.6833
3415.01	0.6779
3424.04	0.675
3433.07	0.6749
3442.1	0.6766
3451.13	0.6824
3460.16	0.6826
3469.19	0.6907
3478.22	0.6915
3487.25	0.6932
3496.28	0.7014
3505.31	0.7094
3514.34	0.7117
3523.37	0.7169
3532.4	0.7235
3541.43	0.7304
3550.46	0.7363
3559.49	0.7414
3568.52	0.7456
3577.55	0.7494
3586.58	0.7557
3595.61	0.7627
3604.64	0.7678
3613.67	0.7778
3622.7	0.778
3631.73	0.7783
3640.76	0.7816
3649.79	0.7867
3658.82	0.7888
3667.85	0.7897
3676.88	0.7936
3685.91	0.7849
3694.94	0.7868
3703.97	0.7915
3713	0.7962
3722.03	0.7994
3731.06	0.8002
3740.09	0.7976
3749.12	0.7937
3758.15	0.7888
3767.18	0.7863
3776.21	0.7862
3785.24	0.7866
3794.27	0.7887
3803.3	0.7891
3812.33	0.789
3821.36	0.7878
3830.39	0.7866
3839.42	0.7875
3848.45	0.7851
3857.48	0.7821
3866.51	0.7792
3875.54	0.7753
3884.57	0.7726
3893.6	0.7717
3902.63	0.7732
3911.66	0.775
3920.69	0.773
3929.72	0.7705
3938.75	0.7674
3947.78	0.7644
3956.81	0.7651
3965.84	0.7671
3974.87	0.7691
3983.9	0.7697
3992.93	0.7697
4001.96	0.769
4010.99	0.768
