Infrared Spectrum: 3,3'-DIPICOLYLAMINE
Formula: C12 H13 N3
CAS: 1656-94-6
State: LIQUID (NEAT)
Class: COBLENTZ III
Instrument: BECKMAN IR-9 (GRATING)
Instrument parameters: ORDER CHANGES AT 670, 1200, 2000 CM^-^1
Sampling: TRANSMISSION
Path length: FILM
Resolution: 4
Origin: DOW CHEMICAL COMPANY
1/CM	TRANSMITTANCE
401.984	0.409
410.735	0.456
419.487	0.583
428.238	0.668
436.99	0.736
445.741	0.781
454.493	0.807
463.244	0.829
471.996	0.844
480.747	0.859
489.499	0.87
498.25	0.875
507.002	0.883
515.753	0.897
524.505	0.901
533.256	0.898
542.008	0.898
550.759	0.894
559.51	0.89
568.262	0.883
577.013	0.868
585.765	0.837
594.516	0.812
603.268	0.836
612.019	0.819
620.771	0.751
629.522	0.781
638.274	0.678
647.025	0.766
655.777	0.826
664.528	0.878
673.28	0.875
682.031	0.885
690.783	0.856
699.534	0.793
708.286	0.457
717.037	0.05
725.788	0.469
734.54	0.659
743.291	0.689
752.043	0.677
760.794	0.655
769.546	0.636
778.297	0.58
787.049	0.418
795.8	0.33
804.552	0.415
813.303	0.587
822.055	0.642
830.806	0.647
839.558	0.644
848.309	0.644
857.061	0.707
865.812	0.769
874.563	0.826
883.315	0.866
892.066	0.893
900.818	0.912
909.569	0.911
918.321	0.89
927.072	0.853
935.824	0.834
944.575	0.838
953.327	0.831
962.078	0.815
970.83	0.823
979.581	0.836
988.333	0.812
997.084	0.803
1005.84	0.841
1014.59	0.859
1023.34	0.7369
1032.09	0.4481
1040.84	0.788
1049.59	0.815
1058.34	0.863
1067.1	0.868
1075.85	0.859
1084.6	0.819
1093.35	0.676
1102.1	0.524
1110.85	0.521
1119.6	0.549
1128.36	0.596
1137.11	0.728
1145.86	0.851
1154.61	0.893
1163.36	0.907
1172.11	0.893
1180.87	0.818
1189.62	0.718
1198.37	0.788
1207.12	0.808
1215.87	0.797
1224.62	0.788
1233.37	0.83
1242.13	0.86
1250.88	0.871
1259.63	0.868
1268.38	0.882
1277.13	0.889
1285.88	0.897
1294.63	0.913
1303.39	0.909
1312.14	0.814
1320.89	0.747
1329.64	0.758
1338.39	0.785
1347.14	0.803
1355.89	0.782
1364.65	0.709
1373.4	0.792
1382.15	0.786
1390.9	0.814
1399.65	0.853
1408.4	0.83
1417.15	0.5839
1425.91	0.098
1434.66	0.5001
1443.41	0.654
1452.16	0.644
1460.91	0.643
1469.66	0.635
1478.42	0.3629
1487.17	0.6701
1495.92	0.825
1504.67	0.874
1513.42	0.912
1522.17	0.931
1530.92	0.937
1539.68	0.942
1548.43	0.937
1557.18	0.92
1565.93	0.856
1574.68	0.3668
1583.43	0.6031
1592.18	0.591
1600.94	0.792
1609.69	0.881
1618.44	0.901
1627.19	0.903
1635.94	0.893
1644.69	0.848
1653.44	0.856
1662.2	0.885
1670.95	0.887
1679.7	0.868
1688.45	0.848
1697.2	0.911
1705.95	0.945
1714.7	0.954
1723.46	0.957
1732.21	0.961
1740.96	0.961
1749.71	0.963
1758.46	0.967
1767.21	0.971
1775.97	0.975
1784.72	0.98
1793.47	0.98
1802.22	0.98
1810.97	0.982
1819.72	0.983
1828.47	0.982
1837.23	0.979
1845.98	0.974
1854.73	0.972
1863.48	0.969
1872.23	0.96
1880.98	0.957
1889.73	0.954
1898.49	0.953
1907.24	0.941
1915.99	0.933
1924.74	0.934
1933.49	0.937
1942.24	0.946
1950.99	0.953
1959.75	0.956
1968.5	0.956
1977.25	0.956
1986	0.96
1994.75	0.967
2003.5	0.967
2012.25	0.965
2021.01	0.968
2029.76	0.971
2038.51	0.974
2047.26	0.975
2056.01	0.976
2064.76	0.976
2073.52	0.975
2082.27	0.974
2091.02	0.976
2099.77	0.9751
2108.52	0.976
2117.27	0.978
2126.02	0.978
2134.78	0.978
2143.53	0.976
2152.28	0.976
2161.03	0.9762
2169.78	0.978
2178.53	0.9751
2187.28	0.976
2196.04	0.975
2204.79	0.975
2213.54	0.9762
2222.29	0.9751
2231.04	0.971
2239.79	0.968
2248.54	0.969
2257.3	0.972
2266.05	0.974
2274.8	0.975
2283.55	0.976
2292.3	0.978
2301.05	0.978
2309.8	0.978
2318.56	0.978
2327.31	0.978
2336.06	0.978
2344.81	0.976
2353.56	0.975
2362.31	0.974
2371.07	0.9682
2379.82	0.967
2388.57	0.9706
2397.32	0.976
2406.07	0.978
2414.82	0.978
2423.57	0.9764
2432.33	0.976
2441.08	0.975
2449.83	0.975
2458.58	0.975
2467.33	0.9712
2476.08	0.9695
2484.83	0.969
2493.59	0.9705
2502.34	0.974
2511.09	0.975
2519.84	0.976
2528.59	0.976
2537.34	0.976
2546.09	0.976
2554.85	0.975
2563.6	0.975
2572.35	0.975
2581.1	0.975
2589.85	0.974
2598.6	0.974
2607.35	0.9696
2616.11	0.9656
2624.86	0.964
2633.61	0.963
2642.36	0.961
2651.11	0.96
2659.86	0.959
2668.62	0.956
2677.37	0.95
2686.12	0.9483
2694.87	0.9437
2703.62	0.9377
2712.37	0.934
2721.12	0.934
2729.88	0.9317
2738.63	0.9264
2747.38	0.9154
2756.13	0.9004
2764.88	0.8872
2773.63	0.8581
2782.38	0.8358
2791.14	0.8009
2799.89	0.7478
2808.64	0.6946
2817.39	0.6475
2826.14	0.6168
2834.89	0.602
2843.64	0.6234
2852.4	0.658
2861.15	0.6881
2869.9	0.7149
2878.65	0.724
2887.4	0.7271
2896.15	0.7284
2904.91	0.7185
2913.66	0.717
2922.41	0.7124
2931.16	0.7116
2939.91	0.7285
2948.66	0.7592
2957.41	0.7971
2966.17	0.8326
2974.92	0.846
2983.67	0.8125
2992.42	0.7515
3001.17	0.7165
3009.92	0.731
3018.67	0.7401
3027.43	0.6609
3036.18	0.5875
3044.93	0.6562
3053.68	0.691
3062.43	0.698
3071.18	0.7824
3079.93	0.8155
3088.69	0.7977
3097.44	0.8205
3106.19	0.8594
3114.94	0.8744
3123.69	0.878
3132.44	0.8776
3141.19	0.874
3149.95	0.8687
3158.7	0.864
3167.45	0.862
3176.2	0.859
3184.95	0.852
3193.7	0.8486
3202.46	0.8384
3211.21	0.8288
3219.96	0.8105
3228.71	0.7903
3237.46	0.7642
3246.21	0.733
3254.96	0.6958
3263.72	0.6612
3272.47	0.6349
3281.22	0.624
3289.97	0.621
3298.72	0.6277
3307.47	0.64
3316.22	0.6651
3324.98	0.6917
3333.73	0.717
3342.48	0.7343
3351.23	0.7523
3359.98	0.7636
3368.73	0.7743
3377.48	0.7813
3386.24	0.785
3394.99	0.7906
3403.74	0.7936
3412.49	0.7963
3421.24	0.8003
3429.99	0.808
3438.74	0.8113
3447.5	0.8165
3456.25	0.821
3465	0.829
3473.75	0.833
3482.5	0.839
3491.25	0.8495
3500.01	0.853
3508.76	0.8622
3517.51	0.8702
3526.26	0.8795
3535.01	0.8862
3543.76	0.896
3552.51	0.9032
3561.27	0.9112
3570.02	0.9152
3578.77	0.9204
3587.52	0.931
3596.27	0.9346
3605.02	0.9452
3613.77	0.9504
3622.53	0.954
3631.28	0.9562
3640.03	0.959
3648.78	0.96
3657.53	0.9587
3666.28	0.96
3675.03	0.964
3683.79	0.9725
3692.54	0.9792
3701.29	0.983
3710.04	0.986
3718.79	0.987
3727.54	0.987
3736.29	0.987
3745.05	0.987
3753.8	0.989
3762.55	0.986
3771.3	0.99
3780.05	0.991
3788.8	0.99
