Infrared Spectrum: 3,3'-Oxydipropionitrile
Formula: C 6 H 8 N 2 O
CAS: 1656-48-0
State: gas
Instrument: HP-GC/MS/IRD
Origin: NIST Mass Spectrometry Data Center
1/CM	ABSORBANCE
550	0.0001221
562	0.000209
574	0.0002398
586	0.0001474
598	0.0001045
610	0.0001584
622	5.5e-05
634	0.0001606
646	9.79e-05
658	0.0001375
670	7.04e-05
682	0.0001661
694	0.0001628
706	0.0001364
718	0.0001375
730	0.0001144
742	0.0001232
754	0.0001331
766	0.000121
778	0.0001595
790	0.0001683
802	0.000176
814	0.0002035
826	0.0002805
838	0.0003256
850	0.0002629
862	0.0001925
874	0.0002244
886	0.0002321
898	0.0002398
910	0.0002409
922	0.0002695
934	0.000396
946	0.0004092
958	0.000352
970	0.0004477
982	0.0005863
994	0.0007469
1006	0.000759
1018	0.000759
1030	0.0007964
1042	0.0008877
1054	0.0009438
1066	0.0010747
1078	0.0011847
1090	0.001628
1102	0.0029909
1114	0.0068486
1126	0.011
1138	0.0083193
1150	0.0033759
1162	0.001573
1174	0.0009713
1186	0.0006721
1198	0.000583
1210	0.0006644
1222	0.0008118
1234	0.0008338
1246	0.0006633
1258	0.0006699
1270	0.0006446
1282	0.0005478
1294	0.0004026
1306	0.0004257
1318	0.0005115
1330	0.0006391
1342	0.0006182
1354	0.0008954
1366	0.0017611
1378	0.0017578
1390	0.0007964
1402	0.0005764
1414	0.0007898
1426	0.0010241
1438	0.0008096
1450	0.0004895
1462	0.0004323
1474	0.0004983
1486	0.0004422
1498	0.0002651
1510	0.0001232
1522	9.24e-05
1534	6.38e-05
1546	5.17e-05
1558	5.17e-05
1570	4.29e-05
1582	4.95e-05
1594	3.19e-05
1606	4.4e-05
1618	5.28e-05
1630	3.63e-05
1642	5.06e-05
1654	6.49e-05
1666	4.18e-05
1678	1.87e-05
1690	1.76e-05
1702	2.64e-05
1714	1.65e-05
1726	0
1738	2.64e-05
1750	4.4e-06
1762	2.09e-05
1774	1.54e-05
1786	3.74e-05
1798	4.07e-05
1810	3.41e-05
1822	4.07e-05
1834	3.41e-05
1846	2.09e-05
1858	3.74e-05
1870	5.06e-05
1882	7.26e-05
1894	5.72e-05
1906	7.04e-05
1918	8.03e-05
1930	8.36e-05
1942	7.59e-05
1954	7.59e-05
1966	6.71e-05
1978	7.15e-05
1990	4.51e-05
2002	2.97e-05
2014	4.29e-05
2026	4.51e-05
2038	4.95e-05
2050	6.82e-05
2062	8.47e-05
2074	7.7e-05
2086	8.25e-05
2098	0.0001023
2110	0.0001012
2122	9.68e-05
2134	9.13e-05
2146	8.58e-05
2158	8.91e-05
2170	6.6e-05
2182	5.39e-05
2194	0.0001012
2206	7.59e-05
2218	7.15e-05
2230	9.68e-05
2242	0.0001452
2254	0.0002519
2266	0.0001694
2278	0.0001012
2290	5.61e-05
2302	4.62e-05
2314	6.16e-05
2326	4.84e-05
2338	6.38e-05
2350	6.38e-05
2362	5.28e-05
2374	7.04e-05
2386	6.71e-05
2398	4.51e-05
2410	4.07e-05
2422	4.95e-05
2434	4.18e-05
2446	5.61e-05
2458	4.73e-05
2470	3.08e-05
2482	4.18e-05
2494	3.08e-05
2506	3.08e-05
2518	5.06e-05
2530	4.51e-05
2542	4.73e-05
2554	5.61e-05
2566	4.84e-05
2578	3.85e-05
2590	5.28e-05
2602	6.05e-05
2614	4.07e-05
2626	1.76e-05
2638	3.52e-05
2650	7.26e-05
2662	4.4e-05
2674	7.48e-05
2686	9.02e-05
2698	0.0001034
2710	0.0001177
2722	0.0001364
2734	0.0001298
2746	0.0001573
2758	0.0002002
2770	0.000187
2782	0.0002134
2794	0.0002706
2806	0.0002838
2818	0.0002992
2830	0.0003498
2842	0.0004829
2854	0.0007018
2866	0.0012188
2878	0.0020141
2890	0.0025938
2902	0.0023771
2914	0.0019954
2926	0.0017138
2938	0.0016797
2950	0.0017039
2962	0.0015873
2974	0.0014927
2986	0.0010868
2998	0.0005214
3010	0.0002827
3022	0.0002068
3034	7.7e-05
3046	0.0001034
3058	0.0001012
3070	8.47e-05
3082	0.0001408
3094	0.0001067
3106	0.0001166
3118	0.0001199
3130	8.47e-05
3142	7.26e-05
3154	5.72e-05
3166	7.15e-05
3178	5.61e-05
3190	4.07e-05
3202	8.36e-05
3214	4.62e-05
3226	8.25e-05
3238	5.94e-05
3250	0.0001012
3262	5.83e-05
3274	8.03e-05
3286	8.25e-05
3298	3.74e-05
3310	5.61e-05
3322	0.0001001
3334	4.95e-05
3346	3.74e-05
3358	4.73e-05
3370	8.58e-05
3382	6.71e-05
3394	4.4e-05
3406	6.6e-05
3418	8.25e-05
3430	4.07e-05
3442	8.36e-05
3454	0.0001012
3466	5.17e-05
3478	5.17e-05
3490	7.48e-05
3502	6.49e-05
3514	7.04e-05
3526	5.72e-05
3538	6.49e-05
3550	6.27e-05
3562	8.69e-05
3574	8.69e-05
3586	8.03e-05
3598	9.35e-05
3610	8.91e-05
3622	0.0001364
3634	9.68e-05
3646	0.0001342
3658	0.0001155
3670	0.00011
3682	7.04e-05
3694	9.35e-05
3706	7.59e-05
3718	5.28e-05
3730	0.0001034
3742	9.9e-05
3754	0.0001386
3766	0.0001386
3778	0.0001023
3790	6.27e-05
3802	9.79e-05
3814	0.0001133
3826	8.47e-05
3838	0.000132
