Infrared Spectrum: t-Butyldiphenylmethanol
Formula: C 17 H 20 O
CAS: 1657-60-9
State: gas
Origin: EPA-IR VAPOR PHASE LIBRARY
1/CM	ABSORBANCE
549.8	0.00269
559.445	0.00431
569.09	0.00313
578.734	0.00346
588.379	0.00227
598.024	0.00163
607.669	0.00156
617.313	0.00191
626.958	0.00333
636.603	0.0115
646.248	0.00521
655.893	0.00327
665.537	0.00413
675.182	0.00846
684.827	0.01196
694.472	0.02648
704.116	0.05059
713.761	0.02395
723.406	0.00891
733.051	0.00836
742.695	0.02053
752.34	0.03283
761.985	0.01524
771.63	0.00509
781.275	0.00311
790.919	0.0024
800.564	0.00272
810.209	0.00286
819.854	0.00174
829.498	0.0015
839.143	0.00142
848.788	0.00216
858.433	0.00236
868.078	0.00364
877.722	0.00608
887.367	0.00735
897.012	0.00662
906.657	0.00687
916.301	0.0054
925.946	0.0048
935.591	0.00395
945.236	0.00433
954.88	0.00498
964.525	0.00496
974.17	0.0064
983.815	0.01102
993.46	0.01994
1003.1	0.01791
1012.75	0.00958
1022.39	0.01032
1032.04	0.01379
1041.68	0.01212
1051.33	0.00642
1060.97	0.00271
1070.62	0.00188
1080.26	0.00173
1089.91	0.00196
1099.55	0.00198
1109.2	0.00221
1118.84	0.00222
1128.49	0.00323
1138.13	0.00448
1147.78	0.00756
1157.42	0.01086
1167.07	0.01269
1176.71	0.01211
1186.36	0.01225
1196	0.01083
1205.64	0.01047
1215.29	0.00905
1224.93	0.00679
1234.58	0.00503
1244.22	0.00448
1253.87	0.00484
1263.51	0.00559
1273.16	0.00708
1282.8	0.0087
1292.45	0.01049
1302.09	0.01126
1311.74	0.01099
1321.38	0.01066
1331.03	0.00866
1340.67	0.00601
1350.32	0.00476
1359.96	0.00627
1369.61	0.01212
1379.25	0.0091
1388.9	0.00722
1398.54	0.0148
1408.18	0.0109
1417.83	0.00419
1427.47	0.00412
1437.12	0.00816
1446.76	0.01351
1456.41	0.00871
1466.05	0.00769
1475.7	0.01007
1485.34	0.0161
1494.99	0.01734
1504.63	0.00857
1514.28	0.0032
1523.92	0.002
1533.57	0.00177
1543.21	0.00194
1552.86	0.0017
1562.5	0.00145
1572.15	0.00192
1581.79	0.00312
1591.44	0.00526
1601.08	0.00611
1610.73	0.00255
1620.37	0.00142
1630.01	0.00107
1639.66	0.0008677
1649.3	0.0008782
1658.95	0.0008935
1668.59	0.00103
1678.24	0.00115
1687.88	0.00102
1697.53	0.0007986
1707.17	0.000728
1716.82	0.0006767
1726.46	0.0007886
1736.11	0.000859
1745.75	0.000866
1755.4	0.0009666
1765.04	0.00101
1774.69	0.00116
1784.33	0.00129
1793.98	0.00171
1803.62	0.00271
1813.27	0.00245
1822.91	0.00131
1832.55	0.0008853
1842.2	0.0006788
1851.84	0.0007467
1861.49	0.0009478
1871.13	0.00132
1880.78	0.00155
1890.42	0.00148
1900.07	0.00126
1909.71	0.00102
1919.36	0.0008966
1929	0.00103
1938.65	0.00179
1948.29	0.0027
1957.94	0.00229
1967.58	0.00116
1977.23	0.000574
1986.87	0.0003821
1996.52	0.0003477
2006.16	0.0003101
2015.81	0.0002942
2025.45	0.0002506
2035.1	0.0001837
2044.74	0.0002836
2054.38	0.0002642
2064.03	0.0002067
2073.67	0.0001553
2083.32	0.0001476
2092.96	0.0001588
2102.61	0.0001889
2112.25	0.0001521
2121.9	0.0002187
2131.54	0.0002183
2141.19	0.0002077
2150.83	0.0001903
2160.48	0.0002797
2170.12	0.0002432
2179.77	0.0001626
2189.41	0.0002752
2199.06	0.0001961
2208.7	0.0002005
2218.35	0.0002242
2227.99	0.000151
2237.64	0.0001766
2247.28	0.0002199
2256.92	0.00024
2266.57	0.0001817
2276.21	0.0001973
2285.86	0.0001899
2295.5	0.0002676
2305.15	0.0003758
2314.79	0.0006079
2324.44	0.0003833
2334.08	0.0003191
2343.73	0.0003384
2353.37	0.0004816
2363.02	0.0003829
2372.66	0.0003289
2382.31	0.0003473
2391.95	0.0003194
2401.6	0.0004655
2411.24	0.000365
2420.89	0.0003449
2430.53	0.0003589
2440.18	0.0003014
2449.82	0.000269
2459.47	0.0002996
2469.11	0.0001903
2478.75	0.0002882
2488.4	0.0002752
2498.04	0.0002494
2507.69	0.0002153
2517.33	0.0001456
2526.98	0.0002938
2536.62	0.0003453
2546.27	0.000361
2555.91	0.0003167
2565.56	0.0004954
2575.2	0.0004793
2584.85	0.0005134
2594.49	0.0004225
2604.14	0.0004258
2613.78	0.000438
2623.43	0.0003459
2633.07	0.0003357
2642.72	0.0002313
2652.36	0.0003077
2662.01	0.0004323
2671.65	0.0003172
2681.29	0.0003134
2690.94	0.0003498
2700.58	0.0004152
2710.23	0.0004574
2719.87	0.0006593
2729.52	0.0008148
2739.16	0.0007855
2748.81	0.0006729
2758.45	0.0008751
2768.1	0.0007657
2777.74	0.0007568
2787.39	0.0009638
2797.03	0.00114
2806.68	0.00119
2816.32	0.00129
2825.97	0.00145
2835.61	0.00169
2845.26	0.00215
2854.9	0.00296
2864.55	0.00482
2874.19	0.0089
2883.84	0.01385
2893.48	0.01414
2903.12	0.01346
2912.77	0.01542
2922.41	0.01761
2932.06	0.01877
2941.7	0.02192
2951.35	0.0243
2960.99	0.02792
2970.64	0.0324
2980.28	0.03154
2989.93	0.03121
2999.57	0.0237
3009.22	0.01265
3018.86	0.01137
3028.51	0.01407
3038.15	0.01522
3047.8	0.01366
3057.44	0.02187
3067.09	0.03254
3076.73	0.02051
3086.38	0.01302
3096.02	0.0112
3105.67	0.00811
3115.31	0.0058
3124.95	0.00436
3134.6	0.00229
3144.24	0.00189
3153.89	0.00169
3163.53	0.0016
3173.18	0.00106
3182.82	0.0008164
3192.47	0.0007118
3202.11	0.0007486
3211.76	0.0005033
3221.4	0.0004875
3231.05	0.000468
3240.69	0.0005377
3250.34	0.0004621
3259.98	0.0004944
3269.63	0.0005345
3279.27	0.0005266
3288.92	0.0004631
3298.56	0.0006316
3308.21	0.000418
3317.85	0.0005482
3327.49	0.0003878
3337.14	0.0002159
3346.78	0.000313
3356.43	0.0004128
3366.07	0.0004572
3375.72	0.0005692
3385.36	0.0003385
3395.01	0.0004853
3404.65	0.0004913
3414.3	0.0002136
3423.94	0.0001893
3433.59	0.0004202
3443.23	0.0003481
3452.88	0.0002709
3462.52	0.0004251
3472.17	0.0002747
3481.81	0.0002679
3491.46	0.0003835
3501.1	0.0001916
3510.75	0.0002421
3520.39	0.0002484
3530.04	0.0001129
3539.68	0.0002282
3549.32	0.0002761
3558.97	0.0002777
3568.61	0.000143
3578.26	0.0002839
3587.9	8.377e-05
3597.55	0.0003699
3607.19	0.0006684
3616.84	0.0012
3626.48	0.00243
3636.13	0.00631
3645.77	0.007
3655.42	0.00259
3665.06	0.00113
3674.71	0.0007656
3684.35	0.0006929
3694	0.0005953
3703.64	0.0007824
3713.29	0.0003573
3722.93	0.0003431
3732.58	0.0002798
3742.22	0.000249
3751.86	0.0003453
3761.51	0.0003727
3771.15	0.0001579
3780.8	0.0002471
3790.44	0.0004279
3800.09	0.0002188
3809.73	0.0003357
3819.38	0.0002506
3829.02	0.0001766
3838.67	0.0002439
3848.31	0.0003442
3857.96	0.00025
3867.6	0.0003549
3877.25	0.0005121
3886.89	0.0003509
3896.54	0.0003646
3906.18	0.0002802
3915.83	0.0001379
3925.47	0.0002584
3935.12	0.000391
3944.76	0.0005742
3954.41	0.0003426
3964.05	0.0003844
3973.69	0.0001611
3983.34	0.0003811
3992.98	0.0003273
