Infrared Spectrum: 4-Chloro-3-nitrobenzaldehyde
Formula: C 7 H 4 Cl N O 3
CAS: 16588-34-4
State: gas
Instrument: HP-GC/MS/IRD
Origin: NIST Mass Spectrometry Data Center
1/CM	ABSORBANCE
550	0.0009321
562	0.0005109
574	5.85e-05
586	0.0002223
598	0.0002613
610	0.0001989
622	0.0002106
634	3.9e-06
646	0.0001521
658	0.0014469
670	0.0019266
682	0.0012168
694	0.0011193
706	0.0011505
718	0.0028236
730	0.0030264
742	0.0012519
754	0.0011427
766	0.0007059
778	0.0005616
790	0.0007683
802	0.0030147
814	0.0097305
826	0.008658
838	0.0030459
850	0.0006396
862	0.0002223
874	0.0004251
886	0.0012909
898	0.0022659
910	0.0044616
922	0.0036972
934	0.0036855
946	0.0025818
958	0.0008931
970	0.000546
982	0.0003393
994	0.0004758
1006	0.0003939
1018	0.0003978
1030	0.0018291
1042	0.0087516
1054	0.0094458
1066	0.0024375
1078	0.001053
1090	0.000429
1102	0.0003237
1114	0.0005772
1126	0.0013494
1138	0.0014898
1150	0.0008814
1162	0.0007761
1174	0.0024882
1186	0.0079521
1198	0.0155727
1210	0.0068484
1222	0.0012402
1234	0.0006396
1246	0.000546
1258	0.0008892
1270	0.0018447
1282	0.0029133
1294	0.0022269
1306	0.0021684
1318	0.0031473
1330	0.0050037
1342	0.0099801
1354	0.0173472
1366	0.0128427
1378	0.005694
1390	0.0024258
1402	0.001248
1414	0.0010959
1426	0.0009243
1438	0.0008931
1450	0.0009711
1462	0.0016302
1474	0.0025311
1486	0.0018525
1498	0.0020787
1510	0.0035295
1522	0.0061932
1534	0.0102297
1546	0.0191373
1558	0.0290277
1570	0.0209157
1582	0.0140166
1594	0.0159822
1606	0.0171522
1618	0.0068133
1630	0.002535
1642	0.001794
1654	0.0014547
1666	0.0011076
1678	0.0012402
1690	0.0019617
1702	0.0045786
1714	0.021333
1726	0.039
1738	0.0169299
1750	0.0037362
1762	0.0015054
1774	0.000897
1786	0.0008346
1798	0.0008268
1810	0.000546
1822	0.0003471
1834	0.000234
1846	0.0002418
1858	0.000312
1870	0.0003861
1882	0.0002691
1894	0.0002106
1906	0.0002574
1918	0.0002028
1930	0.0001872
1942	0.0001794
1954	0.000117
1966	0.0001131
1978	5.85e-05
1990	7.41e-05
2002	0.0001248
2014	0.000156
2026	5.85e-05
2038	1.95e-05
2050	0
2062	3.9e-05
2074	5.07e-05
2086	5.07e-05
2098	5.85e-05
2110	0.0001326
2122	0.0001092
2134	9.75e-05
2146	1.95e-05
2158	3.51e-05
2170	1.95e-05
2182	3.9e-05
2194	3.12e-05
2206	3.9e-05
2218	1.17e-05
2230	3.9e-05
2242	1.17e-05
2254	3.12e-05
2266	5.07e-05
2278	8.19e-05
2290	8.58e-05
2302	8.58e-05
2314	7.41e-05
2326	8.97e-05
2338	0.0001326
2350	9.75e-05
2362	0.000117
2374	0.0001599
2386	0.0001443
2398	0.0001521
2410	0.0001404
2422	7.8e-05
2434	8.19e-05
2446	7.41e-05
2458	0.0001092
2470	0.0001131
2482	8.97e-05
2494	0.0001326
2506	8.97e-05
2518	0.0001443
2530	0.0001287
2542	0.0002301
2554	0.0002067
2566	0.0002262
2578	0.0002301
2590	0.0002106
2602	0.000234
2614	0.0002613
2626	0.0002847
2638	0.0003549
2650	0.0004017
2662	0.0005265
2674	0.0006045
2686	0.0007215
2698	0.0009672
2710	0.0021411
2722	0.0042627
2734	0.0035139
2746	0.0020202
2758	0.0018681
2770	0.0018018
2782	0.001911
2794	0.0026208
2806	0.0041457
2818	0.0067353
2830	0.0070395
2842	0.0027612
2854	0.0010686
2866	0.0009048
2878	0.0008658
2890	0.0008931
2902	0.0008541
2914	0.0007254
2926	0.0005616
2938	0.0004797
2950	0.0003705
2962	0.0003315
2974	0.0003471
2986	0.0003003
2998	0.0002652
3010	0.0002418
3022	0.0002769
3034	0.0003081
3046	0.0003627
3058	0.0003861
3070	0.0007956
3082	0.0007878
3094	0.0004485
3106	0.0003237
3118	0.0003081
3130	0.0002535
3142	0.000195
3154	7.02e-05
3166	0.0001599
3178	0.0001092
3190	0.0001014
3202	0.0001287
3214	9.36e-05
3226	7.41e-05
3238	9.75e-05
3250	0.0001131
3262	0.0001131
3274	2.34e-05
3286	4.68e-05
3298	0.0001131
3310	0.0001014
3322	0.0001014
3334	7.02e-05
3346	0.0001326
3358	0.0001092
3370	0.0001443
3382	0.0001326
3394	0.0001404
3406	0.0001833
3418	0.0005187
3430	0.0009282
3442	0.0005694
3454	0.0002964
3466	0.0001599
3478	0.0001209
3490	0.0001014
3502	6.63e-05
3514	7.41e-05
3526	5.85e-05
3538	5.07e-05
3550	5.85e-05
3562	5.85e-05
3574	3.51e-05
3586	0.0001053
3598	0.0001248
3610	0.0001326
3622	0.0001053
3634	8.19e-05
3646	0.0001326
3658	0.0001482
3670	0.0001209
3682	4.68e-05
3694	9.75e-05
3706	5.46e-05
3718	0.0001209
3730	9.36e-05
3742	9.36e-05
3754	8.58e-05
3766	9.36e-05
3778	0.0001365
3790	0.0001443
3802	0.0001404
3814	8.19e-05
3826	7.8e-05
3838	0.0001404
