Infrared Spectrum: 1-Adamantylmethylketone
Formula: C 12 H 18 O
CAS: 1660-04-4
State: gas
Instrument: HP-GC/MS/IRD
Origin: NIST Mass Spectrometry Data Center
1/CM	ABSORBANCE
550	0.0002576
562	8.28e-05
574	0.001012
586	0.0040204
598	0.002898
610	0.0005796
622	0.000322
634	0.0002208
646	9.2e-05
658	0.0001196
670	0.0001012
682	0.0001472
694	6.44e-05
706	9.2e-05
718	9.2e-06
730	0.0001288
742	8.28e-05
754	7.36e-05
766	0.0001656
778	0.0001564
790	0.0001748
802	0.0003864
814	0.0004692
826	0.0002576
838	0.000184
850	0.0002668
862	0.0003128
874	0.0003036
886	0.0003956
898	0.0005428
910	0.001012
922	0.0012328
934	0.0008556
946	0.0008372
958	0.0010948
970	0.0014996
982	0.00207
994	0.0019596
1006	0.001242
1018	0.0011316
1030	0.0011868
1042	0.0017572
1054	0.0029532
1066	0.0023552
1078	0.0008372
1090	0.0007728
1102	0.0013432
1114	0.0008832
1126	0.000368
1138	0.0004048
1150	0.0006532
1162	0.0016376
1174	0.0036156
1186	0.0035696
1198	0.0043424
1210	0.0106536
1222	0.012742
1234	0.0044252
1246	0.0019964
1258	0.0017296
1270	0.00138
1282	0.0006532
1294	0.0004968
1306	0.0005796
1318	0.0009844
1330	0.0018584
1342	0.004922
1354	0.0079304
1366	0.0057132
1378	0.0026588
1390	0.0014996
1402	0.0013708
1414	0.0017112
1426	0.002392
1438	0.0038916
1450	0.0081512
1462	0.0072312
1474	0.0022632
1486	0.0010028
1498	0.000736
1510	0.0006532
1522	0.0005888
1534	0.0005796
1546	0.0005336
1558	0.00046
1570	0.0004232
1582	0.0003864
1594	0.000414
1606	0.000414
1618	0.0004416
1630	0.0004508
1642	0.0005244
1654	0.0008188
1666	0.0015824
1678	0.003174
1690	0.006026
1702	0.0140668
1714	0.0232024
1726	0.0143336
1738	0.0048576
1750	0.0021068
1762	0.0009476
1774	0.000506
1786	0.0003588
1798	0.0003588
1810	0.000322
1822	0.0002208
1834	0.0001196
1846	8.28e-05
1858	6.44e-05
1870	8.28e-05
1882	0.0001012
1894	0.0001104
1906	0.000138
1918	0.0001472
1930	0.000138
1942	0.000138
1954	6.44e-05
1966	2.76e-05
1978	5.52e-05
1990	4.6e-05
2002	7.36e-05
2014	8.28e-05
2026	7.36e-05
2038	5.52e-05
2050	4.6e-05
2062	6.44e-05
2074	4.6e-05
2086	5.52e-05
2098	0
2110	5.52e-05
2122	8.28e-05
2134	0.0001012
2146	5.52e-05
2158	5.52e-05
2170	6.44e-05
2182	1.84e-05
2194	2.76e-05
2206	7.36e-05
2218	7.36e-05
2230	6.44e-05
2242	8.28e-05
2254	4.6e-05
2266	4.6e-05
2278	7.36e-05
2290	9.2e-05
2302	0.0001104
2314	7.36e-05
2326	7.36e-05
2338	3.68e-05
2350	5.52e-05
2362	0.0001104
2374	0.0001196
2386	0.0001104
2398	0.000138
2410	0.0001656
2422	0.000184
2434	0.0002208
2446	0.0001564
2458	0.0001564
2470	0.0001288
2482	0.0001288
2494	0.000138
2506	0.0001656
2518	0.0001932
2530	0.00023
2542	0.0002208
2554	0.0002944
2566	0.0003588
2578	0.000368
2590	0.0003036
2602	0.0004048
2614	0.000552
2626	0.0005796
2638	0.0006992
2650	0.0009844
2662	0.0013064
2674	0.0012512
2686	0.00092
2698	0.0004876
2710	0.0003772
2722	0.0003496
2734	0.0004416
2746	0.0005428
2758	0.0005704
2770	0.000644
2782	0.000828
2794	0.0011592
2806	0.0013524
2818	0.0016468
2830	0.0021988
2842	0.0053176
2854	0.0188324
2866	0.0201112
2878	0.0092644
2890	0.0103408
2902	0.0364872
2914	0.0855048
2926	0.0784116
2938	0.0375176
2950	0.01656
2962	0.0056304
2974	0.0028888
2986	0.0019596
2998	0.0017204
3010	0.0017112
3022	0.0012696
3034	0.0007176
3046	0.0004232
3058	0.000414
3070	0.0004876
3082	0.0005428
3094	0.0005336
3106	0.00046
3118	0.0003312
3130	0.0002944
3142	0.0002208
3154	0.00023
3166	0.0002116
3178	0.0001932
3190	0.0001472
3202	0.000184
3214	0.0002116
3226	0.0002852
3238	0.0003588
3250	0.0002576
3262	0.0002024
3274	0.0001288
3286	0.0001104
3298	0.0001748
3310	0.0001564
3322	0.0001472
3334	0.0001472
3346	0.0002024
3358	0.0002668
3370	0.0003036
3382	0.0003956
3394	0.0004416
3406	0.0005704
3418	0.0004692
3430	0.0003128
3442	0.0001564
3454	8.28e-05
3466	4.6e-05
3478	8.28e-05
3490	0.0001104
3502	0.0001196
3514	4.6e-05
3526	6.44e-05
3538	0.0001012
3550	0.0001196
3562	0.0001472
3574	7.36e-05
3586	7.36e-05
3598	5.52e-05
3610	7.36e-05
3622	0.0001196
3634	8.28e-05
3646	7.36e-05
3658	4.6e-05
3670	7.36e-05
3682	0.0001472
3694	0.000184
3706	0.0001288
3718	0.0001932
3730	0.0002392
3742	0.0002392
3754	0.0001748
3766	0.0001748
3778	0.0001748
3790	0.000138
3802	0.0002392
3814	0.00023
3826	0.0002208
3838	0.000184
