Infrared Spectrum: 3-Methylene-1,5,5-trimethylcyclohexene
Formula: C 10 H 16
CAS: 16609-28-2
State: gas
Instrument: HP-GC/MS/IRD
Origin: NIST Mass Spectrometry Data Center
1/CM	ABSORBANCE
550	0.0010395
562	0.000297
574	0.0004158
586	0.0006669
598	0.0003456
610	0.0001026
622	0.0001728
634	5.4e-06
646	1.62e-05
658	0.000135
670	0.0001971
682	0.0003618
694	0.0002646
706	0.0001836
718	0.0002052
730	0.0001053
742	0.0001269
754	0.0001728
766	0.0002187
778	0.0003564
790	0.0003753
802	0.0003294
814	0.0003942
826	0.0004455
838	0.0008721
850	0.0020115
862	0.0051111
874	0.0075195
886	0.0054648
898	0.0049545
910	0.0024975
922	0.0008019
934	0.0006318
946	0.0005535
958	0.0003834
970	0.0004023
982	0.0006102
994	0.0006588
1006	0.0004968
1018	0.0003942
1030	0.0004266
1042	0.0002349
1054	0.0002619
1066	0.0002484
1078	0.0001917
1090	0.0002484
1102	0.000243
1114	0.0004671
1126	0.0011097
1138	0.0013338
1150	0.0007398
1162	0.0004347
1174	0.000459
1186	0.0006507
1198	0.0004914
1210	0.0003645
1222	0.0003537
1234	0.0003618
1246	0.0005589
1258	0.0008667
1270	0.0011745
1282	0.001296
1294	0.0009855
1306	0.0006453
1318	0.0005859
1330	0.0007587
1342	0.0014904
1354	0.0034371
1366	0.0055485
1378	0.0051219
1390	0.0039798
1402	0.0023382
1414	0.0025029
1426	0.0036018
1438	0.0039069
1450	0.0038475
1462	0.0037854
1474	0.0028215
1486	0.0013959
1498	0.0006534
1510	0.0004077
1522	0.0003834
1534	0.0003699
1546	0.0004212
1558	0.0005103
1570	0.0006021
1582	0.0008559
1594	0.0016065
1606	0.0029052
1618	0.0029511
1630	0.0022545
1642	0.0034425
1654	0.0032265
1666	0.0012393
1678	0.0004698
1690	0.0004185
1702	0.0003996
1714	0.0003915
1726	0.0005049
1738	0.000729
1750	0.0009288
1762	0.0009531
1774	0.0006993
1786	0.0004563
1798	0.0003105
1810	0.0001944
1822	0.0001323
1834	0.0001377
1846	0.0001485
1858	0.0001161
1870	0.000108
1882	0.0001188
1894	0.0001026
1906	9.45e-05
1918	6.21e-05
1930	5.94e-05
1942	3.24e-05
1954	5.94e-05
1966	5.67e-05
1978	4.59e-05
1990	3.78e-05
2002	5.13e-05
2014	5.67e-05
2026	3.78e-05
2038	6.48e-05
2050	7.56e-05
2062	5.94e-05
2074	5.4e-05
2086	3.78e-05
2098	3.51e-05
2110	3.24e-05
2122	5.94e-05
2134	7.02e-05
2146	8.1e-05
2158	4.86e-05
2170	6.48e-05
2182	3.24e-05
2194	2.16e-05
2206	4.05e-05
2218	5.13e-05
2230	2.7e-05
2242	2.7e-05
2254	4.59e-05
2266	5.4e-05
2278	5.13e-05
2290	5.94e-05
2302	6.21e-05
2314	6.75e-05
2326	4.59e-05
2338	2.97e-05
2350	3.24e-05
2362	1.62e-05
2374	5.67e-05
2386	3.78e-05
2398	4.32e-05
2410	8.1e-06
2422	1.35e-05
2434	0
2446	1.89e-05
2458	2.97e-05
2470	2.7e-05
2482	8.1e-05
2494	8.1e-05
2506	6.21e-05
2518	8.91e-05
2530	8.1e-05
2542	8.37e-05
2554	9.18e-05
2566	7.29e-05
2578	8.91e-05
2590	7.02e-05
2602	7.83e-05
2614	0.0001134
2626	0.000135
2638	0.0001323
2650	0.0001215
2662	0.0001458
2674	0.0001566
2686	0.0002646
2698	0.0003699
2710	0.0004239
2722	0.000648
2734	0.0008505
2746	0.00081
2758	0.0006507
2770	0.0006237
2782	0.000756
2794	0.0010692
2806	0.0018495
2818	0.0038988
2830	0.0065286
2842	0.0062721
2854	0.0074196
2866	0.0126063
2878	0.0170721
2890	0.0190242
2902	0.0197856
2914	0.0182601
2926	0.019737
2938	0.0192726
2950	0.0219456
2962	0.0263574
2974	0.0171747
2986	0.0088182
2998	0.0054162
3010	0.0044847
3022	0.0042795
3034	0.0034236
3046	0.0020412
3058	0.001755
3070	0.0029646
3082	0.0046305
3094	0.0029133
3106	0.0008586
3118	0.0005481
3130	0.00054
3142	0.0004374
3154	0.0004428
3166	0.0004833
3178	0.0004293
3190	0.0004104
3202	0.0004158
3214	0.0003699
3226	0.0003078
3238	0.0002565
3250	0.0001755
3262	0.0001215
3274	0.0001323
3286	0.0001998
3298	0.000189
3310	0.0001539
3322	0.0001269
3334	0.0001242
3346	0.0001485
3358	0.0001512
3370	0.0001674
3382	0.0001485
3394	9.99e-05
3406	1.08e-05
3418	8.91e-05
3430	0.0001053
3442	9.18e-05
3454	5.94e-05
3466	0.0001161
3478	8.91e-05
3490	6.75e-05
3502	6.48e-05
3514	8.64e-05
3526	0.0001215
3538	3.78e-05
3550	9.45e-05
3562	7.29e-05
3574	0.0001053
3586	5.13e-05
3598	7.29e-05
3610	7.56e-05
3622	2.43e-05
3634	2.7e-05
3646	6.75e-05
3658	1.35e-05
3670	1.35e-05
3682	8.37e-05
3694	6.21e-05
3706	9.45e-05
3718	7.02e-05
3730	0.0001566
3742	0.0001323
3754	0.0001296
3766	8.64e-05
3778	0.0001215
3790	0.000135
3802	0.0001485
3814	0.0001593
3826	0.0001917
3838	0.0001539
