Infrared Spectrum: Tetraisopropyl methylenediphosphonate
Formula: C 13 H 30 O 6 P 2
CAS: 1660-95-3
State: gas
Origin: EPA-IR VAPOR PHASE LIBRARY
1/CM	ABSORBANCE
549.9	0.02133
559.547	0.01723
569.193	0.01413
578.84	0.01095
588.486	0.0088
598.133	0.0076
607.779	0.00705
617.426	0.00675
627.072	0.0066
636.719	0.00658
646.365	0.0067
656.012	0.0073
665.658	0.00812
675.305	0.00948
684.951	0.01175
694.598	0.01418
704.245	0.01658
713.891	0.0195
723.538	0.01929
733.184	0.01938
742.831	0.02156
752.477	0.02455
762.124	0.02847
771.77	0.03554
781.417	0.04729
791.063	0.07155
800.71	0.10866
810.356	0.15652
820.003	0.12003
829.649	0.05699
839.296	0.03107
848.943	0.02592
858.589	0.0299
868.236	0.04892
877.882	0.07964
887.529	0.06397
897.175	0.05015
906.822	0.03346
916.468	0.03405
926.115	0.04182
935.761	0.05448
945.408	0.07294
955.054	0.10785
964.701	0.18112
974.347	0.35991
983.994	0.71855
993.64	0.88793
1003.29	0.57017
1012.93	0.30269
1022.58	0.1912
1032.23	0.13482
1041.87	0.0819
1051.52	0.05573
1061.17	0.04636
1070.81	0.05138
1080.46	0.06083
1090.11	0.06582
1099.75	0.09417
1109.4	0.13875
1119.05	0.12317
1128.69	0.11374
1138.34	0.11088
1147.99	0.0873
1157.63	0.07793
1167.28	0.10061
1176.92	0.12724
1186.57	0.05726
1196.22	0.02803
1205.86	0.02043
1215.51	0.01858
1225.16	0.01993
1234.8	0.02461
1244.45	0.03848
1254.1	0.08989
1263.74	0.21742
1273.39	0.26869
1283.04	0.14882
1292.68	0.07117
1302.33	0.0369
1311.98	0.02367
1321.62	0.01993
1331.27	0.02081
1340.92	0.02522
1350.56	0.03426
1360.21	0.04733
1369.86	0.06269
1379.5	0.08439
1389.15	0.10742
1398.79	0.04318
1408.44	0.01985
1418.09	0.01448
1427.73	0.01341
1437.38	0.01487
1447.03	0.01832
1456.67	0.02263
1466.32	0.02444
1475.97	0.02117
1485.61	0.01302
1495.26	0.00908
1504.91	0.00711
1514.55	0.0061438
1524.2	0.00550557
1533.85	0.005015
1543.49	0.004659
1553.14	0.00441
1562.79	0.00429
1572.43	0.00422
1582.08	0.00417
1591.73	0.00427
1601.37	0.00428
1611.02	0.00437
1620.67	0.00444
1630.31	0.004592
1639.96	0.004777
1649.6	0.005075
1659.25	0.00553965
1668.9	0.0059988
1678.54	0.00664
1688.19	0.00734
1697.84	0.00812
1707.48	0.00873
1717.13	0.00923
1726.78	0.00973
1736.42	0.0098
1746.07	0.00925
1755.72	0.00834
1765.36	0.00755
1775.01	0.00675
1784.66	0.0060055
1794.3	0.00547749
1803.95	0.005158
1813.6	0.004928
1823.24	0.004696
1832.89	0.00442
1842.54	0.00437
1852.18	0.00445
1861.83	0.004751
1871.47	0.004894
1881.12	0.004797
1890.77	0.004468
1900.41	0.00403
1910.06	0.00377
1919.71	0.00354
1929.35	0.00327
1939	0.00306
1948.65	0.00291
1958.29	0.00285
1967.94	0.00278
1977.59	0.00269
1987.23	0.0026
1996.88	0.00262
2006.53	0.00256
2016.17	0.00258
2025.82	0.00251
2035.47	0.0025
2045.11	0.00249
2054.76	0.00251
2064.41	0.00269
2074.05	0.00267
2083.7	0.00261
2093.35	0.00255
2102.99	0.00257
2112.64	0.00251
2122.28	0.00247
2131.93	0.0025
2141.58	0.00249
2151.22	0.00246
2160.87	0.00245
2170.52	0.0024
2180.16	0.00235
2189.81	0.00236
2199.46	0.00225
2209.1	0.00223
2218.75	0.00219
2228.4	0.00236
2238.04	0.00255
2247.69	0.00288
2257.34	0.0032
2266.98	0.00332
2276.63	0.00299
2286.28	0.00278
2295.92	0.00275
2305.57	0.00282
2315.22	0.00272
2324.86	0.00248
2334.51	0.00228
2344.16	0.00227
2353.8	0.00223
2363.45	0.00228
2373.09	0.00238
2382.74	0.00232
2392.39	0.00227
2402.03	0.00216
2411.68	0.00209
2421.33	0.00204
2430.97	0.00211
2440.62	0.00209
2450.27	0.00216
2459.91	0.0022
2469.56	0.00222
2479.21	0.00227
2488.85	0.00239
2498.5	0.00257
2508.15	0.00273
2517.79	0.00279
2527.44	0.0027
2537.09	0.00251
2546.73	0.00238
2556.38	0.0022
2566.03	0.00214
2575.67	0.00196
2585.32	0.00184
2594.96	0.00186
2604.61	0.00185
2614.26	0.00204
2623.9	0.00211
2633.55	0.00234
2643.2	0.00243
2652.84	0.00243
2662.49	0.00232
2672.14	0.00223
2681.78	0.0021
2691.43	0.00228
2701.08	0.00249
2710.72	0.00268
2720.37	0.00287
2730.02	0.00369
2739.66	0.005055
2749.31	0.0043
2758.96	0.00371
2768.6	0.00363
2778.25	0.00346
2787.9	0.00327
2797.54	0.00347
2807.19	0.00377
2816.84	0.004642
2826.48	0.005332
2836.13	0.005624
2845.77	0.0062824
2855.42	0.00782
2865.07	0.01237
2874.71	0.02256
2884.36	0.03077
2894.01	0.02677
2903.65	0.02795
2913.3	0.03404
2922.95	0.04856
2932.59	0.07529
2942.24	0.09007
2951.89	0.0653
2961.53	0.05556
2971.18	0.08638
2980.83	0.17335
2990.47	0.14134
3000.12	0.07348
3009.77	0.03286
3019.41	0.01718
3029.06	0.00988
3038.71	0.0060504
3048.35	0.00427
3058	0.0032
3067.64	0.00268
3077.29	0.0026
3086.94	0.00256
3096.58	0.00259
3106.23	0.00267
3115.88	0.00235
3125.52	0.00219
3135.17	0.00209
3144.82	0.00187
3154.46	0.00189
3164.11	0.00203
3173.76	0.00211
3183.4	0.00225
3193.05	0.00222
3202.7	0.00198
3212.34	0.00172
3221.99	0.00161
3231.64	0.00124
3241.28	0.00075
3250.93	0.00055
3260.58	0.00028
3270.22	0.00016
3279.87	0.0001
3289.52	0.00014
3299.16	0.0002
3308.81	0.00027
3318.45	0.00035
3328.1	0.00052
3337.75	0.00046
3347.39	0.00064
3357.04	0.00064
3366.69	0.00068
3376.33	0.00078
3385.98	0.00071
3395.63	0.00086
3405.27	0.00102
3414.92	0.00105
3424.57	0.00101
3434.21	0.00123
3443.86	0.00123
3453.51	0.0012
3463.15	0.00132
3472.8	0.0012
3482.45	0.00112
3492.09	0.00121
3501.74	0.00123
3511.39	0.00129
3521.03	0.00111
3530.68	0.00127
3540.33	0.00134
3549.97	0.00132
3559.62	0.00147
3569.26	0.00143
3578.91	0.00143
3588.56	0.00146
3598.2	0.00148
3607.85	0.0014
3617.5	0.00157
3627.14	0.00164
3636.79	0.00164
3646.44	0.00191
3656.08	0.00167
3665.73	0.00183
3675.38	0.0018
3685.02	0.00181
3694.67	0.00178
3704.32	0.00184
3713.96	0.00191
3723.61	0.00206
3733.26	0.00194
3742.9	0.00197
3752.55	0.00194
3762.2	0.00199
3771.84	0.00189
3781.49	0.00198
3791.13	0.00194
3800.78	0.00201
3810.43	0.00204
3820.07	0.00217
3829.72	0.00222
3839.37	0.00218
3849.01	0.00215
3858.66	0.00229
3868.31	0.00223
3877.95	0.00224
3887.6	0.00218
3897.25	0.00222
3906.89	0.00229
3916.54	0.00236
3926.19	0.0024
3935.83	0.00247
3945.48	0.00241
3955.13	0.00248
3964.77	0.00257
3974.42	0.00276
3984.07	0.0027
3993.71	0.00269
