Infrared Spectrum: 3-Aminopyrazole-4-carbonitrile
Formula: C 4 H 4 N 4
CAS: 16617-46-2
State: gas
Instrument: HP-GC/MS/IRD
Origin: NIST Mass Spectrometry Data Center
1/CM	ABSORBANCE
550	0.0004823
562	0.0006349
574	0.0008323
586	0.0007371
598	0.0006699
610	0.0007798
622	0.001267
634	0.0012544
646	0.0012761
658	0.0010717
670	0.0009891
682	0.0009415
694	0.0010815
706	0.0012698
718	0.0011711
730	0.0008715
742	0.0006727
754	0.0005537
766	0.0005614
778	0.0005474
790	0.0005299
802	0.0006825
814	0.0010976
826	0.0005495
838	0.0002842
850	0.0002842
862	0.0004011
874	0.0002877
886	0.0001953
898	0.0002387
910	0.0005544
922	0.0010101
934	0.001365
946	0.0016863
958	0.0018326
970	0.0017829
982	0.0014035
994	0.0009919
1006	0.0006083
1018	0.0006279
1030	0.000658
1042	0.0007182
1054	0.0006202
1066	0.0004004
1078	0.0004543
1090	0.0004956
1102	0.000308
1114	0.0001512
1126	0.0001113
1138	0.0001183
1150	0.0001169
1162	0.0003283
1174	0.0004116
1186	0.0004662
1198	0.000427
1210	0.0004179
1222	0.0003381
1234	5.95e-05
1246	1.4e-05
1258	3.57e-05
1270	4.48e-05
1282	0.0001183
1294	0.000273
1306	0.0003171
1318	0.0002212
1330	0.0001792
1342	0.0001519
1354	0.0001155
1366	9.8e-05
1378	0.0002184
1390	0.0003605
1402	0.0003857
1414	0.0002541
1426	0.0003409
1438	0.0005908
1450	0.0009289
1462	0.0009604
1474	0.0010451
1486	0.0017612
1498	0.0031647
1510	0.0040901
1522	0.0034909
1534	0.0018697
1546	0.0011704
1558	0.0021014
1570	0.0034559
1582	0.003647
1594	0.0030919
1606	0.0042511
1618	0.0053949
1630	0.0047432
1642	0.0025207
1654	0.00105
1666	0.0005117
1678	0.0003465
1690	0.0002765
1702	0.0002429
1714	0.000252
1726	0.0002247
1738	0.0001925
1750	0.0001596
1762	0.0001526
1774	0.0001547
1786	0.0001561
1798	0.0001526
1810	0.0001589
1822	0.0001379
1834	0.0001288
1846	0.0001442
1858	0.0001414
1870	0.0001365
1882	0.0001414
1894	0.0001512
1906	0.0001505
1918	0.0001575
1930	0.0001638
1942	0.0001827
1954	0.0001806
1966	0.0001638
1978	0.0001848
1990	0.0001799
2002	0.0001862
2014	0.000189
2026	0.0001974
2038	0.0001883
2050	0.0002114
2062	0.0001967
2074	0.0001869
2086	0.0002128
2098	0.0002191
2110	0.0002212
2122	0.0002135
2134	0.0002275
2146	0.0002296
2158	0.0002352
2170	0.0002534
2182	0.0002772
2194	0.0003353
2206	0.000567
2218	0.0014392
2230	0.0024969
2242	0.002408
2254	0.0008659
2266	0.0003654
2278	0.0002751
2290	0.0002457
2302	0.0002443
2314	0.000238
2326	0.0002492
2338	0.0002499
2350	0.0002359
2362	0.0002814
2374	0.0002408
2386	0.0002324
2398	0.0002079
2410	0.0002121
2422	0.0002051
2434	0.0002044
2446	0.0001995
2458	0.0001974
2470	0.0002114
2482	0.0002114
2494	0.0002261
2506	0.0002219
2518	0.000224
2530	0.0002604
2542	0.0002436
2554	0.0002352
2566	0.0002128
2578	0.0002205
2590	0.0002282
2602	0.0002576
2614	0.0002534
2626	0.00028
2638	0.0002772
2650	0.0002499
2662	0.0002093
2674	0.0002177
2686	0.0002401
2698	0.0002184
2710	0.0002296
2722	0.000231
2734	0.0002429
2746	0.0002849
2758	0.0002891
2770	0.0002688
2782	0.0002345
2794	0.0002268
2806	0.0002394
2818	0.000238
2830	0.0002548
2842	0.0002373
2854	0.0002107
2866	0.000217
2878	0.0002296
2890	0.0002016
2902	0.0002163
2914	0.0002275
2926	0.0002107
2938	0.0002163
2950	0.0002275
2962	0.0002415
2974	0.0002415
2986	0.0002338
2998	0.0002324
3010	0.0002338
3022	0.0002576
3034	0.0002534
3046	0.000245
3058	0.0002282
3070	0.0001869
3082	0.0002065
3094	0.0002184
3106	0.0002331
3118	0.0002982
3130	0.0002492
3142	0.0002982
3154	0.0002667
3166	0.0002324
3178	0.0002275
3190	0.0002527
3202	0.0002695
3214	0.0002807
3226	0.0002695
3238	0.0002618
3250	0.0002905
3262	0.0002681
3274	0.0002737
3286	0.0002625
3298	0.0002688
3310	0.0002576
3322	0.0002352
3334	0.0002492
3346	0.0002709
3358	0.0002947
3370	0.0003486
3382	0.000448
3394	0.0008246
3406	0.0012187
3418	0.0013251
3430	0.0010255
3442	0.000665
3454	0.0005838
3466	0.0007756
3478	0.001365
3490	0.0027531
3502	0.0048916
3514	0.007
3526	0.0052556
3538	0.0022197
3550	0.0005684
3562	0.0003521
3574	0.0003087
3586	0.0002128
3598	0.0002471
3610	0.0001925
3622	0.0002009
3634	0.0002408
3646	0.0002219
3658	0.0002289
3670	0.0002653
3682	0.0001981
3694	0.0002226
3706	0.0002422
3718	0.0002009
3730	0.0002044
3742	0.0002268
3754	0.0002674
3766	0.0001953
3778	0.000196
3790	0.0002156
3802	0.0002359
3814	0.0001827
3826	0.0002205
3838	0.0002324
