Infrared Spectrum: 3-Phenyl-1-indanone
Formula: C 15 H 12 O
CAS: 16618-72-7
State: gas
Origin: EPA-IR VAPOR PHASE LIBRARY
1/CM	ABSORBANCE
549.8	0.009048
559.445	0.007578
569.09	0.009808
578.734	0.012028
588.379	0.008318
598.024	0.004448
607.669	0.004488
617.313	0.003068
626.958	0.001898
636.603	0.002178
646.248	0.002948
655.893	0.005078
665.537	0.009398
675.182	0.009968
684.827	0.013308
694.472	0.040888
704.116	0.035058
713.761	0.013608
723.406	0.011798
733.051	0.012128
742.695	0.034738
752.34	0.089668
761.985	0.054808
771.63	0.013488
781.275	0.005838
790.919	0.004558
800.564	0.003718
810.209	0.002468
819.854	0.001838
829.498	0.001568
839.143	0.001478
848.788	0.001728
858.433	0.003788
868.078	0.005318
877.722	0.003208
887.367	0.002228
897.012	0.002928
906.657	0.004538
916.301	0.004408
925.946	0.006328
935.591	0.005958
945.236	0.002418
954.88	0.002128
964.525	0.002408
974.17	0.002488
983.815	0.003018
993.46	0.004528
1003.1	0.009178
1012.75	0.020488
1022.39	0.016228
1032.04	0.022508
1041.68	0.022948
1051.33	0.009868
1060.97	0.004558
1070.62	0.006108
1080.26	0.008478
1089.91	0.013358
1099.55	0.007598
1109.2	0.004078
1118.84	0.003248
1128.49	0.003588
1138.13	0.006538
1147.78	0.011098
1157.42	0.008558
1167.07	0.008188
1176.71	0.007618
1186.36	0.010078
1196	0.013218
1205.64	0.009928
1215.29	0.011578
1224.93	0.027828
1234.58	0.030178
1244.22	0.013588
1253.87	0.017008
1263.51	0.027258
1273.16	0.025348
1282.8	0.025008
1292.45	0.024268
1302.09	0.019168
1311.74	0.018628
1321.38	0.013308
1331.03	0.009318
1340.67	0.008168
1350.32	0.005318
1359.96	0.003018
1369.61	0.003078
1379.25	0.003238
1388.9	0.002658
1398.54	0.003178
1408.18	0.006908
1417.83	0.008348
1427.47	0.005388
1437.12	0.006068
1446.76	0.011598
1456.41	0.022108
1466.05	0.027808
1475.7	0.016588
1485.34	0.012888
1494.99	0.020198
1504.63	0.009568
1514.28	0.003748
1523.92	0.002578
1533.57	0.002828
1543.21	0.002568
1552.86	0.002778
1562.5	0.003768
1572.15	0.006418
1581.79	0.013788
1591.44	0.030498
1601.08	0.040268
1610.73	0.026238
1620.37	0.014458
1630.01	0.008738
1639.66	0.004838
1649.3	0.003228
1658.95	0.003378
1668.59	0.003758
1678.24	0.004868
1687.88	0.008328
1697.53	0.015428
1707.17	0.021618
1716.82	0.037738
1726.46	0.126928
1736.11	0.328028
1745.75	0.219948
1755.4	0.047408
1765.04	0.022618
1774.69	0.015478
1784.33	0.010088
1793.98	0.008678
1803.62	0.006658
1813.27	0.004908
1822.91	0.004168
1832.55	0.003868
1842.2	0.003318
1851.84	0.003938
1861.49	0.004208
1871.13	0.003308
1880.78	0.003058
1890.42	0.002588
1900.07	0.002188
1909.71	0.002368
1919.36	0.002328
1929	0.003358
1938.65	0.005268
1948.29	0.003968
1957.94	0.004188
1967.58	0.002958
1977.23	0.001428
1986.87	0.0009537
1996.52	0.0009466
2006.16	0.0008455
2015.81	0.0007679
2025.45	0.0008114
2035.1	0.0009305
2044.74	0.0008918
2054.38	0.000858
2064.03	0.0007443
2073.67	0.0007658
2083.32	0.0007087
2092.96	0.0005562
2102.61	0.0004663
2112.25	0.0003227
2121.9	0.0003562
2131.54	0.0004607
2141.19	0.0004395
2150.83	0.000423
2160.48	0.0004001
2170.12	0.0004525
2179.77	0.0005625
2189.41	0.0005937
2199.06	0.0005673
2208.7	0.0006722
2218.35	0.0006875
2227.99	0.0007062
2237.64	0.0007867
2247.28	0.0007252
2256.92	0.000727
2266.57	0.0008184
2276.21	0.000856
2285.86	0.0008918
2295.5	0.0009343
2305.15	0.001148
2314.79	0.001318
2324.44	0.0010537
2334.08	0.0009837
2343.73	0.0010258
2353.37	0.0008663
2363.02	0.0006559
2372.66	0.0006149
2382.31	0.0006052
2391.95	0.0005721
2401.6	0.0005725
2411.24	0.0005745
2420.89	0.0006528
2430.53	0.0004885
2440.18	0.0006287
2449.82	0.0006647
2459.47	0.000709
2469.11	0.0006575
2478.75	0.000582
2488.4	0.0005897
2498.04	0.0006374
2507.69	0.0005853
2517.33	0.0006139
2526.98	0.0006769
2536.62	0.0006246
2546.27	0.0005464
2555.91	0.000537
2565.56	0.0003952
2575.2	0.0004623
2584.85	0.0005166
2594.49	0.0006175
2604.14	0.0007066
2613.78	0.0006413
2623.43	0.0005867
2633.07	0.0006715
2642.72	0.0005716
2652.36	0.0004629
2662.01	0.0004818
2671.65	0.0006179
2681.29	0.0005114
2690.94	0.0004356
2700.58	0.000379
2710.23	0.000269
2719.87	0.0002692
2729.52	0.0002671
2739.16	0.0003537
2748.81	0.0005413
2758.45	0.0005885
2768.1	0.0005538
2777.74	0.0006623
2787.39	0.0006833
2797.03	0.0006927
2806.68	0.0008593
2816.32	0.001158
2825.97	0.0009942
2835.61	0.0009177
2845.26	0.0009697
2854.9	0.0011267
2864.55	0.001668
2874.19	0.002328
2883.84	0.003038
2893.48	0.005238
2903.12	0.010738
2912.77	0.012218
2922.41	0.009338
2932.06	0.007408
2941.7	0.007248
2951.35	0.009368
2960.99	0.007338
2970.64	0.004638
2980.28	0.004818
2989.93	0.004268
2999.57	0.005038
3009.22	0.007628
3018.86	0.013558
3028.51	0.030358
3038.15	0.034758
3047.8	0.020348
3057.44	0.021958
3067.09	0.041508
3076.73	0.050188
3086.38	0.030558
3096.02	0.015708
3105.67	0.007898
3115.31	0.004698
3124.95	0.002148
3134.6	0.001368
3144.24	0.0009668
3153.89	0.0009577
3163.53	0.0010403
3173.18	0.0009564
3182.82	0.000772
3192.47	0.0006359
3202.11	0.0004423
3211.76	0.0003504
3221.4	0.00020574
3231.05	0.00021718
3240.69	0.00018552
3250.34	0.000126
3259.98	0.00017706
3269.63	0.00016688
3279.27	0.00019412
3288.92	0.00023679
3298.56	0.0003577
3308.21	0.0003065
3317.85	0.0003878
3327.49	0.000124
3337.14	0.00022008
3346.78	0.0002632
3356.43	0.0002724
3366.07	0.0002796
3375.72	0.00015606
3385.36	0.0003213
3395.01	0.0003147
3404.65	0.0003099
3414.3	0.0007055
3423.94	0.0006901
3433.59	0.001278
3443.23	0.002388
3452.88	0.004838
3462.52	0.004828
3472.17	0.002078
3481.81	0.0010967
3491.46	0.0008431
3501.1	0.0004953
3510.75	0.0003477
3520.39	0.0004732
3530.04	0.0003904
3539.68	0.0003767
3549.32	0.0003738
3558.97	0.00022911
3568.61	0.0003121
3578.26	0.0002537
3587.9	0.0003038
3597.55	0.0003772
3607.19	0.0002556
3616.84	0.0005519
3626.48	0.0003038
3636.13	0.0004862
3645.77	0.0005696
3655.42	0.0004614
3665.06	0.0004591
3674.71	0.0004331
3684.35	0.000588
3694	0.0003938
3703.64	0.0004232
3713.29	0.0003823
3722.93	0.00024541
3732.58	0.0004821
3742.22	0.0004252
3751.86	0.0003608
3761.51	0.0003734
3771.15	0.0005532
3780.8	0.0005793
3790.44	0.0004109
3800.09	0.0004868
3809.73	0.0003723
3819.38	0.0004005
3829.02	0.0004142
3838.67	0.0003581
3848.31	0.0004334
3857.96	0.0005072
3867.6	0.0004292
3877.25	0.0004242
3886.89	0.0004812
3896.54	0.0003184
3906.18	0.0005384
3915.83	0.0005599
3925.47	0.0004616
3935.12	0.0005973
3944.76	0.0006239
3954.41	0.0003323
3964.05	0.0006185
3973.69	0.0002693
3983.34	0.0004906
3992.98	0.0004801
