Infrared Spectrum: 2-Thiophenesulfonyl chloride
Formula: C 4 H 3 Cl O 2 S 2
CAS: 16629-19-9
State: gas
Origin: EPA-IR VAPOR PHASE LIBRARY
1/CM	ABSORBANCE
549.8	0.20182
559.445	0.26815
569.09	0.17393
578.734	0.24704
588.379	0.43597
598.024	0.34814
607.669	0.11549
617.313	0.03748
626.958	0.03121
636.603	0.02427
646.248	0.02403
655.893	0.08485
665.537	0.13076
675.182	0.06814
684.827	0.02295
694.472	0.02434
704.116	0.07754
713.761	0.17069
723.406	0.13294
733.051	0.04133
742.695	0.01905
752.34	0.01761
761.985	0.0100077
771.63	0.00449
781.275	0.00408
790.919	0.00489
800.564	0.005
810.209	0.00548
819.854	0.00593
829.498	0.00641
839.143	0.01267
848.788	0.02318
858.433	0.02629
868.078	0.0153
877.722	0.00512
887.367	0.003
897.012	0.00275
906.657	0.0029
916.301	0.00297
925.946	0.00348
935.591	0.00425
945.236	0.00432
954.88	0.00353
964.525	0.00353
974.17	0.00394
983.815	0.00686
993.46	0.01708
1003.1	0.04503
1012.75	0.08631
1022.39	0.06904
1032.04	0.01379
1041.68	0.00628
1051.33	0.00592
1060.97	0.01116
1070.62	0.01563
1080.26	0.01652
1089.91	0.02226
1099.55	0.01898
1109.2	0.01014
1118.84	0.008036
1128.49	0.01027
1138.13	0.01701
1147.78	0.02405
1157.42	0.03971
1167.07	0.10299
1176.71	0.22857
1186.36	0.30899
1196	0.2241
1205.64	0.07906
1215.29	0.03202
1224.93	0.06516
1234.58	0.07681
1244.22	0.03536
1253.87	0.01702
1263.51	0.01079
1273.16	0.00551
1282.8	0.00384
1292.45	0.00377
1302.09	0.00432
1311.74	0.00599
1321.38	0.00793
1331.03	0.01203
1340.67	0.02395
1350.32	0.02518
1359.96	0.01715
1369.61	0.02828
1379.25	0.07097
1388.9	0.18345
1398.54	0.33795
1408.18	0.3116
1417.83	0.12454
1427.47	0.03148
1437.12	0.01537
1446.76	0.00731
1456.41	0.0043
1466.05	0.00343
1475.7	0.00352
1485.34	0.00554
1494.99	0.01293
1504.63	0.02122
1514.28	0.01479
1523.92	0.00393
1533.57	0.00347
1543.21	0.00582
1552.86	0.01066
1562.5	0.01035
1572.15	0.00532
1581.79	0.00294
1591.44	0.00235
1601.08	0.00232
1610.73	0.00295
1620.37	0.00357
1630.01	0.00315
1639.66	0.00223
1649.3	0.00211
1658.95	0.00252
1668.59	0.00369
1678.24	0.00545
1687.88	0.00554
1697.53	0.00348
1707.17	0.00232
1716.82	0.00231
1726.46	0.00262
1736.11	0.00401
1745.75	0.0058
1755.4	0.00539
1765.04	0.0031
1774.69	0.00195
1784.33	0.00185
1793.98	0.00213
1803.62	0.00331
1813.27	0.00521
1822.91	0.00477
1832.55	0.00278
1842.2	0.00199
1851.84	0.00185
1861.49	0.00153
1871.13	0.00138
1880.78	0.00128
1890.42	0.00115
1900.07	0.00106
1909.71	0.00113
1919.36	0.00114
1929	0.00113
1938.65	0.00119
1948.29	0.00131
1957.94	0.00121
1967.58	0.00115
1977.23	0.00111
1986.87	0.00118
1996.52	0.00143
2006.16	0.00181
2015.81	0.00191
2025.45	0.00212
2035.1	0.00187
2044.74	0.00145
2054.38	0.00151
2064.03	0.00184
2073.67	0.0017
2083.32	0.0019
2092.96	0.0019
2102.61	0.00182
2112.25	0.00153
2121.9	0.00114
2131.54	0.00094
2141.19	0.00103
2150.83	0.00142
2160.48	0.00165
2170.12	0.0017
2179.77	0.00177
2189.41	0.00195
2199.06	0.00178
2208.7	0.00146
2218.35	0.00115
2227.99	0.0011
2237.64	0.00137
2247.28	0.00162
2256.92	0.00171
2266.57	0.00144
2276.21	0.00119
2285.86	0.00109
2295.5	0.00096
2305.15	0.00098
2314.79	0.0009
2324.44	0.00112
2334.08	0.00126
2343.73	0.00167
2353.37	0.00218
2363.02	0.00244
2372.66	0.00232
2382.31	0.00195
2391.95	0.0024
2401.6	0.00336
2411.24	0.00415
2420.89	0.00334
2430.53	0.00162
2440.18	0.00129
2449.82	0.00123
2459.47	0.00147
2469.11	0.00142
2478.75	0.00143
2488.4	0.00133
2498.04	0.00137
2507.69	0.00117
2517.33	0.00135
2526.98	0.00143
2536.62	0.00135
2546.27	0.00149
2555.91	0.00179
2565.56	0.00253
2575.2	0.00333
2584.85	0.00365
2594.49	0.00289
2604.14	0.00178
2613.78	0.0011
2623.43	0.00086
2633.07	0.00091
2642.72	0.00086
2652.36	0.00075
2662.01	0.00081
2671.65	0.00076
2681.29	0.00097
2690.94	0.0008
2700.58	0.00093
2710.23	0.00079
2719.87	0.0008
2729.52	0.00119
2739.16	0.0011
2748.81	0.00094
2758.45	0.00082
2768.1	0.00082
2777.74	0.00118
2787.39	0.00128
2797.03	0.00128
2806.68	0.00097
2816.32	0.0007
2825.97	0.00033
2835.61	0.00047
2845.26	0.00051
2854.9	0.00053
2864.55	0.00034
2874.19	0.00026
2883.84	0.00042
2893.48	0.00033
2903.12	0.00057
2912.77	0.00053
2922.41	0.00053
2932.06	0.00041
2941.7	0.00058
2951.35	0.00047
2960.99	0.00058
2970.64	0.00031
2980.28	0.00061
2989.93	0.00043
2999.57	0.00062
3009.22	0.00045
3018.86	0.00035
3028.51	0.00041
3038.15	0.00041
3047.8	0.00048
3057.44	0.0006
3067.09	0.00077
3076.73	0.00142
3086.38	0.004
3096.02	0.00693
3105.67	0.00651
3115.31	0.00399
3124.95	0.00177
3134.6	0.00108
3144.24	0.00053
3153.89	0.00049
3163.53	0.00061
3173.18	0.00039
3182.82	0.00039
3192.47	0.00031
3202.11	0.00058
3211.76	0.00046
3221.4	0.00056
3231.05	0.0004
3240.69	0.0004
3250.34	0.00048
3259.98	0.0003
3269.63	0.00025
3279.27	0.00037
3288.92	0.00044
3298.56	0.00039
3308.21	0.00032
3317.85	0.00057
3327.49	0.00053
3337.14	0.00051
3346.78	0.00042
3356.43	0.00038
3366.07	0.00011
3375.72	0.00049
3385.36	0.00038
3395.01	0.00062
3404.65	0.00071
3414.3	0.00048
3423.94	0.00059
3433.59	0.00035
3443.23	0.00033
3452.88	0.00047
3462.52	0.0005
3472.17	0.00052
3481.81	0.00018
3491.46	0.00032
3501.1	0.00034
3510.75	0.00037
3520.39	0.0002
3530.04	0.0004
3539.68	0.00025
3549.32	0.00033
3558.97	0.00037
3568.61	9e-05
3578.26	0.0002
3587.9	0.00037
3597.55	0.00058
3607.19	0.00031
3616.84	0.00018
3626.48	0.00028
3636.13	0.0007
3645.77	0.00028
3655.42	0.00034
3665.06	0.00049
3674.71	0.00064
3684.35	0.0006
3694	0.00027
3703.64	0.00035
3713.29	0.00054
3722.93	0.00063
3732.58	0.0005
3742.22	0.00064
3751.86	0.00062
3761.51	0.00099
3771.15	0.00073
3780.8	0.00082
3790.44	0.00071
3800.09	0.00042
3809.73	0.00062
3819.38	0.00072
3829.02	0.00063
3838.67	0.00119
3848.31	0.00106
3857.96	0.00111
3867.6	0.0007
3877.25	0.00043
3886.89	0.00044
3896.54	0.00049
3906.18	0.0007
3915.83	0.00041
3925.47	0.00042
3935.12	0.00082
3944.76	0.00147
3954.41	0.00175
3964.05	0.0013
3973.69	0.00056
3983.34	0.0004
3992.98	0.00042
