Infrared Spectrum: 2-(Acetoacetyl)phenol
Formula: C 10 H 10 O 3
CAS: 16636-62-7
State: gas
Origin: EPA-IR VAPOR PHASE LIBRARY
1/CM	ABSORBANCE
549.8	0.00977
559.445	0.00954
569.09	0.00824
578.734	0.0061
588.379	0.00618
598.024	0.00735
607.669	0.01169
617.313	0.01391
626.958	0.00873
636.603	0.00566
646.248	0.00533
655.893	0.00787
665.537	0.01297
675.182	0.01402
684.827	0.01117
694.472	0.01062
704.116	0.01359
713.761	0.01795
723.406	0.02092
733.051	0.02558
742.695	0.04276
752.34	0.06226
761.985	0.04005
771.63	0.01615
781.275	0.00851
790.919	0.00876
800.564	0.0143
810.209	0.01361
819.854	0.00731
829.498	0.00726
839.143	0.00928
848.788	0.00955
858.433	0.01114
868.078	0.01741
877.722	0.01368
887.367	0.01051
897.012	0.01129
906.657	0.00997
916.301	0.00925
925.946	0.01026
935.591	0.01307
945.236	0.01059
954.88	0.0082
964.525	0.01019
974.17	0.01323
983.815	0.01354
993.46	0.0117
1003.1	0.00956
1012.75	0.00822
1022.39	0.00995
1032.04	0.01259
1041.68	0.01189
1051.33	0.01286
1060.97	0.01202
1070.62	0.00707
1080.26	0.00633
1089.91	0.00685
1099.55	0.00808
1109.2	0.01158
1118.84	0.0174
1128.49	0.02201
1138.13	0.02905
1147.78	0.05745
1157.42	0.08355
1167.07	0.04896
1176.71	0.03717
1186.36	0.04719
1196	0.05923
1205.64	0.05859
1215.29	0.06138
1224.93	0.05948
1234.58	0.05765
1244.22	0.0715
1253.87	0.06509
1263.51	0.05073
1273.16	0.04984
1282.8	0.06203
1292.45	0.08691
1302.09	0.09519
1311.74	0.07776
1321.38	0.06553
1331.03	0.05899
1340.67	0.05001
1350.32	0.04391
1359.96	0.04324
1369.61	0.03918
1379.25	0.03495
1388.9	0.03177
1398.54	0.02925
1408.18	0.03021
1417.83	0.03266
1427.47	0.03449
1437.12	0.03851
1446.76	0.04512
1456.41	0.04738
1466.05	0.04527
1475.7	0.05333
1485.34	0.06843
1494.99	0.06135
1504.63	0.04306
1514.28	0.03051
1523.92	0.02472
1533.57	0.0246
1543.21	0.02776
1552.86	0.03487
1562.5	0.05171
1572.15	0.09029
1581.79	0.11669
1591.44	0.09583
1601.08	0.09832
1610.73	0.1301
1620.37	0.15993
1630.01	0.14196
1639.66	0.12239
1649.3	0.11356
1658.95	0.07392
1668.59	0.03958
1678.24	0.0254
1687.88	0.0208
1697.53	0.02014
1707.17	0.02367
1716.82	0.03016
1726.46	0.03868
1736.11	0.04421
1745.75	0.03419
1755.4	0.02089
1765.04	0.01375
1774.69	0.00997
1784.33	0.00786
1793.98	0.00679
1803.62	0.0056
1813.27	0.00449
1822.91	0.00402
1832.55	0.00379
1842.2	0.00352
1851.84	0.00331
1861.49	0.0035
1871.13	0.0036
1880.78	0.00343
1890.42	0.00297
1900.07	0.00293
1909.71	0.00344
1919.36	0.0032
1929	0.00291
1938.65	0.00338
1948.29	0.00356
1957.94	0.00257
1967.58	0.00202
1977.23	0.00188
1986.87	0.00198
1996.52	0.0021
2006.16	0.002
2015.81	0.00195
2025.45	0.00195
2035.1	0.00195
2044.74	0.0019
2054.38	0.00189
2064.03	0.00191
2073.67	0.00187
2083.32	0.0019
2092.96	0.00195
2102.61	0.00189
2112.25	0.00191
2121.9	0.00182
2131.54	0.00162
2141.19	0.00169
2150.83	0.00185
2160.48	0.00195
2170.12	0.00186
2179.77	0.00182
2189.41	0.00178
2199.06	0.00169
2208.7	0.00171
2218.35	0.00167
2227.99	0.0017
2237.64	0.00172
2247.28	0.00186
2256.92	0.00187
2266.57	0.0019
2276.21	0.00199
2285.86	0.00209
2295.5	0.00207
2305.15	0.00202
2314.79	0.00211
2324.44	0.00198
2334.08	0.00211
2343.73	0.00212
2353.37	0.00226
2363.02	0.0022
2372.66	0.00223
2382.31	0.00211
2391.95	0.00227
2401.6	0.00231
2411.24	0.00231
2420.89	0.00226
2430.53	0.00235
2440.18	0.00232
2449.82	0.00251
2459.47	0.00247
2469.11	0.00266
2478.75	0.00282
2488.4	0.00275
2498.04	0.00299
2507.69	0.0029
2517.33	0.00301
2526.98	0.00292
2536.62	0.00327
2546.27	0.00342
2555.91	0.00366
2565.56	0.00358
2575.2	0.00354
2584.85	0.00355
2594.49	0.0037
2604.14	0.00388
2613.78	0.00398
2623.43	0.00411
2633.07	0.00411
2642.72	0.004
2652.36	0.00374
2662.01	0.00373
2671.65	0.00367
2681.29	0.00382
2690.94	0.00403
2700.58	0.00441
2710.23	0.0046
2719.87	0.00473
2729.52	0.00478
2739.16	0.00491
2748.81	0.00512
2758.45	0.00511
2768.1	0.00501
2777.74	0.00492
2787.39	0.00478
2797.03	0.00492
2806.68	0.00506
2816.32	0.00533
2825.97	0.00545
2835.61	0.00556
2845.26	0.00541
2854.9	0.00542
2864.55	0.00539
2874.19	0.00523
2883.84	0.00545
2893.48	0.00564
2903.12	0.00605
2912.77	0.00665
2922.41	0.00742
2932.06	0.00878
2941.7	0.00875
2951.35	0.00788
2960.99	0.00766
2970.64	0.00816
2980.28	0.00852
2989.93	0.00907
2999.57	0.01013
3009.22	0.01097
3018.86	0.01137
3028.51	0.01169
3038.15	0.01326
3047.8	0.01574
3057.44	0.01917
3067.09	0.02254
3076.73	0.0215
3086.38	0.01954
3096.02	0.01795
3105.67	0.01548
3115.31	0.01452
3124.95	0.01391
3134.6	0.01316
3144.24	0.01285
3153.89	0.01248
3163.53	0.01256
3173.18	0.01248
3182.82	0.01227
3192.47	0.01229
3202.11	0.01198
3211.76	0.01182
3221.4	0.01149
3231.05	0.01152
3240.69	0.01132
3250.34	0.0112
3259.98	0.01129
3269.63	0.01079
3279.27	0.01044
3288.92	0.01012
3298.56	0.00998
3308.21	0.00949
3317.85	0.00902
3327.49	0.00871
3337.14	0.00843
3346.78	0.00808
3356.43	0.00786
3366.07	0.00728
3375.72	0.00701
3385.36	0.00669
3395.01	0.00646
3404.65	0.00609
3414.3	0.00584
3423.94	0.00572
3433.59	0.0056
3443.23	0.00549
3452.88	0.00531
3462.52	0.00492
3472.17	0.00457
3481.81	0.00407
3491.46	0.00367
3501.1	0.00337
3510.75	0.00311
3520.39	0.00278
3530.04	0.0026
3539.68	0.00236
3549.32	0.00202
3558.97	0.00183
3568.61	0.00188
3578.26	0.00161
3587.9	0.00139
3597.55	0.00131
3607.19	0.00125
3616.84	0.00144
3626.48	0.00187
3636.13	0.00167
3645.77	0.00118
3655.42	0.0007471
3665.06	0.0009144
3674.71	0.0006189
3684.35	0.0003795
3694	0.0005343
3703.64	0.0006087
3713.29	0.0004215
3722.93	0.0005563
3732.58	0.0004851
3742.22	0.0005206
3751.86	0.000461
3761.51	0.0004411
3771.15	0.0002558
3780.8	0.000324
3790.44	0.0003744
3800.09	0.0002947
3809.73	0.0002634
3819.38	0.0002779
3829.02	0.0004585
3838.67	0.0004935
3848.31	0.0004512
3857.96	0.0004298
3867.6	0.0003852
3877.25	0.0004631
3886.89	0.000481
3896.54	0.0005504
3906.18	0.0006709
3915.83	0.0002413
3925.47	0.0005223
3935.12	0.0007534
3944.76	0.0004741
3954.41	0.0004371
3964.05	0.0002582
3973.69	0.0005119
3983.34	0.0005167
3992.98	0.0002914
