Infrared Spectrum: ACETIC ACID, 2-(2-METHYLPROPYLIDENE)HYDRAZIDE
Formula: C6 H12 N2 O
CAS: 166327-19-1
State: LIQUID (NEAT)
Class: COBLENTZ III
Instrument: PERKIN-ELMER 521 (GRATING)
Sampling: TRANSMISSION
Path length: CAPILLARY BETWEEN KBr PLATES
Resolution: 4
Origin: STANDARD OIL OF OHIO
1/CM	TRANSMITTANCE
420.1	0.804
429.145	0.804
438.19	0.759
447.236	0.6991
456.281	0.575
465.326	0.6959
474.371	0.774
483.417	0.755
492.462	0.75
501.507	0.749
510.552	0.701
519.598	0.4932
528.643	0.5109
537.688	0.615
546.733	0.57
555.778	0.3941
564.824	0.343
573.869	0.437
582.914	0.432
591.959	0.354
601.005	0.37
610.05	0.5627
619.095	0.5561
628.14	0.5281
637.185	0.541
646.231	0.491
655.276	0.352
664.321	0.362
673.366	0.375
682.412	0.374
691.457	0.357
700.502	0.34
709.547	0.329
718.593	0.334
727.638	0.347
736.683	0.367
745.728	0.39
754.773	0.424
763.819	0.452
772.864	0.483
781.909	0.502
790.954	0.52
800	0.538
809.045	0.563
818.09	0.557
827.135	0.576
836.18	0.602
845.226	0.642
854.271	0.619
863.316	0.578
872.361	0.413
881.407	0.464
890.452	0.6609
899.497	0.691
908.542	0.656
917.588	0.525
926.633	0.319
935.678	0.25
944.723	0.263
953.768	0.419
962.814	0.427
971.859	0.443
980.904	0.492
989.949	0.489
998.995	0.3951
1008.04	0.264
1017.09	0.196
1026.13	0.154
1035.18	0.3
1044.22	0.342
1053.27	0.387
1062.31	0.2591
1071.36	0.132
1080.4	0.097
1089.45	0.127
1098.49	0.174
1107.54	0.16
1116.58	0.19
1125.63	0.324
1134.67	0.317
1143.72	0.318
1152.76	0.353
1161.81	0.354
1170.85	0.469
1179.9	0.3831
1188.94	0.318
1197.99	0.436
1207.03	0.491
1216.08	0.511
1225.13	0.505
1234.17	0.486
1243.22	0.426
1252.26	0.3031
1261.31	0.1501
1270.35	0.07
1279.4	0.038
1288.44	0.055
1297.49	0.078
1306.53	0.112
1315.58	0.08
1324.62	0.051
1333.67	0.058
1342.71	0.087
1351.76	0.05
1360.8	0.055
1369.85	0.018
1378.89	0.016
1387.94	0.017
1396.98	0.031
1406.03	0.048
1415.08	0.114
1424.12	0.129
1433.17	0.144
1442.21	0.149
1451.26	0.142
1460.3	0.09
1469.35	0.081
1478.39	0.201
1487.44	0.204
1496.48	0.209
1505.53	0.258
1514.57	0.261
1523.62	0.23
1532.66	0.165
1541.71	0.096
1550.75	0.056
1559.8	0.041
1568.84	0.047
1577.89	0.076
1586.93	0.156
1595.98	0.23
1605.02	0.223
1614.07	0.14
1623.12	0.042
1632.16	0.017
1641.21	0.011
1650.25	0.007
1659.3	0.005
1668.34	0.006
1677.39	0.007
1686.43	0.005
1695.48	0.015
1704.52	0.038
1713.57	0.1789
1722.61	0.298
1731.66	0.322
1740.7	0.457
1749.75	0.617
1758.79	0.682
1767.84	0.721
1776.88	0.75
1785.93	0.755
1794.97	0.775
1804.02	0.786
1813.07	0.799
1822.11	0.812
1831.16	0.817
1840.2	0.819
1849.25	0.818
1858.29	0.818
1867.34	0.815
1876.38	0.817
1885.43	0.822
1894.47	0.829
1903.52	0.838
1912.56	0.844
1921.61	0.843
1930.65	0.839
1939.7	0.84
1948.74	0.849
1957.79	0.852
1966.83	0.858
1975.88	0.862
1984.92	0.869
1993.97	0.865
2003.01	0.86
2012.06	0.865
2021.11	0.873
2030.15	0.872
2039.2	0.8645
2048.24	0.865
2057.29	0.868
2066.33	0.872
2075.38	0.8745
2084.42	0.878
2093.47	0.879
2102.51	0.88
2111.56	0.88
2120.6	0.88
2129.65	0.879
2138.69	0.877
2147.74	0.877
2156.78	0.875
2165.83	0.8745
2174.87	0.873
2183.92	0.872
2192.96	0.87
2202.01	0.8685
2211.06	0.859
2220.1	0.856
2229.15	0.857
2238.19	0.863
2247.24	0.869
2256.28	0.8725
2265.33	0.877
2274.37	0.877
2283.42	0.875
2292.46	0.8735
2301.51	0.874
2310.55	0.8785
2319.6	0.882
2328.64	0.884
2337.69	0.888
2346.73	0.889
2355.78	0.889
2364.82	0.887
2373.87	0.884
2382.91	0.8775
2391.96	0.868
2401	0.867
2410.05	0.868
2419.1	0.873
2428.14	0.88
2437.19	0.882
2446.23	0.882
2455.28	0.88
2464.32	0.877
2473.37	0.866
2482.41	0.863
2491.46	0.862
2500.5	0.86
2509.55	0.8575
2518.59	0.854
2527.64	0.853
2536.68	0.85
2545.73	0.8485
2554.77	0.839
2563.82	0.8285
2572.86	0.815
2581.91	0.8165
2590.95	0.827
2600	0.83
2609.05	0.823
2618.09	0.82
2627.14	0.817
2636.18	0.806
2645.23	0.803
2654.27	0.8
2663.32	0.799
2672.36	0.798
2681.41	0.795
2690.45	0.7855
2699.5	0.779
2708.54	0.774
2717.59	0.766
2726.63	0.7405
2735.68	0.73
2744.72	0.726
2753.77	0.725
2762.81	0.7175
2771.86	0.703
2780.9	0.6865
2789.95	0.662
2798.99	0.6256
2808.04	0.573
2817.09	0.5196
2826.13	0.448
2835.18	0.3861
2844.22	0.329
2853.27	0.2865
2862.31	0.2451
2871.36	0.18
2880.4	0.0971
2889.45	0.066
2898.49	0.1219
2907.54	0.121
2916.58	0.107
2925.63	0.0965
2934.67	0.082
2943.72	0.0435
2952.76	0.046
2961.81	0.0425
2970.85	0.01
2979.9	0.005
2988.94	0.012
2997.99	0.036
3007.04	0.081
3016.08	0.1085
3025.13	0.109
3034.17	0.1005
3043.22	0.088
3052.26	0.071
3061.31	0.06
3070.35	0.0515
3079.4	0.052
3088.44	0.0625
3097.49	0.087
3106.53	0.115
3115.58	0.14
3124.62	0.155
3133.67	0.166
3142.71	0.177
3151.76	0.164
3160.8	0.1445
3169.85	0.122
3178.89	0.1035
3187.94	0.086
3196.98	0.0695
3206.03	0.055
3215.08	0.045
3224.12	0.043
3233.17	0.0455
3242.21	0.057
3251.26	0.0695
3260.3	0.087
3269.35	0.1225
3278.39	0.1719
3287.44	0.2395
3296.48	0.3089
3305.53	0.3815
3314.57	0.428
3323.62	0.4684
3332.66	0.498
3341.71	0.5235
3350.75	0.551
3359.8	0.5655
3368.84	0.575
3377.89	0.584
3386.93	0.595
3395.98	0.5995
3405.03	0.602
3414.07	0.604
3423.12	0.606
3432.16	0.6095
3441.21	0.614
3450.25	0.6215
3459.3	0.629
3468.34	0.6355
3477.39	0.645
3486.43	0.658
3495.48	0.666
3504.52	0.683
3513.57	0.695
3522.61	0.7165
3531.66	0.729
3540.7	0.75
3549.75	0.768
3558.79	0.7825
3567.84	0.796
3576.88	0.809
3585.93	0.822
3594.97	0.833
3604.02	0.849
3613.07	0.856
3622.11	0.862
3631.16	0.8725
3640.2	0.878
3649.25	0.8845
3658.29	0.889
3667.34	0.8925
3676.38	0.895
3685.43	0.898
3694.47	0.898
3703.52	0.899
3712.56	0.901
3721.61	0.901
3730.65	0.901
3739.7	0.901
3748.74	0.899
3757.79	0.899
3766.83	0.898
3775.88	0.899
3784.92	0.898
3793.97	0.8945
3803.02	0.892
3812.06	0.888
3821.11	0.887
3830.15	0.885
3839.2	0.883
3848.24	0.882
3857.29	0.883
3866.33	0.883
3875.38	0.884
3884.42	0.8825
3893.47	0.88
3902.51	0.88
3911.56	0.878
3920.6	0.8795
3929.65	0.88
3938.69	0.88
3947.74	0.88
3956.78	0.88
3965.83	0.88
3974.87	0.879
3983.92	0.878
3992.96	0.8795
