Infrared Spectrum: ACETANILIDE, 2,6-DIISOPROPYL-
Formula: C14 H21 N O
CAS: 16637-13-1
State: SOLID (OIL MULL)
Melting point: 190 C
Class: COBLENTZ III
Instrument: BECKMAN IR-4 (HYBRID PRISM-GRATING)
Instrument parameters: NaCl PRISM
Sampling: TRANSMISSION
Resolution: 2
Origin: MONSANTO (J. FREEMAN)
1/CM	TRANSMITTANCE
4000	0.8662
3991	0.8671
3982	0.8682
3973	0.8692
3964	0.8703
3955	0.8713
3946	0.8723
3937	0.8734
3928	0.8743
3919	0.8752
3910	0.8762
3901	0.8771
3892	0.878
3883	0.8788
3874	0.8795
3865	0.8803
3856	0.881
3847	0.8816
3838	0.8821
3829	0.8827
3820	0.8833
3811	0.8835
3802	0.8831
3793	0.8827
3784	0.8823
3775	0.882
3766	0.8817
3757	0.8814
3748	0.8809
3739	0.8805
3730	0.8801
3721	0.8796
3712	0.8791
3703	0.8786
3694	0.8781
3685	0.8775
3676	0.8771
3667	0.8768
3658	0.8765
3649	0.8761
3640	0.8758
3631	0.8757
3622	0.8758
3613	0.8758
3604	0.8759
3595	0.876
3586	0.876
3577	0.876
3568	0.8754
3559	0.8748
3550	0.8742
3541	0.8731
3532	0.8718
3523	0.8705
3514	0.8688
3505	0.8668
3496	0.8648
3487	0.8625
3478	0.8598
3469	0.856
3460	0.8517
3451	0.847
3442	0.8402
3433	0.8292
3424	0.8158
3415	0.8011
3406	0.7765
3397	0.7535
3388	0.7228
3379	0.666
3370	0.5993
3361	0.532
3352	0.4644
3343	0.3964
3334	0.3282
3325	0.2596
3316	0.1904
3307	0.1258
3298	0.1237
3289	0.1249
3280	0.2629
3271	0.4876
3262	0.5726
3253	0.5936
3244	0.6177
3235	0.6434
3226	0.6692
3217	0.6951
3208	0.7212
3199	0.7475
3190	0.761
3181	0.7622
3172	0.7626
3163	0.7615
3154	0.7589
3145	0.7528
3136	0.7374
3127	0.7038
3118	0.6601
3109	0.6164
3100	0.5725
3091	0.5281
3082	0.4836
3073	0.4388
3064	0.3937
3055	0.3484
3046	0.3029
3037	0.2569
3028	0.2108
3019	0.1644
3010	0.1177
3001	0.0708
2992	0.0234
2983	0.0002
2974	0.0002
2965	0.0002
2956	0.0035
2947	0.0271
2938	0.0522
2929	0.0775
2920	0.0912
2911	0.0895
2902	0.0809
2893	0.0727
2884	0.0741
2875	0.4109
2866	0.6684
2857	0.7311
2848	0.7562
2839	0.7786
2830	0.8036
2821	0.8259
2812	0.8395
2803	0.8428
2794	0.8432
2785	0.8446
2776	0.8478
2767	0.8512
2758	0.8539
2749	0.8566
2740	0.8588
2731	0.8608
2722	0.863
2713	0.8654
2704	0.868
2695	0.8705
2686	0.8731
2677	0.8756
2668	0.8782
2659	0.8825
2650	0.8868
2641	0.8912
2632	0.8953
2623	0.8988
2614	0.9013
2605	0.9037
2596	0.9063
2587	0.9083
2578	0.9102
2569	0.9121
2560	0.914
2551	0.9155
2542	0.9168
2533	0.9183
2524	0.9198
2515	0.921
2506	0.9218
2497	0.9225
2488	0.9228
2479	0.9231
2470	0.9231
2461	0.9227
2452	0.9223
2443	0.922
2434	0.9217
2425	0.9215
2416	0.9212
2407	0.9212
2398	0.9218
2389	0.9225
2380	0.9234
2371	0.9249
2362	0.9264
2353	0.9281
2344	0.9298
2335	0.9311
2326	0.9318
2317	0.932
2308	0.9323
2299	0.9328
2290	0.9339
2281	0.9349
2272	0.9359
2263	0.9368
2254	0.9378
2245	0.9388
2236	0.9398
2227	0.9407
2218	0.9414
2209	0.9421
2200	0.9428
2191	0.9438
2182	0.9445
2173	0.9453
2164	0.9461
2155	0.9468
2146	0.9477
2137	0.9483
2128	0.9488
2119	0.9493
2110	0.9498
2101	0.9503
2092	0.9507
2083	0.9509
2074	0.9512
2065	0.9516
2056	0.9516
2047	0.9517
2038	0.9512
2029	0.9463
2020	0.9462
2011	0.9478
2002	0.9491
1993	0.9503
1984	0.9475
1975	0.94
1966	0.938
1957	0.9441
1948	0.9517
1939	0.952
1930	0.9511
1921	0.9494
1912	0.9473
1903	0.9421
1894	0.9417
1885	0.9486
1876	0.9547
1867	0.9543
1858	0.9524
1849	0.9498
1840	0.9457
1831	0.9396
1822	0.9377
1813	0.9457
1804	0.947
1795	0.9505
1786	0.9527
1777	0.9536
1768	0.9528
1759	0.949
1750	0.9418
1741	0.9309
1732	0.918
1723	0.8946
1714	0.835
1705	0.8011
1696	0.6606
1687	0.4897
1678	0.3169
1669	0.1423
1660	0.0622
1651	0.1231
1642	0.5738
1633	0.6942
1624	0.7541
1615	0.7817
1606	0.6764
1597	0.7338
1588	0.8061
1579	0.7878
1570	0.6724
1561	0.5973
1552	0.4252
1543	0.244
1534	0.1131
1525	0.1601
1516	0.4089
1507	0.5062
1498	0.5825
1489	0.4833
1480	0.2352
1471	0.17
1462	0.2481
1453	0.2826
1444	0.4727
1435	0.6151
1426	0.6749
1417	0.6944
1408	0.6848
1399	0.5996
1390	0.3297
1381	0.3177
1372	0.4089
1363	0.5962
1354	0.6293
1345	0.5793
1336	0.668
1327	0.7007
1318	0.6364
1309	0.636
1300	0.3764
1291	0.2928
1282	0.563
1273	0.6895
1264	0.6252
1255	0.7315
1246	0.8381
1237	0.8668
1228	0.8867
1219	0.9001
1210	0.9047
1201	0.8907
1192	0.8949
1183	0.8546
1174	0.9088
1165	0.8948
1156	0.9086
1147	0.9195
1138	0.9282
1129	0.9306
1120	0.9221
1111	0.8566
1102	0.8771
1093	0.9245
1084	0.9291
1075	0.9206
1066	0.8342
1057	0.8193
1048	0.8666
1039	0.8445
1030	0.8989
1021	0.8431
1012	0.6854
1003	0.8671
994	0.9028
985	0.8961
976	0.8418
967	0.815
958	0.8827
949	0.9086
940	0.8867
931	0.8259
922	0.9008
913	0.933
904	0.9424
895	0.9444
886	0.9411
877	0.9544
868	0.9592
859	0.9331
850	0.9449
841	0.953
832	0.9563
823	0.954
814	0.944
805	0.8055
796	0.3486
787	0.8886
778	0.9332
769	0.9306
760	0.9053
751	0.4351
742	0.8186
733	0.8051
724	0.7371
715	0.6749
706	0.6025
697	0.738
688	0.7749
679	0.836
670	0.9023
661	0.9306
652	0.935
643	0.93
634	0.9153
625	0.8873
