Infrared Spectrum: 1,2-Bis(diphenylphosphino)-ethane
Formula: C 26 H 24 P 2
CAS: 1663-45-2
State: gas
Instrument: HP-GC/MS/IRD
Origin: NIST Mass Spectrometry Data Center
1/CM	ABSORBANCE
550	0.0005951
562	0.0005665
574	0.0005104
586	0.0005313
598	0.0006303
610	0.0008811
622	0.0008459
634	0.0010989
646	0.0014564
658	0.0023177
670	0.0033572
682	0.0045243
694	0.0106612
706	0.007216
718	0.0044286
730	0.0054989
742	0.0063118
754	0.0027137
766	0.0015642
778	0.001199
790	0.0011077
802	0.0010912
814	0.000902
826	0.0008613
838	0.0009526
850	0.0009658
862	0.0011682
874	0.0013244
886	0.0012551
898	0.0011011
910	0.0011693
922	0.0011132
934	0.0010285
946	0.0009955
958	0.0010769
970	0.0011484
982	0.0011209
994	0.0014872
1006	0.0015246
1018	0.0015983
1030	0.0020482
1042	0.0012892
1054	0.0012859
1066	0.0016588
1078	0.0019239
1090	0.002695
1102	0.0022055
1114	0.0012518
1126	0.0008635
1138	0.0007502
1150	0.0006094
1162	0.0009108
1174	0.000726
1186	0.0006853
1198	0.0002882
1210	0
1222	0.0001287
1234	0.0002684
1246	0.0004213
1258	0.0006512
1270	0.0006666
1282	0.000594
1294	0.0007667
1306	0.0009097
1318	0.00088
1330	0.0008481
1342	0.0006149
1354	0.0005742
1366	0.0006765
1378	0.0007304
1390	0.000759
1402	0.0009284
1414	0.0015455
1426	0.0026763
1438	0.0030074
1450	0.0014718
1462	0.001309
1474	0.0020636
1486	0.0025597
1498	0.0011473
1510	0.0008206
1522	0.0007986
1534	0.000847
1546	0.0007777
1558	0.0008151
1570	0.0010824
1582	0.0016544
1594	0.0011517
1606	0.0007304
1618	0.0006061
1630	0.0005742
1642	0.0006886
1654	0.0006963
1666	0.0005489
1678	0.0004697
1690	0.0004114
1702	0.0003916
1714	0.0003839
1726	0.0003784
1738	0.0004257
1750	0.0004774
1762	0.0004598
1774	0.0005115
1786	0.0004851
1798	0.000803
1810	0.0006875
1822	0.0004884
1834	0.0003872
1846	0.0003641
1858	0.0004675
1870	0.0006039
1882	0.0007282
1894	0.0005478
1906	0.000396
1918	0.0003839
1930	0.0004741
1942	0.000704
1954	0.0007425
1966	0.0004774
1978	0.0002772
1990	0.0002332
2002	0.0001815
2014	0.000176
2026	0.0001848
2038	0.0001606
2050	0.0001705
2062	0.0001397
2074	0.0001309
2086	0.0001672
2098	0.0001276
2110	0.0001221
2122	0.0001331
2134	9.79e-05
2146	8.14e-05
2158	8.36e-05
2170	8.14e-05
2182	4.84e-05
2194	6.05e-05
2206	5.94e-05
2218	6.71e-05
2230	4.4e-05
2242	1.65e-05
2254	5.06e-05
2266	6.27e-05
2278	3.85e-05
2290	2.97e-05
2302	5.83e-05
2314	0.000121
2326	8.8e-05
2338	9.46e-05
2350	5.17e-05
2362	5.28e-05
2374	3.41e-05
2386	5.5e-05
2398	0.0001045
2410	8.25e-05
2422	9.79e-05
2434	7.7e-05
2446	0.0001023
2458	4.07e-05
2470	2.64e-05
2482	4.62e-05
2494	7.7e-05
2506	5.5e-05
2518	7.37e-05
2530	6.93e-05
2542	9.13e-05
2554	0.0001056
2566	8.03e-05
2578	0.000154
2590	0.0001375
2602	0.0001452
2614	0.00011
2626	0.0001023
2638	0.0001045
2650	7.26e-05
2662	0.0001221
2674	0.0001936
2686	0.0001727
2698	0.0001089
2710	0.0001188
2722	0.0001265
2734	0.0001276
2746	7.81e-05
2758	0.0001276
2770	0.0001474
2782	0.0001353
2794	0.0002178
2806	0.0002684
2818	0.0002695
2830	0.0003212
2842	0.0002013
2854	0.0002112
2866	0.0003135
2878	0.0002827
2890	0.0004367
2902	0.000913
2914	0.0009933
2926	0.0008019
2938	0.0007128
2950	0.0008756
2962	0.0004554
2974	0.0003949
2986	0.0005412
2998	0.0010923
3010	0.0016918
3022	0.0021439
3034	0.0017446
3046	0.0023111
3058	0.0069212
3070	0.0070719
3082	0.0048466
3094	0.0021659
3106	0.0008151
3118	0.0005379
3130	0.0005632
3142	0.0005797
3154	0.0003773
3166	0.0002882
3178	0.0002211
3190	0.0001848
3202	0.0001881
3214	0.000231
3226	0.0001529
3238	0.0002112
3250	0.0001727
3262	0.0001716
3274	7.7e-05
3286	0.000176
3298	0.0001738
3310	0.0001595
3322	0.0001969
3334	0.0001518
3346	0.0001298
3358	0.0001375
3370	0.0001958
3382	0.0002156
3394	0.0001738
3406	0.0002079
3418	0.0001045
3430	0.0001903
3442	0.0001496
3454	0.0001133
3466	0.0001584
3478	0.0001221
3490	8.36e-05
3502	0.0001045
3514	7.15e-05
3526	0.0001397
3538	9.9e-05
3550	0.0002068
3562	0.0002321
3574	0.0001815
3586	0.0001727
3598	0.0002387
3610	0.0001232
3622	0.000154
3634	0.000187
3646	0.0001166
3658	0.0002233
3670	0.0002101
3682	0.0001815
3694	0.0002519
3706	0.0001672
3718	0.0001463
3730	0.0001639
3742	0.0001672
3754	0.000308
3766	0.0002255
3778	0.0001848
3790	0.0002167
3802	0.0002101
3814	0.0001727
3826	0.0001133
3838	0.0001441
