Infrared Spectrum: t-Butyl acrylate
Formula: C 7 H 12 O 2
CAS: 1663-39-4
State: gas
Instrument: HP-GC/MS/IRD
Origin: NIST Mass Spectrometry Data Center
1/CM	ABSORBANCE
550	0.0003834
562	0.0001775
574	0.0001633
586	0.000213
598	0.0001207
610	0.0001562
622	9.23e-05
634	0.0001207
646	0.0001917
658	0.000284
670	0.0005183
682	0.0008378
694	0.0006603
706	0.000213
718	0.0002556
730	0.0003976
742	0.0010082
754	0.0015407
766	0.0011573
778	0.0010224
790	0.0022862
802	0.0044517
814	0.0054173
826	0.0048706
838	0.0055948
850	0.0054528
862	0.0027832
874	0.0016472
886	0.0019099
898	0.0028542
910	0.0034648
922	0.0027903
934	0.0023217
946	0.0037843
958	0.0067663
970	0.0071852
982	0.0070858
994	0.0051191
1006	0.0029039
1018	0.0028968
1030	0.0056871
1042	0.0118996
1054	0.0129362
1066	0.0068515
1078	0.0037417
1090	0.00284
1102	0.003195
1114	0.0046292
1126	0.0085484
1138	0.0187511
1150	0.0417054
1162	0.0679257
1174	0.0637864
1186	0.0366644
1198	0.0237921
1210	0.027974
1222	0.0236856
1234	0.0136178
1246	0.0151372
1258	0.0155916
1270	0.0209379
1282	0.0266037
1294	0.024637
1306	0.0150307
1318	0.0045369
1330	0.0027974
1342	0.0027477
1354	0.0051546
1366	0.0112109
1378	0.0128936
1390	0.0136036
1402	0.0217899
1414	0.0152934
1426	0.0046008
1438	0.003337
1450	0.0038553
1462	0.004331
1474	0.004331
1486	0.0037204
1498	0.0023785
1510	0.0013348
1522	0.0009656
1534	0.0008165
1546	0.0007242
1558	0.0006603
1570	0.0007029
1582	0.0008875
1594	0.0012993
1606	0.0021868
1618	0.0034719
1630	0.0043807
1642	0.003692
1654	0.0021229
1666	0.0019738
1678	0.0023714
1690	0.0030033
1702	0.0044162
1714	0.0112606
1726	0.0337392
1738	0.0487273
1750	0.0294366
1762	0.0074195
1774	0.002485
1786	0.0016756
1798	0.0013916
1810	0.0011715
1822	0.0009727
1834	0.000781
1846	0.0006248
1858	0.0005396
1870	0.0005112
1882	0.0005538
1894	0.0005964
1906	0.0007313
1918	0.0010366
1930	0.0009514
1942	0.0005467
1954	0.0004047
1966	0.000284
1978	0.0002343
1990	0.000284
2002	0.000284
2014	0.0002911
2026	0.0002272
2038	0.0002343
2050	0.0002769
2062	0.0002769
2074	0.0002485
2086	0.0001846
2098	0.0001775
2110	0.0002272
2122	0.0002556
2134	0.0002769
2146	0.0001988
2158	0.0001846
2170	9.94e-05
2182	4.26e-05
2194	9.94e-05
2206	9.94e-05
2218	7.81e-05
2230	1.42e-05
2242	1.42e-05
2254	4.26e-05
2266	2.84e-05
2278	8.52e-05
2290	0.0001278
2302	0.0001704
2314	0.000213
2326	0.000213
2338	0.0001278
2350	9.94e-05
2362	0.0001278
2374	0.0001491
2386	0.0001562
2398	0.0001633
2410	0.0001633
2422	0.0001349
2434	0.0001278
2446	7.81e-05
2458	8.52e-05
2470	0.0001136
2482	5.68e-05
2494	8.52e-05
2506	4.97e-05
2518	5.68e-05
2530	0.0001207
2542	0.0001704
2554	0.0001065
2566	0.0001278
2578	0.0001207
2590	5.68e-05
2602	0.0001491
2614	0.0001704
2626	0.0001846
2638	0.0002343
2650	0.0001917
2662	0.0001846
2674	0.0001704
2686	0.0002059
2698	0.0001988
2710	0.0001917
2722	0.000284
2734	0.0002982
2746	0.000284
2758	0.0002627
2770	0.0002627
2782	0.0003053
2794	0.0003124
2806	0.0003905
2818	0.0005183
2830	0.0006603
2842	0.0007171
2854	0.0010721
2866	0.0018105
2878	0.0027264
2890	0.0035784
2902	0.0043665
2914	0.0051901
2926	0.0068515
2938	0.0090738
2950	0.0088892
2962	0.0093081
2974	0.016188
2986	0.0215201
2998	0.0130711
3010	0.0062054
3022	0.0038908
3034	0.002556
3046	0.0020448
3058	0.0011715
3070	0.001065
3082	0.0010437
3094	0.0011644
3106	0.0018744
3118	0.0014342
3130	0.0005254
3142	0.000497
3154	0.0003763
3166	0.0003976
3178	0.0004118
3190	0.0004331
3202	0.0004189
3214	0.0003976
3226	0.0003479
3238	0.000355
3250	0.0002414
3262	0.0002627
3274	0.0001988
3286	0.0001136
3298	0.0001704
3310	0.0001917
3322	0.0001562
3334	0.0002343
3346	0.0002627
3358	0.0001491
3370	0.0002059
3382	0.000213
3394	0.0001917
3406	0.0002343
3418	0.0002201
3430	0.0003053
3442	0.0004615
3454	0.0007313
3466	0.000639
3478	0.0004189
3490	0.0002911
3502	0.000213
3514	0.0001775
3526	0.0001136
3538	4.97e-05
3550	0.0001917
3562	0.0001846
3574	0.0001988
3586	0.000142
3598	0.0001349
3610	0.0001136
3622	0.0001846
3634	0.000142
3646	6.39e-05
3658	8.52e-05
3670	7.81e-05
3682	0.0001136
3694	7.1e-05
3706	4.97e-05
3718	9.94e-05
3730	0.0001065
3742	6.39e-05
3754	6.39e-05
3766	6.39e-05
3778	7.81e-05
3790	5.68e-05
3802	1.42e-05
3814	0.0001136
3826	5.68e-05
3838	6.39e-05
