Infrared Spectrum: M-NITRO CINNAMIC ACID, METHYL ESTER
Formula: C10 H9 N O4
CAS: 1664-59-1
State: SOLID (MINERAL OIL MULL)
Melting point: 123-124 C
Class: COBLENTZ
Instrument: Not specified, most likely a prism, grating, or hybrid spectrometer.
Sampling: TRANSMISSION
Resolution: 4
Origin: WYANDOTTE CHEMICALS CORP., WYANDOTTE, MICHIGAN, USA
MICROMETERS	TRANSMITTANCE
2.013	0.568
2.05277	0.574
2.09255	0.579
2.13232	0.593
2.1721	0.588
2.21187	0.583
2.25165	0.583
2.29142	0.588
2.33119	0.599
2.37097	0.602
2.41074	0.617
2.45052	0.617
2.49029	0.621
2.53007	0.621
2.56984	0.646
2.60962	0.634
2.64939	0.661
2.68916	0.664
2.72894	0.661
2.76871	0.671
2.80849	0.674
2.84826	0.669
2.88804	0.671
2.92781	0.671
2.96758	0.666
3.00736	0.667
3.04713	0.669
3.08691	0.676
3.12668	0.677
3.16646	0.669
3.20623	0.651
3.24601	0.551
3.28578	0.604
3.32555	0.508
3.36533	0.141
3.4051	0.056
3.44488	0.096
3.48465	0.139
3.52443	0.194
3.5642	0.563
3.60397	0.651
3.64375	0.674
3.68352	0.676
3.7233	0.679
3.76307	0.679
3.80285	0.684
3.84262	0.697
3.88239	0.71
3.92217	0.722
3.96194	0.735
4.00172	0.744
4.04149	0.747
4.08127	0.75
4.12104	0.759
4.16082	0.752
4.20059	0.759
4.24036	0.76
4.28014	0.714
4.31991	0.729
4.35969	0.754
4.39946	0.808
4.43924	0.805
4.47901	0.807
4.51878	0.808
4.55856	0.808
4.59833	0.818
4.63811	0.818
4.67788	0.822
4.71766	0.837
4.75743	0.835
4.79721	0.84
4.83698	0.847
4.87675	0.857
4.91653	0.865
4.9563	0.868
4.99608	0.875
5.03585	0.862
5.07563	0.847
5.1154	0.877
5.15517	0.898
5.19495	0.888
5.23472	0.877
5.2745	0.9
5.31427	0.905
5.35405	0.898
5.39382	0.905
5.43359	0.933
5.47337	0.908
5.51314	0.923
5.55292	0.936
5.59269	0.908
5.63247	0.958
5.67224	0.941
5.71202	0.898
5.75179	0.855
5.79156	0.588
5.83134	0.189
5.87111	0.164
5.91089	0.433
5.95066	0.519
5.99044	0.589
6.03021	0.659
6.06998	0.38
6.10976	0.348
6.14953	0.518
6.18931	0.516
6.22908	0.617
6.26886	0.646
6.30863	0.662
6.34841	0.696
6.38818	0.712
6.42795	0.684
6.46773	0.531
6.5075	0.204
6.54728	0.126
6.58705	0.328
6.62683	0.508
6.6666	0.558
6.70637	0.524
6.74615	0.348
6.78592	0.287
6.8257	0.237
6.86547	0.275
6.90525	0.27
6.94502	0.269
6.98479	0.425
7.02457	0.612
7.06434	0.666
7.10412	0.691
7.14389	0.712
7.18367	0.72
7.22344	0.546
7.26322	0.406
7.30299	0.458
7.34276	0.23
7.38254	0.061
7.42231	0.187
7.46209	0.205
7.50186	0.247
7.54164	0.171
7.58141	0.207
7.62118	0.176
7.66096	0.353
7.70073	0.214
7.74051	0.24
7.78028	0.29
7.82006	0.43
7.85983	0.49
7.89961	0.541
7.93938	0.564
7.97915	0.604
8.01893	0.604
8.0587	0.563
8.09848	0.576
8.13825	0.621
8.17803	0.594
8.2178	0.436
8.25757	0.191
8.29735	0.122
8.33712	0.205
8.3769	0.166
8.41667	0.31
8.45645	0.353
8.49622	0.313
8.53599	0.186
8.57577	0.237
8.61554	0.327
8.65532	0.377
8.69509	0.418
8.73487	0.458
8.77464	0.481
8.81442	0.516
8.85419	0.526
8.89396	0.546
8.93374	0.553
8.97351	0.568
9.01329	0.524
9.05306	0.393
9.09284	0.32
9.13261	0.36
9.17238	0.448
9.21216	0.446
9.25193	0.387
9.29171	0.441
9.33148	0.504
9.37126	0.536
9.41103	0.551
9.45081	0.571
9.49058	0.579
9.53035	0.588
9.57013	0.591
9.6099	0.594
9.64968	0.598
9.68945	0.599
9.72923	0.601
9.769	0.606
9.80877	0.611
9.84855	0.581
9.88832	0.481
9.9281	0.435
9.96787	0.48
10.0076	0.455
10.0474	0.408
10.0872	0.471
10.127	0.362
10.1667	0.342
10.2065	0.509
10.2463	0.583
10.2861	0.604
10.3258	0.616
10.3656	0.626
10.4054	0.632
10.4452	0.634
10.4849	0.637
10.5247	0.636
10.5645	0.631
10.6043	0.574
10.644	0.602
10.6838	0.599
10.7236	0.534
10.7634	0.548
10.8031	0.604
10.8429	0.627
10.8827	0.639
10.9225	0.641
10.9622	0.642
11.002	0.543
11.0418	0.441
11.0816	0.543
11.1213	0.626
11.1611	0.654
11.2009	0.661
11.2407	0.664
11.2804	0.667
11.3202	0.669
11.36	0.674
11.3997	0.671
11.4395	0.667
11.4793	0.644
11.5191	0.574
11.5588	0.443
11.5986	0.556
11.6384	0.644
11.6782	0.676
11.7179	0.689
11.7577	0.691
11.7975	0.692
11.8373	0.697
11.877	0.704
11.9168	0.707
11.9566	0.715
11.9964	0.719
12.0361	0.719
12.0759	0.715
12.1157	0.7
12.1555	0.629
12.1952	0.501
12.235	0.441
12.2748	0.378
12.3146	0.496
12.3543	0.612
12.3941	0.657
12.4339	0.677
12.4737	0.697
12.5134	0.705
12.5532	0.714
12.593	0.717
12.6328	0.719
12.6725	0.724
12.7123	0.722
12.7521	0.727
12.7919	0.727
12.8316	0.724
12.8714	0.72
12.9112	0.72
12.9509	0.715
12.9907	0.717
13.0305	0.717
13.0703	0.712
13.11	0.709
13.1498	0.704
13.1896	0.694
13.2294	0.687
13.2691	0.661
13.3089	0.596
13.3487	0.45
13.3885	0.382
13.4282	0.516
13.468	0.576
13.5078	0.543
13.5476	0.436
13.5873	0.37
13.6271	0.43
13.6669	0.533
13.7067	0.584
13.7464	0.591
13.7862	0.568
13.826	0.513
13.8658	0.498
13.9055	0.554
13.9453	0.606
13.9851	0.651
14.0249	0.671
14.0646	0.699
14.1044	0.705
14.1442	0.72
14.184	0.73
14.2237	0.737
14.2635	0.747
14.3033	0.75
14.3431	0.75
14.3828	0.754
14.4226	0.755
14.4624	0.752
14.5021	0.749
14.5419	0.747
14.5817	0.747
14.6215	0.742
14.6612	0.747
14.701	0.747
14.7408	0.739
14.7806	0.729
14.8203	0.724
14.8601	0.647
14.8999	0.568
14.9397	0.519
14.9794	0.534
15.0192	0.558
15.059	0.549
15.0988	0.536
15.1385	0.539
15.1783	0.531
15.2181	0.534
15.2579	0.553
15.2976	0.586
15.3374	0.599
15.3772	0.609
15.417	0.612
15.4567	0.606
15.4965	0.602
15.5363	0.598
15.5761	0.594
15.6158	0.593
15.6556	0.586
15.6954	0.579
15.7352	0.573
15.7749	0.563
15.8147	0.549
15.8545	0.546
15.8943	0.538
15.934	0.528
15.9738	0.514
