Infrared Spectrum: 4-Chlorophenylselenol
Formula: C 6 H 5 Cl Se
CAS: 16645-10-6
State: gas
Origin: EPA-IR VAPOR PHASE LIBRARY
1/CM	ABSORBANCE
549.8	0.0025543
559.445	0.00319
569.09	0.001278
578.734	0.00048
588.379	0.00269
598.024	0.00144
607.669	0.00173048
617.313	0.001156
626.958	0.0021209
636.603	0.0019958
646.248	0.001324
655.893	0.001481
665.537	0.001568
675.182	0.00081
684.827	0.001347
694.472	0.0024109
704.116	0.000999
713.761	0.0016013
723.406	0.0019846
733.051	0.00162
742.695	0.001814
752.34	0.0021006
761.985	0.0024318
771.63	0.0025534
781.275	0.0024391
790.919	0.00327
800.564	0.00665
810.209	0.00968
819.854	0.01033
829.498	0.00715
839.143	0.00294
848.788	0.0016602
858.433	0.0020563
868.078	0.0022068
877.722	0.00155
887.367	0.001352
897.012	0.001194
906.657	0.001943
916.301	0.00168514
925.946	0.0019935
935.591	0.001304
945.236	0.00123
954.88	0.0018112
964.525	0.001362
974.17	0.001426
983.815	0.0019622
993.46	0.00277
1003.1	0.0121
1012.75	0.01955
1022.39	0.00343
1032.04	0.002309
1041.68	0.001328
1051.33	0.0026013
1060.97	0.007
1070.62	0.01377
1080.26	0.01004
1089.91	0.01765
1099.55	0.01902
1109.2	0.00453
1118.84	0.0018971
1128.49	0.001449
1138.13	0.001536
1147.78	0.0024569
1157.42	0.0026777
1167.07	0.000749
1176.71	0.0019132
1186.36	0.0019852
1196	0.00291
1205.64	0.00299
1215.29	0.00287
1224.93	0.00363
1234.58	0.00306
1244.22	0.0022987
1253.87	0.0022512
1263.51	0.00291
1273.16	0.0024139
1282.8	0.0020962
1292.45	0.0026157
1302.09	0.0022543
1311.74	0.002131
1321.38	0.0019126
1331.03	0.0020647
1340.67	0.0021615
1350.32	0.0021669
1359.96	0.0018941
1369.61	0.0023885
1379.25	0.00275
1388.9	0.00304
1398.54	0.0031
1408.18	0.00368
1417.83	0.00293
1427.47	0.0020236
1437.12	0.0021739
1446.76	0.0024847
1456.41	0.00414
1466.05	0.0172
1475.7	0.02604
1485.34	0.00708
1494.99	0.00286
1504.63	0.0021239
1514.28	0.0018469
1523.92	0.001488
1533.57	0.001472
1543.21	0.0013
1552.86	0.0018301
1562.5	0.002096
1572.15	0.001946
1581.79	0.0019794
1591.44	0.0019546
1601.08	0.0018567
1610.73	0.0019358
1620.37	0.0024216
1630.01	0.0024853
1639.66	0.0022277
1649.3	0.00171087
1658.95	0.00174022
1668.59	0.00153
1678.24	0.0016153
1687.88	0.0016564
1697.53	0.00170326
1707.17	0.0017964
1716.82	0.00177799
1726.46	0.0020392
1736.11	0.00173802
1745.75	0.001957
1755.4	0.0021522
1765.04	0.0021661
1774.69	0.00173261
1784.33	0.0017927
1793.98	0.001648
1803.62	0.00171944
1813.27	0.0018239
1822.91	0.00176644
1832.55	0.0020179
1842.2	0.001547
1851.84	0.00174128
1861.49	0.0019811
1871.13	0.0021909
1880.78	0.0022144
1890.42	0.0023468
1900.07	0.0021097
1909.71	0.0017839
1919.36	0.00167187
1929	0.0016221
1938.65	0.00168404
1948.29	0.00170409
1957.94	0.00172676
1967.58	0.0017522
1977.23	0.0019046
1986.87	0.0015813
1996.52	0.0018958
2006.16	0.001646
2015.81	0.001515
2025.45	0.001533
2035.1	0.00170612
2044.74	0.001539
2054.38	0.0016397
2064.03	0.00167142
2073.67	0.0015
2083.32	0.0016015
2092.96	0.0017411
2102.61	0.0016713
2112.25	0.00167963
2121.9	0.001356
2131.54	0.00176996
2141.19	0.00175469
2150.83	0.001491
2160.48	0.0016038
2170.12	0.00169739
2179.77	0.001576
2189.41	0.0017828
2199.06	0.001542
2208.7	0.0016483
2218.35	0.001526
2227.99	0.0016627
2237.64	0.00171672
2247.28	0.001543
2256.92	0.0016
2266.57	0.0019297
2276.21	0.0018264
2285.86	0.001544
2295.5	0.00169263
2305.15	0.001545
2314.79	0.00177074
2324.44	0.0015802
2334.08	0.0017835
2343.73	0.00175618
2353.37	0.00171948
2363.02	0.00167746
2372.66	0.00168187
2382.31	0.001647
2391.95	0.001606
2401.6	0.0018541
2411.24	0.0017948
2420.89	0.0018114
2430.53	0.0018274
2440.18	0.001548
2449.82	0.0016055
2459.47	0.00171586
2469.11	0.00173681
2478.75	0.0018222
2488.4	0.00168859
2498.04	0.0016491
2507.69	0.001498
2517.33	0.001565
2526.98	0.001485
2536.62	0.001551
2546.27	0.0016592
2555.91	0.001522
2565.56	0.00174578
2575.2	0.0016298
2584.85	0.001384
2594.49	0.0020307
2604.14	0.00173213
2613.78	0.001579
2623.43	0.00167947
2633.07	0.001536
2642.72	0.00174086
2652.36	0.0016506
2662.01	0.00172919
2671.65	0.00175286
2681.29	0.001527
2690.94	0.001577
2700.58	0.00170252
2710.23	0.0018116
2719.87	0.0019748
2729.52	0.001504
2739.16	0.00169765
2748.81	0.001466
2758.45	0.0020682
2768.1	0.0016575
2777.74	0.001517
2787.39	0.00167372
2797.03	0.00173531
2806.68	0.0021459
2816.32	0.0022969
2825.97	0.00168112
2835.61	0.001523
2845.26	0.0018198
2854.9	0.0018518
2864.55	0.001202
2874.19	0.001531
2883.84	0.001464
2893.48	0.0015859
2903.12	0.001563
2912.77	0.001569
2922.41	0.001531
2932.06	0.001364
2941.7	0.0019298
2951.35	0.001413
2960.99	0.00174397
2970.64	0.0018884
2980.28	0.001215
2989.93	0.00176857
2999.57	0.0015983
3009.22	0.001539
3018.86	0.00169453
3028.51	0.0016089
3038.15	0.001478
3047.8	0.001446
3057.44	0.0016136
3067.09	0.0016474
3076.73	0.0024364
3086.38	0.0019985
3096.02	0.0022509
3105.67	0.00176658
3115.31	0.001115
3124.95	0.00168036
3134.6	0.001314
3144.24	0.001542
3153.89	0.0016607
3163.53	0.000991
3173.18	0.0018594
3182.82	0.0016041
3192.47	0.001511
3202.11	0.0015832
3211.76	0.00162
3221.4	0.0018583
3231.05	0.001569
3240.69	0.001574
3250.34	0.0016295
3259.98	0.0019829
3269.63	0.0019625
3279.27	0.001542
3288.92	0.001292
3298.56	0.00127
3308.21	0.001518
3317.85	0.001012
3327.49	0.001496
3337.14	0.0018289
3346.78	0.0018012
3356.43	0.0016399
3366.07	0.00171637
3375.72	0.0016528
3385.36	0.001186
3395.01	0.001345
3404.65	0.001361
3414.3	0.00169865
3423.94	0.001259
3433.59	0.001414
3443.23	0.001141
3452.88	0.00174823
3462.52	0.001494
3472.17	0.001079
3481.81	0.001224
3491.46	0.00175074
3501.1	0.001024
3510.75	0.000853
3520.39	0.0018132
3530.04	0.001456
3539.68	0.001516
3549.32	0.001345
3558.97	0.001566
3568.61	0.0019185
3578.26	0.0016163
3587.9	0.001127
3597.55	0.001416
3607.19	0.0016033
3616.84	0.001139
3626.48	0.001368
3636.13	0.001598
3645.77	0.001242
3655.42	0.001459
3665.06	0.001566
3674.71	0.001566
3684.35	0.00117
3694	0.0016524
3703.64	0.001212
3713.29	0.00170092
3722.93	0.0009
3732.58	0.00146
3742.22	0.001557
3751.86	0.001008
3761.51	0.00177183
3771.15	0.000915
3780.8	0.0019214
3790.44	0.001005
3800.09	0.0018621
3809.73	0.0016269
3819.38	0.0013
3829.02	0.001438
3838.67	0.001209
3848.31	0.001496
3857.96	0.001425
3867.6	0.001519
3877.25	0.000976
3886.89	0.0016543
3896.54	0.001478
3906.18	0.00138
3915.83	0.001471
3925.47	0.0016534
3935.12	0.001259
3944.76	0.00063
3954.41	0.001114
3964.05	0.000973
3973.69	0.001112
3983.34	0.001183
3992.98	0.001629
