Infrared Spectrum: N-Phenylethylenediamine
Formula: C 8 H 12 N 2
CAS: 1664-40-0
State: gas
Origin: EPA-IR VAPOR PHASE LIBRARY
1/CM	ABSORBANCE
549.8	0.01189
559.445	0.01249
569.09	0.01263
578.734	0.01223
588.379	0.01151
598.024	0.01097
607.669	0.01143
617.313	0.01244
626.958	0.01336
636.603	0.01403
646.248	0.0155
655.893	0.01732
665.537	0.02074
675.182	0.02884
684.827	0.04055
694.472	0.04279
704.116	0.035
713.761	0.02974
723.406	0.03425
733.051	0.05069
742.695	0.07202
752.34	0.07275
761.985	0.05658
771.63	0.04063
781.275	0.03127
790.919	0.02528
800.564	0.02094
810.209	0.01782
819.854	0.01497
829.498	0.0128
839.143	0.01131
848.788	0.01114
858.433	0.01265
868.078	0.01444
877.722	0.01384
887.367	0.01182
897.012	0.01039
906.657	0.00973
916.301	0.00946
925.946	0.0085
935.591	0.00737
945.236	0.00672
954.88	0.00633
964.525	0.00618
974.17	0.00652
983.815	0.00799
993.46	0.01022
1003.1	0.00932
1012.75	0.00774
1022.39	0.00939
1032.04	0.01125
1041.68	0.01319
1051.33	0.01761
1060.97	0.02146
1070.62	0.02033
1080.26	0.01702
1089.91	0.01502
1099.55	0.01321
1109.2	0.01224
1118.84	0.01159
1128.49	0.01002
1138.13	0.00928
1147.78	0.01018
1157.42	0.01024
1167.07	0.0114
1176.71	0.01527
1186.36	0.01427
1196	0.00993
1205.64	0.00932
1215.29	0.01013
1224.93	0.01279
1234.58	0.021
1244.22	0.04024
1253.87	0.05518
1263.51	0.05069
1273.16	0.04002
1282.8	0.03253
1292.45	0.03505
1302.09	0.04376
1311.74	0.04903
1321.38	0.03888
1331.03	0.02204
1340.67	0.01459
1350.32	0.01394
1359.96	0.01433
1369.61	0.01256
1379.25	0.01098
1388.9	0.01033
1398.54	0.00953
1408.18	0.00996
1417.83	0.01415
1427.47	0.02169
1437.12	0.02042
1446.76	0.01427
1456.41	0.01891
1466.05	0.0274
1475.7	0.03242
1485.34	0.04619
1494.99	0.10153
1504.63	0.13532
1514.28	0.07845
1523.92	0.02827
1533.57	0.01709
1543.21	0.01441
1552.86	0.01449
1562.5	0.01509
1572.15	0.01869
1581.79	0.03346
1591.44	0.07454
1601.08	0.12066
1610.73	0.09776
1620.37	0.04666
1630.01	0.02442
1639.66	0.01508
1649.3	0.01064
1658.95	0.00826
1668.59	0.00715
1678.24	0.00615
1687.88	0.00528
1697.53	0.00459
1707.17	0.00402
1716.82	0.00377
1726.46	0.00357
1736.11	0.00378
1745.75	0.00426
1755.4	0.0045
1765.04	0.00396
1774.69	0.00339
1784.33	0.00312
1793.98	0.00316
1803.62	0.00335
1813.27	0.00355
1822.91	0.00379
1832.55	0.00366
1842.2	0.00315
1851.84	0.00275
1861.49	0.00263
1871.13	0.00266
1880.78	0.00275
1890.42	0.00326
1900.07	0.00406
1909.71	0.0044
1919.36	0.00444
1929	0.00366
1938.65	0.00235
1948.29	0.0015
1957.94	0.00103
1967.58	0.0007248
1977.23	0.00073
1986.87	0.0005273
1996.52	0.0005832
2006.16	0.00104
2015.81	0.00128
2025.45	0.00118
2035.1	0.0009415
2044.74	0.0007127
2054.38	0.0006499
2064.03	0.0007218
2073.67	0.0009371
2083.32	0.00105
2092.96	0.00118
2102.61	0.00123
2112.25	0.00126
2121.9	0.00128
2131.54	0.00128
2141.19	0.00126
2150.83	0.00124
2160.48	0.00118
2170.12	0.00126
2179.77	0.00127
2189.41	0.00119
2199.06	0.0011
2208.7	0.00103
2218.35	0.00105
2227.99	0.0009708
2237.64	0.00102
2247.28	0.00107
2256.92	0.00105
2266.57	0.00109
2276.21	0.00112
2285.86	0.00119
2295.5	0.00114
2305.15	0.00128
2314.79	0.00134
2324.44	0.00134
2334.08	0.00134
2343.73	0.00133
2353.37	0.00134
2363.02	0.00128
2372.66	0.00124
2382.31	0.00122
2391.95	0.00122
2401.6	0.00134
2411.24	0.00127
2420.89	0.00127
2430.53	0.00121
2440.18	0.00116
2449.82	0.0012
2459.47	0.00123
2469.11	0.00127
2478.75	0.00133
2488.4	0.0013
2498.04	0.00138
2507.69	0.00142
2517.33	0.00151
2526.98	0.00166
2536.62	0.00188
2546.27	0.00206
2555.91	0.00234
2565.56	0.00246
2575.2	0.00224
2584.85	0.00209
2594.49	0.00185
2604.14	0.00184
2613.78	0.00179
2623.43	0.00179
2633.07	0.00183
2642.72	0.00195
2652.36	0.0021
2662.01	0.00231
2671.65	0.00266
2681.29	0.00301
2690.94	0.00329
2700.58	0.00358
2710.23	0.00354
2719.87	0.00336
2729.52	0.00342
2739.16	0.00356
2748.81	0.00387
2758.45	0.00419
2768.1	0.00444
2777.74	0.00486
2787.39	0.00566
2797.03	0.00689
2806.68	0.00908
2816.32	0.0122
2825.97	0.0159
2835.61	0.01937
2845.26	0.02311
2854.9	0.02778
2864.55	0.03259
2874.19	0.03381
2883.84	0.0301
2893.48	0.02671
2903.12	0.0268
2912.77	0.03027
2922.41	0.03536
2932.06	0.03895
2941.7	0.03875
2951.35	0.0333
2960.99	0.02375
2970.64	0.01492
2980.28	0.00955
2989.93	0.0073
2999.57	0.00818
3009.22	0.01255
3018.86	0.01918
3028.51	0.02174
3038.15	0.02026
3047.8	0.02445
3057.44	0.03221
3067.09	0.02885
3076.73	0.02116
3086.38	0.0189
3096.02	0.01452
3105.67	0.00988
3115.31	0.00637
3124.95	0.00347
3134.6	0.00187
3144.24	0.00138
3153.89	0.00108
3163.53	0.00099
3173.18	0.000991
3182.82	0.0009759
3192.47	0.00101
3202.11	0.0009256
3211.76	0.000976
3221.4	0.0009464
3231.05	0.0007296
3240.69	0.0007965
3250.34	0.0006438
3259.98	0.0006604
3269.63	0.0007438
3279.27	0.0007225
3288.92	0.0007125
3298.56	0.0007414
3308.21	0.0007307
3317.85	0.0007895
3327.49	0.00118
3337.14	0.00149
3346.78	0.00192
3356.43	0.00209
3366.07	0.00201
3375.72	0.00228
3385.36	0.00334
3395.01	0.00589
3404.65	0.00874
3414.3	0.00901
3423.94	0.00737
3433.59	0.00589
3443.23	0.00516
3452.88	0.00464
3462.52	0.00374
3472.17	0.00271
3481.81	0.00208
3491.46	0.00152
3501.1	0.00123
3510.75	0.000831
3520.39	0.0008328
3530.04	0.0007983
3539.68	0.000602
3549.32	0.0006817
3558.97	0.0006203
3568.61	0.0005286
3578.26	0.0004197
3587.9	0.0006871
3597.55	0.0007721
3607.19	0.0007404
3616.84	0.0008434
3626.48	0.0009885
3636.13	0.0009687
3645.77	0.0009503
3655.42	0.0009397
3665.06	0.0009302
3674.71	0.000942
3684.35	0.0009292
3694	0.0007116
3703.64	0.0007411
3713.29	0.0007282
3722.93	0.0007697
3732.58	0.0007886
3742.22	0.000622
3751.86	0.0008086
3761.51	0.0007071
3771.15	0.0006123
3780.8	0.0006924
3790.44	0.0007192
3800.09	0.0007456
3809.73	0.0006445
3819.38	0.0008068
3829.02	0.0007494
3838.67	0.0007382
3848.31	0.0007833
3857.96	0.0007549
3867.6	0.0007556
3877.25	0.0008554
3886.89	0.0008865
3896.54	0.0007596
3906.18	0.0007528
3915.83	0.0008569
3925.47	0.0008884
3935.12	0.000807
3944.76	0.0008937
3954.41	0.0008671
3964.05	0.0007383
3973.69	0.0009318
3983.34	0.0007887
3992.98	0.0009975
