Infrared Spectrum: 3-Hydroxycarbofuran
Formula: C 12 H 15 N O 4
CAS: 16655-82-6
State: gas
Instrument: HP-GC/MS/IRD
Origin: NIST Mass Spectrometry Data Center
1/CM	ABSORBANCE
550	0.0004544
562	0.000376
574	0.0002816
586	0.0002704
598	0.0002192
610	0.0001568
622	0.0002848
634	0.000144
646	0.000128
658	8.48e-05
670	0.0001824
682	2.24e-05
694	0.000144
706	0.000216
718	0.0004656
730	0.0014576
742	0.0013248
754	0.0011568
766	0.001216
778	0.0009344
790	0.0007616
802	0.000568
814	0.0008128
826	0.0008608
838	0.0006704
850	0.001032
862	0.0017344
874	0.0025488
886	0.0032512
898	0.002496
910	0.0019184
922	0.0022992
934	0.0015856
946	0.0013792
958	0.0012288
970	0.0011728
982	0.0006688
994	0.0007616
1006	0.0010352
1018	0.0015808
1030	0.0016448
1042	0.0016496
1054	0.0031312
1066	0.0035872
1078	0.0037872
1090	0.0064176
1102	0.0105952
1114	0.008144
1126	0.0059264
1138	0.004152
1150	0.0033472
1162	0.00576
1174	0.0079536
1186	0.0083504
1198	0.0121312
1210	0.016
1222	0.010824
1234	0.0068832
1246	0.0052096
1258	0.004728
1270	0.00484
1282	0.0037872
1294	0.0028976
1306	0.0025456
1318	0.0035008
1330	0.0036592
1342	0.002528
1354	0.0019968
1366	0.0016992
1378	0.00172
1390	0.0011712
1402	0.0008576
1414	0.00104
1426	0.0018288
1438	0.0024672
1450	0.0043088
1462	0.0077584
1474	0.0106336
1486	0.0119184
1498	0.0078528
1510	0.0049184
1522	0.00324
1534	0.0023936
1546	0.0017232
1558	0.001296
1570	0.0011488
1582	0.0012304
1594	0.0019024
1606	0.0020096
1618	0.0018112
1630	0.0010448
1642	0.000528
1654	0.0003392
1666	0.0003216
1678	0.0003168
1690	0.0002832
1702	0.000344
1714	0.0005152
1726	0.0008544
1738	0.0015008
1750	0.0020512
1762	0.0045088
1774	0.0127392
1786	0.0109488
1798	0.0032016
1810	0.001448
1822	0.001128
1834	0.0007536
1846	0.0004512
1858	0.0002432
1870	0.0002192
1882	0.0002016
1894	0.0002112
1906	0.0001728
1918	0.000112
1930	7.2e-05
1942	7.36e-05
1954	4e-05
1966	8.64e-05
1978	7.36e-05
1990	0.0001008
2002	8.96e-05
2014	9.76e-05
2026	0.0001312
2038	0.0001072
2050	0.0001488
2062	0.0001008
2074	0.000168
2086	0.0001264
2098	0.0001424
2110	0.0001568
2122	0.0001328
2134	0.000144
2146	0.0001408
2158	9.44e-05
2170	4.96e-05
2182	5.92e-05
2194	9.44e-05
2206	0.0001008
2218	0.0001328
2230	0.0002176
2242	0.000344
2254	0.0004384
2266	0.000576
2278	0.0006448
2290	0.0005984
2302	0.000472
2314	0.0004672
2326	0.000232
2338	0.0002048
2350	0.0001488
2362	0
2374	2.88e-05
2386	2.72e-05
2398	4.96e-05
2410	2.08e-05
2422	6.88e-05
2434	6.08e-05
2446	9.92e-05
2458	3.2e-05
2470	7.36e-05
2482	5.12e-05
2494	3.36e-05
2506	8e-05
2518	0.0001024
2530	7.04e-05
2542	7.84e-05
2554	0.00012
2566	6.4e-05
2578	0.0001184
2590	0.00012
2602	0.0001312
2614	0.0001008
2626	9.92e-05
2638	0.0001584
2650	0.00012
2662	8.64e-05
2674	0.0001184
2686	0.0001872
2698	0.000184
2710	0.0001344
2722	0.0001056
2734	0.0001616
2746	0.0001728
2758	0.000176
2770	0.0001744
2782	0.0002672
2794	0.0003728
2806	0.0005232
2818	0.0010288
2830	0.001888
2842	0.0012336
2854	0.0011344
2866	0.0011792
2878	0.0015856
2890	0.0021104
2902	0.0022288
2914	0.0023696
2926	0.0027856
2938	0.00376
2950	0.0036208
2962	0.0027648
2974	0.0031872
2986	0.0040864
2998	0.002408
3010	0.0014064
3022	0.0008944
3034	0.0008496
3046	0.00096
3058	0.0010544
3070	0.0011328
3082	0.0009392
3094	0.000584
3106	0.0003312
3118	0.0002624
3130	0.0002368
3142	0.0001216
3154	0.0001248
3166	0.000128
3178	0.000208
3190	0.000152
3202	0.0001664
3214	6.24e-05
3226	0.0001216
3238	0.0001392
3250	0.000136
3262	8.64e-05
3274	0.0001504
3286	0.0001872
3298	5.92e-05
3310	0.0001344
3322	0.0001456
3334	0.0001104
3346	0.0001504
3358	2.72e-05
3370	0.0001056
3382	4.64e-05
3394	0.0001568
3406	0.000152
3418	0.0002096
3430	0.0001552
3442	0.0002144
3454	0.000216
3466	0.000544
3478	0.000944
3490	0.001424
3502	0.0009504
3514	0.0004752
3526	0.0002944
3538	0.0003056
3550	0.000296
3562	0.0002352
3574	0.0002016
3586	0.0002032
3598	0.0001696
3610	0.0002224
3622	0.0002432
3634	0.000248
3646	0.0002384
3658	0.0002192
3670	0.0001968
3682	0.000152
3694	0.000256
3706	0.0001664
3718	0.0002512
3730	0.0001504
3742	0.0001456
3754	0.0002064
3766	0.000256
3778	0.0002128
3790	0.0002768
3802	0.000144
3814	0.0001392
3826	0.0001664
3838	0.0001504
