Infrared Spectrum: Cyclopropyl phenylmethane
Formula: C 10 H 12
CAS: 1667-00-1
State: gas
Origin: EPA-IR VAPOR PHASE LIBRARY
1/CM	ABSORBANCE
549.8	0.0007209
559.445	0.0008637
569.09	0.001529
578.735	0.002549
588.38	0.003029
598.025	0.002469
607.67	0.001749
617.315	0.0011568
626.96	0.0007669
636.605	0.0008586
646.251	0.001529
655.896	0.002409
665.541	0.005099
675.186	0.010899
684.831	0.022829
694.476	0.038729
704.121	0.038169
713.766	0.034369
723.411	0.036909
733.056	0.032139
742.701	0.019309
752.346	0.010549
761.991	0.009849
771.636	0.009349
781.281	0.007599
790.926	0.008639
800.571	0.011819
810.216	0.011439
819.861	0.011439
829.507	0.013079
839.152	0.009549
848.797	0.005039
858.442	0.003169
868.087	0.002699
877.732	0.002609
887.377	0.002469
897.022	0.002849
906.667	0.003439
916.312	0.004409
925.957	0.006519
935.602	0.007409
945.247	0.005599
954.892	0.004049
964.537	0.005629
974.182	0.008239
983.827	0.007249
993.472	0.004989
1003.12	0.007589
1012.76	0.015559
1022.41	0.019809
1032.05	0.014019
1041.7	0.009049
1051.34	0.007189
1060.99	0.006139
1070.63	0.005819
1080.28	0.004549
1089.92	0.003169
1099.57	0.003039
1109.21	0.002999
1118.86	0.002299
1128.5	0.001549
1138.15	0.0010929
1147.79	0.0010556
1157.44	0.0011627
1167.08	0.001759
1176.73	0.001979
1186.37	0.001859
1196.02	0.001839
1205.66	0.001669
1215.31	0.001549
1224.95	0.002059
1234.6	0.002319
1244.24	0.001869
1253.89	0.001489
1263.53	0.001719
1273.18	0.002669
1282.82	0.004399
1292.47	0.005359
1302.11	0.004929
1311.76	0.004079
1321.4	0.003159
1331.05	0.002279
1340.69	0.001849
1350.34	0.001699
1359.98	0.002089
1369.63	0.002559
1379.27	0.002359
1388.92	0.001819
1398.56	0.001889
1408.21	0.002459
1417.85	0.004119
1427.5	0.006749
1437.14	0.009679
1446.79	0.012179
1456.43	0.012709
1466.08	0.010049
1475.73	0.006479
1485.37	0.011599
1495.02	0.018129
1504.66	0.012019
1514.31	0.003319
1523.95	0.002009
1533.6	0.001829
1543.24	0.001789
1552.89	0.001889
1562.53	0.002209
1572.18	0.003139
1581.82	0.004739
1591.47	0.007259
1601.11	0.010129
1610.76	0.008419
1620.4	0.003509
1630.05	0.001699
1639.69	0.001269
1649.34	0.0011216
1658.98	0.0009987
1668.63	0.000992
1678.27	0.000954
1687.92	0.0009438
1697.56	0.0010076
1707.21	0.0010274
1716.85	0.0011616
1726.5	0.001359
1736.14	0.001699
1745.79	0.001739
1755.43	0.001499
1765.08	0.001449
1774.72	0.001979
1784.37	0.003259
1794.01	0.003969
1803.66	0.003079
1813.3	0.002139
1822.95	0.001949
1832.59	0.001899
1842.24	0.002199
1851.88	0.002529
1861.53	0.002629
1871.17	0.002609
1880.82	0.002339
1890.46	0.001909
1900.11	0.001659
1909.75	0.001799
1919.4	0.002439
1929.04	0.003259
1938.69	0.003749
1948.33	0.003749
1957.98	0.002529
1967.62	0.0011714
1977.27	0.0009056
1986.91	0.0009529
1996.56	0.0009067
2006.2	0.0008927
2015.85	0.0010051
2025.49	0.0011685
2035.14	0.001279
2044.78	0.001439
2054.43	0.001639
2064.07	0.001609
2073.72	0.001279
2083.36	0.001309
2093.01	0.0010983
2102.65	0.0008073
2112.3	0.0007003
2121.94	0.0006634
2131.59	0.0006057
2141.23	0.0005856
2150.88	0.0006302
2160.52	0.0005671
2170.17	0.0005533
2179.81	0.0005301
2189.46	0.0006197
2199.1	0.0006536
2208.75	0.0007378
2218.39	0.0007786
2228.04	0.0007772
2237.68	0.0006145
2247.33	0.0006771
2256.97	0.0007326
2266.62	0.0006449
2276.26	0.000606
2285.91	0.00056
2295.55	0.0005183
2305.2	0.0007232
2314.84	0.0007444
2324.49	0.0007041
2334.13	0.0007123
2343.78	0.0006734
2353.42	0.0006617
2363.07	0.0006616
2372.72	0.0005515
2382.36	0.0005864
2392.01	0.0006618
2401.65	0.000681
2411.3	0.0006212
2420.94	0.0005444
2430.59	0.0005357
2440.23	0.0005235
2449.88	0.0005154
2459.52	0.0006551
2469.17	0.0008572
2478.81	0.0009881
2488.46	0.000756
2498.1	0.0005903
2507.75	0.0004583
2517.39	0.0004935
2527.04	0.0004784
2536.68	0.0005449
2546.33	0.000416
2555.97	0.000488
2565.62	0.0004599
2575.26	0.0006241
2584.91	0.0007265
2594.55	0.0006448
2604.2	0.0007117
2613.84	0.0007211
2623.49	0.000679
2633.13	0.0006955
2642.78	0.0006833
2652.42	0.0006205
2662.07	0.0005998
2671.71	0.0005818
2681.36	0.0005464
2691	0.0004723
2700.65	0.0005034
2710.29	0.0004893
2719.94	0.0006413
2729.58	0.0006869
2739.23	0.0008211
2748.87	0.0008385
2758.52	0.0007657
2768.16	0.0007439
2777.81	0.0009099
2787.45	0.0010078
2797.1	0.0011913
2806.74	0.001539
2816.39	0.002259
2826.03	0.003679
2835.68	0.005719
2845.32	0.008759
2854.97	0.011249
2864.61	0.011389
2874.26	0.010209
2883.9	0.010849
2893.55	0.014089
2903.19	0.019389
2912.84	0.026079
2922.48	0.029839
2932.13	0.023629
2941.77	0.013419
2951.42	0.007089
2961.06	0.005029
2970.71	0.005519
2980.35	0.008009
2990	0.014269
2999.64	0.027959
3009.29	0.046349
3018.93	0.053999
3028.58	0.052539
3038.22	0.044989
3047.87	0.030889
3057.51	0.031849
3067.16	0.047649
3076.8	0.057039
3086.45	0.048209
3096.09	0.031509
3105.74	0.016869
3115.38	0.008369
3125.03	0.003669
3134.67	0.001919
3144.32	0.001359
3153.96	0.0012071
3163.61	0.0011558
3173.25	0.0007453
3182.9	0.0005682
3192.54	0.0006055
3202.19	0.0005884
3211.83	0.0004305
3221.48	0.0004267
3231.12	0.000348
3240.77	0.0003851
3250.41	0.00023965
3260.06	0.0003948
3269.7	0.0004222
3279.35	0.0004022
3289	0.00029163
3298.64	0.000209
3308.29	0.0003764
3317.93	0.000216
3327.58	0.0003604
3337.22	0.0001676
3346.87	0.0001862
3356.51	0.000102
3366.16	0.000347
3375.8	0.00030744
3385.45	0.00025599
3395.09	0.00027482
3404.74	0.00027565
3414.38	0.00017
3424.03	0.0001536
3433.67	0.0001708
3443.32	0.0001419
3452.96	0.0001803
3462.61	0.0001823
3472.25	0.00027505
3481.9	0.00024769
3491.54	0.000231425
3501.19	0.0001469
3510.83	0.0001837
3520.48	0.0002188
3530.12	0.0002131
3539.77	1.9e-05
3549.41	2.6e-05
3559.06	0.0001402
3568.7	7.8e-05
3578.35	0.0001713
3587.99	0.00023971
3597.64	0.0001543
3607.28	0.0003944
3616.93	0.00032698
3626.57	0.0001561
3636.22	0.00027001
3645.86	0.0003774
3655.51	0.0005623
3665.15	0.00030699
3674.8	0.0003503
3684.44	0.000228765
3694.09	0.0003721
3703.73	0.0001984
3713.38	0.00030918
3723.02	0.0003218
3732.67	0.00024467
3742.31	0.000126
3751.96	0.000188
3761.6	0.00025244
3771.25	0.0004486
3780.89	0.00027796
3790.54	0.0003206
3800.18	0.0004552
3809.83	0.00045
3819.47	0.0004725
3829.12	0.0006208
3838.76	0.0005561
3848.41	0.0006814
3858.05	0.0005264
3867.7	0.000614
3877.34	0.0007088
3886.99	0.0005394
3896.63	0.0006665
3906.28	0.0005189
3915.92	0.0004385
3925.57	0.0003834
3935.21	0.0005391
3944.86	0.0003447
3954.5	0.00032594
3964.15	0.0003711
3973.79	0.0004644
3983.44	0.00026237
3993.08	0.0004458
