Infrared Spectrum: Biphenyl, 4-(chloromethyl)-,
Formula: C13 H11 Cl
CAS: 1667-11-4
State: SOLUTION (10% CCl4 FOR 3800-1335, 10% CS2 FOR 1335-400 CM^-^1)
Melting point: 72 C
Class: COBLENTZ III
Instrument: BECKMAN IR-9 (GRATING)
Instrument parameters: ORDER CHANGES: 670, 1200, 2000 CM^-^1
Sampling: TRANSMISSION
Path length: 0.010 CM, 0.011 CM
Resolution: 2
Origin: DOW CHEMICAL COMPANY
1/CM	TRANSMITTANCE
3800	0.9102
3791	0.911
3782	0.9092
3773	0.9099
3764	0.9094
3755	0.9091
3746	0.9091
3737	0.9102
3728	0.9099
3719	0.9081
3710	0.9096
3701	0.9099
3692	0.9077
3683	0.9055
3674	0.9048
3665	0.9043
3656	0.9038
3647	0.9047
3638	0.9058
3629	0.9065
3620	0.9053
3611	0.9066
3602	0.9078
3593	0.9005
3584	0.9033
3575	0.9098
3566	0.9092
3557	0.9082
3548	0.9089
3539	0.9078
3530	0.9077
3521	0.9057
3512	0.9051
3503	0.9045
3494	0.9039
3485	0.9032
3476	0.9026
3467	0.9019
3458	0.9012
3449	0.9005
3440	0.8998
3431	0.8992
3422	0.8985
3413	0.8978
3404	0.8981
3395	0.8987
3386	0.8993
3377	0.8999
3368	0.9005
3359	0.901
3350	0.9016
3341	0.9018
3332	0.902
3323	0.9021
3314	0.9023
3305	0.9038
3296	0.9027
3287	0.9029
3278	0.9037
3269	0.9039
3260	0.9036
3251	0.9034
3242	0.9032
3233	0.903
3224	0.9023
3215	0.9015
3206	0.8995
3197	0.8993
3188	0.8985
3179	0.8961
3170	0.8947
3161	0.892
3152	0.8833
3143	0.8724
3134	0.8666
3125	0.8634
3116	0.8556
3107	0.7943
3098	0.762
3089	0.6754
3080	0.6915
3071	0.6197
3062	0.6298
3053	0.6792
3044	0.6442
3035	0.4527
3026	0.7297
3017	0.7776
3008	0.7923
2999	0.8193
2990	0.8337
2981	0.8287
2972	0.7534
2963	0.7661
2954	0.8193
2945	0.8513
2936	0.871
2927	0.8785
2918	0.8816
2909	0.8797
2900	0.878
2891	0.8761
2882	0.8551
2873	0.8604
2864	0.8807
2855	0.8928
2846	0.8988
2837	0.9024
2828	0.9037
2819	0.9069
2810	0.9077
2801	0.911
2792	0.9127
2783	0.9142
2774	0.9153
2765	0.9137
2756	0.9122
2747	0.9106
2738	0.9092
2729	0.9071
2720	0.9051
2711	0.9049
2702	0.9071
2693	0.9089
2684	0.9102
2675	0.9106
2666	0.9109
2657	0.9109
2648	0.9087
2639	0.907
2630	0.9067
2621	0.9072
2612	0.9073
2603	0.908
2594	0.9098
2585	0.9116
2576	0.9118
2567	0.912
2558	0.9121
2549	0.9123
2540	0.9125
2531	0.9126
2522	0.9129
2513	0.913
2504	0.9133
2495	0.9134
2486	0.9136
2477	0.9151
2468	0.9153
2459	0.9154
2450	0.9149
2441	0.9165
2432	0.917
2423	0.9174
2414	0.9179
2405	0.9194
2396	0.919
2387	0.9174
2378	0.9158
2369	0.913
2360	0.9098
2351	0.9105
2342	0.9092
2333	0.9072
2324	0.9106
2315	0.9095
2306	0.9065
2297	0.9076
2288	0.9087
2279	0.911
2270	0.9124
2261	0.914
2252	0.916
2243	0.9173
2234	0.9179
2225	0.9187
2216	0.9181
2207	0.918
2198	0.9178
2189	0.9162
2180	0.9159
2171	0.9171
2162	0.9156
2153	0.9154
2144	0.9152
2135	0.9147
2126	0.9146
2117	0.9143
2108	0.9133
2099	0.9122
2090	0.9096
2081	0.9069
2072	0.9045
2063	0.9027
2054	0.9028
2045	0.901
2036	0.9007
2027	0.9011
2018	0.9012
2009	0.9005
2000	0.8927
1991	0.9006
1982	0.8989
1973	0.8826
1964	0.8696
1955	0.8731
1946	0.8586
1937	0.8877
1928	0.8862
1919	0.8352
1910	0.8346
1901	0.8624
1892	0.868
1883	0.8608
1874	0.8768
1865	0.8953
1856	0.9006
1847	0.9015
1838	0.8973
1829	0.8814
1820	0.8829
1811	0.8518
1802	0.853
1793	0.8728
1784	0.8849
1775	0.8868
1766	0.8795
1757	0.8721
1748	0.882
1739	0.8884
1730	0.8929
1721	0.8957
1712	0.8958
1703	0.8924
1694	0.8821
1685	0.8567
1676	0.8557
1667	0.8672
1658	0.8759
1649	0.8834
1640	0.8841
1631	0.8621
1622	0.7925
1613	0.7845
1604	0.618
1595	0.7862
1586	0.7699
1577	0.7742
1568	0.7007
1559	0.7177
1550	0.7865
1541	0.8376
1532	0.8392
1523	0.726
1514	0.8376
1505	0.8127
1496	0.418
1487	0.4007
1478	0.8178
1469	0.8449
1460	0.8223
1451	0.6805
1442	0.7959
1433	0.8456
1424	0.827
1415	0.6535
1406	0.7653
1397	0.8474
1388	0.833
1379	0.8534
1370	0.8744
1361	0.878
1352	0.8811
1343	0.8651
1334	0.8268
1325	0.8265
1316	0.8239
1307	0.8329
1298	0.7891
1289	0.7668
1280	0.6754
1271	0.4399
1262	0.3769
1253	0.7572
1244	0.8184
1235	0.8534
1226	0.8421
1217	0.7821
1208	0.83
1199	0.8218
1190	0.8037
1181	0.7946
1172	0.8204
1163	0.8112
1154	0.8306
1145	0.8546
1136	0.8636
1127	0.8501
1118	0.7543
1109	0.8328
1100	0.8729
1091	0.8765
1082	0.8149
1073	0.8338
1064	0.8919
1055	0.8942
1046	0.8609
1037	0.8794
1028	0.8819
1019	0.8733
1010	0.4232
1001	0.7768
992	0.8745
983	0.867
974	0.8586
965	0.8464
956	0.8581
947	0.8759
938	0.8786
929	0.8614
920	0.8099
911	0.7746
902	0.8541
893	0.8528
884	0.834
875	0.8083
866	0.7707
857	0.7352
848	0.5405
839	0.3953
830	0.5089
821	0.6276
812	0.763
803	0.826
794	0.8538
785	0.8447
776	0.706
767	0.1234
758	0.4301
749	0.4594
740	0.063
731	0.3362
722	0.3469
713	0.5354
704	0.3665
695	0.1801
686	0.3267
677	0.4962
668	0.7341
659	0.7845
650	0.8282
641	0.8493
632	0.8741
623	0.8844
614	0.8903
605	0.8878
596	0.8817
587	0.7936
578	0.8766
569	0.8855
560	0.8759
551	0.8148
542	0.7974
533	0.8655
524	0.8461
515	0.7781
506	0.6495
497	0.6348
488	0.7704
479	0.8114
470	0.8023
461	0.7768
452	0.7413
443	0.6814
434	0.5992
425	0.4839
416	0.3148
