Infrared Spectrum: 2,2'-((1,8-Dihydroxy-3,6-disulfo-2,7-naphthylene)bis(azo)), dibenzene arsonic acid
Formula: C22 H18 As2 N4 O14 S2
CAS: 1668-00-4
State: SOLID (SPLIT MULL VS SCREEN), FLUOROLUBE FOR 3800-1330 CM^-^1, NUJOL FOR 1330-400 CM^-^1
Class: COBLENTZ III
Instrument: DOW KBr FOREPRISM-GRATING
Instrument parameters: BLAZED AT 3.5, 12.0, 20.0 MICRON AND CHANGED AT 5.0, 7.5, 14.9 MICRON
Sampling: TRANSMISSION
Resolution: 2
Origin: DOW CHEMICAL COMPANY
1/CM	TRANSMITTANCE
389	0.5853
398	0.5853
407	0.5839
416	0.578
425	0.563
434	0.6037
443	0.731
452	0.7344
461	0.7055
470	0.8228
479	0.866
488	0.8535
497	0.7958
506	0.779
515	0.7554
524	0.7351
533	0.7007
542	0.6908
551	0.729
560	0.7615
569	0.7891
578	0.7818
587	0.7512
596	0.6738
605	0.5906
614	0.5487
623	0.4305
632	0.336
641	0.3289
650	0.4225
659	0.3844
668	0.5308
677	0.7341
686	0.8601
695	0.8931
704	0.8942
713	0.8331
722	0.6865
731	0.6391
740	0.5331
749	0.4325
758	0.3322
767	0.1778
776	0.196
785	0.2781
794	0.3552
803	0.4367
812	0.4689
821	0.4649
830	0.4458
839	0.5465
848	0.6352
857	0.68
866	0.6794
875	0.6414
884	0.5942
893	0.5478
902	0.5142
911	0.5101
920	0.5097
929	0.5296
938	0.6017
947	0.6715
956	0.7415
965	0.8042
974	0.8453
983	0.8375
992	0.7562
1001	0.629
1010	0.4882
1019	0.3318
1028	0.1867
1037	0.0589
1046	0.0671
1055	0.1386
1064	0.3394
1073	0.5734
1082	0.5004
1091	0.3699
1100	0.3575
1109	0.3209
1118	0.2584
1127	0.2113
1136	0.1834
1145	0.1455
1154	0.1056
1163	0.0872
1172	0.085
1181	0.0727
1190	0.0729
1199	0.0843
1208	0.0989
1217	0.1105
1226	0.1168
1235	0.121
1244	0.1439
1253	0.1673
1262	0.1752
1271	0.2542
1280	0.3522
1289	0.3288
1298	0.2675
1307	0.2798
1316	0.4404
1325	0.556
1334	0.594
1343	0.5347
1352	0.5529
1361	0.5807
1370	0.561
1379	0.5216
1388	0.482
1397	0.4301
1406	0.371
1415	0.3323
1424	0.3329
1433	0.3289
1442	0.3278
1451	0.3528
1460	0.3178
1469	0.2839
1478	0.289
1487	0.2538
1496	0.3033
1505	0.4535
1514	0.6489
1523	0.8255
1532	0.8308
1541	0.8
1550	0.7221
1559	0.6295
1568	0.537
1577	0.5272
1586	0.558
1595	0.6501
1604	0.7062
1613	0.6844
1622	0.6622
1631	0.7135
1640	0.7671
1649	0.8001
1658	0.8312
1667	0.8513
1676	0.867
1685	0.8712
1694	0.8681
1703	0.8597
1712	0.8517
1721	0.8394
1730	0.8363
1739	0.8286
1748	0.8257
1757	0.8213
1766	0.8178
1775	0.8094
1784	0.803
1793	0.8011
1802	0.7955
1811	0.785
1820	0.7821
1829	0.7721
1838	0.7653
1847	0.7569
1856	0.7467
1865	0.7391
1874	0.7217
1883	0.7117
1892	0.7088
1901	0.7012
1910	0.69
1919	0.6791
1928	0.67
1937	0.6631
1946	0.6537
1955	0.6411
1964	0.6284
1973	0.617
1982	0.6073
1991	0.5968
2000	0.5724
2009	0.5501
2018	0.5387
2027	0.5272
2036	0.5133
2045	0.5012
2054	0.4914
2063	0.4822
2072	0.4726
2081	0.463
2090	0.4535
2099	0.4449
2108	0.437
2117	0.4273
2126	0.4188
2135	0.4102
2144	0.4016
2153	0.3928
2162	0.3841
2171	0.3757
2180	0.3679
2189	0.3603
2198	0.3532
2207	0.3471
2216	0.3428
2225	0.3324
2234	0.3242
2243	0.3162
2252	0.3107
2261	0.3062
2270	0.3032
2279	0.3004
2288	0.2993
2297	0.3008
2306	0.3038
2315	0.3079
2324	0.3114
2333	0.3115
2342	0.3108
2351	0.3093
2360	0.3069
2369	0.3035
2378	0.2998
2387	0.2966
2396	0.2959
2405	0.2951
2414	0.2947
2423	0.2948
2432	0.2956
2441	0.2971
2450	0.296
2459	0.2931
2468	0.2867
2477	0.2809
2486	0.275
2495	0.2703
2504	0.2661
2513	0.2616
2522	0.2564
2531	0.2511
2540	0.246
2549	0.241
2558	0.2364
2567	0.2322
2576	0.2282
2585	0.2243
2594	0.2213
2603	0.2179
2612	0.2144
2621	0.2108
2630	0.207
2639	0.2033
2648	0.1998
2657	0.1963
2666	0.1926
2675	0.1885
2684	0.1841
2693	0.1787
2702	0.1751
2711	0.1723
2720	0.1699
2729	0.1691
2738	0.1679
2747	0.1654
2756	0.1622
2765	0.1585
2774	0.1561
2783	0.155
2792	0.1546
2801	0.1541
2810	0.1515
2819	0.1507
2828	0.1487
2837	0.1457
2846	0.1453
2855	0.145
2864	0.1449
2873	0.1446
2882	0.1445
2891	0.1441
2900	0.1432
2909	0.1406
2918	0.1396
2927	0.142
2936	0.146
2945	0.1474
2954	0.1478
2963	0.1482
2972	0.1486
2981	0.1486
2990	0.1487
2999	0.1485
3008	0.1483
3017	0.148
3026	0.147
3035	0.1459
3044	0.1449
3053	0.144
3062	0.1435
3071	0.1436
3080	0.1445
3089	0.1459
3098	0.1466
3107	0.1465
3116	0.1464
3125	0.1461
3134	0.1456
3143	0.1451
3152	0.1453
3161	0.1455
3170	0.1437
3179	0.1419
3188	0.1405
3197	0.1396
3206	0.1384
3215	0.1371
3224	0.1363
3233	0.1359
3242	0.1358
3251	0.1363
3260	0.137
3269	0.1326
3278	0.1292
3287	0.1284
3296	0.1274
3305	0.1267
3314	0.1261
3323	0.1251
3332	0.1241
3341	0.1245
3350	0.125
3359	0.1255
3368	0.1261
3377	0.1271
3386	0.1288
3395	0.1305
3404	0.1327
3413	0.1353
3422	0.1379
3431	0.1402
3440	0.1426
3449	0.145
3458	0.1482
3467	0.1513
3476	0.1545
3485	0.1583
3494	0.162
3503	0.1657
3512	0.1701
3521	0.1746
3530	0.1801
3539	0.1867
3548	0.1933
3557	0.2004
3566	0.209
3575	0.2179
3584	0.228
3593	0.2381
3602	0.2488
3611	0.259
3620	0.2685
3629	0.2788
3638	0.2852
3647	0.289
3656	0.2912
3665	0.2917
3674	0.2888
3683	0.2824
3692	0.2749
3701	0.2676
3710	0.2604
3719	0.2541
3728	0.2479
3737	0.2424
3746	0.2373
3755	0.2335
3764	0.2303
3773	0.2281
3782	0.2258
3791	0.223
3800	0.2206
