Infrared Spectrum: 5-Nitrothiophene-2-carbonitrile
Formula: C 5 H 2 N 2 O 2 S
CAS: 16689-02-4
State: gas
Origin: EPA-IR VAPOR PHASE LIBRARY
1/CM	ABSORBANCE
549.8	0.00481
559.445	0.00776
569.09	0.00477
578.734	0.00295
588.379	0.0013095
598.024	0.0022172
607.669	0.0021472
617.313	0.0016299
626.958	0.0016321
636.603	0.00243
646.248	0.0013729
655.893	0.00245
665.537	0.00295
675.182	0.00244
684.827	0.00376
694.472	0.00528
704.116	0.00683
713.761	0.01301
723.406	0.02299
733.051	0.0181
742.695	0.01044
752.34	0.00464
761.985	0.00346
771.63	0.00253
781.275	0.00374
790.919	0.00639
800.564	0.01632
810.209	0.06549
819.854	0.09106
829.498	0.03604
839.143	0.0121
848.788	0.00303
858.433	0.0022266
868.078	0.0018037
877.722	0.0015098
887.367	0.0015485
897.012	0.0016129
906.657	0.001252
916.301	0.0016854
925.946	0.0019553
935.591	0.0013988
945.236	0.0015144
954.88	0.00146866
964.525	0.00254
974.17	0.0022689
983.815	0.00333
993.46	0.00266
1003.1	0.00525
1012.75	0.00915
1022.39	0.01957
1032.04	0.01962
1041.68	0.01058
1051.33	0.00296
1060.97	0.001838
1070.62	0.001022
1080.26	0.001574
1089.91	0.00314
1099.55	0.00451
1109.2	0.0092
1118.84	0.00917
1128.49	0.00805
1138.13	0.00747
1147.78	0.00716
1157.42	0.00819
1167.07	0.00494
1176.71	0.004
1186.36	0.00345
1196	0.00365
1205.64	0.00681
1215.29	0.01474
1224.93	0.02044
1234.58	0.0119
1244.22	0.0054
1253.87	0.00337
1263.51	0.0023469
1273.16	0.00245
1282.8	0.00265
1292.45	0.00585
1302.09	0.01218
1311.74	0.02763
1321.38	0.07071
1331.03	0.12316
1340.67	0.16161
1350.32	0.17199
1359.96	0.09871
1369.61	0.02881
1379.25	0.0157
1388.9	0.0084
1398.54	0.00704
1408.18	0.00933
1417.83	0.01892
1427.47	0.03527
1437.12	0.03434
1446.76	0.01805
1456.41	0.01466
1466.05	0.01239
1475.7	0.00954
1485.34	0.00904
1494.99	0.01213
1504.63	0.02266
1514.28	0.04938
1523.92	0.0752
1533.57	0.08734
1543.21	0.0948
1552.86	0.11138
1562.5	0.10504
1572.15	0.07363
1581.79	0.03453
1591.44	0.01477
1601.08	0.0086
1610.73	0.00795
1620.37	0.00776
1630.01	0.00799
1639.66	0.00662
1649.3	0.00468
1658.95	0.0031
1668.59	0.00301
1678.24	0.00279
1687.88	0.0020087
1697.53	0.0022949
1707.17	0.0018497
1716.82	0.00249
1726.46	0.0022582
1736.11	0.0016231
1745.75	0.001688
1755.4	0.0016647
1765.04	0.00143362
1774.69	0.0020531
1784.33	0.0020683
1793.98	0.00324
1803.62	0.00393
1813.27	0.0038
1822.91	0.00242
1832.55	0.001576
1842.2	0.0014952
1851.84	0.0017077
1861.49	0.00138971
1871.13	0.0016112
1880.78	0.00146307
1890.42	0.00137223
1900.07	0.001192
1909.71	0.001157
1919.36	0.00138541
1929	0.001314
1938.65	0.001198
1948.29	0.001095
1957.94	0.001189
1967.58	0.000869
1977.23	0.000947
1986.87	0.000849
1996.52	0.000789
2006.16	0.001006
2015.81	0.001172
2025.45	0.001142
2035.1	0.001016
2044.74	0.001248
2054.38	0.0013081
2064.03	0.00137749
2073.67	0.00142695
2083.32	0.00139941
2092.96	0.001069
2102.61	0.001236
2112.25	0.001088
2121.9	0.0013047
2131.54	0.0012888
2141.19	0.0014768
2150.83	0.00142352
2160.48	0.001107
2170.12	0.001166
2179.77	0.001234
2189.41	0.000903
2199.06	0.001152
2208.7	0.0018331
2218.35	0.00454
2227.99	0.00692
2237.64	0.0045
2247.28	0.0016451
2256.92	0.001109
2266.57	0.001247
2276.21	0.001024
2285.86	0.001061
2295.5	0.00089
2305.15	0.001146
2314.79	0.001113
2324.44	0.00141533
2334.08	0.00140197
2343.73	0.0017567
2353.37	0.0017268
2363.02	0.0018429
2372.66	0.001829
2382.31	0.0013961
2391.95	0.001085
2401.6	0.001168
2411.24	0.0012849
2420.89	0.001432
2430.53	0.0015709
2440.18	0.0019874
2449.82	0.0018025
2459.47	0.0016692
2469.11	0.001111
2478.75	0.001076
2488.4	0.0013052
2498.04	0.000889
2507.69	0.0015096
2517.33	0.00137128
2526.98	0.0020598
2536.62	0.00251
2546.27	0.00258
2555.91	0.0017877
2565.56	0.0018166
2575.2	0.00142657
2584.85	0.0018087
2594.49	0.001221
2604.14	0.0012945
2613.78	0.0012925
2623.43	0.0013682
2633.07	0.0016601
2642.72	0.0021908
2652.36	0.0023641
2662.01	0.0021381
2671.65	0.0023622
2681.29	0.0020139
2690.94	0.0014789
2700.58	0.0012981
2710.23	0.0014052
2719.87	0.000761
2729.52	0.00141122
2739.16	0.0016415
2748.81	0.0020908
2758.45	0.0021892
2768.1	0.001734
2777.74	0.0022949
2787.39	0.0022589
2797.03	0.0019264
2806.68	0.00145785
2816.32	0.001863
2825.97	0.0018548
2835.61	0.0028
2845.26	0.00259
2854.9	0.00307
2864.55	0.00327
2874.19	0.00371
2883.84	0.00381
2893.48	0.00308
2903.12	0.00303
2912.77	0.00252
2922.41	0.0017584
2932.06	0.0017374
2941.7	0.001101
2951.35	0.001203
2960.99	0.000831
2970.64	0.000822
2980.28	0.001062
2989.93	0.000984
2999.57	0.001183
3009.22	0.000985
3018.86	0.000825
3028.51	0.0013299
3038.15	0.000974
3047.8	0.00088
3057.44	0.001224
3067.09	0.001095
3076.73	0.001045
3086.38	0.0015399
3096.02	0.0018866
3105.67	0.00322
3115.31	0.005
3124.95	0.00447
3134.6	0.00247
3144.24	0.001148
3153.89	0.0014173
3163.53	0.001009
3173.18	0.00026
3182.82	0.001165
3192.47	0.000621
3202.11	0.000663
3211.76	0.001143
3221.4	0.000924
3231.05	0.00083
3240.69	0.00035
3250.34	0.000774
3259.98	0.00012
3269.63	0.00141924
3279.27	0.0012897
3288.92	0.000708
3298.56	0.001161
3308.21	0.001101
3317.85	0.0013072
3327.49	0.001087
3337.14	0.001209
3346.78	0.0015885
3356.43	0.000913
3366.07	0.000998
3375.72	0.00138638
3385.36	0.000956
3395.01	0.000954
3404.65	0.00119
3414.3	0.0013378
3423.94	0.000725
3433.59	0.001156
3443.23	0.00140257
3452.88	0.001239
3462.52	0.0011
3472.17	0.000907
3481.81	0.000756
3491.46	0.0015037
3501.1	0.001038
3510.75	0.0013052
3520.39	0.001193
3530.04	0.001235
3539.68	0.001243
3549.32	0.0015684
3558.97	0.0015757
3568.61	0.000492
3578.26	0.000627
3587.9	0.000882
3597.55	0.0012852
3607.19	0.000658
3616.84	0.000916
3626.48	0.001143
3636.13	0.001234
3645.77	0.000625
3655.42	0.001576
3665.06	0.001239
3674.71	0.00094
3684.35	0.000687
3694	0.001233
3703.64	0.000827
3713.29	0.00142811
3722.93	0.001194
3732.58	0.0015891
3742.22	0.000665
3751.86	0.0016999
3761.51	0.0017364
3771.15	0.000754
3780.8	0.001213
3790.44	0.000591
3800.09	0.001244
3809.73	0.0016489
3819.38	0.001057
3829.02	0.000698
3838.67	0.000987
3848.31	0.001175
3857.96	0.00142472
3867.6	0.0022649
3877.25	0.00136896
3886.89	0.000632
3896.54	0.001134
3906.18	0.000926
3915.83	0.00143769
3925.47	0.001143
3935.12	0.00142842
3944.76	0.001154
3954.41	0.000946
3964.05	0.000729
3973.69	0.000652
3983.34	0.0013505
3992.98	0.00141973
