Infrared Spectrum: 4-Bromo-2,5-dichlorothiophene-3-sulphonyl chloride
Formula: C 4 Br Cl 3 O 2 S 2
CAS: 166964-36-9
State: gas
Origin: EPA-IR VAPOR PHASE LIBRARY
1/CM	ABSORBANCE
549.8	0.133884
559.445	0.228184
569.09	0.368784
578.734	0.099564
588.379	0.022684
598.024	0.013244
607.669	0.008464
617.313	0.009514
626.958	0.009214
636.603	0.016444
646.248	0.070464
655.893	0.049814
665.537	0.031584
675.182	0.010924
684.827	0.006534
694.472	0.005104
704.116	0.003074
713.761	0.002394
723.406	0.002224
733.051	0.001804
742.695	0.002264
752.34	0.004984
761.985	0.009114
771.63	0.015974
781.275	0.004844
790.919	0.001884
800.564	0.0012708
810.209	0.001744
819.854	0.002444
829.498	0.002354
839.143	0.002924
848.788	0.003934
858.433	0.005784
868.078	0.015824
877.722	0.040554
887.367	0.037854
897.012	0.009564
906.657	0.004584
916.301	0.003224
925.946	0.002064
935.591	0.001734
945.236	0.001964
954.88	0.001794
964.525	0.0015548
974.17	0.0013004
983.815	0.002184
993.46	0.001954
1003.1	0.003974
1012.75	0.004614
1022.39	0.007404
1032.04	0.012874
1041.68	0.018574
1051.33	0.025534
1060.97	0.060774
1070.62	0.070224
1080.26	0.017474
1089.91	0.004464
1099.55	0.003094
1109.2	0.005254
1118.84	0.006464
1128.49	0.011984
1138.13	0.012844
1147.78	0.009584
1157.42	0.012534
1167.07	0.017294
1176.71	0.045234
1186.36	0.191544
1196	0.164904
1205.64	0.032494
1215.29	0.022064
1224.93	0.015644
1234.58	0.009444
1244.22	0.008254
1253.87	0.012434
1263.51	0.024234
1273.16	0.023934
1282.8	0.007604
1292.45	0.004904
1302.09	0.004864
1311.74	0.003294
1321.38	0.003334
1331.03	0.003924
1340.67	0.003844
1350.32	0.003544
1359.96	0.004434
1369.61	0.006694
1379.25	0.014314
1388.9	0.031494
1398.54	0.064704
1408.18	0.182284
1417.83	0.227304
1427.47	0.085404
1437.12	0.021234
1446.76	0.011064
1456.41	0.011804
1466.05	0.023364
1475.7	0.064264
1485.34	0.123884
1494.99	0.053794
1504.63	0.008764
1514.28	0.004654
1523.92	0.003214
1533.57	0.002464
1543.21	0.002514
1552.86	0.002134
1562.5	0.001954
1572.15	0.001854
1581.79	0.0011144
1591.44	0.0015005
1601.08	0.001334
1610.73	0.0013859
1620.37	0.0012441
1630.01	0.0012538
1639.66	0.0012142
1649.3	0.0013505
1658.95	0.0013535
1668.59	0.0010767
1678.24	0.0011635
1687.88	0.0009232
1697.53	0.0008624
1707.17	0.0008064
1716.82	0.00071282
1726.46	0.0008351
1736.11	0.0009415
1745.75	0.0010532
1755.4	0.0009412
1765.04	0.0011842
1774.69	0.0009486
1784.33	0.000893
1793.98	0.001098
1803.62	0.0010647
1813.27	0.0012614
1822.91	0.001144
1832.55	0.0009951
1842.2	0.00075171
1851.84	0.00065
1861.49	0.0006729
1871.13	0.00071704
1880.78	0.0010031
1890.42	0.0009968
1900.07	0.0008389
1909.71	0.00068157
1919.36	0.0006719
1929	0.0008394
1938.65	0.0008865
1948.29	0.000549
1957.94	0.000588
1967.58	0.0008462
1977.23	0.00074784
1986.87	0.00071803
1996.52	0.000518
2006.16	0.000542
2015.81	0.000573
2025.45	0.00077843
2035.1	0.0008279
2044.74	0.0009544
2054.38	0.0010786
2064.03	0.001048
2073.67	0.0012408
2083.32	0.0011426
2092.96	0.0009204
2102.61	0.0009109
2112.25	0.0008962
2121.9	0.0009432
2131.54	0.0009757
2141.19	0.0010199
2150.83	0.0010382
2160.48	0.0009015
2170.12	0.0008077
2179.77	0.0006254
2189.41	0.0005868
2199.06	0.000557
2208.7	0.00074898
2218.35	0.000339
2227.99	0.000571
2237.64	0.0006133
2247.28	0.0008406
2256.92	0.00075368
2266.57	0.00078035
2276.21	0.0008799
2285.86	0.001026
2295.5	0.0008756
2305.15	0.000965
2314.79	0.0010242
2324.44	0.0011547
2334.08	0.0013613
2343.73	0.0009446
2353.37	0.0009656
2363.02	0.001248
2372.66	0.0016092
2382.31	0.001388
2391.95	0.00074825
2401.6	0.00078032
2411.24	0.000538
2420.89	0.0009963
2430.53	0.0009584
2440.18	0.0006368
2449.82	0.00074393
2459.47	0.0008969
2469.11	0.00072667
2478.75	0.0009238
2488.4	0.0009276
2498.04	0.001073
2507.69	0.0008899
2517.33	0.000831
2526.98	0.0008921
2536.62	0.00075059
2546.27	0.0008899
2555.91	0.0008103
2565.56	0.0011527
2575.2	0.0011457
2584.85	0.001694
2594.49	0.002154
2604.14	0.0011914
2613.78	0.00073285
2623.43	0.000448
2633.07	0.000559
2642.72	0.0006264
2652.36	0.0006173
2662.01	0.0005926
2671.65	0.0008816
2681.29	0.000944
2690.94	0.00075015
2700.58	0.000693986
2710.23	0.00075643
2719.87	0.0006421
2729.52	0.00077472
2739.16	0.0009179
2748.81	0.0009015
2758.45	0.00073255
2768.1	0.0009423
2777.74	0.00069885
2787.39	0.0008165
2797.03	0.0008141
2806.68	0.0014973
2816.32	0.0014659
2825.97	0.0011246
2835.61	0.0008408
2845.26	0.0007736
2854.9	0.0006266
2864.55	0.00076984
2874.19	0.000393
2883.84	0.000535
2893.48	0.00047
2903.12	0.0005901
2912.77	0.000439
2922.41	0.0006458
2932.06	0.0006252
2941.7	0.0007892
2951.35	0.0005846
2960.99	0.0006442
2970.64	0.000255
2980.28	0.000448
2989.93	0.000558
2999.57	0.000399
3009.22	0.000389
3018.86	0.0006729
3028.51	0.000365
3038.15	0.00067775
3047.8	0.00074722
3057.44	0.000535
3067.09	0.000566
3076.73	0.000429
3086.38	0.0006098
3096.02	0.00076324
3105.67	0.000497
3115.31	0.0005
3124.95	0.0005908
3134.6	0.000481
3144.24	0.00075974
3153.89	0.000498
3163.53	0.00076484
3173.18	0.000436
3182.82	0.000224
3192.47	0.00071476
3202.11	0.000635
3211.76	0.00042
3221.4	0.000488
3231.05	0.000401
3240.69	0.00067813
3250.34	0.0005911
3259.98	0.0006333
3269.63	0.0007872
3279.27	0.000287
3288.92	0.0008412
3298.56	0.000419
3308.21	0.000394
3317.85	0.000412
3327.49	0.0006682
3337.14	0.000512
3346.78	0.0006078
3356.43	0.000658
3366.07	0.000458
3375.72	0.000257
3385.36	0.000279
3395.01	0.0006178
3404.65	0.00075349
3414.3	0.000447
3423.94	0.0008109
3433.59	0.0008063
3443.23	0.0008144
3452.88	0.00016
3462.52	0.00072874
3472.17	0.000468
3481.81	0.0006525
3491.46	0.000571
3501.1	0.000551
3510.75	0.0006162
3520.39	0.000555
3530.04	0.000504
3539.68	0.00067749
3549.32	0.0008893
3558.97	0.00055
3568.61	0.000561
3578.26	0.0006722
3587.9	0.000181
3597.55	0.00071098
3607.19	0.00070405
3616.84	0.0009145
3626.48	0.000567
3636.13	0.00044
3645.77	0.0006601
3655.42	0.000558
3665.06	0.000494
3674.71	0.0008489
3684.35	0.000542
3694	0.000492
3703.64	0.0007987
3713.29	0.0005971
3722.93	0.000473
3732.58	0.000692625
3742.22	0.0006421
3751.86	0.00072001
3761.51	0.0006228
3771.15	0.0006298
3780.8	0.0005952
3790.44	0.0005874
3800.09	0.000373
3809.73	0.000476
3819.38	0.000202
3829.02	0.000575
3838.67	0.000268
3848.31	0.000367
3857.96	0.000594
3867.6	0.00052
3877.25	0.000191
3886.89	0.000575
3896.54	0.000555
3906.18	0.0008775
3915.83	0.00084
3925.47	0.00068189
3935.12	0.000617
3944.76	0.0009427
3954.41	0.0008091
3964.05	0.0006709
3973.69	0.000246
3983.34	0.000581
3992.98	0.00071884
