Infrared Spectrum: Ethyl-N,N-Dimethyloxamate
Formula: C 6 H 11 N O 3
CAS: 16703-52-9
State: gas
Origin: EPA-IR VAPOR PHASE LIBRARY
1/CM	ABSORBANCE
501.5	0
513.074	0.000284
524.648	0.000427
536.222	0.000414
547.796	0.000438
559.37	0.000378
570.944	0.000447
582.518	0.0006921
594.092	0.0008849
605.666	0.0010194
617.24	0.0013362
628.814	0.001579
640.388	0.001969
651.962	0.003449
663.536	0.004589
675.11	0.004399
686.684	0.004009
698.258	0.004169
709.832	0.004759
721.406	0.005869
732.98	0.007049
744.554	0.007279
756.128	0.007249
767.702	0.007599
779.276	0.007829
790.85	0.007349
802.423	0.005759
813.997	0.004339
825.571	0.004249
837.145	0.004609
848.719	0.004139
860.293	0.005019
871.867	0.005499
883.441	0.003079
895.015	0.002039
906.589	0.001859
918.163	0.002099
929.737	0.003049
941.311	0.004989
952.885	0.005339
964.459	0.003999
976.033	0.003679
987.607	0.004769
999.181	0.008309
1010.76	0.015639
1022.33	0.020269
1033.9	0.017189
1045.48	0.014509
1057.05	0.016109
1068.63	0.022479
1080.2	0.039299
1091.77	0.080009
1103.35	0.138349
1114.92	0.143759
1126.49	0.088729
1138.07	0.050509
1149.64	0.034769
1161.22	0.028089
1172.79	0.025589
1184.36	0.024699
1195.94	0.026429
1207.51	0.033499
1219.09	0.050389
1230.66	0.083509
1242.23	0.111459
1253.81	0.089289
1265.38	0.053239
1276.96	0.038989
1288.53	0.027349
1300.1	0.019829
1311.68	0.015319
1323.25	0.011259
1334.83	0.009019
1346.4	0.009149
1357.97	0.013769
1369.55	0.019589
1381.12	0.023389
1392.7	0.033329
1404.27	0.042109
1415.84	0.036549
1427.42	0.022709
1438.99	0.016869
1450.57	0.018769
1462.14	0.021489
1473.71	0.021189
1485.29	0.018949
1496.86	0.017049
1508.44	0.014489
1520.01	0.011549
1531.58	0.009589
1543.16	0.008709
1554.73	0.008349
1566.31	0.007769
1577.88	0.006979
1589.45	0.006429
1601.03	0.006159
1612.6	0.006209
1624.18	0.006949
1635.75	0.008979
1647.32	0.013549
1658.9	0.022739
1670.47	0.046939
1682.05	0.117969
1693.62	0.200859
1705.19	0.159939
1716.77	0.065979
1728.34	0.043909
1739.92	0.066879
1751.49	0.104689
1763.06	0.081679
1774.64	0.038659
1786.21	0.019559
1797.79	0.011349
1809.36	0.006869
1820.93	0.004769
1832.51	0.003759
1844.08	0.003149
1855.66	0.002739
1867.23	0.002569
1878.8	0.002469
1890.38	0.002269
1901.95	0.001929
1913.53	0.001609
1925.1	0.0014531
1936.67	0.0013976
1948.25	0.001364
1959.82	0.0013829
1971.4	0.001406
1982.97	0.0013597
1994.54	0.0012518
2006.12	0.001212
2017.69	0.0012363
2029.27	0.001278
2040.84	0.0013244
2052.41	0.0014833
2063.99	0.001589
2075.56	0.0015467
2087.14	0.0013692
2098.71	0.0013152
2110.28	0.0013201
2121.86	0.0013562
2133.43	0.0012564
2145.01	0.0011489
2156.58	0.0010548
2168.15	0.0010074
2179.73	0.0009933
2191.3	0.0010179
2202.88	0.0010303
2214.45	0.0010843
2226.02	0.0010318
2237.6	0.0009849
2249.17	0.0009555
2260.74	0.0009309
2272.32	0.000896
2283.89	0.0008533
2295.47	0.0008617
2307.04	0.0009085
2318.61	0.0010472
2330.19	0.0011869
2341.76	0.0013389
2353.34	0.0014778
2364.91	0.0013986
2376.48	0.0011736
2388.06	0.0010532
2399.63	0.0010135
2411.21	0.0009862
2422.78	0.0009574
2434.35	0.0009184
2445.93	0.000968
2457.5	0.0009785
2469.08	0.0010573
2480.65	0.0010811
2492.22	0.0010794
2503.8	0.001109
2515.37	0.0011022
2526.95	0.0011115
2538.52	0.0011445
2550.09	0.001059
2561.67	0.0010318
2573.24	0.0010097
2584.82	0.0010323
2596.39	0.0010069
2607.96	0.0009838
2619.54	0.0009679
2631.11	0.0009356
2642.69	0.0009072
2654.26	0.0009061
2665.83	0.0009042
2677.41	0.0009027
2688.98	0.000988
2700.56	0.001023
2712.13	0.0010912
2723.7	0.001218
2735.28	0.0013932
2746.85	0.001569
2758.43	0.001829
2770	0.002269
2781.57	0.002889
2793.15	0.003839
2804.72	0.004909
2816.3	0.005729
2827.87	0.006069
2839.44	0.006479
2851.02	0.007869
2862.59	0.010609
2874.17	0.014179
2885.74	0.016849
2897.31	0.018449
2908.89	0.021399
2920.46	0.026699
2932.04	0.036429
2943.61	0.043319
2955.18	0.036049
2966.76	0.027199
2978.33	0.027579
2989.91	0.029259
3001.48	0.021929
3013.05	0.015299
3024.63	0.010779
3036.2	0.007939
3047.78	0.006299
3059.35	0.005179
3070.92	0.004279
3082.5	0.003579
3094.07	0.003009
3105.65	0.002509
3117.22	0.002089
3128.79	0.001809
3140.37	0.001649
3151.94	0.001579
3163.52	0.0014664
3175.09	0.0012788
3186.66	0.0012243
3198.24	0.0011083
3209.81	0.0009261
3221.39	0.0008818
3232.96	0.0007716
3244.53	0.0006887
3256.11	0.0007012
3267.68	0.000701
3279.26	0.00062889
3290.83	0.0006657
3302.4	0.00074
3313.98	0.0006707
3325.55	0.0007487
3337.13	0.0008807
3348.7	0.001263
3360.27	0.001789
3371.85	0.002249
3383.42	0.002119
3395	0.0013927
3406.57	0.0011068
3418.14	0.0009585
3429.72	0.0009462
3441.29	0.0010136
3452.86	0.0011924
3464.44	0.0011542
3476.01	0.0013271
3487.59	0.0014793
3499.16	0.0013662
3510.73	0.0011844
3522.31	0.0009736
3533.88	0.0008702
3545.46	0.0006526
3557.03	0.00058765
3568.6	0.0006674
3580.18	0.00056291
3591.75	0.0005029
3603.33	0.0004911
3614.9	0.00058993
3626.47	0.0005119
3638.05	0.0005169
3649.62	0.000553793
3661.2	0.00055989
3672.77	0.0005227
3684.34	0.00057656
3695.92	0.00054217
3707.49	0.0005076
3719.07	0.00056145
3730.64	0.00056845
3742.21	0.00061528
3753.79	0.00060771
3765.36	0.00056546
3776.94	0.00057993
3788.51	0.00054286
3800.08	0.00054765
3811.66	0.00057198
3823.23	0.00057572
3834.81	0.00057513
3846.38	0.0005983
3857.95	0.00063331
3869.53	0.00056357
3881.1	0.00062817
3892.68	0.0005352
3904.25	0.00061097
3915.82	0.00055732
3927.4	0.00062416
3938.97	0.0006612
3950.55	0.0006653
3962.12	0.00063878
3973.69	0.000666
3985.27	0.0007454
3996.84	0.0008273
