Infrared Spectrum: 2-Acetylcyclopentanone
Formula: C 7 H 10 O 2
CAS: 1670-46-8
State: gas
Origin: EPA-IR VAPOR PHASE LIBRARY
1/CM	ABSORBANCE
549.9	0.0041224
559.547	0.0051624
569.193	0.0048124
578.84	0.0039724
588.486	0.0032624
598.133	0.0025324
607.779	0.0018824
617.426	0.0016724
627.072	0.0015724
636.719	0.0016924
646.365	0.0013224
656.012	0.0010624
665.658	0.0009696
675.305	0.000809
684.951	0.0007389
694.598	0.0010524
704.245	0.0010032
713.891	0.0009815
723.538	0.0008511
733.184	0.0008657
742.831	0.0007856
752.477	0.0008603
762.124	0.0011824
771.77	0.0013724
781.417	0.0021424
791.063	0.0029624
800.71	0.0039624
810.356	0.0051624
820.003	0.0062424
829.649	0.0066524
839.296	0.0062324
848.943	0.0057324
858.589	0.0059124
868.236	0.0055424
877.882	0.0048924
887.529	0.0039124
897.175	0.0037324
906.822	0.0039824
916.468	0.0048524
926.115	0.0053724
935.761	0.0047624
945.408	0.0029324
955.054	0.0030524
964.701	0.0037324
974.347	0.0036624
983.994	0.0030524
993.64	0.0026024
1003.29	0.0026724
1012.93	0.0025824
1022.58	0.0024224
1032.23	0.0023224
1041.87	0.0022424
1051.52	0.0025824
1061.17	0.0031224
1070.81	0.0033424
1080.46	0.0039024
1090.11	0.0052024
1099.75	0.0084124
1109.4	0.0140624
1119.05	0.0189424
1128.69	0.0211924
1138.34	0.0199724
1147.99	0.0174824
1157.63	0.0155424
1167.28	0.0144424
1176.92	0.0126524
1186.57	0.0105524
1196.22	0.0111924
1205.86	0.0153224
1215.51	0.0205224
1225.16	0.0253924
1234.8	0.0267424
1244.45	0.0225524
1254.1	0.0171424
1263.74	0.0154024
1273.39	0.0159424
1283.04	0.0159124
1292.68	0.0141324
1302.33	0.0117124
1311.98	0.0113424
1321.62	0.0117124
1331.27	0.0115624
1340.92	0.0120024
1350.56	0.0162224
1360.21	0.0208624
1369.86	0.0209424
1379.5	0.0159524
1389.15	0.0132724
1398.79	0.0121324
1408.44	0.0117924
1418.09	0.0120324
1427.73	0.0109224
1437.38	0.0092824
1447.03	0.0086124
1456.67	0.0079624
1466.32	0.0070124
1475.97	0.0054524
1485.61	0.0045024
1495.26	0.0039224
1504.91	0.0040524
1514.55	0.0042124
1524.2	0.0046324
1533.85	0.0050724
1543.49	0.0059824
1553.14	0.0073024
1562.79	0.0098624
1572.43	0.0135324
1582.08	0.0180324
1591.73	0.0218024
1601.37	0.0245424
1611.02	0.0278824
1620.67	0.0320024
1630.31	0.0334924
1639.96	0.0315124
1649.6	0.0286624
1659.25	0.0284924
1668.9	0.0296724
1678.54	0.0285424
1688.19	0.0244024
1697.84	0.0214424
1707.48	0.0276424
1717.13	0.0449024
1726.78	0.0539224
1736.42	0.0458224
1746.07	0.0350124
1755.72	0.0349424
1765.36	0.0311824
1775.01	0.0175824
1784.66	0.0081824
1794.3	0.0046324
1803.95	0.0030724
1813.6	0.0022524
1823.24	0.0015324
1832.89	0.0012224
1842.54	0.0010424
1852.18	0.0008767
1861.83	0.0008057
1871.47	0.0007164
1881.12	0.0005549
1890.77	0.0005527
1900.41	0.0005121
1910.06	0.000511
1919.71	0.0004746
1929.35	0.0004918
1939	0.0004166
1948.65	0.0004354
1958.29	0.0003742
1967.94	0.0003729
1977.59	0.000326
1987.23	0.0003586
1996.88	0.0002405
2006.53	0.0001995
2016.17	0.0001407
2025.82	0.0001884
2035.47	0.000159
2045.11	0.000195
2054.76	0.0001582
2064.41	0.0001574
2074.05	9.347e-05
2083.7	0.0001743
2093.35	0.00010066
2102.99	0.00012717
2112.64	8.362e-05
2122.28	0.0001325
2131.93	0.0001663
2141.58	0.00011527
2151.22	0.00010309
2160.87	0.00010756
2170.52	9.802e-05
2180.16	0.0001506
2189.81	0.0001446
2199.46	0.00012695
2209.1	0.0001614
2218.75	0.0002169
2228.4	0.000215
2238.04	0.000241
2247.69	0.0002898
2257.34	0.0002858
2266.98	0.0002865
2276.63	0.0003896
2286.28	0.0003229
2295.92	0.0004321
2305.57	0.0004394
2315.22	0.0004677
2324.86	0.000384
2334.51	0.0003909
2344.16	0.0003177
2353.8	0.0002389
2363.45	0.0003741
2373.09	0.0002197
2382.74	0.0001668
2392.39	0.0002249
2402.03	0.0001481
2411.68	0.0002363
2421.33	0.0002477
2430.97	0.0002334
2440.62	0.000303
2450.27	0.0003077
2459.91	0.0002686
2469.56	0.0003038
2479.21	0.0003444
2488.85	0.0002835
2498.5	0.0002558
2508.15	0.0003024
2517.79	0.0002868
2527.44	0.0002848
2537.09	0.0002544
2546.73	0.0002863
2556.38	0.0003561
2566.03	0.0002092
2575.67	0.0002472
2585.32	0.0004222
2594.96	0.0004376
2604.61	0.0003478
2614.26	0.0004698
2623.9	0.000369
2633.55	0.0003422
2643.2	0.0004958
2652.84	0.0004301
2662.49	0.0005593
2672.14	0.0005078
2681.78	0.0007215
2691.43	0.0005568
2701.08	0.0005946
2710.72	0.0006072
2720.37	0.000626
2730.02	0.0006989
2739.66	0.0008263
2749.31	0.0007733
2758.96	0.0009732
2768.6	0.0010624
2778.25	0.0011024
2787.9	0.0010924
2797.54	0.0012724
2807.19	0.0015924
2816.84	0.0019224
2826.48	0.0024224
2836.13	0.0030624
2845.77	0.0041924
2855.42	0.0060524
2865.07	0.0077124
2874.71	0.0091024
2884.36	0.0106024
2894.01	0.0114324
2903.65	0.0112524
2913.3	0.0118724
2922.95	0.0133224
2932.59	0.0144124
2942.24	0.0153524
2951.89	0.0174724
2961.53	0.0224024
2971.18	0.0274324
2980.83	0.0247124
2990.47	0.0147324
3000.12	0.0073824
3009.77	0.0051024
3019.41	0.0044424
3029.06	0.0036224
3038.71	0.0029824
3048.35	0.0026524
3058	0.0024324
3067.64	0.0022924
3077.29	0.0020024
3086.94	0.0017624
3096.58	0.0018124
3106.23	0.0013824
3115.88	0.0012624
3125.52	0.0012624
3135.17	0.0012124
3144.82	0.0011224
3154.46	0.0010724
3164.11	0.0010261
3173.76	0.0006235
3183.4	0.00085
3193.05	0.0009257
3202.7	0.0006629
3212.34	0.0008729
3221.99	0.00076
3231.64	0.0008431
3241.28	0.0008638
3250.93	0.0008584
3260.58	0.0006119
3270.22	0.0006926
3279.87	0.000726
3289.52	0.0007159
3299.16	0.0005545
3308.81	0.0006828
3318.45	0.0007483
3328.1	0.0008207
3337.75	0.0005531
3347.39	0.0005747
3357.04	0.0007789
3366.69	0.0007999
3376.33	0.0006518
3385.98	0.0005475
3395.63	0.0003941
3405.27	0.0005921
3414.92	0.0006579
3424.57	0.0008003
3434.21	0.0009842
3443.86	0.000696
3453.51	0.0009523
3463.15	0.0008488
3472.8	0.0010924
3482.45	0.0008643
3492.09	0.0008777
3501.74	0.000616
3511.39	0.0005897
3521.03	0.0005826
3530.68	0.0004636
3540.33	0.0002088
3549.97	0.0003205
3559.62	3.2914e-05
3569.26	0.0002832
3578.91	0.0001836
3588.56	0.0002507
3598.2	0.0001691
3607.85	0.0003183
3617.5	4.567e-05
3627.14	0.0001693
3636.79	0.000205
3646.44	0.0001953
3656.08	0.0002221
3665.73	8.324e-05
3675.38	0.0001968
3685.02	0.0001689
3694.67	0.0001644
3704.32	2.16e-05
3713.96	0.0003072
3723.61	0.000245
3733.26	0.0001321
3742.9	0.000316
3752.55	0.00010998
3762.2	0.0001765
3771.84	0.0002782
3781.49	0.0003661
3791.13	0.0002649
3800.78	0.0004368
3810.43	0.0001416
3820.07	0.00011595
3829.72	0.0001886
3839.37	0.0002377
3849.01	0.0003775
3858.66	0.0002608
3868.31	0.0003544
3877.95	0.0002278
3887.6	0.0001525
3897.25	0.0001536
3906.89	0.0002901
3916.54	0.0003049
3926.19	0.0002771
3935.83	0.0003308
3945.48	0.0002959
3955.13	0.000138
3964.77	0.0003411
3974.42	0.0003076
3984.07	0.000307
3993.71	0.0003697
