Infrared Spectrum: 3-Benzenesulphonylthiophene
Formula: C 10 H 8 O 2 S 2
CAS: 16718-05-1
State: gas
Origin: EPA-IR VAPOR PHASE LIBRARY
1/CM	ABSORBANCE
549.8	0.024749
559.445	0.009839
569.09	0.009229
578.734	0.025219
588.379	0.097079
598.024	0.055679
607.669	0.011919
617.313	0.019819
626.958	0.054709
636.603	0.074669
646.248	0.022709
655.893	0.008069
665.537	0.009599
675.182	0.013559
684.827	0.028919
694.472	0.028789
704.116	0.019689
713.761	0.057089
723.406	0.067279
733.051	0.012869
742.695	0.010429
752.34	0.013509
761.985	0.008899
771.63	0.007299
781.275	0.010009
790.919	0.019849
800.564	0.019749
810.209	0.022189
819.854	0.024389
829.498	0.005319
839.143	0.003829
848.788	0.005579
858.433	0.010199
868.078	0.007639
877.722	0.002019
887.367	0.0017221
897.012	0.005189
906.657	0.003469
916.301	0.002089
925.946	0.002029
935.591	0.00080881
945.236	0.0016682
954.88	0.0014035
964.525	0.0014212
974.17	0.0010351
983.815	0.0014457
993.46	0.002659
1003.1	0.003139
1012.75	0.002489
1022.39	0.004929
1032.04	0.003829
1041.68	0.002809
1051.33	0.003259
1060.97	0.005749
1070.62	0.012329
1080.26	0.024459
1089.91	0.023409
1099.55	0.031929
1109.2	0.039919
1118.84	0.015029
1128.49	0.007649
1138.13	0.009589
1147.78	0.029059
1157.42	0.091899
1167.07	0.105999
1176.71	0.039919
1186.36	0.015539
1196	0.013769
1205.64	0.024619
1215.29	0.015709
1224.93	0.006429
1234.58	0.005119
1244.22	0.003719
1253.87	0.003739
1263.51	0.004399
1273.16	0.004189
1282.8	0.004709
1292.45	0.004689
1302.09	0.006769
1311.74	0.010149
1321.38	0.016209
1331.03	0.031339
1340.67	0.062609
1350.32	0.080399
1359.96	0.034559
1369.61	0.011159
1379.25	0.006969
1388.9	0.005679
1398.54	0.009479
1408.18	0.017309
1417.83	0.010869
1427.47	0.005389
1437.12	0.007549
1446.76	0.011479
1456.41	0.007229
1466.05	0.004419
1475.7	0.006329
1485.34	0.008579
1494.99	0.010169
1504.63	0.007789
1514.28	0.002719
1523.92	0.002229
1533.57	0.0017769
1543.21	0.001909
1552.86	0.001859
1562.5	0.003249
1572.15	0.005489
1581.79	0.003809
1591.44	0.002979
1601.08	0.0016659
1610.73	0.0017188
1620.37	0.0013873
1630.01	0.0013532
1639.66	0.0012309
1649.3	0.0014358
1658.95	0.001495
1668.59	0.001819
1678.24	0.002259
1687.88	0.001467
1697.53	0.0012031
1707.17	0.0011279
1716.82	0.001481
1726.46	0.0014232
1736.11	0.0013103
1745.75	0.001839
1755.4	0.002229
1765.04	0.002269
1774.69	0.001859
1784.33	0.0017312
1793.98	0.002149
1803.62	0.002759
1813.27	0.002039
1822.91	0.0015606
1832.55	0.0014839
1842.2	0.001384
1851.84	0.0011222
1861.49	0.0011827
1871.13	0.0013056
1880.78	0.0016323
1890.42	0.002059
1900.07	0.002119
1909.71	0.001939
1919.36	0.0012834
1929	0.0014393
1938.65	0.0013913
1948.29	0.0016872
1957.94	0.002359
1967.58	0.002079
1977.23	0.0017055
1986.87	0.0012946
1996.52	0.0014055
2006.16	0.0012179
2015.81	0.0010765
2025.45	0.0009116
2035.1	0.0010756
2044.74	0.001029
2054.38	0.00088484
2064.03	0.0007737
2073.67	0.00086455
2083.32	0.001064
2092.96	0.0011606
2102.61	0.0012799
2112.25	0.0011786
2121.9	0.0009369
2131.54	0.0010422
2141.19	0.0007408
2150.83	0.0008931
2160.48	0.0013331
2170.12	0.0012916
2179.77	0.0012849
2189.41	0.0009941
2199.06	0.0010485
2208.7	0.0010377
2218.35	0.0010115
2227.99	0.0012853
2237.64	0.0014189
2247.28	0.0015854
2256.92	0.0012761
2266.57	0.0014401
2276.21	0.0012553
2285.86	0.0014448
2295.5	0.0012046
2305.15	0.0010404
2314.79	0.001281
2324.44	0.0015316
2334.08	0.001123
2343.73	0.0011922
2353.37	0.0012577
2363.02	0.001035
2372.66	0.0011067
2382.31	0.0012041
2391.95	0.0012939
2401.6	0.0013422
2411.24	0.0011211
2420.89	0.0010356
2430.53	0.0012643
2440.18	0.0011793
2449.82	0.00080997
2459.47	0.0010947
2469.11	0.0009788
2478.75	0.0013109
2488.4	0.0010533
2498.04	0.0013998
2507.69	0.0012262
2517.33	0.0012232
2526.98	0.000525
2536.62	0.0010363
2546.27	0.000653
2555.91	0.0008942
2565.56	0.0008948
2575.2	0.0010377
2584.85	0.0011307
2594.49	0.00078654
2604.14	0.0009442
2613.78	0.0009425
2623.43	0.0009522
2633.07	0.00082056
2642.72	0.0009117
2652.36	0.00078632
2662.01	0.0010761
2671.65	0.0011713
2681.29	0.0011327
2690.94	0.001117
2700.58	0.0013766
2710.23	0.0007514
2719.87	0.001002
2729.52	0.0007232
2739.16	0.00082963
2748.81	0.0012291
2758.45	0.00081882
2768.1	0.0007572
2777.74	0.001112
2787.39	0.0011628
2797.03	0.001042
2806.68	0.0012042
2816.32	0.001002
2825.97	0.000797969
2835.61	0.000377
2845.26	0.0013675
2854.9	0.0013982
2864.55	0.00077971
2874.19	0.00083302
2883.84	0.0015711
2893.48	0.0008371
2903.12	0.00081859
2912.77	0.00079911
2922.41	0.0008939
2932.06	0.000595
2941.7	0.0010248
2951.35	0.0009128
2960.99	0.00056
2970.64	0.000599
2980.28	0.0011528
2989.93	0.001274
2999.57	0.0014594
3009.22	0.0015033
3018.86	0.001979
3028.51	0.002389
3038.15	0.002899
3047.8	0.003279
3057.44	0.005179
3067.09	0.010699
3076.73	0.014409
3086.38	0.007079
3096.02	0.005249
3105.67	0.003649
3115.31	0.003889
3124.95	0.005209
3134.6	0.001909
3144.24	0.0006939
3153.89	0.0009028
3163.53	0.0009747
3173.18	0.0009015
3182.82	0.0011897
3192.47	0.0011882
3202.11	0.0012036
3211.76	0.0011231
3221.4	0.000521
3231.05	0.000775
3240.69	0.0010297
3250.34	0.0009025
3259.98	0.0007398
3269.63	0.000636
3279.27	0.0012813
3288.92	0.000594
3298.56	0.0010429
3308.21	0.000687
3317.85	0.0014473
3327.49	0.000451
3337.14	0.000202
3346.78	0.0012025
3356.43	0.0011827
3366.07	0.0010186
3375.72	0.00078475
3385.36	0.0009851
3395.01	0.000373
3404.65	0.000666
3414.3	0.000318
3423.94	0.0009522
3433.59	0.000901
3443.23	0.00024
3452.88	0.00080861
3462.52	0.000494
3472.17	0.000424
3481.81	0.000627
3491.46	0.0012567
3501.1	0.0011183
3510.75	0.0009797
3520.39	0.0009298
3530.04	0.000791307
3539.68	0.0009153
3549.32	0.0008364
3558.97	0.000561
3568.61	0.000483
3578.26	0.00083599
3587.9	0.0007118
3597.55	0.0009495
3607.19	0.000649
3616.84	0.0012585
3626.48	0.00086257
3636.13	4.9e-05
3645.77	0.00081422
3655.42	0.000796122
3665.06	0.00086411
3674.71	0.000659
3684.35	0.000598
3694	0.0007089
3703.64	0.0011446
3713.29	0.000537
3722.93	0.00081469
3732.58	0.00084453
3742.22	0.0013389
3751.86	0.0012864
3761.51	1.4e-05
3771.15	0.0011682
3780.8	0.000465
3790.44	0.000702
3800.09	0.0012285
3809.73	0.0007398
3819.38	0.000488
3829.02	0.00088382
3838.67	0.0009888
3848.31	0.000618
3857.96	0.0007707
3867.6	0.00085047
3877.25	0.0011867
3886.89	0.000328
3896.54	0.0010534
3906.18	0.0009433
3915.83	0.000546
3925.47	0.00081551
3935.12	0.000649
3944.76	0.0011918
3954.41	0.000645
3964.05	0.000495
3973.69	0.00078498
3983.34	0.0015985
3992.98	0.00080871
