Infrared Spectrum: m-QUINQUEPHENYL
Formula: C30 H22
CAS: 16716-13-5
State: SOLID (KBr PELLET)
Melting point: 117 C
Class: COBLENTZ
Instrument: Not specified, most likely a prism, grating, or hybrid spectrometer.
Sampling: TRANSMISSION
Resolution: 4
Origin: UNION CARBIDE CORPORATION (CARBON PRODUCTS DIVISION)
MICROMETERS	TRANSMITTANCE
2.053	0.397
2.08623	0.402
2.11946	0.405
2.1527	0.406
2.18593	0.413
2.21916	0.428
2.25239	0.437
2.28563	0.442
2.31886	0.45
2.35209	0.457
2.38532	0.465
2.41855	0.472
2.45179	0.473
2.48502	0.482
2.51825	0.49
2.55148	0.496
2.58471	0.498
2.61795	0.512
2.65118	0.518
2.68441	0.521
2.71764	0.524
2.75088	0.534
2.78411	0.55
2.81734	0.568
2.85057	0.574
2.8838	0.586
2.91704	0.594
2.95027	0.597
2.9835	0.598
3.01673	0.6
3.04996	0.601
3.0832	0.605
3.11643	0.612
3.14966	0.616
3.18289	0.617
3.21612	0.614
3.24936	0.586
3.28259	0.461
3.31582	0.444
3.34905	0.562
3.38229	0.593
3.41552	0.61
3.44875	0.625
3.48198	0.636
3.51521	0.64
3.54845	0.645
3.58168	0.653
3.61491	0.665
3.64814	0.666
3.68138	0.67
3.71461	0.673
3.74784	0.678
3.78107	0.68
3.8143	0.682
3.84754	0.685
3.88077	0.69
3.914	0.698
3.94723	0.702
3.98046	0.706
4.0137	0.709
4.04693	0.713
4.08016	0.714
4.11339	0.72
4.14663	0.722
4.17986	0.725
4.21309	0.728
4.24632	0.726
4.27955	0.728
4.31279	0.728
4.34602	0.733
4.37925	0.745
4.41248	0.749
4.44571	0.752
4.47895	0.754
4.51218	0.757
4.54541	0.761
4.57864	0.765
4.61188	0.768
4.64511	0.773
4.67834	0.774
4.71157	0.777
4.7448	0.78
4.77804	0.782
4.81127	0.785
4.8445	0.786
4.87773	0.79
4.91096	0.794
4.9442	0.794
4.97743	0.796
5.01066	0.8
5.04389	0.801
5.07713	0.797
5.11036	0.781
5.14359	0.773
5.17682	0.786
5.21005	0.794
5.24329	0.796
5.27652	0.784
5.30975	0.782
5.34298	0.786
5.37621	0.792
5.40945	0.797
5.44268	0.802
5.47591	0.8
5.50914	0.793
5.54237	0.794
5.57561	0.801
5.60884	0.801
5.64207	0.802
5.6753	0.812
5.70854	0.82
5.74177	0.821
5.775	0.822
5.80823	0.821
5.84146	0.82
5.8747	0.821
5.90793	0.82
5.94116	0.821
5.97439	0.834
6.00763	0.84
6.04086	0.844
6.07409	0.852
6.10732	0.853
6.14055	0.841
6.17379	0.797
6.20702	0.56
6.24025	0.432
6.27348	0.626
6.30671	0.57
6.33995	0.501
6.37318	0.646
6.40641	0.749
6.43964	0.785
6.47288	0.792
6.50611	0.821
6.53934	0.83
6.57257	0.833
6.6058	0.83
6.63904	0.797
6.67227	0.738
6.7055	0.61
6.73873	0.466
6.77196	0.502
6.8052	0.532
6.83843	0.728
6.87166	0.722
6.90489	0.713
6.93813	0.793
6.97136	0.79
7.00459	0.778
7.03782	0.805
7.07105	0.768
7.10429	0.525
7.13752	0.686
7.17075	0.685
7.20398	0.73
7.23721	0.753
7.27045	0.797
7.30368	0.84
7.33691	0.845
7.37014	0.854
7.40338	0.862
7.43661	0.862
7.46984	0.853
7.50307	0.852
7.5363	0.856
7.56954	0.85
7.60277	0.844
7.636	0.833
7.66923	0.845
7.70246	0.84
7.7357	0.845
7.76893	0.853
7.80216	0.857
7.83539	0.857
7.86863	0.852
7.90186	0.852
7.93509	0.853
7.96832	0.856
8.00155	0.868
8.03479	0.873
8.06802	0.876
8.10125	0.877
8.13448	0.877
8.16771	0.874
8.20095	0.861
8.23418	0.857
8.26741	0.869
8.30064	0.877
8.33388	0.882
8.36711	0.896
8.40034	0.888
8.43357	0.872
8.4668	0.87
8.50004	0.87
8.53327	0.852
8.5665	0.861
8.59973	0.865
8.63296	0.865
8.6662	0.869
8.69943	0.877
8.73266	0.884
8.76589	0.888
8.79913	0.889
8.83236	0.889
8.86559	0.89
8.89882	0.89
8.93205	0.89
8.96529	0.885
8.99852	0.881
9.03175	0.88
9.06498	0.877
9.09821	0.872
9.13145	0.829
9.16468	0.781
9.19791	0.749
9.23114	0.804
9.26438	0.764
9.29761	0.704
9.33084	0.786
9.36407	0.838
9.3973	0.866
9.43054	0.876
9.46377	0.892
9.497	0.896
9.53023	0.88
9.56346	0.88
9.5967	0.889
9.62993	0.884
9.66316	0.837
9.69639	0.85
9.72963	0.869
9.76286	0.866
9.79609	0.87
9.82932	0.872
9.86255	0.798
9.89579	0.826
9.92902	0.844
9.96225	0.85
9.99548	0.846
10.0287	0.869
10.0619	0.878
10.0952	0.88
10.1284	0.881
10.1616	0.884
10.1949	0.884
10.2281	0.884
10.2613	0.88
10.2946	0.882
10.3278	0.88
10.361	0.877
10.3943	0.876
10.4275	0.885
10.4607	0.89
10.494	0.896
10.5272	0.898
10.5604	0.898
10.5937	0.9
10.6269	0.9
10.6601	0.9
10.6934	0.9
10.7266	0.9
10.7598	0.898
10.7931	0.898
10.8263	0.896
10.8595	0.89
10.8927	0.884
10.926	0.864
10.9592	0.846
10.9924	0.849
11.0257	0.817
11.0589	0.818
11.0921	0.822
11.1254	0.82
11.1586	0.809
11.1918	0.809
11.2251	0.797
11.2583	0.613
11.2915	0.396
11.3248	0.397
11.358	0.536
11.3912	0.753
11.4245	0.828
11.4577	0.845
11.4909	0.862
11.5242	0.872
11.5574	0.876
11.5906	0.876
11.6239	0.876
11.6571	0.872
11.6903	0.877
11.7236	0.877
11.7568	0.88
11.79	0.881
11.8233	0.881
11.8565	0.881
11.8897	0.88
11.9229	0.88
11.9562	0.88
11.9894	0.882
12.0226	0.882
12.0559	0.882
12.0891	0.884
12.1223	0.884
12.1556	0.884
12.1888	0.882
12.222	0.882
12.2553	0.881
12.2885	0.87
12.3217	0.809
12.355	0.692
12.3882	0.697
12.4214	0.688
12.4547	0.745
12.4879	0.77
12.5211	0.78
12.5544	0.78
12.5876	0.764
12.6208	0.676
12.6541	0.561
12.6873	0.586
12.7205	0.641
12.7538	0.634
12.787	0.588
12.8202	0.342
12.8534	0.181
12.8867	0.496
12.9199	0.7
12.9531	0.736
12.9864	0.74
13.0196	0.725
13.0528	0.678
13.0861	0.605
13.1193	0.497
13.1525	0.398
13.1858	0.309
13.219	0.205
13.2522	0.142
13.2855	0.101
13.3187	0.077
13.3519	0.053
13.3852	0.058
13.4184	0.228
13.4516	0.436
13.4849	0.532
13.5181	0.632
13.5513	0.692
13.5846	0.72
13.6178	0.742
13.651	0.762
13.6843	0.762
13.7175	0.712
13.7507	0.672
13.7839	0.741
13.8172	0.78
13.8504	0.792
13.8836	0.796
13.9169	0.8
13.9501	0.8
13.9833	0.8
14.0166	0.79
14.0498	0.772
14.083	0.725
14.1163	0.609
14.1495	0.414
14.1827	0.353
14.216	0.31
14.2492	0.23
14.2824	0.165
14.3157	0.129
14.3489	0.1
14.3821	0.102
14.4154	0.138
14.4486	0.174
14.4818	0.254
14.5151	0.334
14.5483	0.465
14.5815	0.544
14.6148	0.598
14.648	0.641
14.6812	0.657
14.7144	0.669
14.7477	0.676
14.7809	0.681
14.8141	0.681
14.8474	0.681
14.8806	0.68
14.9138	0.677
14.9471	0.672
14.9803	0.653
15.0135	0.622
15.0468	0.664
15.08	0.676
