Infrared Spectrum: 2-Methylbenzyl isothiocyanate
Formula: C 9 H 9 N S
CAS: 16735-69-6
State: gas
Origin: EPA-IR VAPOR PHASE LIBRARY
1/CM	ABSORBANCE
549.8	0.008759
559.445	0.009759
569.09	0.010549
578.734	0.010939
588.379	0.011439
598.024	0.012219
607.669	0.012149
617.313	0.009329
626.958	0.007949
636.603	0.006699
646.248	0.005179
655.893	0.005099
665.537	0.007019
675.182	0.012049
684.827	0.016519
694.472	0.014019
704.116	0.011799
713.761	0.020399
723.406	0.047579
733.051	0.061539
742.695	0.042159
752.34	0.020729
761.985	0.010479
771.63	0.005789
781.275	0.003489
790.919	0.002779
800.564	0.001959
810.209	0.001989
819.854	0.003039
829.498	0.006009
839.143	0.006029
848.788	0.003919
858.433	0.003499
868.078	0.002919
877.722	0.002419
887.367	0.002259
897.012	0.002579
906.657	0.002829
916.301	0.003379
925.946	0.003969
935.591	0.004629
945.236	0.003879
954.88	0.003339
964.525	0.002849
974.17	0.002739
983.815	0.003169
993.46	0.002729
1003.1	0.002869
1012.75	0.002729
1022.39	0.003119
1032.04	0.004319
1041.68	0.005729
1051.33	0.006809
1060.97	0.005239
1070.62	0.003539
1080.26	0.002779
1089.91	0.002939
1099.55	0.003719
1109.2	0.004039
1118.84	0.004639
1128.49	0.004209
1138.13	0.003439
1147.78	0.003709
1157.42	0.004419
1167.07	0.004809
1176.71	0.005789
1186.36	0.005669
1196	0.005149
1205.64	0.005649
1215.29	0.005829
1224.93	0.005229
1234.58	0.005309
1244.22	0.005189
1253.87	0.005299
1263.51	0.005989
1273.16	0.007749
1282.8	0.009959
1292.45	0.011519
1302.09	0.013539
1311.74	0.019479
1321.38	0.032389
1331.03	0.057979
1340.67	0.071709
1350.32	0.043369
1359.96	0.019679
1369.61	0.012859
1379.25	0.010199
1388.9	0.009619
1398.54	0.007009
1408.18	0.005409
1417.83	0.006039
1427.47	0.008389
1437.12	0.014009
1446.76	0.024469
1456.41	0.033669
1466.05	0.028309
1475.7	0.016679
1485.34	0.014359
1494.99	0.014839
1504.63	0.009849
1514.28	0.004829
1523.92	0.003409
1533.57	0.003009
1543.21	0.002839
1552.86	0.002769
1562.5	0.002829
1572.15	0.003049
1581.79	0.004009
1591.44	0.005189
1601.08	0.006279
1610.73	0.005469
1620.37	0.003499
1630.01	0.002449
1639.66	0.002059
1649.3	0.001849
1658.95	0.001789
1668.59	0.002019
1678.24	0.001929
1687.88	0.001879
1697.53	0.001979
1707.17	0.001949
1716.82	0.001889
1726.46	0.001749
1736.11	0.0016822
1745.75	0.0015555
1755.4	0.0016625
1765.04	0.001809
1774.69	0.002089
1784.33	0.002489
1793.98	0.002869
1803.62	0.002759
1813.27	0.002549
1822.91	0.002789
1832.55	0.003259
1842.2	0.003179
1851.84	0.003229
1861.49	0.003959
1871.13	0.004979
1880.78	0.006319
1890.42	0.007619
1900.07	0.009369
1909.71	0.011139
1919.36	0.012909
1929	0.015999
1938.65	0.021059
1948.29	0.027329
1957.94	0.034189
1967.58	0.044809
1977.23	0.060619
1986.87	0.082739
1996.52	0.113289
2006.16	0.153789
2015.81	0.204899
2025.45	0.262689
2035.1	0.319709
2044.74	0.364299
2054.38	0.371989
2064.03	0.332979
2073.67	0.279969
2083.32	0.219869
2092.96	0.160919
2102.61	0.119369
2112.25	0.093409
2121.9	0.077579
2131.54	0.067349
2141.19	0.063049
2150.83	0.064229
2160.48	0.068299
2170.12	0.069709
2179.77	0.062949
2189.41	0.050119
2199.06	0.039999
2208.7	0.033279
2218.35	0.027019
2227.99	0.020579
2237.64	0.015729
2247.28	0.012909
2256.92	0.010899
2266.57	0.009079
2276.21	0.007419
2285.86	0.006129
2295.5	0.005159
2305.15	0.004429
2314.79	0.003939
2324.44	0.003689
2334.08	0.003319
2343.73	0.002909
2353.37	0.002569
2363.02	0.002269
2372.66	0.002069
2382.31	0.002029
2391.95	0.001909
2401.6	0.0016783
2411.24	0.0015894
2420.89	0.0016656
2430.53	0.0016257
2440.18	0.0015196
2449.82	0.0015868
2459.47	0.0015138
2469.11	0.0016529
2478.75	0.001739
2488.4	0.001809
2498.04	0.001899
2507.69	0.001919
2517.33	0.001959
2526.98	0.001939
2536.62	0.002119
2546.27	0.002059
2555.91	0.002189
2565.56	0.002269
2575.2	0.002189
2584.85	0.002219
2594.49	0.002109
2604.14	0.002189
2613.78	0.001939
2623.43	0.001829
2633.07	0.0016631
2642.72	0.001699
2652.36	0.001779
2662.01	0.001889
2671.65	0.002019
2681.29	0.002119
2690.94	0.002409
2700.58	0.002809
2710.23	0.003229
2719.87	0.003719
2729.52	0.004239
2739.16	0.004529
2748.81	0.004559
2758.45	0.004429
2768.1	0.004159
2777.74	0.004179
2787.39	0.004289
2797.03	0.004319
2806.68	0.004209
2816.32	0.003929
2825.97	0.003919
2835.61	0.004289
2845.26	0.004889
2854.9	0.006319
2864.55	0.008669
2874.19	0.012149
2883.84	0.015089
2893.48	0.015309
2903.12	0.013959
2912.77	0.014219
2922.41	0.017349
2932.06	0.021859
2941.7	0.023919
2951.35	0.023549
2960.99	0.021029
2970.64	0.017219
2980.28	0.014789
2989.93	0.011979
2999.57	0.009339
3009.22	0.010129
3018.86	0.016629
3028.51	0.021789
3038.15	0.018249
3047.8	0.014589
3057.44	0.016779
3067.09	0.021259
3076.73	0.023179
3086.38	0.016369
3096.02	0.008409
3105.67	0.005589
3115.31	0.003899
3124.95	0.002439
3134.6	0.0016135
3144.24	0.0012841
3153.89	0.0011371
3163.53	0.0010195
3173.18	0.0009257
3182.82	0.0006624
3192.47	0.000583
3202.11	0.000559
3211.76	0.000511
3221.4	0.000289
3231.05	0.000371
3240.69	0.000411
3250.34	0.000301
3259.98	0.000347
3269.63	0.000313
3279.27	0.000402
3288.92	0.000361
3298.56	0.000291
3308.21	6.9e-05
3317.85	0.000378
3327.49	0.000344
3337.14	0.000156
3346.78	0.000314
3356.43	0.000434
3366.07	0.000332
3375.72	0.000344
3385.36	0.000513
3395.01	0.000368
3404.65	0.000318
3414.3	0.000419
3423.94	0.000351
3433.59	0.000341
3443.23	0.000325
3452.88	0.000426
3462.52	0.000328
3472.17	0.000441
3481.81	0.000344
3491.46	0.000344
3501.1	0.000187
3510.75	0.000448
3520.39	0.000439
3530.04	0.000411
3539.68	0.000404
3549.32	0.000287
3558.97	0.00056
3568.61	0.000156
3578.26	0.0006265
3587.9	0.000445
3597.55	0.000488
3607.19	0.000468
3616.84	0.000436
3626.48	0.000545
3636.13	0.00057
3645.77	0.000438
3655.42	0.000436
3665.06	0.000424
3674.71	0.000604
3684.35	0.000304
3694	0.000493
3703.64	0.00071062
3713.29	0.000588
3722.93	0.000522
3732.58	0.000467
3742.22	0.0006694
3751.86	0.000697487
3761.51	0.0007903
3771.15	0.000391
3780.8	0.000532
3790.44	0.00068328
3800.09	0.0006583
3809.73	0.00078863
3819.38	0.00074046
3829.02	0.0006616
3838.67	0.000693626
3848.31	0.0008487
3857.96	0.0008079
3867.6	0.0009047
3877.25	0.0009242
3886.89	0.0009212
3896.54	0.0010792
3906.18	0.0013294
3915.83	0.0010723
3925.47	0.0009645
3935.12	0.0012621
3944.76	0.0012624
3954.41	0.0013065
3964.05	0.0015551
3973.69	0.0015933
3983.34	0.0015577
3992.98	0.001799
