Infrared Spectrum: Semicarbazide, 1-(5-nitro-2-furoyl)-3-thio-,
Formula: C6 H6 N4 O4 S
CAS: 1673-59-2
State: SOLID (NUJOL MULL)
Class: COBLENTZ III
Instrument: PERKIN-ELMER 21 (GRATING)
Instrument parameters: FILTER AT ABOUT 10 MICRONS
Resolution: 2
Origin: ABBOTT LABORATORIES
1/CM	TRANSMITTANCE
647	0.3984
656	0.4905
665	0.5558
674	0.5986
683	0.6407
692	0.6495
701	0.6493
710	0.6669
719	0.6664
728	0.688
737	0.5542
746	0.657
755	0.5915
764	0.516
773	0.7569
782	0.7739
791	0.7678
800	0.7225
809	0.4002
818	0.3267
827	0.5545
836	0.5275
845	0.6678
854	0.4151
863	0.694
872	0.7675
881	0.7752
890	0.7469
899	0.7504
908	0.776
917	0.7672
926	0.7568
935	0.7533
944	0.7261
953	0.6541
962	0.4715
971	0.5386
980	0.6872
989	0.7047
998	0.6777
1007	0.6226
1016	0.4009
1025	0.3875
1034	0.5473
1043	0.6137
1052	0.6221
1061	0.6085
1070	0.5457
1079	0.5553
1088	0.5229
1097	0.4814
1106	0.4679
1115	0.5027
1124	0.5128
1133	0.5017
1142	0.4915
1151	0.4817
1160	0.4746
1169	0.441
1178	0.3968
1187	0.4244
1196	0.4261
1205	0.4045
1214	0.4151
1223	0.3779
1232	0.2952
1241	0.2186
1250	0.1464
1259	0.0933
1268	0.0848
1277	0.13
1286	0.2657
1295	0.3843
1304	0.4011
1313	0.3348
1322	0.3915
1331	0.2979
1340	0.1387
1349	0.1067
1358	0.2361
1367	0.4023
1376	0.2008
1385	0.3023
1394	0.3641
1403	0.3806
1412	0.6336
1421	0.6303
1430	0.5355
1439	0.3993
1448	0.2649
1457	0.1768
1466	0.1321
1475	0.1247
1484	0.2512
1493	0.3554
1502	0.2596
1511	0.2
1520	0.1708
1529	0.103
1538	0.1636
1547	0.1648
1556	0.2291
1565	0.3475
1574	0.4383
1583	0.2747
1592	0.2589
1601	0.3166
1610	0.1808
1619	0.0965
1628	0.2138
1637	0.4365
1646	0.6123
1655	0.6148
1664	0.6007
1673	0.5414
1682	0.3462
1691	0.115
1700	0.1832
1709	0.3423
1718	0.4997
1727	0.7242
1736	0.7741
1745	0.7946
1754	0.807
1763	0.8123
1772	0.8132
1781	0.8096
1790	0.8089
1799	0.8156
1808	0.8204
1817	0.8203
1826	0.8202
1835	0.82
1844	0.8197
1853	0.8193
1862	0.8189
1871	0.8185
1880	0.8187
1889	0.8208
1898	0.8236
1907	0.8222
1916	0.8208
1925	0.8193
1934	0.8179
1943	0.8165
1952	0.8148
1961	0.8132
1970	0.8117
1979	0.8101
1988	0.8086
1997	0.8068
2006	0.805
2015	0.8033
2024	0.8015
2033	0.7998
2042	0.7982
2051	0.7966
2060	0.7951
2069	0.7933
2078	0.7916
2087	0.7898
2096	0.7881
2105	0.7861
2114	0.7839
2123	0.7817
2132	0.7794
2141	0.7771
2150	0.7748
2159	0.7725
2168	0.7705
2177	0.7688
2186	0.767
2195	0.7653
2204	0.7636
2213	0.7619
2222	0.7603
2231	0.7586
2240	0.7569
2249	0.7551
2258	0.7533
2267	0.7516
2276	0.7498
2285	0.7481
2294	0.7471
2303	0.7468
2312	0.7465
2321	0.7462
2330	0.7457
2339	0.7454
2348	0.745
2357	0.7446
2366	0.7438
2375	0.7393
2384	0.7352
2393	0.7323
2402	0.7295
2411	0.7273
2420	0.7256
2429	0.7239
2438	0.7223
2447	0.7211
2456	0.7199
2465	0.7187
2474	0.7176
2483	0.715
2492	0.7116
2501	0.7044
2510	0.6977
2519	0.6943
2528	0.6918
2537	0.6892
2546	0.6861
2555	0.6809
2564	0.6756
2573	0.6696
2582	0.6636
2591	0.6575
2600	0.652
2609	0.6466
2618	0.6411
2627	0.6348
2636	0.6285
2645	0.6223
2654	0.6161
2663	0.608
2672	0.6
2681	0.5921
2690	0.5843
2699	0.5764
2708	0.5662
2717	0.5557
2726	0.5437
2735	0.5277
2744	0.5121
2753	0.4995
2762	0.487
2771	0.4746
2780	0.4579
2789	0.4402
2798	0.4064
2807	0.3719
2816	0.3263
2825	0.2635
2834	0.2011
2843	0.1391
2852	0.0775
2861	0.0338
2870	0.0283
2879	0.0236
2888	0.0182
2897	0.0128
2906	0.0086
2915	0.0082
2924	0.0084
2933	0.0095
2942	0.0135
2951	0.0206
2960	0.0336
2969	0.0663
2978	0.0988
2987	0.1311
2996	0.1632
3005	0.1951
3014	0.2211
3023	0.2243
3032	0.2227
3041	0.2116
3050	0.1987
3059	0.1859
3068	0.1731
3077	0.1605
3086	0.1478
3095	0.1369
3104	0.1303
3113	0.1267
3122	0.1252
3131	0.1261
3140	0.1276
3149	0.1311
3158	0.1385
3167	0.1496
3176	0.1635
3185	0.1918
3194	0.2191
3203	0.2469
3212	0.2745
3221	0.3019
3230	0.3292
3239	0.3485
3248	0.3474
3257	0.3376
3266	0.3245
3275	0.3115
3284	0.2985
3293	0.2856
3302	0.2738
3311	0.2734
3320	0.2755
3329	0.2952
3338	0.3366
3347	0.3777
3356	0.4187
3365	0.4593
3374	0.4999
3383	0.5364
3392	0.5386
3401	0.5374
3410	0.535
3419	0.5152
3428	0.4821
3437	0.4492
3446	0.4164
3455	0.3839
3464	0.3514
3473	0.3309
3482	0.3317
3491	0.4659
3500	0.6387
3509	0.6588
3518	0.6603
3527	0.6605
3536	0.6606
3545	0.6599
3554	0.6591
3563	0.6581
3572	0.6567
3581	0.6553
3590	0.6539
3599	0.6525
3608	0.6511
3617	0.6496
3626	0.6482
3635	0.6465
3644	0.6447
3653	0.643
3662	0.6413
3671	0.6397
3680	0.6378
3689	0.6358
3698	0.6337
3707	0.6317
3716	0.6296
3725	0.6275
3734	0.6254
3743	0.6231
3752	0.6206
3761	0.6182
3770	0.6158
3779	0.6135
3788	0.611
3797	0.6087
3806	0.6064
3815	0.6044
3824	0.6024
3833	0.6005
3842	0.5985
3851	0.5965
3860	0.5945
3869	0.5926
3878	0.5906
3887	0.5887
3896	0.5868
3905	0.5849
3914	0.5831
3923	0.5814
3932	0.5796
3941	0.5778
3950	0.576
3959	0.5743
3968	0.5726
3977	0.5709
3986	0.5692
3995	0.5675
