Infrared Spectrum: 3-Chlorobenzhydrazide
Formula: C 7 H 7 Cl N 2 O
CAS: 1673-47-8
State: gas
Origin: EPA-IR VAPOR PHASE LIBRARY
1/CM	ABSORBANCE
549.8	0.00416
559.445	0.00373
569.09	0.00376
578.735	0.00328
588.38	0.00331
598.025	0.00345
607.67	0.00325
617.315	0.00348
626.96	0.00308
636.605	0.00329
646.251	0.00377
655.896	0.00462
665.541	0.00552
675.186	0.00787
684.831	0.00783
694.476	0.0058
704.121	0.00453
713.766	0.00513
723.411	0.00819
733.056	0.01602
742.701	0.02929
752.346	0.02724
761.991	0.0155
771.636	0.00976
781.281	0.00841
790.926	0.00935
800.571	0.00925
810.216	0.00576
819.861	0.0043
829.507	0.00411
839.152	0.00454
848.797	0.00526
858.442	0.00622
868.087	0.00818
877.732	0.01069
887.377	0.01107
897.022	0.01005
906.667	0.00917
916.312	0.00893
925.957	0.01277
935.602	0.01988
945.247	0.02386
954.892	0.01707
964.537	0.00798
974.182	0.0048
983.827	0.00353
993.472	0.00308
1003.12	0.00282
1012.76	0.00252
1022.41	0.002114
1032.05	0.0019237
1041.7	0.0020682
1051.34	0.00272
1060.99	0.00388
1070.63	0.00579
1080.28	0.00818
1089.92	0.01001
1099.57	0.00945
1109.21	0.00599
1118.86	0.00362
1128.5	0.00253
1138.15	0.002131
1147.79	0.00238
1157.44	0.00291
1167.08	0.0045
1176.73	0.00519
1186.37	0.00486
1196.02	0.00397
1205.66	0.00366
1215.31	0.00387
1224.95	0.00454
1234.6	0.00573
1244.24	0.00904
1253.89	0.01827
1263.53	0.02872
1273.18	0.03063
1282.82	0.03613
1292.47	0.031
1302.11	0.01664
1311.76	0.00795
1321.4	0.00528
1331.05	0.00448
1340.69	0.0043
1350.34	0.00416
1359.98	0.00387
1369.63	0.00363
1379.27	0.0038
1388.92	0.00458
1398.56	0.00698
1408.21	0.01114
1417.85	0.0157
1427.5	0.02449
1437.14	0.04042
1446.79	0.04998
1456.43	0.04153
1466.08	0.03061
1475.73	0.02594
1485.37	0.02396
1495.02	0.019
1504.66	0.01254
1514.31	0.00855
1523.95	0.00666
1533.6	0.00598
1543.24	0.00652
1552.89	0.00953
1562.53	0.01608
1572.18	0.01939
1581.82	0.0143
1591.47	0.0107
1601.11	0.00966
1610.76	0.00956
1620.4	0.01199
1630.05	0.01651
1639.69	0.01721
1649.34	0.01247
1658.98	0.00967
1668.63	0.01109
1678.27	0.0157
1687.92	0.02596
1697.56	0.0592
1707.21	0.06918
1716.85	0.03289
1726.5	0.0172
1736.14	0.01232
1745.79	0.00704
1755.43	0.00445
1765.08	0.00352
1774.72	0.00292
1784.37	0.0025
1794.01	0.00251
1803.66	0.00246
1813.3	0.00237
1822.95	0.00232
1832.59	0.0020693
1842.24	0.0017975
1851.88	0.0016485
1861.53	0.0017657
1871.17	0.0017702
1880.82	0.0016635
1890.46	0.0017167
1900.11	0.0014686
1909.75	0.0012855
1919.4	0.0013262
1929.04	0.001532
1938.69	0.0015737
1948.33	0.0014443
1957.98	0.0013613
1967.62	0.00117359
1977.27	0.000995
1986.91	0.001047
1996.56	0.000931
2006.2	0.000919
2015.85	0.000954
2025.49	0.0010512
2035.14	0.000938
2044.78	0.000948
2054.43	0.000955
2064.07	0.000968
2073.72	0.000901
2083.36	0.000952
2093.01	0.000881
2102.65	0.000915
2112.3	0.000973
2121.94	0.000986
2131.59	0.000914
2141.23	0.000973
2150.88	0.001005
2160.52	0.001008
2170.17	0.001046
2179.81	0.00096
2189.46	0.000957
2199.1	0.000979
2208.75	0.000977
2218.39	0.001041
2228.04	0.0010606
2237.68	0.0010521
2247.33	0.001033
2256.97	0.000957
2266.62	0.0010551
2276.26	0.0011376
2285.91	0.0010685
2295.55	0.001005
2305.2	0.0010857
2314.84	0.0010863
2324.49	0.0011687
2334.13	0.0012637
2343.78	0.00118301
2353.42	0.00119908
2363.07	0.00124304
2372.72	0.00118517
2382.36	0.00114937
2392.01	0.0011308
2401.65	0.0011384
2411.3	0.0010523
2420.94	0.0010979
2430.59	0.0011187
2440.23	0.0010744
2449.88	0.0010629
2459.52	0.001039
2469.17	0.001086
2478.81	0.00117103
2488.46	0.00116477
2498.1	0.00117273
2507.75	0.0013097
2517.39	0.0012678
2527.04	0.0012706
2536.68	0.00123425
2546.33	0.0013632
2555.97	0.0012894
2565.62	0.0013751
2575.26	0.0012609
2584.91	0.0013617
2594.55	0.0012627
2604.2	0.00115582
2613.84	0.00120881
2623.49	0.0011816
2633.13	0.0010672
2642.78	0.00114779
2652.42	0.00115824
2662.07	0.00114188
2671.71	0.0011326
2681.36	0.00117239
2691	0.00123127
2700.65	0.0012658
2710.29	0.0012804
2719.94	0.0012768
2729.58	0.0013162
2739.23	0.00117515
2748.87	0.0012709
2758.52	0.0012961
2768.16	0.0012592
2777.81	0.001296
2787.45	0.0012654
2797.1	0.00124417
2806.74	0.00119101
2816.39	0.0012078
2826.03	0.00119206
2835.68	0.0011111
2845.32	0.001046
2854.97	0.00114011
2864.61	0.00122221
2874.26	0.00120052
2883.9	0.0012547
2893.55	0.0010777
2903.19	0.001003
2912.84	0.00095
2922.48	0.0010809
2932.13	0.001045
2941.77	0.0011044
2951.42	0.001027
2961.06	0.000956
2970.71	0.000978
2980.35	0.000893
2990	0.001035
2999.64	0.001028
3009.29	0.00114062
3018.93	0.0012637
3028.58	0.0016196
3038.22	0.0016871
3047.87	0.0016602
3057.51	0.00247
3067.16	0.00418
3076.8	0.00505
3086.45	0.00391
3096.09	0.00234
3105.74	0.0015625
3115.38	0.0009
3125.03	0.000834
3134.67	0.000749
3144.32	0.000665
3153.96	0.000708
3163.61	0.00072
3173.25	0.000847
3182.9	0.000871
3192.54	0.000966
3202.19	0.0012541
3211.83	0.000945
3221.48	0.000914
3231.12	0.000726
3240.77	0.000715
3250.41	0.000655
3260.06	0.000511
3269.7	0.000358
3279.35	0.000396
3289	0.000552
3298.64	0.000672
3308.29	0.000558
3317.93	0.000571
3327.58	0.000711
3337.22	0.000922
3346.87	0.0013078
3356.51	0.000949
3366.16	0.000891
3375.8	0.000892
3385.45	0.00124683
3395.09	0.00119605
3404.74	0.000967
3414.38	0.001101
3424.03	0.0014647
3433.67	0.00235
3443.32	0.00353
3452.96	0.00514
3462.61	0.00819
3472.25	0.01051
3481.9	0.00808
3491.54	0.00427
3501.19	0.00231
3510.83	0.00120281
3520.48	0.000942
3530.12	0.000721
3539.77	0.000557
3549.41	0.000242
3559.06	0.000251
3568.7	0.000489
3578.35	0.000703
3587.99	0.000531
3597.64	0.000328
3607.28	0.000179
3616.93	6e-05
3626.57	0.000243
3636.22	0.00011
3645.86	0.000183
3655.51	0.00014
3665.15	0.000233
3674.8	8e-05
3684.44	0.000301
3694.09	0.000259
3703.73	0.000344
3713.38	0.000349
3723.02	0.000324
3732.67	0.000243
3742.31	0.00031
3751.96	0.00025
3761.6	0.000293
3771.25	0.000223
3780.89	0.000331
3790.54	0.000388
3800.18	0.000268
3809.83	0.000365
3819.47	0.000217
3829.12	0.000325
3838.76	0.000178
3848.41	0.000419
3858.05	0.000346
3867.7	0.000236
3877.34	0.000194
3886.99	0.000248
3896.63	0.000453
3906.28	0.000275
3915.92	0.00015
3925.57	0.000331
3935.21	0.000436
3944.86	0.000229
3954.5	0.000352
3964.15	0.000528
3973.79	0.000279
3983.44	0.000252
3993.08	0.000368
