Infrared Spectrum: 2,2,3-Trimethylhexane
Formula: C 9 H 20
CAS: 16747-25-4
State: gas
Instrument: HP-GC/MS/IRD
Origin: NIST Mass Spectrometry Data Center
1/CM	ABSORBANCE
550	0.0001197
562	1.98e-05
574	6.3e-05
586	5.4e-05
598	0.0001278
610	0.0001593
622	0.0001566
634	0.0001377
646	0.000108
658	0.0002286
670	8.82e-05
682	0.0001854
694	0.0002268
706	0.0001692
718	0.0001233
730	0.0001593
742	0.0001647
754	0.0001512
766	0.000135
778	0.0001539
790	0.0001773
802	0.0001332
814	0.0001665
826	0.0001593
838	0.0001989
850	0.0001836
862	0.0001773
874	0.0001854
886	0.0002097
898	0.0001917
910	0.000189
922	0.0002529
934	0.0002313
946	0.0002142
958	0.0001917
970	0.0001827
982	0.0001593
994	0.0002061
1006	0.0002079
1018	0.0001953
1030	0.0001908
1042	0.0001449
1054	0.0001503
1066	0.0001593
1078	0.0002124
1090	0.0002745
1102	0.0002421
1114	0.0002178
1126	0.0002043
1138	0.0002502
1150	0.000297
1162	0.0002268
1174	0.0002025
1186	0.00027
1198	0.0002898
1210	0.0002997
1222	0.0003033
1234	0.0003087
1246	0.0002322
1258	0.0001953
1270	0.0002124
1282	0.0001485
1294	0.0001809
1306	0.0001791
1318	0.000207
1330	0.0002268
1342	0.0002916
1354	0.0005148
1366	0.0010611
1378	0.0011961
1390	0.0009387
1402	0.0006165
1414	0.0003303
1426	0.0002988
1438	0.0003582
1450	0.0006264
1462	0.0009225
1474	0.0010593
1486	0.0007344
1498	0.0003897
1510	0.0002079
1522	0.0001512
1534	0.0001386
1546	0.0001314
1558	0.0001494
1570	8.1e-05
1582	9.54e-05
1594	0.0001044
1606	9.72e-05
1618	0.0001098
1630	0.0001098
1642	0.0001008
1654	8.28e-05
1666	9.36e-05
1678	0.0001071
1690	0.0001044
1702	8.64e-05
1714	8.19e-05
1726	8.01e-05
1738	6.84e-05
1750	6.84e-05
1762	6.57e-05
1774	6.84e-05
1786	7.47e-05
1798	7.02e-05
1810	5.49e-05
1822	5.94e-05
1834	4.77e-05
1846	6.93e-05
1858	6.21e-05
1870	6.93e-05
1882	4.41e-05
1894	5.04e-05
1906	5.58e-05
1918	4.77e-05
1930	6.48e-05
1942	3.96e-05
1954	3.96e-05
1966	4.86e-05
1978	2.79e-05
1990	3.51e-05
2002	4.41e-05
2014	3.42e-05
2026	2.52e-05
2038	3.87e-05
2050	3.42e-05
2062	2.7e-05
2074	2.07e-05
2086	1.53e-05
2098	1.71e-05
2110	2.43e-05
2122	5.4e-06
2134	3.24e-05
2146	1.71e-05
2158	3.33e-05
2170	3.51e-05
2182	3.96e-05
2194	1.17e-05
2206	7.2e-06
2218	4.32e-05
2230	2.43e-05
2242	2.25e-05
2254	1.62e-05
2266	2.34e-05
2278	2.61e-05
2290	4.59e-05
2302	3.51e-05
2314	3.6e-05
2326	4.77e-05
2338	3.78e-05
2350	4.14e-05
2362	4.95e-05
2374	5.85e-05
2386	5.31e-05
2398	6.03e-05
2410	4.5e-05
2422	5.76e-05
2434	3.96e-05
2446	7.11e-05
2458	6.75e-05
2470	6.03e-05
2482	7.2e-05
2494	5.4e-05
2506	5.67e-05
2518	3.6e-05
2530	6.84e-05
2542	9.09e-05
2554	6.93e-05
2566	8.73e-05
2578	0.0001053
2590	0.0001044
2602	0.0001053
2614	0.0001107
2626	0.0001296
2638	0.0001269
2650	0.0001296
2662	0.0001467
2674	0.0001305
2686	0.0001269
2698	0.0001485
2710	0.0001494
2722	0.0001827
2734	0.0002223
2746	0.0002151
2758	0.0002052
2770	0.0002259
2782	0.000243
2794	0.0002763
2806	0.0003213
2818	0.0003987
2830	0.0004446
2842	0.0006651
2854	0.0011205
2866	0.0022635
2878	0.0033966
2890	0.0031581
2902	0.002745
2914	0.003051
2926	0.0037863
2938	0.0049401
2950	0.006336
2962	0.0086229
2974	0.0080046
2986	0.0039861
2998	0.0015759
3010	0.0008388
3022	0.0005652
3034	0.000441
3046	0.0003609
3058	0.0003213
3070	0.0002862
3082	0.0002601
3094	0.0002691
3106	0.0002394
3118	0.0002367
3130	0.0002331
3142	0.0001944
3154	0.0002052
3166	0.0002025
3178	0.0002025
3190	0.0001728
3202	0.0001773
3214	0.0001638
3226	0.0001674
3238	0.000117
3250	0.0001359
3262	0.0001215
3274	0.0001125
3286	0.0001206
3298	7.38e-05
3310	9.54e-05
3322	0.0001287
3334	0.0001242
3346	9.18e-05
3358	0.0001071
3370	0.0001395
3382	7.47e-05
3394	9.09e-05
3406	0.0001143
3418	0.0001089
3430	8.73e-05
3442	0.0001215
3454	8.46e-05
3466	0.0001044
3478	6.75e-05
3490	9.99e-05
3502	8.28e-05
3514	8.37e-05
3526	9.36e-05
3538	4.68e-05
3550	1.8e-05
3562	5.94e-05
3574	6.21e-05
3586	9.9e-05
3598	4.5e-05
3610	6.93e-05
3622	6.03e-05
3634	7.2e-05
3646	8.28e-05
3658	7.65e-05
3670	5.4e-05
3682	6.12e-05
3694	7.74e-05
3706	8.46e-05
3718	7.11e-05
3730	7.11e-05
3742	7.29e-05
3754	5.67e-05
3766	0.0001044
3778	7.2e-05
3790	9.27e-05
3802	9.72e-05
3814	8.01e-05
3826	6.12e-05
3838	7.47e-05
