Infrared Spectrum: 2,3,3,4-Tetramethylpentane
Formula: C 9 H 20
CAS: 16747-38-9
State: gas
Instrument: HP-GC/MS/IRD
Origin: NIST Mass Spectrometry Data Center
1/CM	ABSORBANCE
550	0.000263
562	6.7e-05
574	0.000188
586	0.000134
598	0.00018
610	0.000196
622	0.000151
634	0.000224
646	0.000151
658	0.000204
670	0.000216
682	0.000183
694	0.000168
706	0.000225
718	0.000137
730	0.000176
742	0.000141
754	0.000181
766	0.00019
778	0.000212
790	0.000181
802	0.00018
814	0.000194
826	0.00042
838	0.00021
850	0.000188
862	0.000218
874	0.000172
886	0.000186
898	0.000229
910	0.000209
922	0.000231
934	0.000235
946	0.000203
958	0.000188
970	0.000206
982	0.000202
994	0.000203
1006	0.000237
1018	0.000337
1030	0.000376
1042	0.000364
1054	0.000379
1066	0.000373
1078	0.000419
1090	0.000446
1102	0.000436
1114	0.000498
1126	0.000789
1138	0.000922
1150	0.000621
1162	0.000374
1174	0.000331
1186	0.000282
1198	0.000247
1210	0.000203
1222	0.000232
1234	0.000214
1246	0.000198
1258	0.000246
1270	0.00023
1282	0.000242
1294	0.000263
1306	0.000299
1318	0.000333
1330	0.000333
1342	0.000324
1354	0.00052
1366	0.001118
1378	0.001834
1390	0.001789
1402	0.000973
1414	0.000447
1426	0.000369
1438	0.000507
1450	0.000782
1462	0.001105
1474	0.001194
1486	0.000812
1498	0.000456
1510	0.000279
1522	0.000259
1534	0.000224
1546	0.000205
1558	0.000225
1570	0.000197
1582	0.00017
1594	0.00017
1606	0.000154
1618	0.000191
1630	0.000168
1642	0.000177
1654	0.000207
1666	0.000164
1678	0.000138
1690	0.000172
1702	0.00014
1714	0.000154
1726	0.00014
1738	0.000135
1750	0.000141
1762	0.000128
1774	0.000132
1786	0.000144
1798	0.000109
1810	0.000119
1822	0.000116
1834	0.000123
1846	0.000127
1858	9.6e-05
1870	9.4e-05
1882	0.000104
1894	0.000128
1906	8.7e-05
1918	0.000103
1930	9.2e-05
1942	9.7e-05
1954	0.000101
1966	9.7e-05
1978	0.000103
1990	9.7e-05
2002	9.4e-05
2014	6.6e-05
2026	9.5e-05
2038	9.2e-05
2050	8.5e-05
2062	8.8e-05
2074	8.8e-05
2086	4.3e-05
2098	8.8e-05
2110	6.6e-05
2122	7.2e-05
2134	7.9e-05
2146	7e-05
2158	7.6e-05
2170	6.4e-05
2182	7e-05
2194	5.9e-05
2206	6.4e-05
2218	6.3e-05
2230	7.7e-05
2242	4.7e-05
2254	7e-05
2266	4.8e-05
2278	6.2e-05
2290	5.4e-05
2302	5.6e-05
2314	3.9e-05
2326	6.4e-05
2338	6.5e-05
2350	5.3e-05
2362	5.4e-05
2374	4.5e-05
2386	5.7e-05
2398	3.7e-05
2410	4.8e-05
2422	6.4e-05
2434	7.7e-05
2446	5.9e-05
2458	6.2e-05
2470	4.6e-05
2482	5.4e-05
2494	4.4e-05
2506	1.3e-05
2518	4.1e-05
2530	4.4e-05
2542	3.2e-05
2554	4.7e-05
2566	3.2e-05
2578	4.9e-05
2590	5.3e-05
2602	0.000112
2614	0.000122
2626	0.000126
2638	9.2e-05
2650	7.7e-05
2662	6.9e-05
2674	6.2e-05
2686	4.8e-05
2698	5.5e-05
2710	6.7e-05
2722	0.000112
2734	0.000137
2746	0.000159
2758	0.000142
2770	0.000152
2782	0.00016
2794	0.000174
2806	0.000238
2818	0.000267
2830	0.000285
2842	0.000409
2854	0.000608
2866	0.001086
2878	0.002312
2890	0.003296
2902	0.003454
2914	0.003506
2926	0.00374
2938	0.004505
2950	0.005735
2962	0.00795
2974	0.01
2986	0.00739
2998	0.003017
3010	0.001157
3022	0.000659
3034	0.000441
3046	0.000334
3058	0.000267
3070	0.000231
3082	0.000217
3094	0.000182
3106	0.000196
3118	0.000193
3130	0.000156
3142	0.000142
3154	0.000181
3166	0.000134
3178	0.000141
3190	0.000104
3202	0.000132
3214	0.000122
3226	6.1e-05
3238	4.6e-05
3250	5.6e-05
3262	4.9e-05
3274	4.7e-05
3286	4.8e-05
3298	4.5e-05
3310	4.9e-05
3322	3.6e-05
3334	5.6e-05
3346	5.5e-05
3358	7.9e-05
3370	5.9e-05
3382	5.1e-05
3394	5.1e-05
3406	5.5e-05
3418	3.2e-05
3430	1e-05
3442	6.4e-05
3454	5.7e-05
3466	4.4e-05
3478	2.1e-05
3490	6.4e-05
3502	4.2e-05
3514	1.6e-05
3526	6.3e-05
3538	7.3e-05
3550	4.6e-05
3562	8e-06
3574	3.7e-05
3586	3.3e-05
3598	6.8e-05
3610	5e-05
3622	6.6e-05
3634	7e-05
3646	6.2e-05
3658	6.4e-05
3670	7.6e-05
3682	7.6e-05
3694	6.3e-05
3706	4.8e-05
3718	5.9e-05
3730	8.5e-05
3742	8.3e-05
3754	4.5e-05
3766	4.1e-05
3778	5.4e-05
3790	4.8e-05
3802	4.6e-05
3814	0.0001
3826	3.6e-05
3838	4.8e-05
