Infrared Spectrum: 2-Fluorophenyl isocyanate
Formula: C7 H4 F N O
CAS: 16744-98-2
State: gas
Origin: EPA-IR VAPOR PHASE LIBRARY
1/CM	ABSORBANCE
501.5	0
513.074	0.0011306
524.648	0.001898
536.222	0.002548
547.796	0.005158
559.37	0.005678
570.944	0.005818
582.518	0.006538
594.092	0.007478
605.666	0.009048
617.24	0.008838
628.814	0.006998
640.388	0.005958
651.962	0.006248
663.536	0.005348
675.11	0.003638
686.684	0.002998
698.258	0.003148
709.832	0.003738
721.406	0.006918
732.98	0.020638
744.554	0.041598
756.128	0.039808
767.702	0.016788
779.276	0.003768
790.85	0.002428
802.423	0.003268
813.997	0.005978
825.571	0.009058
837.145	0.010838
848.719	0.007718
860.293	0.003158
871.867	0.0011244
883.441	0.0009429
895.015	0.0010674
906.589	0.001107
918.163	0.0016581
929.737	0.003248
941.311	0.002268
952.885	0.0011003
964.459	0.000639
976.033	0.0007662
987.607	0.00087973
999.181	0.0011886
1010.76	0.002628
1022.33	0.006388
1033.9	0.004698
1045.48	0.0013924
1057.05	0.0011377
1068.63	0.002778
1080.2	0.010628
1091.77	0.015058
1103.35	0.008318
1114.92	0.004848
1126.49	0.006518
1138.07	0.005138
1149.64	0.004008
1161.22	0.005588
1172.79	0.005468
1184.36	0.003678
1195.94	0.002868
1207.51	0.004548
1219.09	0.012178
1230.66	0.031388
1242.23	0.033618
1253.81	0.015748
1265.38	0.010098
1276.96	0.007328
1288.53	0.004008
1300.1	0.002368
1311.68	0.0016847
1323.25	0.0014478
1334.83	0.001262
1346.4	0.0011821
1357.97	0.0011531
1369.55	0.0012877
1381.12	0.0017035
1392.7	0.002398
1404.27	0.002728
1415.84	0.002618
1427.42	0.002708
1438.99	0.003548
1450.57	0.007488
1462.14	0.014208
1473.71	0.015288
1485.29	0.011988
1496.86	0.015228
1508.44	0.027498
1520.01	0.044128
1531.58	0.048498
1543.16	0.029988
1554.73	0.012468
1566.31	0.007908
1577.88	0.009448
1589.45	0.012288
1601.03	0.015578
1612.6	0.020198
1624.18	0.013448
1635.75	0.003028
1647.32	0.0017232
1658.9	0.001465
1670.47	0.001802
1682.05	0.002058
1693.62	0.0017301
1705.19	0.001252
1716.77	0.00092876
1728.34	0.0008139
1739.92	0.0008256
1751.49	0.0009721
1763.06	0.0014934
1774.64	0.002278
1786.21	0.002168
1797.79	0.0014865
1809.36	0.0014942
1820.93	0.0014606
1832.51	0.0011609
1844.08	0.0011573
1855.66	0.0015671
1867.23	0.0017141
1878.8	0.0017093
1890.38	0.002288
1901.95	0.002238
1913.53	0.0017405
1925.1	0.002008
1936.67	0.002138
1948.25	0.0014586
1959.82	0.0011918
1971.4	0.0012396
1982.97	0.0012663
1994.54	0.0012082
2006.12	0.001168
2017.69	0.0011974
2029.27	0.0012757
2040.84	0.0014721
2052.41	0.001868
2063.99	0.002338
2075.56	0.002928
2087.14	0.003498
2098.71	0.003528
2110.28	0.003548
2121.86	0.004198
2133.43	0.005838
2145.01	0.009478
2156.58	0.015358
2168.15	0.021608
2179.73	0.026928
2191.3	0.031338
2202.88	0.037898
2214.45	0.047218
2226.02	0.068408
2237.6	0.133538
2249.17	0.244278
2260.74	0.329358
2272.32	0.391108
2283.89	0.419168
2295.47	0.273828
2307.04	0.118478
2318.61	0.063328
2330.19	0.044148
2341.76	0.037488
2353.34	0.035758
2364.91	0.033478
2376.48	0.028218
2388.06	0.021758
2399.63	0.013268
2411.21	0.007448
2422.78	0.005268
2434.35	0.004428
2445.93	0.003928
2457.5	0.003438
2469.08	0.002818
2480.65	0.002378
2492.22	0.002048
2503.8	0.0017949
2515.37	0.0016248
2526.95	0.0015236
2538.52	0.0015235
2550.09	0.0017846
2561.67	0.001968
2573.24	0.001858
2584.82	0.0016878
2596.39	0.0015006
2607.96	0.0014381
2619.54	0.0013743
2631.11	0.0014201
2642.69	0.0015888
2654.26	0.0016965
2665.83	0.0017665
2677.41	0.0017706
2688.98	0.0016302
2700.56	0.0014232
2712.13	0.0012814
2723.7	0.0011388
2735.28	0.0010386
2746.85	0.001057
2758.43	0.0010627
2770	0.0010789
2781.57	0.0011754
2793.15	0.0011997
2804.72	0.001263
2816.3	0.0012176
2827.87	0.0011183
2839.44	0.0010796
2851.02	0.0010216
2862.59	0.0010376
2874.17	0.0011663
2885.74	0.0013336
2897.31	0.0015354
2908.89	0.0015483
2920.46	0.0014212
2932.04	0.0011992
2943.61	0.0011399
2955.18	0.0012277
2966.76	0.0015129
2978.33	0.0018298
2989.91	0.002228
3001.48	0.002538
3013.05	0.002718
3024.63	0.002928
3036.2	0.003098
3047.78	0.003508
3059.35	0.004848
3070.92	0.007418
3082.5	0.008438
3094.07	0.006068
3105.65	0.003498
3117.22	0.002348
3128.79	0.0018356
3140.37	0.001301
3151.94	0.0009594
3163.52	0.0008045
3175.09	0.0007551
3186.66	0.0007619
3198.24	0.000718
3209.81	0.000706
3221.39	0.000682
3232.96	0.000724
3244.53	0.000666
3256.11	0.000693
3267.68	0.000734
3279.26	0.0008169
3290.83	0.0007981
3302.4	0.00086537
3313.98	0.0009935
3325.55	0.0010969
3337.13	0.0014171
3348.7	0.0017525
3360.27	0.002058
3371.85	0.002338
3383.42	0.002248
3395	0.002188
3406.57	0.002548
3418.14	0.002778
3429.72	0.002598
3441.29	0.002218
3452.86	0.0018058
3464.44	0.0015206
3476.01	0.0013447
3487.59	0.0013296
3499.16	0.0013171
3510.73	0.0013682
3522.31	0.001382
3533.88	0.0012011
3545.46	0.0011379
3557.03	0.0010522
3568.6	0.0010522
3580.18	0.0011096
3591.75	0.0011703
3603.33	0.0012833
3614.9	0.0013594
3626.47	0.0015532
3638.05	0.0017053
3649.62	0.001968
3661.2	0.002328
3672.77	0.002748
3684.34	0.002988
3695.92	0.002998
3707.49	0.002908
3719.07	0.002518
3730.64	0.002028
3742.21	0.0016677
3753.79	0.0016344
3765.36	0.0016299
3776.94	0.0016821
3788.51	0.0017394
3800.08	0.0017348
3811.66	0.0017443
3823.23	0.001589
3834.81	0.0014448
3846.38	0.0012691
3857.95	0.0011758
3869.53	0.0011043
3881.1	0.0011615
3892.68	0.0011865
3904.25	0.0012051
3915.82	0.0011646
3927.4	0.001066
3938.97	0.0009549
3950.55	0.00087487
3962.12	0.00088524
3973.69	0.00085826
3985.27	0.0007531
3996.84	0.0009065
