Infrared Spectrum: 2,3,3-Trimethylheptane
Formula: C 9 H 20
CAS: 16747-28-7
State: gas
Instrument: HP-GC/MS/IRD
Origin: NIST Mass Spectrometry Data Center
1/CM	ABSORBANCE
550	0.0002619
562	8.37e-05
574	0.0001161
586	6.03e-05
598	9.36e-05
610	7.2e-06
622	5.4e-05
634	9.54e-05
646	7.29e-05
658	6.3e-05
670	0.0001629
682	0.000162
694	0.0001071
706	0.0001323
718	8.73e-05
730	0.0001233
742	0.0001026
754	0.0001062
766	0.0001269
778	8.73e-05
790	9.81e-05
802	8.28e-05
814	5.22e-05
826	1.71e-05
838	5.85e-05
850	8.55e-05
862	6.75e-05
874	0.0001134
886	0.0001341
898	0.0001116
910	0.0001386
922	0.0001368
934	0.000162
946	0.0001404
958	0.0001323
970	9.54e-05
982	8.1e-05
994	9.18e-05
1006	9.36e-05
1018	0.0001017
1030	0.0001368
1042	0.0001116
1054	0.0001296
1066	0.0001377
1078	0.0001341
1090	0.000216
1102	0.0002646
1114	0.0001548
1126	0.0001548
1138	0.0002196
1150	0.0003348
1162	0.0002592
1174	0.0001521
1186	0.0001827
1198	0.0001566
1210	9.99e-05
1222	9e-05
1234	9.99e-05
1246	3.96e-05
1258	8.64e-05
1270	8.19e-05
1282	7.83e-05
1294	8.19e-05
1306	0.0001188
1318	0.0001116
1330	0.0001251
1342	0.0001629
1354	0.0003177
1366	0.0007749
1378	0.0011664
1390	0.0009648
1402	0.0004833
1414	0.0002439
1426	0.0002304
1438	0.0003582
1450	0.0006084
1462	0.0009702
1474	0.0009936
1486	0.0005715
1498	0.0002583
1510	0.0001359
1522	0.0001116
1534	9.09e-05
1546	9.9e-05
1558	3.6e-05
1570	3.96e-05
1582	6.66e-05
1594	5.67e-05
1606	6.66e-05
1618	3.42e-05
1630	3.69e-05
1642	4.32e-05
1654	3.51e-05
1666	1.62e-05
1678	5.22e-05
1690	4.5e-05
1702	2.07e-05
1714	7.2e-06
1726	8.1e-06
1738	1.89e-05
1750	3.51e-05
1762	2.25e-05
1774	1.8e-05
1786	2.61e-05
1798	4.32e-05
1810	3.06e-05
1822	2.61e-05
1834	3.15e-05
1846	2.07e-05
1858	1.26e-05
1870	2.43e-05
1882	1.8e-05
1894	3.69e-05
1906	2.97e-05
1918	2.52e-05
1930	4.59e-05
1942	1.89e-05
1954	2.07e-05
1966	1.08e-05
1978	1.17e-05
1990	1.62e-05
2002	2.43e-05
2014	1.44e-05
2026	2.16e-05
2038	1.8e-05
2050	9e-06
2062	3.06e-05
2074	2.25e-05
2086	2.79e-05
2098	2.61e-05
2110	2.16e-05
2122	2.07e-05
2134	2.25e-05
2146	2.16e-05
2158	1.98e-05
2170	5.4e-06
2182	1.8e-05
2194	4.23e-05
2206	2.97e-05
2218	1.62e-05
2230	3.15e-05
2242	2.79e-05
2254	4.86e-05
2266	3.42e-05
2278	4.41e-05
2290	4.68e-05
2302	4.59e-05
2314	3.87e-05
2326	4.68e-05
2338	3.78e-05
2350	5.58e-05
2362	4.68e-05
2374	5.4e-05
2386	6.66e-05
2398	6.93e-05
2410	7.56e-05
2422	7.74e-05
2434	9.09e-05
2446	6.48e-05
2458	7.65e-05
2470	8.28e-05
2482	6.03e-05
2494	7.11e-05
2506	4.05e-05
2518	8.46e-05
2530	7.11e-05
2542	9.36e-05
2554	8.73e-05
2566	9.09e-05
2578	0.0001098
2590	0.0001152
2602	0.0001287
2614	0.0001359
2626	0.0001305
2638	0.0001458
2650	0.0001458
2662	0.0001377
2674	0.0001413
2686	0.0001647
2698	0.0001431
2710	0.0001773
2722	0.0002124
2734	0.0002466
2746	0.0002574
2758	0.000225
2770	0.0002313
2782	0.000252
2794	0.0002916
2806	0.0003195
2818	0.000423
2830	0.0004824
2842	0.0006804
2854	0.0010647
2866	0.001854
2878	0.0031347
2890	0.0034479
2902	0.0031275
2914	0.0031815
2926	0.0036549
2938	0.004788
2950	0.0058545
2962	0.0082224
2974	0.0084195
2986	0.0044982
2998	0.0017496
3010	0.0008514
3022	0.0005913
3034	0.0004788
3046	0.0003888
3058	0.0003501
3070	0.0003519
3082	0.0002574
3094	0.0002565
3106	0.0002601
3118	0.0002511
3130	0.0001863
3142	0.0002241
3154	0.0002016
3166	0.0002169
3178	0.0001818
3190	0.0001899
3202	0.0001881
3214	0.0001161
3226	0.0001197
3238	0.0001521
3250	7.38e-05
3262	7.83e-05
3274	0.0001044
3286	9.72e-05
3298	0.0001422
3310	0.0001134
3322	8.37e-05
3334	9.72e-05
3346	0.000108
3358	0.0001107
3370	0.0001143
3382	8.1e-05
3394	6.39e-05
3406	8.28e-05
3418	9.45e-05
3430	9.27e-05
3442	8.91e-05
3454	8.1e-05
3466	7.56e-05
3478	5.67e-05
3490	0.0001035
3502	6.21e-05
3514	4.5e-05
3526	6.12e-05
3538	6.39e-05
3550	7.92e-05
3562	5.49e-05
3574	2.16e-05
3586	8.73e-05
3598	7.65e-05
3610	4.32e-05
3622	5.13e-05
3634	6.66e-05
3646	5.85e-05
3658	2.88e-05
3670	4.77e-05
3682	7.47e-05
3694	6.12e-05
3706	7.47e-05
3718	0.0001071
3730	5.22e-05
3742	6.3e-05
3754	7.02e-05
3766	6.03e-05
3778	7.2e-05
3790	8.73e-05
3802	8.91e-05
3814	9.27e-05
3826	8.91e-05
3838	6.21e-05
