Infrared Spectrum: 4-Ethyl-1-hexene
Formula: C 8 H 16
CAS: 16746-85-3
State: gas
Instrument: HP-GC/MS/IRD
Origin: NIST Mass Spectrometry Data Center
1/CM	ABSORBANCE
550	6.72e-05
562	2.31e-05
574	3.36e-05
586	0.0001428
598	0.0001512
610	0.0003717
622	0.0004263
634	0.00063
646	0.0002772
658	0.0002667
670	0.0002331
682	0.0002541
694	0.0001596
706	0.0001281
718	0.0001449
730	0.0001554
742	0.0002457
754	0.0004473
766	0.0006132
778	0.0007287
790	0.0005334
802	0.0003234
814	0.0004431
826	0.0004725
838	0.0004893
850	0.0005355
862	0.0006132
874	0.0007434
886	0.0011256
898	0.0025452
910	0.004746
922	0.0040089
934	0.0021042
946	0.0014637
958	0.0012117
970	0.0012978
982	0.0018375
994	0.0023079
1006	0.0017577
1018	0.0009786
1030	0.0007833
1042	0.0007938
1054	0.0007875
1066	0.0007392
1078	0.0005985
1090	0.0005838
1102	0.0007476
1114	0.0012117
1126	0.0015204
1138	0.0015729
1150	0.0010773
1162	0.0007056
1174	0.0004704
1186	0.0003906
1198	0.0002919
1210	0.0002877
1222	0.000336
1234	0.0003003
1246	0.000294
1258	0.0004137
1270	0.0004725
1282	0.0005355
1294	0.0006027
1306	0.0006006
1318	0.0005922
1330	0.0006027
1342	0.0007539
1354	0.0008883
1366	0.0012159
1378	0.0018249
1390	0.0019824
1402	0.0011907
1414	0.001008
1426	0.0012474
1438	0.0019488
1450	0.0029799
1462	0.0033537
1474	0.0025578
1486	0.00126
1498	0.0006594
1510	0.0004599
1522	0.0003549
1534	0.0003045
1546	0.0003192
1558	0.0002877
1570	0.0002814
1582	0.0002856
1594	0.0003108
1606	0.0004116
1618	0.0007539
1630	0.0016338
1642	0.0019299
1654	0.0009093
1666	0.0003171
1678	0.0001596
1690	0.0001302
1702	0.0001197
1714	6.3e-05
1726	6.72e-05
1738	5.25e-05
1750	7.98e-05
1762	7.77e-05
1774	5.04e-05
1786	7.98e-05
1798	0.0001029
1810	0.0002499
1822	0.000504
1834	0.0005124
1846	0.0002478
1858	0.0001218
1870	7.77e-05
1882	8.4e-05
1894	6.3e-05
1906	6.72e-05
1918	6.51e-05
1930	5.25e-05
1942	2.73e-05
1954	3.99e-05
1966	7.35e-05
1978	8.19e-05
1990	7.14e-05
2002	5.25e-05
2014	4.2e-06
2026	4.2e-06
2038	3.57e-05
2050	6.72e-05
2062	6.09e-05
2074	4.41e-05
2086	5.04e-05
2098	3.15e-05
2110	1.89e-05
2122	5.04e-05
2134	2.31e-05
2146	2.94e-05
2158	3.78e-05
2170	3.57e-05
2182	4.2e-05
2194	5.46e-05
2206	4.62e-05
2218	5.67e-05
2230	6.09e-05
2242	4.62e-05
2254	4.62e-05
2266	5.46e-05
2278	6.3e-05
2290	4.41e-05
2302	6.3e-06
2314	4.62e-05
2326	3.36e-05
2338	5.04e-05
2350	7.98e-05
2362	6.51e-05
2374	8.82e-05
2386	6.72e-05
2398	0.0001071
2410	0.0001071
2422	8.82e-05
2434	6.3e-05
2446	5.67e-05
2458	7.98e-05
2470	7.56e-05
2482	4.41e-05
2494	7.35e-05
2506	8.4e-05
2518	0.0001092
2530	0.0001134
2542	0.0001323
2554	0.0001533
2566	0.000147
2578	0.0002121
2590	0.0002373
2602	0.0002415
2614	0.0002373
2626	0.0002352
2638	0.0002436
2650	0.000252
2662	0.0002562
2674	0.0003087
2686	0.0003402
2698	0.0003696
2710	0.0003864
2722	0.0004305
2734	0.0005271
2746	0.0005985
2758	0.000588
2770	0.0006426
2782	0.0007455
2794	0.0008925
2806	0.0011046
2818	0.0013692
2830	0.0019572
2842	0.0030219
2854	0.0051429
2866	0.0086982
2878	0.0119112
2890	0.0115668
2902	0.0111027
2914	0.0144606
2926	0.0184569
2938	0.017997
2950	0.0154917
2962	0.0189945
2974	0.01995
2986	0.011613
2998	0.0057918
3010	0.003759
3022	0.0025662
3034	0.0019089
3046	0.0017829
3058	0.0020349
3070	0.002898
3082	0.0038535
3094	0.0026859
3106	0.0011277
3118	0.0007476
3130	0.0006216
3142	0.0006111
3154	0.0005103
3166	0.0004284
3178	0.0003822
3190	0.0003003
3202	0.0002541
3214	0.0001848
3226	0.0001575
3238	0.0001869
3250	0.0001512
3262	0.0001386
3274	0.0001638
3286	0.0001176
3298	0.0001176
3310	0.0001239
3322	0.0001197
3334	7.35e-05
3346	0.0001008
3358	7.98e-05
3370	0.0001344
3382	8.61e-05
3394	7.77e-05
3406	0.0001092
3418	5.04e-05
3430	0.0001071
3442	5.67e-05
3454	7.35e-05
3466	9.03e-05
3478	9.45e-05
3490	8.82e-05
3502	6.72e-05
3514	6.51e-05
3526	2.94e-05
3538	3.78e-05
3550	5.46e-05
3562	1.68e-05
3574	3.78e-05
3586	6.3e-05
3598	2.52e-05
3610	2.73e-05
3622	1.26e-05
3634	5.67e-05
3646	6.51e-05
3658	3.36e-05
3670	9.66e-05
3682	5.04e-05
3694	9.87e-05
3706	7.14e-05
3718	7.98e-05
3730	4.83e-05
3742	5.25e-05
3754	0.0001113
3766	8.19e-05
3778	0.0001323
3790	9.03e-05
3802	8.82e-05
3814	2.52e-05
3826	9.66e-05
3838	0.0001281
