Infrared Spectrum: 4-Bromo-2,5-difluoronitrobenzene
Formula: C 6 H 2 Br F 2 N O 2
CAS: 167415-27-2
State: gas
Origin: EPA-IR VAPOR PHASE LIBRARY
1/CM	ABSORBANCE
549.8	0.00251
559.445	0.00226
569.09	0.00235
578.735	0.00244
588.38	0.0017932
598.025	0.0017406
607.67	0.001597
617.315	0.001493
626.96	0.0014026
636.605	0.0013274
646.251	0.0013635
655.896	0.0015941
665.541	0.0020861
675.186	0.00266
684.831	0.00229
694.476	0.002119
704.121	0.00297
713.766	0.00548
723.411	0.00798
733.056	0.01023
742.701	0.0185
752.346	0.02463
761.991	0.02752
771.636	0.04285
781.281	0.07463
790.926	0.19347
800.571	0.0825
810.216	0.01978
819.861	0.02037
829.507	0.02762
839.152	0.02613
848.797	0.01682
858.442	0.01568
868.087	0.02143
877.732	0.04684
887.377	0.06424
897.022	0.02986
906.667	0.00842
916.312	0.00426
925.957	0.00352
935.602	0.00333
945.247	0.00359
954.892	0.00501
964.537	0.01018
974.182	0.02174
983.827	0.05302
993.472	0.04235
1003.12	0.01025
1012.76	0.0057
1022.41	0.00534
1032.05	0.00414
1041.7	0.00282
1051.34	0.0025
1060.99	0.00246
1070.63	0.0020765
1080.28	0.00268
1089.92	0.00572
1099.57	0.0075
1109.21	0.00408
1118.86	0.00351
1128.5	0.00365
1138.15	0.00409
1147.79	0.00424
1157.44	0.00439
1167.08	0.00668
1176.73	0.01978
1186.37	0.07268
1196.02	0.12986
1205.66	0.09376
1215.31	0.03707
1224.95	0.01634
1234.6	0.01107
1244.24	0.01187
1253.89	0.01448
1263.53	0.02323
1273.18	0.03817
1282.82	0.02866
1292.47	0.02583
1302.11	0.02556
1311.76	0.02701
1321.4	0.04837
1331.05	0.10794
1340.69	0.16369
1350.34	0.15401
1359.98	0.08436
1369.63	0.02923
1379.27	0.032
1388.92	0.07479
1398.56	0.07477
1408.21	0.03341
1417.85	0.0185
1427.5	0.01686
1437.14	0.0183
1446.79	0.023
1456.43	0.03617
1466.08	0.07407
1475.73	0.17303
1485.37	0.26495
1495.02	0.21703
1504.66	0.14105
1514.31	0.0916
1523.95	0.09405
1533.6	0.13028
1543.24	0.19895
1552.89	0.25309
1562.53	0.21583
1572.18	0.15206
1581.82	0.13073
1591.47	0.11859
1601.11	0.09365
1610.76	0.07247
1620.4	0.05902
1630.05	0.02824
1639.69	0.01434
1649.34	0.01001
1658.98	0.00764
1668.63	0.0059
1678.27	0.00527
1687.92	0.00493
1697.56	0.00434
1707.21	0.00428
1716.85	0.00488
1726.5	0.00613
1736.14	0.00727
1745.79	0.00683
1755.43	0.00439
1765.08	0.00315
1774.72	0.00301
1784.37	0.00247
1794.01	0.0018024
1803.66	0.0014653
1813.3	0.0014202
1822.95	0.0013704
1832.59	0.0012636
1842.24	0.0012996
1851.88	0.0012439
1861.53	0.00119859
1871.17	0.0012282
1880.82	0.001443
1890.46	0.001468
1900.11	0.0013552
1909.75	0.00120399
1919.4	0.00112946
1929.04	0.00114574
1938.69	0.00111546
1948.33	0.0010275
1957.98	0.000993
1967.62	0.0010863
1977.27	0.000999
1986.91	0.000991
1996.56	0.001018
2006.2	0.0010658
2015.85	0.0010692
2025.49	0.00120533
2035.14	0.0014404
2044.78	0.0014572
2054.43	0.001507
2064.07	0.0017363
2073.72	0.0021152
2083.36	0.0024
2093.01	0.00238
2102.65	0.001754
2112.3	0.0013067
2121.94	0.0012275
2131.59	0.0012426
2141.23	0.0012967
2150.88	0.0010905
2160.52	0.0010376
2170.17	0.0013542
2179.81	0.0015367
2189.46	0.0014075
2199.1	0.00121462
2208.75	0.0010638
2218.39	0.000958
2228.04	0.000819
2237.68	0.000846
2247.33	0.000794
2256.97	0.000784
2266.62	0.000872
2276.26	0.000982
2285.91	0.00119691
2295.55	0.0013434
2305.2	0.0014058
2314.84	0.0012894
2324.49	0.0012332
2334.13	0.0013488
2343.78	0.001391
2353.42	0.0013519
2363.07	0.0013369
2372.72	0.0015699
2382.36	0.0017412
2392.01	0.0017129
2401.65	0.0016859
2411.3	0.00157
2420.94	0.0015985
2430.59	0.0015881
2440.23	0.0018117
2449.88	0.0019171
2459.52	0.0020172
2469.17	0.0023
2478.81	0.00261
2488.46	0.00283
2498.1	0.00256
2507.75	0.0016971
2517.39	0.0013083
2527.04	0.00114119
2536.68	0.0012619
2546.33	0.0014659
2555.97	0.0015812
2565.62	0.0018851
2575.26	0.00216
2584.91	0.0017683
2594.55	0.0014127
2604.2	0.0013093
2613.84	0.00119993
2623.49	0.0010685
2633.13	0.0012562
2642.78	0.0014236
2652.42	0.0018571
2662.07	0.0025
2671.71	0.00308
2681.36	0.00368
2691	0.00361
2700.65	0.00288
2710.29	0.0019465
2719.94	0.0014234
2729.58	0.0012745
2739.23	0.0012624
2748.87	0.0012813
2758.52	0.0014057
2768.16	0.0013183
2777.81	0.0014364
2787.45	0.0015639
2797.1	0.0015564
2806.74	0.0018338
2816.39	0.0020519
2826.03	0.00213
2835.68	0.00241
2845.32	0.00281
2854.97	0.0036
2864.61	0.00414
2874.26	0.00431
2883.9	0.00442
2893.55	0.00415
2903.19	0.00364
2912.84	0.00328
2922.48	0.00257
2932.13	0.00232
2941.77	0.0019519
2951.42	0.0014498
2961.06	0.0010562
2970.71	0.000805
2980.35	0.000875
2990	0.000666
2999.64	0.000374
3009.29	0.000524
3018.93	0.000604
3028.58	0.000685
3038.22	0.00121953
3047.87	0.00235
3057.51	0.00473
3067.16	0.00707
3076.8	0.00665
3086.45	0.00643
3096.09	0.00805
3105.74	0.00842
3115.38	0.00791
3125.03	0.0054
3134.67	0.00278
3144.32	0.0013145
3153.96	0.0007
3163.61	0.000462
3173.25	0.000284
3182.9	0.000341
3192.54	0.000384
3202.19	0.000462
3211.83	0.000469
3221.48	0.000358
3231.12	0.000204
3240.77	0.000193
3250.41	0.0001
3260.06	5e-05
3269.7	9e-05
3279.35	0.000136
3289	0.000221
3298.64	5e-05
3308.29	0.000283
3317.93	0.000228
3327.58	0.000343
3337.22	0.000257
3346.87	0.00011
3356.51	0.00023
3366.16	0.000241
3375.8	0.000259
3385.45	0.000259
3395.09	0.000373
3404.74	0.000447
3414.38	0.00036
3424.03	0.000322
3433.67	0.000385
3443.32	0.000291
3452.96	0.000464
3462.61	0.000417
3472.25	0.00017
3481.9	0.000304
3491.54	0.000354
3501.19	0.000443
3510.83	0.000682
3520.48	0.000307
3530.12	0.000581
3539.77	0.000542
3549.41	0.000433
3559.06	0.000629
3568.7	0.000653
3578.35	0.000499
3587.99	0.000557
3597.64	0.000542
3607.28	0.000637
3616.93	0.000474
3626.57	0.000522
3636.22	0.000622
3645.86	0.000673
3655.51	0.00056
3665.15	0.000613
3674.8	0.000604
3684.44	0.000577
3694.09	0.000558
3703.73	0.000861
3713.38	0.000628
3723.02	0.000615
3732.67	0.000545
3742.31	0.000375
3751.96	0.000731
3761.6	0.00073
3771.25	0.000824
3780.89	0.000911
3790.54	0.000691
3800.18	0.000869
3809.83	0.00065
3819.47	0.000688
3829.12	0.000679
3838.76	0.000631
3848.41	0.000649
3858.05	0.000823
3867.7	0.000608
3877.34	0.000863
3886.99	0.000867
3896.63	0.000784
3906.28	0.000832
3915.92	0.000734
3925.57	0.00065
3935.21	0.0008
3944.86	0.000813
3954.5	0.000825
3964.15	0.000805
3973.79	0.000701
3983.44	0.00072
3993.08	0.000696
