Infrared Spectrum: 2,4,4-Trimethylhexane
Formula: C 9 H 20
CAS: 16747-30-1
State: gas
Instrument: HP-GC/MS/IRD
Origin: NIST Mass Spectrometry Data Center
1/CM	ABSORBANCE
550	0.0003556
562	0.0002366
574	0.0002359
586	0.0002219
598	0.0001666
610	5.6e-05
622	9.59e-05
634	0.0001617
646	0.0001477
658	0.0001323
670	0.0001064
682	1.4e-06
694	8.68e-05
706	0.0001512
718	0.0001064
730	9.03e-05
742	0.0001281
754	9.52e-05
766	0.0001183
778	8.75e-05
790	0.0001001
802	8.68e-05
814	0.0001379
826	2.59e-05
838	8.82e-05
850	7.77e-05
862	8.54e-05
874	9.17e-05
886	6.16e-05
898	1.12e-05
910	7e-05
922	0.0001008
934	8.12e-05
946	9.66e-05
958	0.0001295
970	0.0001687
982	0.000154
994	0.0001232
1006	0.0001687
1018	0.0001463
1030	0.0001239
1042	0.0001323
1054	8.26e-05
1066	9.38e-05
1078	7.77e-05
1090	0.0001036
1102	6.51e-05
1114	7.14e-05
1126	9.59e-05
1138	0.000119
1150	0.0001799
1162	0.0002534
1174	0.0003318
1186	0.0002996
1198	0.0002709
1210	0.0002163
1222	0.0001624
1234	0.0001512
1246	0.0001127
1258	0.000133
1270	0.0001358
1282	0.000147
1294	0.0001414
1306	0.0001456
1318	0.0001428
1330	0.0001624
1342	0.0002429
1354	0.0004326
1366	0.0006524
1378	0.0007882
1390	0.0007238
1402	0.0004025
1414	0.0001876
1426	0.0001988
1438	0.0002772
1450	0.0005201
1462	0.0008722
1474	0.0009366
1486	0.0005467
1498	0.0002485
1510	0.0001407
1522	8.05e-05
1534	8.89e-05
1546	6.23e-05
1558	6.3e-05
1570	5.74e-05
1582	6.79e-05
1594	6.51e-05
1606	7.98e-05
1618	7.14e-05
1630	6.3e-05
1642	4.83e-05
1654	6.3e-05
1666	5.25e-05
1678	4.83e-05
1690	5.11e-05
1702	4.27e-05
1714	4.76e-05
1726	5.25e-05
1738	7.42e-05
1750	3.15e-05
1762	3.78e-05
1774	4.13e-05
1786	3.78e-05
1798	4.2e-05
1810	3.85e-05
1822	3.22e-05
1834	3.71e-05
1846	3.29e-05
1858	4.06e-05
1870	2.94e-05
1882	3.22e-05
1894	3.15e-05
1906	3.08e-05
1918	2.1e-05
1930	3.43e-05
1942	3.08e-05
1954	1.96e-05
1966	1.19e-05
1978	1.82e-05
1990	3.43e-05
2002	2.1e-05
2014	2.52e-05
2026	2.31e-05
2038	1.82e-05
2050	2.66e-05
2062	3.57e-05
2074	1.19e-05
2086	2.45e-05
2098	2.59e-05
2110	1.96e-05
2122	2.66e-05
2134	1.89e-05
2146	3.71e-05
2158	2.1e-05
2170	9.8e-06
2182	7e-06
2194	1.33e-05
2206	2.1e-05
2218	2.45e-05
2230	1.82e-05
2242	1.89e-05
2254	9.1e-06
2266	1.4e-05
2278	2.52e-05
2290	1.68e-05
2302	1.19e-05
2314	2.31e-05
2326	2.8e-05
2338	2.03e-05
2350	9.1e-06
2362	2.8e-06
2374	0
2386	1.12e-05
2398	2.03e-05
2410	1.33e-05
2422	3.22e-05
2434	2.45e-05
2446	2.59e-05
2458	2.94e-05
2470	2.1e-05
2482	3.29e-05
2494	1.61e-05
2506	2.94e-05
2518	2.38e-05
2530	3.36e-05
2542	2.31e-05
2554	2.38e-05
2566	3.22e-05
2578	2.73e-05
2590	2.38e-05
2602	4.06e-05
2614	5.18e-05
2626	4.69e-05
2638	5.46e-05
2650	6.44e-05
2662	4.34e-05
2674	4.27e-05
2686	4.69e-05
2698	4.27e-05
2710	7.98e-05
2722	7.77e-05
2734	0.0001309
2746	0.0001379
2758	0.0001057
2770	0.0001057
2782	0.0001519
2794	0.0001561
2806	0.0002079
2818	0.000259
2830	0.0003647
2842	0.0006251
2854	0.0010241
2866	0.0016044
2878	0.0022995
2890	0.0026222
2902	0.0029939
2914	0.0035371
2926	0.0036092
2938	0.0038815
2950	0.0048762
2962	0.0068131
2974	0.0058905
2986	0.0026271
2998	0.0010444
3010	0.0005145
3022	0.0003143
3034	0.0002226
3046	0.0001995
3058	0.0001743
3070	0.0001575
3082	0.0001463
3094	0.0001036
3106	0.0001141
3118	9.66e-05
3130	9.8e-05
3142	8.82e-05
3154	0.0001127
3166	9.73e-05
3178	7.49e-05
3190	7.98e-05
3202	6.72e-05
3214	7.56e-05
3226	6.86e-05
3238	4.48e-05
3250	6.09e-05
3262	5.25e-05
3274	1.89e-05
3286	1.12e-05
3298	3.36e-05
3310	7.7e-06
3322	3.78e-05
3334	4.76e-05
3346	3.85e-05
3358	4.06e-05
3370	4.48e-05
3382	3.43e-05
3394	4.06e-05
3406	4.41e-05
3418	1.05e-05
3430	1.68e-05
3442	3.36e-05
3454	2.1e-05
3466	3.64e-05
3478	3.15e-05
3490	3.22e-05
3502	1.54e-05
3514	1.12e-05
3526	1.4e-05
3538	2.03e-05
3550	3.92e-05
3562	6.37e-05
3574	4.9e-05
3586	4.9e-05
3598	5.53e-05
3610	6.58e-05
3622	4.62e-05
3634	6.51e-05
3646	5.39e-05
3658	4.2e-05
3670	3.22e-05
3682	2.87e-05
3694	3.64e-05
3706	7.84e-05
3718	1.47e-05
3730	3.57e-05
3742	3.01e-05
3754	3.43e-05
3766	3.99e-05
3778	4.06e-05
3790	3.92e-05
3802	5.25e-05
3814	2.66e-05
3826	6.3e-05
3838	5.95e-05
