Infrared Spectrum: 3,3,4-Trimethylhexane
Formula: C 9 H 20
CAS: 16747-31-2
State: gas
Instrument: HP-GC/MS/IRD
Origin: NIST Mass Spectrometry Data Center
1/CM	ABSORBANCE
550	0.000188
562	0.0002608
574	0.0001984
586	8.56e-05
598	0.0001416
610	6.64e-05
622	0.0001152
634	0.0001216
646	7.2e-05
658	8.48e-05
670	0.0001152
682	9.44e-05
694	0.0001136
706	8.96e-05
718	0.0001088
730	6.24e-05
742	8.8e-06
754	8.8e-05
766	0.0001592
778	0.000132
790	0.0001816
802	8.8e-05
814	6.64e-05
826	0.0001016
838	6.88e-05
850	9.6e-05
862	7.44e-05
874	5.84e-05
886	6.08e-05
898	3.76e-05
910	0.0001064
922	0.0001056
934	6e-05
946	0.0001088
958	0.0001184
970	0.000192
982	0.0001784
994	0.0002648
1006	0.0003664
1018	0.000344
1030	0.000208
1042	0.000192
1054	0.000164
1066	0.000156
1078	0.000204
1090	0.0002104
1102	0.000132
1114	0.0001576
1126	0.000156
1138	0.0002144
1150	0.00028
1162	0.000208
1174	0.0001896
1186	0.0002656
1198	0.0001976
1210	0.0002024
1222	0.0001296
1234	0.0001376
1246	0.0001104
1258	0.0001464
1270	0.0001312
1282	0.0001632
1294	0.00016
1306	0.0001584
1318	0.0001536
1330	0.0001512
1342	0.000196
1354	0.0003408
1366	0.0006808
1378	0.0010112
1390	0.000908
1402	0.0004968
1414	0.0002504
1426	0.0002224
1438	0.0003304
1450	0.0006264
1462	0.00094
1474	0.0009144
1486	0.0005608
1498	0.0002464
1510	0.0001184
1522	6.72e-05
1534	8.96e-05
1546	6.24e-05
1558	9.6e-06
1570	8.16e-05
1582	8.72e-05
1594	0.0001096
1606	8.88e-05
1618	6e-05
1630	8.4e-05
1642	6.48e-05
1654	3.2e-06
1666	4.56e-05
1678	4.96e-05
1690	5.68e-05
1702	1.52e-05
1714	2.72e-05
1726	4.16e-05
1738	2.64e-05
1750	4.24e-05
1762	4.08e-05
1774	5.6e-06
1786	5.52e-05
1798	4.8e-05
1810	5.68e-05
1822	5.92e-05
1834	3.44e-05
1846	3.2e-05
1858	3.52e-05
1870	6.16e-05
1882	3.6e-05
1894	4.96e-05
1906	4.16e-05
1918	4.64e-05
1930	4.24e-05
1942	3.76e-05
1954	3.36e-05
1966	6.16e-05
1978	3.04e-05
1990	4.72e-05
2002	3.04e-05
2014	4.64e-05
2026	5.2e-05
2038	4e-05
2050	2.72e-05
2062	4.32e-05
2074	4.16e-05
2086	2.88e-05
2098	1.68e-05
2110	2.48e-05
2122	3.12e-05
2134	3.44e-05
2146	2e-05
2158	4e-05
2170	3.52e-05
2182	4.8e-06
2194	2.72e-05
2206	1.92e-05
2218	4.08e-05
2230	2.72e-05
2242	1.84e-05
2254	2e-05
2266	1.76e-05
2278	2.56e-05
2290	2e-05
2302	2.72e-05
2314	1.76e-05
2326	2.4e-05
2338	2.4e-06
2350	2.4e-06
2362	5.6e-06
2374	1.76e-05
2386	1.92e-05
2398	3.84e-05
2410	9.6e-06
2422	2.48e-05
2434	3.52e-05
2446	1.12e-05
2458	2.4e-05
2470	2.32e-05
2482	3.2e-05
2494	4.96e-05
2506	2.48e-05
2518	2.48e-05
2530	3.04e-05
2542	3.28e-05
2554	1.92e-05
2566	4.08e-05
2578	4.96e-05
2590	4.48e-05
2602	5.6e-05
2614	6.24e-05
2626	3.92e-05
2638	4.8e-05
2650	7.84e-05
2662	5.2e-05
2674	5.52e-05
2686	4.8e-05
2698	4.32e-05
2710	4.72e-05
2722	8.72e-05
2734	9.76e-05
2746	0.0001088
2758	0.0001112
2770	0.0001176
2782	0.0001648
2794	0.0001648
2806	0.0002016
2818	0.0002312
2830	0.0003136
2842	0.0004528
2854	0.0008136
2866	0.0016408
2878	0.0027248
2890	0.0031024
2902	0.0026416
2914	0.0027072
2926	0.00338
2938	0.0042512
2950	0.0049
2962	0.0067904
2974	0.0078768
2986	0.0046656
2998	0.001724
3010	0.0007768
3022	0.0004936
3034	0.0003928
3046	0.0002976
3058	0.0002456
3070	0.000188
3082	0.0001864
3094	0.0001672
3106	0.0001472
3118	0.0001264
3130	9.6e-05
3142	0.0001176
3154	0.0001056
3166	7.92e-05
3178	9.52e-05
3190	9.44e-05
3202	8.88e-05
3214	4.24e-05
3226	6.4e-05
3238	4.64e-05
3250	3.6e-05
3262	1.04e-05
3274	2.56e-05
3286	3.52e-05
3298	3.6e-05
3310	4.4e-05
3322	5.84e-05
3334	4.48e-05
3346	4.16e-05
3358	3.2e-05
3370	3.6e-05
3382	4.8e-05
3394	4.96e-05
3406	5.36e-05
3418	4.64e-05
3430	6.8e-05
3442	4.24e-05
3454	7.76e-05
3466	5.2e-05
3478	5.52e-05
3490	6.4e-05
3502	3.76e-05
3514	5.84e-05
3526	3.04e-05
3538	4.88e-05
3550	5.52e-05
3562	7.28e-05
3574	2.56e-05
3586	2.88e-05
3598	4.72e-05
3610	4.96e-05
3622	4.32e-05
3634	4.16e-05
3646	3.76e-05
3658	1.36e-05
3670	2.72e-05
3682	6.72e-05
3694	3.76e-05
3706	5.12e-05
3718	8.16e-05
3730	3.52e-05
3742	1.6e-05
3754	2.4e-06
3766	6.72e-05
3778	5.52e-05
3790	6.64e-05
3802	5.6e-06
3814	1.44e-05
3826	8e-06
3838	2.56e-05
