Infrared Spectrum: 2-Methyl-5-hexen-2-ol
Formula: C 7 H 14 O
CAS: 16744-89-1
State: gas
Instrument: HP-GC/MS/IRD
Origin: NIST Mass Spectrometry Data Center
1/CM	ABSORBANCE
550	0.0006479
562	9.88e-05
574	0.0001349
586	6.84e-05
598	0.0001216
610	0.0003724
622	0.0008037
634	0.0007353
646	0.0004218
658	0.0002318
670	0.0001634
682	6.08e-05
694	9.12e-05
706	7.22e-05
718	2.85e-05
730	0.0001045
742	0.0001729
754	0.000323
766	0.0004598
778	0.0004142
790	0.0003173
802	0.0001216
814	0.0001691
826	0.000209
838	0.00038
850	0.0006783
862	0.0010127
874	0.0016093
886	0.0028082
898	0.0056031
910	0.0091542
922	0.0088369
934	0.0058178
946	0.0032984
958	0.0023047
970	0.0021945
982	0.002527
994	0.0028519
1006	0.002223
1018	0.0013946
1030	0.0011039
1042	0.0010602
1054	0.0011552
1066	0.0014516
1078	0.001919
1090	0.0024814
1102	0.0032946
1114	0.0043909
1126	0.005396
1138	0.0057988
1150	0.0060572
1162	0.0059793
1174	0.0053219
1186	0.0043928
1198	0.0039634
1210	0.0041952
1222	0.0043643
1234	0.003895
1246	0.0032319
1258	0.0029602
1270	0.0027854
1282	0.0025878
1294	0.0026011
1306	0.0027303
1318	0.0027246
1330	0.002603
1342	0.0026562
1354	0.0035074
1366	0.0053352
1378	0.0062624
1390	0.0045733
1402	0.0021755
1414	0.0014497
1426	0.0015181
1438	0.0019437
1450	0.0024434
1462	0.0025783
1474	0.0020634
1486	0.0011647
1498	0.000551
1510	0.0003192
1522	0.0002432
1534	0.0002375
1546	0.0002318
1558	0.0001444
1570	0.0001387
1582	0.0001672
1594	0.0002394
1606	0.0003477
1618	0.0007885
1630	0.0019988
1642	0.0027284
1654	0.0014193
1666	0.0003914
1678	0.0002204
1690	0.0001349
1702	8.17e-05
1714	0.0001007
1726	3.61e-05
1738	5.51e-05
1750	3.61e-05
1762	3.42e-05
1774	5.7e-05
1786	7.22e-05
1798	0.0001444
1810	0.0002964
1822	0.0005567
1834	0.0005567
1846	0.0002736
1858	0.0001197
1870	4.18e-05
1882	2.66e-05
1894	4.37e-05
1906	3.61e-05
1918	2.28e-05
1930	2.28e-05
1942	1.9e-05
1954	1.9e-05
1966	5.89e-05
1978	6.27e-05
1990	5.7e-05
2002	1.33e-05
2014	3.42e-05
2026	2.66e-05
2038	2.47e-05
2050	5.32e-05
2062	6.46e-05
2074	4.37e-05
2086	4.75e-05
2098	4.56e-05
2110	3.23e-05
2122	3.04e-05
2134	6.27e-05
2146	4.56e-05
2158	3.23e-05
2170	2.85e-05
2182	3.23e-05
2194	3.61e-05
2206	3.42e-05
2218	2.28e-05
2230	3.61e-05
2242	4.37e-05
2254	7.03e-05
2266	5.51e-05
2278	6.46e-05
2290	8.93e-05
2302	9.12e-05
2314	6.65e-05
2326	4.94e-05
2338	5.32e-05
2350	6.84e-05
2362	6.84e-05
2374	7.79e-05
2386	5.51e-05
2398	5.51e-05
2410	8.55e-05
2422	6.46e-05
2434	7.03e-05
2446	7.6e-05
2458	7.03e-05
2470	8.36e-05
2482	6.08e-05
2494	7.79e-05
2506	8.74e-05
2518	8.36e-05
2530	9.69e-05
2542	0.0001064
2554	7.98e-05
2566	8.93e-05
2578	9.88e-05
2590	8.93e-05
2602	0.0001349
2614	0.0001406
2626	0.0001349
2638	0.0001349
2650	0.0001539
2662	0.0001615
2674	0.0002033
2686	0.0002033
2698	0.0002185
2710	0.0002527
2722	0.0002926
2734	0.0003154
2746	0.0003116
2758	0.0002869
2770	0.0003325
2782	0.0003952
2794	0.0004788
2806	0.000608
2818	0.0008303
2830	0.001235
2842	0.0020102
2854	0.0030647
2866	0.0038684
2878	0.0043909
2890	0.0049818
2902	0.0061978
2914	0.0086127
2926	0.011818
2938	0.0132297
2950	0.012027
2962	0.0136762
2974	0.0187948
2986	0.0158042
2998	0.0077045
3010	0.0039311
3022	0.0022211
3034	0.0015295
3046	0.0013908
3058	0.0016492
3070	0.0024358
3082	0.0038323
3094	0.003211
3106	0.0012692
3118	0.0006973
3130	0.0005225
3142	0.0004332
3154	0.00038
3166	0.000285
3178	0.000304
3190	0.0002831
3202	0.0002489
3214	0.0002679
3226	0.0002375
3238	0.0001577
3250	0.0001558
3262	0.000114
3274	8.74e-05
3286	0.0001045
3298	5.32e-05
3310	9.5e-05
3322	8.93e-05
3334	6.27e-05
3346	6.65e-05
3358	9.69e-05
3370	0.0001178
3382	0.000133
3394	0.0001102
3406	0.0001235
3418	0.000133
3430	0.0001387
3442	8.36e-05
3454	6.08e-05
3466	6.84e-05
3478	9.5e-05
3490	4.18e-05
3502	7.03e-05
3514	3.42e-05
3526	6.27e-05
3538	4.56e-05
3550	4.37e-05
3562	7.6e-05
3574	5.13e-05
3586	9.12e-05
3598	0.0001957
3610	0.0004731
3622	0.0010374
3634	0.0017271
3646	0.0017499
3658	0.000836
3670	0.0002755
3682	0.0001159
3694	9.5e-05
3706	5.13e-05
3718	7.41e-05
3730	1.33e-05
3742	3.04e-05
3754	5.51e-05
3766	1.33e-05
3778	0
3790	3.04e-05
3802	1.52e-05
3814	6.65e-05
3826	3.61e-05
3838	4.37e-05
