Infrared Spectrum: 1,2-Dichloropentane
Formula: C 5 H 10 Cl 2
CAS: 1674-33-5
State: gas
Instrument: HP-GC/MS/IRD
Origin: NIST Mass Spectrometry Data Center
1/CM	ABSORBANCE
550	0.0006384
562	0.0003116
574	2.47e-05
586	0.0002489
598	0.0002755
610	0.0004845
622	0.0008303
634	0.0013091
646	0.0023579
658	0.0048298
670	0.0056791
682	0.0032034
694	0.00209
706	0.0025669
718	0.0040147
730	0.0070376
742	0.0076798
754	0.004427
766	0.0024586
778	0.0012654
790	0.0005719
802	0.0002888
814	0.0002489
826	0.0003135
838	0.0004294
850	0.0005567
862	0.0007486
874	0.0008987
886	0.0011153
898	0.0010944
910	0.0010336
922	0.0010298
934	0.0008531
946	0.0007334
958	0.0008588
970	0.0009291
982	0.0008303
994	0.0008037
1006	0.0005567
1018	0.0004256
1030	0.0005434
1042	0.0006365
1054	0.0008436
1066	0.001026
1078	0.0009253
1090	0.000988
1102	0.0007505
1114	0.0006441
1126	0.0004598
1138	0.0003021
1150	0.0003553
1162	0.000798
1174	0.0012806
1186	0.0011894
1198	0.0014383
1210	0.0018886
1222	0.0015789
1234	0.0015086
1246	0.0021641
1258	0.0024643
1270	0.0021717
1282	0.002185
1294	0.0022249
1306	0.0019456
1318	0.0014402
1330	0.0012236
1342	0.0010982
1354	0.0008265
1366	0.0007695
1378	0.001007
1390	0.001178
1402	0.0008303
1414	0.0008151
1426	0.00171
1438	0.0033098
1450	0.0037639
1462	0.0032832
1474	0.0023807
1486	0.0011761
1498	0.000589
1510	0.0004465
1522	0.000361
1534	0.0002869
1546	0.0002318
1558	0.0002413
1570	0.0001938
1582	0.0001159
1594	0.0001102
1606	0.0001501
1618	0.0001501
1630	0.000114
1642	0.0001292
1654	0.0001596
1666	8.74e-05
1678	0.0001311
1690	9.12e-05
1702	0.0001102
1714	8.17e-05
1726	7.03e-05
1738	0.0001083
1750	9.12e-05
1762	6.65e-05
1774	0.0001235
1786	3.23e-05
1798	6.27e-05
1810	4.75e-05
1822	7.03e-05
1834	5.51e-05
1846	7.03e-05
1858	4.18e-05
1870	3.99e-05
1882	5.51e-05
1894	3.42e-05
1906	5.13e-05
1918	4.56e-05
1930	3.23e-05
1942	7.79e-05
1954	3.42e-05
1966	6.27e-05
1978	6.84e-05
1990	4.56e-05
2002	2.66e-05
2014	6.27e-05
2026	6.08e-05
2038	4.94e-05
2050	5.7e-05
2062	6.84e-05
2074	7.41e-05
2086	5.13e-05
2098	5.7e-05
2110	5.32e-05
2122	3.42e-05
2134	5.13e-05
2146	5.7e-06
2158	3.42e-05
2170	3.99e-05
2182	3.99e-05
2194	6.84e-05
2206	4.75e-05
2218	5.89e-05
2230	5.51e-05
2242	4.37e-05
2254	4.94e-05
2266	4.18e-05
2278	7.79e-05
2290	4.75e-05
2302	6.65e-05
2314	4.94e-05
2326	7.41e-05
2338	7.6e-05
2350	6.27e-05
2362	0.0001501
2374	4.75e-05
2386	4.94e-05
2398	7.41e-05
2410	8.93e-05
2422	5.51e-05
2434	6.65e-05
2446	3.42e-05
2458	3.42e-05
2470	4.56e-05
2482	4.37e-05
2494	6.65e-05
2506	3.42e-05
2518	4.18e-05
2530	5.7e-05
2542	6.65e-05
2554	9.69e-05
2566	6.84e-05
2578	4.18e-05
2590	6.84e-05
2602	6.27e-05
2614	8.17e-05
2626	7.98e-05
2638	8.36e-05
2650	8.17e-05
2662	0.0001064
2674	0.0001026
2686	0.000133
2698	0.0001482
2710	0.0002204
2722	0.0002451
2734	0.0002508
2746	0.0003306
2758	0.0003458
2770	0.0002793
2782	0.0003173
2794	0.0004446
2806	0.0005776
2818	0.0006688
2830	0.0009329
2842	0.0014858
2854	0.0021641
2866	0.0031521
2878	0.0056088
2890	0.0065512
2902	0.0052839
2914	0.0056677
2926	0.007429
2938	0.0101479
2950	0.0123728
2962	0.0160645
2974	0.0186561
2986	0.0098325
2998	0.0036879
3010	0.0023541
3022	0.0018487
3034	0.001254
3046	0.0008341
3058	0.0006118
3070	0.0004693
3082	0.0004085
3094	0.0003591
3106	0.0002926
3118	0.0002888
3130	0.0003059
3142	0.0002565
3154	0.0002527
3166	0.000209
3178	0.0002071
3190	0.0001881
3202	0.0001767
3214	0.0001406
3226	0.0001273
3238	9.5e-05
3250	7.98e-05
3262	7.41e-05
3274	0.0001501
3286	0.0001064
3298	9.69e-05
3310	6.65e-05
3322	4.37e-05
3334	9.69e-05
3346	0.0001045
3358	8.17e-05
3370	0.0001102
3382	9.12e-05
3394	8.55e-05
3406	5.7e-05
3418	7.03e-05
3430	7.22e-05
3442	8.36e-05
3454	0.0001216
3466	0.0001216
3478	0.0001064
3490	5.13e-05
3502	0.0001425
3514	7.79e-05
3526	3.99e-05
3538	6.08e-05
3550	9.88e-05
3562	0.000133
3574	0.0001007
3586	0.0001577
3598	9.12e-05
3610	0.000133
3622	0.0001387
3634	0.0001634
3646	0.0001729
3658	0.0001368
3670	0.0002128
3682	0.0001292
3694	0.000171
3706	0.0001976
3718	0.0001767
3730	0.000228
3742	0.0002622
3754	0.0002641
3766	0.0001976
3778	0.0002204
3790	0.0001767
3802	0.0001995
3814	0.0002489
3826	0.0002166
3838	0.0001995
