Infrared Spectrum: 1,2-Dimethylcyclohexene
Formula: C 8 H 14
CAS: 1674-10-8
State: gas
Instrument: HP-GC/MS/IRD
Origin: NIST Mass Spectrometry Data Center
1/CM	ABSORBANCE
550	0.0007378
562	0.000372
574	0.0002542
586	0.00031
598	0.0004836
610	0.000217
622	0.000217
634	0.0002542
646	0.000186
658	0.0001736
670	5.58e-05
682	0.0001984
694	0.000155
706	0.0001984
718	0.000155
730	0.0001798
742	0.0002108
754	0.0002046
766	0.0001798
778	0.0001674
790	0.000217
802	0.0003162
814	0.0005642
826	0.0006324
838	0.0005704
850	0.0003906
862	0.0004464
874	0.0004464
886	0.0003658
898	0.0003658
910	0.0004092
922	0.0004898
934	0.0004588
946	0.0004712
958	0.000527
970	0.000558
982	0.000527
994	0.000496
1006	0.0005146
1018	0.0005332
1030	0.0003782
1042	0.0003658
1054	0.0004092
1066	0.0005022
1078	0.0006014
1090	0.0005766
1102	0.000868
1114	0.0013516
1126	0.0021886
1138	0.0024738
1150	0.0018166
1162	0.0009858
1174	0.00062
1186	0.0004278
1198	0.0004216
1210	0.0005456
1222	0.0008432
1234	0.0010478
1246	0.000961
1258	0.0009362
1270	0.0009858
1282	0.0008928
1294	0.0006696
1306	0.0006324
1318	0.0007626
1330	0.0011532
1342	0.0014942
1354	0.0016368
1366	0.0018352
1378	0.0025854
1390	0.0028458
1402	0.0019902
1414	0.001612
1426	0.0024862
1438	0.0041664
1450	0.0052328
1462	0.0040176
1474	0.0025172
1486	0.0013888
1498	0.0010664
1510	0.0009858
1522	0.001116
1534	0.0011656
1546	0.001147
1558	0.0010788
1570	0.0008432
1582	0.0006758
1594	0.0005146
1606	0.0004092
1618	0.0003534
1630	0.0002914
1642	0.0002914
1654	0.0003472
1666	0.0003162
1678	0.0002666
1690	0.000248
1702	0.0002046
1714	0.0001922
1726	0.0001798
1738	0.0001612
1750	0.0001488
1762	0.000124
1774	0.0001364
1786	0.0001178
1798	0.0001178
1810	0.0001302
1822	0.0001302
1834	0.000124
1846	0.000124
1858	0.0001302
1870	0.0001426
1882	0.0001364
1894	0.0001364
1906	0.0001798
1918	0.0001488
1930	0.0001302
1942	0.0001116
1954	0.000124
1966	0.0001364
1978	0.0001364
1990	9.92e-05
2002	0.0001116
2014	0.0001178
2026	0.0001116
2038	0.0001116
2050	9.3e-05
2062	0.0001302
2074	9.3e-05
2086	8.06e-05
2098	9.3e-05
2110	7.44e-05
2122	6.2e-05
2134	6.82e-05
2146	6.82e-05
2158	5.58e-05
2170	6.82e-05
2182	5.58e-05
2194	6.82e-05
2206	0.0001054
2218	0.0001178
2230	8.06e-05
2242	8.68e-05
2254	8.68e-05
2266	6.82e-05
2278	6.2e-05
2290	6.82e-05
2302	7.44e-05
2314	8.06e-05
2326	0.0001302
2338	0.0001426
2350	0.000124
2362	0.0001612
2374	0.0001116
2386	0.0001178
2398	0.0001054
2410	0.0001116
2422	0.0001302
2434	0.0001302
2446	0.0001612
2458	0.0001798
2470	0.0001984
2482	0.0001798
2494	0.0001984
2506	0.0002046
2518	0.0002232
2530	0.0002046
2542	0.0001736
2554	0.0001736
2566	0.0001922
2578	0.0002232
2590	0.0002666
2602	0.0002976
2614	0.00031
2626	0.0003534
2638	0.0003658
2650	0.0005766
2662	0.0009486
2674	0.0012152
2686	0.0011532
2698	0.0009796
2710	0.0009362
2722	0.0011036
2734	0.0012152
2746	0.0011036
2758	0.0010788
2770	0.0012524
2782	0.001612
2794	0.0022258
2806	0.0031558
2818	0.0056606
2830	0.0138694
2842	0.0206708
2854	0.0243598
2866	0.0282038
2878	0.0317254
2890	0.0302188
2902	0.0344844
2914	0.0424204
2926	0.0538222
2938	0.056141
2950	0.0358546
2962	0.0126604
2974	0.0067394
2986	0.0077314
2998	0.0085932
3010	0.0077872
3022	0.0064046
3034	0.0052948
3046	0.003875
3058	0.00248
3070	0.0015872
3082	0.0010912
3094	0.0007998
3106	0.0006014
3118	0.0004836
3130	0.0003906
3142	0.000341
3154	0.0003038
3166	0.0003162
3178	0.0002666
3190	0.0002666
3202	0.0002356
3214	0.0002108
3226	0.0001984
3238	0.000155
3250	0.0001178
3262	8.68e-05
3274	0.0001116
3286	7.44e-05
3298	6.2e-05
3310	8.06e-05
3322	8.68e-05
3334	0.0001178
3346	0.0001054
3358	0.0001178
3370	0.0001364
3382	0.0001116
3394	0.0001178
3406	0.0001054
3418	1.86e-05
3430	6.82e-05
3442	8.68e-05
3454	6.82e-05
3466	6.82e-05
3478	9.92e-05
3490	0.000124
3502	9.3e-05
3514	0.000155
3526	0.0001178
3538	0.0001612
3550	0.0001302
3562	9.92e-05
3574	4.96e-05
3586	6.82e-05
3598	0.0001054
3610	8.68e-05
3622	0.0001054
3634	0.0001116
3646	0.0001116
3658	9.92e-05
3670	0.0001302
3682	8.68e-05
3694	0.0001178
3706	0.0001984
3718	0.0001922
3730	0.0002108
3742	0.0002046
3754	0.0002542
3766	0.0002542
3778	0.0002418
3790	0.000248
3802	0.000279
3814	0.0002728
3826	0.0002728
3838	0.0002604
