Infrared Spectrum: 3,4-Dimethyl-1-hexene
Formula: C 8 H 16
CAS: 16745-94-1
State: gas
Instrument: HP-GC/MS/IRD
Origin: NIST Mass Spectrometry Data Center
1/CM	ABSORBANCE
550	0.0002623
562	0.0001032
574	9.03e-05
586	0.0001462
598	0.0001333
610	0.0001806
622	0.0002752
634	0.0003139
646	0.0004816
658	0.0008385
670	0.0011481
682	0.0011739
694	0.0007826
706	0.0005031
718	0.0003268
730	0.0003827
742	0.0004902
754	0.0005848
766	0.0005977
778	0.0004859
790	0.0005031
802	0.0005117
814	0.0004214
826	0.0004945
838	0.0006106
850	0.0006149
862	0.0006536
874	0.000817
886	0.0014921
898	0.0043258
910	0.0086473
922	0.0074261
934	0.0028122
946	0.0015867
958	0.0016555
970	0.0019694
982	0.0030444
994	0.0048977
1006	0.0047601
1018	0.0026875
1030	0.0015652
1042	0.00129
1054	0.0012384
1066	0.0011653
1078	0.0011739
1090	0.0012943
1102	0.0013158
1114	0.0013244
1126	0.0010535
1138	0.0008256
1150	0.0006235
1162	0.0005074
1174	0.0003913
1186	0.0003483
1198	0.0002795
1210	0.0002236
1222	0.000387
1234	0.0004988
1246	0.0007009
1258	0.0006622
1270	0.0007654
1282	0.0009374
1294	0.0010449
1306	0.0010363
1318	0.000903
1330	0.0009417
1342	0.0009847
1354	0.0014878
1366	0.0029584
1378	0.0049923
1390	0.0044634
1402	0.0024553
1414	0.0023134
1426	0.0023908
1438	0.0025542
1450	0.0042656
1462	0.0056029
1474	0.0042312
1486	0.0021371
1498	0.0009804
1510	0.0004257
1522	0.0003784
1534	0.000387
1546	0.0003139
1558	0.0002881
1570	0.0005203
1582	0.0006235
1594	0.0006536
1606	0.0007525
1618	0.0013072
1630	0.0025112
1642	0.0026617
1654	0.0012169
1666	0.0005977
1678	0.0003741
1690	0.0002752
1702	0.0001118
1714	8.6e-05
1726	0.0001806
1738	9.46e-05
1750	3.44e-05
1762	0.0001075
1774	7.74e-05
1786	9.46e-05
1798	0.0001505
1810	0.0003827
1822	0.0007955
1834	0.0009159
1846	0.0004472
1858	0.0002064
1870	0.0001204
1882	0.0001419
1894	0.0001333
1906	0.0001333
1918	0.0001032
1930	0.0001118
1942	8.6e-05
1954	0.0001118
1966	0.0001161
1978	0.0001548
1990	0.000129
2002	0.0001075
2014	8.17e-05
2026	0.0001032
2038	7.74e-05
2050	9.03e-05
2062	8.17e-05
2074	7.74e-05
2086	6.88e-05
2098	8.6e-05
2110	9.03e-05
2122	0.0001032
2134	7.31e-05
2146	4.3e-05
2158	6.45e-05
2170	8.17e-05
2182	8.17e-05
2194	7.74e-05
2206	4.73e-05
2218	4.73e-05
2230	5.16e-05
2242	5.59e-05
2254	8.17e-05
2266	8.17e-05
2278	6.45e-05
2290	9.03e-05
2302	5.16e-05
2314	4.3e-06
2326	4.3e-06
2338	1.72e-05
2350	3.87e-05
2362	4.3e-06
2374	3.44e-05
2386	0.0001247
2398	0.0001591
2410	0.0001763
2422	0.0001763
2434	0.0001462
2446	0.0001591
2458	0.0001806
2470	0.0001634
2482	0.0001247
2494	0.000129
2506	0.0001677
2518	0.0001634
2530	0.0001849
2542	0.0002623
2554	0.0002967
2566	0.0003354
2578	0.0003827
2590	0.0003827
2602	0.0003999
2614	0.0004257
2626	0.0004042
2638	0.0004257
2650	0.0004343
2662	0.00043
2674	0.00043
2686	0.0004601
2698	0.0004773
2710	0.0005375
2722	0.0006536
2734	0.0008041
2746	0.0008772
2758	0.0008256
2770	0.0008514
2782	0.000903
2794	0.0010922
2806	0.0013029
2818	0.0016211
2830	0.0020941
2842	0.0029283
2854	0.0054911
2866	0.0116272
2878	0.0194231
2890	0.0200079
2902	0.0156692
2914	0.0159229
2926	0.0199563
2938	0.0225062
2950	0.0242004
2962	0.0361071
2974	0.0420024
2986	0.0256194
2998	0.0110381
3010	0.0061748
3022	0.0040033
3034	0.0028552
3046	0.0025972
3058	0.0030186
3070	0.0045838
3082	0.0060157
3094	0.0043172
3106	0.0019006
3118	0.0011997
3130	0.0010148
3142	0.0009288
3154	0.0008686
3166	0.0008514
3178	0.0007396
3190	0.0005633
3202	0.0004859
3214	0.0003741
3226	0.0002967
3238	0.0002924
3250	0.0002666
3262	0.0002666
3274	0.000215
3286	0.0002236
3298	0.000172
3310	0.0001892
3322	0.0001806
3334	0.0001548
3346	0.0001892
3358	0.0001978
3370	0.0001978
3382	0.0001634
3394	0.0001634
3406	0.0001376
3418	0.0001591
3430	0.0001376
3442	0.0001376
3454	0.0001419
3466	0.0001419
3478	0.0001505
3490	0.0001376
3502	5.59e-05
3514	0.0001204
3526	4.73e-05
3538	0.0001247
3550	6.88e-05
3562	4.3e-05
3574	0.0001032
3586	1.72e-05
3598	0.0001161
3610	5.59e-05
3622	0.0001376
3634	0.0001548
3646	0.0001075
3658	0.0002107
3670	0.000129
3682	0.0002107
3694	0.0001591
3706	0.0001935
3718	0.0002064
3730	0.0001333
3742	0.0001161
3754	0.0001462
3766	0.0001892
3778	0.0002838
3790	0.0002709
3802	0.0002064
3814	0.0002193
3826	0.0002795
3838	0.0002279
