Infrared Spectrum: 1-Ethyl-1-methylcyclopentane
Formula: C 8 H 16
CAS: 16747-50-5
State: gas
Instrument: HP-GC/MS/IRD
Origin: NIST Mass Spectrometry Data Center
1/CM	ABSORBANCE
550	0.0003528
562	0.0002088
574	0.0002151
586	0.0002781
598	9.27e-05
610	0.0001179
622	0.0001935
634	8.37e-05
646	0.0001809
658	0.000117
670	6.75e-05
682	6.03e-05
694	0.0001233
706	4.5e-05
718	0.0001071
730	8.01e-05
742	0.000126
754	2.97e-05
766	0.0001386
778	0.0001143
790	0.0001629
802	0.0001404
814	0.0001062
826	2.52e-05
838	4.77e-05
850	4.05e-05
862	7.47e-05
874	3.6e-05
886	3.96e-05
898	7.65e-05
910	9.81e-05
922	0.0001134
934	0.0001098
946	6.39e-05
958	0.0001188
970	0.0001494
982	0.0001458
994	0.0002583
1006	0.0002412
1018	0.0001845
1030	0.0001503
1042	0.0001242
1054	8.28e-05
1066	0.0001125
1078	8.82e-05
1090	4.95e-05
1102	7.65e-05
1114	7.56e-05
1126	8.64e-05
1138	0.0001089
1150	0.0001341
1162	0.0001872
1174	0.0001287
1186	0.000135
1198	0.0001368
1210	0.0001638
1222	0.0001431
1234	0.000153
1246	0.0001368
1258	0.0001404
1270	0.0001107
1282	0.0001107
1294	0.0001116
1306	0.0001359
1318	0.0001584
1330	0.0001665
1342	0.0001719
1354	0.0001827
1366	0.0003411
1378	0.0005535
1390	0.0004725
1402	0.0002151
1414	0.000153
1426	0.0002223
1438	0.0003789
1450	0.0007038
1462	0.0008172
1474	0.0006633
1486	0.0004284
1498	0.0002376
1510	0.0001251
1522	7.56e-05
1534	9.99e-05
1546	8.46e-05
1558	6.3e-06
1570	9.72e-05
1582	0.0001152
1594	0.0001071
1606	9.27e-05
1618	6.57e-05
1630	7.11e-05
1642	6.75e-05
1654	2.16e-05
1666	5.85e-05
1678	7.11e-05
1690	5.13e-05
1702	1.26e-05
1714	3.15e-05
1726	6.48e-05
1738	4.68e-05
1750	4.86e-05
1762	4.23e-05
1774	5.13e-05
1786	7.11e-05
1798	6.48e-05
1810	7.02e-05
1822	5.13e-05
1834	7.83e-05
1846	4.23e-05
1858	6.3e-05
1870	4.59e-05
1882	6.12e-05
1894	6.03e-05
1906	5.22e-05
1918	5.58e-05
1930	3.42e-05
1942	4.68e-05
1954	5.58e-05
1966	3.15e-05
1978	4.86e-05
1990	7.38e-05
2002	4.32e-05
2014	5.04e-05
2026	4.86e-05
2038	3.87e-05
2050	4.68e-05
2062	4.23e-05
2074	3.69e-05
2086	2.16e-05
2098	5.76e-05
2110	4.59e-05
2122	3.24e-05
2134	3.42e-05
2146	5.31e-05
2158	5.22e-05
2170	3.69e-05
2182	3.51e-05
2194	3.6e-05
2206	3.6e-06
2218	3.87e-05
2230	2.16e-05
2242	3.33e-05
2254	5.04e-05
2266	3.33e-05
2278	2.88e-05
2290	5.22e-05
2302	3.24e-05
2314	5.31e-05
2326	1.35e-05
2338	2.25e-05
2350	2.61e-05
2362	3.6e-06
2374	1.71e-05
2386	5.76e-05
2398	5.22e-05
2410	4.59e-05
2422	6.03e-05
2434	6.48e-05
2446	6.12e-05
2458	6.39e-05
2470	4.32e-05
2482	7.47e-05
2494	5.04e-05
2506	7.65e-05
2518	5.67e-05
2530	8.1e-05
2542	6.48e-05
2554	5.49e-05
2566	7.47e-05
2578	0.0001107
2590	9.09e-05
2602	9.18e-05
2614	9.99e-05
2626	9.72e-05
2638	9.54e-05
2650	0.0001287
2662	0.0001143
2674	9.9e-05
2686	9.09e-05
2698	0.0001251
2710	0.0001035
2722	0.0001332
2734	0.000153
2746	0.0001899
2758	0.0001638
2770	0.0001953
2782	0.0002124
2794	0.0002592
2806	0.0002754
2818	0.0003366
2830	0.0005265
2842	0.000801
2854	0.0016092
2866	0.002574
2878	0.0033291
2890	0.0033273
2902	0.0032328
2914	0.0038259
2926	0.004671
2938	0.0057087
2950	0.0076464
2962	0.0089694
2974	0.0064512
2986	0.0027882
2998	0.0011421
3010	0.0006786
3022	0.0004446
3034	0.000333
3046	0.0002898
3058	0.0002862
3070	0.0002718
3082	0.0002556
3094	0.0001935
3106	0.0001872
3118	0.0001629
3130	0.0001629
3142	0.000162
3154	0.0001071
3166	0.0001323
3178	0.0001503
3190	0.000144
3202	9.63e-05
3214	6.03e-05
3226	8.37e-05
3238	8.64e-05
3250	9.36e-05
3262	6.66e-05
3274	9.18e-05
3286	0.0001125
3298	9.45e-05
3310	9.63e-05
3322	9.45e-05
3334	0.000108
3346	8.64e-05
3358	0.0001125
3370	9.99e-05
3382	8.91e-05
3394	8.73e-05
3406	9.99e-05
3418	9.63e-05
3430	6.48e-05
3442	5.31e-05
3454	6.39e-05
3466	6.12e-05
3478	6.84e-05
3490	6.75e-05
3502	9.81e-05
3514	5.22e-05
3526	8.19e-05
3538	0.0001017
3550	0.0001026
3562	4.32e-05
3574	4.59e-05
3586	0.0001008
3598	9.09e-05
3610	5.76e-05
3622	5.22e-05
3634	4.95e-05
3646	5.58e-05
3658	4.05e-05
3670	2.61e-05
3682	3.6e-05
3694	8.46e-05
3706	5.31e-05
3718	4.05e-05
3730	1.71e-05
3742	3.6e-06
3754	1.89e-05
3766	0.0001152
3778	7.56e-05
3790	3.78e-05
3802	2.88e-05
3814	5.31e-05
3826	4.95e-05
3838	2.97e-05
