Infrared Spectrum: 2,2-Dimethyl-3-ethylpentane
Formula: C 9 H 20
CAS: 16747-32-3
State: gas
Instrument: HP-GC/MS/IRD
Origin: NIST Mass Spectrometry Data Center
1/CM	ABSORBANCE
550	0.0003213
562	0.0002856
574	0.0003009
586	0.0002346
598	0.0001071
610	0.000153
622	0.0001479
634	0.0001275
646	0.0001377
658	2.55e-05
670	4.59e-05
682	0.0001938
694	0.0001275
706	0.0002397
718	0.0002652
730	0.0001377
742	0.0002091
754	0.0002346
766	0.0003927
778	0.0004182
790	0.0003162
802	0.0001377
814	7.65e-05
826	5.1e-05
838	8.16e-05
850	8.16e-05
862	5.1e-05
874	0.0001173
886	0.0001173
898	0.0004233
910	0.0010812
922	0.00102
934	0.0004284
946	0.000102
958	2.04e-05
970	3.57e-05
982	1.02e-05
994	8.67e-05
1006	0.0002448
1018	0.0003213
1030	0.0002601
1042	0.0002346
1054	0.000153
1066	0.000255
1078	0.0004233
1090	0.0004284
1102	0.0004233
1114	0.0003468
1126	0.0005661
1138	0.0006477
1150	0.0006885
1162	0.0007293
1174	0.0009843
1186	0.0015249
1198	0.0017442
1210	0.0019431
1222	0.0022338
1234	0.0019839
1246	0.0012342
1258	0.000816
1270	0.0006834
1282	0.0006834
1294	0.0008313
1306	0.0008976
1318	0.0007548
1330	0.0006273
1342	0.0008976
1354	0.0022491
1366	0.0049113
1378	0.0051459
1390	0.0046869
1402	0.0034782
1414	0.0014688
1426	0.0009435
1438	0.0013158
1450	0.002499
1462	0.0048042
1474	0.0063291
1486	0.0046308
1498	0.0021063
1510	0.0008823
1522	0.0005304
1534	0.0003417
1546	0.0002652
1558	0.0002754
1570	0.000204
1582	0.0001989
1594	0.0001632
1606	0.0001785
1618	0.0001734
1630	0.0001887
1642	0.0001836
1654	0.0001887
1666	0.0001887
1678	0.0001428
1690	0.0001275
1702	0.0001683
1714	0.0001224
1726	8.67e-05
1738	0.000102
1750	0.000102
1762	8.16e-05
1774	9.18e-05
1786	0.0001224
1798	7.65e-05
1810	7.14e-05
1822	6.63e-05
1834	7.14e-05
1846	8.16e-05
1858	4.08e-05
1870	8.16e-05
1882	7.14e-05
1894	8.16e-05
1906	9.69e-05
1918	7.14e-05
1930	5.1e-05
1942	7.14e-05
1954	6.12e-05
1966	2.55e-05
1978	2.55e-05
1990	3.06e-05
2002	5.1e-06
2014	5.1e-05
2026	5.61e-05
2038	4.08e-05
2050	5.61e-05
2062	4.08e-05
2074	4.59e-05
2086	5.1e-05
2098	3.57e-05
2110	3.57e-05
2122	1.53e-05
2134	6.12e-05
2146	2.04e-05
2158	3.57e-05
2170	6.12e-05
2182	0
2194	0
2206	1.53e-05
2218	2.04e-05
2230	5.1e-06
2242	3.06e-05
2254	1.02e-05
2266	2.55e-05
2278	5.61e-05
2290	7.14e-05
2302	7.65e-05
2314	2.04e-05
2326	3.57e-05
2338	3.06e-05
2350	5.61e-05
2362	8.16e-05
2374	7.14e-05
2386	0.0001275
2398	0.0001224
2410	8.67e-05
2422	6.63e-05
2434	4.59e-05
2446	7.14e-05
2458	6.63e-05
2470	8.67e-05
2482	9.18e-05
2494	5.1e-05
2506	3.57e-05
2518	7.65e-05
2530	9.18e-05
2542	0.0001275
2554	0.0001326
2566	0.0002091
2578	0.0002193
2590	0.0002346
2602	0.0002907
2614	0.0003111
2626	0.000255
2638	0.0002754
2650	0.0003213
2662	0.0003468
2674	0.000408
2686	0.0003519
2698	0.0004233
2710	0.0004794
2722	0.000612
2734	0.0007905
2746	0.0008262
2758	0.0008007
2770	0.0007752
2782	0.0008619
2794	0.0009741
2806	0.0012852
2818	0.0016116
2830	0.0020706
2842	0.0032589
2854	0.0063699
2866	0.0120462
2878	0.0187629
2890	0.0193035
2902	0.016014
2914	0.0162792
2926	0.0204
2938	0.028458
2950	0.0371586
2962	0.0483582
2974	0.0471801
2986	0.0250716
2998	0.0095931
3010	0.0046869
3022	0.0031314
3034	0.0023154
3046	0.0017697
3058	0.00153
3070	0.0013056
3082	0.0011577
3094	0.0010455
3106	0.000969
3118	0.0008466
3130	0.000765
3142	0.0007701
3154	0.0007038
3166	0.0006732
3178	0.0006069
3190	0.0004692
3202	0.0004182
3214	0.0003621
3226	0.0003723
3238	0.0002805
3250	0.000255
3262	0.0002397
3274	0.0001836
3286	0.0001734
3298	0.000204
3310	0.0001734
3322	7.65e-05
3334	0.0001428
3346	7.65e-05
3358	9.18e-05
3370	0.0001785
3382	0.0001173
3394	0.0001173
3406	0.000102
3418	9.69e-05
3430	8.67e-05
3442	0.0001632
3454	0.0001377
3466	5.1e-05
3478	9.18e-05
3490	0.0001224
3502	9.18e-05
3514	7.14e-05
3526	7.14e-05
3538	8.67e-05
3550	8.16e-05
3562	1.53e-05
3574	0.0001122
3586	7.14e-05
3598	0.0001224
3610	7.65e-05
3622	0.000102
3634	1.02e-05
3646	0.0001326
3658	0.0001479
3670	0.0001377
3682	0.0001734
3694	5.61e-05
3706	0.0001479
3718	0.0001581
3730	0.0001071
3742	9.69e-05
3754	0.0001224
3766	0.0001785
3778	5.1e-05
3790	0.0001173
3802	0.0001224
3814	0.0001581
3826	0.0001071
3838	0.0002091
