Infrared Spectrum: Azelaic dinitrile
Formula: C 9 H 14 N 2
CAS: 1675-69-0
State: gas
Origin: EPA-IR VAPOR PHASE LIBRARY
1/CM	ABSORBANCE
549.9	0.00087692
559.547	0.000666
569.193	0.000697
578.84	0.000517
588.486	0.000225
598.133	0.000102
607.779	0.00018
617.426	0.000142
627.072	0.000237
636.719	0.000318
646.365	0.000323
656.012	0.000435
665.658	0.000531
675.305	0.00083323
684.951	0.0013113
694.598	0.002193
704.245	0.003663
713.891	0.005823
723.538	0.007283
733.184	0.006423
742.831	0.004643
752.477	0.003553
762.124	0.002903
771.77	0.002373
781.417	0.002103
791.063	0.001843
800.71	0.0016924
810.356	0.0017116
820.003	0.002003
829.649	0.002323
839.296	0.002503
848.943	0.002433
858.589	0.002333
868.236	0.002103
877.882	0.0018095
887.529	0.0017651
897.175	0.001883
906.822	0.002053
916.468	0.002193
926.115	0.002113
935.761	0.001983
945.408	0.001873
955.054	0.0016393
964.701	0.0012726
974.347	0.0012267
983.994	0.0013062
993.64	0.0013911
1003.29	0.0014361
1012.93	0.0013662
1022.58	0.0012784
1032.23	0.0011169
1041.87	0.0010855
1051.52	0.0012127
1061.17	0.0013118
1070.81	0.0014532
1080.46	0.0015414
1090.11	0.0014501
1099.75	0.0011696
1109.4	0.000699
1119.05	0.00032
1128.69	0.000381
1138.34	0.000464
1147.99	0.000573
1157.63	0.000639
1167.28	0.00081517
1176.92	0.0009528
1186.57	0.0010707
1196.22	0.0013194
1205.86	0.001513
1215.51	0.001873
1225.16	0.002093
1234.8	0.002253
1244.45	0.002293
1254.1	0.002543
1263.74	0.003063
1273.39	0.003523
1283.04	0.003943
1292.68	0.004643
1302.33	0.005973
1311.98	0.007563
1321.62	0.008923
1331.27	0.009563
1340.92	0.009953
1350.56	0.011633
1360.21	0.011173
1369.86	0.008163
1379.5	0.006133
1389.15	0.004453
1398.79	0.004153
1408.44	0.005583
1418.09	0.009683
1427.73	0.020803
1437.38	0.033773
1447.03	0.030573
1456.67	0.032193
1466.32	0.028283
1475.97	0.016353
1485.61	0.007743
1495.26	0.004263
1504.91	0.002903
1514.55	0.002263
1524.2	0.0017011
1533.85	0.0014515
1543.49	0.0012383
1553.14	0.001135
1562.79	0.0010328
1572.43	0.0009431
1582.08	0.000863
1591.73	0.00084304
1601.37	0.0008001
1611.02	0.0007286
1620.67	0.0007273
1630.31	0.000703
1639.96	0.000608
1649.6	0.000607
1659.25	0.000664
1668.9	0.000627
1678.54	0.000632
1688.19	0.000615
1697.84	0.000538
1707.48	0.00057
1717.13	0.000497
1726.78	0.000508
1736.42	0.000405
1746.07	0.000262
1755.72	3.7e-05
1765.36	0.000203
1775.01	0.000371
1784.66	0.000466
1794.3	0.000553
1803.95	0.000602
1813.6	0.000591
1823.24	0.0006
1832.89	0.000622
1842.54	0.000601
1852.18	0.000602
1861.83	0.0006
1871.47	0.000611
1881.12	0.000653
1890.77	0.000671
1900.41	0.000648
1910.06	0.000586
1919.71	0.000619
1929.35	0.000541
1939	0.000562
1948.65	0.000587
1958.29	0.000536
1967.94	0.00058
1977.59	0.000635
1987.23	0.000687
1996.88	0.000706
2006.53	0.0007743
2016.17	0.00085698
2025.82	0.0009503
2035.47	0.0009801
2045.11	0.001043
2054.76	0.0010451
2064.41	0.0009782
2074.05	0.00091116
2083.7	0.00086488
2093.35	0.00085362
2102.99	0.00085151
2112.64	0.00086993
2122.28	0.00088404
2131.93	0.00086327
2141.58	0.00088108
2151.22	0.0009464
2160.87	0.0009628
2170.52	0.0010433
2180.16	0.0010371
2189.81	0.0010511
2199.46	0.0011542
2209.1	0.0012565
2218.75	0.001505
2228.4	0.002183
2238.04	0.004063
2247.69	0.007313
2257.34	0.007073
2266.98	0.003703
2276.63	0.002233
2286.28	0.0017285
2295.92	0.0015265
2305.57	0.0013882
2315.22	0.0012757
2324.86	0.00121
2334.51	0.0011591
2344.16	0.0012044
2353.8	0.0012207
2363.45	0.0011993
2373.09	0.0012343
2382.74	0.0012267
2392.39	0.0011849
2402.03	0.0012107
2411.68	0.0011998
2421.33	0.0012434
2430.97	0.0012589
2440.62	0.0012239
2450.27	0.0011716
2459.91	0.0010608
2469.56	0.0010162
2479.21	0.0010143
2488.85	0.0009793
2498.5	0.0010793
2508.15	0.0011816
2517.79	0.0012811
2527.44	0.0013318
2537.09	0.0014067
2546.73	0.0013334
2556.38	0.0013213
2566.03	0.0013187
2575.67	0.0014171
2585.32	0.0015248
2594.96	0.0017664
2604.61	0.002013
2614.26	0.002083
2623.9	0.002043
2633.55	0.002103
2643.2	0.002263
2652.84	0.002413
2662.49	0.002483
2672.14	0.002593
2681.78	0.002753
2691.43	0.002853
2701.08	0.002803
2710.72	0.002613
2720.37	0.002503
2730.02	0.002393
2739.66	0.002503
2749.31	0.002683
2758.96	0.002923
2768.6	0.003133
2778.25	0.003363
2787.9	0.003723
2797.54	0.004433
2807.19	0.005373
2816.84	0.006623
2826.48	0.008523
2836.13	0.011803
2845.77	0.019103
2855.42	0.036263
2865.07	0.062123
2874.71	0.071703
2884.36	0.055283
2894.01	0.039643
2903.65	0.040633
2913.3	0.058703
2922.95	0.094413
2932.59	0.147413
2942.24	0.197603
2951.89	0.205353
2961.53	0.157113
2971.18	0.081053
2980.83	0.033873
2990.47	0.017083
3000.12	0.010523
3009.77	0.007283
3019.41	0.005593
3029.06	0.004443
3038.71	0.003713
3048.35	0.003103
3058	0.002503
3067.64	0.002113
3077.29	0.001903
3086.94	0.0017563
3096.58	0.0016143
3106.23	0.0015615
3115.88	0.0013874
3125.52	0.0013467
3135.17	0.0014153
3144.82	0.001406
3154.46	0.0014844
3164.11	0.0015259
3173.76	0.0014293
3183.4	0.0014032
3193.05	0.0011657
3202.7	0.0011447
3212.34	0.0009592
3221.99	0.0009748
3231.64	0.0010028
3241.28	0.00083085
3250.93	0.00087941
3260.58	0.000685
3270.22	0.0005
3279.87	0.000505
3289.52	0.00053
3299.16	0.000545
3308.81	0.000668
3318.45	0.000526
3328.1	0.000512
3337.75	0.000385
3347.39	0.000386
3357.04	0.000246
3366.69	0.000278
3376.33	0.000222
3385.98	0.000261
3395.63	0.000207
3405.27	0.000116
3414.92	0.000198
3424.57	0.000216
3434.21	6.2e-05
3443.86	0.000141
3453.51	0.000223
3463.15	0.000111
3472.8	0.000229
3482.45	0.000324
3492.09	9.1e-05
3501.74	0.000274
3511.39	0.000223
3521.03	0.000308
3530.68	0.000252
3540.33	0.0002
3549.97	0.000109
3559.62	0.000162
3569.26	5.7e-05
3578.91	3.9e-05
3588.56	6e-06
3598.2	0.000288
3607.85	0.000219
3617.5	0.000293
3627.14	0.000236
3636.79	0.000399
3646.44	0.000389
3656.08	0.000312
3665.73	0.000318
3675.38	0.00034
3685.02	0.00042
3694.67	0.000356
3704.32	0.000425
3713.96	0.000396
3723.61	0.00042
3733.26	0.000455
3742.9	0.000291
3752.55	0.000342
3762.2	0.000461
3771.84	0.000527
3781.49	0.000501
3791.13	0.000529
3800.78	0.00041
3810.43	0.000452
3820.07	0.000488
3829.72	0.000479
3839.37	0.000483
3849.01	0.000497
3858.66	0.000565
3868.31	0.000592
3877.95	0.000537
3887.6	0.000588
3897.25	0.000594
3906.89	0.000601
3916.54	0.000606
3926.19	0.0007532
3935.83	0.00085073
3945.48	0.0009342
3955.13	0.000924
3964.77	0.0009726
3974.42	0.000692
3984.07	0.000697
3993.71	0.000815567
