Infrared Spectrum: 4-Heptylamine
Formula: C 7 H 17 N
CAS: 16751-59-0
State: gas
Origin: EPA-IR VAPOR PHASE LIBRARY
1/CM	ABSORBANCE
501.5	0.00255
513.074	0.00221
524.648	0.00239
536.222	0.00252
547.796	0.00245
559.37	0.00254
570.944	0.00273
582.518	0.00314
594.092	0.00303
605.666	0.00305
617.24	0.00302
628.814	0.00304
640.388	0.00316
651.962	0.00357
663.536	0.00402
675.11	0.00447
686.684	0.00507
698.258	0.00589
709.832	0.007
721.406	0.00877
732.98	0.01123
744.554	0.01402
756.128	0.01754
767.702	0.02219
779.276	0.02634
790.85	0.02522
802.423	0.01832
813.997	0.0119
825.571	0.00864
837.145	0.00707
848.719	0.00636
860.293	0.00557
871.867	0.00507
883.441	0.00481
895.015	0.00473
906.589	0.00417
918.163	0.00337
929.737	0.00311
941.311	0.0027
952.885	0.00243
964.459	0.00223
976.033	0.00217
987.607	0.00249
999.181	0.00316
1010.76	0.00388
1022.33	0.00366
1033.9	0.0027
1045.48	0.00253
1057.05	0.0025
1068.63	0.00273
1080.2	0.00265
1091.77	0.00252
1103.35	0.00309
1114.92	0.00424
1126.49	0.00545
1138.07	0.00635
1149.64	0.00594
1161.22	0.00376
1172.79	0.00243
1184.36	0.00198
1195.94	0.00194
1207.51	0.00186
1219.09	0.0022
1230.66	0.00242
1242.23	0.00249
1253.81	0.00263
1265.38	0.00261
1276.96	0.00259
1288.53	0.00256
1300.1	0.00268
1311.68	0.00317
1323.25	0.00398
1334.83	0.00508
1346.4	0.00626
1357.97	0.00753
1369.55	0.00912
1381.12	0.00969
1392.7	0.00741
1404.27	0.00457
1415.84	0.0037
1427.42	0.00458
1438.99	0.00731
1450.57	0.01112
1462.14	0.01328
1473.71	0.01078
1485.29	0.00622
1496.86	0.0036
1508.44	0.0027
1520.01	0.00237
1531.58	0.00219
1543.16	0.00218
1554.73	0.00223
1566.31	0.00248
1577.88	0.00307
1589.45	0.0043
1601.03	0.00677
1612.6	0.00956
1624.18	0.00964
1635.75	0.00666
1647.32	0.00365
1658.9	0.00208
1670.47	0.00138
1682.05	0.00106
1693.62	0.0008419
1705.19	0.0006928
1716.77	0.0006686
1728.34	0.0005847
1739.92	0.0005372
1751.49	0.0005143
1763.06	0.0005119
1774.64	0.0005232
1786.21	0.0004673
1797.79	0.0004742
1809.36	0.0004659
1820.93	0.0004183
1832.51	0.0003864
1844.08	0.0003338
1855.66	0.0002948
1867.23	0.0002737
1878.8	0.0002226
1890.38	0.0001934
1901.95	0.0001906
1913.53	0.0001905
1925.1	0.0001564
1936.67	0.0001399
1948.25	0.0001408
1959.82	9.543e-05
1971.4	9.047e-05
1982.97	8.009e-05
1994.54	8.4e-05
2006.12	0.0001063
2017.69	9.054e-05
2029.27	0.0001545
2040.84	0.0001792
2052.41	0.0001661
2063.99	0.0001355
2075.56	0.0001249
2087.14	9.252e-05
2098.71	9.195e-05
2110.28	0.0001064
2121.86	0.0001107
2133.43	0.0001171
2145.01	0.0001215
2156.58	0.0001268
2168.15	0.0001479
2179.73	0.0001827
2191.3	0.0002081
2202.88	0.0001829
2214.45	0.0001906
2226.02	0.0001786
2237.6	0.0001894
2249.17	0.0001896
2260.74	0.0002258
2272.32	0.0002112
2283.89	0.0002418
2295.47	0.0002166
2307.04	0.0002146
2318.61	0.0002779
2330.19	0.0002995
2341.76	0.0003264
2353.34	0.0003781
2364.91	0.0004178
2376.48	0.0003874
2388.06	0.0003826
2399.63	0.0003751
2411.21	0.0003708
2422.78	0.0003692
2434.35	0.0003428
2445.93	0.0003316
2457.5	0.0002679
2469.08	0.0003014
2480.65	0.0002876
2492.22	0.0003288
2503.8	0.0003622
2515.37	0.0004393
2526.95	0.0004701
2538.52	0.0005312
2550.09	0.0006444
2561.67	0.0007714
2573.24	0.0009356
2584.82	0.00101
2596.39	0.0011
2607.96	0.00113
2619.54	0.00122
2631.11	0.00133
2642.69	0.00149
2654.26	0.00167
2665.83	0.00184
2677.41	0.00191
2688.98	0.00199
2700.56	0.00204
2712.13	0.00221
2723.7	0.0025
2735.28	0.00296
2746.85	0.00326
2758.43	0.00322
2770	0.00329
2781.57	0.00374
2793.15	0.00456
2804.72	0.00586
2816.3	0.00801
2827.87	0.01188
2839.44	0.01872
2851.02	0.02756
2862.59	0.03552
2874.17	0.04725
2885.74	0.05354
2897.31	0.05323
2908.89	0.06573
2920.46	0.0838
2932.04	0.09443
2943.61	0.08767
2955.18	0.08525
2966.76	0.09857
2978.33	0.06551
2989.91	0.02542
3001.48	0.0129
3013.05	0.00896
3024.63	0.00711
3036.2	0.00588
3047.78	0.00458
3059.35	0.00353
3070.92	0.00293
3082.5	0.00262
3094.07	0.00232
3105.65	0.00208
3117.22	0.00183
3128.79	0.00168
3140.37	0.00154
3151.94	0.00143
3163.52	0.00134
3175.09	0.00125
3186.66	0.00114
3198.24	0.00106
3209.81	0.0008325
3221.39	0.0006163
3232.96	0.0005741
3244.53	0.0005153
3256.11	0.0004811
3267.68	0.0004598
3279.26	0.0004415
3290.83	0.0004176
3302.4	0.0004984
3313.98	0.0007933
3325.55	0.00121
3337.13	0.00118
3348.7	0.0009226
3360.27	0.0005703
3371.85	0.0004373
3383.42	0.0003487
3395	0.0003671
3406.57	0.0004027
3418.14	0.0003338
3429.72	0.0003198
3441.29	0.0002594
3452.86	0.0001738
3464.44	0.0002684
3476.01	0.0002571
3487.59	0.0001455
3499.16	0.0001733
3510.73	0.0001218
3522.31	0.0001994
3533.88	0.0001972
3545.46	0.0001702
3557.03	0.0001802
3568.6	0.0001845
3580.18	0.0001807
3591.75	0.0001517
3603.33	0.0001681
3614.9	0.0001745
3626.47	0.0003059
3638.05	0.0002765
3649.62	0.0002631
3661.2	0.0003113
3672.77	0.0003196
3684.34	0.0003446
3695.92	0.0003461
3707.49	0.0002567
3719.07	0.0003304
3730.64	0.0003367
3742.21	0.0003909
3753.79	0.0003164
3765.36	0.0003973
3776.94	0.0004183
3788.51	0.0004076
3800.08	0.0003919
3811.66	0.0003378
3823.23	0.0003444
3834.81	0.0002489
3846.38	0.0002975
3857.95	0.0003761
3869.53	0.0003331
3881.1	0.0003469
3892.68	0.0003302
3904.25	0.0003612
3915.82	0.0003463
3927.4	0.0004539
3938.97	0.0004445
3950.55	0.0004782
3962.12	0.0004958
3973.69	0.0004822
3985.27	0.0005643
3996.84	0.0005293
