Infrared Spectrum: 4,4'-ISOPROPYLIDENE DIPHENOL, DIGLYCIDYL ETHER-
Formula: C21 H24 O4
CAS: 1675-54-3
State: SOLUTION (10% CCl4 FOR 3800-1330, 10% CS2 FOR 1330-450 CM^-^1)
Class: COBLENTZ III
Instrument: DOW KBr FOREPRISM-GRATING
Instrument parameters: BLAZED AT 3.5, 12.0, 20.0 MICRON AND CHANGED AT 5.0, 7.5, 14.9 MICRON
Sampling: TRANSMISSION
Path length: 0.011 CM, 0.011 CM
Resolution: 4
Origin: DOW CHEMICAL COMPANY
1/CM	TRANSMITTANCE
449.924	0.907
459.029	0.918
468.133	0.936
477.238	0.95
486.343	0.948
495.448	0.952
504.552	0.957
513.657	0.971
522.762	0.962
531.866	0.939
540.971	0.866
550.076	0.7331
559.181	0.671
568.285	0.5891
577.39	0.628
586.495	0.753
595.599	0.9119
604.704	0.934
613.809	0.969
622.914	0.976
632.018	0.971
641.123	0.932
650.228	0.921
659.333	0.957
668.437	0.991
677.542	1.003
686.647	1.024
695.751	1.026
704.856	1.023
713.961	1.01
723.066	0.927
732.17	0.9091
741.275	0.934
750.38	0.854
759.484	0.797
768.589	0.797
777.694	0.7459
786.799	0.891
795.903	0.7991
805.008	0.545
814.113	0.653
823.217	0.2233
832.322	0.0709
841.427	0.207
850.532	0.323
859.636	0.378
868.741	0.6986
877.846	0.849
886.95	0.911
896.055	0.904
905.16	0.7399
914.265	0.509
923.369	0.6457
932.474	0.838
941.579	0.898
950.684	0.918
959.788	0.8681
968.893	0.7631
977.998	0.882
987.102	0.875
996.207	0.829
1005.31	0.8021
1014.42	0.5908
1023.52	0.527
1032.63	0.298
1041.73	0.065
1050.84	0.5057
1059.94	0.8249
1069.04	0.824
1078.15	0.699
1087.25	0.694
1096.36	0.802
1105.46	0.6801
1114.57	0.74
1123.67	0.74
1132.78	0.628
1141.88	0.786
1150.99	0.7221
1160.09	0.737
1169.2	0.765
1178.3	0.4278
1187.41	0.0949
1196.51	0.7059
1205.62	0.763
1214.72	0.5161
1223.83	0.142
1232.93	0.046
1242.03	0.035
1251.14	0.028
1260.24	0.113
1269.35	0.468
1278.45	0.602
1287.56	0.5381
1296.66	0.365
1305.77	0.374
1314.87	0.564
1323.98	0.836
1333.08	0.852
1342.19	0.73
1351.29	0.74
1360.4	0.532
1369.5	0.833
1378.61	0.865
1387.71	0.7809
1396.81	0.875
1405.92	0.836
1415.02	0.742
1424.13	0.7861
1433.23	0.831
1442.34	0.795
1451.44	0.531
1460.55	0.557
1469.65	0.4721
1478.76	0.619
1487.86	0.568
1496.97	0.3919
1506.07	0.026
1515.18	0.019
1524.28	0.516
1533.39	0.513
1542.49	0.486
1551.59	0.506
1560.7	0.548
1569.8	0.582
1578.91	0.5
1588.01	0.534
1597.12	0.5162
1606.22	0.2392
1615.33	0.5179
1624.43	0.815
1633.54	0.912
1642.64	0.941
1651.75	0.955
1660.85	0.96
1669.96	0.971
1679.06	0.973
1688.17	0.978
1697.27	0.98
1706.38	0.976
1715.48	0.973
1724.58	0.971
1733.69	0.969
1742.79	0.962
1751.9	0.959
1761	0.962
1770.11	0.969
1779.21	0.976
1788.32	0.982
1797.42	0.984
1806.53	0.978
1815.63	0.978
1824.74	0.978
1833.84	0.969
1842.95	0.966
1852.05	0.96
1861.16	0.952
1870.26	0.944
1879.36	0.93
1888.47	0.934
1897.57	0.964
1906.68	0.966
1915.78	0.976
1924.89	0.982
1933.99	0.982
1943.1	0.985
1952.2	0.985
1961.31	0.984
1970.41	0.976
1979.52	0.973
1988.62	0.968
1997.73	0.955
2006.83	0.955
2015.94	0.955
2025.04	0.957
2034.15	0.953
2043.25	0.948
2052.35	0.941
2061.46	0.936
2070.56	0.936
2079.67	0.941
2088.77	0.953
2097.88	0.962
2106.98	0.969
2116.09	0.971
2125.19	0.976
2134.3	0.982
2143.4	0.985
2152.51	0.985
2161.61	0.985
2170.72	0.985
2179.82	0.985
2188.93	0.984
2198.03	0.982
2207.13	0.98
2216.24	0.98
2225.34	0.978
2234.45	0.976
2243.55	0.969
2252.66	0.96
2261.76	0.957
2270.87	0.95
2279.97	0.946
2289.08	0.946
2298.18	0.95
2307.29	0.957
2316.39	0.966
2325.5	0.969
2334.6	0.976
2343.71	0.976
2352.81	0.978
2361.91	0.982
2371.02	0.98
2380.12	0.976
2389.23	0.976
2398.33	0.975
2407.44	0.971
2416.54	0.971
2425.65	0.971
2434.75	0.973
2443.86	0.975
2452.96	0.975
2462.07	0.971
2471.17	0.971
2480.28	0.969
2489.38	0.971
2498.49	0.975
2507.59	0.976
2516.7	0.973
2525.8	0.968
2534.9	0.969
2544.01	0.969
2553.11	0.975
2562.22	0.978
2571.32	0.978
2580.43	0.978
2589.53	0.978
2598.64	0.978
2607.74	0.98
2616.85	0.989
2625.95	0.991
2635.06	0.989
2644.16	0.989
2653.27	0.987
2662.37	0.987
2671.48	0.987
2680.58	0.985
2689.68	0.984
2698.79	0.982
2707.89	0.978
2717	0.976
2726.1	0.975
2735.21	0.9729
2744.31	0.957
2753.42	0.957
2762.52	0.9691
2771.63	0.973
2780.73	0.9709
2789.84	0.962
2798.94	0.9569
2808.05	0.9519
2817.15	0.9369
2826.26	0.891
2835.36	0.9
2844.46	0.889
2853.57	0.8406
2862.67	0.7306
2871.78	0.5569
2880.88	0.6118
2889.99	0.71
2899.09	0.7055
2908.2	0.6245
2917.3	0.4805
2926.41	0.4256
2935.51	0.4784
2944.62	0.5641
2953.72	0.573
2962.83	0.384
2971.93	0.2591
2981.04	0.4062
2990.14	0.5611
2999.25	0.5379
3008.35	0.5673
3017.45	0.7366
3026.56	0.8009
3035.66	0.7395
3044.77	0.6917
3053.87	0.6249
3062.98	0.6398
3072.08	0.7785
3081.19	0.8956
3090.29	0.9179
3099.4	0.907
3108.5	0.9369
3117.61	0.9761
3126.71	0.98
3135.82	0.9922
3144.92	1.001
3154.03	1.001
3163.13	1.001
3172.23	1.003
3181.34	1.003
3190.44	1.003
3199.55	1.0031
3208.65	1.005
3217.76	1.005
3226.86	1.005
3235.97	1.005
3245.07	1.005
3254.18	1.005
3263.28	1.005
3272.39	1.005
3281.49	1.0071
3290.6	1.01
3299.7	1.01
3308.81	1.01
3317.91	1.01
3327.02	1.0101
3336.12	1.012
3345.22	1.012
3354.33	1.012
3363.43	1.012
3372.54	1.012
3381.64	1.014
3390.75	1.0149
3399.85	1.014
3408.96	1.0139
3418.06	1.01
3427.17	1.01
3436.27	1.0079
3445.38	1.005
3454.48	1.005
3463.59	1.003
3472.69	1.001
3481.8	0.9999
3490.9	0.998
3500	0.998
3509.11	0.9979
3518.21	0.992
3527.32	0.992
3536.42	0.991
3545.53	0.991
3554.63	0.991
3563.74	0.9911
3572.84	0.9911
3581.95	0.991
3591.05	0.992
3600.16	0.994
3609.26	0.9921
3618.37	0.996
3627.47	0.996
3636.58	0.996
3645.68	0.996
3654.78	0.996
3663.89	0.996
3672.99	0.996
3682.1	0.998
3691.2	0.998
3700.31	1
3709.41	1
3718.52	1
3727.62	1
3736.73	1
3745.83	1
3754.94	0.9999
3764.04	0.998
3773.15	0.996
3782.25	0.996
3791.36	0.996
