Infrared Spectrum: 4-Chloro-2-methoxyphenol
Formula: C 7 H 7 Cl O 2
CAS: 16766-30-6
State: gas
Origin: EPA-IR VAPOR PHASE LIBRARY
1/CM	ABSORBANCE
549.8	0.00692
559.445	0.00591
569.09	0.00487
578.735	0.00628
588.38	0.00598
598.025	0.00474
607.67	0.00333
617.315	0.00243
626.96	0.00235
636.605	0.00365
646.251	0.01282
655.896	0.01547
665.541	0.00558
675.186	0.0020045
684.831	0.0017575
694.476	0.0017272
704.121	0.0019687
713.766	0.0018587
723.411	0.0019064
733.056	0.00214
742.701	0.00312
752.346	0.00494
761.991	0.00772
771.636	0.01643
781.281	0.0301
790.926	0.02777
800.571	0.0205
810.216	0.02782
819.861	0.01759
829.507	0.0141
839.152	0.01769
848.797	0.01506
858.442	0.01236
868.087	0.01927
877.732	0.03007
887.377	0.02082
897.022	0.00682
906.667	0.00373
916.312	0.00328
925.957	0.00312
935.602	0.00289
945.247	0.00259
954.892	0.00268
964.537	0.00308
974.182	0.00402
983.827	0.00514
993.472	0.0067
1003.12	0.01109
1012.76	0.02033
1022.41	0.03051
1032.05	0.03398
1041.7	0.0273
1051.34	0.01545
1060.99	0.00811
1070.63	0.0101
1080.28	0.01707
1089.92	0.01639
1099.57	0.01251
1109.21	0.02622
1118.86	0.02863
1128.5	0.01571
1138.15	0.00802
1147.79	0.00839
1157.44	0.01158
1167.08	0.01531
1176.73	0.01869
1186.37	0.02399
1196.02	0.0375
1205.66	0.05776
1215.31	0.0897
1224.95	0.11048
1234.6	0.08772
1244.24	0.06293
1253.89	0.09912
1263.53	0.12022
1273.18	0.06786
1282.82	0.02086
1292.47	0.01162
1302.11	0.00932
1311.76	0.00882
1321.4	0.00869
1331.05	0.01012
1340.69	0.01718
1350.34	0.03084
1359.98	0.03721
1369.63	0.02719
1379.27	0.01298
1388.92	0.00808
1398.56	0.00912
1408.21	0.01515
1417.85	0.02149
1427.5	0.01952
1437.14	0.01911
1446.79	0.03031
1456.43	0.03486
1466.08	0.02906
1475.73	0.0343
1485.37	0.07898
1495.02	0.17692
1504.66	0.1599
1514.31	0.04964
1523.95	0.01857
1533.6	0.0122
1543.24	0.00786
1552.89	0.00526
1562.53	0.00437
1572.18	0.00534
1581.82	0.00916
1591.47	0.01407
1601.11	0.01886
1610.76	0.01955
1620.4	0.01227
1630.05	0.0054
1639.69	0.00357
1649.34	0.003
1658.98	0.00266
1668.63	0.00275
1678.27	0.00262
1687.92	0.00226
1697.56	0.00215
1707.21	0.00213
1716.85	0.00224
1726.5	0.00243
1736.14	0.00252
1745.79	0.00215
1755.43	0.0018323
1765.08	0.0019852
1774.72	0.0020644
1784.37	0.0020092
1794.01	0.0018057
1803.66	0.0016262
1813.3	0.0015929
1822.95	0.0016798
1832.59	0.0019733
1842.24	0.00265
1851.88	0.00301
1861.53	0.00252
1871.17	0.0019281
1880.82	0.0018655
1890.46	0.0016563
1900.11	0.0016048
1909.75	0.0015836
1919.4	0.001355
1929.04	0.001257
1938.69	0.00118907
1948.33	0.00111531
1957.98	0.00110699
1967.62	0.00116145
1977.27	0.0012234
1986.91	0.0014406
1996.56	0.0016565
2006.2	0.0017598
2015.85	0.0019165
2025.49	0.00223
2035.14	0.0027
2044.78	0.00295
2054.43	0.00262
2064.07	0.00211
2073.72	0.0018821
2083.36	0.0017929
2093.01	0.0019183
2102.65	0.0019032
2112.3	0.0017113
2121.94	0.0015567
2131.59	0.0015505
2141.23	0.0015809
2150.88	0.0015226
2160.52	0.0012745
2170.17	0.00118006
2179.81	0.00113243
2189.46	0.00112339
2199.1	0.00118181
2208.75	0.0012231
2218.39	0.0012338
2228.04	0.0014252
2237.68	0.0014026
2247.33	0.0014819
2256.97	0.0015358
2266.62	0.0016548
2276.26	0.0019175
2285.91	0.0018983
2295.55	0.0015861
2305.2	0.001373
2314.84	0.0013061
2324.49	0.0012852
2334.13	0.0013026
2343.78	0.0013706
2353.42	0.0013815
2363.07	0.0013705
2372.72	0.0016856
2382.36	0.0016899
2392.01	0.0015581
2401.65	0.0014597
2411.3	0.0014571
2420.94	0.0014133
2430.59	0.0014521
2440.23	0.0015607
2449.88	0.0017307
2459.52	0.0018569
2469.17	0.00211
2478.81	0.0025
2488.46	0.00242
2498.1	0.0020284
2507.75	0.001865
2517.39	0.001763
2527.04	0.0016572
2536.68	0.001421
2546.33	0.0013018
2555.97	0.0012686
2565.62	0.0012081
2575.26	0.0012047
2584.91	0.0012421
2594.55	0.0013531
2604.2	0.0014509
2613.84	0.0016527
2623.49	0.001694
2633.13	0.0016633
2642.78	0.0016137
2652.42	0.0014112
2662.07	0.0012767
2671.71	0.0013173
2681.36	0.001222
2691	0.0012218
2700.65	0.0011906
2710.29	0.0012762
2719.94	0.0012812
2729.58	0.0013214
2739.23	0.001319
2748.87	0.0013647
2758.52	0.0014159
2768.16	0.0014433
2777.81	0.0014567
2787.45	0.001451
2797.1	0.0017506
2806.74	0.0023
2816.39	0.00284
2826.03	0.00345
2835.68	0.0054
2845.32	0.00885
2854.97	0.00972
2864.61	0.00767
2874.26	0.00602
2883.9	0.00519
2893.55	0.00473
2903.19	0.00546
2912.84	0.00724
2922.48	0.00906
2932.13	0.00979
2941.77	0.01351
2951.42	0.01744
2961.06	0.01769
2970.71	0.01455
2980.35	0.00965
2990	0.0073
2999.64	0.00874
3009.29	0.0133
3018.93	0.01158
3028.58	0.00562
3038.22	0.0038
3047.87	0.00339
3057.51	0.00366
3067.16	0.00363
3076.8	0.00374
3086.45	0.00342
3096.09	0.00223
3105.74	0.0017245
3115.38	0.0015238
3125.03	0.0011932
3134.67	0.0010618
3144.32	0.000907
3153.96	0.000924
3163.61	0.000862
3173.25	0.000844
3182.9	0.000692
3192.54	0.000584
3202.19	0.000557
3211.83	0.000586
3221.48	0.000519
3231.12	0.000338
3240.77	0.000451
3250.41	0.000538
3260.06	0.000382
3269.7	0.000433
3279.35	0.000316
3289	0.00023
3298.64	0.000421
3308.29	0.000594
3317.93	0.000355
3327.58	0.000256
3337.22	0.000215
3346.87	8e-05
3356.51	0.000158
3366.16	0.000149
3375.8	9e-05
3385.45	0.000195
3395.09	0.000197
3404.74	0.000286
3414.38	0.000168
3424.03	0.000122
3433.67	0.000234
3443.32	0.000191
3452.96	0.000279
3462.61	0.000202
3472.25	0.000137
3481.9	0.000232
3491.54	0.000188
3501.19	0.000385
3510.83	0.000358
3520.48	0.000521
3530.12	0.000705
3539.77	0.0012319
3549.41	0.0018782
3559.06	0.00359
3568.7	0.01058
3578.35	0.03601
3587.99	0.06255
3597.64	0.0465
3607.28	0.01435
3616.93	0.00397
3626.57	0.00215
3636.22	0.0017028
3645.86	0.0027
3655.51	0.00251
3665.15	0.00113207
3674.8	0.000387
3684.44	0.00048
3694.09	0.000449
3703.73	0.000437
3713.38	0.000435
3723.02	0.000533
3732.67	0.000409
3742.31	0.000231
3751.96	0.000357
3761.6	0.000243
3771.25	0.000342
3780.89	0.000383
3790.54	0.000304
3800.18	0.000301
3809.83	0.000318
3819.47	0.000367
3829.12	0.000317
3838.76	0.000515
3848.41	0.000336
3858.05	0.000618
3867.7	0.000751
3877.34	0.000854
3886.99	0.000669
3896.63	0.000528
3906.28	0.00041
3915.92	0.000589
3925.57	0.000464
3935.21	0.000759
3944.86	0.000732
3954.5	0.000727
3964.15	0.000827
3973.79	0.000881
3983.44	0.0006
3993.08	0.000754
