Infrared Spectrum: 4-Methoxybenzoyl isothiocyanate
Formula: C 9 H 7 N O 2 S
CAS: 16778-84-0
State: gas
Origin: EPA-IR VAPOR PHASE LIBRARY
1/CM	ABSORBANCE
549.8	0.004548
559.445	0.005508
569.09	0.007978
578.734	0.013148
588.379	0.029488
598.024	0.062188
607.669	0.061578
617.313	0.046958
626.958	0.034578
636.603	0.024278
646.248	0.023518
655.893	0.015608
665.537	0.014328
675.182	0.020958
684.827	0.021988
694.472	0.012668
704.116	0.007958
713.761	0.006578
723.406	0.007188
733.051	0.009078
742.695	0.016598
752.34	0.026878
761.985	0.024138
771.63	0.026188
781.275	0.047758
790.919	0.038638
800.564	0.014608
810.209	0.016018
819.854	0.027458
829.498	0.027078
839.143	0.043418
848.788	0.074978
858.433	0.132758
868.078	0.157588
877.722	0.087488
887.367	0.043808
897.012	0.032688
906.657	0.030578
916.301	0.026538
925.946	0.022228
935.591	0.019268
945.236	0.019108
954.88	0.021428
964.525	0.023948
974.17	0.020478
983.815	0.016778
993.46	0.015428
1003.1	0.017228
1012.75	0.022468
1022.39	0.038608
1032.04	0.061808
1041.68	0.056288
1051.33	0.034938
1060.97	0.045058
1070.62	0.074218
1080.26	0.086468
1089.91	0.048748
1099.55	0.018928
1109.2	0.012948
1118.84	0.013408
1128.49	0.012848
1138.13	0.017158
1147.78	0.032028
1157.42	0.113038
1167.07	0.344148
1176.71	0.153358
1186.36	0.055558
1196	0.037518
1205.64	0.052958
1215.29	0.097848
1224.93	0.167168
1234.58	0.378398
1244.22	0.568208
1253.87	0.423838
1263.51	0.203198
1273.16	0.094988
1282.8	0.055338
1292.45	0.055268
1302.09	0.075708
1311.74	0.065558
1321.38	0.042898
1331.03	0.021838
1340.67	0.012158
1350.32	0.010808
1359.96	0.009358
1369.61	0.007608
1379.25	0.006328
1388.9	0.006128
1398.54	0.007728
1408.18	0.013708
1417.83	0.022168
1427.47	0.015868
1437.12	0.013468
1446.76	0.019788
1456.41	0.019788
1466.05	0.029218
1475.7	0.026798
1485.34	0.021148
1494.99	0.035308
1504.63	0.078288
1514.28	0.062528
1523.92	0.019328
1533.57	0.011828
1543.21	0.011598
1552.86	0.014488
1562.5	0.024518
1572.15	0.053678
1581.79	0.085218
1591.44	0.100818
1601.08	0.178598
1610.73	0.166738
1620.37	0.060478
1630.01	0.022408
1639.66	0.014578
1649.3	0.013548
1658.95	0.013058
1668.59	0.013838
1678.24	0.018918
1687.88	0.028668
1697.53	0.050848
1707.17	0.113368
1716.82	0.211488
1726.46	0.225108
1736.11	0.143048
1745.75	0.070798
1755.4	0.035678
1765.04	0.021058
1774.69	0.015018
1784.33	0.010888
1793.98	0.009028
1803.62	0.007888
1813.27	0.007398
1822.91	0.007508
1832.55	0.008668
1842.2	0.011298
1851.84	0.015278
1861.49	0.020528
1871.13	0.026798
1880.78	0.035858
1890.42	0.050448
1900.07	0.071718
1909.71	0.100658
1919.36	0.144728
1929	0.201518
1938.65	0.235878
1948.29	0.238518
1957.94	0.269968
1967.58	0.370578
1977.23	0.519478
1986.87	0.520758
1996.52	0.414718
2006.16	0.376278
2015.81	0.374628
2025.45	0.333718
2035.1	0.245368
2044.74	0.170888
2054.38	0.118548
2064.03	0.087298
2073.67	0.069348
2083.32	0.059508
2092.96	0.052028
2102.61	0.044168
2112.25	0.038498
2121.9	0.033698
2131.54	0.030628
2141.19	0.029818
2150.83	0.029348
2160.48	0.026598
2170.12	0.020528
2179.77	0.014488
2189.41	0.011218
2199.06	0.009528
2208.7	0.008168
2218.35	0.006808
2227.99	0.005798
2237.64	0.005428
2247.28	0.005418
2256.92	0.005078
2266.57	0.004488
2276.21	0.004578
2285.86	0.004998
2295.5	0.005328
2305.15	0.005298
2314.79	0.005148
2324.44	0.004828
2334.08	0.004318
2343.73	0.003548
2353.37	0.002978
2363.02	0.002708
2372.66	0.002648
2382.31	0.002928
2391.95	0.003228
2401.6	0.003368
2411.24	0.003428
2420.89	0.003428
2430.53	0.003678
2440.18	0.003728
2449.82	0.003988
2459.47	0.004208
2469.11	0.004348
2478.75	0.004118
2488.4	0.004058
2498.04	0.004108
2507.69	0.004258
2517.33	0.004548
2526.98	0.004428
2536.62	0.004588
2546.27	0.004598
2555.91	0.005388
2565.56	0.005898
2575.2	0.005718
2584.85	0.005278
2594.49	0.004638
2604.14	0.004698
2613.78	0.004878
2623.43	0.005008
2633.07	0.005108
2642.72	0.005198
2652.36	0.005478
2662.01	0.005828
2671.65	0.005978
2681.29	0.005358
2690.94	0.004078
2700.58	0.003208
2710.23	0.002668
2719.87	0.002398
2729.52	0.002318
2739.16	0.002268
2748.81	0.002708
2758.45	0.003268
2768.1	0.003468
2777.74	0.003238
2787.39	0.003068
2797.03	0.003248
2806.68	0.003528
2816.32	0.004258
2825.97	0.005698
2835.61	0.008548
2845.26	0.017298
2854.9	0.018688
2864.55	0.009128
2874.19	0.006318
2883.84	0.006308
2893.48	0.007198
2903.12	0.009168
2912.77	0.012508
2922.41	0.013908
2932.06	0.014208
2941.7	0.020578
2951.35	0.024508
2960.99	0.022488
2970.64	0.019248
2980.28	0.013078
2989.93	0.009088
2999.57	0.009668
3009.22	0.016268
3018.86	0.020678
3028.51	0.008788
3038.15	0.005778
3047.8	0.005978
3057.44	0.005738
3067.09	0.005478
3076.73	0.007128
3086.38	0.007868
3096.02	0.005138
3105.67	0.004618
3115.31	0.003458
3124.95	0.002468
3134.6	0.002018
3144.24	0.0015911
3153.89	0.0013995
3163.53	0.0010752
3173.18	0.0010082
3182.82	0.0010347
3192.47	0.0008749
3202.11	0.0008708
3211.76	0.0007763
3221.4	0.000667897
3231.05	0.000425
3240.69	0.000356
3250.34	0.000144
3259.98	0.000187
3269.63	0.000164
3279.27	0.000232
3288.92	0.000332
3298.56	0.000336
3308.21	0.000487
3317.85	0.000669024
3327.49	0.000669114
3337.14	0.0007859
3346.78	0.0005981
3356.43	0.000402
3366.07	0.000515
3375.72	0.000472
3385.36	0.0009012
3395.01	0.0012279
3404.65	0.0015362
3414.3	0.002448
3423.94	0.002558
3433.59	0.002428
3443.23	0.001718
3452.88	0.00132
3462.52	0.0009704
3472.17	0.00075599
3481.81	0.000518
3491.46	0.000369
3501.1	0.000307
3510.75	0.000477
3520.39	0.000352
3530.04	0.0003
3539.68	0.000188
3549.32	0.000534
3558.97	0.000244
3568.61	0.000142
3578.26	0.000521
3587.9	8.7e-05
3597.55	0.000464
3607.19	0.000195
3616.84	0.000281
3626.48	0.000305
3636.13	0.000295
3645.77	0.000124
3655.42	0.000342
3665.06	0.000291
3674.71	0.000434
3684.35	0.000347
3694	0.000427
3703.64	0.000343
3713.29	0.00044
3722.93	0.000556
3732.58	0.000487
3742.22	0.000337
3751.86	0.0006245
3761.51	0.0005877
3771.15	0.0006068
3780.8	0.00068491
3790.44	0.000464
3800.09	0.0009922
3809.73	0.0008424
3819.38	0.0010826
3829.02	0.0014728
3838.67	0.0015953
3848.31	0.0016287
3857.96	0.001998
3867.6	0.002248
3877.25	0.002188
3886.89	0.002238
3896.54	0.002178
3906.18	0.002158
3915.83	0.001968
3925.47	0.002288
3935.12	0.002258
3944.76	0.002308
3954.41	0.002668
3964.05	0.002658
3973.69	0.002568
3983.34	0.002358
3992.98	0.002488
