Infrared Spectrum: 2-Benzyloxy-6-methoxybenzonitrile
Formula: C 15 H 13 N O 2
CAS: 167832-66-8
State: gas
Origin: EPA-IR VAPOR PHASE LIBRARY
1/CM	ABSORBANCE
549.8	0.003051
559.445	0.001831
569.09	0.002101
578.734	0.003431
588.379	0.006311
598.024	0.005321
607.669	0.004101
617.313	0.003891
626.958	0.004321
636.603	0.007301
646.248	0.006941
655.893	0.006351
665.537	0.007741
675.182	0.012831
684.827	0.020341
694.472	0.033301
704.116	0.030961
713.761	0.034551
723.406	0.053651
733.051	0.053101
742.695	0.036921
752.34	0.021431
761.985	0.014051
771.63	0.016261
781.275	0.025041
790.919	0.021791
800.564	0.013051
810.209	0.008451
819.854	0.006401
829.498	0.005871
839.143	0.005661
848.788	0.004341
858.433	0.004321
868.078	0.004091
877.722	0.005601
887.367	0.007651
897.012	0.009911
906.657	0.009161
916.301	0.007491
925.946	0.006881
935.591	0.007011
945.236	0.006751
954.88	0.007521
964.525	0.009311
974.17	0.014751
983.815	0.020761
993.46	0.026541
1003.1	0.030031
1012.75	0.027161
1022.39	0.027181
1032.04	0.023581
1041.68	0.020861
1051.33	0.030131
1060.97	0.049761
1070.62	0.073611
1080.26	0.096111
1089.91	0.134081
1099.55	0.183721
1109.2	0.192121
1118.84	0.132341
1128.49	0.048431
1138.13	0.021721
1147.78	0.013411
1157.42	0.010681
1167.07	0.010371
1176.71	0.014571
1186.36	0.013171
1196	0.013581
1205.64	0.015881
1215.29	0.022771
1224.93	0.049511
1234.58	0.102531
1244.22	0.130251
1253.87	0.157811
1263.51	0.138101
1273.16	0.104761
1282.8	0.073821
1292.45	0.065101
1302.09	0.054291
1311.74	0.036571
1321.38	0.024111
1331.03	0.018141
1340.67	0.014981
1350.32	0.013601
1359.96	0.017011
1369.61	0.031641
1379.25	0.039641
1388.9	0.018881
1398.54	0.012031
1408.18	0.012831
1417.83	0.018301
1427.47	0.036201
1437.12	0.079461
1446.76	0.084721
1456.41	0.093061
1466.05	0.134031
1475.7	0.206231
1485.34	0.088021
1494.99	0.035251
1504.63	0.022121
1514.28	0.013651
1523.92	0.012291
1533.57	0.014131
1543.21	0.019851
1552.86	0.033711
1562.5	0.061051
1572.15	0.101341
1581.79	0.135181
1591.44	0.142381
1601.08	0.079061
1610.73	0.029581
1620.37	0.014661
1630.01	0.009231
1639.66	0.006601
1649.3	0.005181
1658.95	0.004791
1668.59	0.004601
1678.24	0.004581
1687.88	0.004001
1697.53	0.003751
1707.17	0.003281
1716.82	0.003151
1726.46	0.003151
1736.11	0.002951
1745.75	0.002761
1755.4	0.002611
1765.04	0.002651
1774.69	0.003011
1784.33	0.003631
1793.98	0.004821
1803.62	0.004741
1813.27	0.003661
1822.91	0.003271
1832.55	0.002981
1842.2	0.002831
1851.84	0.002971
1861.49	0.003421
1871.13	0.003581
1880.78	0.003991
1890.42	0.004021
1900.07	0.004761
1909.71	0.005261
1919.36	0.005111
1929	0.004791
1938.65	0.005071
1948.29	0.004921
1957.94	0.004611
1967.58	0.003221
1977.23	0.002381
1986.87	0.001891
1996.52	0.001841
2006.16	0.001991
2015.81	0.001951
2025.45	0.001971
2035.1	0.001881
2044.74	0.001901
2054.38	0.002201
2064.03	0.001781
2073.67	0.001931
2083.32	0.001951
2092.96	0.002191
2102.61	0.001891
2112.25	0.002111
2121.9	0.002361
2131.54	0.002681
2141.19	0.002621
2150.83	0.002451
2160.48	0.002331
2170.12	0.002601
2179.77	0.002791
2189.41	0.003131
2199.06	0.003621
2208.7	0.004181
2218.35	0.006901
2227.99	0.013171
2237.64	0.010871
2247.28	0.004551
2256.92	0.003621
2266.57	0.002881
2276.21	0.002351
2285.86	0.002131
2295.5	0.001661
2305.15	0.001711
2314.79	0.001881
2324.44	0.001801
2334.08	0.001711
2343.73	0.002241
2353.37	0.002181
2363.02	0.002091
2372.66	0.002291
2382.31	0.002431
2391.95	0.002501
2401.6	0.002211
2411.24	0.001841
2420.89	0.001601
2430.53	0.001291
2440.18	0.001421
2449.82	0.001531
2459.47	0.001621
2469.11	0.001641
2478.75	0.001551
2488.4	0.001761
2498.04	0.002141
2507.69	0.002261
2517.33	0.002601
2526.98	0.003021
2536.62	0.003261
2546.27	0.003601
2555.91	0.003441
2565.56	0.002711
2575.2	0.002771
2584.85	0.002601
2594.49	0.002081
2604.14	0.002201
2613.78	0.001981
2623.43	0.002121
2633.07	0.001861
2642.72	0.002121
2652.36	0.001851
2662.01	0.002061
2671.65	0.001781
2681.29	0.001911
2690.94	0.001941
2700.58	0.002051
2710.23	0.002201
2719.87	0.002411
2729.52	0.002651
2739.16	0.002831
2748.81	0.002921
2758.45	0.003001
2768.1	0.003181
2777.74	0.002871
2787.39	0.002651
2797.03	0.002951
2806.68	0.003681
2816.32	0.004061
2825.97	0.005801
2835.61	0.008661
2845.26	0.015741
2854.9	0.017431
2864.55	0.012521
2874.19	0.013381
2883.84	0.016451
2893.48	0.018261
2903.12	0.017881
2912.77	0.016951
2922.41	0.018481
2932.06	0.021871
2941.7	0.029921
2951.35	0.035231
2960.99	0.028481
2970.64	0.024541
2980.28	0.017491
2989.93	0.012961
2999.57	0.012501
3009.22	0.018101
3018.86	0.024251
3028.51	0.025651
3038.15	0.026461
3047.8	0.020351
3057.44	0.018061
3067.09	0.026801
3076.73	0.030971
3086.38	0.020991
3096.02	0.017921
3105.67	0.012191
3115.31	0.007281
3124.95	0.004141
3134.6	0.002351
3144.24	0.002381
3153.89	0.002041
3163.53	0.002211
3173.18	0.002021
3182.82	0.001971
3192.47	0.001831
3202.11	0.001991
3211.76	0.0008851
3221.4	0.001431
3231.05	0.0006299
3240.69	0.0006262
3250.34	0.000649
3259.98	0.0010566
3269.63	0.001311
3279.27	0.0006258
3288.92	0.0008172
3298.56	0.0011117
3308.21	0.0008168
3317.85	0.0007044
3327.49	0.0008264
3337.14	0.0005019
3346.78	0.00031521
3356.43	0.000290146
3366.07	0.0010525
3375.72	0.0004165
3385.36	0.00029387
3395.01	0.0007282
3404.65	0.0003142
3414.3	0.001351
3423.94	0.000812
3433.59	0.000869
3443.23	0.00035759
3452.88	0.0005306
3462.52	0.0007886
3472.17	0.0010372
3481.81	0.00032566
3491.46	0.0004043
3501.1	0.0009354
3510.75	0.0007873
3520.39	0.0011183
3530.04	0.0008086
3539.68	0.0007214
3549.32	0.0009119
3558.97	0.0006148
3568.61	0.0004583
3578.26	0.000745
3587.9	0.0005642
3597.55	0.0006591
3607.19	0.000385
3616.84	0.000691
3626.48	0.0011654
3636.13	0.0007388
3645.77	0.0009661
3655.42	0.000968
3665.06	0.0007081
3674.71	0.0012039
3684.35	0.0011014
3694	0.0011915
3703.64	0.0011944
3713.29	0.0004425
3722.93	0.0009474
3732.58	0.0009884
3742.22	0.0007744
3751.86	0.0007376
3761.51	0.000668
3771.15	0.0005734
3780.8	0.0006009
3790.44	0.0007326
3800.09	0.0007936
3809.73	0.0011811
3819.38	0.001281
3829.02	0.001311
3838.67	0.0006883
3848.31	0.0009872
3857.96	0.0012094
3867.6	0.001761
3877.25	0.001052
3886.89	0.001257
3896.54	0.0010591
3906.18	0.0008703
3915.83	0.0008199
3925.47	0.0004907
3935.12	0.001451
3944.76	0.0009197
3954.41	0.0009918
3964.05	0.0010582
3973.69	0.000939
3983.34	0.0008573
3992.98	0.0005723
