Infrared Spectrum: cis,trans,cis-1,2,3-Trimethylcyclohexane
Formula: C 9 H 18
CAS: 1678-81-5
State: gas
Instrument: HP-GC/MS/IRD
Origin: NIST Mass Spectrometry Data Center
1/CM	ABSORBANCE
550	0.0002244
562	0.0002552
574	0.0002552
586	0.0003828
598	0.000176
610	0
622	0.0001628
634	0.0001848
646	0.0002332
658	0.0001892
670	0.0001848
682	0.0001188
694	9.68e-05
706	0.0001496
718	0.0002332
730	0.0002024
742	0.0001936
754	0.00022
766	0.0001364
778	0.000176
790	0.0002376
802	0.0002772
814	0.0002332
826	0.0002508
838	0.0003432
850	0.0004092
862	0.00033
874	0.0002068
886	0.000264
898	0.0003476
910	0.0003828
922	0.0004972
934	0.0007436
946	0.0008976
958	0.0011572
970	0.0016632
982	0.00165
994	0.0009856
1006	0.000506
1018	0.0005016
1030	0.0008052
1042	0.0009944
1054	0.0006732
1066	0.000572
1078	0.0005632
1090	0.0005016
1102	0.000748
1114	0.0010824
1126	0.0012144
1138	0.0011704
1150	0.0008624
1162	0.000748
1174	0.0007788
1186	0.0007128
1198	0.0004884
1210	0.0003872
1222	0.0004576
1234	0.0004752
1246	0.0006512
1258	0.0009548
1270	0.000902
1282	0.000748
1294	0.0007524
1306	0.0007128
1318	0.0005588
1330	0.0006028
1342	0.000902
1354	0.001298
1366	0.0022616
1378	0.0036388
1390	0.0030492
1402	0.0013244
1414	0.0008448
1426	0.0011616
1438	0.0027852
1450	0.0051964
1462	0.005544
1474	0.0038368
1486	0.0016764
1498	0.0007744
1510	0.0005192
1522	0.000374
1534	0.0003036
1546	0.0002904
1558	0.0003212
1570	0.0002332
1582	0.000308
1594	0.0003476
1606	0.0003608
1618	0.0003388
1630	0.0003256
1642	0.0003476
1654	0.0003432
1666	0.0002816
1678	0.0002376
1690	0.0001804
1702	0.0001936
1714	0.0002332
1726	0.000176
1738	0.0001804
1750	0.0001892
1762	0.0002024
1774	0.0001628
1786	0.0001672
1798	0.000154
1810	0.00011
1822	9.24e-05
1834	0.000132
1846	0.0001408
1858	0.0001232
1870	0.0001188
1882	0.0001056
1894	8.8e-05
1906	7.48e-05
1918	6.6e-05
1930	3.96e-05
1942	5.72e-05
1954	5.72e-05
1966	5.72e-05
1978	4.84e-05
1990	5.72e-05
2002	8.36e-05
2014	7.04e-05
2026	5.72e-05
2038	5.28e-05
2050	2.2e-05
2062	3.52e-05
2074	5.72e-05
2086	3.96e-05
2098	4.84e-05
2110	3.96e-05
2122	6.16e-05
2134	3.96e-05
2146	4.84e-05
2158	5.28e-05
2170	4.4e-05
2182	5.28e-05
2194	4.84e-05
2206	4.4e-05
2218	8.8e-06
2230	3.08e-05
2242	3.96e-05
2254	4.4e-05
2266	4.84e-05
2278	7.48e-05
2290	0.0001188
2302	0.0001408
2314	0.000198
2326	0.000242
2338	0.0002244
2350	0.0002024
2362	0.0002904
2374	0.0002288
2386	0.000176
2398	0.0002024
2410	0.0002024
2422	0.0001584
2434	0.0001364
2446	0.0001232
2458	0.00011
2470	0.0001232
2482	0.0001364
2494	0.000176
2506	0.0001672
2518	0.0001936
2530	0.0001848
2542	0.000154
2554	0.000198
2566	0.0003212
2578	0.0003916
2590	0.00044
2602	0.000418
2614	0.0004356
2626	0.0004532
2638	0.000506
2650	0.0005104
2662	0.000528
2674	0.0005984
2686	0.000616
2698	0.0005632
2710	0.00055
2722	0.0006204
2734	0.0007216
2746	0.0007392
2758	0.000726
2770	0.0008272
2782	0.001012
2794	0.0012232
2806	0.0014784
2818	0.0018964
2830	0.0029436
2842	0.0070312
2854	0.015576
2866	0.0232716
2878	0.0209528
2890	0.01727
2902	0.0173668
2914	0.02915
2926	0.044
2938	0.0358512
2950	0.0231132
2962	0.020548
2974	0.0211728
2986	0.016478
2998	0.0075416
3010	0.0026928
3022	0.001606
3034	0.0012628
3046	0.001122
3058	0.0010736
3070	0.001012
3082	0.0008888
3094	0.0008712
3106	0.000836
3118	0.0007832
3130	0.0007172
3142	0.0006468
3154	0.0006424
3166	0.0005676
3178	0.0004796
3190	0.0003476
3202	0.0002508
3214	0.0002024
3226	0.0002288
3238	0.0002464
3250	0.00022
3262	0.0001936
3274	0.0002024
3286	0.000176
3298	0.0001452
3310	0.0001232
3322	0.0001364
3334	0.0001496
3346	0.0001364
3358	0.0001276
3370	0.0001232
3382	0.0001496
3394	6.16e-05
3406	7.92e-05
3418	7.92e-05
3430	8.8e-05
3442	6.6e-05
3454	9.24e-05
3466	0.0001364
3478	9.68e-05
3490	5.72e-05
3502	7.48e-05
3514	3.52e-05
3526	6.6e-05
3538	3.96e-05
3550	5.28e-05
3562	6.16e-05
3574	2.2e-05
3586	7.92e-05
3598	7.04e-05
3610	2.2e-05
3622	6.16e-05
3634	1.76e-05
3646	6.6e-05
3658	3.96e-05
3670	8.36e-05
3682	6.16e-05
3694	9.68e-05
3706	7.04e-05
3718	7.92e-05
3730	8.8e-05
3742	9.24e-05
3754	0.00011
3766	8.36e-05
3778	3.52e-05
3790	5.72e-05
3802	7.48e-05
3814	0.0001144
3826	0.0001012
3838	9.68e-05
