Infrared Spectrum: 1,2,3-Trimethylcyclohexane
Formula: C 9 H 18
CAS: 1678-97-3
State: gas
Instrument: HP-GC/MS/IRD
Origin: NIST Mass Spectrometry Data Center
1/CM	ABSORBANCE
550	0.0002356
562	0.0001064
574	0.0001406
586	0.0001387
598	9.5e-05
610	0.0001843
622	0.0001634
634	0.0002052
646	0.0001254
658	4.56e-05
670	0.0001653
682	0.0001064
694	0.0001862
706	0.0001273
718	0.0001159
730	0.0001235
742	0.0001349
754	0.0001634
766	9.69e-05
778	9.5e-05
790	8.36e-05
802	9.31e-05
814	0.000171
826	0.0001767
838	0.0002223
850	0.0001976
862	0.0002014
874	0.0001824
886	0.0001558
898	8.55e-05
910	0.0001691
922	0.0002128
934	0.000285
946	0.0002964
958	0.0003192
970	0.0003591
982	0.0003458
994	0.0002888
1006	0.0002774
1018	0.0003629
1030	0.0003591
1042	0.0004047
1054	0.0004769
1066	0.0002546
1078	0.0001349
1090	0.0001311
1102	0.0001786
1114	0.000133
1126	0.0001368
1138	0.0001691
1150	0.0003135
1162	0.0003876
1174	0.000228
1186	0.0001634
1198	0.0001216
1210	0.0001216
1222	0.0001387
1234	0.0001482
1246	0.0001729
1258	0.0001558
1270	0.0001121
1282	0.0001691
1294	0.0001957
1306	0.0002166
1318	0.0002432
1330	0.0002603
1342	0.000304
1354	0.0004883
1366	0.0009481
1378	0.0017347
1390	0.0016834
1402	0.0006688
1414	0.0003287
1426	0.0004864
1438	0.0011305
1450	0.0020026
1462	0.0023256
1474	0.0015371
1486	0.0006175
1498	0.0002717
1510	0.0001539
1522	0.0001007
1534	8.17e-05
1546	0.0001045
1558	4.56e-05
1570	8.17e-05
1582	0.0001026
1594	0.0001083
1606	8.36e-05
1618	0.0001007
1630	0.0001045
1642	9.69e-05
1654	5.89e-05
1666	7.6e-05
1678	5.7e-05
1690	4.94e-05
1702	3.04e-05
1714	3.61e-05
1726	4.75e-05
1738	3.61e-05
1750	3.23e-05
1762	4.56e-05
1774	5.13e-05
1786	3.8e-05
1798	4.18e-05
1810	3.99e-05
1822	4.56e-05
1834	3.8e-05
1846	3.42e-05
1858	4.56e-05
1870	5.51e-05
1882	2.28e-05
1894	4.18e-05
1906	3.8e-05
1918	3.42e-05
1930	2.66e-05
1942	3.61e-05
1954	2.66e-05
1966	0
1978	3.8e-05
1990	3.42e-05
2002	5.13e-05
2014	4.37e-05
2026	3.61e-05
2038	3.61e-05
2050	3.42e-05
2062	0
2074	2.28e-05
2086	1.52e-05
2098	1.71e-05
2110	3.04e-05
2122	5.89e-05
2134	2.66e-05
2146	3.61e-05
2158	3.99e-05
2170	2.85e-05
2182	4.94e-05
2194	1.71e-05
2206	4.18e-05
2218	2.28e-05
2230	3.8e-05
2242	5.51e-05
2254	4.56e-05
2266	6.84e-05
2278	5.13e-05
2290	5.89e-05
2302	5.89e-05
2314	5.51e-05
2326	6.27e-05
2338	7.6e-05
2350	6.84e-05
2362	9.69e-05
2374	8.93e-05
2386	7.6e-05
2398	8.93e-05
2410	9.5e-05
2422	0.0001045
2434	9.88e-05
2446	8.93e-05
2458	0.0001159
2470	0.0001045
2482	0.000114
2494	9.12e-05
2506	0.0001197
2518	0.0001178
2530	0.0001444
2542	0.0001653
2554	0.0001596
2566	0.0001482
2578	0.0001615
2590	0.0002394
2602	0.0002983
2614	0.0003154
2626	0.0003059
2638	0.0003363
2650	0.0003344
2662	0.0003724
2674	0.0004009
2686	0.0003572
2698	0.0003591
2710	0.0003534
2722	0.0004142
2734	0.0003933
2746	0.0004028
2758	0.0004047
2770	0.0004104
2782	0.0004655
2794	0.0005263
2806	0.0006232
2818	0.0008341
2830	0.0011058
2842	0.0021052
2854	0.0053827
2866	0.0092701
2878	0.0110618
2890	0.008797
2902	0.0071896
2914	0.0116812
2926	0.0185421
2938	0.0157928
2950	0.0121144
2962	0.0127243
2974	0.0095114
2986	0.004636
2998	0.0017556
3010	0.0009025
3022	0.000646
3034	0.0005491
3046	0.0004807
3058	0.0004655
3070	0.0004883
3082	0.0004541
3094	0.0005035
3106	0.0004256
3118	0.0003895
3130	0.0003287
3142	0.0003021
3154	0.0003059
3166	0.0002983
3178	0.0003021
3190	0.0002375
3202	0.0001881
3214	0.0001729
3226	0.0001748
3238	0.0001577
3250	0.0001539
3262	0.0001387
3274	0.0001729
3286	0.000114
3298	9.5e-05
3310	0.0001292
3322	0.0001083
3334	0.0001292
3346	0.000133
3358	0.0001045
3370	0.0001007
3382	8.55e-05
3394	4.94e-05
3406	8.55e-05
3418	7.98e-05
3430	7.98e-05
3442	6.65e-05
3454	0.0001159
3466	7.22e-05
3478	7.22e-05
3490	9.12e-05
3502	9.12e-05
3514	6.46e-05
3526	4.94e-05
3538	9.88e-05
3550	7.6e-05
3562	7.6e-05
3574	8.93e-05
3586	7.41e-05
3598	4.56e-05
3610	5.13e-05
3622	4.56e-05
3634	5.7e-05
3646	9.12e-05
3658	7.03e-05
3670	7.79e-05
3682	7.98e-05
3694	3.23e-05
3706	6.27e-05
3718	5.13e-05
3730	8.17e-05
3742	0.0001007
3754	1.14e-05
3766	7.98e-05
3778	7.79e-05
3790	7.03e-05
3802	3.99e-05
3814	0.0001102
3826	9.12e-05
3838	6.84e-05
