Infrared Spectrum: Isobutylcyclohexane
Formula: C 10 H 20
CAS: 1678-98-4
State: gas
Instrument: HP-GC/MS/IRD
Origin: NIST Mass Spectrometry Data Center
1/CM	ABSORBANCE
550	9.24e-05
562	0.000216
574	0.0001296
586	0.0001404
598	9.48e-05
610	7.92e-05
622	0.0001104
634	0.0001716
646	0.0001872
658	0.0001536
670	0.0001644
682	0.000174
694	0.0001764
706	0.000162
718	0.0002328
730	0.0001344
742	0.0001548
754	0.0001608
766	0.000186
778	0.0002064
790	0.0002088
802	0.0001788
814	0.0001752
826	9.84e-05
838	0.0002928
850	0.0002688
862	0.0002316
874	0.0002424
886	0.0002568
898	0.0003192
910	0.0002304
922	0.0002328
934	0.000222
946	0.0002136
958	0.0001716
970	0.0002388
982	0.0002784
994	0.0001884
1006	0.000168
1018	0.0002076
1030	0.0001692
1042	0.0001764
1054	0.0001848
1066	0.0002064
1078	0.0001872
1090	0.0001812
1102	0.0001776
1114	0.0002196
1126	0.0002016
1138	0.0002148
1150	0.000252
1162	0.0003084
1174	0.0002604
1186	0.0002028
1198	0.0001752
1210	0.00015
1222	0.0001332
1234	0.0001584
1246	0.0002148
1258	0.000246
1270	0.0002964
1282	0.0002424
1294	0.0001968
1306	0.0002016
1318	0.0002088
1330	0.000282
1342	0.0003168
1354	0.0003708
1366	0.0004896
1378	0.0005628
1390	0.0004776
1402	0.0002832
1414	0.0002004
1426	0.00027
1438	0.0005196
1450	0.0010344
1462	0.001032
1474	0.000618
1486	0.0003048
1498	0.0001704
1510	0
1522	3e-05
1534	8.28e-05
1546	3.48e-05
1558	3.24e-05
1570	0.0001272
1582	0.0001404
1594	0.0001296
1606	0.0001188
1618	9.96e-05
1630	0.0001068
1642	9.6e-05
1654	3.96e-05
1666	8.64e-05
1678	6.84e-05
1690	7.32e-05
1702	3e-05
1714	3.84e-05
1726	9.48e-05
1738	5.4e-05
1750	4.8e-06
1762	6e-05
1774	7.2e-05
1786	4.92e-05
1798	5.28e-05
1810	6.6e-05
1822	7.08e-05
1834	8.4e-05
1846	5.52e-05
1858	8.52e-05
1870	4.8e-05
1882	8.52e-05
1894	8.52e-05
1906	8.4e-05
1918	7.68e-05
1930	8.28e-05
1942	6.72e-05
1954	8.16e-05
1966	7.56e-05
1978	7.68e-05
1990	7.44e-05
2002	7.56e-05
2014	6.36e-05
2026	8.04e-05
2038	9e-05
2050	5.88e-05
2062	5.4e-05
2074	4.68e-05
2086	5.76e-05
2098	6.12e-05
2110	6.36e-05
2122	6.6e-05
2134	5.28e-05
2146	5.52e-05
2158	7.68e-05
2170	7.32e-05
2182	6.48e-05
2194	7.32e-05
2206	6.96e-05
2218	4.8e-05
2230	6.84e-05
2242	7.92e-05
2254	7.44e-05
2266	8.04e-05
2278	9.24e-05
2290	7.8e-05
2302	8.04e-05
2314	6.48e-05
2326	9e-05
2338	8.52e-05
2350	8.16e-05
2362	9.36e-05
2374	8.16e-05
2386	0.0001128
2398	0.00012
2410	0.0001104
2422	9.48e-05
2434	0.0001164
2446	0.0001296
2458	0.0001152
2470	0.000126
2482	0.0001104
2494	0.00012
2506	0.0001272
2518	0.0001368
2530	0.0001476
2542	0.000114
2554	0.0001404
2566	0.000144
2578	0.000186
2590	0.00018
2602	0.0001956
2614	0.000192
2626	0.0002196
2638	0.0002268
2650	0.0002388
2662	0.0002844
2674	0.000246
2686	0.0002172
2698	0.000234
2710	0.0002436
2722	0.0002496
2734	0.0002568
2746	0.0002568
2758	0.0002484
2770	0.0002976
2782	0.0003444
2794	0.0004116
2806	0.0004608
2818	0.0005856
2830	0.0008148
2842	0.0017268
2854	0.0034764
2866	0.0039036
2878	0.003078
2890	0.0031476
2902	0.004632
2914	0.0070896
2926	0.0109452
2938	0.0110604
2950	0.0063072
2962	0.0052464
2974	0.0032268
2986	0.001104
2998	0.0006252
3010	0.0004644
3022	0.0003588
3034	0.0002904
3046	0.0002616
3058	0.0002664
3070	0.0002688
3082	0.00024
3094	0.0002436
3106	0.0002232
3118	0.0002328
3130	0.0002376
3142	0.0002304
3154	0.0002424
3166	0.0002196
3178	0.0002148
3190	0.000228
3202	0.000222
3214	0.0001824
3226	0.000174
3238	0.0001692
3250	0.0001692
3262	0.000162
3274	0.0001752
3286	0.0002064
3298	0.0001764
3310	0.0001596
3322	0.0001452
3334	0.0001572
3346	0.000162
3358	0.0001596
3370	0.0001284
3382	0.0001512
3394	0.0001404
3406	0.0001992
3418	0.0001488
3430	0.0001416
3442	0.0001152
3454	0.000126
3466	0.0001836
3478	0.0001668
3490	0.000114
3502	0.000126
3514	0.000168
3526	0.0001152
3538	0.0001212
3550	0.000102
3562	8.52e-05
3574	0.000138
3586	5.52e-05
3598	0.0001188
3610	8.16e-05
3622	0.0001416
3634	0.0001236
3646	8.4e-05
3658	0.00012
3670	0.0001128
3682	0.000162
3694	0.0001152
3706	0.0001512
3718	0.0001416
3730	0.0001284
3742	0.0001032
3754	0.0001464
3766	0.0001764
3778	0.0001392
3790	0.0001668
3802	0.0001296
3814	0.000174
3826	0.0001956
3838	9e-05
