Infrared Spectrum: 3-Bromo-2-hydroxy-5-nitrobenzaldehyde
Formula: C 7 H 4 Br N O 4
CAS: 16789-84-7
State: gas
Origin: EPA-IR VAPOR PHASE LIBRARY
1/CM	ABSORBANCE
549.8	0.0043164
559.445	0.0031764
569.09	0.0020664
578.734	0.0030364
588.379	0.0022964
598.024	0.0021264
607.669	0.0018064
617.313	0.0017864
626.958	0.0022964
636.603	0.0016464
646.248	0.0035264
655.893	0.0042064
665.537	0.0051264
675.182	0.0134364
684.827	0.0282364
694.472	0.0389064
704.116	0.0253964
713.761	0.0312664
723.406	0.0347764
733.051	0.0229064
742.695	0.0260464
752.34	0.0266864
761.985	0.0160664
771.63	0.0071264
781.275	0.0029164
790.919	0.0025164
800.564	0.0015964
810.209	0.0028964
819.854	0.0028064
829.498	0.0020864
839.143	0.0016764
848.788	0.0024364
858.433	0.0027164
868.078	0.0028364
877.722	0.0018164
887.367	0.0026164
897.012	0.0060064
906.657	0.0084264
916.301	0.0084564
925.946	0.0043564
935.591	0.0075564
945.236	0.0181264
954.88	0.0090764
964.525	0.0019864
974.17	0.0011964
983.815	0.0006215
993.46	0.0019864
1003.1	0.0013764
1012.75	0.0010587
1022.39	0.0011864
1032.04	0.0008865
1041.68	0.0015964
1051.33	0.0022764
1060.97	0.0039264
1070.62	0.0061864
1080.26	0.0109364
1089.91	0.0204464
1099.55	0.0213564
1109.2	0.0075864
1118.84	0.0039164
1128.49	0.0042364
1138.13	0.0086964
1147.78	0.0150664
1157.42	0.0233764
1167.07	0.0295064
1176.71	0.0124564
1186.36	0.0122964
1196	0.0401364
1205.64	0.0509164
1215.29	0.0182064
1224.93	0.0118664
1234.58	0.0090464
1244.22	0.0092764
1253.87	0.0089264
1263.51	0.0123064
1273.16	0.0224464
1282.8	0.0387364
1292.45	0.0555264
1302.09	0.0619664
1311.74	0.0482364
1321.38	0.0222264
1331.03	0.0304064
1340.67	0.0980664
1350.32	0.162676
1359.96	0.0558364
1369.61	0.0196664
1379.25	0.0220464
1388.9	0.0166664
1398.54	0.0108364
1408.18	0.0104964
1417.83	0.0177064
1427.47	0.0390364
1437.12	0.0573964
1446.76	0.0401064
1456.41	0.0245664
1466.05	0.0144964
1475.7	0.0108564
1485.34	0.0099664
1494.99	0.0114464
1504.63	0.0131564
1514.28	0.0109564
1523.92	0.0092564
1533.57	0.0155164
1543.21	0.0505364
1552.86	0.0745464
1562.5	0.0359264
1572.15	0.0262964
1581.79	0.0203564
1591.44	0.0183664
1601.08	0.0231164
1610.73	0.0362264
1620.37	0.0405464
1630.01	0.0217364
1639.66	0.0172064
1649.3	0.0159964
1658.95	0.0175064
1668.59	0.0381664
1678.24	0.121346
1687.88	0.117396
1697.53	0.0261564
1707.17	0.0127464
1716.82	0.0119264
1726.46	0.0072064
1736.11	0.0058564
1745.75	0.0040064
1755.4	0.0028364
1765.04	0.0022664
1774.69	0.0021864
1784.33	0.0027464
1793.98	0.0030964
1803.62	0.0029164
1813.27	0.0027364
1822.91	0.0024964
1832.55	0.0017064
1842.2	0.0014064
1851.84	0.0013564
1861.49	0.000941
1871.13	0.0009303
1880.78	0.0009936
1890.42	0.0011264
1900.07	0.0011064
1909.71	0.0010402
1919.36	0.0010029
1929	0.0009562
1938.65	0.0008303
1948.29	0.0005511
1957.94	0.0007959
1967.58	0.0007142
1977.23	0.0007057
1986.87	0.0006479
1996.52	0.0005824
2006.16	0.0004469
2015.81	0.0004714
2025.45	0.0006588
2035.1	0.0004529
2044.74	0.0006478
2054.38	0.0005609
2064.03	0.000602
2073.67	0.0006699
2083.32	0.000727
2092.96	0.0008045
2102.61	0.0007722
2112.25	0.0006374
2121.9	0.0006816
2131.54	0.0006625
2141.19	0.000847
2150.83	0.0008175
2160.48	0.000646
2170.12	0.0008068
2179.77	0.0006626
2189.41	0.0003664
2199.06	0.0004547
2208.7	0.0003807
2218.35	0.0004816
2227.99	0.0006104
2237.64	0.000649
2247.28	0.0007884
2256.92	0.0008008
2266.57	0.0010066
2276.21	0.0008994
2285.86	0.0009755
2295.5	0.0011764
2305.15	0.0009129
2314.79	0.0007352
2324.44	0.0007804
2334.08	0.0007018
2343.73	0.0005901
2353.37	0.0007957
2363.02	0.0007566
2372.66	0.0008026
2382.31	0.0007655
2391.95	0.0009378
2401.6	0.0007589
2411.24	0.0009254
2420.89	0.0009672
2430.53	0.0009961
2440.18	0.0011964
2449.82	0.0012164
2459.47	0.0010964
2469.11	0.0010964
2478.75	0.0010864
2488.4	0.0012764
2498.04	0.0013164
2507.69	0.0014264
2517.33	0.0012664
2526.98	0.0013164
2536.62	0.0013764
2546.27	0.0014464
2555.91	0.0019564
2565.56	0.0020964
2575.2	0.0020464
2584.85	0.0024264
2594.49	0.0024864
2604.14	0.0021164
2613.78	0.0020664
2623.43	0.0021864
2633.07	0.0021364
2642.72	0.0021864
2652.36	0.0020564
2662.01	0.0022864
2671.65	0.0021564
2681.29	0.0022964
2690.94	0.0023664
2700.58	0.0025164
2710.23	0.0027864
2719.87	0.0036764
2729.52	0.0054464
2739.16	0.0063164
2748.81	0.0043264
2758.45	0.0034664
2768.1	0.0033164
2777.74	0.0034464
2787.39	0.0033564
2797.03	0.0041864
2806.68	0.0045964
2816.32	0.0053264
2825.97	0.0065964
2835.61	0.0105164
2845.26	0.0245964
2854.9	0.0278564
2864.55	0.0095664
2874.19	0.0059564
2883.84	0.0055564
2893.48	0.0048764
2903.12	0.0042064
2912.77	0.0037264
2922.41	0.0034364
2932.06	0.0032464
2941.7	0.0034464
2951.35	0.0034664
2960.99	0.0035564
2970.64	0.0036964
2980.28	0.0037164
2989.93	0.0036264
2999.57	0.0038464
3009.22	0.0043564
3018.86	0.0046564
3028.51	0.0048364
3038.15	0.0048364
3047.8	0.0056864
3057.44	0.0061764
3067.09	0.0069764
3076.73	0.0086964
3086.38	0.0105564
3096.02	0.0125564
3105.67	0.0108964
3115.31	0.0096064
3124.95	0.0090364
3134.6	0.0086964
3144.24	0.0087164
3153.89	0.0087364
3163.53	0.0091864
3173.18	0.0095464
3182.82	0.0092964
3192.47	0.0093764
3202.11	0.0093164
3211.76	0.0089864
3221.4	0.0085364
3231.05	0.0086564
3240.69	0.0080064
3250.34	0.0077564
3259.98	0.0076064
3269.63	0.0074664
3279.27	0.0074664
3288.92	0.0074064
3298.56	0.0067864
3308.21	0.0061464
3317.85	0.0060664
3327.49	0.0054264
3337.14	0.0059864
3346.78	0.0068464
3356.43	0.0063564
3366.07	0.0054264
3375.72	0.0048264
3385.36	0.0043864
3395.01	0.0043864
3404.65	0.0037164
3414.3	0.0034664
3423.94	0.0035864
3433.59	0.0032464
3443.23	0.0028664
3452.88	0.0030364
3462.52	0.0024364
3472.17	0.0023564
3481.81	0.0022264
3491.46	0.0023864
3501.1	0.0018764
3510.75	0.0019764
3520.39	0.0043564
3530.04	0.0051664
3539.68	0.0030164
3549.32	0.0018364
3558.97	0.0015664
3568.61	0.0010429
3578.26	0.0010642
3587.9	0.0010373
3597.55	0.0006637
3607.19	0.0010309
3616.84	0.0007114
3626.48	0.0008931
3636.13	0.000947
3645.77	0.0007711
3655.42	0.0007309
3665.06	0.000637
3674.71	0.0008261
3684.35	0.0007936
3694	0.000738
3703.64	0.0008312
3713.29	0.0002941
3722.93	0.0005046
3732.58	0.0005556
3742.22	0.0007436
3751.86	0.0007111
3761.51	0.00015486
3771.15	0.0005866
3780.8	0.0006514
3790.44	0.0006
3800.09	0.0004705
3809.73	0.0005537
3819.38	0
3829.02	0.0003274
3838.67	0.0004218
3848.31	0.0005551
3857.96	0.0004219
3867.6	0.00014829
3877.25	0.0004794
3886.89	0.000711
3896.54	0.0006113
3906.18	0.0004696
3915.83	0.0004338
3925.47	0.000195
3935.12	0.0002491
3944.76	0.0003554
3954.41	0.0002482
3964.05	0.0005177
3973.69	0.0003055
3983.34	0.0007422
3992.98	0.0007037
