Infrared Spectrum: 3-Ethyl-3-hexene
Formula: C 8 H 16
CAS: 16789-51-8
State: gas
Instrument: HP-GC/MS/IRD
Origin: NIST Mass Spectrometry Data Center
1/CM	ABSORBANCE
550	0.0002828
562	0.0003556
574	0.0003612
586	0.000252
598	0.0004732
610	0.0003668
622	0.00035
634	0.000238
646	0.0001764
658	5.32e-05
670	0.0001148
682	0.0001316
694	0.0001904
706	0.0002044
718	0.000266
730	0.0003388
742	0.0003024
754	0.0003276
766	0.000406
778	0.0005068
790	0.0004984
802	0.0005852
814	0.000686
826	0.0006944
838	0.0009016
850	0.0015008
862	0.0014196
874	0.0008876
886	0.0008148
898	0.001064
910	0.0009156
922	0.0006356
934	0.0006468
946	0.0004592
958	0.0003416
970	0.0002996
982	0.0003136
994	0.0003612
1006	0.0004032
1018	0.000504
1030	0.0005908
1042	0.0006552
1054	0.0008036
1066	0.000882
1078	0.0009352
1090	0.0007728
1102	0.0004732
1114	0.0003892
1126	0.0003752
1138	0.0002744
1150	0.000224
1162	0.0001904
1174	0.0002324
1186	0.0002604
1198	0.0002744
1210	0.0002184
1222	0.0002016
1234	0.000196
1246	0.0003024
1258	0.0005656
1270	0.0006748
1282	0.0007448
1294	0.0010108
1306	0.0011508
1318	0.0010668
1330	0.0008008
1342	0.0005264
1354	0.0005488
1366	0.0009772
1378	0.001512
1390	0.0013524
1402	0.0009044
1414	0.0008484
1426	0.0010164
1438	0.0015148
1450	0.00252
1462	0.003458
1474	0.0028392
1486	0.0015176
1498	0.0007868
1510	0.0005656
1522	0.000434
1534	0.0003556
1546	0.0002968
1558	0.000252
1570	0.0002464
1582	0.0002436
1594	0.0002492
1606	0.000252
1618	0.0002996
1630	0.0003052
1642	0.0003556
1654	0.0004228
1666	0.0003668
1678	0.0002352
1690	0.00021
1702	0.0002268
1714	0.0002016
1726	0.0001092
1738	5.32e-05
1750	2.24e-05
1762	1.68e-05
1774	4.2e-05
1786	6.16e-05
1798	7.56e-05
1810	8.12e-05
1822	8.68e-05
1834	5.88e-05
1846	6.16e-05
1858	7e-05
1870	7e-05
1882	8.68e-05
1894	9.52e-05
1906	0.0001092
1918	9.8e-05
1930	7.28e-05
1942	7.28e-05
1954	6.16e-05
1966	3.64e-05
1978	4.76e-05
1990	5.32e-05
2002	3.08e-05
2014	5.88e-05
2026	5.32e-05
2038	7e-05
2050	7e-05
2062	4.2e-05
2074	7e-05
2086	7.28e-05
2098	4.76e-05
2110	4.2e-05
2122	5.04e-05
2134	3.64e-05
2146	5.32e-05
2158	6.16e-05
2170	4.76e-05
2182	4.76e-05
2194	4.2e-05
2206	5.32e-05
2218	3.64e-05
2230	5.32e-05
2242	5.6e-05
2254	4.48e-05
2266	7e-05
2278	5.32e-05
2290	4.48e-05
2302	7.28e-05
2314	7.28e-05
2326	7.56e-05
2338	8.68e-05
2350	9.8e-05
2362	0.0001176
2374	0.0001008
2386	0.0001148
2398	0.0001148
2410	0.0001232
2422	0.0001064
2434	0.0001148
2446	0.0001008
2458	8.12e-05
2470	8.12e-05
2482	9.24e-05
2494	0.0001008
2506	9.24e-05
2518	0.000112
2530	0.0001232
2542	0.0001428
2554	0.0001708
2566	0.0001652
2578	0.0001568
2590	0.0001708
2602	0.0001624
2614	0.0001764
2626	0.0002212
2638	0.000224
2650	0.0002128
2662	0.0001932
2674	0.0001932
2686	0.00021
2698	0.0002576
2710	0.0002968
2722	0.0004396
2734	0.0005348
2746	0.0005516
2758	0.0005824
2770	0.0006356
2782	0.0007336
2794	0.0008232
2806	0.001022
2818	0.0013216
2830	0.0019516
2842	0.0030492
2854	0.0049168
2866	0.007518
2878	0.0107352
2890	0.0117068
2902	0.0102928
2914	0.0101808
2926	0.012376
2938	0.015918
2950	0.0169428
2962	0.0230692
2974	0.0277396
2986	0.0161532
2998	0.0069272
3010	0.0039928
3022	0.002814
3034	0.002198
3046	0.00168
3058	0.0012824
3070	0.0010024
3082	0.0008624
3094	0.0007756
3106	0.0007448
3118	0.0006888
3130	0.0006188
3142	0.0005936
3154	0.00056
3166	0.0004704
3178	0.0004004
3190	0.0003332
3202	0.00028
3214	0.0002044
3226	0.0001932
3238	0.0001904
3250	0.0001484
3262	0.0001484
3274	0.0001568
3286	0.000112
3298	0.0001288
3310	0.0001008
3322	0.0001064
3334	0.0001008
3346	0.0001092
3358	9.24e-05
3370	0.0001008
3382	8.68e-05
3394	8.68e-05
3406	7.56e-05
3418	6.44e-05
3430	5.04e-05
3442	8.12e-05
3454	9.52e-05
3466	8.68e-05
3478	7e-05
3490	5.88e-05
3502	0.0001008
3514	7.84e-05
3526	3.92e-05
3538	3.36e-05
3550	6.16e-05
3562	6.72e-05
3574	7.84e-05
3586	5.6e-05
3598	5.04e-05
3610	6.44e-05
3622	9.24e-05
3634	6.16e-05
3646	0.0001288
3658	0.000112
3670	0.0001372
3682	0.0001456
3694	0.0001456
3706	0.0001288
3718	0.0001456
3730	0.0001092
3742	0.0001204
3754	0.0001596
3766	0.0001456
3778	0.0001148
3790	7.84e-05
3802	0.000112
3814	0.0001092
3826	0.0001512
3838	0.0001288
