Infrared Spectrum: trans-1-Methyl-4-isopropylcyclohexane
Formula: C 10 H 20
CAS: 1678-82-6
State: gas
Instrument: HP-GC/MS/IRD
Origin: NIST Mass Spectrometry Data Center
1/CM	ABSORBANCE
550	4.18e-05
562	0.0003078
574	9.88e-05
586	9.88e-05
598	0.0001596
610	2.28e-05
622	7.6e-05
634	1.14e-05
646	0.0001406
658	0.000171
670	0.0001026
682	2.28e-05
694	0.000133
706	0.0001824
718	0.0001064
730	6.46e-05
742	0.0001596
754	0.0001178
766	0.0001064
778	0.0001026
790	6.08e-05
802	0.0001102
814	0.0001672
826	8.74e-05
838	0.000152
850	0.0001976
862	0.0003002
874	0.0002774
886	0.0004104
898	0.0003914
910	0.0003344
922	0.0003572
934	0.0003192
946	0.0003686
958	0.0003762
970	0.0006042
982	0.0008398
994	0.0006004
1006	0.0004674
1018	0.0004256
1030	0.0004522
1042	0.0003078
1054	0.0002964
1066	0.0004104
1078	0.000551
1090	0.0007068
1102	0.0006118
1114	0.0003496
1126	0.0002736
1138	0.0002584
1150	0.0003458
1162	0.0005624
1174	0.000741
1186	0.0005054
1198	0.0002888
1210	0.0002926
1222	0.0005966
1234	0.0008968
1246	0.0005814
1258	0.000475
1270	0.0003686
1282	0.000513
1294	0.0006688
1306	0.0005852
1318	0.0005282
1330	0.0006118
1342	0.0006954
1354	0.0009766
1366	0.0020102
1378	0.0030476
1390	0.0027474
1402	0.0011172
1414	0.0006118
1426	0.0008246
1438	0.0020938
1450	0.0042294
1462	0.0043586
1474	0.0031312
1486	0.0014782
1498	0.0006118
1510	0.0003534
1522	0.0002736
1534	0.0002166
1546	0.0001748
1558	0.0001748
1570	0.000152
1582	0.0001292
1594	0.0001406
1606	0.000133
1618	0.0001406
1630	0.000114
1642	0.0001444
1654	0.0001672
1666	0.0001254
1678	0.000133
1690	0.000133
1702	0.000114
1714	0.0001026
1726	7.98e-05
1738	8.36e-05
1750	6.84e-05
1762	5.7e-05
1774	6.08e-05
1786	5.32e-05
1798	7.22e-05
1810	5.7e-05
1822	7.22e-05
1834	5.32e-05
1846	4.94e-05
1858	4.94e-05
1870	4.56e-05
1882	4.94e-05
1894	6.84e-05
1906	3.8e-05
1918	3.04e-05
1930	5.32e-05
1942	7.6e-06
1954	7.6e-06
1966	1.9e-05
1978	4.94e-05
1990	2.66e-05
2002	0
2014	1.9e-05
2026	1.14e-05
2038	1.14e-05
2050	4.56e-05
2062	1.14e-05
2074	2.28e-05
2086	2.28e-05
2098	1.9e-05
2110	0
2122	5.7e-05
2134	1.9e-05
2146	1.9e-05
2158	2.28e-05
2170	3.8e-05
2182	3.04e-05
2194	4.18e-05
2206	4.18e-05
2218	3.8e-05
2230	5.32e-05
2242	7.6e-05
2254	5.7e-05
2266	6.46e-05
2278	3.8e-05
2290	6.08e-05
2302	5.32e-05
2314	4.56e-05
2326	7.22e-05
2338	9.5e-05
2350	0.0001064
2362	0.000114
2374	0.000114
2386	9.5e-05
2398	0.0001178
2410	0.000133
2422	0.0001216
2434	0.0001292
2446	0.000133
2458	0.0001178
2470	9.5e-05
2482	0.0001102
2494	9.88e-05
2506	0.000114
2518	0.0001292
2530	0.0001824
2542	0.0001672
2554	0.0001748
2566	0.0002166
2578	0.0002546
2590	0.0003306
2602	0.0004218
2614	0.0004636
2626	0.0004788
2638	0.0004978
2650	0.0004864
2662	0.0005054
2674	0.0005092
2686	0.0005472
2698	0.0005358
2710	0.000532
2722	0.0006574
2734	0.0007334
2746	0.0007068
2758	0.000703
2770	0.0007068
2782	0.000836
2794	0.0010678
2806	0.001368
2818	0.0018202
2830	0.002983
2842	0.0076228
2854	0.0148314
2866	0.0163248
2878	0.0175902
2890	0.0160322
2902	0.0182704
2914	0.0297122
2926	0.038
2938	0.0307458
2950	0.0271168
2962	0.0302632
2974	0.0184224
2986	0.0070642
2998	0.0027094
3010	0.0014212
3022	0.001083
3034	0.0009386
3046	0.0007828
3058	0.0006726
3070	0.0006232
3082	0.000608
3094	0.0005738
3106	0.0005548
3118	0.0005434
3130	0.0005282
3142	0.0005662
3154	0.0005434
3166	0.0005206
3178	0.0004446
3190	0.0003496
3202	0.0003078
3214	0.0002356
3226	0.0001976
3238	0.0001672
3250	0.0001216
3262	0.0001368
3274	0.0001216
3286	0.000114
3298	0.0001444
3310	0.0001064
3322	0.0001482
3334	0.0001368
3346	0.0001596
3358	0.0001672
3370	0.0001254
3382	0.0001406
3394	0.000114
3406	0.0001026
3418	0.0001216
3430	0.0001292
3442	6.84e-05
3454	8.36e-05
3466	8.74e-05
3478	0.0001102
3490	5.32e-05
3502	3.04e-05
3514	4.18e-05
3526	5.7e-05
3538	7.6e-05
3550	3.42e-05
3562	3.42e-05
3574	6.08e-05
3586	6.84e-05
3598	0.0001216
3610	9.12e-05
3622	6.46e-05
3634	7.98e-05
3646	0.0001026
3658	9.88e-05
3670	0.0001254
3682	0.0001292
3694	0.0001102
3706	0.0001824
3718	0.0001292
3730	0.0001482
3742	0.0001482
3754	0.0001406
3766	0.0001178
3778	0.0001406
3790	0.000152
3802	0.0001938
3814	0.0001862
3826	0.0001558
3838	0.0002204
