Infrared Spectrum: N-PHENYL-BENZENE-SULFONAMIDE
Formula: C12 H11 N O2 S
CAS: 1678-25-7
State: SOLID (1.0% IN KBr PELLET)
Class: COBLENTZ
Instrument: Not specified, most likely a prism, grating, or hybrid spectrometer.
Sampling: TRANSMISSION
Path length: 0.0355 CM THICK
Resolution: 4
Origin: ANDERSON PHYSICAL LABORATORY
1/CM	TRANSMITTANCE
668.224	0.368
676.635	0.384
685.046	0.113
693.458	0.3091
701.869	0.2168
710.28	0.549
718.691	0.2051
727.103	0.117
735.514	0.3199
743.925	0.518
752.336	0.143
760.748	0.1779
769.159	0.199
777.57	0.5569
785.981	0.631
794.393	0.682
802.804	0.704
811.215	0.71
819.626	0.698
828.037	0.687
836.449	0.69
844.86	0.704
853.271	0.76
861.682	0.757
870.094	0.746
878.505	0.716
886.916	0.661
895.327	0.548
903.739	0.3231
912.15	0.332
920.561	0.482
928.972	0.165
937.384	0.4019
945.795	0.6609
954.206	0.716
962.617	0.752
971.028	0.742
979.44	0.71
987.851	0.731
996.262	0.681
1004.67	0.614
1013.08	0.733
1021.5	0.692
1029.91	0.5291
1038.32	0.7089
1046.73	0.71
1055.14	0.691
1063.55	0.646
1071.96	0.499
1080.37	0.505
1088.79	0.375
1097.2	0.125
1105.61	0.5238
1114.02	0.615
1122.43	0.582
1130.84	0.5
1139.25	0.381
1147.66	0.187
1156.08	0.028
1164.49	0.029
1172.9	0.093
1181.31	0.269
1189.72	0.3007
1198.13	0.6149
1206.54	0.7
1214.95	0.673
1223.37	0.451
1231.78	0.588
1240.19	0.71
1248.6	0.718
1257.01	0.698
1265.42	0.675
1273.83	0.5581
1282.24	0.405
1290.66	0.377
1299.07	0.304
1307.48	0.146
1315.89	0.359
1324.3	0.222
1332.71	0.132
1341.12	0.2301
1349.53	0.4749
1357.95	0.6789
1366.36	0.749
1374.77	0.758
1383.18	0.746
1391.59	0.7
1400	0.594
1408.41	0.461
1416.82	0.274
1425.24	0.4051
1433.65	0.6659
1442.06	0.7
1450.47	0.4512
1458.88	0.6569
1467.29	0.654
1475.7	0.3781
1484.11	0.293
1492.53	0.38
1500.94	0.317
1509.35	0.4941
1517.76	0.73
1526.17	0.761
1534.58	0.797
1542.99	0.815
1551.4	0.821
1559.81	0.815
1568.23	0.807
1576.64	0.777
1585.05	0.697
1593.46	0.5549
1601.87	0.4269
1610.28	0.7129
1618.69	0.789
1627.1	0.803
1635.52	0.81
1643.93	0.818
1652.34	0.834
1660.75	0.828
1669.16	0.827
1677.57	0.825
1685.98	0.824
1694.39	0.827
1702.81	0.852
1711.22	0.847
1719.63	0.849
1728.04	0.842
1736.45	0.843
1744.86	0.831
1753.27	0.828
1761.68	0.809
1770.1	0.797
1778.51	0.827
1786.92	0.837
1795.33	0.834
1803.74	0.801
1812.15	0.78
1820.56	0.795
1828.97	0.822
1837.39	0.825
1845.8	0.839
1854.21	0.836
1862.62	0.83
1871.03	0.821
1879.44	0.809
1887.85	0.803
1896.26	0.779
1904.68	0.78
1913.09	0.815
1921.5	0.816
1929.91	0.824
1938.32	0.828
1946.73	0.821
1955.14	0.813
1963.55	0.795
1971.97	0.78
1980.38	0.791
1988.79	0.8
1997.2	0.804
2005.61	0.829
2014.02	0.83
2022.43	0.828
2030.84	0.8278
2039.26	0.826
2047.67	0.825
2056.08	0.827
2064.49	0.828
2072.9	0.828
2081.31	0.8273
2089.72	0.825
2098.13	0.824
2106.55	0.825
2114.96	0.825
2123.37	0.824
2131.78	0.8205
2140.19	0.818
2148.6	0.8165
2157.01	0.815
2165.42	0.813
2173.84	0.8125
2182.25	0.8105
2190.66	0.81
2199.07	0.8085
2207.48	0.805
2215.89	0.8033
2224.3	0.801
2232.71	0.7965
2241.13	0.795
2249.54	0.7977
2257.95	0.801
2266.36	0.803
2274.77	0.802
2283.18	0.7956
2291.59	0.7851
2300	0.78
2308.41	0.78
2316.83	0.782
2325.24	0.783
2333.65	0.786
2342.06	0.7895
2350.47	0.7917
2358.88	0.795
2367.29	0.797
2375.7	0.797
2384.12	0.797
2392.53	0.794
2400.94	0.7905
2409.35	0.787
2417.76	0.786
2426.17	0.785
2434.58	0.782
2442.99	0.7785
2451.41	0.7732
2459.82	0.77
2468.23	0.769
2476.64	0.769
2485.05	0.77
2493.46	0.771
2501.87	0.7708
2510.28	0.768
2518.7	0.766
2527.11	0.764
2535.52	0.758
2543.93	0.756
2552.34	0.752
2560.75	0.749
2569.16	0.749
2577.57	0.751
2585.99	0.749
2594.4	0.748
2602.81	0.7475
2611.22	0.745
2619.63	0.7423
2628.04	0.74
2636.45	0.7317
2644.86	0.7245
2653.28	0.7143
2661.69	0.7011
2670.1	0.7022
2678.51	0.7075
2686.92	0.7127
2695.33	0.715
2703.74	0.715
2712.15	0.714
2720.57	0.713
2728.98	0.709
2737.39	0.707
2745.8	0.707
2754.21	0.7025
2762.62	0.694
2771.03	0.6738
2779.44	0.6585
2787.86	0.6513
2796.27	0.652
2804.68	0.6617
2813.09	0.6813
2821.5	0.6885
2829.91	0.675
2838.32	0.6431
2846.73	0.6196
2855.15	0.6083
2863.56	0.615
2871.97	0.6482
2880.38	0.6675
2888.79	0.6764
2897.2	0.688
2905.61	0.6798
2914.02	0.6491
2922.44	0.6405
2930.85	0.645
2939.26	0.6557
2947.67	0.656
2956.08	0.6488
2964.49	0.643
2972.9	0.6182
2981.31	0.6155
2989.73	0.6125
2998.14	0.603
3006.55	0.581
3014.96	0.568
3023.37	0.5488
3031.78	0.5201
3040.19	0.5066
3048.6	0.498
3057.01	0.4945
3065.43	0.494
3073.84	0.4975
3082.25	0.5025
3090.66	0.5045
3099.07	0.505
3107.48	0.4712
3115.89	0.4174
3124.3	0.363
3132.72	0.3081
3141.13	0.241
3149.54	0.1881
3157.95	0.1426
3166.36	0.0801
3174.77	0.0603
3183.18	0.0525
3191.59	0.0574
3200.01	0.073
3208.42	0.1113
3216.83	0.1767
3225.24	0.2555
3233.65	0.3331
3242.06	0.4044
3250.47	0.4673
3258.88	0.513
3267.3	0.5478
3275.71	0.5997
3284.12	0.6289
3292.53	0.6614
3300.94	0.6749
3309.35	0.684
3317.76	0.684
3326.17	0.6825
3334.59	0.681
3343	0.6773
3351.41	0.6725
3359.82	0.667
3368.23	0.657
3376.64	0.6451
3385.05	0.6365
3393.46	0.6288
3401.88	0.625
3410.29	0.624
3418.7	0.624
3427.11	0.624
3435.52	0.624
3443.93	0.6255
3452.34	0.6275
3460.75	0.6308
3469.17	0.636
3477.58	0.6412
3485.99	0.647
3494.4	0.6542
3502.81	0.657
3511.22	0.6585
3519.63	0.66
3528.04	0.66
3536.46	0.66
3544.87	0.664
3553.28	0.6725
3561.69	0.679
3570.1	0.685
3578.51	0.692
3586.92	0.6975
3595.33	0.7002
3603.75	0.703
3612.16	0.706
3620.57	0.709
3628.98	0.7097
3637.39	0.713
3645.8	0.716
3654.21	0.717
3662.62	0.7187
3671.04	0.719
3679.45	0.718
3687.86	0.717
3696.27	0.716
3704.68	0.715
3713.09	0.7152
3721.5	0.717
3729.91	0.718
3738.33	0.718
3746.74	0.716
3755.15	0.715
3763.56	0.7123
3771.97	0.71
3780.38	0.709
3788.79	0.7095
3797.2	0.7115
3805.61	0.712
3814.03	0.709
3822.44	0.707
3830.85	0.707
3839.26	0.707
3847.67	0.707
3856.08	0.709
3864.49	0.709
3872.9	0.707
3881.32	0.707
3889.73	0.707
3898.14	0.7085
3906.55	0.71
3914.96	0.71
3923.37	0.71
3931.78	0.71
3940.19	0.709
3948.61	0.709
3957.02	0.708
3965.43	0.706
3973.84	0.704
3982.25	0.704
