Infrared Spectrum: BUTYRAMIDE, N-(5-SULFAMOYL-1,3,4-THIADIAZOL-2-YL)-
Formula: C6 H10 N4 O3 S2
CAS: 16790-49-1
State: SOLID (NUJOL MULL)
Class: COBLENTZ III
Instrument: PERKIN-ELMER 21 (GRATING)
Instrument parameters: NaCl PRISM
Sampling: TRANSMISSION
Resolution: 2
Origin: SMITH KLINE & FRENCH LABS.
MICROMETERS	TRANSMITTANCE
1.999	0.761
2.03319	0.766
2.06738	0.769
2.10156	0.769
2.13575	0.769
2.16994	0.778
2.20413	0.776
2.23831	0.772
2.2725	0.774
2.30669	0.764
2.34088	0.766
2.37506	0.77
2.40925	0.776
2.44344	0.777
2.47763	0.781
2.51181	0.792
2.546	0.799
2.58019	0.799
2.61438	0.8
2.64856	0.807
2.68275	0.813
2.71694	0.819
2.75113	0.822
2.78531	0.82
2.8195	0.816
2.85369	0.811
2.88788	0.808
2.92206	0.8
2.95625	0.783
2.99044	0.72
3.02463	0.518
3.05882	0.218
3.093	0.179
3.12719	0.291
3.16138	0.41
3.19557	0.499
3.22975	0.529
3.26394	0.461
3.29813	0.379
3.33232	0.369
3.3665	0.269
3.40069	0.108
3.43488	0.051
3.46907	0.158
3.50325	0.163
3.53744	0.496
3.57163	0.659
3.60582	0.728
3.64	0.746
3.67419	0.743
3.70838	0.727
3.74257	0.711
3.77675	0.73
3.81094	0.752
3.84513	0.765
3.87932	0.768
3.91351	0.788
3.94769	0.792
3.98188	0.787
4.01607	0.796
4.05026	0.808
4.08444	0.813
4.11863	0.81
4.15282	0.813
4.18701	0.811
4.22119	0.811
4.25538	0.811
4.28957	0.815
4.32376	0.816
4.35794	0.819
4.39213	0.819
4.42632	0.818
4.46051	0.813
4.49469	0.811
4.52888	0.819
4.56307	0.818
4.59726	0.818
4.63144	0.821
4.66563	0.82
4.69982	0.819
4.73401	0.818
4.76819	0.822
4.80238	0.821
4.83657	0.822
4.87076	0.82
4.90495	0.813
4.93913	0.814
4.97332	0.821
5.00751	0.827
5.0417	0.824
5.07588	0.826
5.11007	0.829
5.14426	0.829
5.17845	0.827
5.21263	0.822
5.24682	0.822
5.28101	0.822
5.3152	0.822
5.34938	0.826
5.38357	0.827
5.41776	0.822
5.45195	0.827
5.48613	0.827
5.52032	0.827
5.55451	0.829
5.5887	0.827
5.62288	0.832
5.65707	0.829
5.69126	0.827
5.72545	0.822
5.75964	0.819
5.79382	0.8
5.82801	0.799
5.8622	0.739
5.89639	0.531
5.93057	0.346
5.96476	0.321
5.99895	0.534
6.03314	0.63
6.06732	0.678
6.10151	0.727
6.1357	0.741
6.16989	0.749
6.20407	0.755
6.23826	0.738
6.27245	0.7
6.30664	0.623
6.34082	0.642
6.37501	0.68
6.4092	0.671
6.44339	0.597
6.47757	0.44
6.51176	0.297
6.54595	0.439
6.58014	0.598
6.61432	0.655
6.64851	0.688
6.6827	0.714
6.71689	0.694
6.75108	0.642
6.78526	0.527
6.81945	0.368
6.85364	0.358
6.88783	0.399
6.92201	0.509
6.9562	0.589
6.99039	0.653
7.02458	0.682
7.05876	0.677
7.09295	0.678
7.12714	0.7
7.16133	0.676
7.19551	0.593
7.2297	0.455
7.26389	0.356
7.29808	0.323
7.33226	0.174
7.36645	0.151
7.40064	0.306
7.43483	0.411
7.46901	0.462
7.5032	0.54
7.53739	0.582
7.57158	0.603
7.60576	0.606
7.63995	0.617
7.67414	0.619
7.70833	0.612
7.74252	0.631
7.7767	0.652
7.81089	0.678
7.84508	0.699
7.87927	0.692
7.91345	0.695
7.94764	0.691
7.98183	0.698
8.01602	0.708
8.0502	0.715
8.08439	0.713
8.11858	0.706
8.15277	0.715
8.18695	0.72
8.22114	0.717
8.25533	0.711
8.28952	0.699
8.3237	0.669
8.35789	0.61
8.39208	0.534
8.42627	0.405
8.46045	0.35
8.49464	0.321
8.52883	0.181
8.56302	0.186
8.59721	0.341
8.63139	0.496
8.66558	0.589
8.69977	0.6
8.73396	0.639
8.76814	0.663
8.80233	0.676
8.83652	0.698
8.87071	0.698
8.90489	0.7
8.93908	0.705
8.97327	0.672
9.00746	0.647
9.04164	0.65
9.07583	0.661
9.11002	0.652
9.14421	0.641
9.17839	0.643
9.21258	0.611
9.24677	0.609
9.28096	0.639
9.31514	0.677
9.34933	0.688
9.38352	0.705
9.41771	0.714
9.45189	0.717
9.48608	0.72
9.52027	0.727
9.55446	0.719
9.58865	0.72
9.62283	0.721
9.65702	0.733
9.69121	0.73
9.7254	0.73
9.75958	0.737
9.79377	0.735
9.82796	0.733
9.86215	0.739
9.89633	0.743
9.93052	0.75
9.96471	0.746
9.9989	0.749
10.0331	0.748
10.0673	0.752
10.1015	0.757
10.1356	0.75
10.1698	0.743
10.204	0.684
10.2382	0.643
10.2724	0.691
10.3066	0.728
10.3408	0.728
10.375	0.724
10.4091	0.703
10.4433	0.711
10.4775	0.726
10.5117	0.731
10.5459	0.73
10.5801	0.721
10.6143	0.715
10.6485	0.689
10.6826	0.639
10.7168	0.588
10.751	0.549
10.7852	0.525
10.8194	0.539
10.8536	0.572
10.8878	0.622
10.922	0.669
10.9561	0.682
10.9903	0.683
11.0245	0.684
11.0587	0.682
11.0929	0.672
11.1271	0.695
11.1613	0.719
11.1955	0.736
11.2296	0.741
11.2638	0.749
11.298	0.761
11.3322	0.763
11.3664	0.763
11.4006	0.763
11.4348	0.753
11.469	0.763
11.5032	0.759
11.5373	0.759
11.5715	0.76
11.6057	0.769
11.6399	0.769
11.6741	0.769
11.7083	0.769
11.7425	0.769
11.7767	0.769
11.8108	0.769
11.845	0.771
11.8792	0.772
11.9134	0.781
11.9476	0.778
11.9818	0.777
12.016	0.776
12.0502	0.777
12.0843	0.781
12.1185	0.771
12.1527	0.771
12.1869	0.769
12.2211	0.769
12.2553	0.777
12.2895	0.763
12.3237	0.761
12.3578	0.752
12.392	0.753
12.4262	0.75
12.4604	0.754
12.4946	0.753
12.5288	0.753
12.563	0.752
12.5972	0.749
12.6313	0.749
12.6655	0.753
12.6997	0.752
12.7339	0.75
12.7681	0.749
12.8023	0.748
12.8365	0.748
12.8707	0.744
12.9048	0.743
12.939	0.742
12.9732	0.738
13.0074	0.732
13.0416	0.727
13.0758	0.713
13.11	0.711
13.1442	0.706
13.1783	0.699
13.2125	0.689
13.2467	0.675
13.2809	0.672
13.3151	0.663
13.3493	0.643
13.3835	0.634
13.4177	0.621
13.4518	0.611
13.486	0.601
13.5202	0.598
13.5544	0.592
13.5886	0.587
13.6228	0.586
13.657	0.588
13.6912	0.583
13.7253	0.583
13.7595	0.581
13.7937	0.572
13.8279	0.562
13.8621	0.553
13.8963	0.548
13.9305	0.533
13.9647	0.532
13.9988	0.531
14.033	0.529
14.0672	0.521
14.1014	0.515
14.1356	0.511
14.1698	0.499
14.204	0.494
14.2382	0.492
14.2723	0.483
14.3065	0.476
14.3407	0.472
14.3749	0.47
14.4091	0.461
14.4433	0.467
14.4775	0.472
14.5117	0.489
14.5458	0.499
14.58	0.5
14.6142	0.494
14.6484	0.495
14.6826	0.499
14.7168	0.495
14.751	0.494
14.7852	0.503
14.8193	0.51
14.8535	0.518
14.8877	0.521
14.9219	0.529
14.9561	0.527
14.9903	0.532
15.0245	0.536
15.0587	0.539
15.0928	0.539
15.127	0.539
15.1612	0.54
15.1954	0.543
15.2296	0.533
15.2638	0.532
15.298	0.532
15.3322	0.532
15.3663	0.531
