Infrared Spectrum: 1,5-DIMETHYLBIURET
Formula: C4 H9 N3 O2
CAS: 16791-94-9
State: SOLID (1 mg / 650 mg KBr DISC)
Class: COBLENTZ III
Instrument: PERKIN-ELMER 221 (GRATING)
Instrument parameters: FILTERS AT 2490, 980 CM ^-^1, GRATING FOR 4000-1428 CM ^-^1, NaCl PRISM FOR 1428-650 CM^-^1
Sampling: TRANSMISSION
Resolution: 4
Origin: SOUTHERN RES. INSTITUTE
1/CM	TRANSMITTANCE
612.393	0.759
621.545	0.752
630.696	0.745
639.848	0.735
648.999	0.726
658.151	0.717
667.302	0.674
676.454	0.625
685.606	0.632
694.757	0.683
703.909	0.686
713.06	0.75
722.212	0.768
731.363	0.77
740.515	0.765
749.667	0.74
758.818	0.685
767.97	0.782
777.121	0.834
786.273	0.84
795.424	0.849
804.576	0.857
813.728	0.86
822.879	0.862
832.031	0.863
841.182	0.865
850.334	0.864
859.485	0.863
868.637	0.863
877.789	0.863
886.94	0.86
896.092	0.861
905.243	0.866
914.395	0.867
923.546	0.867
932.698	0.864
941.85	0.863
951.001	0.86
960.153	0.854
969.304	0.851
978.456	0.848
987.607	0.846
996.759	0.844
1005.91	0.839
1015.06	0.838
1024.21	0.838
1033.37	0.837
1042.52	0.834
1051.67	0.831
1060.82	0.829
1069.97	0.825
1079.12	0.816
1088.27	0.818
1097.43	0.819
1106.58	0.817
1115.73	0.807
1124.88	0.796
1134.03	0.785
1143.18	0.764
1152.34	0.718
1161.49	0.697
1170.64	0.731
1179.79	0.775
1188.94	0.772
1198.09	0.758
1207.25	0.688
1216.4	0.561
1225.55	0.375
1234.7	0.457
1243.85	0.573
1253	0.629
1262.15	0.613
1271.31	0.643
1280.46	0.732
1289.61	0.78
1298.76	0.786
1307.91	0.784
1317.06	0.782
1326.22	0.781
1335.37	0.778
1344.52	0.778
1353.67	0.778
1362.82	0.778
1371.97	0.772
1381.13	0.756
1390.28	0.706
1399.43	0.591
1408.58	0.649
1417.73	0.746
1426.88	0.746
1436.03	0.735
1445.19	0.718
1454.34	0.708
1463.49	0.705
1472.64	0.692
1481.79	0.676
1490.94	0.66
1500.1	0.641
1509.25	0.57
1518.4	0.486
1527.55	0.37
1536.7	0.272
1545.85	0.186
1555	0.228
1564.16	0.324
1573.31	0.432
1582.46	0.5
1591.61	0.626
1600.76	0.674
1609.91	0.672
1619.07	0.662
1628.22	0.665
1637.37	0.665
1646.52	0.614
1655.67	0.468
1664.82	0.493
1673.98	0.331
1683.13	0.145
1692.28	0.177
1701.43	0.306
1710.58	0.232
1719.73	0.338
1728.88	0.609
1738.04	0.715
1747.19	0.762
1756.34	0.791
1765.49	0.808
1774.64	0.815
1783.79	0.821
1792.95	0.829
1802.1	0.832
1811.25	0.838
1820.4	0.839
1829.55	0.843
1838.7	0.845
1847.86	0.846
1857.01	0.849
1866.16	0.851
1875.31	0.851
1884.46	0.851
1893.61	0.854
1902.76	0.854
1911.92	0.854
1921.07	0.854
1930.22	0.854
1939.37	0.854
1948.52	0.854
1957.67	0.854
1966.83	0.854
1975.98	0.855
1985.13	0.856
1994.28	0.857
2003.43	0.857
2012.58	0.858
2021.74	0.858
2030.89	0.858
2040.04	0.858
2049.19	0.858
2058.34	0.858
2067.49	0.859
2076.64	0.859
2085.8	0.859
2094.95	0.859
2104.1	0.859
2113.25	0.859
2122.4	0.86
2131.55	0.86
2140.71	0.86
2149.86	0.86
2159.01	0.861
2168.16	0.862
2177.31	0.862
2186.46	0.861
2195.62	0.86
2204.77	0.861
2213.92	0.86
2223.07	0.859
2232.22	0.857
2241.37	0.859
2250.52	0.859
2259.68	0.859
2268.83	0.86
2277.98	0.86
2287.13	0.86
2296.28	0.859
2305.43	0.857
2314.59	0.855
2323.74	0.854
2332.89	0.854
2342.04	0.853
2351.19	0.854
2360.34	0.854
2369.49	0.854
2378.65	0.854
2387.8	0.853
2396.95	0.852
2406.1	0.851
2415.25	0.851
2424.4	0.851
2433.56	0.85
2442.71	0.849
2451.86	0.849
2461.01	0.849
2470.16	0.848
2479.31	0.835
2488.47	0.841
2497.62	0.848
2506.77	0.847
2515.92	0.845
2525.07	0.844
2534.22	0.843
2543.37	0.842
2552.53	0.843
2561.68	0.843
2570.83	0.843
2579.98	0.844
2589.13	0.844
2598.28	0.844
2607.44	0.844
2616.59	0.844
2625.74	0.844
2634.89	0.844
2644.04	0.844
2653.19	0.843
2662.35	0.843
2671.5	0.842
2680.65	0.841
2689.8	0.844
2698.95	0.845
2708.1	0.843
2717.25	0.843
2726.41	0.841
2735.56	0.841
2744.71	0.841
2753.86	0.841
2763.01	0.838
2772.16	0.837
2781.32	0.836
2790.47	0.832
2799.62	0.826
2808.77	0.829
2817.92	0.829
2827.07	0.827
2836.23	0.82
2845.38	0.816
2854.53	0.81
2863.68	0.792
2872.83	0.79
2881.98	0.777
2891.13	0.776
2900.29	0.772
2909.44	0.758
2918.59	0.752
2927.74	0.743
2936.89	0.731
2946.04	0.729
2955.2	0.748
2964.35	0.757
2973.5	0.769
2982.65	0.785
2991.8	0.789
3000.95	0.792
3010.1	0.793
3019.26	0.793
3028.41	0.791
3037.56	0.79
3046.71	0.788
3055.86	0.786
3065.01	0.781
3074.17	0.776
3083.32	0.767
3092.47	0.758
3101.62	0.737
3110.77	0.728
3119.92	0.723
3129.08	0.719
3138.23	0.718
3147.38	0.718
3156.53	0.719
3165.68	0.717
3174.83	0.713
3183.98	0.712
3193.14	0.708
3202.29	0.702
3211.44	0.683
3220.59	0.67
3229.74	0.648
3238.89	0.616
3248.05	0.601
3257.2	0.575
3266.35	0.55
3275.5	0.534
3284.65	0.506
3293.8	0.492
3302.96	0.453
3312.11	0.399
3321.26	0.422
3330.41	0.471
3339.56	0.457
3348.71	0.426
3357.86	0.425
3367.02	0.465
3376.17	0.486
3385.32	0.528
3394.47	0.57
3403.62	0.6
3412.77	0.624
3421.93	0.644
3431.08	0.658
3440.23	0.676
3449.38	0.687
3458.53	0.696
3467.68	0.701
3476.84	0.703
3485.99	0.707
3495.14	0.712
3504.29	0.718
3513.44	0.724
3522.59	0.731
3531.74	0.735
3540.9	0.747
3550.05	0.749
3559.2	0.762
3568.35	0.767
3577.5	0.78
3586.65	0.784
3595.81	0.8
3604.96	0.809
3614.11	0.81
3623.26	0.813
3632.41	0.822
3641.56	0.828
3650.71	0.828
3659.87	0.831
3669.02	0.831
3678.17	0.833
3687.32	0.839
3696.47	0.841
3705.62	0.841
3714.78	0.841
3723.93	0.84
3733.08	0.838
3742.23	0.836
3751.38	0.838
3760.53	0.842
3769.69	0.843
3778.84	0.842
3787.99	0.841
3797.14	0.839
3806.29	0.838
3815.44	0.838
3824.59	0.841
3833.75	0.841
3842.9	0.839
3852.05	0.838
3861.2	0.838
3870.35	0.84
3879.5	0.841
3888.66	0.842
3897.81	0.842
3906.96	0.843
3916.11	0.844
3925.26	0.844
3934.41	0.845
3943.57	0.845
3952.72	0.845
3961.87	0.845
3971.02	0.845
3980.17	0.845
3989.32	0.845
3998.47	0.845
