Infrared Spectrum: 4-Chlorobenzoyl isothiocyanate
Formula: C 8 H 4 Cl N O S
CAS: 16794-67-5
State: gas
Origin: EPA-IR VAPOR PHASE LIBRARY
1/CM	ABSORBANCE
549.8	0.002731
559.445	0.004531
569.09	0.007871
578.734	0.010201
588.379	0.010701
598.024	0.011141
607.669	0.011991
617.313	0.011641
626.958	0.010461
636.603	0.009681
646.248	0.012041
655.893	0.011551
665.537	0.012451
675.182	0.021701
684.827	0.017841
694.472	0.008791
704.116	0.006251
713.761	0.005831
723.406	0.006671
733.051	0.010881
742.695	0.033541
752.34	0.076611
761.985	0.057701
771.63	0.028431
781.275	0.019521
790.919	0.016341
800.564	0.018301
810.209	0.016411
819.854	0.008671
829.498	0.005071
839.143	0.004911
848.788	0.005831
858.433	0.007821
868.078	0.008361
877.722	0.008051
887.367	0.015211
897.012	0.036201
906.657	0.036561
916.301	0.014751
925.946	0.006271
935.591	0.004331
945.236	0.003971
954.88	0.003741
964.525	0.004171
974.17	0.004841
983.815	0.006111
993.46	0.010161
1003.1	0.018651
1012.75	0.030691
1022.39	0.037391
1032.04	0.024101
1041.68	0.012531
1051.33	0.011531
1060.97	0.020421
1070.62	0.054031
1080.26	0.072391
1089.91	0.093561
1099.55	0.099431
1109.2	0.053891
1118.84	0.069151
1128.49	0.082331
1138.13	0.061311
1147.78	0.046841
1157.42	0.048471
1167.07	0.050631
1176.71	0.039681
1186.36	0.030461
1196	0.023251
1205.64	0.024031
1215.29	0.032981
1224.93	0.048901
1234.58	0.072351
1244.22	0.150841
1253.87	0.328031
1263.51	0.325881
1273.16	0.220701
1282.8	0.197281
1292.45	0.147661
1302.09	0.080311
1311.74	0.040151
1321.38	0.022471
1331.03	0.015791
1340.67	0.012661
1350.32	0.011901
1359.96	0.017511
1369.61	0.033121
1379.25	0.020251
1388.9	0.015341
1398.54	0.016751
1408.18	0.018201
1417.83	0.021411
1427.47	0.020301
1437.12	0.020831
1446.76	0.025871
1456.41	0.031081
1466.05	0.031431
1475.7	0.030241
1485.34	0.031931
1494.99	0.045051
1504.63	0.054361
1514.28	0.038001
1523.92	0.018381
1533.57	0.010581
1543.21	0.008561
1552.86	0.009881
1562.5	0.015001
1572.15	0.030051
1581.79	0.058451
1591.44	0.063581
1601.08	0.061291
1610.73	0.055811
1620.37	0.025171
1630.01	0.011271
1639.66	0.007481
1649.3	0.006531
1658.95	0.006711
1668.59	0.007021
1678.24	0.007241
1687.88	0.009111
1697.53	0.014331
1707.17	0.020571
1716.82	0.026821
1726.46	0.054221
1736.11	0.183661
1745.75	0.258461
1755.4	0.075861
1765.04	0.024301
1774.69	0.019761
1784.33	0.015211
1793.98	0.010611
1803.62	0.008251
1813.27	0.006511
1822.91	0.005301
1832.55	0.004231
1842.2	0.003321
1851.84	0.002871
1861.49	0.002921
1871.13	0.003621
1880.78	0.004661
1890.42	0.004261
1900.07	0.002941
1909.71	0.002351
1919.36	0.002381
1929	0.002731
1938.65	0.003721
1948.29	0.004261
1957.94	0.003451
1967.58	0.002601
1977.23	0.002501
1986.87	0.002631
1996.52	0.002451
2006.16	0.002381
2015.81	0.002361
2025.45	0.002521
2035.1	0.002761
2044.74	0.003071
2054.38	0.003441
2064.03	0.003991
2073.67	0.004491
2083.32	0.005081
2092.96	0.006081
2102.61	0.007281
2112.25	0.008911
2121.9	0.010611
2131.54	0.012951
2141.19	0.016071
2150.83	0.019791
2160.48	0.023731
2170.12	0.029731
2179.77	0.038491
2189.41	0.047861
2199.06	0.061511
2208.7	0.083491
2218.35	0.108141
2227.99	0.138831
2237.64	0.193561
2247.28	0.308831
2256.92	0.528061
2266.57	0.788311
2276.21	0.836921
2285.86	0.589511
2295.5	0.324331
2305.15	0.194851
2314.79	0.147011
2324.44	0.124941
2334.08	0.103611
2343.73	0.081721
2353.37	0.064541
2363.02	0.052551
2372.66	0.043111
2382.31	0.034611
2391.95	0.026201
2401.6	0.019611
2411.24	0.014681
2420.89	0.011101
2430.53	0.008151
2440.18	0.006381
2449.82	0.005221
2459.47	0.004481
2469.11	0.003931
2478.75	0.003411
2488.4	0.002991
2498.04	0.002771
2507.69	0.002551
2517.33	0.002391
2526.98	0.002121
2536.62	0.002271
2546.27	0.002251
2555.91	0.001861
2565.56	0.001731
2575.2	0.001691
2584.85	0.001941
2594.49	0.001841
2604.14	0.001571
2613.78	0.001581
2623.43	0.001441
2633.07	0.001621
2642.72	0.001551
2652.36	0.001491
2662.01	0.001491
2671.65	0.001531
2681.29	0.001741
2690.94	0.001891
2700.58	0.002051
2710.23	0.002311
2719.87	0.002541
2729.52	0.002661
2739.16	0.002411
2748.81	0.002331
2758.45	0.002221
2768.1	0.002081
2777.74	0.002201
2787.39	0.001941
2797.03	0.001821
2806.68	0.001951
2816.32	0.002281
2825.97	0.002761
2835.61	0.002851
2845.26	0.003061
2854.9	0.003431
2864.55	0.004351
2874.19	0.006021
2883.84	0.008951
2893.48	0.009871
2903.12	0.010461
2912.77	0.012761
2922.41	0.012921
2932.06	0.014901
2941.7	0.021981
2951.35	0.021621
2960.99	0.019061
2970.64	0.025291
2980.28	0.038511
2989.93	0.044281
2999.57	0.028611
3009.22	0.018821
3018.86	0.012421
3028.51	0.009221
3038.15	0.008401
3047.8	0.008461
3057.44	0.009211
3067.09	0.012401
3076.73	0.015681
3086.38	0.011981
3096.02	0.007231
3105.67	0.004501
3115.31	0.003431
3124.95	0.002401
3134.6	0.002301
3144.24	0.002151
3153.89	0.002191
3163.53	0.002611
3173.18	0.002721
3182.82	0.002371
3192.47	0.001781
3202.11	0.001451
3211.76	0.001201
3221.4	0.001171
3231.05	0.0008421
3240.69	0.0006367
3250.34	0.0006414
3259.98	0.000684
3269.63	0.0006376
3279.27	0.000568
3288.92	0.0007548
3298.56	0.0005732
3308.21	0.0007729
3317.85	0.0008558
3327.49	0.0011122
3337.14	0.001391
3346.78	0.001791
3356.43	0.002421
3366.07	0.002571
3375.72	0.002931
3385.36	0.002921
3395.01	0.003461
3404.65	0.003771
3414.3	0.004221
3423.94	0.004251
3433.59	0.003671
3443.23	0.002891
3452.88	0.002851
3462.52	0.003451
3472.17	0.003421
3481.81	0.002171
3491.46	0.001641
3501.1	0.001541
3510.75	0.001411
3520.39	0.001301
3530.04	0.001401
3539.68	0.001401
3549.32	0.0011499
3558.97	0.0008926
3568.61	0.001106
3578.26	0.001291
3587.9	0.001481
3597.55	0.001181
3607.19	0.001401
3616.84	0.001771
3626.48	0.001821
3636.13	0.002321
3645.77	0.002461
3655.42	0.003001
3665.06	0.003381
3674.71	0.003831
3684.35	0.003811
3694	0.003611
3703.64	0.002941
3713.29	0.002871
3722.93	0.003121
3732.58	0.002921
3742.22	0.002761
3751.86	0.002561
3761.51	0.002771
3771.15	0.002721
3780.8	0.002731
3790.44	0.002361
3800.09	0.002281
3809.73	0.001681
3819.38	0.001581
3829.02	0.0011074
3838.67	0.0010852
3848.31	0.001013
3857.96	0.0011486
3867.6	0.0008752
3877.25	0.0008075
3886.89	0.0006072
3896.54	0.0007297
3906.18	0.0005121
3915.83	0.0004256
3925.47	0.0004723
3935.12	2.4e-05
3944.76	0.0003634
3954.41	0.0002549
3964.05	0.0005047
3973.69	0.0003973
3983.34	0.0006484
3992.98	0.0005736
