Infrared Spectrum: 4-Methylbenzoyl isothiocyanate
Formula: C 9 H 7 N O S
CAS: 16794-68-6
State: gas
Origin: EPA-IR VAPOR PHASE LIBRARY
1/CM	ABSORBANCE
549.8	0.0008587
559.445	0.0012798
569.09	0.002301
578.734	0.004311
588.379	0.012531
598.024	0.023061
607.669	0.016191
617.313	0.012201
626.958	0.011941
636.603	0.007791
646.248	0.005261
655.893	0.004281
665.537	0.006311
675.182	0.008331
684.827	0.007631
694.472	0.005031
704.116	0.004931
713.761	0.006681
723.406	0.013171
733.051	0.024751
742.695	0.020141
752.34	0.011051
761.985	0.010651
771.63	0.016801
781.275	0.041601
790.919	0.033341
800.564	0.021551
810.209	0.019071
819.854	0.010421
829.498	0.014711
839.143	0.016971
848.788	0.030631
858.433	0.072961
868.078	0.083141
877.722	0.041271
887.367	0.019681
897.012	0.016531
906.657	0.017281
916.301	0.015141
925.946	0.012621
935.591	0.011731
945.236	0.011401
954.88	0.011071
964.525	0.011361
974.17	0.010371
983.815	0.008111
993.46	0.006921
1003.1	0.006221
1012.75	0.009541
1022.39	0.010231
1032.04	0.005361
1041.68	0.006951
1051.33	0.011571
1060.97	0.021931
1070.62	0.039701
1080.26	0.051721
1089.91	0.033101
1099.55	0.010201
1109.2	0.004931
1118.84	0.004351
1128.49	0.004411
1138.13	0.004591
1147.78	0.005481
1157.42	0.007841
1167.07	0.020631
1176.71	0.090071
1186.36	0.057531
1196	0.019891
1205.64	0.037051
1215.29	0.053531
1224.93	0.095901
1234.58	0.132981
1244.22	0.169271
1253.87	0.183821
1263.51	0.077171
1273.16	0.026681
1282.8	0.015671
1292.45	0.009651
1302.09	0.006451
1311.74	0.008591
1321.38	0.005511
1331.03	0.002691
1340.67	0.002211
1350.32	0.002971
1359.96	0.003231
1369.61	0.002811
1379.25	0.002791
1388.9	0.003371
1398.54	0.005521
1408.18	0.008871
1417.83	0.008501
1427.47	0.005801
1437.12	0.004141
1446.76	0.003551
1456.41	0.003571
1466.05	0.004141
1475.7	0.004141
1485.34	0.004281
1494.99	0.005261
1504.63	0.006101
1514.28	0.005871
1523.92	0.005031
1533.57	0.005211
1543.21	0.005341
1552.86	0.005461
1562.5	0.006271
1572.15	0.008541
1581.79	0.009731
1591.44	0.012501
1601.08	0.023661
1610.73	0.035061
1620.37	0.021231
1630.01	0.008241
1639.66	0.006281
1649.3	0.005971
1658.95	0.006221
1668.59	0.007091
1678.24	0.009761
1687.88	0.015101
1697.53	0.027021
1707.17	0.058091
1716.82	0.111791
1726.46	0.136221
1736.11	0.100531
1745.75	0.050111
1755.4	0.023811
1765.04	0.013031
1774.69	0.008781
1784.33	0.006981
1793.98	0.005981
1803.62	0.005611
1813.27	0.004701
1822.91	0.004371
1832.55	0.005171
1842.2	0.006641
1851.84	0.008791
1861.49	0.011481
1871.13	0.015431
1880.78	0.021231
1890.42	0.029481
1900.07	0.041221
1909.71	0.060371
1919.36	0.090671
1929	0.124211
1938.65	0.140101
1948.29	0.140011
1957.94	0.159591
1967.58	0.231541
1977.23	0.324481
1986.87	0.311751
1996.52	0.246791
2006.16	0.222241
2015.81	0.220081
2025.45	0.198611
2035.1	0.145781
2044.74	0.101151
2054.38	0.069761
2064.03	0.050061
2073.67	0.039521
2083.32	0.034171
2092.96	0.030241
2102.61	0.026341
2112.25	0.022211
2121.9	0.018881
2131.54	0.017081
2141.19	0.016711
2150.83	0.016591
2160.48	0.015671
2170.12	0.012831
2179.77	0.008861
2189.41	0.006251
2199.06	0.005121
2208.7	0.004371
2218.35	0.003701
2227.99	0.003331
2237.64	0.003061
2247.28	0.003311
2256.92	0.003571
2266.57	0.003391
2276.21	0.002801
2285.86	0.002721
2295.5	0.002861
2305.15	0.003221
2314.79	0.003151
2324.44	0.002901
2334.08	0.002561
2343.73	0.002031
2353.37	0.001581
2363.02	0.0014225
2372.66	0.0012802
2382.31	0.0013596
2391.95	0.0013856
2401.6	0.001591
2411.24	0.001731
2420.89	0.001851
2430.53	0.001861
2440.18	0.001961
2449.82	0.002201
2459.47	0.002151
2469.11	0.002101
2478.75	0.002011
2488.4	0.001891
2498.04	0.001921
2507.69	0.001911
2517.33	0.002021
2526.98	0.002001
2536.62	0.001971
2546.27	0.001691
2555.91	0.001731
2565.56	0.001771
2575.2	0.001741
2584.85	0.002071
2594.49	0.001961
2604.14	0.001881
2613.78	0.001951
2623.43	0.002101
2633.07	0.002411
2642.72	0.002621
2652.36	0.003111
2662.01	0.003391
2671.65	0.003691
2681.29	0.003071
2690.94	0.002501
2700.58	0.001881
2710.23	0.001581
2719.87	0.0013172
2729.52	0.001435
2739.16	0.001571
2748.81	0.001601
2758.45	0.001491
2768.1	0.001481
2777.74	0.001571
2787.39	0.001571
2797.03	0.001551
2806.68	0.001511
2816.32	0.001541
2825.97	0.001821
2835.61	0.002161
2845.26	0.002601
2854.9	0.003031
2864.55	0.003771
2874.19	0.004701
2883.84	0.004901
2893.48	0.004521
2903.12	0.004321
2912.77	0.004741
2922.41	0.006431
2932.06	0.009591
2941.7	0.008701
2951.35	0.005341
2960.99	0.003871
2970.64	0.003401
2980.28	0.003481
2989.93	0.003861
2999.57	0.004711
3009.22	0.005441
3018.86	0.005161
3028.51	0.006731
3038.15	0.010561
3047.8	0.009121
3057.44	0.006421
3067.09	0.005641
3076.73	0.004621
3086.38	0.003741
3096.02	0.003371
3105.67	0.002201
3115.31	0.0014295
3124.95	0.0012212
3134.6	0.0007245
3144.24	0.0006415
3153.89	0.0003815
3163.53	0.0004266
3173.18	0.000122
3182.82	0.000341
3192.47	0.000248
3202.11	0.000323
3211.76	0.000171
3221.4	0.000246
3231.05	0.000329
3240.69	0.000267
3250.34	0.000111
3259.98	0.000209
3269.63	0.000291
3279.27	0.00018
3288.92	0.000303
3298.56	0.000109
3308.21	0.000172
3317.85	0.00029
3327.49	0.000348
3337.14	0.000333
3346.78	0.0004042
3356.43	0.0004218
3366.07	0.000316
3375.72	0.00032
3385.36	0.00054025
3395.01	0.0006737
3404.65	0.0008973
3414.3	0.0013973
3423.94	0.001631
3433.59	0.001651
3443.23	0.0012657
3452.88	0.0010663
3462.52	0.0008566
3472.17	0.0007432
3481.81	0.00046124
3491.46	0.000234
3501.1	0.0004002
3510.75	0.000218
3520.39	0.000223
3530.04	0.000142
3539.68	0.00019
3549.32	0.000343
3558.97	5e-05
3568.61	0.0001
3578.26	0.00014
3587.9	0
3597.55	0.000161
3607.19	0.00035
3616.84	0.000101
3626.48	0.000192
3636.13	0.0003842
3645.77	0.000226
3655.42	0.000281
3665.06	0.000344
3674.71	0.000335
3684.35	0.000319
3694	0.000335
3703.64	0.000315
3713.29	0.000336
3722.93	0.0003908
3732.58	0.00031
3742.22	0.000294
3751.86	0.000345
3761.51	0.0003796
3771.15	0.000453031
3780.8	0.000333
3790.44	0.0003607
3800.09	0.0006734
3809.73	0.000737
3819.38	0.0008648
3829.02	0.0009566
3838.67	0.0009165
3848.31	0.0011276
3857.96	0.0011303
3867.6	0.0013425
3877.25	0.0013701
3886.89	0.001481
3896.54	0.0013275
3906.18	0.0014096
3915.83	0.001541
3925.47	0.001338
3935.12	0.001551
3944.76	0.001481
3954.41	0.001721
3964.05	0.001861
3973.69	0.001691
3983.34	0.0012607
3992.98	0.0014039
