Infrared Spectrum: o-METHYL,o-(2,4,5,-TRICHLOROPHENYL)-TERT-BUTYL PHOSPHORAMIDOTHIOATE
Formula: C11 H15 Cl3 N O2 P S
CAS: 16805-76-8
State: SOLUTION (10% IN CCl4 FOR 3800-1330, 10% IN CS2 FOR 1330-450 CM^-^1)
Class: COBLENTZ
Instrument: Not specified, most likely a prism, grating, or hybrid spectrometer.
Sampling: TRANSMISSION
Path length: 0.01 AND 0.01 CM
Resolution: 4
Origin: DOW CHEMICAL COMPANY
1/CM	TRANSMITTANCE
450.063	0.709
458.543	0.712
467.023	0.713
475.503	0.73
483.983	0.731
492.463	0.805
500.942	0.839
509.422	0.842
517.902	0.843
526.382	0.837
534.862	0.772
543.342	0.766
551.822	0.784
560.302	0.734
568.782	0.8019
577.262	0.918
585.741	0.918
594.221	0.936
602.701	0.93
611.181	0.911
619.661	0.815
628.141	0.823
636.621	0.845
645.101	0.7181
653.581	0.542
662.061	0.671
670.541	0.699
679.02	0.2371
687.5	0.37
695.98	0.764
704.46	0.668
712.94	0.3051
721.42	0.25
729.9	0.3508
738.38	0.777
746.86	0.809
755.34	0.834
763.819	0.855
772.299	0.852
780.779	0.814
789.259	0.735
797.739	0.5751
806.219	0.0974
814.699	0.082
823.179	0.016
831.659	0.047
840.139	0.05
848.619	0.129
857.098	0.182
865.578	0.095
874.058	0.075
882.538	0.1009
891.018	0.6348
899.498	0.806
907.978	0.858
916.458	0.837
924.938	0.815
933.418	0.802
941.897	0.662
950.377	0.182
958.857	0.026
967.337	0.4107
975.817	0.7529
984.297	0.812
992.777	0.806
1001.26	0.768
1009.74	0.671
1018.22	0.417
1026.7	0.025
1035.18	0.008
1043.66	0.001
1052.14	0.016
1060.62	0.1778
1069.1	0.4659
1077.58	0.4351
1086.06	0.042
1094.54	0.671
1103.02	0.775
1111.5	0.758
1119.98	0.604
1128.46	0.2341
1136.94	0.5848
1145.42	0.789
1153.9	0.815
1162.38	0.812
1170.85	0.764
1179.33	0.561
1187.81	0.529
1196.29	0.457
1204.77	0.401
1213.25	0.48
1221.73	0.0822
1230.21	0.101
1238.69	0.348
1247.17	0.205
1255.65	0.219
1264.13	0.576
1272.61	0.665
1281.09	0.839
1289.57	0.884
1298.05	0.89
1306.53	0.887
1315.01	0.887
1323.49	0.886
1331.97	0.867
1340.45	0.734
1348.93	0.19
1357.41	0.466
1365.89	0.595
1374.37	0.352
1382.85	0.051
1391.33	0.3458
1399.81	0.727
1408.29	0.672
1416.77	0.778
1425.25	0.805
1433.73	0.781
1442.21	0.61
1450.69	0.296
1459.17	0.005
1467.65	0.0501
1476.13	0.233
1484.61	0.3199
1493.09	0.489
1501.57	0.635
1510.05	0.681
1518.53	0.669
1527.01	0.646
1535.49	0.572
1543.97	0.469
1552.45	0.432
1560.93	0.498
1569.41	0.584
1577.89	0.536
1586.37	0.4969
1594.85	0.741
1603.33	0.848
1611.81	0.914
1620.29	0.945
1628.77	0.966
1637.25	0.982
1645.73	0.992
1654.21	0.982
1662.69	0.969
1671.17	0.961
1679.65	0.954
1688.13	0.96
1696.61	0.963
1705.09	0.966
1713.57	0.963
1722.05	0.948
1730.53	0.945
1739.01	0.943
1747.49	0.955
1755.97	0.969
1764.45	0.97
1772.93	0.973
1781.41	0.976
1789.89	0.976
1798.37	0.973
1806.85	0.969
1815.33	0.97
1823.81	0.977
1832.29	0.974
1840.77	0.97
1849.25	0.964
1857.73	0.96
1866.21	0.961
1874.69	0.964
1883.17	0.976
1891.65	0.974
1900.13	0.973
1908.61	0.976
1917.09	0.98
1925.57	0.986
1934.05	0.986
1942.53	0.985
1951.01	0.989
1959.49	0.986
1967.97	0.98
1976.45	0.979
1984.93	0.982
1993.41	0.98
2001.89	0.969
2010.37	0.972
2018.85	0.976
2027.33	0.982
2035.81	0.977
2044.29	0.973
2052.77	0.973
2061.24	0.97
2069.72	0.9711
2078.2	0.9721
2086.68	0.971
2095.16	0.971
2103.64	0.976
2112.12	0.979
2120.6	0.98
2129.08	0.98
2137.56	0.979
2146.04	0.979
2154.52	0.98
2163	0.98
2171.48	0.9788
2179.96	0.977
2188.44	0.977
2196.92	0.977
2205.4	0.979
2213.88	0.979
2222.36	0.977
2230.84	0.977
2239.32	0.9758
2247.8	0.974
2256.28	0.97
2264.76	0.966
2273.24	0.9598
2281.72	0.954
2290.2	0.951
2298.68	0.952
2307.16	0.9553
2315.64	0.9606
2324.12	0.9661
2332.6	0.9736
2341.08	0.974
2349.56	0.976
2358.04	0.9787
2366.52	0.9783
2375	0.982
2383.48	0.9763
2391.96	0.976
2400.44	0.976
2408.92	0.976
2417.4	0.9767
2425.88	0.979
2434.36	0.979
2442.84	0.977
2451.32	0.977
2459.8	0.977
2468.28	0.976
2476.76	0.976
2485.24	0.976
2493.72	0.977
2502.2	0.979
2510.68	0.977
2519.16	0.979
2527.64	0.979
2536.12	0.979
2544.6	0.9822
2553.08	0.9823
2561.56	0.98
2570.04	0.9775
2578.52	0.9755
2587	0.97
2595.48	0.971
2603.96	0.9785
2612.44	0.98
2620.92	0.982
2629.4	0.98
2637.88	0.983
2646.36	0.985
2654.84	0.983
2663.32	0.98
2671.8	0.979
2680.28	0.977
2688.76	0.977
2697.24	0.977
2705.72	0.977
2714.2	0.976
2722.68	0.977
2731.16	0.977
2739.64	0.9762
2748.12	0.976
2756.6	0.974
2765.08	0.971
2773.56	0.9632
2782.04	0.9623
2790.52	0.9554
2799	0.9426
2807.48	0.941
2815.96	0.942
2824.44	0.9381
2832.92	0.9144
2841.4	0.8223
2849.88	0.8372
2858.36	0.8746
2866.84	0.8074
2875.32	0.8017
2883.8	0.812
2892.28	0.7963
2900.76	0.7599
2909.24	0.7045
2917.72	0.7304
2926.2	0.7336
2934.68	0.6581
2943.16	0.5715
2951.63	0.415
2960.11	0.5221
2968.59	0.3746
2977.07	0.3281
2985.55	0.3932
2994.03	0.5368
3002.51	0.7333
3010.99	0.8263
3019.47	0.8449
3027.95	0.8896
3036.43	0.9358
3044.91	0.958
3053.39	0.958
3061.87	0.954
3070.35	0.951
3078.83	0.948
3087.31	0.9386
3095.79	0.8551
3104.27	0.9182
3112.75	0.974
3121.23	0.9855
3129.71	0.991
3138.19	0.995
3146.67	0.997
3155.15	0.995
3163.63	0.997
3172.11	0.996
3180.59	0.995
3189.07	0.994
3197.55	0.992
3206.03	0.989
3214.51	0.983
3222.99	0.9765
3231.47	0.9699
3239.95	0.9588
3248.43	0.9479
3256.91	0.9363
3265.39	0.9209
3273.87	0.9088
3282.35	0.901
3290.83	0.901
3299.31	0.9041
3307.79	0.9116
3316.27	0.9212
3324.75	0.9326
3333.23	0.9423
3341.71	0.951
3350.19	0.951
3358.67	0.9468
3367.15	0.9416
3375.63	0.9143
3384.11	0.8666
3392.59	0.7646
3401.07	0.5094
3409.55	0.575
3418.03	0.8266
3426.51	0.9559
3434.99	0.9983
3443.47	1.0033
3451.95	1.007
3460.43	1.0076
3468.91	1.007
3477.39	1.007
3485.87	1.007
3494.35	1.005
3502.83	1.004
3511.31	1.0027
3519.79	1.001
3528.27	1.001
3536.75	1.001
3545.23	1.0034
3553.71	1.005
3562.19	1.005
3570.67	1.005
3579.15	1.005
3587.63	1.0042
3596.11	1.007
3604.59	1.005
3613.07	1.004
3621.55	1.005
3630.03	1.005
3638.51	1.002
3646.99	1.0013
3655.47	1.0012
3663.95	1.002
3672.43	1.002
3680.91	1.002
3689.39	1.001
3697.87	1
3706.35	1.002
3714.83	1.0012
3723.31	1.001
3731.79	1.001
3740.27	1
3748.75	1.0018
3757.23	1.001
3765.71	0.998
3774.19	0.997
3782.67	0.995
