Infrared Spectrum: 6-Methyl-1,2,3,4-tetrahydronaphthalene
Formula: C 11 H 14
CAS: 1680-51-9
State: gas
Origin: EPA-IR VAPOR PHASE LIBRARY
1/CM	ABSORBANCE
551.7	0.00757
563.274	0.004
574.848	0.00199
586.421	0.00136
597.995	0.0012
609.569	0.00107
621.143	0.0009071
632.717	0.0005572
644.291	0.000496
655.864	0.0004751
667.438	0.000936
679.012	0.00164
690.586	0.00295
702.16	0.0034
713.734	0.00223
725.307	0.00193
736.881	0.00237
748.455	0.00257
760.029	0.00345
771.603	0.00722
783.177	0.02594
794.75	0.06713
806.324	0.07547
817.898	0.04881
829.472	0.02609
841.046	0.01122
852.619	0.00961
864.193	0.01219
875.767	0.01187
887.341	0.00983
898.915	0.0121
910.489	0.01109
922.062	0.00722
933.636	0.0073
945.21	0.00828
956.784	0.00568
968.358	0.00472
979.932	0.00706
991.505	0.00839
1003.08	0.00712
1014.65	0.00463
1026.23	0.00403
1037.8	0.00529
1049.37	0.00631
1060.95	0.00644
1072.52	0.00516
1084.1	0.00356
1095.67	0.00333
1107.24	0.0045
1118.82	0.0068
1130.39	0.00914
1141.97	0.01157
1153.54	0.0102
1165.11	0.00547
1176.69	0.00315
1188.26	0.00402
1199.83	0.007
1211.41	0.00712
1222.98	0.0066
1234.56	0.01044
1246.13	0.01865
1257.7	0.01345
1269.28	0.01123
1280.85	0.01704
1292.42	0.01503
1304	0.00788
1315.57	0.007
1327.15	0.00943
1338.72	0.01466
1350.29	0.02225
1361.87	0.01575
1373.44	0.00995
1385.02	0.01148
1396.59	0.01137
1408.16	0.01529
1419.74	0.02318
1431.31	0.03525
1442.88	0.05101
1454.46	0.0559
1466.03	0.04234
1477.61	0.03262
1489.18	0.05642
1500.75	0.10962
1512.33	0.07696
1523.9	0.02248
1535.48	0.01496
1547.05	0.01236
1558.62	0.01146
1570.2	0.01241
1581.77	0.0125
1593.34	0.01241
1604.92	0.01816
1616.49	0.02278
1628.07	0.01109
1639.64	0.00398
1651.21	0.00295
1662.79	0.00309
1674.36	0.00336
1685.93	0.003
1697.51	0.00244
1709.08	0.00206
1720.66	0.00269
1732.23	0.00542
1743.8	0.00753
1755.38	0.00492
1766.95	0.00306
1778.53	0.00268
1790.1	0.00206
1801.67	0.00204
1813.25	0.00305
1824.82	0.00321
1836.39	0.00278
1847.97	0.00353
1859.54	0.00373
1871.12	0.00356
1882.69	0.0052
1894.26	0.006
1905.84	0.00349
1917.41	0.00167
1928.99	0.00144
1940.56	0.00126
1952.13	0.0009685
1963.71	0.0007915
1975.28	0.0008082
1986.85	0.0009273
1998.43	0.0009801
2010	0.0009154
2021.58	0.000796
2033.15	0.0006338
2044.72	0.0005732
2056.3	0.0006485
2067.87	0.0007347
2079.44	0.0008193
2091.02	0.0009074
2102.59	0.0006984
2114.17	0.0005295
2125.74	0.0005098
2137.31	0.000681
2148.89	0.000737
2160.46	0.0008018
2172.04	0.0009139
2183.61	0.0009997
2195.18	0.0009434
2206.76	0.0009144
2218.33	0.00106
2229.9	0.00125
2241.48	0.00134
2253.05	0.00134
2264.63	0.00141
2276.2	0.00161
2287.77	0.00162
2299.35	0.00161
2310.92	0.00177
2322.5	0.00209
2334.07	0.00179
2345.64	0.00134
2357.22	0.00124
2368.79	0.00148
2380.36	0.00169
2391.94	0.00182
2403.51	0.00174
2415.09	0.00162
2426.66	0.00156
2438.23	0.0016
2449.81	0.00157
2461.38	0.00148
2472.96	0.00171
2484.53	0.00167
2496.1	0.00166
2507.68	0.00184
2519.25	0.00184
2530.82	0.00181
2542.4	0.00159
2553.97	0.00148
2565.55	0.0018
2577.12	0.00209
2588.69	0.00236
2600.27	0.00259
2611.84	0.00266
2623.41	0.00276
2634.99	0.00319
2646.56	0.00445
2658.14	0.00687
2669.71	0.00735
2681.28	0.00575
2692.86	0.00448
2704.43	0.00389
2716.01	0.00396
2727.58	0.00557
2739.15	0.00832
2750.73	0.00778
2762.3	0.00743
2773.87	0.00884
2785.45	0.0108
2797.02	0.0138
2808.6	0.01801
2820.17	0.02468
2831.74	0.0448
2843.32	0.09818
2854.89	0.15397
2866.47	0.20292
2878.04	0.1882
2889.61	0.15707
2901.19	0.16626
2912.76	0.225
2924.33	0.39991
2935.91	0.58311
2947.48	0.51845
2959.06	0.21732
2970.63	0.08353
2982.2	0.07205
2993.78	0.10318
3005.35	0.1399
3016.92	0.12586
3028.5	0.08753
3040.07	0.08038
3051.65	0.07786
3063.22	0.04857
3074.79	0.02833
3086.37	0.01784
3097.94	0.01175
3109.52	0.01046
3121.09	0.00985
3132.66	0.00691
3144.24	0.00391
3155.81	0.00285
3167.38	0.00218
3178.96	0.00202
3190.53	0.00196
3202.11	0.00191
3213.68	0.0021
3225.25	0.00212
3236.83	0.00202
3248.4	0.00149
3259.98	0.0012
3271.55	0.0009473
3283.12	0.0007107
3294.7	0.0006482
3306.27	0.0006533
3317.84	0.0007451
3329.42	0.0007886
3340.99	0.0008691
3352.57	0.00101
3364.14	0.00101
3375.71	0.0009394
3387.29	0.0006644
3398.86	0.0006397
3410.43	0.00055
3422.01	0.0006629
3433.58	0.0006508
3445.16	0.0008213
3456.73	0.0009155
3468.3	0.0007461
3479.88	0.0007253
3491.45	0.0005516
3503.03	0.0003725
3514.6	0.0004413
3526.17	0.0004645
3537.75	0.0007254
3549.32	0.0005514
3560.89	0.0004344
3572.47	0.0003837
3584.04	0.0003271
3595.62	0.0003804
3607.19	0.0004934
3618.76	0.0005085
3630.34	0.000454
3641.91	0.0006085
3653.49	0.0005212
3665.06	0.0005127
3676.63	0.0004559
3688.21	0.0006493
3699.78	0.0008145
3711.35	0.0009902
3722.93	0.00143
3734.5	0.00169
3746.08	0.00152
3757.65	0.00134
3769.22	0.00124
3780.8	0.00108
3792.37	0.00123
3803.94	0.00132
3815.52	0.00131
3827.09	0.00125
3838.67	0.00139
3850.24	0.0015
3861.81	0.0014
3873.39	0.00139
3884.96	0.00139
3896.54	0.00121
3908.11	0.0014
3919.68	0.00156
3931.26	0.00175
3942.83	0.00161
3954.4	0.00153
3965.98	0.00156
3977.55	0.0018
3989.13	0.00199
4000.7	0.00225
