Infrared Spectrum: HYDROURACIL, 1-NITROSO-
Formula: C4 H5 N3 O3
CAS: 16813-36-8
State: SOLID (1 mg / 650 mg KBr DISC)
Class: COBLENTZ III
Instrument: PERKIN-ELMER 521 (GRATING)
Instrument parameters: FILTERS AT 3150, 2500, 2000, 1150, 700, 410 CM ^-^1, GRATING CHANGES AT 2000, 630 CM^-^1
Sampling: TRANSMISSION
Resolution: 4
Origin: SOUTHERN RES. INSTITUTE
1/CM	TRANSMITTANCE
221.374	0.191
230.534	0.209
239.695	0.239
248.855	0.29
258.015	0.36
267.176	0.442
276.336	0.496
285.496	0.548
294.657	0.6
303.817	0.637
312.977	0.647
322.137	0.666
331.298	0.702
340.458	0.72
349.618	0.716
358.779	0.673
367.939	0.702
377.099	0.773
386.26	0.781
395.42	0.784
404.58	0.782
413.741	0.735
422.901	0.61
432.061	0.593
441.222	0.778
450.382	0.827
459.542	0.836
468.702	0.839
477.863	0.838
487.023	0.844
496.183	0.846
505.344	0.841
514.504	0.743
523.664	0.735
532.825	0.836
541.985	0.844
551.145	0.842
560.306	0.841
569.466	0.839
578.626	0.809
587.787	0.713
596.947	0.815
606.107	0.849
615.267	0.848
624.428	0.836
633.588	0.83
642.748	0.808
651.909	0.638
661.069	0.711
670.229	0.836
679.39	0.848
688.55	0.833
697.71	0.813
706.871	0.724
716.031	0.817
725.191	0.813
734.352	0.713
743.512	0.539
752.672	0.751
761.832	0.77
770.993	0.715
780.153	0.594
789.313	0.735
798.474	0.64
807.634	0.534
816.794	0.556
825.955	0.679
835.115	0.688
844.275	0.729
853.436	0.763
862.596	0.803
871.756	0.831
880.917	0.84
890.077	0.84
899.237	0.836
908.398	0.819
917.558	0.798
926.718	0.747
935.878	0.649
945.039	0.569
954.199	0.792
963.359	0.775
972.52	0.71
981.68	0.518
990.84	0.333
1000	0.34
1009.16	0.664
1018.32	0.755
1027.48	0.563
1036.64	0.427
1045.8	0.773
1054.96	0.754
1064.12	0.496
1073.28	0.316
1082.44	0.43
1091.6	0.585
1100.76	0.754
1109.92	0.814
1119.08	0.822
1128.25	0.82
1137.41	0.81
1146.57	0.791
1155.73	0.767
1164.89	0.724
1174.05	0.613
1183.21	0.441
1192.37	0.295
1201.53	0.194
1210.69	0.269
1219.85	0.352
1229.01	0.521
1238.17	0.466
1247.33	0.582
1256.49	0.772
1265.65	0.811
1274.81	0.701
1283.97	0.436
1293.13	0.538
1302.29	0.666
1311.45	0.716
1320.61	0.572
1329.77	0.522
1338.93	0.769
1348.09	0.664
1357.25	0.349
1366.41	0.377
1375.57	0.534
1384.73	0.301
1393.89	0.267
1403.05	0.419
1412.21	0.589
1421.38	0.681
1430.54	0.767
1439.7	0.785
1448.86	0.752
1458.02	0.626
1467.18	0.485
1476.34	0.652
1485.5	0.783
1494.66	0.816
1503.82	0.811
1512.98	0.748
1522.14	0.67
1531.3	0.731
1540.46	0.82
1549.62	0.842
1558.78	0.844
1567.94	0.829
1577.1	0.821
1586.26	0.818
1595.42	0.806
1604.58	0.767
1613.74	0.767
1622.9	0.778
1632.06	0.77
1641.22	0.749
1650.38	0.717
1659.54	0.684
1668.7	0.639
1677.86	0.579
1687.02	0.422
1696.18	0.273
1705.34	0.163
1714.51	0.195
1723.67	0.292
1732.83	0.357
1741.99	0.227
1751.15	0.177
1760.31	0.308
1769.47	0.43
1778.63	0.588
1787.79	0.704
1796.95	0.751
1806.11	0.769
1815.27	0.783
1824.43	0.807
1833.59	0.823
1842.75	0.833
1851.91	0.842
1861.07	0.847
1870.23	0.844
1879.39	0.843
1888.55	0.854
1897.71	0.863
1906.87	0.864
1916.03	0.864
1925.19	0.867
1934.35	0.869
1943.51	0.869
1952.67	0.872
1961.83	0.874
1970.99	0.874
1980.15	0.875
1989.31	0.876
1998.47	0.876
2007.64	0.874
2016.8	0.873
2025.96	0.873
2035.12	0.873
2044.28	0.871
2053.44	0.872
2062.6	0.874
2071.76	0.874
2080.92	0.874
2090.08	0.874
2099.24	0.875
2108.4	0.875
2117.56	0.875
2126.72	0.875
2135.88	0.875
2145.04	0.875
2154.2	0.875
2163.36	0.875
2172.52	0.875
2181.68	0.875
2190.84	0.874
2200	0.874
2209.16	0.873
2218.32	0.871
2227.48	0.871
2236.64	0.871
2245.8	0.871
2254.96	0.871
2264.12	0.871
2273.28	0.871
2282.44	0.871
2291.6	0.871
2300.77	0.87
2309.93	0.868
2319.09	0.864
2328.25	0.864
2337.41	0.863
2346.57	0.861
2355.73	0.861
2364.89	0.861
2374.05	0.862
2383.21	0.863
2392.37	0.864
2401.53	0.867
2410.69	0.867
2419.85	0.867
2429.01	0.865
2438.17	0.864
2447.33	0.862
2456.49	0.862
2465.65	0.863
2474.81	0.864
2483.97	0.864
2493.13	0.863
2502.29	0.86
2511.45	0.86
2520.61	0.86
2529.77	0.859
2538.93	0.858
2548.09	0.857
2557.25	0.856
2566.41	0.855
2575.57	0.855
2584.73	0.854
2593.9	0.854
2603.06	0.852
2612.22	0.852
2621.38	0.85
2630.54	0.851
2639.7	0.852
2648.86	0.852
2658.02	0.852
2667.18	0.852
2676.34	0.851
2685.5	0.849
2694.66	0.847
2703.82	0.845
2712.98	0.844
2722.14	0.842
2731.3	0.84
2740.46	0.838
2749.62	0.836
2758.78	0.833
2767.94	0.829
2777.1	0.826
2786.26	0.823
2795.42	0.813
2804.58	0.803
2813.74	0.788
2822.9	0.768
2832.06	0.741
2841.22	0.701
2850.38	0.677
2859.54	0.665
2868.7	0.679
2877.86	0.712
2887.03	0.736
2896.19	0.748
2905.35	0.734
2914.51	0.695
2923.67	0.719
2932.83	0.745
2941.99	0.743
2951.15	0.741
2960.31	0.738
2969.47	0.733
2978.63	0.722
2987.79	0.713
2996.95	0.707
3006.11	0.694
3015.27	0.675
3024.43	0.65
3033.59	0.641
3042.75	0.616
3051.91	0.588
3061.07	0.552
3070.23	0.51
3079.39	0.468
3088.55	0.434
3097.71	0.428
3106.87	0.443
3116.03	0.474
3125.19	0.519
3134.35	0.556
3143.51	0.577
3152.67	0.577
3161.83	0.562
3170.99	0.554
3180.16	0.551
3189.32	0.55
3198.48	0.548
3207.64	0.55
3216.8	0.559
3225.96	0.588
3235.12	0.625
3244.28	0.678
3253.44	0.708
3262.6	0.729
3271.76	0.75
3280.92	0.764
3290.08	0.774
3299.24	0.781
3308.4	0.788
3317.56	0.792
3326.72	0.795
3335.88	0.797
3345.04	0.795
3354.2	0.792
3363.36	0.789
3372.52	0.786
3381.68	0.783
3390.84	0.779
3400	0.776
3409.16	0.773
3418.32	0.773
3427.48	0.771
3436.64	0.771
3445.8	0.773
3454.96	0.773
3464.12	0.776
3473.29	0.777
3482.45	0.781
3491.61	0.784
3500.77	0.789
3509.93	0.793
3519.09	0.798
3528.25	0.804
3537.41	0.808
3546.57	0.812
3555.73	0.817
3564.89	0.82
3574.05	0.824
3583.21	0.828
3592.37	0.832
3601.53	0.838
3610.69	0.842
3619.85	0.845
3629.01	0.847
3638.17	0.85
3647.33	0.852
3656.49	0.852
3665.65	0.851
3674.81	0.85
3683.97	0.852
3693.13	0.853
3702.29	0.855
3711.45	0.855
3720.61	0.854
3729.77	0.853
3738.93	0.852
3748.09	0.852
3757.25	0.853
3766.42	0.854
3775.58	0.854
3784.74	0.854
3793.9	0.854
3803.06	0.853
