Infrared Spectrum: 1-IMIDAZOLIDINECARBOXAMIDE, N-(2-CHLOROETHYL)-3-NITROSO-2-OXO-
Formula: C6 H9 Cl N4 O3
CAS: 16813-34-6
State: SOLID (1 mg / 650 mg KBr DISC)
Class: COBLENTZ III
Instrument: PERKIN-ELMER 521 (GRATING)
Instrument parameters: FILTERS AT 3150, 2500, 2000, 1150, 700, 410 CM ^-^1, GRATING CHANGES AT 2000, 630 CM ^-^1
Sampling: TRANSMISSION
Resolution: 4
Origin: SOUTHERN RES. INSTITUTE
1/CM	TRANSMITTANCE
244.237	0.255
253.39	0.29
262.542	0.36
271.695	0.4169
280.847	0.477
290	0.531
299.152	0.583
308.305	0.606
317.457	0.61
326.61	0.613
335.762	0.654
344.915	0.705
354.067	0.72
363.22	0.75
372.373	0.771
381.525	0.784
390.678	0.798
399.83	0.803
408.983	0.804
418.135	0.803
427.288	0.796
436.44	0.791
445.593	0.809
454.745	0.818
463.898	0.825
473.051	0.825
482.203	0.819
491.356	0.803
500.508	0.783
509.661	0.825
518.813	0.829
527.966	0.827
537.118	0.823
546.271	0.818
555.423	0.811
564.576	0.809
573.728	0.802
582.881	0.79
592.034	0.781
601.186	0.762
610.339	0.73
619.491	0.705
628.644	0.638
637.796	0.5342
646.949	0.505
656.101	0.692
665.254	0.7869
674.406	0.807
683.559	0.816
692.712	0.81
701.864	0.781
711.017	0.746
720.169	0.756
729.322	0.7291
738.474	0.4453
747.627	0.58
756.779	0.6929
765.932	0.81
775.084	0.841
784.237	0.843
793.389	0.845
802.542	0.835
811.695	0.796
820.847	0.6682
830	0.7729
839.152	0.855
848.305	0.854
857.457	0.853
866.61	0.849
875.762	0.849
884.915	0.846
894.067	0.843
903.22	0.825
912.372	0.8011
921.525	0.8059
930.678	0.831
939.83	0.826
948.983	0.813
958.135	0.808
967.288	0.797
976.44	0.795
985.593	0.779
994.745	0.753
1003.9	0.7359
1013.05	0.778
1022.2	0.768
1031.36	0.754
1040.51	0.738
1049.66	0.6781
1058.81	0.6289
1067.97	0.699
1077.12	0.678
1086.27	0.661
1095.42	0.645
1104.58	0.62
1113.73	0.579
1122.88	0.5221
1132.03	0.441
1141.19	0.3701
1150.34	0.354
1159.49	0.405
1168.64	0.3971
1177.8	0.284
1186.95	0.3249
1196.1	0.409
1205.25	0.364
1214.41	0.3699
1223.56	0.431
1232.71	0.5209
1241.86	0.588
1251.02	0.616
1260.17	0.667
1269.32	0.68
1278.47	0.6521
1287.63	0.618
1296.78	0.656
1305.93	0.721
1315.08	0.708
1324.24	0.762
1333.39	0.766
1342.54	0.641
1351.69	0.542
1360.85	0.664
1370	0.672
1379.15	0.4812
1388.3	0.286
1397.46	0.316
1406.61	0.598
1415.76	0.696
1424.91	0.721
1434.07	0.635
1443.22	0.6648
1452.37	0.751
1461.52	0.6091
1470.68	0.608
1479.83	0.667
1488.98	0.709
1498.14	0.718
1507.29	0.733
1516.44	0.693
1525.59	0.613
1534.75	0.4911
1543.9	0.357
1553.05	0.3599
1562.2	0.484
1571.36	0.62
1580.51	0.697
1589.66	0.739
1598.81	0.75
1607.97	0.757
1617.12	0.762
1626.27	0.777
1635.42	0.786
1644.58	0.8
1653.73	0.787
1662.88	0.783
1672.03	0.768
1681.19	0.708
1690.34	0.5792
1699.49	0.2863
1708.64	0.3171
1717.8	0.5489
1726.95	0.613
1736.1	0.5631
1745.25	0.26
1754.41	0.199
1763.56	0.265
1772.71	0.425
1781.86	0.5499
1791.02	0.63
1800.17	0.678
1809.32	0.713
1818.47	0.737
1827.63	0.754
1836.78	0.775
1845.93	0.79
1855.08	0.803
1864.24	0.809
1873.39	0.819
1882.54	0.826
1891.69	0.83
1900.85	0.834
1910	0.836
1919.15	0.839
1928.3	0.844
1937.46	0.848
1946.61	0.851
1955.76	0.853
1964.91	0.853
1974.07	0.853
1983.22	0.854
1992.37	0.854
2001.52	0.855
2010.68	0.855
2019.83	0.857
2028.98	0.858
2038.14	0.86
2047.29	0.861
2056.44	0.862
2065.59	0.863
2074.75	0.863
2083.9	0.863
2093.05	0.863
2102.2	0.864
2111.36	0.864
2120.51	0.864
2129.66	0.866
2138.81	0.867
2147.97	0.867
2157.12	0.867
2166.27	0.867
2175.42	0.866
2184.58	0.866
2193.73	0.867
2202.88	0.867
2212.03	0.866
2221.19	0.867
2230.34	0.867
2239.49	0.8677
2248.64	0.868
2257.8	0.868
2266.95	0.868
2276.1	0.868
2285.25	0.867
2294.41	0.865
2303.56	0.863
2312.71	0.863
2321.86	0.861
2331.02	0.863
2340.17	0.863
2349.32	0.8636
2358.47	0.866
2367.63	0.867
2376.78	0.868
2385.93	0.868
2395.08	0.867
2404.24	0.866
2413.39	0.866
2422.54	0.866
2431.69	0.866
2440.85	0.864
2450	0.863
2459.15	0.863
2468.3	0.863
2477.46	0.863
2486.61	0.862
2495.76	0.862
2504.91	0.862
2514.07	0.862
2523.22	0.862
2532.37	0.862
2541.52	0.862
2550.68	0.862
2559.83	0.8624
2568.98	0.863
2578.13	0.863
2587.29	0.863
2596.44	0.863
2605.59	0.864
2614.75	0.865
2623.9	0.865
2633.05	0.866
2642.2	0.864
2651.36	0.864
2660.51	0.864
2669.66	0.863
2678.81	0.865
2687.97	0.8658
2697.12	0.863
2706.27	0.8632
2715.42	0.866
2724.58	0.867
2733.73	0.866
2742.88	0.864
2752.03	0.8628
2761.19	0.862
2770.34	0.863
2779.49	0.864
2788.64	0.863
2797.8	0.86
2806.95	0.859
2816.1	0.8579
2825.25	0.8559
2834.41	0.8519
2843.56	0.8387
2852.71	0.832
2861.86	0.83
2871.02	0.8331
2880.17	0.835
2889.32	0.832
2898.47	0.827
2907.63	0.813
2916.78	0.7961
2925.93	0.781
2935.08	0.785
2944.24	0.8028
2953.39	0.805
2962.54	0.7972
2971.69	0.787
2980.85	0.7957
2990	0.8049
2999.15	0.8317
3008.3	0.84
3017.46	0.8351
3026.61	0.8407
3035.76	0.847
3044.91	0.846
3054.07	0.847
3063.22	0.848
3072.37	0.849
3081.52	0.851
3090.68	0.851
3099.83	0.851
3108.98	0.85
3118.13	0.849
3127.29	0.848
3136.44	0.846
3145.59	0.844
3154.75	0.842
3163.9	0.841
3173.05	0.839
3182.2	0.838
3191.36	0.836
3200.51	0.8343
3209.66	0.8323
3218.81	0.8304
3227.97	0.8274
3237.12	0.8228
3246.27	0.8164
3255.42	0.8124
3264.58	0.8064
3273.73	0.7954
3282.88	0.7924
3292.03	0.7879
3301.19	0.7784
3310.34	0.7668
3319.49	0.7457
3328.64	0.6953
3337.8	0.5845
3346.95	0.4529
3356.1	0.441
3365.25	0.6472
3374.41	0.6974
3383.56	0.7284
3392.71	0.7425
3401.86	0.7583
3411.02	0.7674
3420.17	0.771
3429.32	0.773
3438.47	0.7754
3447.63	0.777
3456.78	0.778
3465.93	0.7804
3475.08	0.785
3484.24	0.787
3493.39	0.7847
3502.54	0.7883
3511.69	0.7946
3520.85	0.7993
3530	0.8066
3539.15	0.8146
3548.3	0.8193
3557.46	0.8223
3566.61	0.8253
3575.76	0.829
3584.91	0.832
3594.07	0.835
3603.22	0.838
3612.37	0.841
3621.52	0.8442
3630.68	0.848
3639.83	0.8512
3648.98	0.851
3658.13	0.8532
3667.29	0.8529
3676.44	0.85
3685.59	0.851
3694.74	0.854
3703.9	0.8561
3713.05	0.857
3722.2	0.857
3731.36	0.855
3740.51	0.8539
3749.66	0.843
3758.81	0.8542
3767.97	0.862
3777.12	0.863
3786.27	0.864
3795.42	0.862
