Infrared Spectrum: 1-IMIDAZOLIDINECARBOXAMIDE, N-(2-CHLOROETHYL)-2-OXO-
Formula: C6 H10 Cl N3 O2
CAS: 16813-33-5
State: SOLID (1 mg / 650 mg KBr DISC)
Class: COBLENTZ III
Instrument: PERKIN-ELMER 521 (GRATING)
Instrument parameters: FILTERS AT 3150, 2500, 2000, 1150, 700, 410 CM ^-^1, GRATING CHANGES AT 2000, 630 CM ^-^1
Sampling: TRANSMISSION
Resolution: 4
Origin: SOUTHERN RES. INSTITUTE
1/CM	TRANSMITTANCE
239.924	0.197
249.071	0.215
258.218	0.245
267.366	0.317
276.513	0.371
285.66	0.442
294.807	0.474
303.954	0.505
313.102	0.548
322.249	0.573
331.396	0.598
340.543	0.603
349.691	0.669
358.838	0.695
367.985	0.716
377.132	0.727
386.279	0.753
395.427	0.767
404.574	0.774
413.721	0.777
422.868	0.78
432.015	0.784
441.163	0.786
450.31	0.791
459.457	0.791
468.604	0.789
477.752	0.785
486.899	0.684
496.046	0.756
505.193	0.795
514.34	0.796
523.488	0.791
532.635	0.784
541.782	0.78
550.929	0.773
560.076	0.769
569.224	0.763
578.371	0.759
587.518	0.757
596.665	0.751
605.813	0.723
614.96	0.65
624.107	0.599
633.254	0.72
642.401	0.72
651.549	0.706
660.696	0.707
669.843	0.729
678.99	0.698
688.137	0.649
697.285	0.658
706.432	0.675
715.579	0.713
724.726	0.726
733.874	0.7
743.021	0.716
752.168	0.665
761.315	0.598
770.462	0.765
779.61	0.789
788.757	0.821
797.904	0.834
807.051	0.84
816.198	0.846
825.346	0.847
834.493	0.849
843.64	0.843
852.787	0.827
861.934	0.836
871.082	0.845
880.229	0.848
889.376	0.85
898.523	0.851
907.671	0.852
916.818	0.853
925.965	0.853
935.112	0.852
944.259	0.85
953.407	0.838
962.554	0.816
971.701	0.833
980.848	0.846
989.995	0.846
999.143	0.835
1008.29	0.826
1017.44	0.78
1026.58	0.805
1035.73	0.816
1044.88	0.803
1054.03	0.766
1063.17	0.764
1072.32	0.71
1081.47	0.765
1090.61	0.802
1099.76	0.824
1108.91	0.822
1118.06	0.815
1127.2	0.81
1136.35	0.797
1145.5	0.741
1154.65	0.643
1163.79	0.671
1172.94	0.707
1182.09	0.773
1191.23	0.783
1200.38	0.778
1209.53	0.777
1218.68	0.775
1227.82	0.768
1236.97	0.749
1246.12	0.731
1255.26	0.667
1264.41	0.613
1273.56	0.394
1282.71	0.589
1291.85	0.575
1301	0.605
1310.15	0.582
1319.3	0.576
1328.44	0.605
1337.59	0.65
1346.74	0.733
1355.88	0.748
1365.03	0.717
1374.18	0.704
1383.33	0.729
1392.47	0.7
1401.62	0.628
1410.77	0.55
1419.91	0.582
1429.06	0.504
1438.21	0.538
1447.36	0.543
1456.5	0.71
1465.65	0.753
1474.8	0.662
1483.94	0.434
1493.09	0.652
1502.24	0.751
1511.39	0.701
1520.53	0.611
1529.68	0.437
1538.83	0.18
1547.98	0.314
1557.12	0.481
1566.27	0.653
1575.42	0.722
1584.56	0.764
1593.71	0.779
1602.86	0.767
1612.01	0.754
1621.15	0.721
1630.3	0.589
1639.45	0.409
1648.59	0.353
1657.74	0.474
1666.89	0.658
1676.04	0.648
1685.18	0.628
1694.33	0.531
1703.48	0.212
1712.63	0.269
1721.77	0.203
1730.92	0.296
1740.07	0.562
1749.21	0.69
1758.36	0.748
1767.51	0.776
1776.66	0.794
1785.8	0.812
1794.95	0.823
1804.1	0.837
1813.24	0.841
1822.39	0.847
1831.54	0.851
1840.69	0.853
1849.83	0.855
1858.98	0.856
1868.13	0.858
1877.28	0.859
1886.42	0.86
1895.57	0.86
1904.72	0.862
1913.86	0.863
1923.01	0.864
1932.16	0.865
1941.31	0.866
1950.45	0.866
1959.6	0.866
1968.75	0.865
1977.89	0.864
1987.04	0.863
1996.19	0.862
2005.34	0.861
2014.48	0.86
2023.63	0.86
2032.78	0.86
2041.92	0.862
2051.07	0.863
2060.22	0.863
2069.37	0.863
2078.51	0.863
2087.66	0.863
2096.81	0.864
2105.96	0.864
2115.1	0.864
2124.25	0.864
2133.4	0.864
2142.54	0.865
2151.69	0.865
2160.84	0.865
2169.99	0.866
2179.13	0.866
2188.28	0.866
2197.43	0.866
2206.57	0.866
2215.72	0.866
2224.87	0.866
2234.02	0.866
2243.16	0.866
2252.31	0.867
2261.46	0.867
2270.61	0.866
2279.75	0.866
2288.9	0.866
2298.05	0.866
2307.19	0.866
2316.34	0.866
2325.49	0.865
2334.64	0.864
2343.78	0.863
2352.93	0.863
2362.08	0.864
2371.22	0.864
2380.37	0.865
2389.52	0.866
2398.67	0.866
2407.81	0.866
2416.96	0.866
2426.11	0.866
2435.26	0.865
2444.4	0.863
2453.55	0.862
2462.7	0.862
2471.84	0.862
2480.99	0.862
2490.14	0.861
2499.29	0.86
2508.43	0.86
2517.58	0.86
2526.73	0.86
2535.87	0.86
2545.02	0.859
2554.17	0.858
2563.32	0.858
2572.46	0.858
2581.61	0.857
2590.76	0.857
2599.9	0.857
2609.05	0.858
2618.2	0.859
2627.35	0.859
2636.49	0.859
2645.64	0.859
2654.79	0.858
2663.94	0.856
2673.08	0.856
2682.23	0.856
2691.38	0.856
2700.52	0.855
2709.67	0.855
2718.82	0.854
2727.97	0.853
2737.11	0.852
2746.26	0.851
2755.41	0.85
2764.55	0.85
2773.7	0.85
2782.85	0.849
2792	0.847
2801.14	0.843
2810.29	0.84
2819.44	0.838
2828.59	0.836
2837.73	0.831
2846.88	0.814
2856.03	0.808
2865.17	0.807
2874.32	0.809
2883.47	0.81
2892.62	0.801
2901.76	0.786
2910.91	0.755
2920.06	0.745
2929.2	0.759
2938.35	0.774
2947.5	0.778
2956.65	0.777
2965.79	0.752
2974.94	0.768
2984.09	0.783
2993.24	0.794
3002.38	0.807
3011.53	0.815
3020.68	0.82
3029.82	0.83
3038.97	0.823
3048.12	0.818
3057.27	0.816
3066.41	0.815
3075.56	0.812
3084.71	0.802
3093.85	0.798
3103	0.789
3112.15	0.773
3121.3	0.768
3130.44	0.75
3139.59	0.738
3148.74	0.729
3157.88	0.731
3167.03	0.73
3176.18	0.722
3185.33	0.709
3194.47	0.695
3203.62	0.668
3212.77	0.639
3221.92	0.61
3231.06	0.577
3240.21	0.567
3249.36	0.57
3258.5	0.577
3267.65	0.584
3276.8	0.585
3285.95	0.581
3295.09	0.515
3304.24	0.456
3313.39	0.503
3322.53	0.518
3331.68	0.547
3340.83	0.602
3349.98	0.643
3359.12	0.643
3368.27	0.637
3377.42	0.63
3386.57	0.624
3395.71	0.633
3404.86	0.654
3414.01	0.673
3423.15	0.679
3432.3	0.695
3441.45	0.708
3450.6	0.719
3459.74	0.728
3468.89	0.735
3478.04	0.741
3487.18	0.745
3496.33	0.752
3505.48	0.757
3514.63	0.761
3523.77	0.773
3532.92	0.778
3542.07	0.782
3551.22	0.789
3560.36	0.795
3569.51	0.801
3578.66	0.807
3587.8	0.81
3596.95	0.821
3606.1	0.824
3615.25	0.831
3624.39	0.835
3633.54	0.838
3642.69	0.841
3651.83	0.845
3660.98	0.848
3670.13	0.844
3679.28	0.843
3688.42	0.851
3697.57	0.854
3706.72	0.856
3715.86	0.856
3725.01	0.856
3734.16	0.851
3743.31	0.847
3752.45	0.847
3761.6	0.856
3770.75	0.856
3779.9	0.856
