Infrared Spectrum: PURINE, 2-CHLORO-
Formula: C5 H3 Cl N4
CAS: 1681-15-8
State: SOLID (0.8 mg / 650 mg KBr DISC)
Class: COBLENTZ III
Instrument: PERKIN-ELMER 21 (GRATING)
Instrument parameters: FILTER CHANGE ABOUT 1085 CM^-^1
Sampling: TRANSMISSION
Resolution: 4
Origin: SOUTHERN RESEARCH INSTITUTE
1/CM	TRANSMITTANCE
659.416	0.979
668.018	0.9641
676.62	0.9572
685.222	0.9422
693.825	0.9238
702.427	0.914
711.029	0.8952
719.631	0.8344
728.233	0.8341
736.835	0.867
745.437	0.875
754.04	0.8591
762.642	0.846
771.244	0.8136
779.846	0.7992
788.448	0.7779
797.05	0.52
805.652	0.6436
814.255	0.586
822.857	0.4724
831.459	0.5301
840.061	0.4894
848.663	0.5061
857.265	0.563
865.867	0.6607
874.47	0.7045
883.072	0.7157
891.674	0.7128
900.276	0.6913
908.878	0.6221
917.48	0.3563
926.082	0.1353
934.685	0.1052
943.287	0.398
951.889	0.3378
960.491	0.6512
969.093	0.7356
977.695	0.838
986.297	0.8379
994.9	0.836
1003.5	0.828
1012.1	0.8122
1020.71	0.8167
1029.31	0.819
1037.91	0.809
1046.51	0.7973
1055.11	0.791
1063.72	0.788
1072.32	0.7844
1080.92	0.766
1089.52	0.7605
1098.13	0.7514
1106.73	0.7114
1115.33	0.6057
1123.93	0.396
1132.53	0.432
1141.14	0.2812
1149.74	0.672
1158.34	0.6483
1166.94	0.5315
1175.54	0.6435
1184.15	0.6888
1192.75	0.6941
1201.35	0.6402
1209.95	0.5127
1218.56	0.4779
1227.16	0.3867
1235.76	0.5508
1244.36	0.5114
1252.96	0.173
1261.57	0.4356
1270.17	0.1383
1278.77	0.0177
1287.37	0.2248
1295.97	0.545
1304.58	0.6353
1313.18	0.6227
1321.78	0.7111
1330.38	0.6947
1338.99	0.6351
1347.59	0.5983
1356.19	0.5333
1364.79	0.169
1373.39	0.4214
1382	0.4541
1390.6	0.3321
1399.2	0.1527
1407.8	0.0592
1416.4	0.1065
1425.01	0.2449
1433.61	0.356
1442.21	0.2188
1450.81	0.1147
1459.42	0.2147
1468.02	0.6288
1476.62	0.3801
1485.22	0.115
1493.82	0.4015
1502.43	0.657
1511.03	0.65
1519.63	0.6266
1528.23	0.617
1536.83	0.6036
1545.44	0.5576
1554.04	0.5583
1562.64	0.3143
1571.24	0.121
1579.85	0.503
1588.45	0.6128
1597.05	0.6103
1605.65	0.4803
1614.25	0.1371
1622.86	0.5895
1631.46	0.6049
1640.06	0.5876
1648.66	0.5635
1657.26	0.5642
1665.87	0.5861
1674.47	0.613
1683.07	0.634
1691.67	0.6449
1700.28	0.6627
1708.88	0.6786
1717.48	0.6898
1726.08	0.7061
1734.68	0.7107
1743.29	0.722
1751.89	0.7336
1760.49	0.7425
1769.09	0.7404
1777.69	0.7448
1786.3	0.754
1794.9	0.7593
1803.5	0.766
1812.1	0.766
1820.71	0.765
1829.31	0.7627
1837.91	0.755
1846.51	0.75
1855.11	0.7235
1863.72	0.6589
1872.32	0.6928
1880.92	0.7516
1889.52	0.764
1898.12	0.761
1906.73	0.7504
1915.33	0.739
1923.93	0.7685
1932.53	0.774
1941.14	0.771
1949.74	0.773
1958.34	0.768
1966.94	0.771
1975.54	0.768
1984.15	0.768
1992.75	0.768
2001.35	0.768
2009.95	0.7687
2018.55	0.77
2027.16	0.7681
2035.76	0.769
2044.36	0.764
2052.96	0.76
2061.57	0.7568
2070.17	0.7549
2078.77	0.753
2087.37	0.753
2095.97	0.7529
2104.58	0.753
2113.18	0.7529
2121.78	0.7479
2130.38	0.7461
2138.98	0.7437
2147.59	0.734
2156.19	0.734
2164.79	0.7268
2173.39	0.719
2182	0.7228
2190.6	0.717
2199.2	0.719
2207.8	0.72
2216.4	0.7109
2225.01	0.707
2233.61	0.7069
2242.21	0.7049
2250.81	0.6999
2259.41	0.692
2268.02	0.6879
2276.62	0.6871
2285.22	0.6838
2293.82	0.674
2302.43	0.6597
2311.03	0.65
2319.63	0.625
2328.23	0.6217
2336.83	0.617
2345.44	0.6066
2354.04	0.598
2362.64	0.601
2371.24	0.6
2379.84	0.5947
2388.45	0.5835
2397.05	0.5597
2405.65	0.5469
2414.25	0.5439
2422.86	0.5472
2431.46	0.557
2440.06	0.5423
2448.66	0.531
2457.26	0.5309
2465.87	0.5159
2474.47	0.5049
2483.07	0.4926
2491.67	0.4794
2500.27	0.4648
2508.88	0.4528
2517.48	0.4256
2526.08	0.4039
2534.68	0.402
2543.29	0.3844
2551.89	0.3499
2560.49	0.3228
2569.09	0.32
2577.69	0.3113
2586.3	0.2959
2594.9	0.2978
2603.5	0.29
2612.1	0.295
2620.7	0.29
2629.31	0.285
2637.91	0.2778
2646.51	0.2706
2655.11	0.2508
2663.72	0.2449
2672.32	0.2289
2680.92	0.2148
2689.52	0.2079
2698.12	0.2018
2706.73	0.1809
2715.33	0.177
2723.93	0.179
2732.53	0.1769
2741.13	0.1801
2749.74	0.1838
2758.34	0.1699
2766.94	0.163
2775.54	0.16
2784.15	0.1428
2792.75	0.134
2801.35	0.1311
2809.95	0.147
2818.55	0.1645
2827.16	0.177
2835.76	0.1791
2844.36	0.1973
2852.96	0.2182
2861.56	0.2198
2870.17	0.2089
2878.77	0.2029
2887.37	0.204
2895.97	0.2194
2904.58	0.2497
2913.18	0.2678
2921.78	0.2499
2930.38	0.2476
2938.98	0.2671
2947.59	0.2656
2956.19	0.2508
2964.79	0.1879
2973.39	0.1727
2981.99	0.164
2990.6	0.164
2999.2	0.164
3007.8	0.161
3016.4	0.1691
3025.01	0.1774
3033.61	0.1932
3042.21	0.1947
3050.81	0.1728
3059.41	0.1636
3068.02	0.1878
3076.62	0.2092
3085.22	0.207
3093.82	0.2386
3102.42	0.2981
3111.03	0.3376
3119.63	0.3705
3128.23	0.3911
3136.83	0.4232
3145.44	0.4402
3154.04	0.4632
3162.64	0.4832
3171.24	0.4962
3179.84	0.5091
3188.45	0.51
3197.05	0.5163
3205.65	0.5232
3214.25	0.5371
3222.85	0.547
3231.46	0.55
3240.06	0.558
3248.66	0.5589
3257.26	0.553
3265.87	0.5531
3274.47	0.5552
3283.07	0.558
3291.67	0.559
3300.27	0.5579
3308.88	0.549
3317.48	0.55
3326.08	0.5552
3334.68	0.5469
3343.28	0.534
3351.89	0.531
3360.49	0.517
3369.09	0.511
3377.69	0.51
3386.3	0.509
3394.9	0.5069
3403.5	0.507
3412.1	0.51
3420.7	0.501
3429.31	0.5013
3437.91	0.515
3446.51	0.516
3455.11	0.5191
3463.71	0.52
3472.32	0.52
3480.92	0.5232
3489.52	0.532
3498.12	0.5361
3506.73	0.5381
3515.33	0.539
3523.93	0.5493
3532.53	0.5601
3541.13	0.565
3549.74	0.565
3558.34	0.5663
3566.94	0.577
3575.54	0.577
3584.14	0.587
3592.75	0.5912
3601.35	0.6001
3609.95	0.6031
3618.55	0.608
3627.16	0.608
3635.76	0.6112
3644.36	0.6152
3652.96	0.615
3661.56	0.617
3670.17	0.615
3678.77	0.609
3687.37	0.6132
3695.97	0.6221
3704.57	0.623
3713.18	0.6229
3721.78	0.6221
3730.38	0.623
3738.98	0.622
3747.59	0.6129
3756.19	0.609
3764.79	0.6081
3773.39	0.6132
3781.99	0.618
3790.6	0.608
3799.2	0.6111
3807.8	0.6079
3816.4	0.6
3825	0.597
3833.61	0.598
3842.21	0.598
3850.81	0.5982
3859.41	0.597
3868.02	0.595
3876.62	0.5929
3885.22	0.5909
3893.82	0.591
3902.42	0.592
3911.03	0.5898
3919.63	0.59
3928.23	0.593
3936.83	0.5849
3945.43	0.58
3954.04	0.5849
3962.64	0.58
3971.24	0.5811
3979.84	0.5841
3988.45	0.5838
3997.05	0.58
4005.65	0.5813
