Infrared Spectrum: BIURET, 1-(2-CHLOROETHYL)-5-METHYL-
Formula: C5 H10 Cl N3 O2
CAS: 16813-28-8
State: SOLID (1 mg / 650 mg KBr DISC)
Class: COBLENTZ III
Instrument: PERKIN-ELMER 221 (GRATING)
Instrument parameters: FILTERS AT 2490, 980 CM ^-^1, GRATING FOR 1428-4000 CM^-^1, NaCl PRISM FOR 1428-650 CM^-^1
Sampling: TRANSMISSION
Resolution: 4
Origin: SOUTHERN RES. INSTITUTE
1/CM	TRANSMITTANCE
605.169	0.687
614.346	0.678
623.523	0.67
632.701	0.661
641.878	0.652
651.055	0.646
660.232	0.64
669.41	0.627
678.587	0.571
687.764	0.514
696.941	0.502
706.118	0.565
715.296	0.554
724.473	0.518
733.65	0.466
742.827	0.598
752.005	0.66
761.182	0.556
770.359	0.525
779.536	0.63
788.713	0.728
797.891	0.747
807.068	0.794
816.245	0.817
825.422	0.831
834.6	0.841
843.777	0.848
852.954	0.851
862.131	0.852
871.308	0.852
880.486	0.851
889.663	0.848
898.84	0.845
908.017	0.836
917.195	0.826
926.372	0.832
935.549	0.837
944.726	0.837
953.904	0.835
963.081	0.832
972.258	0.824
981.435	0.813
990.612	0.805
999.79	0.798
1008.97	0.794
1018.14	0.788
1027.32	0.781
1036.5	0.769
1045.68	0.744
1054.85	0.722
1064.03	0.734
1073.21	0.735
1082.38	0.719
1091.56	0.697
1100.74	0.709
1109.92	0.712
1119.09	0.701
1128.27	0.683
1137.45	0.671
1146.63	0.608
1155.8	0.55
1164.98	0.547
1174.16	0.537
1183.33	0.462
1192.51	0.385
1201.69	0.485
1210.87	0.387
1220.04	0.227
1229.22	0.281
1238.4	0.389
1247.57	0.502
1256.75	0.425
1265.93	0.453
1275.11	0.493
1284.28	0.666
1293.46	0.706
1302.64	0.613
1311.82	0.555
1320.99	0.653
1330.17	0.726
1339.35	0.709
1348.52	0.684
1357.7	0.627
1366.88	0.534
1376.06	0.569
1385.23	0.654
1394.41	0.599
1403.59	0.51
1412.76	0.397
1421.94	0.566
1431.12	0.55
1440.3	0.507
1449.47	0.435
1458.65	0.516
1467.83	0.488
1477.01	0.425
1486.18	0.36
1495.36	0.33
1504.54	0.318
1513.71	0.239
1522.89	0.208
1532.07	0.205
1541.25	0.222
1550.42	0.267
1559.6	0.299
1568.78	0.319
1577.95	0.406
1587.13	0.481
1596.31	0.517
1605.49	0.554
1614.66	0.561
1623.84	0.56
1633.02	0.539
1642.2	0.491
1651.37	0.377
1660.55	0.277
1669.73	0.202
1678.9	0.198
1688.08	0.244
1697.26	0.258
1706.44	0.226
1715.61	0.208
1724.79	0.341
1733.97	0.447
1743.14	0.495
1752.32	0.565
1761.5	0.599
1770.68	0.641
1779.85	0.655
1789.03	0.688
1798.21	0.706
1807.39	0.725
1816.56	0.738
1825.74	0.752
1834.92	0.76
1844.09	0.772
1853.27	0.78
1862.45	0.79
1871.63	0.798
1880.8	0.807
1889.98	0.814
1899.16	0.817
1908.33	0.82
1917.51	0.824
1926.69	0.826
1935.87	0.828
1945.04	0.83
1954.22	0.832
1963.4	0.835
1972.58	0.837
1981.75	0.842
1990.93	0.847
2000.11	0.849
2009.28	0.851
2018.46	0.853
2027.64	0.854
2036.82	0.856
2045.99	0.858
2055.17	0.858
2064.35	0.859
2073.52	0.859
2082.7	0.859
2091.88	0.859
2101.06	0.861
2110.23	0.861
2119.41	0.859
2128.59	0.858
2137.77	0.858
2146.94	0.86
2156.12	0.864
2165.3	0.863
2174.47	0.863
2183.65	0.863
2192.83	0.863
2202.01	0.862
2211.18	0.862
2220.36	0.861
2229.54	0.862
2238.71	0.863
2247.89	0.864
2257.07	0.865
2266.25	0.867
2275.42	0.868
2284.6	0.868
2293.78	0.868
2302.96	0.867
2312.13	0.866
2321.31	0.865
2330.49	0.865
2339.66	0.865
2348.84	0.865
2358.02	0.865
2367.2	0.864
2376.37	0.864
2385.55	0.864
2394.73	0.863
2403.9	0.862
2413.08	0.862
2422.26	0.861
2431.44	0.861
2440.61	0.861
2449.79	0.861
2458.97	0.864
2468.15	0.867
2477.32	0.867
2486.5	0.863
2495.68	0.861
2504.85	0.859
2514.03	0.856
2523.21	0.853
2532.39	0.851
2541.56	0.851
2550.74	0.854
2559.92	0.855
2569.09	0.851
2578.27	0.851
2587.45	0.85
2596.63	0.849
2605.8	0.848
2614.98	0.848
2624.16	0.848
2633.34	0.847
2642.51	0.847
2651.69	0.848
2660.87	0.849
2670.04	0.849
2679.22	0.848
2688.4	0.847
2697.58	0.846
2706.75	0.845
2715.93	0.844
2725.11	0.844
2734.28	0.84
2743.46	0.835
2752.64	0.834
2761.82	0.832
2770.99	0.831
2780.17	0.83
2789.35	0.823
2798.53	0.82
2807.7	0.818
2816.88	0.817
2826.06	0.815
2835.23	0.811
2844.41	0.803
2853.59	0.791
2862.77	0.782
2871.94	0.774
2881.12	0.762
2890.3	0.753
2899.47	0.741
2908.65	0.727
2917.83	0.704
2927.01	0.683
2936.18	0.668
2945.36	0.653
2954.54	0.642
2963.72	0.636
2972.89	0.637
2982.07	0.644
2991.25	0.712
3000.42	0.732
3009.6	0.734
3018.78	0.731
3027.96	0.728
3037.13	0.721
3046.31	0.712
3055.49	0.701
3064.67	0.686
3073.84	0.672
3083.02	0.66
3092.2	0.643
3101.37	0.621
3110.55	0.6
3119.73	0.585
3128.91	0.555
3138.08	0.556
3147.26	0.584
3156.44	0.59
3165.61	0.577
3174.79	0.574
3183.97	0.581
3193.15	0.584
3202.32	0.578
3211.5	0.544
3220.68	0.503
3229.86	0.474
3239.03	0.446
3248.21	0.439
3257.39	0.444
3266.56	0.457
3275.74	0.47
3284.92	0.47
3294.1	0.442
3303.27	0.372
3312.45	0.353
3321.63	0.413
3330.8	0.492
3339.98	0.537
3349.16	0.529
3358.34	0.479
3367.51	0.402
3376.69	0.341
3385.87	0.361
3395.05	0.412
3404.22	0.517
3413.4	0.612
3422.58	0.653
3431.75	0.684
3440.93	0.706
3450.11	0.723
3459.29	0.738
3468.46	0.752
3477.64	0.76
3486.82	0.763
3495.99	0.766
3505.17	0.772
3514.35	0.779
3523.53	0.786
3532.7	0.79
3541.88	0.794
3551.06	0.796
3560.24	0.798
3569.41	0.804
3578.59	0.812
3587.77	0.813
3596.94	0.815
3606.12	0.817
3615.3	0.82
3624.48	0.821
3633.65	0.823
3642.83	0.825
3652.01	0.827
3661.18	0.829
3670.36	0.83
3679.54	0.831
3688.72	0.83
3697.89	0.828
3707.07	0.826
3716.25	0.825
3725.43	0.823
3734.6	0.823
3743.78	0.823
3752.96	0.826
3762.13	0.829
3771.31	0.835
3780.49	0.836
3789.67	0.835
3798.84	0.834
3808.02	0.832
3817.2	0.832
3826.37	0.83
3835.55	0.829
3844.73	0.827
3853.91	0.826
3863.08	0.825
3872.26	0.826
3881.44	0.829
3890.62	0.83
3899.79	0.832
3908.97	0.833
3918.15	0.833
3927.32	0.833
3936.5	0.833
3945.68	0.833
3954.86	0.834
3964.03	0.835
3973.21	0.835
3982.39	0.836
3991.56	0.836
4000.74	0.836
