Infrared Spectrum: PURINE, 6-DIMETHYLAMINO-2-METHYLTHIO-
Formula: C8 H11 N5 S
CAS: 1681-11-4
State: SOLID (0.5 mg / 650 mg KBr DISC)
Class: COBLENTZ III
Instrument: PERKIN-ELMER 21 (GRATING)
Instrument parameters: FILTER CHANGE ABOUT 1090 CM^-^1
Sampling: TRANSMISSION
Resolution: 2
Origin: SOUTHERN RESEARCH INSTITUTE
1/CM	TRANSMITTANCE
604.9	0.6025
613.919	0.6105
622.938	0.5886
631.956	0.4808
640.975	0.4539
649.994	0.6705
659.013	0.6532
668.032	0.6246
677.05	0.5475
686.069	0.6408
695.088	0.6285
704.107	0.6366
713.126	0.6243
722.144	0.6219
731.163	0.6329
740.182	0.6351
749.201	0.6271
758.219	0.5921
767.238	0.4532
776.257	0.5114
785.276	0.4249
794.295	0.6572
803.313	0.6507
812.332	0.6416
821.351	0.6285
830.37	0.6101
839.389	0.5858
848.407	0.5589
857.426	0.5196
866.445	0.4766
875.464	0.4257
884.483	0.3754
893.501	0.6214
902.52	0.6264
911.539	0.6198
920.558	0.6038
929.577	0.546
938.595	0.3408
947.614	0.5341
956.633	0.3972
965.652	0.2424
974.671	0.4116
983.689	0.5231
992.708	0.6824
1001.73	0.6854
1010.75	0.6778
1019.76	0.6648
1028.78	0.651
1037.8	0.6434
1046.82	0.6312
1055.84	0.6107
1064.86	0.5834
1073.88	0.5885
1082.9	0.5733
1091.91	0.4964
1100.93	0.333
1109.95	0.5365
1118.97	0.4922
1127.99	0.5499
1137.01	0.5601
1146.03	0.5251
1155.05	0.3979
1164.07	0.6203
1173.08	0.623
1182.1	0.6186
1191.12	0.6069
1200.14	0.5855
1209.16	0.5621
1218.18	0.4953
1227.2	0.3574
1236.22	0.3481
1245.23	0.5294
1254.25	0.4828
1263.27	0.327
1272.29	0.3597
1281.31	0.2215
1290.33	0.4536
1299.35	0.2089
1308.37	0.1021
1317.38	0.233
1326.4	0.4774
1335.42	0.4808
1344.44	0.2649
1353.46	0.2286
1362.48	0.2427
1371.5	0.4599
1380.52	0.5865
1389.54	0.5416
1398.55	0.4257
1407.57	0.4675
1416.59	0.4578
1425.61	0.4502
1434.63	0.2896
1443.65	0.5152
1452.67	0.5265
1461.69	0.5089
1470.7	0.4976
1479.72	0.5565
1488.74	0.5615
1497.76	0.5391
1506.78	0.508
1515.8	0.4692
1524.82	0.4436
1533.84	0.4203
1542.85	0.3874
1551.87	0.3274
1560.89	0.2298
1569.91	0.1338
1578.93	0.0168
1587.95	0.0098
1596.97	0.0153
1605.99	0.0702
1615	0.1922
1624.02	0.4048
1633.04	0.5058
1642.06	0.5389
1651.08	0.6189
1660.1	0.6359
1669.12	0.6838
1678.14	0.6914
1687.16	0.6888
1696.17	0.6952
1705.19	0.714
1714.21	0.7162
1723.23	0.7141
1732.25	0.7083
1741.27	0.7009
1750.29	0.7102
1759.31	0.753
1768.32	0.7593
1777.34	0.7724
1786.36	0.7719
1795.38	0.7729
1804.4	0.7705
1813.42	0.7702
1822.44	0.7687
1831.46	0.7689
1840.47	0.77
1849.49	0.771
1858.51	0.7729
1867.53	0.7735
1876.55	0.7741
1885.57	0.7747
1894.59	0.7751
1903.61	0.7742
1912.63	0.769
1921.64	0.7665
1930.66	0.7642
1939.68	0.7618
1948.7	0.7592
1957.72	0.7564
1966.74	0.7537
1975.76	0.7509
1984.78	0.7463
1993.79	0.7524
2002.81	0.757
2011.83	0.7559
2020.85	0.7519
2029.87	0.7482
2038.89	0.7461
2047.91	0.7475
2056.93	0.7477
2065.94	0.7485
2074.96	0.7478
2083.98	0.7461
2093	0.7501
2102.02	0.743
2111.04	0.7401
2120.06	0.7376
2129.08	0.7338
2138.09	0.7275
2147.11	0.7284
2156.13	0.7306
2165.15	0.7309
2174.17	0.7289
2183.19	0.7258
2192.21	0.7229
2201.23	0.7206
2210.25	0.7193
2219.26	0.7151
2228.28	0.7098
2237.3	0.7054
2246.32	0.7014
2255.34	0.697
2264.36	0.6925
2273.38	0.689
2282.4	0.6896
2291.41	0.69
2300.43	0.6862
2309.45	0.6814
2318.47	0.6767
2327.49	0.6687
2336.51	0.6713
2345.53	0.6695
2354.55	0.6631
2363.56	0.6616
2372.58	0.6584
2381.6	0.6468
2390.62	0.6455
2399.64	0.6447
2408.66	0.6441
2417.68	0.6383
2426.7	0.6329
2435.72	0.629
2444.73	0.6252
2453.75	0.6197
2462.77	0.6112
2471.79	0.6028
2480.81	0.6002
2489.83	0.5917
2498.85	0.5828
2507.87	0.5728
2516.88	0.5632
2525.9	0.5539
2534.92	0.5459
2543.94	0.5466
2552.96	0.5514
2561.98	0.5433
2571	0.5372
2580.02	0.5372
2589.03	0.5367
2598.05	0.5321
2607.07	0.5305
2616.09	0.5299
2625.11	0.5216
2634.13	0.5078
2643.15	0.4854
2652.17	0.4602
2661.19	0.4479
2670.2	0.4354
2679.22	0.4302
2688.24	0.4328
2697.26	0.4414
2706.28	0.4491
2715.3	0.4511
2724.32	0.4455
2733.34	0.4329
2742.35	0.419
2751.37	0.403
2760.39	0.3829
2769.41	0.3539
2778.43	0.3417
2787.45	0.3309
2796.47	0.3284
2805.49	0.3418
2814.5	0.3721
2823.52	0.3937
2832.54	0.4114
2841.56	0.4228
2850.58	0.421
2859.6	0.4167
2868.62	0.4116
2877.64	0.4062
2886.65	0.3993
2895.67	0.3903
2904.69	0.358
2913.71	0.3233
2922.73	0.3177
2931.75	0.3305
2940.77	0.341
2949.79	0.3551
2958.81	0.3672
2967.82	0.38
2976.84	0.4016
2985.86	0.4362
2994.88	0.4621
3003.9	0.4696
3012.92	0.467
3021.94	0.4549
3030.96	0.4411
3039.97	0.4248
3048.99	0.4069
3058.01	0.3957
3067.03	0.3888
3076.05	0.3823
3085.07	0.3745
3094.09	0.3687
3103.11	0.392
3112.12	0.4483
3121.14	0.4945
3130.16	0.5208
3139.18	0.5652
3148.2	0.5724
3157.22	0.5741
3166.24	0.5747
3175.26	0.5771
3184.28	0.5838
3193.29	0.5939
3202.31	0.6101
3211.33	0.6283
3220.35	0.639
3229.37	0.6406
3238.39	0.6548
3247.41	0.6623
3256.43	0.6648
3265.44	0.6651
3274.46	0.664
3283.48	0.6615
3292.5	0.6585
3301.52	0.6551
3310.54	0.6518
3319.56	0.6485
3328.58	0.6453
3337.59	0.642
3346.61	0.6349
3355.63	0.6253
3364.65	0.6149
3373.67	0.6041
3382.69	0.5951
3391.71	0.5887
3400.73	0.584
3409.74	0.5792
3418.76	0.5736
3427.78	0.5696
3436.8	0.5677
3445.82	0.568
3454.84	0.5689
3463.86	0.5701
3472.88	0.5725
3481.9	0.5757
3490.91	0.58
3499.93	0.5843
3508.95	0.589
3517.97	0.594
3526.99	0.5999
3536.01	0.6061
3545.03	0.6137
3554.05	0.6231
3563.06	0.6325
3572.08	0.6404
3581.1	0.6483
3590.12	0.6562
3599.14	0.6637
3608.16	0.6709
3617.18	0.6774
3626.2	0.6832
3635.21	0.6882
3644.23	0.6961
3653.25	0.7006
3662.27	0.7035
3671.29	0.7063
3680.31	0.7072
3689.33	0.7075
3698.35	0.7086
3707.37	0.7105
3716.38	0.7112
3725.4	0.7119
3734.42	0.7121
3743.44	0.7078
3752.46	0.7001
3761.48	0.6995
3770.5	0.7002
3779.52	0.7012
3788.53	0.7037
3797.55	0.7042
3806.57	0.7042
3815.59	0.7034
3824.61	0.703
3833.63	0.7026
3842.65	0.7064
3851.67	0.6977
3860.68	0.691
3869.7	0.6941
3878.72	0.696
3887.74	0.693
3896.76	0.6934
3905.78	0.6939
3914.8	0.693
3923.82	0.691
3932.84	0.6879
3941.85	0.6813
3950.87	0.6855
3959.89	0.6877
3968.91	0.6919
3977.93	0.6973
3986.95	0.698
3995.97	0.6906
4004.99	0.6902
