Infrared Spectrum: BIURET, 1,5-BIS(2-CHLOROETHYL)-
Formula: C6 H11 Cl2 N3 O2
CAS: 16813-30-2
State: SOLID (1 mg / 650 mg KBr DISC)
Class: COBLENTZ III
Instrument: PERKIN-ELMER 221 (GRATING)
Instrument parameters: FILTERS AT 2490, 980 CM ^-^1, GRATING FOR 4000-1428 CM ^-^1, NaCl PRISM FOR 1428-650 CM^-^1
Sampling: TRANSMISSION
Resolution: 4
Origin: SOUTHERN RES. INSTITUTE
1/CM	TRANSMITTANCE
594.118	0.752
603.268	0.75
612.419	0.748
621.569	0.742
630.719	0.736
639.87	0.695
649.02	0.605
658.17	0.578
667.321	0.617
676.471	0.661
685.621	0.747
694.772	0.747
703.922	0.751
713.072	0.735
722.223	0.63
731.373	0.548
740.523	0.635
749.674	0.679
758.824	0.595
767.974	0.748
777.125	0.718
786.275	0.749
795.425	0.769
804.576	0.785
813.726	0.818
822.877	0.845
832.027	0.858
841.177	0.861
850.328	0.855
859.478	0.799
868.628	0.84
877.779	0.863
886.929	0.864
896.079	0.863
905.23	0.863
914.38	0.863
923.53	0.862
932.681	0.859
941.831	0.854
950.981	0.845
960.132	0.821
969.282	0.786
978.432	0.808
987.583	0.834
996.733	0.834
1005.88	0.831
1015.03	0.831
1024.18	0.828
1033.33	0.817
1042.48	0.817
1051.64	0.816
1060.79	0.813
1069.94	0.799
1079.09	0.805
1088.24	0.813
1097.39	0.817
1106.54	0.818
1115.69	0.819
1124.84	0.818
1133.99	0.814
1143.14	0.809
1152.29	0.802
1161.44	0.779
1170.59	0.773
1179.74	0.729
1188.89	0.618
1198.04	0.744
1207.19	0.7
1216.34	0.59
1225.49	0.514
1234.64	0.49
1243.79	0.317
1252.94	0.456
1262.09	0.6
1271.24	0.545
1280.39	0.618
1289.54	0.585
1298.69	0.608
1307.84	0.605
1316.99	0.7
1326.15	0.773
1335.3	0.777
1344.45	0.764
1353.6	0.695
1362.75	0.593
1371.9	0.761
1381.05	0.798
1390.2	0.8
1399.35	0.797
1408.5	0.75
1417.65	0.68
1426.8	0.654
1435.95	0.64
1445.1	0.617
1454.25	0.697
1463.4	0.618
1472.55	0.694
1481.7	0.682
1490.85	0.629
1500	0.563
1509.15	0.463
1518.3	0.386
1527.45	0.264
1536.6	0.169
1545.75	0.153
1554.9	0.184
1564.05	0.21
1573.2	0.36
1582.35	0.518
1591.51	0.614
1600.66	0.63
1609.81	0.651
1618.96	0.643
1628.11	0.62
1637.26	0.593
1646.41	0.496
1655.56	0.364
1664.71	0.124
1673.86	0.078
1683.01	0.179
1692.16	0.303
1701.31	0.384
1710.46	0.456
1719.61	0.347
1728.76	0.407
1737.91	0.618
1747.06	0.722
1756.21	0.762
1765.36	0.783
1774.51	0.796
1783.66	0.814
1792.81	0.825
1801.96	0.832
1811.11	0.837
1820.26	0.84
1829.41	0.848
1838.56	0.85
1847.71	0.853
1856.87	0.856
1866.02	0.859
1875.17	0.862
1884.32	0.862
1893.47	0.863
1902.62	0.863
1911.77	0.863
1920.92	0.863
1930.07	0.863
1939.22	0.863
1948.37	0.863
1957.52	0.863
1966.67	0.863
1975.82	0.863
1984.97	0.863
1994.12	0.863
2003.27	0.864
2012.42	0.864
2021.57	0.865
2030.72	0.865
2039.87	0.866
2049.02	0.866
2058.17	0.866
2067.32	0.866
2076.47	0.866
2085.62	0.866
2094.77	0.866
2103.92	0.865
2113.07	0.864
2122.22	0.863
2131.38	0.864
2140.53	0.865
2149.68	0.865
2158.83	0.864
2167.98	0.864
2177.13	0.864
2186.28	0.863
2195.43	0.863
2204.58	0.863
2213.73	0.863
2222.88	0.863
2232.03	0.862
2241.18	0.862
2250.33	0.862
2259.48	0.862
2268.63	0.862
2277.78	0.861
2286.93	0.861
2296.08	0.861
2305.23	0.86
2314.38	0.86
2323.53	0.859
2332.68	0.859
2341.83	0.859
2350.98	0.859
2360.13	0.859
2369.28	0.859
2378.43	0.859
2387.58	0.858
2396.74	0.856
2405.89	0.856
2415.04	0.856
2424.19	0.855
2433.34	0.855
2442.49	0.855
2451.64	0.855
2460.79	0.855
2469.94	0.856
2479.09	0.854
2488.24	0.835
2497.39	0.856
2506.54	0.857
2515.69	0.856
2524.84	0.855
2533.99	0.854
2543.14	0.854
2552.29	0.853
2561.44	0.852
2570.59	0.852
2579.74	0.852
2588.89	0.852
2598.04	0.851
2607.19	0.85
2616.34	0.85
2625.49	0.85
2634.64	0.849
2643.79	0.848
2652.94	0.847
2662.09	0.847
2671.25	0.844
2680.4	0.842
2689.55	0.84
2698.7	0.837
2707.85	0.834
2717	0.833
2726.15	0.831
2735.3	0.83
2744.45	0.828
2753.6	0.826
2762.75	0.821
2771.9	0.819
2781.05	0.817
2790.2	0.812
2799.35	0.808
2808.5	0.805
2817.65	0.803
2826.8	0.8
2835.95	0.792
2845.1	0.78
2854.25	0.773
2863.4	0.758
2872.55	0.752
2881.7	0.746
2890.85	0.745
2900	0.745
2909.15	0.732
2918.3	0.697
2927.45	0.682
2936.61	0.65
2945.76	0.641
2954.91	0.634
2964.06	0.625
2973.21	0.621
2982.36	0.62
2991.51	0.606
3000.66	0.57
3009.81	0.566
3018.96	0.584
3028.11	0.637
3037.26	0.671
3046.41	0.686
3055.56	0.684
3064.71	0.675
3073.86	0.659
3083.01	0.638
3092.16	0.624
3101.31	0.617
3110.46	0.614
3119.61	0.617
3128.76	0.641
3137.91	0.67
3147.06	0.692
3156.21	0.711
3165.36	0.715
3174.51	0.711
3183.66	0.694
3192.81	0.692
3201.97	0.694
3211.12	0.694
3220.27	0.691
3229.42	0.678
3238.57	0.658
3247.72	0.639
3256.87	0.636
3266.02	0.63
3275.17	0.627
3284.32	0.629
3293.47	0.63
3302.62	0.628
3311.77	0.611
3320.92	0.568
3330.07	0.473
3339.22	0.376
3348.37	0.455
3357.52	0.558
3366.67	0.564
3375.82	0.512
3384.97	0.425
3394.12	0.442
3403.27	0.524
3412.42	0.609
3421.57	0.659
3430.72	0.672
3439.87	0.676
3449.02	0.7
3458.17	0.712
3467.32	0.716
3476.48	0.719
3485.63	0.72
3494.78	0.723
3503.93	0.73
3513.08	0.737
3522.23	0.742
3531.38	0.752
3540.53	0.769
3549.68	0.772
3558.83	0.777
3567.98	0.782
3577.13	0.788
3586.28	0.794
3595.43	0.796
3604.58	0.81
3613.73	0.815
3622.88	0.825
3632.03	0.831
3641.18	0.836
3650.33	0.836
3659.48	0.842
3668.63	0.84
3677.78	0.837
3686.93	0.843
3696.08	0.844
3705.23	0.844
3714.38	0.846
3723.53	0.846
3732.68	0.843
3741.84	0.842
3750.99	0.844
3760.14	0.849
3769.29	0.85
3778.44	0.852
3787.59	0.853
3796.74	0.852
3805.89	0.85
3815.04	0.849
3824.19	0.847
3833.34	0.849
3842.49	0.844
3851.64	0.844
3860.79	0.843
3869.94	0.847
3879.09	0.848
3888.24	0.847
3897.39	0.85
3906.54	0.849
3915.69	0.85
3924.84	0.85
3933.99	0.852
3943.14	0.852
3952.29	0.852
3961.44	0.852
3970.59	0.852
3979.74	0.852
3988.89	0.851
3998.04	0.85
