Infrared Spectrum: CYCLOHEXANECARBOXAMIDE, N-(2-CHLOROETHYL)-
Formula: C9 H16 Cl N O
CAS: 16813-44-8
State: SOLID (1 mg / 650 mg KBr DISC)
Melting point: 95 C
Class: COBLENTZ III
Instrument: PERKIN-ELMER 221 (GRATING)
Instrument parameters: FILTER CHANGES AT 980 CM^-^1, GRATING FOR 4000-1428 CM^-^1, NaCl PRISM FOR 1428-650 CM^-^1
Sampling: TRANSMISSION
Resolution: 4
Origin: SOUTHERN RESEARCH INST.
1/CM	TRANSMITTANCE
596.485	0.948
606.04	0.947
615.595	0.945
625.151	0.936
634.706	0.925
644.261	0.903
653.816	0.877
663.371	0.857
672.927	0.824
682.482	0.751
692.037	0.717
701.592	0.726
711.147	0.776
720.703	0.834
730.258	0.851
739.813	0.732
749.368	0.714
758.923	0.836
768.479	0.86
778.034	0.882
787.589	0.931
797.144	0.947
806.699	0.899
816.255	0.985
825.81	0.989
835.365	0.985
844.92	0.936
854.475	1
864.031	1.007
873.586	0.994
883.141	0.974
892.696	0.817
902.252	0.86
911.807	0.97
921.362	0.888
930.917	0.927
940.472	0.984
950.028	0.985
959.583	0.986
969.138	0.985
978.693	0.977
988.248	0.968
997.804	0.959
1007.36	0.9
1016.91	0.955
1026.47	0.949
1036.02	0.936
1045.58	0.921
1055.13	0.847
1064.69	0.908
1074.25	0.906
1083.8	0.948
1093.36	0.956
1102.91	0.96
1112.47	0.961
1122.02	0.957
1131.58	0.941
1141.13	0.904
1150.69	0.932
1160.24	0.922
1169.8	0.876
1179.35	0.618
1188.91	0.7
1198.46	0.834
1208.02	0.437
1217.57	0.534
1227.13	0.847
1236.68	0.885
1246.24	0.648
1255.79	0.714
1265.35	0.782
1274.9	0.877
1284.46	0.844
1294.01	0.769
1303.57	0.831
1313.13	0.811
1322.68	0.793
1332.24	0.762
1341.79	0.818
1351.35	0.798
1360.9	0.745
1370.46	0.724
1380.01	0.65
1389.57	0.598
1399.12	0.725
1408.68	0.669
1418.23	0.7
1427.79	0.662
1437.34	0.588
1446.9	0.411
1456.45	0.574
1466.01	0.649
1475.56	0.725
1485.12	0.73
1494.67	0.715
1504.23	0.668
1513.78	0.582
1523.34	0.442
1532.89	0.292
1542.45	0.243
1552.01	0.284
1561.56	0.385
1571.12	0.551
1580.67	0.702
1590.23	0.744
1599.78	0.782
1609.34	0.762
1618.89	0.684
1628.45	0.536
1638	0.282
1647.56	0.114
1657.11	0.177
1666.67	0.341
1676.22	0.523
1685.78	0.633
1695.33	0.722
1704.89	0.776
1714.44	0.811
1724	0.832
1733.55	0.849
1743.11	0.866
1752.66	0.883
1762.22	0.896
1771.78	0.906
1781.33	0.91
1790.89	0.922
1800.44	0.93
1810	0.935
1819.55	0.937
1829.11	0.94
1838.66	0.942
1848.22	0.945
1857.77	0.948
1867.33	0.949
1876.88	0.951
1886.44	0.951
1895.99	0.953
1905.55	0.954
1915.1	0.955
1924.66	0.955
1934.21	0.955
1943.77	0.953
1953.32	0.952
1962.88	0.952
1972.43	0.951
1981.99	0.952
1991.54	0.954
2001.1	0.955
2010.66	0.956
2020.21	0.957
2029.77	0.957
2039.32	0.956
2048.88	0.955
2058.43	0.955
2067.99	0.955
2077.54	0.956
2087.1	0.956
2096.65	0.955
2106.21	0.955
2115.76	0.952
2125.32	0.95
2134.87	0.949
2144.43	0.951
2153.98	0.954
2163.54	0.953
2173.09	0.953
2182.65	0.953
2192.2	0.952
2201.76	0.952
2211.31	0.952
2220.87	0.952
2230.42	0.951
2239.98	0.951
2249.54	0.951
2259.09	0.951
2268.65	0.951
2278.2	0.95
2287.76	0.949
2297.31	0.955
2306.87	0.951
2316.42	0.948
2325.98	0.947
2335.53	0.946
2345.09	0.944
2354.64	0.944
2364.2	0.944
2373.75	0.944
2383.31	0.944
2392.86	0.944
2402.42	0.944
2411.97	0.943
2421.53	0.941
2431.08	0.94
2440.64	0.94
2450.19	0.937
2459.75	0.937
2469.3	0.937
2478.86	0.936
2488.42	0.935
2497.97	0.935
2507.53	0.934
2517.08	0.932
2526.64	0.929
2536.19	0.925
2545.75	0.922
2555.3	0.919
2564.86	0.915
2574.41	0.915
2583.97	0.915
2593.52	0.915
2603.08	0.916
2612.63	0.916
2622.19	0.915
2631.74	0.914
2641.3	0.911
2650.85	0.904
2660.41	0.9
2669.96	0.907
2679.52	0.91
2689.07	0.909
2698.63	0.905
2708.18	0.904
2717.74	0.903
2727.3	0.899
2736.85	0.896
2746.41	0.895
2755.96	0.893
2765.52	0.89
2775.07	0.886
2784.63	0.873
2794.18	0.865
2803.74	0.861
2813.29	0.858
2822.85	0.848
2832.4	0.804
2841.96	0.671
2851.51	0.423
2861.07	0.407
2870.62	0.696
2880.18	0.678
2889.73	0.62
2899.29	0.568
2908.84	0.49
2918.4	0.353
2927.95	0.185
2937.51	0.207
2947.07	0.4
2956.62	0.506
2966.18	0.622
2975.73	0.717
2985.29	0.756
2994.84	0.777
3004.4	0.78
3013.95	0.796
3023.51	0.805
3033.06	0.805
3042.62	0.797
3052.17	0.785
3061.73	0.739
3071.28	0.725
3080.84	0.728
3090.39	0.757
3099.95	0.779
3109.5	0.803
3119.06	0.821
3128.61	0.824
3138.17	0.826
3147.72	0.825
3157.28	0.807
3166.83	0.793
3176.39	0.771
3185.95	0.742
3195.5	0.725
3205.06	0.715
3214.61	0.703
3224.17	0.686
3233.72	0.655
3243.28	0.599
3252.83	0.496
3262.39	0.396
3271.94	0.291
3281.5	0.238
3291.05	0.237
3300.61	0.249
3310.16	0.317
3319.72	0.382
3329.27	0.466
3338.83	0.528
3348.38	0.553
3357.94	0.591
3367.49	0.628
3377.05	0.662
3386.6	0.692
3396.16	0.711
3405.71	0.719
3415.27	0.728
3424.83	0.733
3434.38	0.74
3443.94	0.745
3453.49	0.748
3463.05	0.756
3472.6	0.767
3482.16	0.772
3491.71	0.776
3501.27	0.779
3510.82	0.782
3520.38	0.787
3529.93	0.789
3539.49	0.792
3549.04	0.806
3558.6	0.811
3568.15	0.813
3577.71	0.815
3587.26	0.822
3596.82	0.825
3606.37	0.829
3615.93	0.83
3625.48	0.833
3635.04	0.838
3644.59	0.842
3654.15	0.844
3663.71	0.845
3673.26	0.846
3682.82	0.846
3692.37	0.847
3701.93	0.848
3711.48	0.848
3721.04	0.849
3730.59	0.849
3740.15	0.848
3749.7	0.847
3759.26	0.848
3768.81	0.849
3778.37	0.849
3787.92	0.849
3797.48	0.848
3807.03	0.848
3816.59	0.848
3826.14	0.848
3835.7	0.848
3845.25	0.848
3854.81	0.846
3864.36	0.845
3873.92	0.846
3883.48	0.848
3893.03	0.848
3902.59	0.848
3912.14	0.846
3921.7	0.845
3931.25	0.845
3940.81	0.844
3950.36	0.845
3959.92	0.845
3969.47	0.844
3979.03	0.844
3988.58	0.844
3998.14	0.844
