Infrared Spectrum: 2-Heptadecanol
Formula: C17 H36 O
CAS: 16813-18-6
State: SOLUTION (10% CCl4 FOR 3800-1330, 10% CS2 FOR 1330-460 CM^-^1)
Melting point: 32 C
Class: COBLENTZ III
Instrument: DOW KBr FOREPRISM-GRATING
Instrument parameters: BLAZED AT 3.5, 12.0, 20.0 MICRON AND CHANGED AT 5.0, 7.5, 14.9 MICRON
Sampling: TRANSMISSION
Path length: 0.010 CM, 0.011 CM
Resolution: 2
Origin: DOW CHEMICAL COMPANY
1/CM	TRANSMITTANCE
460	0.7034
469	0.7092
478	0.7157
487	0.7226
496	0.737
505	0.7482
514	0.7462
523	0.7356
532	0.756
541	0.7617
550	0.7644
559	0.7668
568	0.7717
577	0.7736
586	0.7756
595	0.7774
604	0.778
613	0.7782
622	0.7768
631	0.7748
640	0.7688
649	0.7623
658	0.7647
667	0.7869
676	0.8212
685	0.8173
694	0.8159
703	0.7874
712	0.6929
721	0.5695
730	0.7262
739	0.7979
748	0.8184
757	0.8297
766	0.8358
775	0.8403
784	0.854
793	0.8555
802	0.8485
811	0.8314
820	0.8275
829	0.779
838	0.7552
847	0.7099
856	0.7013
865	0.7361
874	0.7677
883	0.7865
892	0.8081
901	0.806
910	0.789
919	0.7686
928	0.6824
937	0.6689
946	0.729
955	0.7861
964	0.7832
973	0.7706
982	0.7755
991	0.7482
1000	0.7122
1009	0.6773
1018	0.6509
1027	0.6441
1036	0.6313
1045	0.6107
1054	0.5873
1063	0.5786
1072	0.5665
1081	0.5653
1090	0.557
1099	0.5409
1108	0.5186
1117	0.5174
1126	0.5334
1135	0.5218
1144	0.5767
1153	0.6441
1162	0.705
1171	0.7408
1180	0.7222
1189	0.7681
1198	0.7755
1207	0.7753
1216	0.7651
1225	0.7456
1234	0.7136
1243	0.6655
1252	0.6731
1261	0.684
1270	0.6795
1279	0.6664
1288	0.6448
1297	0.621
1306	0.6141
1315	0.6369
1324	0.6625
1333	0.7679
1342	0.7352
1351	0.6959
1360	0.6821
1369	0.588
1378	0.4875
1387	0.6722
1396	0.7072
1405	0.731
1414	0.754
1423	0.7654
1432	0.7176
1441	0.6244
1450	0.504
1459	0.3238
1468	0.2408
1477	0.6759
1486	0.7819
1495	0.7776
1504	0.7477
1513	0.7137
1522	0.6779
1531	0.631
1540	0.5556
1549	0.4881
1558	0.5204
1567	0.6039
1576	0.6395
1585	0.6599
1594	0.7117
1603	0.8123
1612	0.8495
1621	0.8699
1630	0.8816
1639	0.8869
1648	0.8901
1657	0.8929
1666	0.8948
1675	0.8958
1684	0.8973
1693	0.8991
1702	0.9003
1711	0.9009
1720	0.9018
1729	0.903
1738	0.9043
1747	0.9057
1756	0.9054
1765	0.905
1774	0.904
1783	0.9031
1792	0.9023
1801	0.9016
1810	0.901
1819	0.9003
1828	0.8995
1837	0.8983
1846	0.8963
1855	0.8955
1864	0.8968
1873	0.8985
1882	0.9014
1891	0.9038
1900	0.9044
1909	0.9045
1918	0.9048
1927	0.905
1936	0.9044
1945	0.9032
1954	0.9055
1963	0.9017
1972	0.9
1981	0.8984
1990	0.8915
1999	0.8885
2008	0.8968
2017	0.8964
2026	0.8972
2035	0.8982
2044	0.8986
2053	0.8991
2062	0.9004
2071	0.9016
2080	0.9028
2089	0.9035
2098	0.9041
2107	0.9044
2116	0.9048
2125	0.9048
2134	0.9046
2143	0.9045
2152	0.9041
2161	0.9035
2170	0.903
2179	0.9023
2188	0.9013
2197	0.9004
2206	0.8994
2215	0.8988
2224	0.8984
2233	0.898
2242	0.8982
2251	0.8983
2260	0.8975
2269	0.8951
2278	0.8919
2287	0.888
2296	0.8843
2305	0.8821
2314	0.8853
2323	0.8926
2332	0.8985
2341	0.9005
2350	0.9018
2359	0.9022
2368	0.9022
2377	0.9022
2386	0.9022
2395	0.9019
2404	0.9016
2413	0.9014
2422	0.902
2431	0.9025
2440	0.9029
2449	0.9031
2458	0.9029
2467	0.9024
2476	0.9021
2485	0.9006
2494	0.8988
2503	0.897
2512	0.8951
2521	0.8933
2530	0.8915
2539	0.8892
2548	0.887
2557	0.8839
2566	0.8796
2575	0.875
2584	0.87
2593	0.865
2602	0.8596
2611	0.8542
2620	0.8492
2629	0.8451
2638	0.8411
2647	0.8371
2656	0.832
2665	0.8266
2674	0.8213
2683	0.8192
2692	0.8252
2701	0.8314
2710	0.8347
2719	0.8293
2728	0.8212
2737	0.8167
2746	0.8239
2755	0.8198
2764	0.8123
2773	0.8014
2782	0.7889
2791	0.7717
2800	0.7494
2809	0.7206
2818	0.6717
2827	0.5712
2836	0.3853
2845	0.1431
2854	0.0013
2863	0.035
2872	0.1158
2881	0.2025
2890	0.1368
2899	0.064
2908	0.0106
2917	0.0001
2926	0.0001
2935	0
2944	0.0443
2953	0.0636
2962	0.0679
2971	0.191
2980	0.3472
2989	0.5033
2998	0.6313
3007	0.7114
3016	0.7588
3025	0.7858
3034	0.8042
3043	0.8204
3052	0.8307
3061	0.8372
3070	0.8429
3079	0.8465
3088	0.8495
3097	0.8512
3106	0.8522
3115	0.851
3124	0.8496
3133	0.8476
3142	0.8446
3151	0.8413
3160	0.8367
3169	0.8314
3178	0.8256
3187	0.8181
3196	0.8106
3205	0.8019
3214	0.7922
3223	0.7808
3232	0.7688
3241	0.7548
3250	0.7408
3259	0.722
3268	0.7039
3277	0.6879
3286	0.6736
3295	0.6603
3304	0.643
3313	0.6227
3322	0.607
3331	0.5985
3340	0.5938
3349	0.5924
3358	0.5943
3367	0.5978
3376	0.6027
3385	0.6084
3394	0.6153
3403	0.6244
3412	0.6338
3421	0.6437
3430	0.6537
3439	0.6637
3448	0.6732
3457	0.6825
3466	0.6918
3475	0.701
3484	0.7119
3493	0.7252
3502	0.7384
3511	0.7503
3520	0.7622
3529	0.7786
3538	0.8006
3547	0.8242
3556	0.838
3565	0.8446
3574	0.8454
3583	0.8394
3592	0.8206
3601	0.7766
3610	0.7166
3619	0.6806
3628	0.7077
3637	0.8087
3646	0.8557
3655	0.8657
3664	0.869
3673	0.8721
3682	0.8751
3691	0.8774
3700	0.8794
3709	0.8813
3718	0.8833
3727	0.8844
3736	0.8852
3745	0.8839
3754	0.882
3763	0.8813
3772	0.8808
3781	0.8805
3790	0.8798
3799	0.8791
