Infrared Spectrum: BIUREA, 1-(2-CHLOROETHYL)-6-METHYL-
Formula: C5 H11 Cl N4 O2
CAS: 16813-41-5
State: SOLID (1 mg / 500 mg KBr DISC)
Class: COBLENTZ III
Instrument: PERKIN-ELMER 21 (GRATING)
Instrument parameters: FILTER CHANGE ABOUT 1100 CM ^-^1; NaCl PRISM
Sampling: TRANSMISSION
Resolution: 4
Origin: SOUTHERN RES. INSTITUTE
1/CM	TRANSMITTANCE
605.668	0.659
614.777	0.66
623.887	0.663
632.996	0.672
642.105	0.677
651.215	0.671
660.324	0.675
669.433	0.697
678.543	0.712
687.652	0.728
696.761	0.734
705.871	0.758
714.98	0.779
724.089	0.775
733.199	0.763
742.308	0.758
751.417	0.752
760.527	0.748
769.636	0.749
778.745	0.756
787.855	0.777
796.964	0.786
806.073	0.809
815.182	0.824
824.292	0.828
833.401	0.839
842.51	0.843
851.62	0.846
860.729	0.848
869.838	0.85
878.948	0.85
888.057	0.853
897.166	0.852
906.276	0.851
915.385	0.85
924.494	0.848
933.604	0.842
942.713	0.831
951.822	0.821
960.932	0.821
970.041	0.837
979.15	0.849
988.26	0.849
997.369	0.848
1006.48	0.846
1015.59	0.846
1024.7	0.843
1033.81	0.841
1042.92	0.836
1052.02	0.834
1061.13	0.822
1070.24	0.827
1079.35	0.833
1088.46	0.808
1097.57	0.825
1106.68	0.831
1115.79	0.828
1124.9	0.823
1134.01	0.812
1143.12	0.787
1152.23	0.781
1161.34	0.76
1170.45	0.75
1179.56	0.787
1188.66	0.774
1197.77	0.745
1206.88	0.775
1215.99	0.775
1225.1	0.761
1234.21	0.765
1243.32	0.77
1252.43	0.756
1261.54	0.701
1270.65	0.753
1279.76	0.756
1288.87	0.749
1297.98	0.712
1307.09	0.664
1316.2	0.661
1325.3	0.603
1334.41	0.541
1343.52	0.578
1352.63	0.626
1361.74	0.7
1370.85	0.678
1379.96	0.659
1389.07	0.747
1398.18	0.753
1407.29	0.744
1416.4	0.718
1425.51	0.604
1434.62	0.709
1443.73	0.706
1452.84	0.731
1461.94	0.729
1471.05	0.694
1480.16	0.663
1489.27	0.654
1498.38	0.651
1507.49	0.709
1516.6	0.723
1525.71	0.693
1534.82	0.656
1543.93	0.575
1553.04	0.449
1562.15	0.283
1571.26	0.31
1580.37	0.356
1589.48	0.421
1598.58	0.49
1607.69	0.657
1616.8	0.684
1625.91	0.672
1635.02	0.638
1644.13	0.54
1653.24	0.294
1662.35	0.162
1671.46	0.226
1680.57	0.328
1689.68	0.47
1698.79	0.558
1707.9	0.665
1717.01	0.747
1726.12	0.798
1735.22	0.821
1744.33	0.833
1753.44	0.837
1762.55	0.841
1771.66	0.843
1780.77	0.846
1789.88	0.85
1798.99	0.853
1808.1	0.853
1817.21	0.856
1826.32	0.857
1835.43	0.859
1844.54	0.859
1853.65	0.86
1862.75	0.86
1871.86	0.86
1880.97	0.86
1890.08	0.859
1899.19	0.859
1908.3	0.859
1917.41	0.859
1926.52	0.859
1935.63	0.859
1944.74	0.86
1953.85	0.859
1962.96	0.859
1972.07	0.859
1981.18	0.859
1990.29	0.86
1999.39	0.861
2008.5	0.862
2017.61	0.862
2026.72	0.862
2035.83	0.862
2044.94	0.86
2054.05	0.858
2063.16	0.859
2072.27	0.859
2081.38	0.859
2090.49	0.861
2099.6	0.863
2108.71	0.864
2117.82	0.864
2126.93	0.864
2136.03	0.863
2145.14	0.862
2154.25	0.86
2163.36	0.86
2172.47	0.86
2181.58	0.859
2190.69	0.858
2199.8	0.859
2208.91	0.86
2218.02	0.862
2227.13	0.862
2236.24	0.862
2245.35	0.862
2254.46	0.862
2263.57	0.861
2272.67	0.86
2281.78	0.86
2290.89	0.859
2300	0.859
2309.11	0.858
2318.22	0.859
2327.33	0.86
2336.44	0.858
2345.55	0.857
2354.66	0.856
2363.77	0.855
2372.88	0.854
2381.99	0.853
2391.1	0.855
2400.21	0.856
2409.31	0.858
2418.42	0.856
2427.53	0.854
2436.64	0.853
2445.75	0.852
2454.86	0.85
2463.97	0.849
2473.08	0.849
2482.19	0.85
2491.3	0.853
2500.41	0.857
2509.52	0.852
2518.63	0.847
2527.74	0.847
2536.85	0.85
2545.95	0.855
2555.06	0.855
2564.17	0.853
2573.28	0.852
2582.39	0.843
2591.5	0.838
2600.61	0.848
2609.72	0.85
2618.83	0.847
2627.94	0.845
2637.05	0.843
2646.16	0.84
2655.27	0.837
2664.38	0.837
2673.48	0.841
2682.59	0.84
2691.7	0.843
2700.81	0.846
2709.92	0.844
2719.03	0.84
2728.14	0.837
2737.25	0.837
2746.36	0.831
2755.47	0.826
2764.58	0.822
2773.69	0.812
2782.8	0.805
2791.91	0.8
2801.02	0.798
2810.12	0.794
2819.23	0.782
2828.34	0.766
2837.45	0.759
2846.56	0.743
2855.67	0.74
2864.78	0.73
2873.89	0.718
2883	0.697
2892.11	0.684
2901.22	0.656
2910.33	0.62
2919.44	0.594
2928.55	0.593
2937.66	0.613
2946.76	0.64
2955.87	0.663
2964.98	0.696
2974.09	0.695
2983.2	0.69
2992.31	0.679
3001.42	0.665
3010.53	0.663
3019.64	0.662
3028.75	0.659
3037.86	0.654
3046.97	0.646
3056.08	0.643
3065.19	0.623
3074.3	0.6
3083.4	0.587
3092.51	0.585
3101.62	0.6
3110.73	0.625
3119.84	0.628
3128.95	0.615
3138.06	0.589
3147.17	0.571
3156.28	0.555
3165.39	0.539
3174.5	0.528
3183.61	0.522
3192.72	0.523
3201.83	0.53
3210.94	0.537
3220.04	0.552
3229.15	0.568
3238.26	0.568
3247.37	0.548
3256.48	0.53
3265.59	0.487
3274.7	0.433
3283.81	0.368
3292.92	0.337
3302.03	0.337
3311.14	0.385
3320.25	0.473
3329.36	0.55
3338.47	0.599
3347.57	0.637
3356.68	0.654
3365.79	0.662
3374.9	0.665
3384.01	0.671
3393.12	0.673
3402.23	0.676
3411.34	0.678
3420.45	0.682
3429.56	0.688
3438.67	0.692
3447.78	0.696
3456.89	0.7
3466	0.703
3475.11	0.707
3484.21	0.712
3493.32	0.718
3502.43	0.732
3511.54	0.738
3520.65	0.744
3529.76	0.749
3538.87	0.756
3547.98	0.767
3557.09	0.777
3566.2	0.781
3575.31	0.787
3584.42	0.797
3593.53	0.803
3602.64	0.81
3611.75	0.815
3620.85	0.816
3629.96	0.818
3639.07	0.818
3648.18	0.817
3657.29	0.818
3666.4	0.821
3675.51	0.823
3684.62	0.826
3693.73	0.828
3702.84	0.828
3711.95	0.827
3721.06	0.825
3730.17	0.825
3739.28	0.828
3748.39	0.83
3757.49	0.832
3766.6	0.834
3775.71	0.834
3784.82	0.832
3793.93	0.833
3803.04	0.834
3812.15	0.835
3821.26	0.836
3830.37	0.834
3839.48	0.835
3848.59	0.837
3857.7	0.838
3866.81	0.837
3875.92	0.835
3885.03	0.832
3894.13	0.833
3903.24	0.834
3912.35	0.831
3921.46	0.829
3930.57	0.831
3939.68	0.831
3948.79	0.829
3957.9	0.831
3967.01	0.832
3976.12	0.833
3985.23	0.836
3994.34	0.837
