Infrared Spectrum: BIUREA, 1,6-BIS(2-CHLOROETHYL)-
Formula: C6 H12 Cl2 N4 O2
CAS: 16813-42-6
State: SOLID (1 mg / 500 mg KBr DISC)
Class: COBLENTZ III
Instrument: PERKIN-ELMER 221 (GRATING)
Instrument parameters: FILTERS AT 2490, 980 CM ^-^1, NaCl PRISM FOR 1428-650 CM^-^1
Sampling: TRANSMISSION
Resolution: 4
Origin: SOUTHERN RES. INSTITUTE
1/CM	TRANSMITTANCE
603.746	0.81
612.913	0.807
622.08	0.803
631.247	0.67
640.414	0.562
649.581	0.583
658.748	0.604
667.916	0.614
677.083	0.637
686.25	0.669
695.417	0.697
704.584	0.708
713.751	0.709
722.918	0.714
732.085	0.718
741.252	0.725
750.419	0.724
759.586	0.71
768.753	0.736
777.921	0.769
787.088	0.785
796.255	0.8
805.422	0.826
814.589	0.836
823.756	0.842
832.923	0.845
842.09	0.848
851.257	0.848
860.424	0.849
869.591	0.849
878.758	0.849
887.926	0.85
897.093	0.848
906.26	0.844
915.427	0.832
924.594	0.794
933.761	0.72
942.928	0.79
952.095	0.748
961.262	0.762
970.429	0.832
979.596	0.745
988.763	0.854
997.931	0.853
1007.1	0.854
1016.26	0.855
1025.43	0.854
1034.6	0.846
1043.77	0.813
1052.93	0.729
1062.1	0.797
1071.27	0.838
1080.43	0.838
1089.6	0.837
1098.77	0.832
1107.94	0.824
1117.1	0.815
1126.27	0.79
1135.44	0.763
1144.6	0.746
1153.77	0.778
1162.94	0.773
1172.11	0.754
1181.27	0.645
1190.44	0.64
1199.61	0.723
1208.77	0.727
1217.94	0.728
1227.11	0.725
1236.27	0.704
1245.44	0.601
1254.61	0.546
1263.78	0.691
1272.94	0.682
1282.11	0.61
1291.28	0.553
1300.44	0.596
1309.61	0.612
1318.78	0.554
1327.95	0.45
1337.11	0.492
1346.28	0.628
1355.45	0.513
1364.61	0.589
1373.78	0.688
1382.95	0.736
1392.12	0.726
1401.28	0.714
1410.45	0.654
1419.62	0.535
1428.78	0.559
1437.95	0.669
1447.12	0.696
1456.28	0.661
1465.45	0.611
1474.62	0.564
1483.79	0.573
1492.95	0.607
1502.12	0.618
1511.29	0.603
1520.45	0.558
1529.62	0.454
1538.79	0.288
1547.96	0.154
1557.12	0.183
1566.29	0.216
1575.46	0.339
1584.62	0.49
1593.79	0.601
1602.96	0.64
1612.13	0.622
1621.29	0.557
1630.46	0.496
1639.63	0.415
1648.79	0.265
1657.96	0.103
1667.13	0.128
1676.29	0.266
1685.46	0.403
1694.63	0.493
1703.8	0.604
1712.96	0.657
1722.13	0.696
1731.3	0.742
1740.46	0.778
1749.63	0.793
1758.8	0.804
1767.97	0.808
1777.13	0.819
1786.3	0.826
1795.47	0.832
1804.63	0.836
1813.8	0.84
1822.97	0.845
1832.14	0.847
1841.3	0.85
1850.47	0.853
1859.64	0.855
1868.8	0.855
1877.97	0.856
1887.14	0.857
1896.3	0.858
1905.47	0.858
1914.64	0.858
1923.81	0.859
1932.97	0.86
1942.14	0.861
1951.31	0.862
1960.47	0.864
1969.64	0.864
1978.81	0.864
1987.98	0.864
1997.14	0.864
2006.31	0.865
2015.48	0.867
2024.64	0.867
2033.81	0.867
2042.98	0.867
2052.15	0.867
2061.31	0.868
2070.48	0.868
2079.65	0.868
2088.81	0.868
2097.98	0.868
2107.15	0.868
2116.31	0.869
2125.48	0.869
2134.65	0.87
2143.82	0.871
2152.98	0.872
2162.15	0.872
2171.32	0.871
2180.48	0.869
2189.65	0.868
2198.82	0.868
2207.99	0.869
2217.15	0.871
2226.32	0.871
2235.49	0.871
2244.65	0.871
2253.82	0.871
2262.99	0.871
2272.15	0.87
2281.32	0.869
2290.49	0.868
2299.66	0.868
2308.82	0.866
2317.99	0.865
2327.16	0.864
2336.32	0.864
2345.49	0.863
2354.66	0.862
2363.83	0.864
2372.99	0.868
2382.16	0.868
2391.33	0.868
2400.49	0.867
2409.66	0.867
2418.83	0.867
2428	0.866
2437.16	0.865
2446.33	0.864
2455.5	0.863
2464.66	0.863
2473.83	0.862
2483	0.862
2492.16	0.863
2501.33	0.864
2510.5	0.864
2519.67	0.865
2528.83	0.865
2538	0.864
2547.17	0.864
2556.33	0.864
2565.5	0.863
2574.67	0.862
2583.84	0.861
2593	0.861
2602.17	0.861
2611.34	0.86
2620.5	0.859
2629.67	0.858
2638.84	0.858
2648.01	0.857
2657.17	0.855
2666.34	0.854
2675.51	0.851
2684.67	0.848
2693.84	0.846
2703.01	0.844
2712.17	0.842
2721.34	0.839
2730.51	0.836
2739.68	0.833
2748.84	0.83
2758.01	0.826
2767.18	0.819
2776.34	0.816
2785.51	0.812
2794.68	0.809
2803.85	0.8
2813.01	0.794
2822.18	0.787
2831.35	0.778
2840.51	0.759
2849.68	0.747
2858.85	0.743
2868.02	0.729
2877.18	0.709
2886.35	0.693
2895.52	0.675
2904.68	0.63
2913.85	0.614
2923.02	0.552
2932.18	0.527
2941.35	0.533
2950.52	0.565
2959.69	0.572
2968.85	0.581
2978.02	0.643
2987.19	0.643
2996.35	0.637
3005.52	0.623
3014.69	0.618
3023.86	0.617
3033.02	0.613
3042.19	0.603
3051.36	0.587
3060.52	0.562
3069.69	0.549
3078.86	0.528
3088.03	0.494
3097.19	0.482
3106.36	0.514
3115.53	0.535
3124.69	0.579
3133.86	0.578
3143.03	0.553
3152.19	0.532
3161.36	0.522
3170.53	0.496
3179.7	0.482
3188.86	0.465
3198.03	0.453
3207.2	0.415
3216.36	0.401
3225.53	0.418
3234.7	0.446
3243.87	0.487
3253.03	0.524
3262.2	0.54
3271.37	0.541
3280.53	0.53
3289.7	0.485
3298.87	0.418
3308.04	0.345
3317.2	0.281
3326.37	0.244
3335.54	0.263
3344.7	0.345
3353.87	0.427
3363.04	0.484
3372.2	0.538
3381.37	0.596
3390.54	0.623
3399.71	0.639
3408.87	0.654
3418.04	0.66
3427.21	0.669
3436.37	0.68
3445.54	0.689
3454.71	0.696
3463.88	0.704
3473.04	0.711
3482.21	0.72
3491.38	0.724
3500.54	0.729
3509.71	0.733
3518.88	0.742
3528.05	0.755
3537.21	0.758
3546.38	0.768
3555.55	0.771
3564.71	0.774
3573.88	0.787
3583.05	0.792
3592.21	0.796
3601.38	0.805
3610.55	0.81
3619.72	0.811
3628.88	0.819
3638.05	0.823
3647.22	0.826
3656.38	0.829
3665.55	0.83
3674.72	0.831
3683.89	0.832
3693.05	0.834
3702.22	0.836
3711.39	0.836
3720.55	0.835
3729.72	0.835
3738.89	0.836
3748.06	0.839
3757.22	0.84
3766.39	0.841
3775.56	0.841
3784.72	0.842
3793.89	0.842
3803.06	0.84
3812.22	0.839
3821.39	0.838
3830.56	0.836
3839.73	0.836
3848.89	0.837
3858.06	0.837
3867.23	0.837
3876.39	0.838
3885.56	0.839
3894.73	0.839
3903.9	0.84
3913.06	0.841
3922.23	0.841
3931.4	0.842
3940.56	0.841
3949.73	0.84
3958.9	0.842
3968.07	0.844
3977.23	0.843
3986.4	0.842
3995.57	0.842
