Infrared Spectrum: PURINE, 2-AMINO-6-METHYL-
Formula: C6 H7 N5
CAS: 1681-10-3
State: SOLID (1 mg / 650 mg KBr DISC)
Class: COBLENTZ III
Instrument: PERKIN-ELMER 521 (GRATING)
Instrument parameters: FILTER CHANGE AT 3150, 2500, 2000, 1150, 700, 410 CM^-^1, GRATING CHANGES AT 2000, 630 CM^-^1
Sampling: TRANSMISSION
Resolution: 4
Origin: SOUTHERN RESEARCH INSTITUTE
1/CM	TRANSMITTANCE
238.772	0.254
247.803	0.266
256.833	0.309
265.864	0.382
274.895	0.45
283.926	0.502
292.956	0.557
301.987	0.598
311.018	0.616
320.048	0.626
329.079	0.631
338.11	0.631
347.141	0.626
356.171	0.617
365.202	0.547
374.233	0.567
383.263	0.648
392.294	0.685
401.325	0.699
410.356	0.706
419.386	0.707
428.417	0.707
437.448	0.708
446.478	0.704
455.509	0.692
464.54	0.678
473.571	0.667
482.601	0.654
491.632	0.608
500.663	0.555
509.693	0.648
518.724	0.662
527.755	0.657
536.786	0.633
545.816	0.521
554.847	0.485
563.878	0.63
572.908	0.628
581.939	0.614
590.97	0.628
600.001	0.579
609.031	0.513
618.062	0.558
627.093	0.473
636.123	0.419
645.154	0.555
654.185	0.628
663.216	0.643
672.246	0.642
681.277	0.648
690.308	0.657
699.338	0.67
708.369	0.686
717.4	0.707
726.431	0.713
735.461	0.679
744.492	0.697
753.523	0.698
762.553	0.686
771.584	0.691
780.615	0.709
789.646	0.522
798.676	0.54
807.707	0.655
816.738	0.641
825.768	0.586
834.799	0.549
843.83	0.607
852.861	0.635
861.891	0.655
870.922	0.672
879.953	0.683
888.983	0.729
898.014	0.74
907.045	0.729
916.076	0.679
925.106	0.542
934.137	0.469
943.168	0.65
952.198	0.755
961.229	0.76
970.26	0.765
979.291	0.769
988.321	0.765
997.352	0.723
1006.38	0.737
1015.41	0.744
1024.44	0.69
1033.47	0.679
1042.51	0.738
1051.54	0.748
1060.57	0.748
1069.6	0.741
1078.63	0.707
1087.66	0.66
1096.69	0.643
1105.72	0.665
1114.75	0.678
1123.78	0.659
1132.81	0.628
1141.84	0.652
1150.87	0.708
1159.9	0.708
1168.94	0.698
1177.97	0.69
1187	0.695
1196.03	0.669
1205.06	0.614
1214.09	0.658
1223.12	0.655
1232.15	0.639
1241.18	0.604
1250.21	0.535
1259.24	0.462
1268.27	0.453
1277.3	0.594
1286.33	0.591
1295.37	0.517
1304.4	0.395
1313.43	0.459
1322.46	0.561
1331.49	0.609
1340.52	0.595
1349.55	0.55
1358.58	0.466
1367.61	0.388
1376.64	0.39
1385.67	0.267
1394.7	0.314
1403.73	0.469
1412.76	0.513
1421.8	0.488
1430.83	0.423
1439.86	0.365
1448.89	0.33
1457.92	0.322
1466.95	0.282
1475.98	0.347
1485.01	0.478
1494.04	0.466
1503.07	0.368
1512.1	0.321
1521.13	0.459
1530.16	0.602
1539.19	0.634
1548.23	0.61
1557.26	0.555
1566.29	0.47
1575.32	0.348
1584.35	0.209
1593.38	0.152
1602.41	0.153
1611.44	0.141
1620.47	0.165
1629.5	0.208
1638.53	0.258
1647.56	0.329
1656.59	0.444
1665.62	0.581
1674.66	0.574
1683.69	0.524
1692.72	0.565
1701.75	0.63
1710.78	0.707
1719.81	0.775
1728.84	0.817
1737.87	0.834
1746.9	0.842
1755.93	0.866
1764.96	0.885
1773.99	0.894
1783.02	0.899
1792.05	0.905
1801.09	0.909
1810.12	0.908
1819.15	0.905
1828.18	0.903
1837.21	0.898
1846.24	0.895
1855.27	0.892
1864.3	0.889
1873.33	0.886
1882.36	0.883
1891.39	0.881
1900.42	0.878
1909.45	0.874
1918.48	0.87
1927.52	0.868
1936.55	0.86
1945.58	0.854
1954.61	0.849
1963.64	0.844
1972.67	0.84
1981.7	0.834
1990.73	0.823
1999.76	0.819
2008.79	0.816
2017.82	0.812
2026.85	0.808
2035.88	0.802
2044.91	0.799
2053.95	0.796
2062.98	0.793
2072.01	0.789
2081.04	0.783
2090.07	0.782
2099.1	0.779
2108.13	0.776
2117.16	0.773
2126.19	0.766
2135.22	0.765
2144.25	0.762
2153.28	0.758
2162.31	0.756
2171.34	0.751
2180.38	0.743
2189.41	0.739
2198.44	0.737
2207.47	0.729
2216.5	0.726
2225.53	0.723
2234.56	0.721
2243.59	0.715
2252.62	0.712
2261.65	0.71
2270.68	0.708
2279.71	0.706
2288.74	0.704
2297.77	0.702
2306.81	0.695
2315.84	0.692
2324.87	0.688
2333.9	0.678
2342.93	0.675
2351.96	0.669
2360.99	0.659
2370.02	0.655
2379.05	0.652
2388.08	0.646
2397.11	0.64
2406.14	0.635
2415.17	0.627
2424.2	0.621
2433.24	0.617
2442.27	0.613
2451.3	0.608
2460.33	0.6
2469.36	0.589
2478.39	0.583
2487.42	0.575
2496.45	0.565
2505.48	0.556
2514.51	0.549
2523.54	0.544
2532.57	0.538
2541.6	0.53
2550.63	0.526
2559.67	0.521
2568.7	0.513
2577.73	0.51
2586.76	0.506
2595.79	0.502
2604.82	0.495
2613.85	0.488
2622.88	0.479
2631.91	0.473
2640.94	0.465
2649.97	0.457
2659	0.452
2668.03	0.447
2677.06	0.442
2686.1	0.434
2695.13	0.422
2704.16	0.412
2713.19	0.408
2722.22	0.402
2731.25	0.397
2740.28	0.391
2749.31	0.383
2758.34	0.376
2767.37	0.369
2776.4	0.362
2785.43	0.356
2794.46	0.353
2803.49	0.355
2812.53	0.359
2821.56	0.367
2830.59	0.376
2839.62	0.38
2848.65	0.381
2857.68	0.382
2866.71	0.389
2875.74	0.395
2884.77	0.394
2893.8	0.389
2902.83	0.383
2911.86	0.378
2920.89	0.369
2929.92	0.366
2938.96	0.361
2947.99	0.348
2957.02	0.345
2966.05	0.342
2975.08	0.338
2984.11	0.326
2993.14	0.32
3002.17	0.316
3011.2	0.313
3020.23	0.312
3029.26	0.312
3038.29	0.314
3047.32	0.316
3056.35	0.313
3065.39	0.307
3074.42	0.286
3083.45	0.275
3092.48	0.266
3101.51	0.26
3110.54	0.26
3119.57	0.256
3128.6	0.252
3137.63	0.251
3146.66	0.25
3155.69	0.25
3164.72	0.251
3173.75	0.251
3182.78	0.249
3191.82	0.247
3200.85	0.258
3209.88	0.286
3218.91	0.321
3227.94	0.361
3236.97	0.394
3246	0.417
3255.03	0.426
3264.06	0.425
3273.09	0.414
3282.12	0.391
3291.15	0.364
3300.18	0.339
3309.21	0.314
3318.25	0.313
3327.28	0.321
3336.31	0.35
3345.34	0.397
3354.37	0.438
3363.4	0.455
3372.43	0.452
3381.46	0.436
3390.49	0.416
3399.52	0.404
3408.55	0.412
3417.58	0.455
3426.61	0.492
3435.64	0.521
3444.68	0.5
3453.71	0.469
3462.74	0.484
3471.77	0.521
3480.8	0.545
3489.83	0.556
3498.86	0.555
3507.89	0.55
3516.92	0.547
3525.95	0.548
3534.98	0.562
3544.01	0.59
3553.04	0.614
3562.07	0.634
3571.11	0.653
3580.14	0.672
3589.17	0.691
3598.2	0.706
3607.23	0.713
3616.26	0.711
3625.29	0.702
3634.32	0.685
3643.35	0.717
3652.38	0.743
3661.41	0.758
3670.44	0.76
3679.47	0.761
3688.5	0.761
3697.54	0.76
3706.57	0.759
3715.6	0.758
3724.63	0.757
3733.66	0.755
3742.69	0.754
3751.72	0.752
3760.75	0.75
3769.78	0.748
3778.81	0.746
3787.84	0.744
3796.87	0.741
3805.9	0.739
