Infrared Spectrum: 5-Ethyl-5-methylhydantoin
Formula: C 6 H 10 N 2 O 2
CAS: 16820-12-5
State: gas
Origin: EPA-IR VAPOR PHASE LIBRARY
1/CM	ABSORBANCE
549.8	0.008609
559.445	0.012129
569.09	0.012499
578.734	0.009019
588.379	0.005609
598.024	0.003709
607.669	0.002519
617.313	0.002069
626.958	0.002319
636.603	0.001689
646.248	0.0008999
655.893	0.0005929
665.537	0.0007019
675.182	0.0005822
684.827	0.0007484
694.472	0.0007667
704.116	0.0011077
713.761	0.001589
723.406	0.002309
733.051	0.002969
742.695	0.003239
752.34	0.003759
761.985	0.002979
771.63	0.002189
781.275	0.001529
790.919	0.001379
800.564	0.0010523
810.209	0.001219
819.854	0.0009933
829.498	0.0005922
839.143	0.0006155
848.788	0.000458
858.433	0.0004452
868.078	0.0004307
877.722	0.0005777
887.367	0.0008643
897.012	0.0008137
906.657	0.0009543
916.301	0.0006409
925.946	0.0006406
935.591	0.0009308
945.236	0.001709
954.88	0.002229
964.525	0.003009
974.17	0.004199
983.815	0.004139
993.46	0.002859
1003.1	0.002079
1012.75	0.002179
1022.39	0.001959
1032.04	0.001669
1041.68	0.001359
1051.33	0.001409
1060.97	0.0009997
1070.62	0.0010255
1080.26	0.001539
1089.91	0.002309
1099.55	0.002919
1109.2	0.003419
1118.84	0.004649
1128.49	0.004029
1138.13	0.003259
1147.78	0.002259
1157.42	0.001859
1167.07	0.001919
1176.71	0.002059
1186.36	0.002199
1196	0.003049
1205.64	0.002819
1215.29	0.002589
1224.93	0.003549
1234.58	0.003939
1244.22	0.003889
1253.87	0.003049
1263.51	0.002559
1273.16	0.003279
1282.8	0.004659
1292.45	0.006619
1302.09	0.007539
1311.74	0.007279
1321.38	0.007069
1331.03	0.007409
1340.67	0.007359
1350.32	0.008979
1359.96	0.013739
1369.61	0.016569
1379.25	0.014069
1388.9	0.010279
1398.54	0.006629
1408.18	0.003209
1417.83	0.001419
1427.47	0.0010743
1437.12	0.001219
1446.76	0.001809
1456.41	0.002619
1466.05	0.002789
1475.7	0.001909
1485.34	0.001159
1494.99	0.000928
1504.63	0.0008922
1514.28	0.000859
1523.92	0.0008447
1533.57	0.0007627
1543.21	0.0006191
1552.86	0.0004795
1562.5	0.0004992
1572.15	0.0004768
1581.79	0.0004412
1591.44	0.0004476
1601.08	0.0003857
1610.73	0.0004052
1620.37	0.000513
1630.01	0.0004359
1639.66	0.0005933
1649.3	0.0005016
1658.95	0.0007509
1668.59	0.0007623
1678.24	0.0008504
1687.88	0.001129
1697.53	0.001409
1707.17	0.001849
1716.82	0.002649
1726.46	0.004449
1736.11	0.007929
1745.75	0.015219
1755.4	0.036749
1765.04	0.084549
1774.69	0.106929
1784.33	0.069199
1793.98	0.030269
1803.62	0.036009
1813.27	0.033889
1822.91	0.015279
1832.55	0.004819
1842.2	0.003039
1851.84	0.002359
1861.49	0.001859
1871.13	0.001549
1880.78	0.001329
1890.42	0.0011105
1900.07	0.0010929
1909.71	0.0010884
1919.36	0.001129
1929	0.001319
1938.65	0.001399
1948.29	0.001459
1957.94	0.001239
1967.58	0.0008892
1977.23	0.0006695
1986.87	0.0005107
1996.52	0.0004797
2006.16	0.0004175
2015.81	0.0003618
2025.45	0.0004022
2035.1	0.0003408
2044.74	0.0002662
2054.38	0.0002946
2064.03	0.000231
2073.67	0.0002583
2083.32	0.0002385
2092.96	0.0003081
2102.61	0.0002818
2112.25	0.0002622
2121.9	0.0002852
2131.54	0.00022778
2141.19	0.0001774
2150.83	0.00022642
2160.48	0.00018546
2170.12	0.00014425
2179.77	0.00020032
2189.41	0.00015631
2199.06	0.00020623
2208.7	0.0002497
2218.35	0.00022132
2227.99	0.0002327
2237.64	0.0003281
2247.28	0.000233
2256.92	0.0002406
2266.57	0.00018981
2276.21	0.0002507
2285.86	0.0003142
2295.5	0.00017926
2305.15	0.00020528
2314.79	0.0002924
2324.44	0.0002723
2334.08	0.0002918
2343.73	0.000308
2353.37	0.0002821
2363.02	0.0002734
2372.66	0.00020141
2382.31	0.0002953
2391.95	0.0003259
2401.6	0.0003718
2411.24	0.0003827
2420.89	0.0002842
2430.53	0.0003376
2440.18	0.00020651
2449.82	0.0003701
2459.47	0.0003033
2469.11	0.0002347
2478.75	0.00021892
2488.4	0.0002465
2498.04	0.00021237
2507.69	0.0002613
2517.33	0.000289
2526.98	0.0002467
2536.62	0.00022345
2546.27	0.00017134
2555.91	0.0001452
2565.56	0.0002374
2575.2	0.00016594
2584.85	0.0002461
2594.49	0.0002706
2604.14	0.0002928
2613.78	0.0003127
2623.43	0.00022778
2633.07	0.00022229
2642.72	0.0002332
2652.36	0.0002525
2662.01	0.0003279
2671.65	0.0002721
2681.29	0.000253
2690.94	0.0002195
2700.58	0.0002689
2710.23	0.0002764
2719.87	0.0002457
2729.52	0.00020696
2739.16	0.0002513
2748.81	0.0002966
2758.45	0.0003107
2768.1	0.0003469
2777.74	0.0002533
2787.39	0.0002729
2797.03	0.0003697
2806.68	0.0003199
2816.32	0.0003392
2825.97	0.0003507
2835.61	0.0004333
2845.26	0.0005906
2854.9	0.0009088
2864.55	0.001219
2874.19	0.001709
2883.84	0.001959
2893.48	0.002319
2903.12	0.002349
2912.77	0.002499
2922.41	0.003079
2932.06	0.003739
2941.7	0.004289
2951.35	0.003829
2960.99	0.003539
2970.64	0.005329
2980.28	0.007979
2989.93	0.006419
2999.57	0.003109
3009.22	0.001139
3018.86	0.0006192
3028.51	0.0006231
3038.15	0.0003475
3047.8	0.0005338
3057.44	0.0004761
3067.09	0.0003923
3076.73	0.0003452
3086.38	0.0005228
3096.02	0.000545
3105.67	0.0004597
3115.31	0.000414
3124.95	0.0004912
3134.6	0.0004029
3144.24	0.0004653
3153.89	0.0004455
3163.53	0.0004051
3173.18	0.0004206
3182.82	0.00015183
3192.47	0.0002598
3202.11	0.0002939
3211.76	0.0003341
3221.4	0.0002973
3231.05	0.00017769
3240.69	0.000269
3250.34	0.00017777
3259.98	0.00021621
3269.63	0.0002597
3279.27	0.000138703
3288.92	0.00020937
3298.56	0.00018465
3308.21	0.00015347
3317.85	0.0002392
3327.49	0.0003254
3337.14	0.00018253
3346.78	0.00020182
3356.43	9.02e-05
3366.07	8.82e-05
3375.72	0.00021125
3385.36	0.0003783
3395.01	0.0003249
3404.65	0.0003289
3414.3	0.0003524
3423.94	0.0003619
3433.59	0.0003188
3443.23	0.000777
3452.88	0.002369
3462.52	0.005509
3472.17	0.010479
3481.81	0.012799
3491.46	0.008729
3501.1	0.003009
3510.75	0.0009538
3520.39	0.0005542
3530.04	0.0008575
3539.68	0.0008959
3549.32	0.0008852
3558.97	0.0008916
3568.61	0.0008538
3578.26	0.0007208
3587.9	0.0006238
3597.55	0.000373
3607.19	0.0004909
3616.84	0.0003955
3626.48	0.0003854
3636.13	0.0002333
3645.77	0.000277
3655.42	0.00015297
3665.06	0.00022642
3674.71	0.00011939
3684.35	0.0002339
3694	0.00019824
3703.64	0.00016302
3713.29	0.00021929
3722.93	0.0002469
3732.58	0.00017045
3742.22	7.22e-05
3751.86	0.0002439
3761.51	0.00018558
3771.15	0.0001106
3780.8	0.00017416
3790.44	0.0003136
3800.09	0.000231
3809.73	0.00019448
3819.38	0.0002593
3829.02	0.00017255
3838.67	0.0003844
3848.31	2.2e-05
3857.96	0.000261
3867.6	0.0002856
3877.25	0.0001097
3886.89	0.00022607
3896.54	0.00014786
3906.18	0.0002917
3915.83	0.0002423
3925.47	0.0002367
3935.12	0.0002726
3944.76	0.0003567
3954.41	0.0002771
3964.05	0.00018551
3973.69	0.0002365
3983.34	0.0003083
3992.98	0.00020572
