Infrared Spectrum: 3-ETHOXYPHTHALIDE
Formula: C10 H10 O3
CAS: 16824-02-5
State: SOLID (NUJOL MULL)
Class: COBLENTZ
Instrument: Not specified, most likely a prism, grating, or hybrid spectrometer.
Sampling: TRANSMISSION
Resolution: 4
Origin: DOW CHEMICAL COMPANY
MICROMETERS	TRANSMITTANCE
2.015	0.778
2.05004	0.781
2.08508	0.79
2.12011	0.79
2.15515	0.792
2.19019	0.795
2.22523	0.791
2.26027	0.785
2.2953	0.783
2.33034	0.79
2.36538	0.791
2.40042	0.792
2.43546	0.8
2.47049	0.807
2.50553	0.815
2.54057	0.816
2.57561	0.812
2.61065	0.815
2.64568	0.819
2.68072	0.811
2.71576	0.815
2.7508	0.793
2.78584	0.762
2.82087	0.741
2.85591	0.727
2.89095	0.717
2.92599	0.714
2.96103	0.724
2.99606	0.734
3.0311	0.746
3.06614	0.748
3.10118	0.753
3.13622	0.762
3.17126	0.765
3.20629	0.766
3.24133	0.76
3.27637	0.746
3.31141	0.723
3.34645	0.506
3.38148	0.155
3.41652	0.104
3.45156	0.236
3.4866	0.288
3.52164	0.621
3.55667	0.778
3.59171	0.817
3.62675	0.822
3.66179	0.825
3.69683	0.83
3.73186	0.834
3.7669	0.84
3.80194	0.849
3.83698	0.856
3.87202	0.863
3.90705	0.866
3.94209	0.868
3.97713	0.869
4.01217	0.875
4.04721	0.881
4.08224	0.881
4.11728	0.876
4.15232	0.889
4.18736	0.876
4.2224	0.864
4.25743	0.864
4.29247	0.879
4.32751	0.883
4.36255	0.885
4.39759	0.888
4.43262	0.89
4.46766	0.893
4.5027	0.894
4.53774	0.895
4.57278	0.895
4.60781	0.894
4.64285	0.893
4.67789	0.896
4.71293	0.894
4.74797	0.889
4.783	0.898
4.81804	0.895
4.85308	0.894
4.88812	0.898
4.92316	0.902
4.95819	0.899
4.99323	0.893
5.02827	0.884
5.06331	0.876
5.09835	0.883
5.13339	0.888
5.16842	0.885
5.20346	0.89
5.2385	0.899
5.27354	0.895
5.30858	0.893
5.34361	0.885
5.37865	0.879
5.41369	0.861
5.44873	0.853
5.48377	0.817
5.5188	0.721
5.55384	0.542
5.58888	0.187
5.62392	0.208
5.65896	0.633
5.69399	0.785
5.72903	0.817
5.76407	0.83
5.79911	0.842
5.83415	0.855
5.86918	0.849
5.90422	0.827
5.93926	0.83
5.9743	0.839
6.00934	0.842
6.04437	0.832
6.07941	0.839
6.11445	0.819
6.14949	0.797
6.18453	0.775
6.21956	0.797
6.2546	0.815
6.28964	0.816
6.32468	0.817
6.35972	0.821
6.39475	0.811
6.42979	0.832
6.46483	0.839
6.49987	0.863
6.53491	0.863
6.56994	0.858
6.60498	0.861
6.64002	0.845
6.67506	0.787
6.7101	0.804
6.74513	0.693
6.78017	0.496
6.81521	0.449
6.85025	0.548
6.88529	0.592
6.92032	0.704
6.95536	0.8
6.9904	0.792
7.02544	0.695
7.06048	0.713
7.09552	0.792
7.13055	0.786
7.16559	0.746
7.20063	0.653
7.23567	0.565
7.27071	0.494
7.30574	0.435
7.34078	0.526
7.37582	0.68
7.41086	0.667
7.4459	0.757
7.48093	0.802
7.51597	0.802
7.55101	0.741
7.58605	0.674
7.62109	0.77
7.65612	0.776
7.69116	0.664
7.7262	0.525
7.76124	0.772
7.79628	0.787
7.83131	0.8
7.86635	0.837
7.90139	0.854
7.93643	0.864
7.97147	0.864
8.0065	0.864
8.04154	0.864
8.07658	0.86
8.11162	0.851
8.14666	0.802
8.18169	0.684
8.21673	0.566
8.25177	0.566
8.28681	0.653
8.32185	0.791
8.35688	0.821
8.39192	0.825
8.42696	0.82
8.462	0.806
8.49704	0.776
8.53207	0.714
8.56711	0.603
8.60215	0.535
8.63719	0.552
8.67223	0.586
8.70726	0.496
8.7423	0.391
8.77734	0.5
8.81238	0.692
8.84742	0.728
8.88245	0.683
8.91749	0.604
8.95253	0.603
8.98757	0.62
9.02261	0.586
9.05765	0.616
9.09268	0.576
9.12772	0.439
9.16276	0.366
9.1978	0.525
9.23284	0.662
9.26787	0.732
9.30291	0.742
9.33795	0.729
9.37299	0.678
9.40803	0.565
9.44306	0.356
9.4781	0.198
9.51314	0.33
9.54818	0.545
9.58322	0.638
9.61825	0.658
9.65329	0.63
9.68833	0.708
9.72337	0.766
9.75841	0.791
9.79344	0.806
9.82848	0.757
9.86352	0.703
9.89856	0.825
9.9336	0.844
9.96863	0.859
10.0037	0.861
10.0387	0.854
10.0737	0.844
10.1088	0.85
10.1438	0.859
10.1789	0.861
10.2139	0.864
10.2489	0.865
10.284	0.856
10.319	0.82
10.3541	0.78
10.3891	0.806
10.4241	0.82
10.4592	0.791
10.4942	0.732
10.5292	0.641
10.5643	0.445
10.5993	0.297
10.6344	0.221
10.6694	0.307
10.7044	0.487
10.7395	0.628
10.7745	0.682
10.8095	0.658
10.8446	0.683
10.8796	0.761
10.9147	0.791
10.9497	0.812
10.9847	0.822
11.0198	0.83
11.0548	0.837
11.0899	0.84
11.1249	0.842
11.1599	0.837
11.195	0.835
11.23	0.831
11.265	0.819
11.3001	0.772
11.3351	0.722
11.3702	0.741
11.4052	0.767
11.4402	0.748
11.4753	0.667
11.5103	0.621
11.5453	0.736
11.5804	0.783
11.6154	0.797
11.6505	0.805
11.6855	0.811
11.7205	0.812
11.7556	0.812
11.7906	0.809
11.8256	0.809
11.8607	0.809
11.8957	0.807
11.9308	0.805
11.9658	0.802
12.0008	0.8
12.0359	0.797
12.0709	0.795
12.106	0.792
12.141	0.788
12.176	0.781
12.2111	0.782
12.2461	0.788
12.2811	0.79
12.3162	0.79
12.3512	0.79
12.3863	0.78
12.4213	0.753
12.4563	0.727
12.4914	0.746
12.5264	0.77
12.5614	0.772
12.5965	0.77
12.6315	0.76
12.6666	0.741
12.7016	0.704
12.7366	0.708
12.7717	0.738
12.8067	0.757
12.8418	0.765
12.8768	0.77
12.9118	0.771
12.9469	0.768
12.9819	0.767
13.0169	0.761
13.052	0.758
13.087	0.752
13.1221	0.744
13.1571	0.731
13.1921	0.708
13.2272	0.668
13.2622	0.61
13.2972	0.482
13.3323	0.325
13.3673	0.199
13.4024	0.257
13.4374	0.473
13.4724	0.614
13.5075	0.684
13.5425	0.708
13.5776	0.718
13.6126	0.721
13.6476	0.722
13.6827	0.719
13.7177	0.712
13.7527	0.704
13.7878	0.699
13.8228	0.685
13.8579	0.673
13.8929	0.648
13.9279	0.574
13.963	0.454
13.998	0.383
14.033	0.452
14.0681	0.561
14.1031	0.62
14.1382	0.65
14.1732	0.659
14.2082	0.663
14.2433	0.659
14.2783	0.653
14.3134	0.643
14.3484	0.626
14.3834	0.597
14.4185	0.551
14.4535	0.483
14.4885	0.425
14.5236	0.419
14.5586	0.457
14.5937	0.516
14.6287	0.547
14.6637	0.56
14.6988	0.565
14.7338	0.565
14.7688	0.565
14.8039	0.562
14.8389	0.556
14.874	0.545
14.909	0.532
14.944	0.531
14.9791	0.545
15.0141	0.542
15.0491	0.527
15.0842	0.518
15.1192	0.511
15.1543	0.507
15.1893	0.501
15.2243	0.494
15.2594	0.489
15.2944	0.484
15.3295	0.478
15.3645	0.471
15.3995	0.462
15.4346	0.453
15.4696	0.444
15.5046	0.434
15.5397	0.423
15.5747	0.409
15.6098	0.39
15.6448	0.375
15.6798	0.365
15.7149	0.36
15.7499	0.358
15.7849	0.358
15.82	0.36
15.855	0.359
15.8901	0.365
15.9251	0.38
