Infrared Spectrum: 2-Methoxythiophene
Formula: C 5 H 6 O S
CAS: 16839-97-7
State: gas
Instrument: HP-GC/MS/IRD
Origin: NIST Mass Spectrometry Data Center
1/CM	ABSORBANCE
550	0.0004396
562	0.000427
574	0.0003157
586	0.0003612
598	0.0003206
610	0.0002198
622	0.0001806
634	0.0003885
646	0.0014441
658	0.0030562
670	0.0058807
682	0.0035994
694	0.0018921
706	0.0006671
718	0.0006055
730	0.0005901
742	0.0004158
754	0.00035
766	0.0004613
778	0.0007182
790	0.0008799
802	0.0009198
814	0.0007917
826	0.0008302
838	0.0010598
850	0.0010465
862	0.0003927
874	0.0001267
886	2.17e-05
898	8.68e-05
910	3.29e-05
922	8.05e-05
934	0.0001715
946	0.0003213
958	0.0003829
970	0.0006244
982	0.0010255
994	0.0016555
1006	0.0020328
1018	0.0018697
1030	0.0016247
1042	0.0012845
1054	0.0008911
1066	0.0006692
1078	0.0012488
1090	0.0012075
1102	0.000665
1114	0.000539
1126	0.0007798
1138	0.0014021
1150	0.0024108
1162	0.0031983
1174	0.0036092
1186	0.0047124
1198	0.0066675
1210	0.0068243
1222	0.0051303
1234	0.0043708
1246	0.0033327
1258	0.0017486
1270	0.0009702
1282	0.0006762
1294	0.0005208
1306	0.0004158
1318	0.0004606
1330	0.0006909
1342	0.0008813
1354	0.0009289
1366	0.0007364
1378	0.0004823
1390	0.000525
1402	0.0013076
1414	0.0036008
1426	0.0048755
1438	0.0040628
1450	0.0031934
1462	0.0041412
1474	0.0037464
1486	0.0020174
1498	0.0007539
1510	0.0008155
1522	0.0021007
1534	0.0049014
1546	0.0064057
1558	0.0044583
1570	0.0016436
1582	0.000588
1594	0.000392
1606	0.0002485
1618	0.0002065
1630	0.0001841
1642	0.0001715
1654	0.000175
1666	0.0001715
1678	0.0001708
1690	0.000161
1702	0.0001449
1714	0.00014
1726	0.0001687
1738	0.000224
1750	0.0002779
1762	0.000308
1774	0.0002023
1786	0.0001435
1798	0.0001162
1810	0.0001029
1822	0.0001036
1834	6.02e-05
1846	6.65e-05
1858	6.93e-05
1870	0.0001001
1882	9.73e-05
1894	8.75e-05
1906	9.38e-05
1918	9.1e-05
1930	9.59e-05
1942	8.05e-05
1954	0.0001162
1966	0.0001183
1978	0.0001316
1990	0.0001407
2002	0.0001162
2014	0.0001309
2026	8.54e-05
2038	5.6e-05
2050	8.4e-06
2062	3.64e-05
2074	2.45e-05
2086	8.4e-06
2098	4.13e-05
2110	4.69e-05
2122	4.27e-05
2134	2.8e-05
2146	4.55e-05
2158	7e-05
2170	7e-05
2182	6.23e-05
2194	5.74e-05
2206	9.1e-05
2218	8.05e-05
2230	6.51e-05
2242	9.31e-05
2254	2.94e-05
2266	6.65e-05
2278	4.13e-05
2290	4.69e-05
2302	6.3e-06
2314	4.48e-05
2326	6.3e-05
2338	2.38e-05
2350	7e-07
2362	5.95e-05
2374	2.52e-05
2386	1.89e-05
2398	3.78e-05
2410	2.1e-06
2422	5.6e-05
2434	8.75e-05
2446	6.23e-05
2458	7.49e-05
2470	6.58e-05
2482	9.52e-05
2494	4.2e-05
2506	4.13e-05
2518	1.26e-05
2530	2.1e-05
2542	3.64e-05
2554	2.1e-05
2566	6.02e-05
2578	3.43e-05
2590	6.51e-05
2602	1.75e-05
2614	4.27e-05
2626	6.51e-05
2638	5.74e-05
2650	3.29e-05
2662	9.17e-05
2674	8.33e-05
2686	7.77e-05
2698	6.72e-05
2710	9.17e-05
2722	7.35e-05
2734	5.81e-05
2746	0.0001022
2758	0.0001092
2770	0.0001022
2782	9.87e-05
2794	0.0001624
2806	0.0001701
2818	0.0004361
2830	0.0006727
2842	0.0007637
2854	0.0006699
2866	0.0007203
2878	0.0007028
2890	0.0007378
2902	0.0008736
2914	0.0009919
2926	0.0011711
2938	0.0017612
2950	0.0019817
2962	0.0018046
2974	0.0012019
2986	0.0010185
2998	0.0011172
3010	0.0014203
3022	0.0012229
3034	0.0005873
3046	0.0003437
3058	0.0003654
3070	0.0005488
3082	0.0007497
3094	0.0007273
3106	0.0004627
3118	0.0003514
3130	0.000217
3142	0.0002121
3154	0.000126
3166	0.0001575
3178	7.84e-05
3190	6.72e-05
3202	5.18e-05
3214	3.22e-05
3226	5.25e-05
3238	0.0001197
3250	8.47e-05
3262	5.39e-05
3274	7.14e-05
3286	8.61e-05
3298	1.68e-05
3310	8.26e-05
3322	3.08e-05
3334	0.0001372
3346	0.000112
3358	9.03e-05
3370	0.0001106
3382	0.0001099
3394	6.44e-05
3406	8.68e-05
3418	7.35e-05
3430	0.0001036
3442	0.0001344
3454	0.0001099
3466	6.72e-05
3478	0.0001477
3490	0.0001337
3502	0.0001638
3514	0.0001309
3526	0.0001484
3538	8.33e-05
3550	9.73e-05
3562	8.75e-05
3574	0.0001176
3586	0.0001295
3598	7.28e-05
3610	3.92e-05
3622	9.8e-05
3634	0.0001337
3646	0.0001386
3658	6.23e-05
3670	9.94e-05
3682	0.0001183
3694	7.84e-05
3706	8.12e-05
3718	0.0001316
3730	9.03e-05
3742	0.0001043
3754	0.0001645
3766	0.0001281
3778	7.91e-05
3790	0.0001316
3802	0.0001778
3814	0.0001183
3826	0.000147
3838	0.0001519
