Infrared Spectrum: {p-[Bis(2-hydroxyethyl)amino]benzyl}phosphonic acid, diethyl ester
Formula: C15 H26 N O5 P
CAS: 16834-57-4
State: LIQUID (NEAT)
Class: COBLENTZ II
Instrument: DOW KBr FOREPRISM-GRATING
Instrument parameters: BLAZED AT 3.5, 12.0, 20.0 MICRON AND CHANGED AT 5.0, 7.5, 14.9 MICRON
Sampling: TRANSMISSION
Path length: CAPILLARY
Resolution: 2
Origin: DOW CHEMICAL COMPANY
1/CM	TRANSMITTANCE
3800	0.9002
3791	0.8997
3782	0.8992
3773	0.8986
3764	0.8994
3755	0.9
3746	0.9004
3737	0.9006
3728	0.901
3719	0.9016
3710	0.9021
3701	0.9011
3692	0.8968
3683	0.897
3674	0.8978
3665	0.8973
3656	0.8961
3647	0.8943
3638	0.8951
3629	0.8896
3620	0.8865
3611	0.8813
3602	0.8736
3593	0.8625
3584	0.85
3575	0.8378
3566	0.8249
3557	0.8094
3548	0.7917
3539	0.7738
3530	0.756
3521	0.7364
3512	0.7135
3503	0.6858
3494	0.6512
3485	0.6107
3476	0.5536
3467	0.5175
3458	0.4901
3449	0.4537
3440	0.4103
3431	0.3788
3422	0.3547
3413	0.3334
3404	0.31
3395	0.2941
3386	0.2856
3377	0.2834
3368	0.2848
3359	0.2881
3350	0.2924
3341	0.2984
3332	0.3057
3323	0.3134
3314	0.3214
3305	0.3314
3296	0.3414
3287	0.3512
3278	0.3609
3269	0.3721
3260	0.3844
3251	0.3964
3242	0.4084
3233	0.4231
3224	0.4405
3215	0.4596
3206	0.4794
3197	0.5002
3188	0.5228
3179	0.5479
3170	0.5732
3161	0.5966
3152	0.6181
3143	0.6382
3134	0.6568
3125	0.6745
3116	0.6915
3107	0.7034
3098	0.7021
3089	0.7048
3080	0.7108
3071	0.7138
3062	0.7275
3053	0.7336
3044	0.7285
3035	0.6971
3026	0.7051
3017	0.6964
3008	0.6406
2999	0.5593
2990	0.411
2981	0.3792
2972	0.3886
2963	0.4104
2954	0.41
2945	0.403
2936	0.3973
2927	0.4007
2918	0.3987
2909	0.3771
2900	0.377
2891	0.4025
2882	0.4068
2873	0.4121
2864	0.4522
2855	0.4844
2846	0.531
2837	0.5757
2828	0.6238
2819	0.6739
2810	0.6996
2801	0.7184
2792	0.7386
2783	0.755
2774	0.7701
2765	0.7808
2756	0.7875
2747	0.7925
2738	0.7971
2729	0.8006
2720	0.8041
2711	0.8074
2702	0.8105
2693	0.8136
2684	0.8167
2675	0.8198
2666	0.8228
2657	0.8263
2648	0.8299
2639	0.8336
2630	0.8357
2621	0.8375
2612	0.8388
2603	0.8405
2594	0.8423
2585	0.8442
2576	0.8464
2567	0.8503
2558	0.8541
2549	0.8568
2540	0.8568
2531	0.8568
2522	0.8574
2513	0.8591
2504	0.861
2495	0.8623
2486	0.8613
2477	0.8607
2468	0.8618
2459	0.8637
2450	0.8657
2441	0.868
2432	0.8708
2423	0.8735
2414	0.8763
2405	0.8795
2396	0.8828
2387	0.8858
2378	0.8878
2369	0.8899
2360	0.892
2351	0.8936
2342	0.8938
2333	0.8938
2324	0.8937
2315	0.8939
2306	0.8943
2297	0.8945
2288	0.8939
2279	0.8933
2270	0.8928
2261	0.8923
2252	0.8923
2243	0.8927
2234	0.8939
2225	0.8949
2216	0.8951
2207	0.8952
2198	0.8953
2189	0.8954
2180	0.8956
2171	0.8956
2162	0.8958
2153	0.8958
2144	0.8958
2135	0.8957
2126	0.8941
2117	0.8923
2108	0.8906
2099	0.8889
2090	0.8874
2081	0.8875
2072	0.8883
2063	0.8908
2054	0.8925
2045	0.8941
2036	0.8958
2027	0.8974
2018	0.899
2009	0.9003
2000	0.9001
1991	0.8909
1982	0.8878
1973	0.8861
1964	0.8848
1955	0.8831
1946	0.8836
1937	0.8809
1928	0.8789
1919	0.8778
1910	0.8775
1901	0.8742
1892	0.8708
1883	0.8658
1874	0.8654
1865	0.8691
1856	0.8736
1847	0.8777
1838	0.8803
1829	0.8825
1820	0.8837
1811	0.884
1802	0.8833
1793	0.8816
1784	0.879
1775	0.8756
1766	0.8708
1757	0.8638
1748	0.8483
1739	0.8151
1730	0.8068
1721	0.8418
1712	0.8594
1703	0.8665
1694	0.8699
1685	0.8708
1676	0.8707
1667	0.8691
1658	0.8642
1649	0.8543
1640	0.834
1631	0.7575
1622	0.465
1613	0.2984
1604	0.5402
1595	0.7706
1586	0.8215
1577	0.8267
1568	0.7417
1559	0.7822
1550	0.7957
1541	0.6756
1532	0.4408
1523	0.0871
1514	0.3264
1505	0.6102
1496	0.6821
1487	0.6718
1478	0.5705
1469	0.5798
1460	0.5723
1451	0.5418
1442	0.524
1433	0.5898
1424	0.6014
1415	0.6038
1406	0.5074
1397	0.3827
1388	0.3529
1379	0.4517
1370	0.4236
1361	0.34
1352	0.4592
1343	0.5348
1334	0.5475
1325	0.6196
1316	0.6431
1307	0.6319
1298	0.5968
1289	0.5227
1280	0.5107
1271	0.4093
1262	0.3826
1253	0.353
1244	0.3055
1235	0.2366
1226	0.204
1217	0.2392
1208	0.3063
1199	0.2882
1190	0.268
1181	0.3666
1172	0.4155
1163	0.3929
1154	0.4878
1145	0.5731
1136	0.6551
1127	0.6619
1118	0.6074
1109	0.5205
1100	0.4324
1091	0.4386
1082	0.3754
1073	0.2632
1064	0.1596
1055	0.092
1046	0.0943
1037	0.1106
1028	0.0908
1019	0.1368
1010	0.2781
1001	0.4323
992	0.479
983	0.4045
974	0.2222
965	0.191
956	0.2175
947	0.2623
938	0.3808
929	0.5123
920	0.6458
911	0.6843
902	0.7008
893	0.7501
884	0.7681
875	0.7704
866	0.7485
857	0.552
848	0.3688
839	0.4132
830	0.3928
821	0.3607
812	0.5079
803	0.5847
794	0.588
785	0.5424
776	0.5304
767	0.6123
758	0.6934
749	0.7258
740	0.7205
731	0.6547
722	0.6592
713	0.668
704	0.6765
695	0.6792
686	0.6771
677	0.6691
668	0.6615
659	0.6558
650	0.6512
641	0.6304
632	0.6399
623	0.6472
614	0.6494
605	0.6475
596	0.6422
587	0.6218
578	0.5524
569	0.4889
560	0.4839
551	0.5116
542	0.5174
533	0.4446
524	0.4938
515	0.5364
506	0.5493
497	0.5858
488	0.5976
479	0.6192
470	0.64
461	0.6518
