Infrared Spectrum: 10-Nonadecanol
Formula: C 19 H 40 O
CAS: 16840-84-9
State: gas
Instrument: HP-GC/MS/IRD
Origin: NIST Mass Spectrometry Data Center
1/CM	ABSORBANCE
550	0.00057
562	0.0002475
574	0.00024
586	0.000195
598	0.00012
610	6e-05
622	5.25e-05
634	0.000105
646	5.25e-05
658	6.75e-05
670	4.5e-05
682	6.75e-05
694	0.0002025
706	0.00057
718	0.0009825
730	0.000915
742	0.000705
754	0.0005625
766	0.000495
778	0.0003825
790	0.0003525
802	0.0003225
814	0.00036
826	0.0003
838	0.0003675
850	0.0005025
862	0.00054
874	0.0006675
886	0.0006975
898	0.0007575
910	0.0008325
922	0.0007725
934	0.0008475
946	0.0011175
958	0.0012675
970	0.001365
982	0.0015975
994	0.00225
1006	0.0027825
1018	0.0025125
1030	0.00219
1042	0.002055
1054	0.00228
1066	0.00243
1078	0.0022725
1090	0.001905
1102	0.0016575
1114	0.00174
1126	0.0018975
1138	0.001485
1150	0.001155
1162	0.00123
1174	0.0012825
1186	0.0013575
1198	0.00141
1210	0.00153
1222	0.001665
1234	0.001785
1246	0.001905
1258	0.0018675
1270	0.0018525
1282	0.0017625
1294	0.0017925
1306	0.001845
1318	0.0017025
1330	0.001815
1342	0.002415
1354	0.0029475
1366	0.0030975
1378	0.003105
1390	0.0026475
1402	0.0018225
1414	0.001365
1426	0.0015225
1438	0.0026025
1450	0.00441
1462	0.005715
1474	0.00354
1486	0.001515
1498	0.00081
1510	0.000495
1522	0.00036
1534	0.0002775
1546	0.00018
1558	0.000135
1570	0.00012
1582	0.000135
1594	0.000105
1606	0.000105
1618	5.25e-05
1630	6e-05
1642	4.5e-05
1654	1.5e-05
1666	6.75e-05
1678	2.25e-05
1690	3e-05
1702	1.5e-05
1714	1.5e-05
1726	1.5e-05
1738	0
1750	7.5e-06
1762	3e-05
1774	7.5e-06
1786	0
1798	1.5e-05
1810	4.5e-05
1822	3.75e-05
1834	3.75e-05
1846	1.5e-05
1858	3.75e-05
1870	6e-05
1882	3.75e-05
1894	4.5e-05
1906	2.25e-05
1918	3.75e-05
1930	2.25e-05
1942	3e-05
1954	3.75e-05
1966	4.5e-05
1978	3.75e-05
1990	6.75e-05
2002	5.25e-05
2014	8.25e-05
2026	9e-05
2038	0.0001125
2050	9e-05
2062	6e-05
2074	6.75e-05
2086	6e-05
2098	5.25e-05
2110	3.75e-05
2122	3.75e-05
2134	3.75e-05
2146	6e-05
2158	5.25e-05
2170	5.25e-05
2182	4.5e-05
2194	6e-05
2206	4.5e-05
2218	3e-05
2230	3e-05
2242	3.75e-05
2254	3.75e-05
2266	4.5e-05
2278	4.5e-05
2290	5.25e-05
2302	5.25e-05
2314	6e-05
2326	4.5e-05
2338	5.25e-05
2350	6.75e-05
2362	4.5e-05
2374	6e-05
2386	6e-05
2398	6e-05
2410	6e-05
2422	4.5e-05
2434	6e-05
2446	3.75e-05
2458	6e-05
2470	4.5e-05
2482	8.25e-05
2494	7.5e-05
2506	6.75e-05
2518	0.00012
2530	0.00015
2542	0.00015
2554	0.0001875
2566	0.00021
2578	0.000255
2590	0.0002625
2602	0.00036
2614	0.0003975
2626	0.0004275
2638	0.000495
2650	0.000585
2662	0.00066
2674	0.000735
2686	0.0007725
2698	0.000735
2710	0.000705
2722	0.00072
2734	0.000795
2746	0.0009225
2758	0.00099
2770	0.00111
2782	0.0013275
2794	0.00177
2806	0.0022725
2818	0.00315
2830	0.0046725
2842	0.0082125
2854	0.0189075
2866	0.02823
2878	0.02094
2890	0.0176025
2902	0.0216825
2914	0.03531
2926	0.0630375
2938	0.0701775
2950	0.038775
2962	0.0260025
2974	0.01836
2986	0.0081825
2998	0.004575
3010	0.003
3022	0.0021225
3034	0.001605
3046	0.00123
3058	0.0009975
3070	0.00081
3082	0.0006825
3094	0.00057
3106	0.000495
3118	0.0004275
3130	0.000405
3142	0.000315
3154	0.0003075
3166	0.0002625
3178	0.0002325
3190	0.0002025
3202	0.000195
3214	0.000135
3226	0.0001125
3238	9.75e-05
3250	9e-05
3262	4.5e-05
3274	6e-05
3286	5.25e-05
3298	4.5e-05
3310	5.25e-05
3322	3e-05
3334	5.25e-05
3346	6e-05
3358	7.5e-05
3370	6.75e-05
3382	0.000135
3394	0.00012
3406	9e-05
3418	0.00012
3430	0.0001425
3442	0.0001275
3454	0.000105
3466	0.000105
3478	6.75e-05
3490	6.75e-05
3502	6.75e-05
3514	6.75e-05
3526	6.75e-05
3538	0.0001125
3550	0.000105
3562	9e-05
3574	0.0001125
3586	0.0001575
3598	0.0001725
3610	0.0002625
3622	0.0004425
3634	0.0006375
3646	0.0011625
3658	0.00135
3670	0.000555
3682	0.00036
3694	0.0002625
3706	0.0002175
3718	0.0002175
3730	0.0001725
3742	0.0002025
3754	0.00021
3766	0.000195
3778	0.00021
3790	0.00024
3802	0.000225
3814	0.00027
3826	0.0002475
3838	0.0002475
