Infrared Spectrum: 2,3-Diphenylquinoxaline
Formula: C 20 H 14 N 2
CAS: 1684-14-6
State: gas
Origin: EPA-IR VAPOR PHASE LIBRARY
1/CM	ABSORBANCE
501.5	0.001482
513.074	0.001762
524.648	0.002362
536.222	0.006942
547.796	0.005992
559.37	0.005062
570.944	0.004242
582.518	0.002852
594.092	0.012382
605.666	0.009682
617.24	0.003742
628.814	0.001662
640.388	0.001712
651.962	0.002722
663.536	0.004482
675.11	0.008142
686.684	0.022442
698.258	0.041812
709.832	0.011212
721.406	0.004952
732.98	0.004842
744.554	0.006702
756.128	0.036742
767.702	0.038062
779.276	0.008422
790.85	0.004522
802.423	0.006642
813.997	0.004102
825.571	0.002062
837.145	0.001962
848.719	0.001572
860.293	0.001662
871.867	0.0012819
883.441	0.0012492
895.015	0.0009695
906.589	0.001852
918.163	0.003242
929.737	0.001522
941.311	0.001552
952.885	0.002412
964.459	0.003632
976.033	0.015712
987.607	0.004782
999.181	0.004452
1010.76	0.006342
1022.33	0.016992
1033.9	0.007552
1045.48	0.008992
1057.05	0.017352
1068.63	0.008332
1080.2	0.003952
1091.77	0.001812
1103.35	0.001882
1114.92	0.001922
1126.49	0.004452
1138.07	0.004222
1149.64	0.001632
1161.22	0.001384
1172.79	0.002892
1184.36	0.004142
1195.94	0.003332
1207.51	0.008702
1219.09	0.009492
1230.66	0.005712
1242.23	0.006652
1253.81	0.004742
1265.38	0.004282
1276.96	0.004792
1288.53	0.005642
1300.1	0.008652
1311.68	0.008832
1323.25	0.011962
1334.83	0.027942
1346.4	0.024582
1357.97	0.006152
1369.55	0.005312
1381.12	0.005092
1392.7	0.010992
1404.27	0.004212
1415.84	0.002252
1427.42	0.002682
1438.99	0.005552
1450.57	0.004922
1462.14	0.003452
1473.71	0.008432
1485.29	0.004632
1496.86	0.004022
1508.44	0.002532
1520.01	0.002412
1531.58	0.003852
1543.16	0.006232
1554.73	0.007032
1566.31	0.004212
1577.88	0.002502
1589.45	0.001992
1601.03	0.002092
1612.6	0.001582
1624.18	0.001992
1635.75	0.001622
1647.32	0.0012586
1658.9	0.0011825
1670.47	0.0013664
1682.05	0.001692
1693.62	0.0013859
1705.19	0.002262
1716.77	0.001762
1728.34	0.0013316
1739.92	0.001622
1751.49	0.001772
1763.06	0.0012916
1774.64	0.0013859
1786.21	0.001832
1797.79	0.002822
1809.36	0.001792
1820.93	0.001902
1832.51	0.001351
1844.08	0.001692
1855.66	0.0011292
1867.23	0.001422
1878.8	0.001942
1890.38	0.002082
1901.95	0.001892
1913.53	0.001324
1925.1	0.001882
1936.67	0.002662
1948.25	0.003042
1959.82	0.002672
1971.4	0.0008444
1982.97	0.0006812
1994.54	0.0005857
2006.12	0.0005963
2017.69	0.0005778
2029.27	0.0005806
2040.84	0.0006315
2052.41	0.0005417
2063.99	0.00046011
2075.56	0.00044145
2087.14	0.00045377
2098.71	0.0005461
2110.28	0.0005366
2121.86	0.00044196
2133.43	0.0004107
2145.01	0.00041407
2156.58	0.0003815
2168.15	0.0003575
2179.73	0.0003702
2191.3	0.0003725
2202.88	0.0003517
2214.45	0.000367
2226.02	0.00042728
2237.6	0.0004674
2249.17	0.0005241
2260.74	0.0007184
2272.32	0.0006955
2283.89	0.0005408
2295.47	0.00043895
2307.04	0.0005433
2318.61	0.0007626
2330.19	0.0006871
2341.76	0.0008983
2353.34	0.0009223
2364.91	0.0007248
2376.48	0.0006488
2388.06	0.0006288
2399.63	0.0005262
2411.21	0.00045297
2422.78	0.00045256
2434.35	0.00046326
2445.93	0.00044443
2457.5	0.0004531
2469.08	0.00045683
2480.65	0.000400198
2492.22	0.00042164
2503.8	0.00043635
2515.37	0.00047696
2526.95	0.0005059
2538.52	0.0005251
2550.09	0.0005161
2561.67	0.00043599
2573.24	0.000357
2584.82	0.00038314
2596.39	0.00040876
2607.96	0.00042688
2619.54	0.000396347
2631.11	0.000377
2642.69	0.00026
2654.26	0.00026
2665.83	0.000248
2677.41	0.000219
2688.98	0.000186
2700.56	0.000219
2712.13	0.000224
2723.7	0.000207
2735.28	0.000226
2746.85	0.000247
2758.43	0.000155
2770	0.000192
2781.57	0.00022
2793.15	0.000198
2804.72	0.00028
2816.3	0.00040539
2827.87	0.0003257
2839.44	0.0003589
2851.02	0.0003454
2862.59	0.00038498
2874.17	0.00045806
2885.74	0.0006157
2897.31	0.0006371
2908.89	0.0005325
2920.46	0.000673
2932.04	0.0007719
2943.61	0.0007673
2955.18	0.0006023
2966.76	0.0005346
2978.33	0.0007921
2989.91	0.0011887
3001.48	0.001672
3013.05	0.002752
3024.63	0.006572
3036.2	0.010402
3047.78	0.010802
3059.35	0.018502
3070.92	0.036902
3082.5	0.018972
3094.07	0.011232
3105.65	0.006292
3117.22	0.003462
3128.79	0.001502
3140.37	0.0010214
3151.94	0.0009271
3163.52	0.0007043
3175.09	0.00040364
3186.66	0.000261
3198.24	0.000185
3209.81	0.000137
3221.39	0.000103
3232.96	0.000109
3244.53	5e-05
3256.11	4.3e-05
3267.68	0.000116
3279.26	4.4e-05
3290.83	5e-05
3302.4	2.3e-05
3313.98	6e-05
3325.55	0.000133
3337.13	6.7e-05
3348.7	5.5e-05
3360.27	8.4e-05
3371.85	8.9e-05
3383.42	0.000146
3395	4.4e-05
3406.57	6.9e-05
3418.14	0.000116
3429.72	0.000102
3441.29	7.7e-05
3452.86	8.9e-05
3464.44	0.000151
3476.01	0.000145
3487.59	0.000124
3499.16	8.6e-05
3510.73	7.3e-05
3522.31	4.9e-05
3533.88	0.000113
3545.46	8.9e-05
3557.03	0.000153
3568.6	0.000104
3580.18	0.000118
3591.75	0.000219
3603.33	0.000168
3614.9	0.000149
3626.47	0.000225
3638.05	0.000291
3649.62	0.000274
3661.2	0.000277
3672.77	0.000262
3684.34	0.000189
3695.92	0.000224
3707.49	0.000193
3719.07	0.000199
3730.64	9.8e-05
3742.21	0.000206
3753.79	0.000218
3765.36	0.000198
3776.94	0.000163
3788.51	0.000218
3800.08	0.000138
3811.66	0.000179
3823.23	8.7e-05
3834.81	6.6e-05
3846.38	6.4e-05
3857.95	6e-05
3869.53	0.000131
3881.1	0.000109
3892.68	9e-05
3904.25	7.4e-05
3915.82	0.000128
3927.4	0.000185
3938.97	0.00018
3950.55	0.000243
3962.12	0.00029
3973.69	0.000224
3985.27	0.000231
3996.84	9.5e-05
