Infrared Spectrum: N-Benzenesulphonylpyrrole
Formula: C 10 H 9 N O 2 S
CAS: 16851-82-4
State: gas
Origin: EPA-IR VAPOR PHASE LIBRARY
1/CM	ABSORBANCE
549.8	0.01674
559.445	0.04172
569.09	0.0364
578.735	0.03344
588.38	0.08273
598.025	0.11286
607.67	0.09541
617.315	0.1871
626.96	0.177
636.605	0.04209
646.251	0.01913
655.896	0.01312
665.541	0.01871
675.186	0.03057
684.831	0.04312
694.476	0.03067
704.121	0.02377
713.766	0.04447
723.411	0.17464
733.056	0.22305
742.701	0.05719
752.346	0.02553
761.991	0.01563
771.636	0.01161
781.281	0.01007
790.926	0.00694
800.571	0.00426
810.216	0.00286
819.861	0.00222
829.507	0.00217
839.152	0.00218
848.797	0.00278
858.442	0.00351
868.087	0.00436
877.732	0.00293
887.377	0.00246
897.022	0.00271
906.667	0.0021
916.312	0.00208
925.957	0.00351
935.602	0.00546
945.247	0.00361
954.892	0.00247
964.537	0.00234
974.182	0.00322
983.827	0.0041
993.472	0.00712
1003.12	0.00917
1012.76	0.01145
1022.41	0.035
1032.05	0.05675
1041.7	0.04107
1051.34	0.12448
1060.99	0.18694
1070.63	0.06907
1080.28	0.03902
1089.92	0.04517
1099.57	0.03588
1109.21	0.01129
1118.86	0.00549
1128.5	0.00397
1138.15	0.0039
1147.79	0.00651
1157.44	0.02134
1167.08	0.10789
1176.73	0.19584
1186.37	0.22576
1196.02	0.22556
1205.66	0.11013
1215.31	0.04345
1224.95	0.02524
1234.6	0.01877
1244.24	0.0178
1253.89	0.01037
1263.53	0.00612
1273.18	0.00621
1282.82	0.00727
1292.47	0.00799
1302.11	0.00743
1311.76	0.00656
1321.4	0.00688
1331.05	0.00824
1340.69	0.00713
1350.34	0.00646
1359.98	0.01
1369.63	0.02388
1379.27	0.06123
1388.92	0.12724
1398.56	0.12321
1408.21	0.04385
1417.85	0.01523
1427.5	0.01686
1437.14	0.02567
1446.79	0.04829
1456.43	0.06028
1466.08	0.02757
1475.73	0.01368
1485.37	0.01006
1495.02	0.0045
1504.66	0.00354
1514.31	0.00344
1523.95	0.00495
1533.6	0.00719
1543.24	0.00731
1552.89	0.00653
1562.53	0.00892
1572.18	0.01549
1581.82	0.01433
1591.47	0.00632
1601.11	0.00308
1610.76	0.00214
1620.4	0.0017744
1630.05	0.0015002
1639.69	0.0014572
1649.34	0.0015912
1658.98	0.0017322
1668.63	0.00236
1678.27	0.00218
1687.92	0.0014618
1697.56	0.0012604
1707.21	0.0016283
1716.85	0.00281
1726.5	0.00314
1736.14	0.00241
1745.79	0.0032
1755.43	0.00392
1765.08	0.00234
1774.72	0.0017381
1784.37	0.0017899
1794.01	0.00283
1803.66	0.00346
1813.3	0.00239
1822.95	0.0017337
1832.59	0.0011456
1842.24	0.00087977
1851.88	0.00087287
1861.53	0.0010281
1871.17	0.0013621
1880.82	0.0018115
1890.46	0.0022
1900.11	0.00231
1909.75	0.00213
1919.4	0.0013838
1929.04	0.001129
1938.69	0.0013225
1948.33	0.00194
1957.98	0.00253
1967.62	0.00272
1977.27	0.00222
1986.91	0.0014059
1996.56	0.0011475
2006.2	0.0008146
2015.85	0.00071
2025.49	0.000554
2035.14	0.000577
2044.78	0.000497
2054.43	0.000475
2064.07	0.000537
2073.72	0.000561
2083.36	0.0007911
2093.01	0.0010006
2102.65	0.0013404
2112.3	0.0014218
2121.94	0.0013142
2131.59	0.0012768
2141.23	0.0010534
2150.88	0.000734
2160.52	0.000646
2170.17	0.0008216
2179.81	0.0009695
2189.46	0.00092295
2199.1	0.0007851
2208.75	0.000685
2218.39	0.000713
2228.04	0.0007595
2237.68	0.00086969
2247.33	0.0010338
2256.97	0.0011621
2266.62	0.0014348
2276.26	0.0015747
2285.91	0.0012817
2295.55	0.00083247
2305.2	0.00088453
2314.84	0.0011046
2324.49	0.0013247
2334.13	0.0010385
2343.78	0.001073
2353.42	0.0009669
2363.07	0.0010636
2372.72	0.0009621
2382.36	0.00091495
2392.01	0.00093136
2401.65	0.0007819
2411.3	0.000657
2420.94	0.000665
2430.59	0.00064
2440.23	0.0008034
2449.88	0.00088636
2459.52	0.0007921
2469.17	0.00086367
2478.81	0.0011616
2488.46	0.0014475
2498.1	0.0011536
2507.75	0.0008179
2517.39	0.0009462
2527.04	0.0012997
2536.68	0.00186
2546.33	0.0017956
2555.97	0.001434
2565.62	0.0015972
2575.26	0.0018378
2584.91	0.00214
2594.55	0.0019
2604.2	0.0013185
2613.84	0.00091114
2623.49	0.000642
2633.13	0.000626
2642.78	0.000601
2652.42	0.00057
2662.07	0.0007554
2671.71	0.00089393
2681.36	0.00090416
2691	0.0007828
2700.65	0.000621
2710.29	0.000439
2719.94	0.000313
2729.58	0.000335
2739.23	0.000345
2748.87	0.000455
2758.52	0.000409
2768.16	0.000548
2777.81	0.000402
2787.45	0.0003
2797.1	0.000291
2806.74	0.000193
2816.39	0.00029
2826.03	0.000446
2835.68	0.000597
2845.32	0.00045
2854.97	0.00041
2864.61	0.000382
2874.26	0.000383
2883.9	0.000545
2893.55	0.000642
2903.19	0.000706
2912.84	0.000575
2922.48	0.000402
2932.13	0.000365
2941.77	0.000209
2951.42	0.000279
2961.06	0.000191
2970.71	0.000158
2980.35	8.5e-05
2990	0.000364
2999.64	0.000689
3009.29	0.001196
3018.93	0.0015584
3028.58	0.00207
3038.22	0.00246
3047.87	0.00306
3057.51	0.00557
3067.16	0.01304
3076.8	0.02022
3086.45	0.0117
3096.09	0.00596
3105.74	0.0053
3115.38	0.00605
3125.03	0.00361
3134.67	0.00202
3144.32	0.0043
3153.96	0.0069
3163.61	0.00387
3173.25	0.0011041
3182.9	0.000616
3192.54	0.000436
3202.19	0.000161
3211.83	0.000351
3221.48	0.000103
3231.12	0.000231
3240.77	0.000146
3250.41	8.7e-05
3260.06	0.000105
3269.7	0.000146
3279.35	0.000151
3289	0.000165
3298.64	8.3e-05
3308.29	0.000139
3317.93	0.000127
3327.58	5e-05
3337.22	0.000191
3346.87	0.00011
3356.51	0.000189
3366.16	0.000324
3375.8	0.000247
3385.45	0.000213
3395.09	4.9e-05
3404.74	0.000272
3414.38	0.000206
3424.03	0.000143
3433.67	0.000244
3443.32	0.000237
3452.96	0.000344
3462.61	0.000281
3472.25	0.000323
3481.9	0.000281
3491.54	0.000284
3501.19	0.000361
3510.83	0.000229
3520.48	0.000305
3530.12	0.000313
3539.77	0.000311
3549.41	0.000313
3559.06	0.000255
3568.7	0.000471
3578.35	0.000363
3587.99	0.000244
3597.64	0.000263
3607.28	0.000213
3616.93	0.000329
3626.57	0.000399
3636.22	0.000303
3645.86	0.00044
3655.51	0.000477
3665.15	0.000516
3674.8	0.000634
3684.44	0.000547
3694.09	0.000594
3703.73	0.000677
3713.38	0.000719
3723.02	0.000514
3732.67	0.00061
3742.31	0.000526
3751.96	0.000481
3761.6	0.000479
3771.25	0.000439
3780.89	0.000506
3790.54	0.000417
3800.18	0.000685
3809.83	0.000358
3819.47	0.000431
3829.12	0.000405
3838.76	0.000326
3848.41	0.000242
3858.05	0.000314
3867.7	0.000419
3877.34	0.000426
3886.99	0.000386
3896.63	0.000399
3906.28	0.000434
3915.92	0.00041
3925.57	0.000479
3935.21	0.000424
3944.86	0.000465
3954.5	0.000572
3964.15	0.000612
3973.79	0.0013127
3983.44	0.001646
3993.08	0.0013812
