Infrared Spectrum: Alpha MYRCENE
Formula: C10 H16
CAS: 1686-30-2
Class: COBLENTZ
Instrument: Not specified, most likely a prism, grating, or hybrid spectrometer.
Sampling: TRANSMISSION
Resolution: 4
Origin: INTERNATIONAL FLAVORS & FRAGRANCES, INC.
MICROMETERS	TRANSMITTANCE
2.019	0.906
2.05604	0.904
2.09308	0.902
2.13012	0.9
2.16716	0.8988
2.2042	0.874
2.24124	0.8638
2.27828	0.8431
2.31532	0.8675
2.35236	0.882
2.3894	0.887
2.42644	0.887
2.46348	0.888
2.50052	0.894
2.53756	0.898
2.5746	0.902
2.61164	0.903
2.64868	0.9082
2.68572	0.908
2.72276	0.9099
2.7598	0.909
2.79684	0.909
2.83388	0.908
2.87092	0.906
2.90796	0.906
2.945	0.906
2.98204	0.906
3.01908	0.9039
3.05612	0.8978
3.09316	0.8878
3.1302	0.8402
3.16724	0.427
3.20428	0.4458
3.24132	0.5772
3.27836	0.3617
3.3154	0.1984
3.35244	0.1391
3.38948	0.1561
3.42652	0.2582
3.46356	0.4834
3.5006	0.7331
3.53764	0.8189
3.57468	0.8582
3.61172	0.8479
3.64876	0.8656
3.6858	0.8852
3.72284	0.8912
3.75988	0.8965
3.79692	0.903
3.83396	0.906
3.871	0.909
3.90804	0.911
3.94508	0.914
3.98212	0.916
4.01916	0.916
4.0562	0.9181
4.09324	0.92
4.13028	0.918
4.16732	0.914
4.20436	0.906
4.2414	0.908
4.27844	0.914
4.31548	0.9183
4.35252	0.924
4.38956	0.925
4.4266	0.924
4.46364	0.9241
4.50068	0.926
4.53772	0.926
4.57476	0.928
4.6118	0.929
4.64884	0.9308
4.68588	0.9308
4.72292	0.93
4.75996	0.93
4.797	0.9264
4.83404	0.929
4.87108	0.9289
4.90812	0.9278
4.94516	0.9276
4.9822	0.9237
5.01924	0.9131
5.05628	0.921
5.09332	0.928
5.13036	0.929
5.1674	0.9316
5.20444	0.93
5.24148	0.928
5.27852	0.9247
5.31556	0.922
5.3526	0.917
5.38964	0.875
5.42668	0.7954
5.46372	0.7347
5.50076	0.7153
5.5378	0.69
5.57484	0.7447
5.61188	0.8351
5.64892	0.8742
5.68596	0.8879
5.723	0.8977
5.76004	0.901
5.79708	0.901
5.83412	0.8955
5.87116	0.8863
5.9082	0.8658
5.94524	0.8111
5.98228	0.4545
6.01932	0.4007
6.05636	0.5556
6.0934	0.6517
6.13044	0.7267
6.16748	0.6821
6.20452	0.213
6.24156	0.4973
6.2786	0.6467
6.31564	0.7473
6.35268	0.8058
6.38972	0.8318
6.42676	0.863
6.4638	0.8779
6.50084	0.8834
6.53788	0.878
6.57492	0.8709
6.61196	0.862
6.649	0.8487
6.68604	0.8154
6.72308	0.7648
6.76012	0.4848
6.79716	0.3208
6.8342	0.268
6.87124	0.2758
6.90828	0.3208
6.94532	0.4351
6.98236	0.4867
7.0194	0.5626
7.05644	0.6473
7.09348	0.6296
7.13052	0.6106
7.16756	0.5711
7.2046	0.51
7.24164	0.4255
7.27868	0.5771
7.31572	0.6914
7.35276	0.752
7.3898	0.7577
7.42684	0.7934
7.46388	0.805
7.50092	0.806
7.53796	0.8088
7.575	0.798
7.61204	0.785
7.64908	0.79
7.68612	0.7851
7.72316	0.774
7.7602	0.7901
7.79724	0.796
7.83428	0.793
7.87132	0.796
7.90836	0.8066
7.9454	0.8139
7.98244	0.819
8.01948	0.82
8.05652	0.8211
8.09356	0.83
8.1306	0.8437
8.16764	0.848
8.20468	0.843
8.24172	0.8425
8.27876	0.844
8.3158	0.8443
8.35284	0.8522
8.38988	0.8671
8.42692	0.8819
8.46396	0.8912
8.501	0.892
8.53805	0.892
8.57509	0.8866
8.61213	0.8774
8.64917	0.8668
8.68621	0.8618
8.72325	0.863
8.76029	0.8717
8.79733	0.8864
8.83437	0.8968
8.87141	0.9015
8.90845	0.903
8.94549	0.8958
8.98253	0.8807
9.01957	0.865
9.05661	0.867
9.09365	0.8755
9.13069	0.881
9.16773	0.88
9.20477	0.8688
9.24181	0.8415
9.27885	0.8128
9.31589	0.809
9.35293	0.813
9.38997	0.821
9.42701	0.822
9.46405	0.821
9.50109	0.8225
9.53813	0.8263
9.57517	0.826
9.61221	0.8158
9.64925	0.803
9.68629	0.7921
9.72333	0.7907
9.76037	0.7996
9.79741	0.7975
9.83445	0.7866
9.87149	0.7759
9.90853	0.7543
9.94557	0.7114
9.98261	0.5862
10.0196	0.3348
10.0567	0.2016
10.0937	0.2184
10.1308	0.369
10.1678	0.5429
10.2048	0.6609
10.2419	0.7332
10.2789	0.778
10.316	0.7976
10.353	0.8115
10.39	0.82
10.4271	0.8235
10.4641	0.826
10.5012	0.826
10.5382	0.8211
10.5752	0.8144
10.6123	0.8063
10.6493	0.7994
10.6864	0.791
10.7234	0.7771
10.7604	0.7454
10.7975	0.6874
10.8345	0.6332
10.8716	0.5358
10.9086	0.3624
10.9456	0.2566
10.9827	0.1596
11.0197	0.1366
11.0568	0.1288
11.0938	0.125
11.1308	0.119
11.1679	0.1121
11.2049	0.1062
11.242	0.106
11.279	0.1105
11.316	0.1241
11.3531	0.166
11.3901	0.2904
11.4272	0.4095
11.4642	0.4942
11.5012	0.5861
11.5383	0.6459
11.5753	0.6903
11.6124	0.7148
11.6494	0.7347
11.6864	0.7544
11.7235	0.7691
11.7605	0.7819
11.7976	0.794
11.8346	0.8067
11.8716	0.813
11.9087	0.818
11.9457	0.8204
11.9828	0.822
12.0198	0.8233
12.0568	0.825
12.0939	0.826
12.1309	0.83
12.168	0.834
12.205	0.8366
12.242	0.8414
12.2791	0.8473
12.3161	0.852
12.3532	0.857
12.3902	0.86
12.4272	0.865
12.4643	0.864
12.5013	0.8646
12.5384	0.869
12.5754	0.871
12.6124	0.876
12.6495	0.88
12.6865	0.882
12.7236	0.8869
12.7606	0.8912
12.7976	0.8936
12.8347	0.894
12.8717	0.895
12.9088	0.895
12.9458	0.8977
12.9828	0.896
13.0199	0.8911
13.0569	0.8812
13.094	0.8696
13.131	0.8436
13.168	0.8278
13.2051	0.8271
13.2421	0.835
13.2792	0.841
13.3162	0.8377
13.3532	0.8294
13.3903	0.821
13.4273	0.816
13.4644	0.8127
13.5014	0.811
13.5384	0.813
13.5755	0.815
13.6125	0.8198
13.6496	0.827
13.6866	0.831
13.7236	0.8365
13.7607	0.8433
13.7977	0.8492
13.8348	0.855
13.8718	0.858
13.9088	0.862
13.9459	0.864
13.9829	0.864
14.02	0.864
14.057	0.863
14.094	0.8597
14.1311	0.8569
14.1681	0.853
14.2052	0.85
14.2422	0.851
14.2792	0.8543
14.3163	0.855
14.3533	0.853
14.3904	0.851
14.4274	0.851
14.4644	0.851
14.5015	0.849
14.5385	0.844
14.5756	0.8403
14.6126	0.8344
14.6496	0.827
14.6867	0.8226
14.7237	0.82
14.7608	0.814
14.7978	0.809
14.8348	0.8051
14.8719	0.8002
14.9089	0.797
14.946	0.796
14.983	0.7984
