Infrared Spectrum: 8-HydroxyQuinoline, hydrochloride
Formula: C9 H8 Cl N O
CAS: 16862-11-6
State: SOLID (KBr DISC, 0.9% WT.)
Class: COBLENTZ III
Instrument: PERKIN-ELMER 157
Sampling: TRANSMISSION
Resolution: 2
Origin: BRITISH PETROLEUM CO. LTD., ENGLAND
1/CM	TRANSMITTANCE
666	0.7104
675	0.7102
684	0.706
693	0.6875
702	0.6573
711	0.447
720	0.678
729	0.6546
738	0.6084
747	0.4766
756	0.0628
765	0.4805
774	0.5847
783	0.5843
792	0.6289
801	0.2985
810	0.4008
819	0.0635
828	0.14
837	0.5965
846	0.6552
855	0.6422
864	0.6402
873	0.5799
882	0.4447
891	0.4586
900	0.5666
909	0.555
918	0.6674
927	0.7022
936	0.7084
945	0.7029
954	0.697
963	0.6862
972	0.6525
981	0.6488
990	0.5577
999	0.4271
1008	0.5743
1017	0.6191
1026	0.6288
1035	0.6072
1044	0.6471
1053	0.5712
1062	0.65
1071	0.6136
1080	0.5786
1089	0.2685
1098	0.2271
1107	0.6935
1116	0.6927
1125	0.6851
1134	0.6226
1143	0.4818
1152	0.6513
1161	0.6036
1170	0.5559
1179	0.5502
1188	0.5163
1197	0.4364
1206	0.2373
1215	0.4494
1224	0.4026
1233	0.4823
1242	0.4832
1251	0.441
1260	0.3535
1269	0.2066
1278	0.1485
1287	0.0748
1296	0.0189
1305	0.1659
1314	0.3577
1323	0.5291
1332	0.5416
1341	0.5782
1350	0.5722
1359	0.5253
1368	0.4392
1377	0.2457
1386	0.2326
1395	0.0777
1404	0.2731
1413	0.3955
1422	0.4128
1431	0.6732
1440	0.696
1449	0.6684
1458	0.5791
1467	0.4974
1476	0.5323
1485	0.3648
1494	0.2339
1503	0.5162
1512	0.4851
1521	0.4628
1530	0.4403
1539	0.2559
1548	0.0878
1557	0.2097
1566	0.558
1575	0.5131
1584	0.3181
1593	0.1088
1602	0.109
1611	0.2822
1620	0.4111
1629	0.2754
1638	0.4505
1647	0.7031
1656	0.7183
1665	0.7227
1674	0.724
1683	0.7269
1692	0.7347
1701	0.7291
1710	0.7204
1719	0.7157
1728	0.7343
1737	0.7543
1746	0.7529
1755	0.7444
1764	0.7201
1773	0.691
1782	0.6907
1791	0.7013
1800	0.7024
1809	0.7122
1818	0.7307
1827	0.7356
1836	0.7324
1845	0.7218
1854	0.7024
1863	0.6933
1872	0.6797
1881	0.6655
1890	0.6606
1899	0.6668
1908	0.6985
1917	0.7023
1926	0.6986
1935	0.6933
1944	0.7001
1953	0.698
1962	0.6797
1971	0.6569
1980	0.6322
1989	0.6159
1998	0.6153
2007	0.6468
2016	0.6784
2025	0.6895
2034	0.6916
2043	0.6893
2052	0.6837
2061	0.6729
2070	0.6661
2079	0.6646
2088	0.6639
2097	0.6635
2106	0.6631
2115	0.6628
2124	0.6626
2133	0.6576
2142	0.648
2151	0.6448
2160	0.6442
2169	0.6438
2178	0.6432
2187	0.6426
2196	0.6418
2205	0.6404
2214	0.6373
2223	0.6298
2232	0.622
2241	0.6161
2250	0.614
2259	0.612
2268	0.6036
2277	0.598
2286	0.5957
2295	0.5879
2304	0.5779
2313	0.5666
2322	0.5552
2331	0.5474
2340	0.5413
2349	0.5384
2358	0.5374
2367	0.5365
2376	0.5358
2385	0.5337
2394	0.526
2403	0.5157
2412	0.5052
2421	0.4952
2430	0.4836
2439	0.473
2448	0.4672
2457	0.4662
2466	0.4653
2475	0.4642
2484	0.4613
2493	0.4565
2502	0.4446
2511	0.4317
2520	0.4188
2529	0.406
2538	0.3969
2547	0.3905
2556	0.3858
2565	0.3838
2574	0.3825
2583	0.3817
2592	0.3784
2601	0.3713
2610	0.3622
2619	0.3477
2628	0.3313
2637	0.3205
2646	0.3146
2655	0.3111
2664	0.3084
2673	0.3063
2682	0.3043
2691	0.3017
2700	0.2924
2709	0.2711
2718	0.2589
2727	0.2469
2736	0.2358
2745	0.215
2754	0.2049
2763	0.1963
2772	0.1892
2781	0.1861
2790	0.1837
2799	0.1796
2808	0.1698
2817	0.1571
2826	0.1452
2835	0.1358
2844	0.1187
2853	0.11
2862	0.0997
2871	0.0826
2880	0.072
2889	0.066
2898	0.059
2907	0.0557
2916	0.0536
2925	0.0526
2934	0.0518
2943	0.0512
2952	0.0507
2961	0.0498
2970	0.0468
2979	0.0434
2988	0.0417
2997	0.0401
3006	0.0387
3015	0.037
3024	0.0351
3033	0.0342
3042	0.0358
3051	0.0374
3060	0.0392
3069	0.0403
3078	0.0408
3087	0.0408
3096	0.0407
3105	0.0405
3114	0.0401
3123	0.0397
3132	0.0389
3141	0.0376
3150	0.0359
3159	0.0349
3168	0.035
3177	0.0373
3186	0.042
3195	0.048
3204	0.0538
3213	0.0585
3222	0.0639
3231	0.0694
3240	0.0756
3249	0.0829
3258	0.0904
3267	0.0996
3276	0.1078
3285	0.1154
3294	0.1253
3303	0.1313
3312	0.1383
3321	0.1451
3330	0.1528
3339	0.16
3348	0.1671
3357	0.1743
3366	0.1813
3375	0.19
3384	0.2015
3393	0.2116
3402	0.2198
3411	0.2304
3420	0.2384
3429	0.2462
3438	0.2553
3447	0.2689
3456	0.2787
3465	0.2906
3474	0.3004
3483	0.3083
3492	0.3188
3501	0.3364
3510	0.3746
3519	0.3908
3528	0.4136
3537	0.4527
3546	0.5077
3555	0.5282
3564	0.5384
3573	0.552
3582	0.5644
3591	0.5741
3600	0.5822
3609	0.5894
3618	0.5939
3627	0.5959
3636	0.5967
3645	0.5973
3654	0.5976
3663	0.5975
3672	0.5972
3681	0.5968
3690	0.5958
3699	0.5926
3708	0.5862
3717	0.5811
3726	0.5792
3735	0.5789
3744	0.5786
3753	0.5785
3762	0.5783
3771	0.578
3780	0.5746
3789	0.5664
3798	0.5637
3807	0.5626
3816	0.5625
3825	0.5623
3834	0.5621
3843	0.5614
3852	0.5599
3861	0.558
3870	0.5558
3879	0.5543
3888	0.5528
3897	0.5513
3906	0.5502
3915	0.5492
3924	0.5482
3933	0.5472
3942	0.5461
3951	0.5451
3960	0.544
3969	0.543
3978	0.5419
3987	0.5408
3996	0.54
