Infrared Spectrum: 3-Hydroxy-2(1H)-pyridone
Formula: C5 H5 N O2
CAS: 16867-04-2
State: SOLID (SPLIT MULL), FLUOROLUBE FOR 3800-1330 CM^-^1, NUJOL FOR 1330-400 CM^-^1
Class: COBLENTZ III
Instrument: BECKMAN IR-9 (GRATING)
Instrument parameters: ORDER CHANGES: 670, 1200, 2000 CM^-^1
Sampling: TRANSMISSION
Resolution: 2
Origin: DOW CHEMICAL COMPANY
1/CM	TRANSMITTANCE
404	0.4883
413	0.507
422	0.5682
431	0.6404
440	0.7075
449	0.7544
458	0.7895
467	0.8139
476	0.8324
485	0.8392
494	0.8231
503	0.7822
512	0.6383
521	0.5536
530	0.7248
539	0.8299
548	0.8425
557	0.8241
566	0.568
575	0.6458
584	0.7595
593	0.8571
602	0.8687
611	0.8733
620	0.8731
629	0.871
638	0.8567
647	0.8507
656	0.8474
665	0.8388
674	0.8114
683	0.7745
692	0.7376
701	0.7094
710	0.6865
719	0.6865
728	0.6545
737	0.7039
746	0.6136
755	0.184
764	0.2787
773	0.5793
782	0.4204
791	0.7283
800	0.7821
809	0.7821
818	0.7812
827	0.7583
836	0.691
845	0.5923
854	0.524
863	0.63
872	0.7231
881	0.7804
890	0.8121
899	0.7564
908	0.5153
917	0.5728
926	0.7346
935	0.8218
944	0.829
953	0.8382
962	0.8443
971	0.8467
980	0.8499
989	0.8514
998	0.8521
1007	0.8487
1016	0.8291
1025	0.8194
1034	0.8111
1043	0.7275
1052	0.45
1061	0.6625
1070	0.7884
1079	0.7908
1088	0.7789
1097	0.7595
1106	0.6687
1115	0.7174
1124	0.7269
1133	0.7065
1142	0.6775
1151	0.669
1160	0.6183
1169	0.486
1178	0.4373
1187	0.1754
1196	0.1995
1205	0.3366
1214	0.4389
1223	0.4922
1232	0.5264
1241	0.5687
1250	0.6087
1259	0.626
1268	0.5982
1277	0.5431
1286	0.4541
1295	0.0834
1304	0.4484
1313	0.5007
1322	0.1689
1331	0.3714
1340	0.2856
1349	0.3479
1358	0.3759
1367	0.2812
1376	0.1864
1385	0.3184
1394	0.5436
1403	0.5862
1412	0.5355
1421	0.5091
1430	0.6153
1439	0.6329
1448	0.4882
1457	0.5779
1466	0.5643
1475	0.6418
1484	0.6495
1493	0.6493
1502	0.636
1511	0.6084
1520	0.5843
1529	0.561
1538	0.5182
1547	0.4879
1556	0.4617
1565	0.3959
1574	0.2599
1583	0.1612
1592	0.4244
1601	0.3037
1610	0.1446
1619	0.1119
1628	0.202
1637	0.171
1646	0.1381
1655	0.0916
1664	0.0443
1673	0.0598
1682	0.0704
1691	0.191
1700	0.3452
1709	0.615
1718	0.7417
1727	0.81
1736	0.8636
1745	0.8792
1754	0.8846
1763	0.8842
1772	0.8823
1781	0.8837
1790	0.8844
1799	0.8856
1808	0.886
1817	0.885
1826	0.8825
1835	0.8775
1844	0.8693
1853	0.866
1862	0.8639
1871	0.8528
1880	0.8512
1889	0.8571
1898	0.8647
1907	0.8684
1916	0.8685
1925	0.8681
1934	0.8671
1943	0.8649
1952	0.8604
1961	0.8565
1970	0.8536
1979	0.85
1988	0.8445
1997	0.8386
2006	0.8332
2015	0.8286
2024	0.8239
2033	0.8191
2042	0.8144
2051	0.8097
2060	0.8048
2069	0.8042
2078	0.8045
2087	0.8022
2096	0.7986
2105	0.7936
2114	0.7878
2123	0.7825
2132	0.7775
2141	0.7731
2150	0.7704
2159	0.7668
2168	0.7625
2177	0.7583
2186	0.7538
2195	0.749
2204	0.7443
2213	0.7394
2222	0.7346
2231	0.7294
2240	0.7226
2249	0.7147
2258	0.7076
2267	0.7012
2276	0.6951
2285	0.69
2294	0.6849
2303	0.6797
2312	0.6725
2321	0.6651
2330	0.6584
2339	0.6551
2348	0.6541
2357	0.6531
2366	0.6519
2375	0.6517
2384	0.6528
2393	0.6534
2402	0.6525
2411	0.6507
2420	0.6488
2429	0.6468
2438	0.6449
2447	0.6424
2456	0.6392
2465	0.6343
2474	0.6296
2483	0.6257
2492	0.6224
2501	0.6207
2510	0.6198
2519	0.6188
2528	0.6176
2537	0.6135
2546	0.6022
2555	0.5917
2564	0.5899
2573	0.5903
2582	0.5908
2591	0.5908
2600	0.5898
2609	0.5881
2618	0.5829
2627	0.5744
2636	0.5662
2645	0.5598
2654	0.5556
2663	0.5544
2672	0.5541
2681	0.5544
2690	0.5542
2699	0.5498
2708	0.544
2717	0.5381
2726	0.532
2735	0.5255
2744	0.5189
2753	0.5119
2762	0.5044
2771	0.4978
2780	0.4917
2789	0.4854
2798	0.4773
2807	0.4691
2816	0.4612
2825	0.4536
2834	0.4471
2843	0.4452
2852	0.4455
2861	0.4421
2870	0.4353
2879	0.4244
2888	0.4142
2897	0.404
2906	0.3938
2915	0.3834
2924	0.3716
2933	0.3655
2942	0.3636
2951	0.3612
2960	0.3447
2969	0.3323
2978	0.3282
2987	0.3279
2996	0.3218
3005	0.3107
3014	0.3073
3023	0.3041
3032	0.3005
3041	0.2964
3050	0.2922
3059	0.2893
3068	0.3011
3077	0.2984
3086	0.2859
3095	0.2728
3104	0.278
3113	0.2789
3122	0.2732
3131	0.2684
3140	0.2653
3149	0.2605
3158	0.2579
3167	0.2554
3176	0.2591
3185	0.2665
3194	0.2757
3203	0.2859
3212	0.2977
3221	0.3099
3230	0.311
3239	0.3072
3248	0.31
3257	0.3173
3266	0.3164
3275	0.3194
3284	0.3488
3293	0.3839
3302	0.4198
3311	0.4535
3320	0.4806
3329	0.5009
3338	0.5312
3347	0.5571
3356	0.5739
3365	0.5879
3374	0.6009
3383	0.6128
3392	0.6236
3401	0.6319
3410	0.6368
3419	0.64
3428	0.6424
3437	0.6444
3446	0.645
3455	0.6454
3464	0.6458
3473	0.6458
3482	0.6458
3491	0.6458
3500	0.6451
3509	0.6442
3518	0.6431
3527	0.6421
3536	0.6407
3545	0.6391
3554	0.6376
3563	0.6359
3572	0.634
3581	0.632
3590	0.63
3599	0.6281
3608	0.626
3617	0.6235
3626	0.6212
3635	0.6188
3644	0.6164
3653	0.614
3662	0.6119
3671	0.6097
3680	0.6076
3689	0.6054
3698	0.6033
3707	0.601
3716	0.5986
3725	0.596
3734	0.5935
3743	0.591
3752	0.5881
3761	0.5849
3770	0.5819
3779	0.5789
3788	0.576
3797	0.5733
