Infrared Spectrum: Succinamide, N,N'-dimethyl-,
Formula: C6 H12 N2 O2
CAS: 16873-50-0
State: SOLID (OIL MULL)
Melting point: 171 C
Class: COBLENTZ III
Instrument: BAIRD (GRATING)
Instrument parameters: NaCl PRISM
Resolution: 2
Origin: WYANDOTTE CHEMICALS CORP.
1/CM	TRANSMITTANCE
626	0.5905
635	0.5721
644	0.5444
653	0.5474
662	0.5664
671	0.5372
680	0.5043
689	0.4648
698	0.4205
707	0.3686
716	0.3116
725	0.2808
734	0.2788
743	0.3097
752	0.3588
761	0.4115
770	0.4583
779	0.4861
788	0.5156
797	0.5437
806	0.5741
815	0.5987
824	0.6174
833	0.6316
842	0.6435
851	0.6505
860	0.6525
869	0.6546
878	0.6531
887	0.6352
896	0.5577
905	0.4982
914	0.5968
923	0.5971
932	0.614
941	0.6172
950	0.6032
959	0.5971
968	0.5919
977	0.5857
986	0.5858
995	0.5876
1004	0.5815
1013	0.5553
1022	0.5279
1031	0.5415
1040	0.5317
1049	0.4957
1058	0.3797
1067	0.2766
1076	0.5506
1085	0.5525
1094	0.5401
1103	0.5233
1112	0.493
1121	0.4547
1130	0.4039
1139	0.3659
1148	0.3163
1157	0.2227
1166	0.1056
1175	0.1099
1184	0.1917
1193	0.2654
1202	0.2787
1211	0.2285
1220	0.1188
1229	0.0644
1238	0.2155
1247	0.357
1256	0.3902
1265	0.3744
1274	0.3513
1283	0.3244
1292	0.2937
1301	0.2581
1310	0.2311
1319	0.2063
1328	0.1801
1337	0.145
1346	0.0814
1355	0.0442
1364	0.0484
1373	0.0747
1382	0.0994
1391	0.0954
1400	0.1227
1409	0.1185
1418	0.0946
1427	0.0851
1436	0.0797
1445	0.0708
1454	0.0753
1463	0.0795
1472	0.083
1481	0.0874
1490	0.1153
1499	0.1394
1508	0.1344
1517	0.1092
1526	0.0892
1535	0.0613
1544	0.0468
1553	0.0473
1562	0.0435
1571	0.0316
1580	0.0318
1589	0.0334
1598	0.0339
1607	0.0357
1616	0.0398
1625	0.044
1634	0.0439
1643	0.039
1652	0.0358
1661	0.0608
1670	0.0759
1679	0.1032
1688	0.1498
1697	0.1973
1706	0.2448
1715	0.2786
1724	0.3007
1733	0.3401
1742	0.4254
1751	0.5401
1760	0.571
1769	0.6001
1778	0.6414
1787	0.7072
1796	0.7474
1805	0.78
1814	0.8066
1823	0.8265
1832	0.8444
1841	0.8902
1850	0.9089
1859	0.9239
1868	0.9357
1877	0.9451
1886	0.9521
1895	0.9568
1904	0.961
1913	0.9639
1922	0.9648
1931	0.9655
1940	0.9656
1949	0.9653
1958	0.9647
1967	0.9641
1976	0.9637
1985	0.9632
1994	0.9646
2003	0.9677
2012	0.9685
2021	0.9621
2030	0.9546
2039	0.9475
2048	0.9404
2057	0.9324
2066	0.9244
2075	0.9171
2084	0.9112
2093	0.9069
2102	0.9054
2111	0.9044
2120	0.9038
2129	0.9034
2138	0.9043
2147	0.909
2156	0.9168
2165	0.9249
2174	0.9288
2183	0.9265
2192	0.9215
2201	0.9122
2210	0.9058
2219	0.9042
2228	0.9041
2237	0.9047
2246	0.9037
2255	0.904
2264	0.9046
2273	0.9052
2282	0.9058
2291	0.9064
2300	0.9052
2309	0.9005
2318	0.894
2327	0.8867
2336	0.8778
2345	0.8694
2354	0.8643
2363	0.8619
2372	0.8615
2381	0.8613
2390	0.8612
2399	0.8579
2408	0.8514
2417	0.8405
2426	0.8243
2435	0.8098
2444	0.8025
2453	0.8016
2462	0.8018
2471	0.8019
2480	0.8014
2489	0.7994
2498	0.7968
2507	0.793
2516	0.789
2525	0.7842
2534	0.7755
2543	0.7609
2552	0.7447
2561	0.737
2570	0.7332
2579	0.7319
2588	0.7322
2597	0.7325
2606	0.7326
2615	0.7326
2624	0.7325
2633	0.7326
2642	0.733
2651	0.7329
2660	0.7319
2669	0.7291
2678	0.7204
2687	0.7101
2696	0.692
2705	0.6734
2714	0.652
2723	0.631
2732	0.6201
2741	0.6179
2750	0.6153
2759	0.6105
2768	0.5991
2777	0.5826
2786	0.5642
2795	0.5356
2804	0.4892
2813	0.4337
2822	0.3774
2831	0.3605
2840	0.3369
2849	0.2097
2858	0.1427
2867	0.1138
2876	0.1005
2885	0.0884
2894	0.075
2903	0.0634
2912	0.0519
2921	0.0443
2930	0.0398
2939	0.0366
2948	0.0348
2957	0.0341
2966	0.0338
2975	0.0355
2984	0.0401
2993	0.0624
3002	0.104
3011	0.1418
3020	0.1793
3029	0.2166
3038	0.2536
3047	0.2851
3056	0.287
3065	0.2827
3074	0.263
3083	0.2415
3092	0.2202
3101	0.2034
3110	0.2007
3119	0.2135
3128	0.2294
3137	0.2454
3146	0.2611
3155	0.2735
3164	0.2736
3173	0.2709
3182	0.2566
3191	0.2408
3200	0.2251
3209	0.2095
3218	0.194
3227	0.1785
3236	0.1631
3245	0.1479
3254	0.1327
3263	0.1175
3272	0.1026
3281	0.0876
3290	0.0728
3299	0.0591
3308	0.0587
3317	0.0809
3326	0.116
3335	0.1508
3344	0.1854
3353	0.2486
3362	0.2839
3371	0.3261
3380	0.3468
3389	0.3934
3398	0.4242
3407	0.4362
3416	0.4557
3425	0.4776
3434	0.4904
3443	0.5003
3452	0.5099
3461	0.5227
3470	0.5348
3479	0.5443
3488	0.5536
3497	0.563
3506	0.5736
3515	0.5856
3524	0.5973
3533	0.6085
3542	0.6186
3551	0.6283
3560	0.6388
3569	0.6498
3578	0.6591
3587	0.6687
3596	0.7012
3605	0.7233
3614	0.7391
3623	0.7514
3632	0.7651
3641	0.7786
3650	0.7909
3659	0.8026
3668	0.8123
3677	0.8219
3686	0.8307
3695	0.8393
3704	0.8481
3713	0.8571
3722	0.8655
3731	0.8727
3740	0.877
3749	0.8811
3758	0.8843
3767	0.8868
3776	0.8891
3785	0.8909
3794	0.892
3803	0.8926
3812	0.8925
3821	0.8925
3830	0.8923
3839	0.8921
3848	0.8918
3857	0.8912
3866	0.8902
3875	0.8893
3884	0.888
3893	0.8868
3902	0.8856
3911	0.8843
3920	0.883
3929	0.8812
3938	0.879
3947	0.8765
3956	0.8739
3965	0.8713
3974	0.8687
3983	0.8657
3992	0.8625
