Infrared Spectrum: 6-Chloro-2-pyridinol
Formula: C 5 H 4 Cl N O
CAS: 16879-02-0
State: gas
Instrument: HP-GC/MS/IRD
Origin: NIST Mass Spectrometry Data Center
1/CM	ABSORBANCE
550	0.0006669
562	0.0008307
574	0.0003159
586	0.0001404
598	8.19e-05
610	0.000351
622	0.0007371
634	0.0012636
646	0.001755
658	0.0018252
670	0.0032292
682	0.0076635
694	0.007254
706	0.003042
718	0.0027144
730	0.0031005
742	0.0020124
754	0.0021879
766	0.0071019
778	0.0184743
790	0.0315198
802	0.0159822
814	0.0051363
826	0.0021177
838	0.0017316
850	0.0016029
862	0.0025857
874	0.0051597
886	0.0072189
898	0.0129987
910	0.0257166
922	0.0231894
934	0.0080028
946	0.0031239
958	0.00234
970	0.0026676
982	0.0076752
994	0.008307
1006	0.002925
1018	0.0019305
1030	0.0022581
1042	0.0033111
1054	0.007137
1066	0.0107757
1078	0.0123552
1090	0.0152334
1102	0.0216684
1114	0.0302094
1126	0.071604
1138	0.0803322
1150	0.0310284
1162	0.008775
1174	0.0040482
1186	0.0060372
1198	0.0149526
1210	0.0270738
1222	0.026676
1234	0.0133848
1246	0.0091845
1258	0.0207792
1270	0.0380133
1282	0.0375453
1294	0.0184041
1306	0.0084357
1318	0.0066456
1330	0.0055926
1342	0.0033696
1354	0.002223
1366	0.0016263
1378	0.001638
1390	0.0029367
1402	0.0073125
1414	0.0157131
1426	0.0410436
1438	0.0939393
1450	0.111747
1462	0.0597753
1474	0.0236106
1486	0.0133029
1498	0.0060489
1510	0.0058968
1522	0.010179
1534	0.0131625
1546	0.0128934
1558	0.0213408
1570	0.0601146
1582	0.099099
1594	0.0762372
1606	0.0511173
1618	0.0250614
1630	0.0073827
1642	0.0027027
1654	0.002106
1666	0.0023517
1678	0.003276
1690	0.0047151
1702	0.0068445
1714	0.0124839
1726	0.0144027
1738	0.008775
1750	0.0054639
1762	0.0028665
1774	0.0011817
1786	0.0006903
1798	0.0004797
1810	0.0006435
1822	0.0009594
1834	0.0012051
1846	0.000936
1858	0.0004563
1870	0.0003744
1882	0.0004095
1894	0.0005616
1906	0.0005616
1918	0.0003861
1930	0.0005382
1942	0.0008892
1954	0.000819
1966	0.0004212
1978	0.0001989
1990	0.0001872
2002	0.0002223
2014	0.0002925
2026	0.0002808
2038	0.0002691
2050	0.0002574
2062	0.0001755
2074	9.36e-05
2086	0.0001053
2098	0.0001872
2110	0.0003159
2122	0.0005382
2134	0.0006318
2146	0.0004563
2158	0.0002925
2170	0.0003276
2182	0.0004212
2194	0.0005499
2206	0.0005148
2218	0.000351
2230	0.0002691
2242	0.0002925
2254	0.0003627
2266	0.0005499
2278	0.0005967
2290	0.0005382
2302	0.0003861
2314	0.0004329
2326	0.0005616
2338	0.0008073
2350	0.000819
2362	0.0006318
2374	0.0004797
2386	0.0004446
2398	0.0004329
2410	0.0004329
2422	0.0004446
2434	0.000468
2446	0.0004563
2458	0.0004563
2470	0.0004797
2482	0.0005499
2494	0.0006552
2506	0.0006201
2518	0.0006786
2530	0.000702
2542	0.0006084
2554	0.0005148
2566	0.0006318
2578	0.0007605
2590	0.0006786
2602	0.0004446
2614	0.0002808
2626	0.0002808
2638	0.000468
2650	0.0006084
2662	0.0005265
2674	0.0003276
2686	0.0003744
2698	0.0005148
2710	0.0005967
2722	0.0005499
2734	0.000468
2746	0.0004095
2758	0.0003744
2770	0.000234
2782	0.0001638
2794	0.000117
2806	0.000117
2818	7.02e-05
2830	0.0001053
2842	0.0001755
2854	0.000234
2866	0.0003276
2878	0.0002691
2890	0.0001404
2902	7.02e-05
2914	0
2926	3.51e-05
2938	0
2950	0
2962	1.17e-05
2974	0.0001053
2986	0.000117
2998	0.0003159
3010	0.0004914
3022	0.0006903
3034	0.0007254
3046	0.0010998
3058	0.0018837
3070	0.0023517
3082	0.002106
3094	0.001755
3106	0.0014508
3118	0.0007839
3130	0.0007254
3142	0.0006084
3154	0.0005967
3166	0.0006435
3178	0.0005616
3190	0.0004329
3202	0.0003276
3214	0.000351
3226	0.000234
3238	0.0001872
3250	0.0001872
3262	0.0001404
3274	0.0001404
3286	0.0001404
3298	0.0001989
3310	8.19e-05
3322	0.0001989
3334	0.000234
3346	0.0003042
3358	0.0002223
3370	0.0002574
3382	0.0001521
3394	0.0003393
3406	0.0006786
3418	0.0017316
3430	0.0025038
3442	0.0018135
3454	0.0006084
3466	0.0003393
3478	0.0003393
3490	0.0003276
3502	0.0003159
3514	0.000351
3526	0.0004095
3538	0.0004914
3550	0.0007137
3562	0.0015678
3574	0.0066222
3586	0.028431
3598	0.0343044
3610	0.0249912
3622	0.0050076
3634	0.0012636
3646	0.0012519
3658	0.0011817
3670	0.0006084
3682	0.0004212
3694	0.0003978
3706	0.0002808
3718	0.000351
3730	0.000351
3742	0.0003393
3754	0.000351
3766	0.0003861
3778	0.0003744
3790	0.0002808
3802	0.0003159
3814	0.000351
3826	0.0002457
3838	0.0002925
