Infrared Spectrum: 2-Furoic acid, tetrahydro
Formula: C5 H8 O3
CAS: 16874-33-2
State: LIQUID (NEAT)
Class: COBLENTZ III
Instrument: BECKMAN IR-9 (GRATING)
Instrument parameters: ORDER CHANGES: 670, 1200, 2000 CM^-^1
Sampling: TRANSMISSION
Path length: CAPILLARY
Resolution: 2
Origin: DOW CHEMICAL COMPANY
1/CM	TRANSMITTANCE
3798	0.9006
3789	0.9006
3780	0.9006
3771	0.9007
3762	0.9012
3753	0.9014
3744	0.9014
3735	0.9012
3726	0.901
3717	0.9007
3708	0.9004
3699	0.9
3690	0.8997
3681	0.8994
3672	0.8984
3663	0.8968
3654	0.8954
3645	0.8921
3636	0.8884
3627	0.8862
3618	0.8857
3609	0.8845
3600	0.8824
3591	0.8795
3582	0.8767
3573	0.8738
3564	0.8709
3555	0.8675
3546	0.8638
3537	0.86
3528	0.8563
3519	0.8518
3510	0.845
3501	0.837
3492	0.8289
3483	0.8202
3474	0.8104
3465	0.8006
3456	0.7893
3447	0.7775
3438	0.7618
3429	0.7441
3420	0.7258
3411	0.706
3402	0.6838
3393	0.6647
3384	0.6465
3375	0.6285
3366	0.6093
3357	0.5894
3348	0.5703
3339	0.554
3330	0.5305
3321	0.5078
3312	0.4922
3303	0.4745
3294	0.4527
3285	0.436
3276	0.4245
3267	0.414
3258	0.4037
3249	0.3928
3240	0.3829
3231	0.3748
3222	0.3671
3213	0.3606
3204	0.3542
3195	0.348
3186	0.343
3177	0.3378
3168	0.3327
3159	0.328
3150	0.3245
3141	0.322
3132	0.3202
3123	0.3184
3114	0.3178
3105	0.3172
3096	0.3168
3087	0.3169
3078	0.3169
3069	0.317
3060	0.3172
3051	0.3175
3042	0.3173
3033	0.3171
3024	0.3166
3015	0.2875
3006	0.258
2997	0.2305
2988	0.2254
2979	0.2307
2970	0.2326
2961	0.2351
2952	0.2549
2943	0.2784
2934	0.3011
2925	0.3157
2916	0.3114
2907	0.2984
2898	0.2917
2889	0.2946
2880	0.3314
2871	0.4129
2862	0.4612
2853	0.4897
2844	0.521
2835	0.5474
2826	0.572
2817	0.5901
2808	0.5986
2799	0.606
2790	0.6138
2781	0.6214
2772	0.629
2763	0.6354
2754	0.64
2745	0.6445
2736	0.6501
2727	0.6556
2718	0.6601
2709	0.6641
2700	0.6683
2691	0.6712
2682	0.6721
2673	0.6721
2664	0.6718
2655	0.6718
2646	0.6718
2637	0.6725
2628	0.6751
2619	0.6807
2610	0.6868
2601	0.6908
2592	0.6926
2583	0.6936
2574	0.6956
2565	0.6978
2556	0.7012
2547	0.7054
2538	0.7101
2529	0.7158
2520	0.7226
2511	0.7295
2502	0.7394
2493	0.7494
2484	0.7591
2475	0.7686
2466	0.7776
2457	0.7858
2448	0.7933
2439	0.8006
2430	0.8065
2421	0.8118
2412	0.8161
2403	0.8201
2394	0.8234
2385	0.8228
2376	0.8186
2367	0.819
2358	0.8236
2349	0.8281
2340	0.8327
2331	0.8373
2322	0.8413
2313	0.8453
2304	0.8471
2295	0.8487
2286	0.8505
2277	0.8523
2268	0.854
2259	0.8558
2250	0.8563
2241	0.8559
2232	0.8558
2223	0.8556
2214	0.8555
2205	0.8554
2196	0.8553
2187	0.8552
2178	0.8552
2169	0.855
2160	0.8549
2151	0.8547
2142	0.8546
2133	0.8546
2124	0.8545
2115	0.8545
2106	0.8545
2097	0.8546
2088	0.8547
2079	0.8544
2070	0.854
2061	0.8536
2052	0.8527
2043	0.8516
2034	0.8507
2025	0.8499
2016	0.8489
2007	0.8492
1998	0.8571
1989	0.8551
1980	0.8543
1971	0.8531
1962	0.8525
1953	0.8527
1944	0.8536
1935	0.853
1926	0.8518
1917	0.8511
1908	0.8506
1899	0.8495
1890	0.8475
1881	0.8445
1872	0.8413
1863	0.8384
1854	0.834
1845	0.8277
1836	0.8204
1827	0.8111
1818	0.7976
1809	0.7751
1800	0.7221
1791	0.6645
1782	0.5735
1773	0.3609
1764	0.1266
1755	0.0502
1746	0.0473
1737	0.0574
1728	0.0772
1719	0.1361
1710	0.2231
1701	0.3105
1692	0.4208
1683	0.5145
1674	0.5747
1665	0.6188
1656	0.6798
1647	0.7157
1638	0.7408
1629	0.7657
1620	0.7808
1611	0.7915
1602	0.7971
1593	0.8036
1584	0.8112
1575	0.815
1566	0.8161
1557	0.8196
1548	0.823
1539	0.8187
1530	0.8225
1521	0.8174
1512	0.8108
1503	0.8075
1494	0.7812
1485	0.7594
1476	0.7065
1467	0.6451
1458	0.6178
1449	0.6144
1440	0.6324
1431	0.5975
1422	0.5685
1413	0.5516
1404	0.5498
1395	0.5493
1386	0.5371
1377	0.4972
1368	0.4567
1359	0.4619
1350	0.4937
1341	0.5375
1332	0.5378
1323	0.4983
1314	0.4864
1305	0.5133
1296	0.5383
1287	0.5473
1278	0.5471
1269	0.5397
1260	0.5037
1251	0.4512
1242	0.397
1233	0.3441
1224	0.3067
1215	0.284
1206	0.2831
1197	0.2984
1188	0.297
1179	0.3014
1170	0.3805
1161	0.5076
1152	0.5765
1143	0.6671
1134	0.6948
1125	0.68
1116	0.5922
1107	0.4388
1098	0.2628
1089	0.1567
1080	0.1644
1071	0.2187
1062	0.3616
1053	0.5816
1044	0.5975
1035	0.5886
1026	0.6719
1017	0.7694
1008	0.784
999	0.7742
990	0.7595
981	0.7292
972	0.6667
963	0.6286
954	0.6064
945	0.4985
936	0.4315
927	0.43
918	0.5056
909	0.5468
900	0.576
891	0.613
882	0.5972
873	0.5803
864	0.591
855	0.6059
846	0.5985
837	0.5995
828	0.6099
819	0.6204
810	0.6307
801	0.6391
792	0.6445
783	0.6401
774	0.6284
765	0.6217
756	0.6227
747	0.643
738	0.6607
729	0.6808
720	0.6945
711	0.6989
702	0.694
693	0.6558
684	0.6318
675	0.6381
666	0.6575
657	0.6551
648	0.6503
639	0.649
630	0.6746
621	0.6953
612	0.7089
603	0.7212
594	0.728
585	0.7343
576	0.7407
567	0.7478
558	0.7538
549	0.759
540	0.7641
531	0.7687
522	0.7724
513	0.7747
504	0.7758
495	0.7761
486	0.7697
477	0.7568
468	0.7411
459	0.7238
450	0.7071
441	0.6925
432	0.675
423	0.6465
414	0.6485
405	0.6664
