Infrared Spectrum: 5-Amino-2-methoxyphenol
Formula: C 7 H 9 N O 2
CAS: 1687-53-2
State: gas
Origin: EPA-IR VAPOR PHASE LIBRARY
1/CM	ABSORBANCE
551.7	0.00378
563.274	0.00427
574.848	0.00478
586.421	0.00541
597.995	0.00595
609.569	0.00656
621.143	0.00594
632.717	0.00652
644.291	0.00868
655.864	0.01134
667.438	0.01111
679.012	0.00906
690.586	0.00749
702.16	0.00682
713.734	0.00687
725.307	0.00607
736.881	0.00513
748.455	0.00717
760.029	0.01019
771.603	0.01009
783.177	0.01143
794.75	0.01036
806.324	0.00674
817.898	0.00526
829.472	0.00669
841.046	0.00962
852.619	0.00741
864.193	0.00459
875.767	0.00328
887.341	0.00278
898.915	0.00264
910.489	0.00264
922.062	0.00275
933.636	0.00326
945.21	0.0067
956.784	0.01226
968.358	0.01035
979.932	0.00503
991.505	0.00515
1003.08	0.00724
1014.65	0.01197
1026.23	0.01476
1037.8	0.01158
1049.37	0.00768
1060.95	0.00496
1072.52	0.00502
1084.1	0.00564
1095.67	0.00595
1107.24	0.00704
1118.82	0.00799
1130.39	0.00838
1141.97	0.00819
1153.54	0.01326
1165.11	0.02694
1176.69	0.03395
1188.26	0.02409
1199.83	0.02142
1211.41	0.02001
1222.98	0.01966
1234.56	0.03493
1246.13	0.04051
1257.7	0.02229
1269.28	0.0138
1280.85	0.01602
1292.42	0.02443
1304	0.02701
1315.57	0.01755
1327.15	0.00795
1338.72	0.00755
1350.29	0.00928
1361.87	0.00763
1373.44	0.00377
1385.02	0.00233
1396.59	0.00226
1408.16	0.0024
1419.74	0.00297
1431.31	0.00501
1442.88	0.01
1454.46	0.01204
1466.03	0.01077
1477.61	0.01067
1489.18	0.01712
1500.75	0.05021
1512.33	0.07641
1523.9	0.04383
1535.48	0.01263
1547.05	0.00634
1558.62	0.00603
1570.2	0.00688
1581.77	0.00998
1593.34	0.01377
1604.92	0.01458
1616.49	0.01487
1628.07	0.01873
1639.64	0.01645
1651.21	0.0078
1662.79	0.00369
1674.36	0.00271
1685.93	0.00214
1697.51	0.00164
1709.08	0.00126
1720.66	0.00107
1732.23	0.00102
1743.8	0.00106
1755.38	0.00105
1766.95	0.00105
1778.53	0.00105
1790.1	0.00109
1801.67	0.00113
1813.25	0.00111
1824.82	0.00105
1836.39	0.0009066
1847.97	0.0007714
1859.54	0.0007166
1871.12	0.0006754
1882.69	0.000709
1894.26	0.0007998
1905.84	0.0007624
1917.41	0.0007142
1928.99	0.0006848
1940.56	0.0006521
1952.13	0.0006561
1963.71	0.0007997
1975.28	0.0008537
1986.85	0.0009558
1998.43	0.00106
2010	0.00109
2021.58	0.0009343
2033.15	0.0009355
2044.72	0.0008292
2056.3	0.0007763
2067.87	0.0007529
2079.44	0.0006477
2091.02	0.0005474
2102.59	0.0004651
2114.17	0.0004742
2125.74	0.00046
2137.31	0.00041
2148.89	0.0004202
2160.46	0.000376
2172.04	0.0003671
2183.61	0.0003779
2195.18	0.0004125
2206.76	0.0003993
2218.33	0.0003664
2229.9	0.0004743
2241.48	0.0004947
2253.05	0.0005805
2264.63	0.0006855
2276.2	0.0006468
2287.77	0.0004649
2299.35	0.000409
2310.92	0.0003725
2322.5	0.0003896
2334.07	0.0004977
2345.64	0.0005425
2357.22	0.000483
2368.79	0.0004588
2380.36	0.0003334
2391.94	0.0002427
2403.51	0.0002897
2415.09	0.0003906
2426.66	0.0005106
2438.23	0.0005468
2449.81	0.0006139
2461.38	0.0006761
2472.96	0.0006634
2484.53	0.0005446
2496.1	0.000414
2507.68	0.0004878
2519.25	0.000526
2530.82	0.0006222
2542.4	0.0005398
2553.97	0.0004357
2565.55	0.0003684
2577.12	0.0003275
2588.69	0.0003474
2600.27	0.000327
2611.84	0.0003119
2623.41	0.0003755
2634.99	0.0003972
2646.56	0.0004001
2658.14	0.0003152
2669.71	0.0002818
2681.28	0.0003081
2692.86	0.0002718
2704.43	0.0003137
2716.01	0.0003007
2727.58	0.0003113
2739.15	0.0002904
2750.73	0.0004241
2762.3	0.0004093
2773.87	0.0005969
2785.45	0.0007118
2797.02	0.00101
2808.6	0.00137
2820.17	0.00197
2831.74	0.00366
2843.32	0.0058
2854.89	0.00456
2866.47	0.00271
2878.04	0.00238
2889.61	0.00254
2901.19	0.00335
2912.76	0.00466
2924.33	0.00557
2935.91	0.00749
2947.48	0.00928
2959.06	0.00848
2970.63	0.00574
2982.2	0.00469
2993.78	0.006
3005.35	0.00718
3016.92	0.00474
3028.5	0.00457
3040.07	0.00677
3051.65	0.00573
3063.22	0.00336
3074.79	0.00236
3086.37	0.00182
3097.94	0.00135
3109.52	0.00115
3121.09	0.0008684
3132.66	0.0006911
3144.24	0.0005587
3155.81	0.0003397
3167.38	0.0004005
3178.96	0.0004009
3190.53	0.0003325
3202.11	0.0003922
3213.68	0.000426
3225.25	0.000477
3236.83	0.0005515
3248.4	0.0004313
3259.98	0.0004092
3271.55	0.000521
3283.12	0.0004537
3294.7	0.000252
3306.27	0.000214
3317.84	0.0002158
3329.42	0.0002154
3340.99	0.0003368
3352.57	0.0003819
3364.14	0.0002967
3375.71	0.0006084
3387.29	0.001
3398.86	0.00203
3410.43	0.00215
3422.01	0.0013
3433.58	0.0007428
3445.16	0.000678
3456.73	0.0008333
3468.3	0.00129
3479.88	0.00188
3491.45	0.00194
3503.03	0.00141
3514.6	0.0008035
3526.17	0.0007554
3537.75	0.0009823
3549.32	0.00176
3560.89	0.00536
3572.47	0.01815
3584.04	0.02412
3595.62	0.01229
3607.19	0.00351
3618.76	0.00123
3630.34	0.0008241
3641.91	0.0008845
3653.49	0.0008493
3665.06	0.0005369
3676.63	0.0004287
3688.21	0.0003579
3699.78	0.0003334
3711.35	0.0002648
3722.93	0.000192
3734.5	0.0001476
3746.08	0.0003849
3757.65	0.0002168
3769.22	0.0002857
3780.8	0.000243
3792.37	0.0002703
3803.94	0.0001715
3815.52	0.0002187
3827.09	0.0003257
3838.67	0.0002302
3850.24	0.0004077
3861.81	0.0003465
3873.39	0.0004773
3884.96	0.0005153
3896.54	0.0005003
3908.11	0.0004312
3919.68	0.0004379
3931.26	0.0004183
3942.83	0.0003433
3954.4	0.0004879
3965.98	0.0004058
3977.55	0.0005249
3989.13	0.0004989
4000.7	0.0005329
