Infrared Spectrum: 3-NITROSO-2-IMIDAZOLIDONE-1-(N-METHYLCARBOXAMIDE)
Formula: C5 H8 N4 O3
CAS: 16872-50-7
State: SOLID (1 mg / 650 mg KBr DISC)
Class: COBLENTZ III
Instrument: PERKIN-ELMER 521 (GRATING)
Instrument parameters: GRATING CHANGES AT3150, 2500, 2000, 1150, 700, 410 CM^-^1, GRATING CHANGES AT 3130, 2475, 2000, 620 CM^-^1
Sampling: TRANSMISSION
Resolution: 4
Origin: SOUTHERN RES. INSTITUTE
1/CM	TRANSMITTANCE
224.304	0.213
233.418	0.225
242.532	0.264
251.646	0.3129
260.76	0.4009
269.874	0.481
278.988	0.536
288.102	0.615
297.216	0.666
306.33	0.686
315.444	0.663
324.558	0.5831
333.672	0.656
342.786	0.728
351.9	0.792
361.014	0.845
370.128	0.875
379.242	0.891
388.356	0.901
397.47	0.908
406.584	0.911
415.698	0.914
424.812	0.92
433.926	0.921
443.04	0.913
452.154	0.878
461.268	0.748
470.382	0.907
479.496	0.937
488.609	0.936
497.723	0.933
506.837	0.934
515.951	0.935
525.065	0.936
534.179	0.932
543.293	0.93
552.407	0.929
561.521	0.921
570.635	0.917
579.749	0.912
588.863	0.901
597.977	0.894
607.091	0.878
616.205	0.848
625.319	0.788
634.433	0.5569
643.547	0.7039
652.661	0.75
661.775	0.5881
670.889	0.536
680.003	0.6611
689.117	0.771
698.231	0.812
707.345	0.7511
716.459	0.679
725.573	0.7219
734.687	0.265
743.801	0.283
752.915	0.7748
762.029	0.883
771.143	0.896
780.257	0.894
789.371	0.886
798.485	0.859
807.599	0.777
816.713	0.4499
825.827	0.7598
834.941	0.94
844.055	0.932
853.169	0.923
862.283	0.911
871.397	0.9
880.511	0.891
889.625	0.887
898.739	0.878
907.853	0.859
916.967	0.833
926.081	0.769
935.195	0.7799
944.309	0.868
953.423	0.859
962.537	0.84
971.651	0.814
980.765	0.773
989.879	0.694
998.992	0.6831
1008.11	0.789
1017.22	0.785
1026.33	0.6931
1035.45	0.545
1044.56	0.755
1053.68	0.738
1062.79	0.705
1071.9	0.675
1081.02	0.644
1090.13	0.6
1099.25	0.548
1108.36	0.516
1117.47	0.507
1126.59	0.408
1135.7	0.2309
1144.82	0.171
1153.93	0.268
1163.04	0.198
1172.16	0.192
1181.27	0.158
1190.39	0.208
1199.5	0.109
1208.61	0.14
1217.73	0.213
1226.84	0.4131
1235.96	0.555
1245.07	0.645
1254.18	0.736
1263.3	0.682
1272.41	0.6864
1281.53	0.362
1290.64	0.5122
1299.75	0.735
1308.87	0.79
1317.98	0.795
1327.1	0.771
1336.21	0.6979
1345.32	0.472
1354.44	0.355
1363.55	0.5671
1372.67	0.646
1381.78	0.4138
1390.89	0.0671
1400.01	0.189
1409.12	0.32
1418.24	0.573
1427.35	0.706
1436.46	0.753
1445.58	0.74
1454.69	0.6436
1463.81	0.25
1472.92	0.2761
1482.03	0.5559
1491.15	0.6099
1500.26	0.5656
1509.38	0.625
1518.49	0.5329
1527.6	0.36
1536.72	0.243
1545.83	0.3761
1554.95	0.522
1564.06	0.6551
1573.17	0.716
1582.29	0.761
1591.4	0.776
1600.52	0.783
1609.63	0.792
1618.74	0.789
1627.86	0.783
1636.97	0.774
1646.09	0.74
1655.2	0.682
1664.31	0.666
1673.43	0.595
1682.54	0.4798
1691.66	0.2059
1700.77	0.065
1709.88	0.332
1719	0.6491
1728.11	0.826
1737.23	0.774
1746.34	0.5298
1755.45	0.218
1764.57	0.086
1773.68	0.1783
1782.79	0.427
1791.91	0.4961
1801.02	0.637
1810.14	0.691
1819.25	0.7411
1828.36	0.784
1837.48	0.813
1846.59	0.835
1855.71	0.85
1864.82	0.859
1873.93	0.88
1883.05	0.896
1892.16	0.899
1901.28	0.902
1910.39	0.906
1919.5	0.912
1928.62	0.918
1937.73	0.923
1946.85	0.927
1955.96	0.932
1965.07	0.934
1974.19	0.934
1983.3	0.932
1992.42	0.93
2001.53	0.929
2010.64	0.932
2019.76	0.932
2028.87	0.935
2037.99	0.9409
2047.1	0.9411
2056.21	0.94
2065.33	0.9371
2074.44	0.935
2083.56	0.936
2092.67	0.938
2101.78	0.94
2110.9	0.942
2120.01	0.942
2129.13	0.943
2138.24	0.9438
2147.35	0.944
2156.47	0.942
2165.58	0.939
2174.7	0.938
2183.81	0.935
2192.92	0.934
2202.04	0.933
2211.15	0.9364
2220.27	0.9417
2229.38	0.945
2238.49	0.945
2247.61	0.9424
2256.72	0.942
2265.84	0.942
2274.95	0.944
2284.06	0.9404
2293.18	0.9354
2302.29	0.932
2311.41	0.929
2320.52	0.93
2329.63	0.931
2338.75	0.931
2347.86	0.932
2356.98	0.933
2366.09	0.934
2375.2	0.934
2384.32	0.932
2393.43	0.931
2402.55	0.93
2411.66	0.929
2420.77	0.925
2429.89	0.9226
2439	0.919
2448.12	0.9136
2457.23	0.914
2466.34	0.9216
2475.46	0.9207
2484.57	0.92
2493.69	0.9187
2502.8	0.917
2511.91	0.915
2521.03	0.913
2530.14	0.911
2539.26	0.911
2548.37	0.912
2557.48	0.914
2566.6	0.915
2575.71	0.917
2584.83	0.917
2593.94	0.916
2603.05	0.914
2612.17	0.9129
2621.28	0.911
2630.4	0.911
2639.51	0.911
2648.62	0.911
2657.74	0.911
2666.85	0.912
2675.97	0.912
2685.08	0.914
2694.19	0.914
2703.31	0.914
2712.42	0.914
2721.54	0.913
2730.65	0.912
2739.76	0.911
2748.88	0.9081
2757.99	0.907
2767.11	0.904
2776.22	0.9011
2785.33	0.899
2794.45	0.8961
2803.56	0.896
2812.67	0.895
2821.79	0.8932
2830.9	0.8902
2840.02	0.8814
2849.13	0.8712
2858.24	0.8655
2867.36	0.851
2876.47	0.8181
2885.59	0.8273
2894.7	0.8447
2903.81	0.8359
2912.93	0.8093
2922.04	0.7953
2931.16	0.7784
2940.27	0.7357
2949.38	0.755
2958.5	0.8028
2967.61	0.809
2976.73	0.7945
2985.84	0.7616
2994.95	0.8113
3004.07	0.8515
3013.18	0.8475
3022.3	0.868
3031.41	0.871
3040.52	0.871
3049.64	0.872
3058.75	0.873
3067.87	0.874
3076.98	0.875
3086.09	0.8764
3095.21	0.877
3104.32	0.878
3113.44	0.88
3122.55	0.8793
3131.66	0.871
3140.78	0.868
3149.89	0.866
3159.01	0.865
3168.12	0.862
3177.23	0.86
3186.35	0.859
3195.46	0.856
3204.58	0.8537
3213.69	0.8508
3222.8	0.8468
3231.92	0.841
3241.03	0.8348
3250.15	0.8316
3259.26	0.8175
3268.37	0.7984
3277.49	0.7736
3286.6	0.7556
3295.72	0.7336
3304.83	0.7202
3313.94	0.6671
3323.06	0.5587
3332.17	0.3539
3341.29	0.2756
3350.4	0.6012
3359.51	0.7023
3368.63	0.759
3377.74	0.76
3386.86	0.774
3395.97	0.7969
3405.08	0.807
3414.2	0.811
3423.31	0.8129
3432.43	0.8139
3441.54	0.8179
3450.65	0.82
3459.77	0.822
3468.88	0.8173
3478	0.8113
3487.11	0.809
3496.22	0.8165
3505.34	0.8286
3514.45	0.8358
3523.57	0.841
3532.68	0.8458
3541.79	0.847
3550.91	0.847
3560.02	0.848
3569.14	0.8497
3578.25	0.853
3587.36	0.85
3596.48	0.8537
3605.59	0.858
3614.71	0.857
3623.82	0.856
3632.93	0.862
3642.05	0.8654
3651.16	0.8546
3660.28	0.8656
3669.39	0.8589
3678.5	0.8511
3687.62	0.8605
3696.73	0.8635
3705.85	0.8615
3714.96	0.857
3724.07	0.863
3733.19	0.861
3742.3	0.8555
3751.42	0.8495
3760.53	0.8594
3769.64	0.8644
3778.76	0.869
3787.87	0.862
3796.99	0.8596
