Infrared Spectrum: 3-(Trifluoromethoxy)cinnamic acid
Formula: C 10 H 7 F 3 O 3
CAS: 168833-80-5
State: gas
Origin: EPA-IR VAPOR PHASE LIBRARY
1/CM	ABSORBANCE
549.8	0.00453
559.445	0.00644
569.09	0.00838
578.734	0.00592
588.379	0.00473
598.024	0.0025696
607.669	0.0020366
617.313	0.00267
626.958	0.00441
636.603	0.00441
646.248	0.00472
655.893	0.00369
665.537	0.00343
675.182	0.00436
684.827	0.00377
694.472	0.00373
704.116	0.00401
713.761	0.0018686
723.406	0.00318
733.051	0.00307
742.695	0.0028
752.34	0.0020149
761.985	0.00271
771.63	0.0033
781.275	0.00372
790.919	0.0042
800.564	0.00262
810.209	0.00275
819.854	0.0017045
829.498	0.001332
839.143	0.0015541
848.788	0.0023266
858.433	0.0032
868.078	0.00458
877.722	0.00403
887.367	0.00339
897.012	0.0033
906.657	0.00314
916.301	0.00301
925.946	0.0023258
935.591	0.0017601
945.236	0.00301
954.88	0.00276
964.525	0.00395
974.17	0.00515
983.815	0.00567
993.46	0.0032
1003.1	0.00348
1012.75	0.0018883
1022.39	0.00263
1032.04	0.00273
1041.68	0.00358
1051.33	0.00341
1060.97	0.00347
1070.62	0.00314
1080.26	0.00309
1089.91	0.00378
1099.55	0.00731
1109.2	0.01165
1118.84	0.02575
1128.49	0.01424
1138.13	0.00907
1147.78	0.014
1157.42	0.01747
1167.07	0.01455
1176.71	0.01912
1186.36	0.02661
1196	0.02455
1205.64	0.02475
1215.29	0.03578
1224.93	0.04061
1234.58	0.02995
1244.22	0.02393
1253.87	0.03683
1263.51	0.0569
1273.16	0.0518
1282.8	0.02418
1292.45	0.0137
1302.09	0.0085
1311.74	0.00701
1321.38	0.00571
1331.03	0.00479
1340.67	0.00496
1350.32	0.00646
1359.96	0.00752
1369.61	0.00531
1379.25	0.00361
1388.9	0.00266
1398.54	0.00267
1408.18	0.0025905
1417.83	0.0025736
1427.47	0.0025607
1437.12	0.00393
1446.76	0.00407
1456.41	0.00316
1466.05	0.0024157
1475.7	0.00289
1485.34	0.00438
1494.99	0.00394
1504.63	0.0034
1514.28	0.0023255
1523.92	0.0021241
1533.57	0.002107
1543.21	0.002395
1552.86	0.0025082
1562.5	0.0028
1572.15	0.00366
1581.79	0.00528
1591.44	0.00474
1601.08	0.00427
1610.73	0.0045
1620.37	0.00332
1630.01	0.00402
1639.66	0.00655
1649.3	0.00642
1658.95	0.00328
1668.59	0.0024762
1678.24	0.00271
1687.88	0.0022768
1697.53	0.00293
1707.17	0.00322
1716.82	0.0038
1726.46	0.00504
1736.11	0.00692
1745.75	0.01345
1755.4	0.02545
1765.04	0.0184
1774.69	0.00815
1784.33	0.00671
1793.98	0.0049
1803.62	0.0035
1813.27	0.0028
1822.91	0.0023764
1832.55	0.0020243
1842.2	0.002094
1851.84	0.0021716
1861.49	0.0019061
1871.13	0.001889
1880.78	0.0020103
1890.42	0.00168068
1900.07	0.0019133
1909.71	0.0017378
1919.36	0.0015246
1929	0.0018023
1938.65	0.0018554
1948.29	0.001766
1957.94	0.0017065
1967.58	0.0015308
1977.23	0.001434
1986.87	0.0019088
1996.52	0.001375
2006.16	0.0018587
2015.81	0.001755
2025.45	0.0017836
2035.1	0.0019795
2044.74	0.001413
2054.38	0.0017147
2064.03	0.0017523
2073.67	0.00164178
2083.32	0.0018277
2092.96	0.00160649
2102.61	0.0017242
2112.25	0.0017033
2121.9	0.001463
2131.54	0.0017346
2141.19	0.0017887
2150.83	0.001233
2160.48	0.00166228
2170.12	0.001224
2179.77	0.001273
2189.41	0.001489
2199.06	0.001406
2208.7	0.0017691
2218.35	0.001385
2227.99	0.0015109
2237.64	0.00162059
2247.28	0.001144
2256.92	0.001472
2266.57	0.0015492
2276.21	0.0015859
2285.86	0.001515
2295.5	0.001188
2305.15	0.00167333
2314.79	0.00159418
2324.44	0.001428
2334.08	0.00159227
2343.73	0.001362
2353.37	0.00143
2363.02	0.0017731
2372.66	0.001355
2382.31	0.001848
2391.95	0.00161924
2401.6	0.0015637
2411.24	0.00146
2420.89	0.001213
2430.53	0.0015893
2440.18	0.0018444
2449.82	0.0018641
2459.47	0.0015033
2469.11	0.0020275
2478.75	0.0015314
2488.4	0.0017141
2498.04	0.001428
2507.69	0.00123
2517.33	0.001385
2526.98	0.0015677
2536.62	0.001279
2546.27	0.001017
2555.91	0.001434
2565.56	0.00121
2575.2	0.0017039
2584.85	0.001161
2594.49	0.001156
2604.14	0.000801
2613.78	0.001495
2623.43	0.001406
2633.07	0.001211
2642.72	0.00163014
2652.36	0.001355
2662.01	0.001001
2671.65	0.00168674
2681.29	0.001112
2690.94	0.001087
2700.58	0.000956
2710.23	0.001408
2719.87	0.00127
2729.52	0.0018622
2739.16	0.0015242
2748.81	0.00148
2758.45	0.001487
2768.1	0.0016611
2777.74	0.000903
2787.39	0.0017271
2797.03	0.000923
2806.68	0.001278
2816.32	0.001316
2825.97	0.001077
2835.61	0.0015676
2845.26	0.000696
2854.9	0.001365
2864.55	0.000775
2874.19	0.0015392
2883.84	0.001037
2893.48	0.000982
2903.12	0.000986
2912.77	0.00055
2922.41	0.001023
2932.06	0.001245
2941.7	0.001013
2951.35	0.00165298
2960.99	0.001416
2970.64	0.001046
2980.28	0.0017201
2989.93	0.000905
2999.57	0.000641
3009.22	0.001206
3018.86	0.00160609
3028.51	0.001337
3038.15	0.000922
3047.8	0.000883
3057.44	0.0022158
3067.09	0.0025849
3076.73	0.0019148
3086.38	0.0022245
3096.02	0.001441
3105.67	0.001418
3115.31	0.001394
3124.95	0.000702
3134.6	0.000635
3144.24	0.0018142
3153.89	0.000813
3163.53	0.001098
3173.18	0.001291
3182.82	0.0021573
3192.47	0.000922
3202.11	0.001033
3211.76	0.0018139
3221.4	0.001189
3231.05	0.001069
3240.69	0.001237
3250.34	0.0015499
3259.98	0.001141
3269.63	0.001295
3279.27	0.000802
3288.92	0.001437
3298.56	0.0019668
3308.21	0.00169578
3317.85	0.0020226
3327.49	0.0018497
3337.14	0.0017381
3346.78	0.000919
3356.43	0.00163334
3366.07	0.001375
3375.72	0.0015085
3385.36	0.000973
3395.01	0.00052
3404.65	0.001476
3414.3	0.0021723
3423.94	0.00046
3433.59	0.00162271
3443.23	0.001288
3452.88	0.00169469
3462.52	0.001056
3472.17	0.0017291
3481.81	0.00125
3491.46	0.0018982
3501.1	0.00162032
3510.75	0.0018497
3520.39	0.001175
3530.04	0.0019222
3539.68	0.000804
3549.32	0.0018381
3558.97	0.000998
3568.61	0.00319
3578.26	0.00954
3587.9	0.00883
3597.55	0.00261
3607.19	0.001215
3616.84	0.0024631
3626.48	0.00167541
3636.13	0.00161862
3645.77	0.0019358
3655.42	0.001142
3665.06	0.001238
3674.71	0.0023821
3684.35	0.00168866
3694	0.001485
3703.64	0.00163892
3713.29	0.0020824
3722.93	0.001838
3732.58	0.0015475
3742.22	0.001151
3751.86	0.0018992
3761.51	0.000659
3771.15	0.0023761
3780.8	0.0020708
3790.44	0.000844
3800.09	0.000986
3809.73	0.0019822
3819.38	0.0017038
3829.02	0.000603
3838.67	0.000985
3848.31	0.0017182
3857.96	0.001364
3867.6	0.001472
3877.25	0.0017487
3886.89	0.0022073
3896.54	0.000685
3906.18	0.000831
3915.83	0.0015629
3925.47	0.001346
3935.12	0.0015122
3944.76	0.001203
3954.41	0.000984
3964.05	0.000761
3973.69	0.001205
3983.34	0.001448
3992.98	0.0021131
