Infrared Spectrum: ISOBUTYRIC ACID, TERT-BUTYL ESTER
Formula: C8 H16 O2
CAS: 16889-72-8
Boiling point: 59-63 C AT 77 mmHg
Class: COBLENTZ
Instrument: Not specified, most likely a prism, grating, or hybrid spectrometer.
Sampling: TRANSMISSION
Path length: SMEAR
Resolution: 4
Origin: TENNESSEE EASTMAN COMPANY, RESEARCH LABORATORIES
MICROMETERS	TRANSMITTANCE
2.041	0.952
2.08196	0.952
2.12291	0.952
2.16387	0.952
2.20482	0.933
2.24578	0.898
2.28674	0.904
2.32769	0.909
2.36865	0.91
2.4096	0.912
2.45056	0.916
2.49152	0.934
2.53247	0.936
2.57343	0.936
2.61438	0.941
2.65534	0.945
2.6963	0.945
2.73725	0.945
2.77821	0.945
2.81916	0.94
2.86012	0.916
2.90108	0.881
2.94203	0.883
2.98299	0.864
3.02394	0.852
3.0649	0.845
3.10586	0.833
3.14681	0.839
3.18777	0.857
3.22872	0.857
3.26968	0.806
3.31064	0.277
3.35159	0.238
3.39255	0.303
3.4335	0.392
3.47446	0.765
3.51542	0.83
3.55637	0.89
3.59733	0.898
3.63828	0.897
3.67924	0.907
3.7202	0.924
3.76115	0.924
3.80211	0.922
3.84306	0.924
3.88402	0.928
3.92498	0.933
3.96593	0.941
4.00689	0.946
4.04784	0.948
4.0888	0.948
4.12976	0.945
4.17071	0.94
4.21167	0.929
4.25262	0.898
4.29358	0.917
4.33454	0.924
4.37549	0.931
4.41645	0.958
4.4574	0.957
4.49836	0.953
4.53932	0.958
4.58027	0.958
4.62123	0.958
4.66218	0.958
4.70314	0.958
4.7441	0.96
4.78505	0.943
4.82601	0.952
4.86696	0.96
4.90792	0.958
4.94888	0.941
4.98983	0.933
5.03079	0.948
5.07174	0.955
5.1127	0.96
5.15366	0.962
5.19461	0.952
5.23557	0.948
5.27652	0.941
5.31748	0.929
5.35844	0.921
5.39939	0.912
5.44035	0.929
5.4813	0.929
5.52226	0.9
5.56322	0.827
5.60417	0.756
5.64513	0.578
5.68609	0.236
5.72704	0.023
5.768	0.042
5.80895	0.289
5.84991	0.409
5.89087	0.522
5.93182	0.645
5.97278	0.763
6.01373	0.832
6.05469	0.851
6.09565	0.876
6.1366	0.88
6.17756	0.869
6.21851	0.863
6.25947	0.863
6.30043	0.895
6.34138	0.904
6.38234	0.892
6.42329	0.886
6.46425	0.847
6.50521	0.83
6.54616	0.806
6.58712	0.791
6.62807	0.729
6.66903	0.602
6.70999	0.349
6.75094	0.219
6.7919	0.255
6.83285	0.316
6.87381	0.469
6.91477	0.609
6.95572	0.681
6.99668	0.712
7.03763	0.714
7.07859	0.659
7.11955	0.464
7.1605	0.203
7.20146	0.248
7.24241	0.299
7.28337	0.087
7.32433	0.174
7.36528	0.287
7.40624	0.261
7.44719	0.371
7.48815	0.505
7.52911	0.585
7.57006	0.619
7.61102	0.638
7.65197	0.597
7.69293	0.525
7.73389	0.44
7.77484	0.306
7.8158	0.256
7.85675	0.315
7.89771	0.325
7.93867	0.21
7.97962	0.196
8.02058	0.272
8.06153	0.313
8.10249	0.28
8.14345	0.195
8.1844	0.118
8.22536	0.145
8.26631	0.267
8.30727	0.313
8.34823	0.265
8.38918	0.179
8.43014	0.095
8.47109	0.058
8.51205	0.046
8.55301	0.022
8.59396	0.01
8.63492	0.006
8.67587	0.006
8.71683	0.025
8.75779	0.09
8.79874	0.183
8.8397	0.248
8.88065	0.272
8.92161	0.301
8.96257	0.354
9.00352	0.404
9.04448	0.393
9.08543	0.332
9.12639	0.386
9.16735	0.39
9.2083	0.327
9.24926	0.244
9.29021	0.226
9.33117	0.32
9.37213	0.491
9.41308	0.618
9.45404	0.693
9.49499	0.729
9.53595	0.741
9.57691	0.717
9.61786	0.688
9.65882	0.724
9.69977	0.758
9.74073	0.791
9.78169	0.813
9.82264	0.827
9.8636	0.83
9.90455	0.832
9.94551	0.832
9.98647	0.835
10.0274	0.845
10.0684	0.854
10.1093	0.861
10.1503	0.864
10.1912	0.864
10.2322	0.864
10.2732	0.851
10.3141	0.825
10.3551	0.804
10.396	0.811
10.437	0.83
10.4779	0.839
10.5189	0.842
10.5599	0.832
10.6008	0.808
10.6418	0.734
10.6827	0.626
10.7237	0.614
10.7646	0.66
10.8056	0.722
10.8465	0.761
10.8875	0.775
10.9285	0.82
10.9694	0.849
11.0104	0.868
11.0513	0.881
11.0923	0.89
11.1332	0.893
11.1742	0.895
11.2151	0.895
11.2561	0.895
11.2971	0.892
11.338	0.885
11.379	0.871
11.4199	0.854
11.4609	0.83
11.5018	0.791
11.5428	0.702
11.5838	0.597
11.6247	0.441
11.6657	0.315
11.7066	0.236
11.7476	0.22
11.7885	0.311
11.8295	0.44
11.8704	0.568
11.9114	0.666
11.9524	0.727
11.9933	0.77
12.0343	0.799
12.0752	0.82
12.1162	0.833
12.1571	0.844
12.1981	0.852
12.239	0.857
12.28	0.863
12.321	0.866
12.3619	0.868
12.4029	0.869
12.4438	0.869
12.4848	0.869
12.5257	0.868
12.5667	0.863
12.6077	0.861
12.6486	0.857
12.6896	0.852
12.7305	0.844
12.7715	0.837
12.8124	0.825
12.8534	0.809
12.8943	0.785
12.9353	0.751
12.9763	0.695
13.0172	0.635
13.0582	0.577
13.0991	0.571
13.1401	0.609
13.181	0.64
13.222	0.647
13.2629	0.635
13.3039	0.594
13.3449	0.585
13.3858	0.611
13.4268	0.655
13.4677	0.702
13.5087	0.744
13.5496	0.767
13.5906	0.791
13.6316	0.799
13.6725	0.808
13.7135	0.815
13.7544	0.818
13.7954	0.818
13.8363	0.82
13.8773	0.82
13.9182	0.82
13.9592	0.82
14.0002	0.82
14.0411	0.82
14.0821	0.815
14.123	0.811
14.164	0.808
14.2049	0.806
14.2459	0.803
14.2868	0.799
14.3278	0.796
14.3688	0.791
14.4097	0.787
14.4507	0.785
14.4916	0.78
14.5326	0.772
14.5735	0.77
14.6145	0.765
14.6555	0.76
14.6964	0.755
14.7374	0.75
14.7783	0.744
14.8193	0.738
14.8602	0.731
14.9012	0.719
14.9421	0.708
14.9831	0.696
15.0241	0.691
15.065	0.684
15.106	0.679
15.1469	0.671
15.1879	0.666
15.2288	0.66
15.2698	0.655
15.3107	0.65
15.3517	0.648
15.3927	0.645
15.4336	0.642
15.4746	0.64
15.5155	0.638
15.5565	0.636
15.5974	0.631
15.6384	0.63
15.6794	0.628
15.7203	0.626
15.7613	0.625
15.8022	0.623
15.8432	0.623
15.8841	0.621
15.9251	0.621
15.966	0.621
16.007	0.623
