Infrared Spectrum: 4'-Aminobutyrophenone
Formula: C 10 H 13 N O
CAS: 1688-71-7
State: gas
Origin: EPA-IR VAPOR PHASE LIBRARY
1/CM	ABSORBANCE
551.7	0.0145
563.274	0.01684
574.848	0.01944
586.421	0.01862
597.995	0.01475
609.569	0.01349
621.143	0.01217
632.717	0.01266
644.291	0.01449
655.864	0.01735
667.438	0.02251
679.012	0.02471
690.586	0.02063
702.16	0.01722
713.734	0.01588
725.307	0.01435
736.881	0.01253
748.455	0.01235
760.029	0.01294
771.603	0.01315
783.177	0.01383
794.75	0.01704
806.324	0.02152
817.898	0.02651
829.472	0.02871
841.046	0.01917
852.619	0.01087
864.193	0.00851
875.767	0.00768
887.341	0.00906
898.915	0.00925
910.489	0.00614
922.062	0.00538
933.636	0.00566
945.21	0.0064
956.784	0.00778
968.358	0.01143
979.932	0.02093
991.505	0.02269
1003.08	0.01326
1014.65	0.00757
1026.23	0.00625
1037.8	0.00666
1049.37	0.00695
1060.95	0.0066
1072.52	0.00678
1084.1	0.00736
1095.67	0.00896
1107.24	0.00994
1118.82	0.01101
1130.39	0.01244
1141.97	0.01135
1153.54	0.01248
1165.11	0.0313
1176.69	0.08228
1188.26	0.03169
1199.83	0.02561
1211.41	0.04211
1222.98	0.04587
1234.56	0.03182
1246.13	0.02852
1257.7	0.03742
1269.28	0.06038
1280.85	0.06652
1292.42	0.04377
1304	0.02657
1315.57	0.02314
1327.15	0.0174
1338.72	0.01706
1350.29	0.02307
1361.87	0.02275
1373.44	0.01403
1385.02	0.00866
1396.59	0.00709
1408.16	0.00802
1419.74	0.0119
1431.31	0.01661
1442.88	0.01481
1454.46	0.0129
1466.03	0.01123
1477.61	0.00902
1489.18	0.00839
1500.75	0.01219
1512.33	0.01922
1523.9	0.01252
1535.48	0.00789
1547.05	0.00784
1558.62	0.0105
1570.2	0.01881
1581.77	0.03091
1593.34	0.06316
1604.92	0.09672
1616.49	0.10019
1628.07	0.10868
1639.64	0.04479
1651.21	0.02106
1662.79	0.01996
1674.36	0.03659
1685.93	0.08111
1697.51	0.08001
1709.08	0.02863
1720.66	0.01022
1732.23	0.00636
1743.8	0.00481
1755.38	0.00379
1766.95	0.0035
1778.53	0.00322
1790.1	0.00288
1801.67	0.00258
1813.25	0.00245
1824.82	0.00233
1836.39	0.00229
1847.97	0.00244
1859.54	0.00268
1871.12	0.00311
1882.69	0.003
1894.26	0.00273
1905.84	0.0027
1917.41	0.00281
1928.99	0.00282
1940.56	0.00248
1952.13	0.00227
1963.71	0.00226
1975.28	0.00221
1986.85	0.00214
1998.43	0.0022
2010	0.00237
2021.58	0.00238
2033.15	0.00212
2044.72	0.00186
2056.3	0.00177
2067.87	0.00166
2079.44	0.00159
2091.02	0.00161
2102.59	0.00159
2114.17	0.00157
2125.74	0.00144
2137.31	0.00129
2148.89	0.0012
2160.46	0.00121
2172.04	0.00123
2183.61	0.00125
2195.18	0.00128
2206.76	0.00128
2218.33	0.00121
2229.9	0.00115
2241.48	0.00113
2253.05	0.00118
2264.63	0.00125
2276.2	0.00135
2287.77	0.00143
2299.35	0.00155
2310.92	0.00161
2322.5	0.00147
2334.07	0.0014
2345.64	0.00141
2357.22	0.00145
2368.79	0.00147
2380.36	0.00145
2391.94	0.00142
2403.51	0.00143
2415.09	0.00151
2426.66	0.00171
2438.23	0.00181
2449.81	0.00162
2461.38	0.00148
2472.96	0.00129
2484.53	0.00112
2496.1	0.00112
2507.68	0.00114
2519.25	0.00123
2530.82	0.00125
2542.4	0.00129
2553.97	0.00152
2565.55	0.00172
2577.12	0.00187
2588.69	0.00195
2600.27	0.00207
2611.84	0.00211
2623.41	0.00206
2634.99	0.00202
2646.56	0.00194
2658.14	0.00166
2669.71	0.00156
2681.28	0.00151
2692.86	0.00148
2704.43	0.00151
2716.01	0.00153
2727.58	0.00153
2739.15	0.00167
2750.73	0.00173
2762.3	0.00181
2773.87	0.00199
2785.45	0.00214
2797.02	0.0023
2808.6	0.00258
2820.17	0.00294
2831.74	0.00329
2843.32	0.00393
2854.89	0.00538
2866.47	0.00879
2878.04	0.01538
2889.61	0.01719
2901.19	0.01591
2912.76	0.01706
2924.33	0.01952
2935.91	0.02506
2947.48	0.02684
2959.06	0.03086
2970.63	0.04197
2982.2	0.02862
2993.78	0.0151
3005.35	0.0114
3016.92	0.0107
3028.5	0.01312
3040.07	0.01659
3051.65	0.01055
3063.22	0.00971
3074.79	0.00791
3086.37	0.00582
3097.94	0.00526
3109.52	0.00404
3121.09	0.00328
3132.66	0.00262
3144.24	0.00217
3155.81	0.00201
3167.38	0.00178
3178.96	0.00163
3190.53	0.00181
3202.11	0.00232
3213.68	0.00267
3225.25	0.0021
3236.83	0.00168
3248.4	0.0014
3259.98	0.00128
3271.55	0.00115
3283.12	0.00105
3294.7	0.0011
3306.27	0.00111
3317.84	0.00118
3329.42	0.00133
3340.99	0.00168
3352.57	0.00225
3364.14	0.00279
3375.71	0.0029
3387.29	0.00334
3398.86	0.0054
3410.43	0.01055
3422.01	0.01342
3433.58	0.01054
3445.16	0.00484
3456.73	0.00239
3468.3	0.00242
3479.88	0.00311
3491.45	0.00446
3503.03	0.00568
3514.6	0.00541
3526.17	0.00453
3537.75	0.00296
3549.32	0.00172
3560.89	0.00123
3572.47	0.00112
3584.04	0.00104
3595.62	0.0009892
3607.19	0.0009845
3618.76	0.00103
3630.34	0.00114
3641.91	0.00102
3653.49	0.00108
3665.06	0.00117
3676.63	0.00119
3688.21	0.00116
3699.78	0.00112
3711.35	0.00112
3722.93	0.00118
3734.5	0.00117
3746.08	0.00119
3757.65	0.00113
3769.22	0.00114
3780.8	0.00117
3792.37	0.00114
3803.94	0.00131
3815.52	0.00141
3827.09	0.00154
3838.67	0.00195
3850.24	0.00221
3861.81	0.00172
3873.39	0.00139
3884.96	0.00135
3896.54	0.00133
3908.11	0.00126
3919.68	0.00137
3931.26	0.0015
3942.83	0.00153
3954.4	0.00134
3965.98	0.00126
3977.55	0.00135
3989.13	0.00128
4000.7	0.00133
