Infrared Spectrum: 9-Hydroxyfluorene
Formula: C 13 H 10 O
CAS: 1689-64-1
State: gas
Instrument: HP-GC/MS/IRD
Origin: NIST Mass Spectrometry Data Center
1/CM	ABSORBANCE
550	0.000178
562	1.4e-05
574	5.2e-05
586	0.000132
598	0.000258
610	0.00049
622	0.001754
634	0.000784
646	0.00155
658	0.001772
670	0.000576
682	0.000272
694	0.000392
706	0.000548
718	0.002428
730	0.011646
742	0.016998
754	0.005228
766	0.003272
778	0.00121
790	0.0004
802	0.000352
814	0.000382
826	0.000752
838	0.001312
850	0.000998
862	0.000786
874	0.000686
886	0.00041
898	0.00044
910	0.000564
922	0.000598
934	0.000808
946	0.000766
958	0.000702
970	0.000724
982	0.00095
994	0.001616
1006	0.004138
1018	0.007622
1030	0.00846
1042	0.003756
1054	0.001218
1066	0.000766
1078	0.00064
1090	0.000862
1102	0.001252
1114	0.000892
1126	0.000494
1138	0.000648
1150	0.001406
1162	0.001302
1174	0.002324
1186	0.005126
1198	0.003508
1210	0.00149
1222	0.001158
1234	0.000996
1246	0.000876
1258	0.000992
1270	0.001166
1282	0.001478
1294	0.001928
1306	0.002508
1318	0.001804
1330	0.001252
1342	0.001422
1354	0.00192
1366	0.003018
1378	0.003386
1390	0.002222
1402	0.00106
1414	0.000646
1426	0.000844
1438	0.001576
1450	0.004964
1462	0.003224
1474	0.001266
1486	0.000662
1498	0.000326
1510	0.000276
1522	0.000202
1534	0.000144
1546	0.000166
1558	0.000244
1570	0.000452
1582	0.001004
1594	0.00131
1606	0.00185
1618	0.001204
1630	0.00033
1642	0.000262
1654	0.000224
1666	0.00025
1678	0.000314
1690	0.000198
1702	0.000256
1714	0.000398
1726	0.000692
1738	0.000808
1750	0.000328
1762	0.000184
1774	0.000226
1786	0.000216
1798	0.000388
1810	0.000506
1822	0.000274
1834	0.000254
1846	0.000288
1858	0.000172
1870	0.000328
1882	0.00027
1894	0.000306
1906	0.0006
1918	0.000392
1930	0.00029
1942	0.000672
1954	0.000308
1966	7e-05
1978	3.8e-05
1990	4e-05
2002	4.4e-05
2014	5.6e-05
2026	5.6e-05
2038	7e-05
2050	7.4e-05
2062	6.4e-05
2074	3.8e-05
2086	1.4e-05
2098	3e-05
2110	3.2e-05
2122	1.6e-05
2134	0
2146	1.2e-05
2158	1.4e-05
2170	2.8e-05
2182	1.6e-05
2194	2.6e-05
2206	5.4e-05
2218	2.6e-05
2230	3.2e-05
2242	4.6e-05
2254	5.8e-05
2266	3.8e-05
2278	2.4e-05
2290	4.4e-05
2302	9.6e-05
2314	0.000118
2326	8e-05
2338	5.4e-05
2350	3.6e-05
2362	1.8e-05
2374	3.8e-05
2386	4.8e-05
2398	5.2e-05
2410	5e-05
2422	4.2e-05
2434	4.4e-05
2446	6.4e-05
2458	4.8e-05
2470	3.6e-05
2482	2.6e-05
2494	2e-05
2506	1.8e-05
2518	3.2e-05
2530	4.4e-05
2542	3.8e-05
2554	5.4e-05
2566	5.2e-05
2578	7.4e-05
2590	8.4e-05
2602	7.4e-05
2614	8.6e-05
2626	6.4e-05
2638	7.6e-05
2650	1.8e-05
2662	3e-05
2674	2.8e-05
2686	3.8e-05
2698	1.2e-05
2710	3e-05
2722	4e-05
2734	4.4e-05
2746	4.8e-05
2758	4.8e-05
2770	6.2e-05
2782	9.6e-05
2794	9.6e-05
2806	9.2e-05
2818	0.000102
2830	0.000132
2842	0.000196
2854	0.00039
2866	0.000776
2878	0.000974
2890	0.000862
2902	0.000864
2914	0.001034
2926	0.000618
2938	0.00025
2950	0.00017
2962	0.000168
2974	0.000162
2986	0.000218
2998	0.000386
3010	0.000962
3022	0.002364
3034	0.003178
3046	0.003684
3058	0.004468
3070	0.00778
3082	0.005368
3094	0.002286
3106	0.000806
3118	0.000266
3130	0.00015
3142	0.000134
3154	0.000158
3166	0.000176
3178	0.00015
3190	8.2e-05
3202	5.4e-05
3214	4.4e-05
3226	3.4e-05
3238	6e-05
3250	3.8e-05
3262	4.6e-05
3274	3e-05
3286	3.2e-05
3298	5.4e-05
3310	4.6e-05
3322	4.6e-05
3334	8.6e-05
3346	9.8e-05
3358	8.6e-05
3370	5.6e-05
3382	8.6e-05
3394	5e-05
3406	8.8e-05
3418	0.000108
3430	0.000124
3442	7.6e-05
3454	0.000114
3466	9e-05
3478	6.4e-05
3490	8.4e-05
3502	7.4e-05
3514	9.4e-05
3526	9.6e-05
3538	0.000108
3550	9.6e-05
3562	0.000122
3574	0.000126
3586	0.000128
3598	0.000188
3610	0.00055
3622	0.001662
3634	0.001702
3646	0.000948
3658	0.000374
3670	0.000206
3682	0.00018
3694	0.000156
3706	0.000118
3718	0.000132
3730	0.000114
3742	0.000114
3754	0.00017
3766	0.000152
3778	0.000124
3790	0.000132
3802	0.000166
3814	0.000182
3826	0.00019
3838	0.000162
