Infrared Spectrum: BENZONITRILE, 3,5-DIIODO-4-HYDROXY-
Formula: C7 H3 I2 N O
CAS: 1689-83-4
State: SOLID (SPLIT MULL, FLUOROLUBE FOR 3800-1330 AND NUJOL FOR 1330-400 CM ^-^1)
Class: COBLENTZ III
Instrument: DOW KBr FOREPRISM-GRATING
Instrument parameters: BLAZED AT 3.5, 12.0, 20.0 MICRON, CHANGED AT 5.0, 7.5, 14.9 MICRON
Sampling: TRANSMISSION
Resolution: 4
Origin: DOW CHEMICAL COMPANY
1/CM	TRANSMITTANCE
391.429	0.877
400	0.876
408.572	0.873
417.143	0.87
425.715	0.865
434.286	0.856
442.858	0.845
451.429	0.818
460.001	0.799
468.572	0.812
477.143	0.769
485.715	0.734
494.286	0.634
502.858	0.5879
511.429	0.9009
520.001	0.942
528.572	0.941
537.144	0.936
545.715	0.926
554.286	0.914
562.858	0.905
571.429	0.918
580.001	0.954
588.572	0.951
597.144	0.6811
605.715	0.7619
614.287	0.98
622.858	1.01
631.429	1.026
640.001	1.036
648.572	1.044
657.144	1.047
665.715	1.044
674.287	1.041
682.858	1.036
691.43	1.023
700.001	0.994
708.572	0.812
717.144	0.407
725.715	0.911
734.287	0.806
742.858	0.7086
751.43	0.971
760.001	1.014
768.573	1.013
777.144	1.035
785.715	1.045
794.287	1.051
802.858	1.06
811.43	1.06
820.001	1.056
828.573	1.05
837.144	1.044
845.716	1.039
854.287	1.039
862.858	1.042
871.43	1.013
880.001	0.828
888.573	0.961
897.144	0.5732
905.716	0.831
914.287	0.989
922.859	1
931.43	0.995
940.001	0.988
948.573	0.98
957.144	0.977
965.716	0.97
974.287	0.969
982.859	0.98
991.43	0.976
1000	0.966
1008.57	0.952
1017.14	0.938
1025.72	0.915
1034.29	0.887
1042.86	0.873
1051.43	0.849
1060	0.842
1068.57	0.808
1077.14	0.735
1085.72	0.676
1094.29	0.601
1102.86	0.467
1111.43	0.256
1120	0.182
1128.57	0.33
1137.14	0.2239
1145.72	0.137
1154.29	0.4891
1162.86	0.8001
1171.43	0.839
1180	0.761
1188.57	0.439
1197.14	0.595
1205.72	0.892
1214.29	0.973
1222.86	0.938
1231.43	0.7329
1240	0.3463
1248.57	0.2155
1257.14	0.917
1265.72	0.904
1274.29	0.759
1282.86	0.446
1291.43	0.458
1300	0.457
1308.57	0.4478
1317.14	0.2061
1325.72	0.852
1334.29	0.895
1342.86	0.901
1351.43	0.911
1360	0.892
1368.57	0.892
1377.15	0.896
1385.72	0.853
1394.29	0.622
1402.86	0.902
1411.43	0.883
1420	0.853
1428.57	0.784
1437.15	0.687
1445.72	0.371
1454.29	0.072
1462.86	0.886
1471.43	0.935
1480	0.96
1488.57	0.986
1497.15	0.955
1505.72	0.92
1514.29	0.912
1522.86	0.825
1531.43	0.737
1540	0.974
1548.57	0.955
1557.15	0.918
1565.72	0.839
1574.29	0.5777
1582.86	0.9141
1591.43	0.963
1600	0.969
1608.57	0.961
1617.15	0.955
1625.72	0.948
1634.29	0.941
1642.86	0.933
1651.43	0.924
1660	0.918
1668.57	0.921
1677.15	0.927
1685.72	0.929
1694.29	0.923
1702.86	0.927
1711.43	0.932
1720	0.935
1728.57	0.936
1737.15	0.933
1745.72	0.92
1754.29	0.9141
1762.86	0.936
1771.43	0.92
1780	0.842
1788.57	0.904
1797.15	0.893
1805.72	0.89
1814.29	0.914
1822.86	0.921
1831.43	0.918
1840	0.915
1848.57	0.91
1857.15	0.908
1865.72	0.902
1874.29	0.901
1882.86	0.899
1891.43	0.895
1900	0.892
1908.57	0.889
1917.15	0.883
1925.72	0.88
1934.29	0.876
1942.86	0.873
1951.43	0.87
1960	0.873
1968.57	0.867
1977.15	0.865
1985.72	0.862
1994.29	0.864
2002.86	0.864
2011.43	0.864
2020	0.862
2028.57	0.861
2037.15	0.859
2045.72	0.853
2054.29	0.851
2062.86	0.848
2071.43	0.8409
2080	0.8389
2088.57	0.836
2097.15	0.831
2105.72	0.8274
2114.29	0.8237
2122.86	0.8158
2131.43	0.814
2140	0.8114
2148.58	0.8029
2157.15	0.7964
2165.72	0.79
2174.29	0.7804
2182.86	0.7681
2191.43	0.7507
2200	0.7483
2208.58	0.7284
2217.15	0.7054
2225.72	0.6718
2234.29	0.4993
2242.86	0.0782
2251.43	0.7421
2260	0.795
2268.58	0.7778
2277.15	0.7683
2285.72	0.7606
2294.29	0.755
2302.86	0.7464
2311.43	0.7364
2320	0.7248
2328.58	0.718
2337.15	0.712
2345.72	0.709
2354.29	0.7067
2362.86	0.703
2371.43	0.7
2380	0.7
2388.58	0.697
2397.15	0.697
2405.72	0.696
2414.29	0.6932
2422.86	0.69
2431.43	0.687
2440	0.6847
2448.58	0.681
2457.15	0.679
2465.72	0.678
2474.29	0.6757
2482.86	0.6723
2491.43	0.6673
2500	0.6603
2508.58	0.6566
2517.15	0.6501
2525.72	0.648
2534.29	0.6509
2542.86	0.648
2551.43	0.6433
2560	0.6376
2568.58	0.637
2577.15	0.6332
2585.72	0.629
2594.29	0.6269
2602.86	0.6309
2611.43	0.6286
2620	0.623
2628.58	0.6181
2637.15	0.617
2645.72	0.6165
2654.29	0.615
2662.86	0.61
2671.43	0.607
2680	0.6046
2688.58	0.601
2697.15	0.5945
2705.72	0.589
2714.29	0.5845
2722.86	0.582
2731.43	0.5815
2740	0.579
2748.58	0.5769
2757.15	0.573
2765.72	0.57
2774.29	0.5689
2782.86	0.564
2791.43	0.5609
2800	0.5569
2808.58	0.5509
2817.15	0.547
2825.72	0.5408
2834.29	0.535
2842.86	0.5318
2851.43	0.5284
2860	0.5247
2868.58	0.5178
2877.15	0.514
2885.72	0.5117
2894.29	0.51
2902.86	0.51
2911.43	0.508
2920.01	0.505
2928.58	0.5018
2937.15	0.4973
2945.72	0.491
2954.29	0.489
2962.86	0.489
2971.43	0.489
2980.01	0.486
2988.58	0.4836
2997.15	0.4798
3005.72	0.4709
3014.29	0.4578
3022.86	0.463
3031.43	0.4565
3040.01	0.4465
3048.58	0.4145
3057.15	0.3227
3065.72	0.2981
3074.29	0.4332
3082.86	0.46
3091.43	0.4554
3100.01	0.4424
3108.58	0.4238
3117.15	0.4368
3125.72	0.445
3134.29	0.439
3142.86	0.4352
3151.43	0.4314
3160.01	0.4262
3168.58	0.4223
3177.15	0.4153
3185.72	0.4093
3194.29	0.4023
3202.86	0.3956
3211.43	0.3891
3220.01	0.3813
3228.58	0.3742
3237.15	0.3676
3245.72	0.3592
3254.29	0.3502
3262.86	0.3393
3271.43	0.3306
3280.01	0.3213
3288.58	0.3103
3297.15	0.2962
3305.72	0.2883
3314.29	0.2781
3322.86	0.2656
3331.43	0.2562
3340.01	0.2495
3348.58	0.246
3357.15	0.244
3365.72	0.2411
3374.29	0.2375
3382.86	0.2221
3391.43	0.1511
3400.01	0.092
3408.58	0.1348
3417.15	0.3142
3425.72	0.3777
3434.29	0.3901
3442.86	0.395
3451.43	0.3961
3460.01	0.398
3468.58	0.3979
3477.15	0.3939
3485.72	0.3889
3494.29	0.3834
3502.86	0.38
3511.43	0.38
3520.01	0.377
3528.58	0.3748
3537.15	0.373
3545.72	0.373
3554.29	0.3728
3562.86	0.37
3571.43	0.367
3580.01	0.365
3588.58	0.365
3597.15	0.364
3605.72	0.361
3614.29	0.359
3622.86	0.358
3631.43	0.356
3640.01	0.3547
3648.58	0.353
3657.15	0.352
3665.72	0.351
3674.29	0.349
3682.86	0.348
3691.44	0.346
3700.01	0.345
3708.58	0.342
3717.15	0.34
3725.72	0.339
3734.29	0.337
3742.86	0.3355
3751.44	0.3332
3760.01	0.331
3768.58	0.3285
3777.15	0.328
3785.72	0.325
