Infrared Spectrum: p-Phenylazophenol
Formula: C 12 H 10 N 2 O
CAS: 1689-82-3
State: gas
Origin: EPA-IR VAPOR PHASE LIBRARY
1/CM	ABSORBANCE
549.8	0.016845
559.445	0.007885
569.09	0.003745
578.734	0.002775
588.379	0.002715
598.024	0.002735
607.669	0.004045
617.313	0.004255
626.958	0.003085
636.603	0.003295
646.248	0.004435
655.893	0.004125
665.537	0.006595
675.182	0.013525
684.827	0.023125
694.472	0.018915
704.116	0.011075
713.761	0.009215
723.406	0.007045
733.051	0.006685
742.695	0.009065
752.34	0.015215
761.985	0.021865
771.63	0.018435
781.275	0.016965
790.919	0.012275
800.564	0.010175
810.209	0.011785
819.854	0.016475
829.498	0.028845
839.143	0.035145
848.788	0.023865
858.433	0.010995
868.078	0.006295
877.722	0.004735
887.367	0.004285
897.012	0.003665
906.657	0.004085
916.301	0.005025
925.946	0.005065
935.591	0.004185
945.236	0.003235
954.88	0.002765
964.525	0.002455
974.17	0.002665
983.815	0.002995
993.46	0.003265
1003.1	0.005345
1012.75	0.007175
1022.39	0.009045
1032.04	0.004545
1041.68	0.003945
1051.33	0.003995
1060.97	0.005765
1070.62	0.006355
1080.26	0.008395
1089.91	0.015775
1099.55	0.014775
1109.2	0.009285
1118.84	0.013095
1128.49	0.025075
1138.13	0.064215
1147.78	0.084505
1157.42	0.056095
1167.07	0.039135
1176.71	0.111605
1186.36	0.090075
1196	0.029605
1205.64	0.016285
1215.29	0.013935
1224.93	0.013285
1234.58	0.014435
1244.22	0.029735
1253.87	0.095465
1263.51	0.082035
1273.16	0.024205
1282.8	0.013795
1292.45	0.007115
1302.09	0.008175
1311.74	0.016075
1321.38	0.022025
1331.03	0.010835
1340.67	0.006615
1350.32	0.006165
1359.96	0.004585
1369.61	0.003885
1379.25	0.003465
1388.9	0.002855
1398.54	0.003195
1408.18	0.004255
1417.83	0.007465
1427.47	0.017715
1437.12	0.019975
1446.76	0.011495
1456.41	0.008835
1466.05	0.009785
1475.7	0.017055
1485.34	0.022135
1494.99	0.039895
1504.63	0.095065
1514.28	0.027735
1523.92	0.007725
1533.57	0.005355
1543.21	0.005315
1552.86	0.006445
1562.5	0.008305
1572.15	0.013725
1581.79	0.033915
1591.44	0.074115
1601.08	0.067625
1610.73	0.041215
1620.37	0.014585
1630.01	0.007635
1639.66	0.005815
1649.3	0.004435
1658.95	0.003175
1668.59	0.002825
1678.24	0.002895
1687.88	0.002395
1697.53	0.001845
1707.17	0.001825
1716.82	0.001985
1726.46	0.002325
1736.11	0.002585
1745.75	0.002915
1755.4	0.002715
1765.04	0.002025
1774.69	0.001935
1784.33	0.002465
1793.98	0.003365
1803.62	0.002085
1813.27	0.001625
1822.91	0.001425
1832.55	0.001425
1842.2	0.001425
1851.84	0.001765
1861.49	0.002095
1871.13	0.002655
1880.78	0.003255
1890.42	0.003705
1900.07	0.003195
1909.71	0.002125
1919.36	0.001885
1929	0.002175
1938.65	0.002445
1948.29	0.002655
1957.94	0.002945
1967.58	0.001845
1977.23	0.001365
1986.87	0.001365
1996.52	0.001195
2006.16	0.001305
2015.81	0.001655
2025.45	0.001535
2035.1	0.001655
2044.74	0.001425
2054.38	0.0011102
2064.03	0.001046
2073.67	0.0010172
2083.32	0.001165
2092.96	0.001335
2102.61	0.001355
2112.25	0.0009153
2121.9	0.0007911
2131.54	0.0006795
2141.19	0.0007679
2150.83	0.0007187
2160.48	0.0006626
2170.12	0.0005994
2179.77	0.0005127
2189.41	0.0006186
2199.06	0.0007222
2208.7	0.0006956
2218.35	0.0008862
2227.99	0.0008109
2237.64	0.0009488
2247.28	0.0009128
2256.92	0.0008189
2266.57	0.0008391
2276.21	0.0009736
2285.86	0.0010555
2295.5	0.0009122
2305.15	0.001305
2314.79	0.001765
2324.44	0.001395
2334.08	0.001405
2343.73	0.001255
2353.37	0.001215
2363.02	0.001185
2372.66	0.0010554
2382.31	0.001305
2391.95	0.001515
2401.6	0.001495
2411.24	0.001585
2420.89	0.002005
2430.53	0.002825
2440.18	0.002785
2449.82	0.001745
2459.47	0.001295
2469.11	0.001415
2478.75	0.001305
2488.4	0.001205
2498.04	0.001435
2507.69	0.001765
2517.33	0.001695
2526.98	0.001305
2536.62	0.0010177
2546.27	0.0009883
2555.91	0.0008964
2565.56	0.0009959
2575.2	0.001091
2584.85	0.001225
2594.49	0.0011649
2604.14	0.001245
2613.78	0.001185
2623.43	0.001305
2633.07	0.001395
2642.72	0.001355
2652.36	0.001245
2662.01	0.0011647
2671.65	0.001225
2681.29	0.0011119
2690.94	0.0010192
2700.58	0.0009168
2710.23	0.0008876
2719.87	0.0010713
2729.52	0.001425
2739.16	0.001505
2748.81	0.001525
2758.45	0.001565
2768.1	0.001325
2777.74	0.001215
2787.39	0.0007749
2797.03	0.0008982
2806.68	0.0007064
2816.32	0.0007162
2825.97	0.0006827
2835.61	0.0006804
2845.26	0.0006591
2854.9	0.0006717
2864.55	0.0008722
2874.19	0.000952
2883.84	0.0009348
2893.48	0.0008517
2903.12	0.0008129
2912.77	0.0009507
2922.41	0.0009196
2932.06	0.0008953
2941.7	0.0009116
2951.35	0.0008408
2960.99	0.0009487
2970.64	0.0011226
2980.28	0.001175
2989.93	0.001575
2999.57	0.002965
3009.22	0.005315
3018.86	0.008465
3028.51	0.012335
3038.15	0.016835
3047.8	0.015895
3057.44	0.016125
3067.09	0.024465
3076.73	0.030645
3086.38	0.016515
3096.02	0.010885
3105.67	0.005805
3115.31	0.003085
3124.95	0.001825
3134.6	0.0009927
3144.24	0.0009567
3153.89	0.0008653
3163.53	0.0009852
3173.18	0.0010525
3182.82	0.0009614
3192.47	0.0009236
3202.11	0.0008843
3211.76	0.0006505
3221.4	0.0004493
3231.05	0.0003875
3240.69	0.0004753
3250.34	0.0003212
3259.98	0.0003969
3269.63	0.0004543
3279.27	0.0004633
3288.92	0.0004653
3298.56	0.000528
3308.21	0.0005455
3317.85	0.0007796
3327.49	0.0008771
3337.14	0.0008142
3346.78	0.0009475
3356.43	0.0007616
3366.07	0.000918
3375.72	0.0007651
3385.36	0.0006905
3395.01	0.0006384
3404.65	0.0005892
3414.3	0.0007396
3423.94	0.000645
3433.59	0.0005365
3443.23	0.0004854
3452.88	0.0006245
3462.52	0.0007405
3472.17	0.0006736
3481.81	0.000536
3491.46	0.0005597
3501.1	0.0004198
3510.75	0.000416
3520.39	0.0003766
3530.04	0.0007052
3539.68	0.0004287
3549.32	0.00036
3558.97	0.0006705
3568.61	0.0007669
3578.26	0.0009037
3587.9	0.0011524
3597.55	0.001315
3607.19	0.001365
3616.84	0.002625
3626.48	0.005885
3636.13	0.022265
3645.77	0.076345
3655.42	0.050345
3665.06	0.006655
3674.71	0.002585
3684.35	0.001655
3694	0.0010416
3703.64	0.001325
3713.29	0.0010064
3722.93	0.0004861
3732.58	0.0004949
3742.22	0.0004608
3751.86	0.0003562
3761.51	0.000357
3771.15	0.0003747
3780.8	0.0004976
3790.44	0.0004225
3800.09	0.0005674
3809.73	0.0004087
3819.38	0.0006337
3829.02	0.0003502
3838.67	0.0005125
3848.31	0.0008313
3857.96	0.0005695
3867.6	0.0006435
3877.25	0.0008226
3886.89	0.0005468
3896.54	0.0008904
3906.18	0.0007457
3915.83	0.000802
3925.47	0.000929
3935.12	0.0007455
3944.76	0.0005239
3954.41	0.0006264
3964.05	0.0009049
3973.69	0.0008752
3983.34	0.0005789
3992.98	0.0004915
