Infrared Spectrum: Bromoxynil
Formula: C 7 H 3 Br 2 N O
CAS: 1689-84-5
State: solid
Instrument: Bruker IR Cube FTIR
Resolution: 0.96450084
Origin: Pacific Northwest National Laboratory Under IARPA Contract
1/cm	Reflectance
7498.99	0.951688
7481.63	0.948412
7464.27	0.942282
7446.91	0.931152
7429.55	0.924588
7412.19	0.919043
7394.84	0.906256
7377.48	0.880352
7360.12	0.851872
7342.76	0.824726
7325.4	0.775259
7308.04	0.828388
7290.68	0.84527
7273.32	0.844244
7255.96	0.846958
7238.6	0.830869
7221.24	0.809036
7203.88	0.782291
7186.52	0.758265
7169.16	0.733265
7151.8	0.691395
7134.44	0.616808
7117.08	0.552773
7099.72	0.509244
7082.36	0.423559
7065	0.372524
7047.64	0.337454
7030.28	0.468302
7012.92	0.598347
6995.56	0.645587
6978.2	0.676432
6960.84	0.705122
6943.48	0.741912
6926.12	0.758315
6908.76	0.766409
6891.4	0.758412
6874.04	0.750937
6856.68	0.762828
6839.32	0.758232
6821.96	0.746133
6804.6	0.706272
6787.24	0.65255
6769.88	0.555566
6752.52	0.561563
6735.16	0.611386
6717.8	0.656563
6700.44	0.693588
6683.08	0.623898
6665.72	0.669178
6648.36	0.690671
6631	0.711375
6613.64	0.713472
6596.28	0.651356
6578.92	0.612683
6561.56	0.626182
6544.2	0.697677
6526.85	0.737862
6509.49	0.750999
6492.13	0.739348
6474.77	0.748266
6457.41	0.747619
6440.05	0.74543
6422.69	0.732183
6405.33	0.68107
6387.97	0.722266
6370.61	0.733018
6353.25	0.729411
6335.89	0.721435
6318.53	0.722234
6301.17	0.703198
6283.81	0.68587
6266.45	0.634246
6249.09	0.474514
6231.73	0.317611
6214.37	0.504343
6197.01	0.584276
6179.65	0.555662
6162.29	0.492788
6144.93	0.448128
6127.57	0.402161
6110.21	0.158851
6092.85	0.330053
6075.49	0.223713
6058.13	0.25785
6040.77	0.266869
6023.41	0.124322
6006.05	0.306756
5988.69	0.35698
5971.33	0.363727
5953.97	0.356168
5936.61	0.428451
5919.25	0.500072
5901.89	0.442697
5884.53	0.341799
5867.17	0.412897
5849.81	0.477362
5832.45	0.420725
5815.09	0.419038
5797.73	0.51011
5780.37	0.453451
5763.01	0.272619
5745.65	0.37963
5728.29	0.237423
5710.93	0.22819
5693.57	0.355244
5676.21	0.378363
5658.86	0.207084
5641.5	0.376846
5624.14	0.50147
5606.78	0.426218
5589.42	0.224076
5572.06	0.408493
5554.7	0.38099
5537.34	0.257598
5519.98	0.253053
5502.62	0.240549
5485.26	0.110267
5467.9	0.0639202
5450.54	0.0424302
5433.18	0.0872382
5415.82	0.184283
5398.46	0.250669
5381.1	0.17347
5363.74	0.203489
5346.38	0.273937
5329.02	0.240556
5311.66	0.142548
5294.3	0.0951908
5276.94	0.135701
5259.58	0.205596
5242.22	0.222077
5224.86	0.221914
5207.5	0.246638
5190.14	0.239899
5172.78	0.269258
5155.42	0.34909
5138.06	0.316133
5120.7	0.235195
5103.34	0.299265
5085.98	0.355653
5068.62	0.248132
5051.26	0.278413
5033.9	0.22071
5016.54	0.152018
4999.18	0.293225
4981.82	0.325121
4964.46	0.298509
4947.1	0.20299
4929.74	0.296736
4912.38	0.349326
4895.02	0.312401
4877.66	0.21528
4860.3	0.105937
4842.94	0.282297
4825.58	0.388092
4808.22	0.444591
4790.86	0.392712
4773.51	0.316399
4756.15	0.449043
4738.79	0.455617
4721.43	0.456576
4704.07	0.367927
4686.71	0.433395
4669.35	0.35515
4651.99	0.13481
4634.63	0.255335
4617.27	0.28208
4599.91	0.343395
4582.55	0.35165
4565.19	0.264411
4547.83	0.125349
4530.47	0.129671
4513.11	0.181995
4495.75	0.0988367
4478.39	0.0661273
4461.03	0.130672
4443.67	0.104145
4426.31	0.10141
4408.95	0.0515049
4391.59	0.0671433
4374.23	0.033186
4356.87	0.0598556
4339.51	0.0675152
4322.15	0.0605769
4304.79	0.0984467
4287.43	0.139393
4270.07	0.151924
4252.71	0.115778
4235.35	0.142735
4217.99	0.175053
4200.63	0.0543747
4183.27	0.210278
4165.91	0.191435
4148.55	0.185015
4131.19	0.0903551
4113.83	0.140244
4096.47	0.193073
4079.11	0.20453
4061.75	0.157162
4044.39	0.951655
4027.03	0.94968
4009.67	0.941009
3992.31	0.930529
3974.95	0.920167
3957.59	0.913311
3940.23	0.89935
3922.87	0.887764
3905.52	0.868013
3888.16	0.837083
3870.8	0.848606
3853.44	0.870421
3836.08	0.872935
3818.72	0.869573
3801.36	0.869041
3784	0.847331
3766.64	0.829378
3749.28	0.808428
3731.92	0.789158
3714.56	0.751039
3697.2	0.699937
3679.84	0.62093
3662.48	0.567316
3645.12	0.50396
3627.76	0.443336
3610.4	0.359191
3593.04	0.394973
3575.68	0.537737
3558.32	0.656188
3540.96	0.67664
3523.6	0.711692
3506.24	0.746333
3488.88	0.77621
3471.52	0.789346
3454.16	0.794108
3436.8	0.778221
3419.44	0.789008
3402.08	0.789121
3384.72	0.788079
3367.36	0.76798
3350	0.723049
3332.64	0.654221
3315.28	0.558373
3297.92	0.601802
3280.56	0.660409
3263.2	0.701558
3245.84	0.716988
3228.48	0.633059
3211.12	0.723568
3193.76	0.716164
3176.4	0.742489
3159.04	0.736006
3141.68	0.664229
3124.32	0.532509
3106.96	0.692793
3089.6	0.745857
3072.24	0.776234
3054.88	0.778118
3037.52	0.769282
3020.17	0.786792
3002.81	0.773724
2985.45	0.771704
2968.09	0.747799
2950.73	0.678085
2933.37	0.759403
2916.01	0.762034
2898.65	0.761941
2881.29	0.747112
2863.93	0.755413
2846.57	0.738037
2829.21	0.699938
2811.85	0.648098
2794.49	0.513659
2777.13	0.313042
2759.77	0.555701
2742.41	0.590354
2725.05	0.58947
2707.69	0.427798
2690.33	0.488103
2672.97	0.336412
2655.61	0.239785
2638.25	0.355518
2620.89	0.289633
2603.53	0.298864
2586.17	0.223126
2568.81	0.153786
2551.45	0.358682
2534.09	0.387689
2516.73	0.381869
2499.37	0.376614
2482.01	0.455929
2464.65	0.515676
2447.29	0.466043
2429.93	0.390392
2412.57	0.444381
2395.21	0.511992
2377.85	0.374566
2360.49	0.504685
2343.13	0.525306
2325.77	0.477129
2308.41	0.304762
2291.05	0.402531
2273.69	0.239776
2256.33	0.239777
2238.97	0.407317
2221.61	0.393019
2204.25	0.316641
2186.89	0.464918
2169.53	0.509827
2152.18	0.439986
2134.82	0.300564
2117.46	0.418637
2100.1	0.387736
2082.74	0.261285
2065.38	0.288355
2048.02	0.227277
2030.66	0.0936439
2013.3	0.0433485
1995.94	0.0615492
1978.58	0.109219
1961.22	0.231466
1943.86	0.250057
1926.5	0.178282
1909.14	0.246773
1891.78	0.288629
1874.42	0.206144
1857.06	0.148187
1839.7	0.052437
1822.34	0.125536
1804.98	0.205513
1787.62	0.184046
1770.26	0.219222
1752.9	0.198846
1735.54	0.151951
1718.18	0.290952
1700.82	0.331912
1683.46	0.338858
1666.1	0.307113
1648.74	0.366846
1631.38	0.338953
1614.02	0.278959
1596.66	0.302415
1579.3	0.293501
1561.94	0.246498
1544.58	0.328661
1527.22	0.288129
1509.86	0.31601
1492.5	0.286792
1475.14	0.351706
1457.78	0.323946
1440.42	0.319445
1423.06	0.156872
1405.7	0.184296
1388.34	0.232253
1370.98	0.432789
1353.62	0.462037
1336.26	0.347501
1318.9	0.278261
1301.54	0.471818
1284.19	0.452265
1266.83	0.48414
1249.47	0.370511
1232.11	0.423499
1214.75	0.315365
1197.39	0.134598
1180.03	0.345346
1162.67	0.357273
1145.31	0.32621
1127.95	0.390261
1110.59	0.286258
1093.23	0.0460816
1075.87	0.0643524
1058.51	0.149904
1041.15	0.0772109
1023.79	0.0887999
1006.43	0.151089
989.068	0.0804255
971.709	0.0925288
954.349	0.0647421
936.989	0.074795
919.629	0.0536489
902.269	0.032628
884.91	0.0431997
867.55	0.0729613
850.19	0.135696
832.83	0.16366
815.47	0.148593
798.111	0.121674
780.751	0.168554
763.391	0.172584
746.031	0.0501336
728.671	0.234965
711.312	0.186718
693.952	0.0983015
676.592	0.0297998
659.232	0.0657217
641.872	0.195148
624.513	0.22214
607.153	0.119001
