Infrared Spectrum: 1,3-Di-(4-piperidyl)propane
Formula: C 13 H 26 N 2
CAS: 16898-52-5
State: gas
Instrument: HP-GC/MS/IRD
Origin: NIST Mass Spectrometry Data Center
1/CM	ABSORBANCE
550	0.001408
562	0.0015968
574	0.0009344
586	0.0009152
598	0.0006272
610	0.000448
622	0.0003456
634	0.0001952
646	0.0001696
658	0.0002944
670	0.0005344
682	0.0009888
694	0.0014432
706	0.0023264
718	0.0038112
730	0.0056512
742	0.0065504
754	0.0052288
766	0.002544
778	0.0013504
790	0.0009088
802	0.000704
814	0.0005248
826	0.0003712
838	0.0002624
850	0.00032
862	0.0002464
874	0.0002496
886	0.000176
898	0.0002208
910	0.0001824
922	0.0001504
934	0.0002016
946	0.0003712
958	0.0004992
970	0.0006048
982	0.0007008
994	0.0008288
1006	0.0009856
1018	0.000544
1030	0.0005024
1042	0.00048
1054	0.0002336
1066	0.0001792
1078	0.0003616
1090	0.0007136
1102	0.001216
1114	0.0013216
1126	0.0013024
1138	0.0019392
1150	0.0026176
1162	0.0014912
1174	0.0007296
1186	0.0005184
1198	0.0003936
1210	0.0004032
1222	0.0005632
1234	0.0006112
1246	0.0006208
1258	0.0009952
1270	0.0009472
1282	0.0008672
1294	0.0008608
1306	0.001264
1318	0.0027744
1330	0.0022816
1342	0.0013024
1354	0.0015552
1366	0.00136
1378	0.0008768
1390	0.0009696
1402	0.00048
1414	0.0006464
1426	0.001424
1438	0.0024992
1450	0.0031776
1462	0.002256
1474	0.0011168
1486	0.0003616
1498	0.0001536
1510	0
1522	1.92e-05
1534	9.6e-06
1546	9.6e-06
1558	7.68e-05
1570	5.12e-05
1582	3.2e-05
1594	5.12e-05
1606	9.92e-05
1618	0.0001216
1630	0.0001184
1642	0.0001952
1654	0.0002656
1666	0.0001664
1678	6.08e-05
1690	6.08e-05
1702	7.36e-05
1714	7.04e-05
1726	5.12e-05
1738	4.48e-05
1750	3.84e-05
1762	5.12e-05
1774	8.64e-05
1786	8.96e-05
1798	8.32e-05
1810	0.000144
1822	0.0001312
1834	8.96e-05
1846	7.36e-05
1858	0.0001088
1870	0.0001088
1882	0.0001376
1894	0.0001376
1906	0.0001568
1918	0.0001344
1930	0.0001248
1942	0.000112
1954	0.000112
1966	0.0001216
1978	0.0001376
1990	0.0001312
2002	0.0001504
2014	0.0001408
2026	0.0001632
2038	0.0001664
2050	0.0001248
2062	0.000144
2074	0.000176
2086	0.0001408
2098	0.0001472
2110	0.0001472
2122	0.000144
2134	0.0001472
2146	0.0001568
2158	0.00016
2170	0.000144
2182	0.0001504
2194	0.0001696
2206	0.00016
2218	0.0001504
2230	0.0001728
2242	0.0001664
2254	0.0001472
2266	0.0001664
2278	0.0001504
2290	0.0001696
2302	0.0002176
2314	0.0002272
2326	0.0002848
2338	0.0002784
2350	0.0002368
2362	0.0002912
2374	0.0002592
2386	0.0001984
2398	0.0001376
2410	0.0001312
2422	0.0001632
2434	0.0002048
2446	0.0001792
2458	0.0001952
2470	0.0001984
2482	0.0002112
2494	0.0001984
2506	0.0001728
2518	0.0002176
2530	0.0002112
2542	0.000208
2554	0.000256
2566	0.0002848
2578	0.0003328
2590	0.0004128
2602	0.0004704
2614	0.0005792
2626	0.000688
2638	0.0008256
2650	0.0007552
2662	0.000784
2674	0.0009792
2686	0.001152
2698	0.0011872
2710	0.0013536
2722	0.0021216
2734	0.0033696
2746	0.0029184
2758	0.0022752
2770	0.0028224
2782	0.0039936
2794	0.0051776
2806	0.007824
2818	0.0067968
2830	0.0048
2842	0.0064608
2854	0.0099584
2866	0.0098208
2878	0.007424
2890	0.007984
2902	0.0128896
2914	0.0221536
2926	0.030864
2938	0.0295552
2950	0.0220864
2962	0.0078016
2974	0.0026592
2986	0.0013504
2998	0.0007712
3010	0.0006016
3022	0.0005056
3034	0.000416
3046	0.000384
3058	0.0003328
3070	0.000256
3082	0.0002528
3094	0.000224
3106	0.0002272
3118	0.0002304
3130	0.0002432
3142	0.00024
3154	0.0002496
3166	0.000256
3178	0.0002688
3190	0.000208
3202	0.0001952
3214	0.0001728
3226	0.0001888
3238	0.0001696
3250	0.0002208
3262	0.0001632
3274	0.000144
3286	0.000192
3298	0.0001376
3310	0.0001472
3322	0.0001984
3334	0.0003008
3346	0.0001472
3358	0.0001728
3370	0.000192
3382	0.0002336
3394	0.000192
3406	0.000192
3418	0.0001184
3430	0.00024
3442	0.0001792
3454	0.0001696
3466	0.0001952
3478	0.0001728
3490	0.0001696
3502	0.0001728
3514	0.0001664
3526	0.0001792
3538	0.0001248
3550	0.0001344
3562	0.0001952
3574	0.000192
3586	0.0001536
3598	0.0001824
3610	0.0001856
3622	0.0001888
3634	0.0001824
3646	0.0002528
3658	0.000208
3670	0.0001888
3682	0.000208
3694	0.0002656
3706	0.0002752
3718	0.0001952
3730	0.0002176
3742	0.0001792
3754	0.0002688
3766	0.000336
3778	0.0002656
3790	0.0002592
3802	0.0002528
3814	0.0002496
3826	0.0002496
3838	0.0002304
