Infrared Spectrum: BENZOIC ACID, 4,4'-(TETRAMETHYL-1,3-CYCLOBUTANEDIYLIDENEDINITRILO)DI-, DIETHYL ESTER
Formula: C26 H30 N2 O4
CAS: 1690-30-8
State: SOLID (KBr PELLET)
Melting point: 176-177 C
Class: COBLENTZ
Instrument: Not specified, most likely a prism, grating, or hybrid spectrometer.
Sampling: TRANSMISSION
Resolution: 4
Origin: TENNESSEE EASTMAN COMPANY, RESEARCH LABORATORIES
MICROMETERS	TRANSMITTANCE
2.02	0.888
2.06094	0.887
2.10188	0.887
2.14281	0.887
2.18375	0.887
2.22469	0.875
2.26563	0.871
2.30657	0.875
2.34751	0.876
2.38844	0.878
2.42938	0.876
2.47032	0.876
2.51126	0.882
2.5522	0.882
2.59314	0.882
2.63407	0.882
2.67501	0.882
2.71595	0.841
2.75689	0.764
2.79783	0.726
2.83877	0.695
2.8797	0.651
2.92064	0.629
2.96158	0.719
3.00252	0.77
3.04346	0.793
3.08439	0.805
3.12533	0.817
3.16627	0.832
3.20721	0.832
3.24815	0.794
3.28909	0.817
3.33002	0.502
3.37096	0.666
3.4119	0.601
3.45284	0.699
3.49378	0.83
3.53472	0.851
3.57565	0.863
3.61659	0.866
3.65753	0.878
3.69847	0.883
3.73941	0.885
3.78035	0.887
3.82128	0.883
3.86222	0.859
3.90316	0.851
3.9441	0.87
3.98504	0.882
4.02597	0.882
4.06691	0.876
4.10785	0.861
4.14879	0.878
4.18973	0.871
4.23067	0.882
4.2716	0.878
4.31254	0.876
4.35348	0.885
4.39442	0.882
4.43536	0.882
4.4763	0.878
4.51723	0.88
4.55817	0.888
4.59911	0.885
4.64005	0.875
4.68099	0.871
4.72193	0.873
4.76286	0.871
4.8038	0.876
4.84474	0.861
4.88568	0.868
4.92662	0.866
4.96755	0.873
5.00849	0.871
5.04943	0.858
5.09037	0.849
5.13131	0.829
5.17225	0.851
5.21318	0.875
5.25412	0.876
5.29506	0.878
5.336	0.878
5.37694	0.875
5.41788	0.842
5.45881	0.82
5.49975	0.82
5.54069	0.827
5.58163	0.817
5.62257	0.769
5.6635	0.721
5.70444	0.666
5.74538	0.533
5.78632	0.123
5.82726	0.01
5.8682	0.073
5.90913	0.032
5.95007	0.095
5.99101	0.353
6.03195	0.55
6.07289	0.656
6.11383	0.673
6.15476	0.661
6.1957	0.552
6.23664	0.044
6.27758	0.376
6.31852	0.717
6.35946	0.666
6.40039	0.748
6.44133	0.796
6.48227	0.803
6.52321	0.808
6.56415	0.779
6.60508	0.712
6.64602	0.547
6.68696	0.673
6.7279	0.664
6.76884	0.647
6.80978	0.541
6.85071	0.468
6.89165	0.427
6.93259	0.664
6.97353	0.74
7.01447	0.726
7.05541	0.553
7.09634	0.476
7.13728	0.569
7.17822	0.439
7.21916	0.516
7.2601	0.521
7.30104	0.27
7.34197	0.264
7.38291	0.692
7.42385	0.762
7.46479	0.765
7.50573	0.75
7.54666	0.716
7.5876	0.63
7.62854	0.505
7.66948	0.135
7.71042	0.235
7.75136	0.054
7.79229	0.02
7.83323	0.005
7.87417	0.006
7.91511	0.042
7.95605	0.179
7.99699	0.133
8.03792	0.2
8.07886	0.242
8.1198	0.044
8.16074	0.088
8.20168	0.394
8.24262	0.555
8.28355	0.637
8.32449	0.659
8.36543	0.671
8.40637	0.642
8.44731	0.538
8.48824	0.15
8.52918	0.068
8.57012	0.242
8.61106	0.206
8.652	0.153
8.69294	0.393
8.73387	0.562
8.77481	0.572
8.81575	0.439
8.85669	0.213
8.89763	0.094
8.93857	0.145
8.9795	0.064
9.02044	0.046
9.06138	0.029
9.10232	0.128
9.14326	0.372
9.1842	0.5
9.22513	0.601
9.26607	0.647
9.30701	0.666
9.34795	0.644
9.38889	0.54
9.42982	0.268
9.47076	0.196
9.5117	0.459
9.55264	0.582
9.59358	0.639
9.63452	0.646
9.67545	0.601
9.71639	0.41
9.75733	0.229
9.79827	0.326
9.83921	0.394
9.88015	0.512
9.92108	0.652
9.96202	0.709
10.003	0.74
10.0439	0.757
10.0848	0.769
10.1258	0.779
10.1667	0.791
10.2077	0.796
10.2486	0.796
10.2895	0.8
10.3305	0.8
10.3714	0.798
10.4123	0.796
10.4533	0.803
10.4942	0.817
10.5352	0.818
10.5761	0.818
10.617	0.82
10.658	0.823
10.6989	0.829
10.7398	0.827
10.7808	0.825
10.8217	0.83
10.8627	0.835
10.9036	0.835
10.9445	0.829
10.9855	0.835
11.0264	0.841
11.0674	0.835
11.1083	0.832
11.1492	0.832
11.1902	0.825
11.2311	0.808
11.272	0.777
11.313	0.705
11.3539	0.603
11.3949	0.379
11.4358	0.249
11.4767	0.494
11.5177	0.642
11.5586	0.682
11.5996	0.617
11.6405	0.577
11.6814	0.659
11.7224	0.731
11.7633	0.762
11.8042	0.753
11.8452	0.712
11.8861	0.634
11.9271	0.61
11.968	0.625
12.0089	0.582
12.0499	0.398
12.0908	0.487
12.1317	0.634
12.1727	0.709
12.2136	0.753
12.2546	0.782
12.2955	0.794
12.3364	0.801
12.3774	0.808
12.4183	0.815
12.4593	0.817
12.5002	0.817
12.5411	0.815
12.5821	0.811
12.623	0.808
12.6639	0.794
12.7049	0.758
12.7458	0.69
12.7868	0.576
12.8277	0.365
12.8686	0.152
12.9096	0.266
12.9505	0.555
12.9915	0.704
13.0324	0.764
13.0733	0.789
13.1143	0.8
13.1552	0.808
13.1961	0.81
13.2371	0.806
13.278	0.803
13.319	0.798
13.3599	0.793
13.4008	0.772
13.4418	0.724
13.4827	0.664
13.5237	0.627
13.5646	0.61
13.6055	0.581
13.6465	0.538
13.6874	0.557
13.7283	0.649
13.7693	0.711
13.8102	0.747
13.8512	0.767
13.8921	0.776
13.933	0.776
13.974	0.753
14.0149	0.694
14.0558	0.591
14.0968	0.483
14.1377	0.425
14.1787	0.422
14.2196	0.497
14.2605	0.608
14.3015	0.697
14.3424	0.748
14.3834	0.769
14.4243	0.779
14.4652	0.782
14.5062	0.788
14.5471	0.789
14.588	0.791
14.629	0.791
14.6699	0.793
14.7109	0.793
14.7518	0.791
14.7927	0.788
14.8337	0.784
14.8746	0.782
14.9156	0.782
14.9565	0.776
14.9974	0.76
15.0384	0.755
15.0793	0.757
15.1202	0.753
15.1612	0.75
15.2021	0.741
15.2431	0.733
15.284	0.733
15.3249	0.726
15.3659	0.714
15.4068	0.712
15.4477	0.705
15.4887	0.699
15.5296	0.695
15.5706	0.69
15.6115	0.688
15.6524	0.687
15.6934	0.673
15.7343	0.668
15.7753	0.666
15.8162	0.664
15.8571	0.664
15.8981	0.664
15.939	0.663
