Infrared Spectrum: 2-(Trifluoromethyl)thioxanthen-9-one
Formula: C 14 H 7 F 3 O S
CAS: 1693-28-3
State: gas
Origin: EPA-IR VAPOR PHASE LIBRARY
1/CM	ABSORBANCE
549.8	0.00341
559.445	0.00395
569.09	0.00389
578.734	0.00326
588.379	0.00387
598.024	0.00692
607.669	0.01348
617.313	0.01851
626.958	0.01625
636.603	0.02143
646.248	0.00532
655.893	0.00302
665.537	0.00238
675.182	0.00242
684.827	0.0033
694.472	0.00331
704.116	0.00243
713.761	0.00609
723.406	0.01355
733.051	0.02973
742.695	0.08658
752.34	0.03688
761.985	0.00639
771.63	0.00412
781.275	0.00236
790.919	0.00288
800.564	0.00387
810.209	0.01495
819.854	0.04009
829.498	0.01796
839.143	0.00443
848.788	0.00279
858.433	0.00232
868.078	0.00255
877.722	0.00232
887.367	0.00221
897.012	0.00256
906.657	0.00223
916.301	0.00548
925.946	0.01418
935.591	0.01542
945.236	0.00644
954.88	0.00734
964.525	0.00658
974.17	0.00452
983.815	0.00333
993.46	0.00301
1003.1	0.003
1012.75	0.00281
1022.39	0.00537
1032.04	0.01943
1041.68	0.01075
1051.33	0.00713
1060.97	0.01035
1070.62	0.0202
1080.26	0.02919
1089.91	0.11133
1099.55	0.11365
1109.2	0.0335
1118.84	0.0406
1128.49	0.05958
1138.13	0.13011
1147.78	0.2674
1157.42	0.21834
1167.07	0.11688
1176.71	0.15037
1186.36	0.10765
1196	0.03095
1205.64	0.02228
1215.29	0.02417
1224.93	0.02488
1234.58	0.02335
1244.22	0.03506
1253.87	0.15455
1263.51	0.08672
1273.16	0.06817
1282.8	0.21049
1292.45	0.37761
1302.09	0.19648
1311.74	0.08646
1321.38	0.06692
1331.03	0.12092
1340.67	0.12501
1350.32	0.03515
1359.96	0.01435
1369.61	0.00905
1379.25	0.00633
1388.9	0.00598
1398.54	0.00582
1408.18	0.00926
1417.83	0.01031
1427.47	0.01702
1437.12	0.0425
1446.76	0.02979
1456.41	0.01636
1466.05	0.01916
1475.7	0.01695
1485.34	0.00812
1494.99	0.00416
1504.63	0.00352
1514.28	0.00337
1523.92	0.00381
1533.57	0.00479
1543.21	0.00662
1552.86	0.00985
1562.5	0.01136
1572.15	0.01621
1581.79	0.02777
1591.44	0.05997
1601.08	0.0612
1610.73	0.07691
1620.37	0.04927
1630.01	0.02147
1639.66	0.02373
1649.3	0.02872
1658.95	0.08799
1668.59	0.20496
1678.24	0.08975
1687.88	0.02153
1697.53	0.01537
1707.17	0.01231
1716.82	0.00777
1726.46	0.00502
1736.11	0.00389
1745.75	0.00387
1755.4	0.00385
1765.04	0.00337
1774.69	0.00451
1784.33	0.00413
1793.98	0.00299
1803.62	0.00284
1813.27	0.00322
1822.91	0.00375
1832.55	0.00314
1842.2	0.00401
1851.84	0.00396
1861.49	0.00338
1871.13	0.00262
1880.78	0.00237
1890.42	0.00273
1900.07	0.00302
1909.71	0.00362
1919.36	0.00497
1929	0.00378
1938.65	0.0035
1948.29	0.00279
1957.94	0.00304
1967.58	0.0031
1977.23	0.00226
1986.87	0.00186
1996.52	0.0017059
2006.16	0.0013909
2015.81	0.0014386
2025.45	0.0014736
2035.1	0.0014249
2044.74	0.0014623
2054.38	0.0015931
2064.03	0.0014471
2073.67	0.0015578
2083.32	0.0015507
2092.96	0.0014621
2102.61	0.0016136
2112.25	0.001584
2121.9	0.0012359
2131.54	0.0015196
2141.19	0.0014136
2150.83	0.0017062
2160.48	0.0016341
2170.12	0.0013041
2179.77	0.0013945
2189.41	0.0012519
2199.06	0.0015587
2208.7	0.0016253
2218.35	0.00198
2227.99	0.0017883
2237.64	0.00196
2247.28	0.00205
2256.92	0.00192
2266.57	0.00204
2276.21	0.0022
2285.86	0.00243
2295.5	0.00225
2305.15	0.00201
2314.79	0.00189
2324.44	0.00225
2334.08	0.00256
2343.73	0.00243
2353.37	0.00214
2363.02	0.0021
2372.66	0.0021
2382.31	0.0017307
2391.95	0.0017946
2401.6	0.0017005
2411.24	0.0017146
2420.89	0.0016018
2430.53	0.0013882
2440.18	0.0015363
2449.82	0.0013737
2459.47	0.0014865
2469.11	0.001296
2478.75	0.0015136
2488.4	0.0013557
2498.04	0.0013832
2507.69	0.0015172
2517.33	0.0014884
2526.98	0.0012233
2536.62	0.0014471
2546.27	0.0014045
2555.91	0.0013616
2565.56	0.0015912
2575.2	0.0017338
2584.85	0.00194
2594.49	0.00207
2604.14	0.00192
2613.78	0.0016355
2623.43	0.0016642
2633.07	0.00189
2642.72	0.0014295
2652.36	0.001494
2662.01	0.0016416
2671.65	0.0017394
2681.29	0.0016472
2690.94	0.0013096
2700.58	0.0014957
2710.23	0.0014144
2719.87	0.0015513
2729.52	0.001533
2739.16	0.0014599
2748.81	0.001424
2758.45	0.001557
2768.1	0.0015059
2777.74	0.001172
2787.39	0.001458
2797.03	0.0015017
2806.68	0.0010529
2816.32	0.0009416
2825.97	0.0014121
2835.61	0.000826386
2845.26	0.0011799
2854.9	0.0010644
2864.55	0.001576
2874.19	0.0015836
2883.84	0.0014245
2893.48	0.0013228
2903.12	0.00091652
2912.77	0.0014009
2922.41	0.0011371
2932.06	0.0016852
2941.7	0.00198
2951.35	0.0013284
2960.99	0.0015826
2970.64	0.0017294
2980.28	0.0015573
2989.93	0.0017648
2999.57	0.0014469
3009.22	0.00257
3018.86	0.00246
3028.51	0.00263
3038.15	0.00219
3047.8	0.00369
3057.44	0.00979
3067.09	0.02083
3076.73	0.02508
3086.38	0.00787
3096.02	0.00355
3105.67	0.00308
3115.31	0.00335
3124.95	0.00193
3134.6	0.0015607
3144.24	0.0018092
3153.89	0.0013522
3163.53	0.0013088
3173.18	0.0014144
3182.82	0.00197
3192.47	0.00081185
3202.11	0.000682
3211.76	0.0011508
3221.4	0.0011362
3231.05	0.0013539
3240.69	0.00089661
3250.34	0.0015186
3259.98	0.0007964
3269.63	0.0014667
3279.27	0.0013039
3288.92	0.0013819
3298.56	0.0010879
3308.21	0.00201
3317.85	0.00322
3327.49	0.00301
3337.14	0.0014713
3346.78	0.0014061
3356.43	0.0007921
3366.07	0.000518
3375.72	0.0011472
3385.36	0.00087995
3395.01	0.00084734
3404.65	0.0010248
3414.3	0.0007842
3423.94	0.0007982
3433.59	0.000528
3443.23	0.0009651
3452.88	0.0009251
3462.52	0.0011862
3472.17	0.0007447
3481.81	0.0014504
3491.46	0.00067
3501.1	0.0007707
3510.75	0.0010406
3520.39	0.00087413
3530.04	0.00086126
3539.68	0.0010577
3549.32	0.00084751
3558.97	0.0007754
3568.61	0.0010575
3578.26	0.0007662
3587.9	0.000687
3597.55	0.0009992
3607.19	0.000276
3616.84	0.0010279
3626.48	0.00090998
3636.13	0.000579
3645.77	0.0006
3655.42	0.0011052
3665.06	0.0012058
3674.71	0.0010188
3684.35	0.00085747
3694	0.0011092
3703.64	0.0016426
3713.29	0.0012408
3722.93	0.00191
3732.58	0.0010653
3742.22	0.00090817
3751.86	0.001396
3761.51	0.00081235
3771.15	0.0013154
3780.8	0.0009051
3790.44	0.00088014
3800.09	0.0007576
3809.73	0.0011662
3819.38	0.0011282
3829.02	0.00088158
3838.67	0.0011428
3848.31	0.00085746
3857.96	0.0007289
3867.6	0.0009738
3877.25	0.0011414
3886.89	0.000665
3896.54	0.00057
3906.18	0.00088605
3915.83	0.0012327
3925.47	0.00089089
3935.12	0.000501
3944.76	0.000345
3954.41	0.0008037
3964.05	0.00058
3973.69	0.000582
3983.34	0.000502
3992.98	0.0010645
