Infrared Spectrum: 2,2-Diphenyl-4,4,6,6-tetramethylcyclotrisiloxane
Formula: C16 H22 O3 Si3
CAS: 1693-51-2
State: SOLUTION (9% CCl4 FOR 3800-1300, 2% CS2 FOR 1300-630, AND 9% CCl4 FOR 630-250) VS SOLVENT
Melting point: 64 C
Boiling point: 145 C AT 4 mmHg
Class: COBLENTZ III
Instrument: PERKIN-ELMER 521 (GRATING)
Instrument parameters: FILTERS AT 3150, 2500, 2000, 1150, 700, 410. GRATING CHANGES: 2000, 630
Path length: 0.012 CM, 0.012 CM, AND 0.011 CM
Resolution: 2
Origin: DOW CORNING CORP.
1/CM	TRANSMITTANCE
251	0.8601
260	0.8537
269	0.8422
278	0.8138
287	0.77
296	0.7216
305	0.5054
314	0.7078
323	0.8288
332	0.8301
341	0.7771
350	0.6333
359	0.3579
368	0.59
377	0.3323
386	0.7881
395	0.8687
404	0.8899
413	0.8907
422	0.8693
431	0.8415
440	0.8016
449	0.7625
458	0.8092
467	0.8101
476	0.8463
485	0.8309
494	0.7523
503	0.4371
512	0.0535
521	0.093
530	0.398
539	0.7619
548	0.8775
557	0.8978
566	0.8991
575	0.8964
584	0.8086
593	0.839
602	0.9043
611	0.8715
620	0.7971
629	0.847
638	0.6088
647	0.7594
656	0.8703
665	0.8676
674	0.8562
683	0.8419
692	0.7195
701	0.4369
710	0.6792
719	0.5115
728	0.7564
737	0.8005
746	0.7826
755	0.8587
764	0.861
773	0.8597
782	0.8316
791	0.7533
800	0.5486
809	0.1193
818	0.5946
827	0.7451
836	0.7418
845	0.6459
854	0.5582
863	0.7454
872	0.77
881	0.8148
890	0.8544
899	0.8695
908	0.8727
917	0.8719
926	0.8662
935	0.8545
944	0.8417
953	0.8278
962	0.8162
971	0.7804
980	0.7023
989	0.458
998	0.1949
1007	0.0712
1016	0.0405
1025	0.034
1034	0.1732
1043	0.597
1052	0.7089
1061	0.7594
1070	0.7786
1079	0.7865
1088	0.8004
1097	0.8022
1106	0.7973
1115	0.5936
1124	0.488
1133	0.6908
1142	0.8209
1151	0.8402
1160	0.8597
1169	0.8617
1178	0.8506
1187	0.8525
1196	0.8721
1205	0.8726
1214	0.8704
1223	0.8652
1232	0.8584
1241	0.8283
1250	0.6521
1259	0.1952
1268	0.7873
1277	0.8504
1286	0.8665
1295	0.8674
1304	0.7619
1313	0.8104
1322	0.8089
1331	0.7749
1340	0.8338
1349	0.8288
1358	0.8185
1367	0.8047
1376	0.7967
1385	0.802
1394	0.7539
1403	0.7318
1412	0.7344
1421	0.6879
1430	0.1983
1439	0.7527
1448	0.7908
1457	0.8181
1466	0.8245
1475	0.8226
1484	0.7803
1493	0.8466
1502	0.8688
1511	0.8804
1520	0.8915
1529	0.9015
1538	0.9043
1547	0.9005
1556	0.8967
1565	0.861
1574	0.8441
1583	0.799
1592	0.577
1601	0.8144
1610	0.8063
1619	0.832
1628	0.8391
1637	0.8369
1646	0.8301
1655	0.8252
1664	0.8347
1673	0.8588
1682	0.8705
1691	0.871
1700	0.8705
1709	0.8605
1718	0.8525
1727	0.8542
1736	0.8591
1745	0.8687
1754	0.8804
1763	0.8766
1772	0.8748
1781	0.8929
1790	0.8959
1799	0.8936
1808	0.8852
1817	0.8468
1826	0.8714
1835	0.8769
1844	0.8911
1853	0.8994
1862	0.8994
1871	0.8911
1880	0.8672
1889	0.8551
1898	0.8504
1907	0.8925
1916	0.9082
1925	0.9068
1934	0.9048
1943	0.8861
1952	0.8441
1961	0.8721
1970	0.8769
1979	0.9011
1988	0.9097
1997	0.9108
2006	0.9109
2015	0.9111
2024	0.9114
2033	0.9114
2042	0.9109
2051	0.9102
2060	0.9098
2069	0.9093
2078	0.909
2087	0.909
2096	0.909
2105	0.9093
2114	0.9095
2123	0.9095
2132	0.9095
2141	0.9093
2150	0.909
2159	0.9087
2168	0.9084
2177	0.908
2186	0.9076
2195	0.907
2204	0.9064
2213	0.905
2222	0.9034
2231	0.9005
2240	0.8977
2249	0.9001
2258	0.9038
2267	0.9066
2276	0.9072
2285	0.9061
2294	0.9044
2303	0.9013
2312	0.8984
2321	0.895
2330	0.8924
2339	0.8903
2348	0.889
2357	0.8882
2366	0.8873
2375	0.8864
2384	0.8854
2393	0.885
2402	0.8848
2411	0.8843
2420	0.8825
2429	0.8816
2438	0.8809
2447	0.8833
2456	0.8866
2465	0.8858
2474	0.8842
2483	0.8828
2492	0.879
2501	0.8754
2510	0.8756
2519	0.8759
2528	0.8753
2537	0.8743
2546	0.8726
2555	0.8712
2564	0.8706
2573	0.8712
2582	0.8698
2591	0.8677
2600	0.8656
2609	0.8622
2618	0.8593
2627	0.8571
2636	0.8558
2645	0.8521
2654	0.8479
2663	0.8453
2672	0.8428
2681	0.8411
2690	0.8398
2699	0.8373
2708	0.8319
2717	0.8321
2726	0.8367
2735	0.8394
2744	0.8409
2753	0.8394
2762	0.8377
2771	0.835
2780	0.8331
2789	0.8315
2798	0.8305
2807	0.8284
2816	0.826
2825	0.8241
2834	0.8231
2843	0.8211
2852	0.8181
2861	0.814
2870	0.8099
2879	0.8068
2888	0.8014
2897	0.7831
2906	0.7532
2915	0.7561
2924	0.7704
2933	0.771
2942	0.7586
2951	0.7329
2960	0.6183
2969	0.407
2978	0.4521
2987	0.6146
2996	0.7356
3005	0.6931
3014	0.6389
3023	0.6727
3032	0.6565
3041	0.7037
3050	0.663
3059	0.5694
3068	0.6265
3077	0.544
3086	0.5817
3095	0.7489
3104	0.7749
3113	0.8271
3122	0.8379
3131	0.8389
3140	0.8346
3149	0.8323
3158	0.8545
3167	0.8708
3176	0.8747
3185	0.8779
3194	0.882
3203	0.8862
3212	0.8889
3221	0.8914
3230	0.8934
3239	0.8943
3248	0.8953
3257	0.8957
3266	0.8961
3275	0.8954
3284	0.8947
3293	0.894
3302	0.8934
3311	0.893
3320	0.8927
3329	0.8916
3338	0.8899
3347	0.8883
3356	0.8881
3365	0.8882
3374	0.8884
3383	0.8885
3392	0.8886
3401	0.8892
3410	0.8899
3419	0.8907
3428	0.8914
3437	0.8922
3446	0.8929
3455	0.8937
3464	0.8944
3473	0.8947
3482	0.8951
3491	0.8954
3500	0.8961
3509	0.8968
3518	0.8975
3527	0.8983
3536	0.8989
3545	0.8994
3554	0.9
3563	0.9004
3572	0.9004
3581	0.9002
3590	0.9001
3599	0.8997
3608	0.8994
3617	0.899
3626	0.8986
3635	0.8988
3644	0.8991
3653	0.8993
3662	0.9004
3671	0.9015
3680	0.9014
3689	0.8989
3698	0.8919
3707	0.8924
3716	0.8955
3725	0.8984
3734	0.8996
3743	0.9011
3752	0.9027
3761	0.9024
3770	0.9004
3779	0.8966
3788	0.895
3797	0.8979
3806	0.9006
