Infrared Spectrum: Ethyl 2-heptynoate
Formula: C 9 H 14 O 2
CAS: 16930-95-3
State: gas
Origin: EPA-IR VAPOR PHASE LIBRARY
1/CM	ABSORBANCE
549.8	0.0032214
559.445	0.0031914
569.09	0.0028714
578.734	0.0036114
588.379	0.0034414
598.024	0.0026214
607.669	0.0023314
617.313	0.0017314
626.958	0.0011814
636.603	0.0015714
646.248	0.0015914
655.893	0.0012914
665.537	0.0018014
675.182	0.0016714
684.827	0.0020214
694.472	0.0022314
704.116	0.0026714
713.761	0.0035714
723.406	0.0056214
733.051	0.0108614
742.695	0.0197814
752.34	0.0237214
761.985	0.0208414
771.63	0.0151314
781.275	0.0106214
790.919	0.0085614
800.564	0.0074314
810.209	0.0074214
819.854	0.0069814
829.498	0.0063314
839.143	0.0063314
848.788	0.0071414
858.433	0.0088114
868.078	0.0081614
877.722	0.0054314
887.367	0.0038314
897.012	0.0035414
906.657	0.0032314
916.301	0.0034514
925.946	0.0036114
935.591	0.0038714
945.236	0.0045014
954.88	0.0051314
964.525	0.0053114
974.17	0.0056014
983.815	0.0057614
993.46	0.0066014
1003.1	0.0090014
1012.75	0.0112214
1022.39	0.0136814
1032.04	0.0242114
1041.68	0.0466514
1051.33	0.0662014
1060.97	0.0923814
1070.62	0.149801
1080.26	0.145111
1089.91	0.0989114
1099.55	0.0800414
1109.2	0.0439214
1118.84	0.0230614
1128.49	0.0165514
1138.13	0.0154214
1147.78	0.0160914
1157.42	0.0172914
1167.07	0.0196014
1176.71	0.0218914
1186.36	0.0271414
1196	0.0388314
1205.64	0.0633414
1215.29	0.112131
1224.93	0.223861
1234.58	0.493451
1244.22	0.711141
1253.87	0.457911
1263.51	0.182641
1273.16	0.0813314
1282.8	0.0528214
1292.45	0.0439914
1302.09	0.0435914
1311.74	0.0406214
1321.38	0.0399314
1331.03	0.0328814
1340.67	0.0199414
1350.32	0.0180014
1359.96	0.0286714
1369.61	0.0415314
1379.25	0.0234914
1388.9	0.0191114
1398.54	0.0172914
1408.18	0.0153214
1417.83	0.0149214
1427.47	0.0175714
1437.12	0.0212714
1446.76	0.0236314
1456.41	0.0273214
1466.05	0.0319214
1475.7	0.0280914
1485.34	0.0173414
1494.99	0.0120614
1504.63	0.0092914
1514.28	0.0070914
1523.92	0.0055114
1533.57	0.0044214
1543.21	0.0039214
1552.86	0.0035114
1562.5	0.0032614
1572.15	0.0031514
1581.79	0.0031914
1591.44	0.0033914
1601.08	0.0034414
1610.73	0.0036114
1620.37	0.0042614
1630.01	0.0048414
1639.66	0.0052514
1649.3	0.0057914
1658.95	0.0069114
1668.59	0.0089114
1678.24	0.0131114
1687.88	0.0206414
1697.53	0.0328714
1707.17	0.0621714
1716.82	0.137961
1726.46	0.266751
1736.11	0.315911
1745.75	0.189081
1755.4	0.0862214
1765.04	0.0330514
1774.69	0.0163814
1784.33	0.0100114
1793.98	0.0067414
1803.62	0.0047614
1813.27	0.0036614
1822.91	0.0029414
1832.55	0.0024714
1842.2	0.0022814
1851.84	0.0021714
1861.49	0.0020114
1871.13	0.0019114
1880.78	0.0019314
1890.42	0.0020914
1900.07	0.0022414
1909.71	0.0023014
1919.36	0.0025414
1929	0.0026414
1938.65	0.0026614
1948.29	0.0023514
1957.94	0.0018414
1967.58	0.0015014
1977.23	0.0013914
1986.87	0.0013314
1996.52	0.0013814
2006.16	0.0015714
2015.81	0.0018214
2025.45	0.0020114
2035.1	0.0020414
2044.74	0.0021214
2054.38	0.0022714
2064.03	0.0022814
2073.67	0.0025114
2083.32	0.0027714
2092.96	0.0028014
2102.61	0.0028214
2112.25	0.0027014
2121.9	0.0025314
2131.54	0.0023714
2141.19	0.0026314
2150.83	0.0030214
2160.48	0.0038214
2170.12	0.0052414
2179.77	0.0083214
2189.41	0.0134914
2199.06	0.0224214
2208.7	0.0401014
2218.35	0.0717514
2227.99	0.103521
2237.64	0.0968314
2247.28	0.0594314
2256.92	0.0324214
2266.57	0.0192414
2276.21	0.0136814
2285.86	0.0117714
2295.5	0.0109814
2305.15	0.0105414
2314.79	0.0098114
2324.44	0.0078314
2334.08	0.0054414
2343.73	0.0039514
2353.37	0.0030614
2363.02	0.0027114
2372.66	0.0024014
2382.31	0.0024014
2391.95	0.0022614
2401.6	0.0022414
2411.24	0.0020814
2420.89	0.0020114
2430.53	0.0018014
2440.18	0.0018114
2449.82	0.0018714
2459.47	0.0019814
2469.11	0.0021914
2478.75	0.0022914
2488.4	0.0021114
2498.04	0.0015214
2507.69	0.0013814
2517.33	0.0012214
2526.98	0.0011214
2536.62	0.0013014
2546.27	0.0012414
2555.91	0.0012414
2565.56	0.0014014
2575.2	0.0012414
2584.85	0.0013114
2594.49	0.0012914
2604.14	0.0013314
2613.78	0.0013214
2623.43	0.0014014
2633.07	0.0014914
2642.72	0.0016614
2652.36	0.0019514
2662.01	0.0018314
2671.65	0.0018414
2681.29	0.0019614
2690.94	0.0019314
2700.58	0.0018014
2710.23	0.0019114
2719.87	0.0019914
2729.52	0.0023314
2739.16	0.0025214
2748.81	0.0029914
2758.45	0.0030314
2768.1	0.0030914
2777.74	0.0032814
2787.39	0.0035414
2797.03	0.0041014
2806.68	0.0050014
2816.32	0.0062114
2825.97	0.0076714
2835.61	0.0100114
2845.26	0.0136614
2854.9	0.0183914
2864.55	0.0302114
2874.19	0.0440214
2883.84	0.0489714
2893.48	0.0439114
2903.12	0.0421814
2912.77	0.0504314
2922.41	0.0653114
2932.06	0.0937614
2941.7	0.130801
2951.35	0.120741
2960.99	0.108531
2970.64	0.117791
2980.28	0.103561
2989.93	0.0803714
2999.57	0.0485814
3009.22	0.0330814
3018.86	0.0220814
3028.51	0.0145314
3038.15	0.0099714
3047.8	0.0076014
3057.44	0.0064014
3067.09	0.0052814
3076.73	0.0047214
3086.38	0.0042914
3096.02	0.0037514
3105.67	0.0034714
3115.31	0.0030014
3124.95	0.0028314
3134.6	0.0024714
3144.24	0.0024114
3153.89	0.0020814
3163.53	0.0020614
3173.18	0.0019114
3182.82	0.0019214
3192.47	0.0016214
3202.11	0.0016114
3211.76	0.0014114
3221.4	0.0012014
3231.05	0.0010711
3240.69	0.0010914
3250.34	0.0007625
3259.98	0.0008145
3269.63	0.0007768
3279.27	0.0008907
3288.92	0.000693
3298.56	0.000712
3308.21	0.0008194
3317.85	0.0008817
3327.49	0.0007369
3337.14	0.000746
3346.78	0.0006773
3356.43	0.0008419
3366.07	0.0005342
3375.72	0.0006499
3385.36	0.0005909
3395.01	0.0008274
3404.65	0.0009911
3414.3	0.0013714
3423.94	0.0017414
3433.59	0.0028714
3443.23	0.0038814
3452.88	0.0038714
3462.52	0.0025514
3472.17	0.0018814
3481.81	0.0012614
3491.46	0.0009305
3501.1	0.0005752
3510.75	0.0004725
3520.39	0.0004974
3530.04	0.0005116
3539.68	0.0003031
3549.32	0.0003833
3558.97	0.0002986
3568.61	0.0002219
3578.26	0.00014182
3587.9	0.0001804
3597.55	0.00016862
3607.19	0.0003885
3616.84	0.0003025
3626.48	0.0002149
3636.13	0.0002552
3645.77	0.0004397
3655.42	0.0002591
3665.06	0.0003284
3674.71	0.0004619
3684.35	0.0002758
3694	0.0005308
3703.64	0.0002967
3713.29	0.000485
3722.93	0.0004527
3732.58	0.0004815
3742.22	0.00036
3751.86	0.000376
3761.51	0.0004469
3771.15	0.0002664
3780.8	0.0004244
3790.44	0.0005746
3800.09	0.0005952
3809.73	0.0004773
3819.38	0.000406
3829.02	0.0006263
3838.67	0.0005798
3848.31	0.0004274
3857.96	0.0004747
3867.6	0.0004485
3877.25	0.0002185
3886.89	0.0005687
3896.54	0.0002919
3906.18	0.00013159
3915.83	0.0005471
3925.47	0.0003474
3935.12	0.0005119
3944.76	0.0004039
3954.41	0.0006781
3964.05	0.0007369
3973.69	0.0007727
3983.34	0.0011314
3992.98	0.0010496
