Infrared Spectrum: 2,6-Dimethoxybenzonitrile
Formula: C 9 H 9 N O 2
CAS: 16932-49-3
State: gas
Origin: EPA-IR VAPOR PHASE LIBRARY
1/CM	ABSORBANCE
549.9	0.001062
559.547	0.00126747
569.193	0.000958
578.84	0.0011782
588.486	0.001066
598.133	0.0014029
607.779	0.0011995
617.426	0.00125436
627.072	0.0014307
636.719	0.0013485
646.365	0.00131766
656.012	0.0014195
665.658	0.0013986
675.305	0.0015231
684.951	0.0013331
694.598	0.00128166
704.245	0.0013981
713.891	0.0020214
723.538	0.00293
733.184	0.00234
742.831	0.0017053
752.477	0.0013636
762.124	0.0014148
771.77	0.0017512
781.417	0.00234
791.063	0.00229
800.71	0.0019831
810.356	0.0013336
820.003	0.00127402
829.649	0.001098
839.296	0.001071
848.943	0.0011218
858.589	0.0011222
868.236	0.0011209
877.882	0.001066
887.529	0.0011493
897.175	0.0012845
906.822	0.0013767
916.468	0.0013804
926.115	0.00130405
935.761	0.0013299
945.408	0.0013235
955.054	0.001382
964.701	0.0013352
974.347	0.0013812
983.994	0.001571
993.64	0.0016145
1003.29	0.0017106
1012.93	0.0019386
1022.58	0.0019629
1032.23	0.0019102
1041.87	0.0018215
1051.52	0.0021589
1061.17	0.00258
1070.81	0.0035
1080.46	0.00467
1090.11	0.00622
1099.75	0.00922
1109.4	0.01107
1119.05	0.0109
1128.69	0.00774
1138.34	0.00287
1147.99	0.0014537
1157.63	0.00129931
1167.28	0.0013682
1176.92	0.001364
1186.57	0.00105
1196.22	0.000632
1205.86	0.000651
1215.51	0.000281
1225.16	0.000991
1234.8	0.00291
1244.45	0.00678
1254.1	0.01171
1263.74	0.01106
1273.39	0.00667
1283.04	0.0043
1292.68	0.00382
1302.33	0.00361
1311.98	0.00279
1321.62	0.0020638
1331.27	0.001679
1340.92	0.0015074
1350.56	0.0013653
1360.21	0.0013505
1369.86	0.00127378
1379.5	0.00130049
1389.15	0.0014817
1398.79	0.0015654
1408.44	0.0018638
1418.09	0.00265
1427.73	0.00478
1437.38	0.00609
1447.03	0.00447
1456.67	0.0042
1466.32	0.00712
1475.97	0.01253
1485.61	0.00963
1495.26	0.00327
1504.91	0.0020207
1514.55	0.0016913
1524.2	0.0016094
1533.85	0.0017313
1543.49	0.0019882
1553.14	0.00276
1562.79	0.00435
1572.43	0.00658
1582.08	0.0087
1591.73	0.00934
1601.37	0.0059
1611.02	0.00287
1620.67	0.0018744
1630.31	0.0015708
1639.96	0.0014349
1649.6	0.00127728
1659.25	0.00127037
1668.9	0.00123462
1678.54	0.00122615
1688.19	0.00128035
1697.84	0.0011204
1707.48	0.001091
1717.13	0.001029
1726.78	0.001043
1736.42	0.001072
1746.07	0.0011832
1755.72	0.001097
1765.36	0.001071
1775.01	0.001088
1784.66	0.0011476
1794.3	0.001043
1803.95	0.001156
1813.6	0.001109
1823.24	0.0011348
1832.89	0.001101
1842.54	0.0011598
1852.18	0.0011272
1861.83	0.001041
1871.47	0.001124
1881.12	0.0011205
1890.77	0.0011552
1900.41	0.00123495
1910.06	0.00127886
1919.71	0.0014092
1929.35	0.0013886
1939	0.00131551
1948.65	0.00127461
1958.29	0.0011847
1967.94	0.0012003
1977.59	0.0011608
1987.23	0.0011806
1996.88	0.0011901
2006.53	0.0011521
2016.17	0.00123406
2025.82	0.0011757
2035.47	0.0012552
2045.11	0.00126283
2054.76	0.0012328
2064.41	0.00125328
2074.05	0.00124738
2083.7	0.00129822
2093.35	0.00128055
2102.99	0.0013289
2112.64	0.00129417
2122.28	0.0013261
2131.93	0.0013525
2141.58	0.00129581
2151.22	0.0013799
2160.87	0.0014055
2170.52	0.0013794
2180.16	0.0013945
2189.81	0.0013664
2199.46	0.0014653
2209.1	0.0015357
2218.75	0.0016929
2228.4	0.0020347
2238.04	0.001902
2247.69	0.0015389
2257.34	0.0015057
2266.98	0.0014545
2276.63	0.0014242
2286.28	0.001383
2295.92	0.0013635
2305.57	0.001371
2315.22	0.0013928
2324.86	0.0013614
2334.51	0.0013546
2344.16	0.0013998
2353.8	0.0013897
2363.45	0.0013862
2373.09	0.0014106
2382.74	0.0014627
2392.39	0.001435
2402.03	0.0014557
2411.68	0.0014495
2421.33	0.0014443
2430.97	0.001473
2440.62	0.0014477
2450.27	0.001464
2459.91	0.0014417
2469.56	0.0015043
2479.21	0.0014484
2488.85	0.0014146
2498.5	0.0014714
2508.15	0.0015421
2517.79	0.0015485
2527.44	0.0015926
2537.09	0.0015745
2546.73	0.0015579
2556.38	0.0016277
2566.03	0.0016375
2575.67	0.0016212
2585.32	0.0016618
2594.96	0.00163
2604.61	0.0016641
2614.26	0.0015936
2623.9	0.0016778
2633.55	0.0017167
2643.2	0.0016332
2652.84	0.0016354
2662.49	0.0016409
2672.14	0.0016313
2681.78	0.0017789
2691.43	0.0016267
2701.08	0.0016466
2710.72	0.0017188
2720.37	0.0017266
2730.02	0.001778
2739.66	0.0017819
2749.31	0.0018588
2758.96	0.0017797
2768.6	0.0018443
2778.25	0.0018754
2787.9	0.0017964
2797.54	0.0017993
2807.19	0.0019875
2816.84	0.001909
2826.48	0.0021093
2836.13	0.00245
2845.77	0.00329
2855.42	0.00329
2865.07	0.00275
2874.71	0.00233
2884.36	0.00254
2894.01	0.00269
2903.65	0.00286
2913.3	0.00291
2922.95	0.00306
2932.59	0.00329
2942.24	0.00425
2951.89	0.00459
2961.53	0.00428
2971.18	0.00387
2980.83	0.00331
2990.47	0.00285
3000.12	0.00276
3009.77	0.00324
3019.41	0.00344
3029.06	0.0027
3038.71	0.00247
3048.35	0.0020999
3058	0.0021083
3067.64	0.0021225
3077.29	0.0021683
3086.94	0.0021161
3096.58	0.002203
3106.23	0.0020991
3115.88	0.0016948
3125.52	0.0018225
3135.17	0.0015621
3144.82	0.0015747
3154.46	0.0015392
3164.11	0.0015506
3173.76	0.00156
3183.4	0.0014378
3193.05	0.0015067
3202.7	0.0016471
3212.34	0.0014596
3221.99	0.0014258
3231.64	0.00127976
3241.28	0.00122635
3250.93	0.0011704
3260.58	0.0011459
3270.22	0.00129608
3279.87	0.00121115
3289.52	0.0011776
3299.16	0.0011756
3308.81	0.00118
3318.45	0.001078
3328.1	0.0013753
3337.75	0.001027
3347.39	0.00130944
3357.04	0.00131492
3366.69	0.0011925
3376.33	0.00122543
3385.98	0.001021
3395.63	0.00128932
3405.27	0.001006
3414.92	0.001003
3424.57	0.001068
3434.21	0.001359
3443.86	0.00127577
3453.51	0.001118
3463.15	0.000973
3472.8	0.000987
3482.45	0.00105
3492.09	0.001071
3501.74	0.0011668
3511.39	0.0011812
3521.03	0.001093
3530.68	0.000976
3540.33	0.000916
3549.97	0.001025
3559.62	0.000914
3569.26	0.001009
3578.91	0.000962
3588.56	0.001006
3598.2	0.001024
3607.85	0.001083
3617.5	0.001115
3627.14	0.00126296
3636.79	0.001113
3646.44	0.00101
3656.08	0.000986
3665.73	0.001118
3675.38	0.0011838
3685.02	0.000944
3694.67	0.0011468
3704.32	0.00128674
3713.96	0.0011445
3723.61	0.0011756
3733.26	0.000932
3742.9	0.001108
3752.55	0.001104
3762.2	0.0011255
3771.84	0.00127668
3781.49	0.00122003
3791.13	0.00123327
3800.78	0.0011706
3810.43	0.0013932
3820.07	0.0012046
3829.72	0.0012094
3839.37	0.00124734
3849.01	0.00143
3858.66	0.0014484
3868.31	0.00130623
3877.95	0.0011363
3887.6	0.00127644
3897.25	0.0013789
3906.89	0.0013255
3916.54	0.00129999
3926.19	0.001368
3935.83	0.0014882
3945.48	0.00129948
3955.13	0.0013614
3964.77	0.0014157
3974.42	0.0013835
3984.07	0.0014747
3993.71	0.0013898
