Infrared Spectrum: t-Butyl acetoacetate
Formula: C 8 H 14 O 3
CAS: 1694-31-1
State: gas
Instrument: HP-GC/MS/IRD
Origin: NIST Mass Spectrometry Data Center
1/CM	ABSORBANCE
550	0.0009471
562	0.0004641
574	0.0001617
586	8.4e-06
598	0.0002352
610	0.0003108
622	0.0003612
634	0.0003717
646	0.0004221
658	0.0002772
670	0.0018291
682	0.0003507
694	0.0003633
706	0.0002877
718	0.0004263
730	0.0002226
742	0.0003822
754	0.000399
766	0.0006195
778	0.0005229
790	0.0004179
802	0.0005103
814	0.0006069
826	0.00126
838	0.0014553
850	0.0013755
862	0.0010122
874	0.0009618
886	0.0011928
898	0.0013062
910	0.0016674
922	0.0017031
934	0.0019593
946	0.0018228
958	0.0011424
970	0.000861
982	0.0009303
994	0.0012033
1006	0.0014427
1018	0.0017997
1030	0.0018942
1042	0.001449
1054	0.0011151
1066	0.0010836
1078	0.0012789
1090	0.0016527
1102	0.0027615
1114	0.0053088
1126	0.0103299
1138	0.0170919
1150	0.0203007
1162	0.0181734
1174	0.014154
1186	0.0098679
1198	0.008064
1210	0.007581
1222	0.0064113
1234	0.0064008
1246	0.0074151
1258	0.0078834
1270	0.0077049
1282	0.0077616
1294	0.0080913
1306	0.0088557
1318	0.0087213
1330	0.0066087
1342	0.005019
1354	0.006258
1366	0.0091287
1378	0.0086499
1390	0.0054768
1402	0.0039333
1414	0.002688
1426	0.0021714
1438	0.0018627
1450	0.001995
1462	0.0020496
1474	0.0018711
1486	0.0015498
1498	0.000945
1510	0.0004158
1522	0.0003675
1534	0.0004053
1546	0.0003633
1558	0.0003066
1570	0.0005019
1582	0.0005187
1594	0.000525
1606	0.0005439
1618	0.0005334
1630	0.0006426
1642	0.0007161
1654	0.0007875
1666	0.0012243
1678	0.0021252
1690	0.0037191
1702	0.0062265
1714	0.0100884
1726	0.0169407
1738	0.021
1750	0.0182868
1762	0.0117957
1774	0.0053487
1786	0.0023457
1798	0.0012222
1810	0.0007833
1822	0.0005082
1834	0.0003381
1846	0.0002352
1858	0.0002562
1870	0.0001848
1882	0.0001785
1894	0.0001386
1906	0.0001071
1918	8.4e-05
1930	7.98e-05
1942	6.09e-05
1954	9.45e-05
1966	7.77e-05
1978	5.25e-05
1990	5.88e-05
2002	6.3e-05
2014	8.4e-05
2026	3.99e-05
2038	7.56e-05
2050	6.93e-05
2062	0.0001008
2074	0.0001785
2086	0.0002814
2098	0.0005733
2110	0.0014889
2122	0.0033873
2134	0.0053277
2146	0.0050547
2158	0.0028455
2170	0.000567
2182	0.0002394
2194	0.0001596
2206	0.0001449
2218	0.0001491
2230	0.0001617
2242	0.00021
2254	0.0002352
2266	0.0003444
2278	0.0006363
2290	0.0013566
2302	0.002604
2314	0.0042168
2326	0.0052059
2338	0.0048216
2350	0.0039396
2362	0.0068334
2374	0.0050253
2386	0.0011613
2398	0.0001743
2410	0.0001092
2422	9.24e-05
2434	7.77e-05
2446	2.1e-05
2458	6.3e-05
2470	2.1e-05
2482	1.26e-05
2494	4.83e-05
2506	1.89e-05
2518	2.94e-05
2530	5.67e-05
2542	4.2e-05
2554	4.62e-05
2566	3.99e-05
2578	3.36e-05
2590	1.89e-05
2602	6.51e-05
2614	4.83e-05
2626	7.35e-05
2638	7.56e-05
2650	5.88e-05
2662	6.51e-05
2674	5.88e-05
2686	0.0001029
2698	9.45e-05
2710	0.0001155
2722	0.0001029
2734	0.0001827
2746	0.0001659
2758	0.0001932
2770	0.0002058
2782	0.0001785
2794	0.000315
2806	0.0002961
2818	0.000357
2830	0.0004263
2842	0.0005208
2854	0.0007476
2866	0.0011508
2878	0.0016086
2890	0.001932
2902	0.0023478
2914	0.0028539
2926	0.0035658
2938	0.0046914
2950	0.0050148
2962	0.0056049
2974	0.0080556
2986	0.009975
2998	0.0060312
3010	0.0032214
3022	0.0018732
3034	0.001008
3046	0.0006804
3058	0.0005901
3070	0.0005859
3082	0.0006384
3094	0.0005313
3106	0.0004788
3118	0.000357
3130	0.0003381
3142	0.0003045
3154	0.000315
3166	0.000273
3178	0.0003129
3190	0.0003066
3202	0.0002394
3214	0.0002646
3226	0.0002436
3238	0.0002478
3250	0.0002058
3262	0.0002142
3274	0.0001134
3286	0.000147
3298	0.0002247
3310	0.0001995
3322	0.0002058
3334	0.0001386
3346	0.0001491
3358	0.0001533
3370	0.0001995
3382	0.0001722
3394	0.0002793
3406	0.0001785
3418	0.0002688
3430	0.0002709
3442	0.0004683
3454	0.0004704
3466	0.0004557
3478	0.000399
3490	0.0003339
3502	0.0001827
3514	0.0001953
3526	0.0001071
3538	0.0001449
3550	5.67e-05
3562	8.82e-05
3574	0.0001554
3586	0.0001029
3598	0.0002121
3610	0.0001302
3622	0.0002835
3634	0.0003423
3646	0.0003255
3658	0.0002667
3670	0.0001491
3682	0.0001827
3694	0.0002079
3706	0.0001512
3718	0.0001869
3730	0.0001575
3742	0.0001974
3754	9.24e-05
3766	0.0001302
3778	0.0001365
3790	0.0001176
3802	0.0001617
3814	0.0001596
3826	0.0001932
3838	0.0001722
