Infrared Spectrum: 1-Phenyl-1-octyne
Formula: C 14 H 18
CAS: 16967-02-5
State: gas
Origin: EPA-IR VAPOR PHASE LIBRARY
1/CM	ABSORBANCE
549.8	0.00368
559.445	0.0036
569.09	0.0027325
578.734	0.00357
588.379	0.00341
598.024	0.00237
607.669	0.0030582
617.313	0.0025558
626.958	0.0028732
636.603	0.00318
646.248	0.00365
655.893	0.00461
665.537	0.00591
675.182	0.01194
684.827	0.01763
694.472	0.01874
704.116	0.01291
713.761	0.00861
723.406	0.00832
733.051	0.0119
742.695	0.02008
752.34	0.02619
761.985	0.02025
771.63	0.0109
781.275	0.00529
790.919	0.00315
800.564	0.00331
810.209	0.00361
819.854	0.0032
829.498	0.00327
839.143	0.00331
848.788	0.0029885
858.433	0.00376
868.078	0.00349
877.722	0.00315
887.367	0.00368
897.012	0.00409
906.657	0.00499
916.301	0.00437
925.946	0.0035
935.591	0.0030436
945.236	0.0029882
954.88	0.00312
964.525	0.00339
974.17	0.0023494
983.815	0.0028889
993.46	0.00321
1003.1	0.00328
1012.75	0.00466
1022.39	0.0056
1032.04	0.00573
1041.68	0.00446
1051.33	0.0044
1060.97	0.0051
1070.62	0.00358
1080.26	0.00348
1089.91	0.0024749
1099.55	0.002421
1109.2	0.001656
1118.84	0.0023105
1128.49	0.0025626
1138.13	0.001292
1147.78	0.001689
1157.42	0.001321
1167.07	0.001155
1176.71	0.00088
1186.36	0.0029222
1196	0.00116
1205.64	0.001289
1215.29	0
1224.93	0.0025587
1234.58	0.002039
1244.22	0.00321
1253.87	0.00406
1263.51	0.0042
1273.16	0.00509
1282.8	0.0047
1292.45	0.00532
1302.09	0.00612
1311.74	0.00743
1321.38	0.00926
1331.03	0.01213
1340.67	0.0098
1350.32	0.0093
1359.96	0.00765
1369.61	0.00643
1379.25	0.00578
1388.9	0.00503
1398.54	0.00417
1408.18	0.00358
1417.83	0.00444
1427.47	0.00705
1437.12	0.01197
1446.76	0.01146
1456.41	0.01143
1466.05	0.01121
1475.7	0.01116
1485.34	0.02066
1494.99	0.01938
1504.63	0.00868
1514.28	0.0048
1523.92	0.00355
1533.57	0.002844
1543.21	0.0027829
1552.86	0.0029925
1562.5	0.0035
1572.15	0.00404
1581.79	0.00576
1591.44	0.01053
1601.08	0.01265
1610.73	0.00563
1620.37	0.0030195
1630.01	0.0029074
1639.66	0.0025533
1649.3	0.0026036
1658.95	0.00341
1668.59	0.00324
1678.24	0.0027754
1687.88	0.0023647
1697.53	0.0022781
1707.17	0.0024071
1716.82	0.0025514
1726.46	0.0027124
1736.11	0.0029053
1745.75	0.0028729
1755.4	0.0024026
1765.04	0.0023258
1774.69	0.0026213
1784.33	0.00309
1793.98	0.00367
1803.62	0.0027792
1813.27	0.0026627
1822.91	0.0025654
1832.55	0.00217978
1842.2	0.0022347
1851.84	0.002525
1861.49	0.0027952
1871.13	0.0030506
1880.78	0.00361
1890.42	0.0030754
1900.07	0.0026306
1909.71	0.0025281
1919.36	0.0027325
1929	0.0029812
1938.65	0.00311
1948.29	0.00369
1957.94	0.00353
1967.58	0.0024046
1977.23	0.0023368
1986.87	0.002261
1996.52	0.0023555
2006.16	0.0022604
2015.81	0.0022392
2025.45	0.0023504
2035.1	0.0023301
2044.74	0.0024654
2054.38	0.0025128
2064.03	0.0022435
2073.67	0.002319
2083.32	0.0021842
2092.96	0.0024702
2102.61	0.0023709
2112.25	0.002204
2121.9	0.002201
2131.54	0.0022433
2141.19	0.0021972
2150.83	0.0025016
2160.48	0.002348
2170.12	0.002335
2179.77	0.0025569
2189.41	0.0029614
2199.06	0.0029059
2208.7	0.00386
2218.35	0.00454
2227.99	0.00483
2237.64	0.00395
2247.28	0.00368
2256.92	0.0030234
2266.57	0.0028968
2276.21	0.0025802
2285.86	0.0024261
2295.5	0.0023444
2305.15	0.0024938
2314.79	0.0028636
2324.44	0.0029117
2334.08	0.0025613
2343.73	0.0024329
2353.37	0.0025448
2363.02	0.0024015
2372.66	0.0026845
2382.31	0.00215066
2391.95	0.0025113
2401.6	0.002636
2411.24	0.0028519
2420.89	0.0026525
2430.53	0.0026491
2440.18	0.0022031
2449.82	0.0027721
2459.47	0.002525
2469.11	0.002349
2478.75	0.002768
2488.4	0.002746
2498.04	0.0029415
2507.69	0.002348
2517.33	0.0024351
2526.98	0.0024722
2536.62	0.0025589
2546.27	0.0026677
2555.91	0.0026514
2565.56	0.0028667
2575.2	0.0028631
2584.85	0.0029196
2594.49	0.0028079
2604.14	0.0026517
2613.78	0.00326
2623.43	0.0029734
2633.07	0.0029215
2642.72	0.00331
2652.36	0.00325
2662.01	0.00335
2671.65	0.00314
2681.29	0.00354
2690.94	0.00322
2700.58	0.00337
2710.23	0.0033
2719.87	0.0032
2729.52	0.0028744
2739.16	0.00332
2748.81	0.00362
2758.45	0.00362
2768.1	0.00391
2777.74	0.00394
2787.39	0.00446
2797.03	0.00465
2806.68	0.00534
2816.32	0.00576
2825.97	0.00725
2835.61	0.00934
2845.26	0.01551
2854.9	0.02529
2864.55	0.03597
2874.19	0.03493
2883.84	0.02979
2893.48	0.02704
2903.12	0.03221
2912.77	0.0451
2922.41	0.06441
2932.06	0.09346
2941.7	0.09989
2951.35	0.06627
2960.99	0.05279
2970.64	0.04822
2980.28	0.0266
2989.93	0.01504
2999.57	0.01122
3009.22	0.00977
3018.86	0.00959
3028.51	0.01121
3038.15	0.0145
3047.8	0.01129
3057.44	0.01507
3067.09	0.0217
3076.73	0.01657
3086.38	0.01429
3096.02	0.01255
3105.67	0.00851
3115.31	0.00541
3124.95	0.00373
3134.6	0.00346
3144.24	0.0028938
3153.89	0.0025606
3163.53	0.0029274
3173.18	0.0030273
3182.82	0.0028465
3192.47	0.0027933
3202.11	0.00311
3211.76	0.002391
3221.4	0.0029672
3231.05	0.0020209
3240.69	0.0026366
3250.34	0.0023154
3259.98	0.0024475
3269.63	0.0023452
3279.27	0.0024764
3288.92	0.0023099
3298.56	0.00184
3308.21	0.0023426
3317.85	0.0020418
3327.49	0.0022025
3337.14	0.00309
3346.78	0.001561
3356.43	0.0026476
3366.07	0.0023048
3375.72	0.0023326
3385.36	0.001901
3395.01	0.00156
3404.65	0.001973
3414.3	0.0022816
3423.94	0.0020138
3433.59	0.0023326
3443.23	0.001959
3452.88	0.001804
3462.52	0.0022965
3472.17	0.0023886
3481.81	0.00210454
3491.46	0.00208147
3501.1	0.0019989
3510.75	0.00208022
3520.39	0.001696
3530.04	0.0022588
3539.68	0.0022555
3549.32	0.0024564
3558.97	0.00216411
3568.61	0.001428
3578.26	0.001923
3587.9	0.00214917
3597.55	0.002609
3607.19	0.0022659
3616.84	0.001701
3626.48	0.001592
3636.13	0.0023421
3645.77	0.001669
3655.42	0.002202
3665.06	0.0020015
3674.71	0.001665
3684.35	0.00217161
3694	0.0025065
3703.64	0.0024119
3713.29	0.0023989
3722.93	0.00212766
3732.58	0.0022969
3742.22	0.0023986
3751.86	0.0019869
3761.51	0.00210889
3771.15	0.0025487
3780.8	0.001675
3790.44	0.001787
3800.09	0.0026172
3809.73	0.0020674
3819.38	0.0022767
3829.02	0.00171
3838.67	0.0027526
3848.31	0.0024588
3857.96	0.0022843
3867.6	0.0026492
3877.25	0.002327
3886.89	0.001744
3896.54	0.001695
3906.18	0.001843
3915.83	0.001928
3925.47	0.0024186
3935.12	0.001568
3944.76	0.0028807
3954.41	0.001739
3964.05	0.00314
3973.69	0.0023545
3983.34	0.0025049
3992.98	0.001703
