Infrared Spectrum: 10-Beta-CYANOETHYLPHENOTHIAZINE
Formula: C15 H12 N2 S
CAS: 1698-80-2
State: SOLUTION (7% IN CHCl3)
Class: COBLENTZ
Instrument: PERKIN-ELMER
Sampling: TRANSMISSION
Path length: 0.010 CM
Resolution: 4
Origin: ABBOTT LABORATORIES - WASHBURN
MICROMETERS	TRANSMITTANCE
2.056	0.883
2.09579	0.89
2.13557	0.891
2.17536	0.8931
2.21514	0.906
2.25493	0.906
2.29472	0.915
2.3345	0.916
2.37429	0.92
2.41407	0.9261
2.45386	0.9201
2.49365	0.918
2.53343	0.92
2.57322	0.923
2.613	0.9259
2.65279	0.9279
2.69258	0.925
2.73236	0.923
2.77215	0.916
2.81193	0.921
2.85172	0.9027
2.89151	0.8898
2.93129	0.893
2.97108	0.898
3.01086	0.9049
3.05065	0.901
3.09044	0.9051
3.13022	0.911
3.17001	0.913
3.20979	0.916
3.24958	0.9148
3.28937	0.8635
3.32915	0.841
3.36894	0.8179
3.40872	0.8783
3.44851	0.9034
3.48829	0.9278
3.52808	0.9011
3.56787	0.9259
3.60765	0.958
3.64744	0.963
3.68722	0.963
3.72701	0.966
3.7668	0.966
3.80658	0.966
3.84637	0.9577
3.88615	0.9479
3.92594	0.933
3.96573	0.93
4.00551	0.926
4.0453	0.926
4.08508	0.9199
4.12487	0.913
4.16466	0.913
4.20444	0.913
4.24423	0.906
4.28401	0.905
4.3238	0.8959
4.36359	0.89
4.40337	0.8812
4.44316	0.8424
4.48294	0.7686
4.52273	0.8601
4.56252	0.866
4.6023	0.8629
4.64209	0.86
4.68187	0.853
4.72166	0.848
4.76145	0.85
4.80123	0.85
4.84102	0.845
4.8808	0.848
4.92059	0.8431
4.96038	0.8429
5.00016	0.841
5.03995	0.841
5.07973	0.8382
5.11952	0.8363
5.15931	0.8207
5.19909	0.8088
5.23888	0.8237
5.27866	0.7988
5.31845	0.8196
5.35824	0.8255
5.39802	0.8188
5.43781	0.826
5.47759	0.8244
5.51738	0.821
5.55717	0.823
5.59695	0.8094
5.63674	0.8011
5.67652	0.8179
5.71631	0.823
5.7561	0.82
5.79588	0.8146
5.83567	0.81
5.87545	0.805
5.91524	0.792
5.95503	0.79
5.99481	0.7944
6.0346	0.788
6.07438	0.7954
6.11417	0.795
6.15395	0.79
6.19374	0.777
6.23353	0.7525
6.27331	0.5509
6.3131	0.6782
6.35288	0.5783
6.39267	0.6899
6.43246	0.7504
6.47224	0.79
6.51203	0.8005
6.55181	0.806
6.5916	0.7998
6.63139	0.7763
6.67117	0.7182
6.71096	0.642
6.75074	0.475
6.79053	0.5305
6.83032	0.2207
6.8701	0.0633
6.90989	0.2335
6.94967	0.3319
6.98946	0.611
7.02925	0.675
7.06903	0.6803
7.10882	0.7288
7.1486	0.7466
7.18839	0.7427
7.22818	0.6809
7.26796	0.6397
7.30775	0.6486
7.34753	0.6272
7.38732	0.668
7.42711	0.6554
7.46689	0.4889
7.50668	0.4336
7.54646	0.5914
7.58625	0.577
7.62604	0.6875
7.66582	0.6991
7.70561	0.6158
7.74539	0.5567
7.78518	0.4941
7.82497	0.4397
7.86475	0.504
7.90454	0.6272
7.94432	0.5758
7.98411	0.4597
8.0239	0.3159
8.06368	0.4334
8.10347	0.4643
8.14325	0.4473
8.18304	0.4613
8.22283	0.4764
8.26261	0.4953
8.3024	0.5142
8.34218	0.532
8.38197	0.509
8.42176	0.5332
8.46154	0.6808
8.50133	0.7264
8.54111	0.738
8.5809	0.7275
8.62069	0.6829
8.66047	0.7051
8.70026	0.722
8.74004	0.7062
8.77983	0.6093
8.81961	0.6296
8.8594	0.5402
8.89919	0.5334
8.93897	0.6522
8.97876	0.6516
9.01854	0.5732
9.05833	0.5648
9.09812	0.6804
9.1379	0.72
9.17769	0.7422
9.21747	0.758
9.25726	0.7621
9.29705	0.7671
9.33683	0.7533
9.37662	0.7539
9.4164	0.773
9.45619	0.7528
9.49598	0.7008
9.53576	0.7151
9.57555	0.7509
9.61533	0.629
9.65512	0.584
9.69491	0.6501
9.73469	0.7483
9.77448	0.778
9.81426	0.782
9.85405	0.783
9.89384	0.788
9.93362	0.7929
9.97341	0.795
10.0132	0.7904
10.053	0.795
10.0928	0.795
10.1326	0.7992
10.1723	0.801
10.2121	0.805
10.2519	0.8022
10.2917	0.7963
10.3315	0.795
10.3713	0.8
10.4111	0.8047
10.4508	0.805
10.4906	0.811
10.5304	0.8051
10.5702	0.797
10.61	0.785
10.6498	0.7854
10.6896	0.7735
10.7293	0.7536
10.7691	0.7526
10.8089	0.7771
10.8487	0.798
10.8885	0.8081
10.9283	0.811
10.9681	0.81
11.0078	0.803
11.0476	0.801
11.0874	0.797
11.1272	0.8
11.167	0.795
11.2068	0.7954
11.2466	0.7856
11.2863	0.7773
11.3261	0.7632
11.3659	0.7353
11.4057	0.7141
11.4455	0.7174
11.4853	0.7297
11.5251	0.7494
11.5648	0.7734
11.6046	0.7883
11.6444	0.8
11.6842	0.797
11.724	0.797
11.7638	0.798
11.8036	0.8097
11.8433	0.813
11.8831	0.813
11.9229	0.813
11.9627	0.811
12.0025	0.81
12.0423	0.817
12.0821	0.8188
12.1219	0.8237
12.1616	0.823
12.2014	0.8235
12.2412	0.825
12.281	0.831
12.3208	0.8411
12.3606	0.843
12.4004	0.8459
12.4401	0.8547
12.4799	0.8596
12.5197	0.866
12.5595	0.8757
12.5993	0.876
12.6391	0.888
12.6789	0.8935
12.7186	0.8971
12.7584	0.896
12.7982	0.8963
12.838	0.9082
12.8778	0.915
12.9176	0.916
12.9574	0.92
12.9971	0.92
13.0369	0.921
13.0767	0.925
13.1165	0.9243
13.1563	0.925
13.1961	0.9255
13.2359	0.922
13.2756	0.918
13.3154	0.9123
13.3552	0.9103
13.395	0.9165
13.4348	0.921
13.4746	0.925
13.5144	0.925
13.5541	0.925
13.5939	0.925
13.6337	0.925
13.6735	0.925
13.7133	0.921
13.7531	0.9194
13.7929	0.9188
13.8326	0.9182
13.8724	0.914
13.9122	0.9071
13.952	0.901
13.9918	0.8921
14.0316	0.879
14.0714	0.868
14.1111	0.861
14.1509	0.861
14.1907	0.858
14.2305	0.848
14.2703	0.8351
14.3101	0.82
14.3499	0.8152
14.3897	0.811
14.4294	0.8167
14.4692	0.8227
14.509	0.8317
14.5488	0.8425
14.5886	0.858
14.6284	0.8613
14.6682	0.8651
14.7079	0.868
14.7477	0.868
14.7875	0.865
14.8273	0.866
14.8671	0.8726
14.9069	0.8795
14.9467	0.8924
14.9864	0.9022
15.0262	0.8989
15.066	0.8795
15.1058	0.8641
15.1456	0.8493
15.1854	0.851
15.2252	0.8515
15.2649	0.86
15.3047	0.861
15.3445	0.8611
15.3843	0.863
