Infrared Spectrum: 2-PROPANONE, 1-BROMO-1,1,3-TRICHLORO-
Formula: C3 H2 Br Cl3 O
CAS: 16995-36-1
State: LIQUID (NEAT)
Class: COBLENTZ III
Instrument: BAIRD (GRATING)
Instrument parameters: NaCl PRISM
Sampling: TRANSMISSION
Path length: 0.0028 CM
Resolution: 2
Origin: WYANDOTTE CHEMICALS CORP.
1/CM	TRANSMITTANCE
4000	0.9437
3991	0.9436
3982	0.9431
3973	0.9427
3964	0.9427
3955	0.9428
3946	0.9428
3937	0.9431
3928	0.9435
3919	0.9437
3910	0.9438
3901	0.9436
3892	0.9427
3883	0.9418
3874	0.9411
3865	0.9404
3856	0.94
3847	0.9402
3838	0.9416
3829	0.9431
3820	0.9442
3811	0.945
3802	0.9449
3793	0.9441
3784	0.9431
3775	0.9424
3766	0.9421
3757	0.9421
3748	0.9428
3739	0.9432
3730	0.9434
3721	0.9434
3712	0.9432
3703	0.9428
3694	0.9423
3685	0.9417
3676	0.9406
3667	0.9388
3658	0.9362
3649	0.9313
3640	0.9249
3631	0.9193
3622	0.9137
3613	0.9071
3604	0.9002
3595	0.8936
3586	0.8865
3577	0.8734
3568	0.8634
3559	0.8537
3550	0.8508
3541	0.8499
3532	0.8509
3523	0.8555
3514	0.8663
3505	0.878
3496	0.8873
3487	0.8958
3478	0.9046
3469	0.9103
3460	0.9132
3451	0.9155
3442	0.9167
3433	0.9178
3424	0.9187
3415	0.9198
3406	0.9203
3397	0.9207
3388	0.9211
3379	0.9215
3370	0.9218
3361	0.9218
3352	0.922
3343	0.922
3334	0.9216
3325	0.9211
3316	0.9207
3307	0.9199
3298	0.9188
3289	0.9178
3280	0.9168
3271	0.916
3262	0.9151
3253	0.9142
3244	0.9135
3235	0.9127
3226	0.9121
3217	0.9113
3208	0.911
3199	0.9107
3190	0.9102
3181	0.9097
3172	0.909
3163	0.9084
3154	0.9075
3145	0.9067
3136	0.9058
3127	0.9039
3118	0.9017
3109	0.899
3100	0.8954
3091	0.8893
3082	0.88
3073	0.8601
3064	0.8392
3055	0.7985
3046	0.7275
3037	0.6568
3028	0.6347
3019	0.6501
3010	0.6771
3001	0.6638
2992	0.6158
2983	0.5677
2974	0.5406
2965	0.5887
2956	0.6933
2947	0.7985
2938	0.8794
2929	0.8888
2920	0.8963
2911	0.9013
2902	0.9041
2893	0.9055
2884	0.904
2875	0.8989
2866	0.8938
2857	0.8912
2848	0.891
2839	0.8958
2830	0.9078
2821	0.9135
2812	0.9125
2803	0.9112
2794	0.9106
2785	0.9103
2776	0.9114
2767	0.9159
2758	0.9207
2749	0.9233
2740	0.923
2731	0.9212
2722	0.9194
2713	0.9186
2704	0.9193
2695	0.9204
2686	0.9227
2677	0.9253
2668	0.928
2659	0.9298
2650	0.9278
2641	0.9259
2632	0.9241
2623	0.9228
2614	0.9215
2605	0.921
2596	0.9205
2587	0.9206
2578	0.9217
2569	0.923
2560	0.9244
2551	0.9262
2542	0.928
2533	0.9293
2524	0.9305
2515	0.9316
2506	0.9324
2497	0.9328
2488	0.9307
2479	0.926
2470	0.921
2461	0.9166
2452	0.9142
2443	0.9154
2434	0.9173
2425	0.9193
2416	0.9215
2407	0.9238
2398	0.9271
2389	0.931
2380	0.932
2371	0.9301
2362	0.9277
2353	0.9277
2344	0.9291
2335	0.9309
2326	0.933
2317	0.9356
2308	0.9368
2299	0.9318
2290	0.9263
2281	0.924
2272	0.9265
2263	0.9298
2254	0.9333
2245	0.9367
2236	0.9402
2227	0.9437
2218	0.9466
2209	0.9481
2200	0.9495
2191	0.9497
2182	0.9497
2173	0.9493
2164	0.9482
2155	0.9465
2146	0.9445
2137	0.9425
2128	0.9421
2119	0.9423
2110	0.9432
2101	0.9438
2092	0.9444
2083	0.9444
2074	0.9445
2065	0.9445
2056	0.9446
2047	0.9455
2038	0.9464
2029	0.9448
2020	0.942
2011	0.9441
2002	0.9458
1993	0.946
1984	0.945
1975	0.9435
1966	0.9432
1957	0.9459
1948	0.9471
1939	0.938
1930	0.9396
1921	0.9378
1912	0.9342
1903	0.9335
1894	0.9361
1885	0.9386
1876	0.9355
1867	0.9271
1858	0.9158
1849	0.9046
1840	0.8941
1831	0.8818
1822	0.864
1813	0.8406
1804	0.7968
1795	0.6508
1786	0.3709
1777	0.0863
1768	0.0307
1759	0.1356
1750	0.2818
1741	0.4497
1732	0.6193
1723	0.7239
1714	0.8014
1705	0.8491
1696	0.8768
1687	0.8804
1678	0.8862
1669	0.8867
1660	0.8716
1651	0.8725
1642	0.8765
1633	0.8827
1624	0.8899
1615	0.8983
1606	0.9063
1597	0.9112
1588	0.9107
1579	0.9043
1570	0.8991
1561	0.8953
1552	0.8841
1543	0.8795
1534	0.8847
1525	0.8915
1516	0.895
1507	0.8958
1498	0.8949
1489	0.8907
1480	0.8791
1471	0.8691
1462	0.8575
1453	0.8235
1444	0.7868
1435	0.7187
1426	0.6682
1417	0.5035
1408	0.2895
1399	0.4077
1390	0.7174
1381	0.8008
1372	0.8362
1363	0.8457
1354	0.8509
1345	0.852
1336	0.8491
1327	0.8314
1318	0.773
1309	0.6625
1300	0.5647
1291	0.611
1282	0.7175
1273	0.7528
1264	0.7667
1255	0.7745
1246	0.7806
1237	0.7686
1228	0.735
1219	0.7105
1210	0.6971
1201	0.7075
1192	0.7039
1183	0.6006
1174	0.6292
1165	0.7797
1156	0.7893
1147	0.809
1138	0.8297
1129	0.7799
1120	0.709
1111	0.576
1102	0.4365
1093	0.2423
1084	0.1285
1075	0.1654
1066	0.3518
1057	0.6144
1048	0.6547
1039	0.7221
1030	0.795
1021	0.8345
1012	0.853
1003	0.8671
994	0.8663
985	0.866
976	0.8643
967	0.8655
958	0.8659
949	0.8363
940	0.8209
931	0.7619
922	0.6351
913	0.6424
904	0.7151
895	0.7158
886	0.6269
877	0.4108
868	0.3527
859	0.2654
850	0.0757
841	0.0741
832	0.1217
823	0.1394
814	0.291
805	0.3622
796	0.376
787	0.3471
778	0.2304
769	0.151
760	0.274
751	0.2541
742	0.2322
733	0.3098
724	0.3482
715	0.2366
706	0.1391
697	0.1787
688	0.3007
679	0.3489
670	0.3044
661	0.2693
652	0.2776
643	0.3707
634	0.4014
