Infrared Spectrum: 1,1,1,3-TETRACHLORO-2-PROPANONE
Formula: C3 H2 Cl4 O
CAS: 16995-35-0
State: LIQUID (NEAT)
Class: COBLENTZ III
Instrument: BAIRD (GRATING)
Instrument parameters: NaCl PRISM
Path length: 0.003 CM
Resolution: 2
Origin: WYANDOTTE CHEMICALS CORP.
1/CM	TRANSMITTANCE
626	0.3271
635	0.3381
644	0.3186
653	0.2541
662	0.2009
671	0.1862
680	0.3562
689	0.4482
698	0.4555
707	0.4608
716	0.466
725	0.3325
734	0.1511
743	0.0574
752	0.0538
761	0.1064
770	0.0997
779	0.1208
788	0.271
797	0.363
806	0.3661
815	0.323
824	0.2496
833	0.137
842	0.089
851	0.0447
860	0.0903
869	0.2891
878	0.2149
887	0.4331
896	0.6222
905	0.6695
914	0.6055
923	0.5401
932	0.6727
941	0.7662
950	0.7955
959	0.8125
968	0.8273
977	0.8325
986	0.8333
995	0.8346
1004	0.8339
1013	0.8272
1022	0.8106
1031	0.7851
1040	0.751
1049	0.7295
1058	0.6812
1067	0.4814
1076	0.2341
1085	0.1126
1094	0.2646
1103	0.453
1112	0.5704
1121	0.7294
1130	0.7823
1139	0.8021
1148	0.8094
1157	0.8037
1166	0.7909
1175	0.6651
1184	0.6217
1193	0.7071
1202	0.7332
1211	0.727
1220	0.7352
1229	0.7711
1238	0.8143
1247	0.8219
1256	0.822
1265	0.8118
1274	0.7884
1283	0.7474
1292	0.6516
1301	0.6213
1310	0.6787
1319	0.7425
1328	0.7906
1337	0.8186
1346	0.8249
1355	0.8243
1364	0.8098
1373	0.7894
1382	0.7705
1391	0.6731
1400	0.4346
1409	0.2565
1418	0.5365
1427	0.6591
1436	0.6773
1445	0.7417
1454	0.7767
1463	0.7897
1472	0.8187
1481	0.8233
1490	0.8521
1499	0.8637
1508	0.8665
1517	0.8707
1526	0.8634
1535	0.8504
1544	0.8417
1553	0.8572
1562	0.8652
1571	0.8726
1580	0.8836
1589	0.8873
1598	0.8798
1607	0.867
1616	0.8635
1625	0.8697
1634	0.8575
1643	0.8398
1652	0.8283
1661	0.818
1670	0.8116
1679	0.8164
1688	0.827
1697	0.8333
1706	0.8163
1715	0.7631
1724	0.7409
1733	0.6781
1742	0.4979
1751	0.3453
1760	0.3103
1769	0.1405
1778	0.027
1787	0.3154
1796	0.638
1805	0.835
1814	0.8631
1823	0.8707
1832	0.8757
1841	0.8871
1850	0.9021
1859	0.9234
1868	0.9366
1877	0.9394
1886	0.9394
1895	0.9382
1904	0.9361
1913	0.932
1922	0.9336
1931	0.9403
1940	0.9465
1949	0.9553
1958	0.96
1967	0.9602
1976	0.9596
1985	0.9583
1994	0.9564
2003	0.9544
2012	0.9522
2021	0.9498
2030	0.9474
2039	0.9451
2048	0.9435
2057	0.9424
2066	0.9428
2075	0.9423
2084	0.9416
2093	0.9408
2102	0.9393
2111	0.9361
2120	0.9348
2129	0.934
2138	0.9349
2147	0.936
2156	0.938
2165	0.9395
2174	0.9392
2183	0.9387
2192	0.9381
2201	0.9372
2210	0.9357
2219	0.9334
2228	0.9298
2237	0.9238
2246	0.9184
2255	0.9169
2264	0.9165
2273	0.9126
2282	0.9065
2291	0.9019
2300	0.8999
2309	0.8987
2318	0.8984
2327	0.8981
2336	0.8985
2345	0.8989
2354	0.8992
2363	0.8994
2372	0.9003
2381	0.9
2390	0.8991
2399	0.8974
2408	0.8953
2417	0.892
2426	0.8892
2435	0.8867
2444	0.8864
2453	0.8865
2462	0.8876
2471	0.8899
2480	0.8931
2489	0.8942
2498	0.894
2507	0.8929
2516	0.8917
2525	0.8908
2534	0.8897
2543	0.8883
2552	0.8868
2561	0.885
2570	0.8829
2579	0.8816
2588	0.8809
2597	0.8805
2606	0.8801
2615	0.8794
2624	0.8785
2633	0.8776
2642	0.8766
2651	0.8757
2660	0.8747
2669	0.8738
2678	0.8733
2687	0.873
2696	0.8728
2705	0.8725
2714	0.8723
2723	0.872
2732	0.8718
2741	0.8716
2750	0.8711
2759	0.8704
2768	0.8698
2777	0.8691
2786	0.8685
2795	0.8678
2804	0.8659
2813	0.8618
2822	0.8521
2831	0.8419
2840	0.8323
2849	0.8271
2858	0.8272
2867	0.8288
2876	0.8307
2885	0.8316
2894	0.8289
2903	0.8147
2912	0.7915
2921	0.7665
2930	0.744
2939	0.7091
2948	0.6165
2957	0.5244
2966	0.472
2975	0.5199
2984	0.6025
2993	0.6735
3002	0.6808
3011	0.6527
3020	0.6481
3029	0.7028
3038	0.7734
3047	0.7946
3056	0.8189
3065	0.8337
3074	0.8488
3083	0.8573
3092	0.8609
3101	0.8625
3110	0.8633
3119	0.8641
3128	0.8652
3137	0.8663
3146	0.8674
3155	0.8685
3164	0.8697
3173	0.8709
3182	0.8722
3191	0.8738
3200	0.8755
3209	0.8771
3218	0.8788
3227	0.8807
3236	0.8826
3245	0.8846
3254	0.8865
3263	0.8885
3272	0.8905
3281	0.8924
3290	0.8943
3299	0.8972
3308	0.9003
3317	0.9034
3326	0.906
3335	0.9085
3344	0.911
3353	0.9133
3362	0.9154
3371	0.9164
3380	0.917
3389	0.9175
3398	0.918
3407	0.9179
3416	0.9177
3425	0.9174
3434	0.9164
3443	0.9153
3452	0.9133
3461	0.9104
3470	0.9074
3479	0.9029
3488	0.8981
3497	0.8911
3506	0.8836
3515	0.879
3524	0.8782
3533	0.8799
3542	0.8849
3551	0.8939
3560	0.9005
3569	0.9067
3578	0.9132
3587	0.9196
3596	0.9251
3605	0.9305
3614	0.9358
3623	0.9417
3632	0.9487
3641	0.9524
3650	0.9536
3659	0.9544
3668	0.955
3677	0.9556
3686	0.9561
3695	0.9565
3704	0.957
3713	0.9573
3722	0.9571
3731	0.9569
3740	0.9566
3749	0.9563
3758	0.9561
3767	0.9557
3776	0.9549
3785	0.9541
3794	0.9531
3803	0.9512
3812	0.9492
3821	0.9459
3830	0.9422
3839	0.9396
3848	0.938
3857	0.9364
3866	0.9361
3875	0.936
3884	0.936
3893	0.936
3902	0.9361
3911	0.9362
3920	0.9364
3929	0.9364
3938	0.9366
3947	0.9367
3956	0.9369
3965	0.9371
3974	0.9372
3983	0.9374
3992	0.9376
