Infrared Spectrum: 2-Methyl-2-octene
Formula: C 9 H 18
CAS: 16993-86-5
State: gas
Instrument: HP-GC/MS/IRD
Origin: NIST Mass Spectrometry Data Center
1/CM	ABSORBANCE
550	0.000345
562	3.3e-05
574	0
586	3.3e-05
598	1.8e-05
610	6.3e-05
622	0.000198
634	0.000231
646	0.000174
658	9.6e-05
670	0.000117
682	0.000261
694	0.000237
706	0.000495
718	0.000597
730	0.000693
742	0.000567
754	0.000573
766	0.000612
778	0.000612
790	0.000669
802	0.000744
814	0.000936
826	0.001263
838	0.00129
850	0.001032
862	0.000729
874	0.000549
886	0.00051
898	0.000498
910	0.000462
922	0.000369
934	0.000369
946	0.000435
958	0.000579
970	0.000633
982	0.000684
994	0.000594
1006	0.000501
1018	0.000426
1030	0.000432
1042	0.000414
1054	0.000477
1066	0.000537
1078	0.000744
1090	0.000894
1102	0.000963
1114	0.001149
1126	0.000963
1138	0.00051
1150	0.000369
1162	0.000375
1174	0.000417
1186	0.000447
1198	0.00051
1210	0.000564
1222	0.000654
1234	0.000546
1246	0.000519
1258	0.00048
1270	0.000516
1282	0.000627
1294	0.000669
1306	0.000708
1318	0.00087
1330	0.000969
1342	0.001167
1354	0.001314
1366	0.001752
1378	0.002619
1390	0.002436
1402	0.00147
1414	0.001239
1426	0.001575
1438	0.002439
1450	0.003285
1462	0.003411
1474	0.002505
1486	0.001446
1498	0.000918
1510	0.000687
1522	0.000585
1534	0.000507
1546	0.000489
1558	0.000438
1570	0.000411
1582	0.000381
1594	0.000351
1606	0.000348
1618	0.000333
1630	0.000315
1642	0.000348
1654	0.00039
1666	0.000477
1678	0.000399
1690	0.000222
1702	0.000183
1714	0.000147
1726	0.000147
1738	0.000117
1750	9.9e-05
1762	0.000105
1774	9.9e-05
1786	9e-05
1798	7.5e-05
1810	7.5e-05
1822	0.000111
1834	8.7e-05
1846	7.2e-05
1858	7.2e-05
1870	8.1e-05
1882	7.8e-05
1894	6e-05
1906	7.5e-05
1918	6.6e-05
1930	7.8e-05
1942	6e-05
1954	6.9e-05
1966	5.7e-05
1978	4.8e-05
1990	3.3e-05
2002	5.1e-05
2014	5.1e-05
2026	6.6e-05
2038	5.1e-05
2050	4.8e-05
2062	5.4e-05
2074	3.3e-05
2086	3e-05
2098	2.4e-05
2110	3.9e-05
2122	6e-05
2134	5.4e-05
2146	5.1e-05
2158	5.4e-05
2170	4.8e-05
2182	5.4e-05
2194	3e-05
2206	3.3e-05
2218	3e-05
2230	3.6e-05
2242	3.3e-05
2254	2.4e-05
2266	0
2278	2.4e-05
2290	4.5e-05
2302	5.4e-05
2314	4.8e-05
2326	7.2e-05
2338	6e-05
2350	6.9e-05
2362	8.4e-05
2374	7.8e-05
2386	7.8e-05
2398	0.000105
2410	0.000111
2422	0.000132
2434	9e-05
2446	0.000111
2458	0.000123
2470	0.000123
2482	0.000102
2494	0.000129
2506	0.000126
2518	0.00012
2530	0.000129
2542	0.000171
2554	0.000177
2566	0.000177
2578	0.000183
2590	0.00021
2602	0.000219
2614	0.000252
2626	0.000264
2638	0.000276
2650	0.000318
2662	0.000369
2674	0.000399
2686	0.000366
2698	0.000378
2710	0.000459
2722	0.000576
2734	0.000801
2746	0.000876
2758	0.000741
2770	0.000789
2782	0.000921
2794	0.001158
2806	0.001518
2818	0.00201
2830	0.002961
2842	0.005001
2854	0.009432
2866	0.013734
2878	0.014088
2890	0.013158
2902	0.014019
2914	0.02001
2926	0.028737
2938	0.028173
2950	0.020853
2962	0.019611
2974	0.017844
2986	0.010881
2998	0.006789
3010	0.004518
3022	0.003432
3034	0.002832
3046	0.002331
3058	0.001893
3070	0.0015
3082	0.001191
3094	0.000981
3106	0.000813
3118	0.000717
3130	0.000561
3142	0.000462
3154	0.00045
3166	0.000381
3178	0.000327
3190	0.0003
3202	0.00021
3214	0.000207
3226	0.000213
3238	0.000153
3250	0.000174
3262	0.000153
3274	0.000165
3286	0.000159
3298	0.000123
3310	9.6e-05
3322	8.4e-05
3334	0.000129
3346	0.000102
3358	0.000114
3370	0.000129
3382	8.4e-05
3394	9.6e-05
3406	8.7e-05
3418	0.000117
3430	6.6e-05
3442	6.6e-05
3454	5.4e-05
3466	0.000102
3478	7.2e-05
3490	5.1e-05
3502	4.2e-05
3514	4.5e-05
3526	5.7e-05
3538	4.8e-05
3550	4.8e-05
3562	2.7e-05
3574	3e-06
3586	3.9e-05
3598	8.4e-05
3610	5.7e-05
3622	3.3e-05
3634	9.6e-05
3646	8.4e-05
3658	3.6e-05
3670	7.2e-05
3682	0.000111
3694	9.3e-05
3706	7.2e-05
3718	8.1e-05
3730	7.8e-05
3742	0.000102
3754	0.00012
3766	8.4e-05
3778	6.9e-05
3790	0.000168
3802	0.000123
3814	0.000135
3826	9.3e-05
3838	8.4e-05
