Infrared Spectrum: 3-Benzyloxybenzaldehyde
Formula: C 14 H 12 O 2
CAS: 1700-37-4
State: gas
Instrument: HP-GC/MS/IRD
Origin: NIST Mass Spectrometry Data Center
1/CM	ABSORBANCE
550	0.0009324
562	0.000222
574	0.0009102
586	0.0014652
598	0.0023088
610	0.0047952
622	0.0089466
634	0.011544
646	0.0136974
658	0.0101676
670	0.0167166
682	0.0368742
694	0.0420024
706	0.0272172
718	0.0232434
730	0.035298
742	0.0483516
754	0.043956
766	0.0449772
778	0.0502608
790	0.0391386
802	0.0156732
814	0.0071262
826	0.0066156
838	0.009435
850	0.0073704
862	0.0083028
874	0.0110112
886	0.011766
898	0.0137418
910	0.0111888
922	0.010212
934	0.0098124
946	0.006105
958	0.0051282
970	0.0077034
982	0.0155622
994	0.0254412
1006	0.0312132
1018	0.0517926
1030	0.0601176
1042	0.0422022
1054	0.018204
1066	0.0111666
1078	0.01221
1090	0.007326
1102	0.0055056
1114	0.006882
1126	0.0169608
1138	0.0458208
1150	0.0388278
1162	0.029193
1174	0.0200466
1186	0.0141636
1198	0.0176934
1210	0.030969
1222	0.0530358
1234	0.110711
1246	0.159707
1258	0.18093
1270	0.105694
1282	0.0763902
1294	0.0544122
1306	0.0461538
1318	0.0390942
1330	0.025752
1342	0.0229326
1354	0.0151404
1366	0.023643
1378	0.0443112
1390	0.0318126
1402	0.0140748
1414	0.0100344
1426	0.017538
1438	0.045066
1450	0.065601
1462	0.038961
1474	0.0431346
1486	0.0606504
1498	0.0291708
1510	0.0110334
1522	0.0077922
1534	0.007104
1546	0.0075036
1558	0.0126984
1570	0.030858
1582	0.0742812
1594	0.0866244
1606	0.0483516
1618	0.0164502
1630	0.0079032
1642	0.0056166
1654	0.005883
1666	0.0085248
1678	0.0136086
1690	0.0206238
1702	0.0454656
1714	0.147386
1726	0.195338
1738	0.0396048
1750	0.0116328
1762	0.0060606
1774	0.0048396
1786	0.0046398
1798	0.005217
1810	0.0040182
1822	0.0033522
1834	0.002886
1846	0.002775
1858	0.003441
1870	0.0034632
1882	0.003108
1894	0.0020202
1906	0.0016872
1918	0.0022644
1930	0.0035076
1942	0.0038628
1954	0.0033744
1966	0.0023532
1978	0.001554
1990	0.0014652
2002	0.001332
2014	0.0014652
2026	0.0015762
2038	0.0015762
2050	0.0014652
2062	0.0013764
2074	0.0011544
2086	0.0008214
2098	0.0004884
2110	0.0002886
2122	0.0001554
2134	0.0001776
2146	0.000222
2158	0.0002664
2170	0.0002886
2182	0.0003108
2194	0.0003108
2206	0.000333
2218	0.0003552
2230	0.0002442
2242	0.0001998
2254	0.0001554
2266	0.0003108
2278	0.0005772
2290	0.000444
2302	0.0003108
2314	0.0005772
2326	0.0004662
2338	0.0003552
2350	0.0002664
2362	0.0001554
2374	0.0001776
2386	0.0002442
2398	0.0002664
2410	0.000333
2422	0.0003996
2434	0.0002886
2446	0.0001554
2458	0.000222
2470	0.0003552
2482	0.0004884
2494	0.0006882
2506	0.0008436
2518	0.0008436
2530	0.0008658
2542	0.000888
2554	0.0009768
2566	0.000999
2578	0.0011988
2590	0.0013542
2602	0.0015318
2614	0.001776
2626	0.0017538
2638	0.0016872
2650	0.0018648
2662	0.0023532
2674	0.002553
2686	0.0036186
2698	0.0086136
2710	0.0258852
2722	0.0409368
2734	0.0169608
2746	0.0073482
2758	0.0060384
2770	0.0080808
2782	0.014874
2794	0.023865
2806	0.0394272
2818	0.0279942
2830	0.0165834
2842	0.0101676
2854	0.0073704
2866	0.008547
2878	0.0122322
2890	0.013431
2902	0.0115218
2914	0.0113664
2926	0.0112998
2938	0.0119436
2950	0.012876
2962	0.0120102
2974	0.0070818
2986	0.0042846
2998	0.003774
3010	0.0062604
3022	0.013209
3034	0.0259962
3046	0.0263736
3058	0.0235098
3070	0.0346098
3082	0.0282384
3094	0.0178044
3106	0.010989
3118	0.0052614
3130	0.0017982
3142	0.0007548
3154	0.0005772
3166	0.0006438
3178	0.0005328
3190	0.0003774
3202	0.0002442
3214	6.66e-05
3226	6.66e-05
3238	4.44e-05
3250	0
3262	4.44e-05
3274	8.88e-05
3286	6.66e-05
3298	0.000111
3310	0.000111
3322	0.0001998
3334	8.88e-05
3346	0.0001332
3358	0.0001554
3370	0.0002664
3382	0.000555
3394	0.000999
3406	0.0018648
3418	0.0029304
3430	0.0027528
3442	0.0012432
3454	0.0006216
3466	0.0002886
3478	0.0002442
3490	0.0001776
3502	0.000222
3514	0.000222
3526	0.0002664
3538	0.0001776
3550	0.0002664
3562	0.0001776
3574	0.000222
3586	0.0002442
3598	0.0002664
3610	0.0002886
3622	0.0002442
3634	0.0003774
3646	0.0003552
3658	0.0004662
3670	0.000444
3682	0.000444
3694	0.0004884
3706	0.000555
3718	0.0004884
3730	0.0004662
3742	0.0003996
3754	0.0004218
3766	0.0004662
3778	0.0004218
3790	0.0004218
3802	0.0005106
3814	0.0004884
3826	0.0005328
3838	0.0005328
