Infrared Spectrum: 4-Benzyloxy-3-methoxyphenylacetonitrile
Formula: C 16 H 15 N O 2
CAS: 1700-29-4
State: gas
Origin: EPA-IR VAPOR PHASE LIBRARY
1/CM	ABSORBANCE
551.7	0.00281
563.274	0.00323
574.848	0.00346
586.421	0.00384
597.995	0.00421
609.569	0.00432
621.143	0.00414
632.717	0.0039
644.291	0.00342
655.864	0.00314
667.438	0.00428
679.012	0.00748
690.586	0.01381
702.16	0.01441
713.734	0.01253
725.307	0.01691
736.881	0.01686
748.455	0.0124
760.029	0.00951
771.603	0.00785
783.177	0.00757
794.75	0.0105
806.324	0.01147
817.898	0.00935
829.472	0.0074
841.046	0.00778
852.619	0.00702
864.193	0.0053
875.767	0.00471
887.341	0.0051
898.915	0.0065
910.489	0.00741
922.062	0.00671
933.636	0.00634
945.21	0.00645
956.784	0.00769
968.358	0.01111
979.932	0.01716
991.505	0.0212
1003.08	0.02515
1014.65	0.03007
1026.23	0.03549
1037.8	0.02828
1049.37	0.01393
1060.95	0.00699
1072.52	0.00583
1084.1	0.00532
1095.67	0.00556
1107.24	0.00843
1118.82	0.0202
1130.39	0.03201
1141.97	0.02767
1153.54	0.0256
1165.11	0.01547
1176.69	0.01223
1188.26	0.01542
1199.83	0.02519
1211.41	0.04507
1222.98	0.05212
1234.56	0.04394
1246.13	0.04
1257.7	0.05275
1269.28	0.07273
1280.85	0.0641
1292.42	0.04182
1304	0.02699
1315.57	0.02038
1327.15	0.01445
1338.72	0.01012
1350.29	0.00759
1361.87	0.00832
1373.44	0.01193
1385.02	0.00953
1396.59	0.00774
1408.16	0.01421
1419.74	0.02295
1431.31	0.02026
1442.88	0.01376
1454.46	0.01934
1466.03	0.02248
1477.61	0.01798
1489.18	0.02594
1500.75	0.06833
1512.33	0.08482
1523.9	0.03142
1535.48	0.01242
1547.05	0.00757
1558.62	0.00674
1570.2	0.00812
1581.77	0.01168
1593.34	0.01274
1604.92	0.01246
1616.49	0.00844
1628.07	0.00432
1639.64	0.0031
1651.21	0.00268
1662.79	0.00243
1674.36	0.00235
1685.93	0.00228
1697.51	0.00222
1709.08	0.00221
1720.66	0.00227
1732.23	0.00238
1743.8	0.00237
1755.38	0.00217
1766.95	0.00208
1778.53	0.00219
1790.1	0.00247
1801.67	0.0027
1813.25	0.00207
1824.82	0.0019
1836.39	0.00196
1847.97	0.00222
1859.54	0.00254
1871.12	0.00266
1882.69	0.00248
1894.26	0.002
1905.84	0.00173
1917.41	0.00179
1928.99	0.00205
1940.56	0.00243
1952.13	0.00261
1963.71	0.00238
1975.28	0.00204
1986.85	0.00205
1998.43	0.00201
2010	0.002
2021.58	0.00198
2033.15	0.00193
2044.72	0.00194
2056.3	0.0019
2067.87	0.00176
2079.44	0.00154
2091.02	0.00131
2102.59	0.00116
2114.17	0.00106
2125.74	0.00103
2137.31	0.00103
2148.89	0.00101
2160.46	0.00101
2172.04	0.00107
2183.61	0.00106
2195.18	0.00106
2206.76	0.00103
2218.33	0.00106
2229.9	0.00119
2241.48	0.00147
2253.05	0.00187
2264.63	0.00161
2276.2	0.00125
2287.77	0.00117
2299.35	0.00111
2310.92	0.0012
2322.5	0.0011
2334.07	0.00112
2345.64	0.00108
2357.22	0.00106
2368.79	0.00103
2380.36	0.0009788
2391.94	0.0009966
2403.51	0.00101
2415.09	0.00104
2426.66	0.00103
2438.23	0.00101
2449.81	0.00101
2461.38	0.00105
2472.96	0.00109
2484.53	0.00113
2496.1	0.00113
2507.68	0.00116
2519.25	0.00125
2530.82	0.00135
2542.4	0.00146
2553.97	0.0015
2565.55	0.00154
2577.12	0.00152
2588.69	0.00144
2600.27	0.00139
2611.84	0.00129
2623.41	0.00105
2634.99	0.0009811
2646.56	0.0009465
2658.14	0.0008824
2669.71	0.0008406
2681.28	0.0008866
2692.86	0.000963
2704.43	0.00106
2716.01	0.00117
2727.58	0.00128
2739.15	0.00125
2750.73	0.00117
2762.3	0.00115
2773.87	0.00124
2785.45	0.0014
2797.02	0.00175
2808.6	0.00232
2820.17	0.00354
2831.74	0.0059
2843.32	0.00822
2854.89	0.00755
2866.47	0.00784
2878.04	0.00962
2889.61	0.00991
2901.19	0.0092
2912.76	0.01054
2924.33	0.01368
2935.91	0.01712
2947.48	0.01924
2959.06	0.01604
2970.63	0.01235
2982.2	0.00867
2993.78	0.00812
3005.35	0.01078
3016.92	0.01084
3028.5	0.01249
3040.07	0.0159
3051.65	0.01259
3063.22	0.01328
3074.79	0.0153
3086.37	0.00898
3097.94	0.00647
3109.52	0.00445
3121.09	0.00282
3132.66	0.00167
3144.24	0.0012
3155.81	0.00111
3167.38	0.00113
3178.96	0.0009831
3190.53	0.0009897
3202.11	0.000937
3213.68	0.0007845
3225.25	0.0006803
3236.83	0.0005916
3248.4	0.0005686
3259.98	0.0005452
3271.55	0.0005359
3283.12	0.0004783
3294.7	0.0005893
3306.27	0.0005388
3317.84	0.0005434
3329.42	0.0005191
3340.99	0.0004681
3352.57	0.0005029
3364.14	0.0005224
3375.71	0.0005086
3387.29	0.0005236
3398.86	0.0005221
3410.43	0.0004927
3422.01	0.0004723
3433.58	0.0004805
3445.16	0.0005353
3456.73	0.0004996
3468.3	0.0005719
3479.88	0.0005692
3491.45	0.0005833
3503.03	0.0005137
3514.6	0.0005831
3526.17	0.0004819
3537.75	0.0004956
3549.32	0.0004942
3560.89	0.0005577
3572.47	0.0005921
3584.04	0.0005632
3595.62	0.0005013
3607.19	0.0005198
3618.76	0.0006069
3630.34	0.0005975
3641.91	0.0006311
3653.49	0.0006377
3665.06	0.0006298
3676.63	0.0006967
3688.21	0.0006938
3699.78	0.0006237
3711.35	0.0006015
3722.93	0.0005972
3734.5	0.0005699
3746.08	0.000563
3757.65	0.0005507
3769.22	0.0006298
3780.8	0.0005994
3792.37	0.0005659
3803.94	0.0005678
3815.52	0.0006323
3827.09	0.0006393
3838.67	0.0007113
3850.24	0.0006432
3861.81	0.0007927
3873.39	0.0007463
3884.96	0.0008316
3896.54	0.0007636
3908.11	0.000672
3919.68	0.0007634
3931.26	0.0006327
3942.83	0.0007402
3954.4	0.0007555
3965.98	0.0007411
3977.55	0.0007933
3989.13	0.0006817
4000.7	0.0006746
