Infrared Spectrum: 2,3a-ETHANOINDAN, 3a,4,5,6-TETRAHYDRO-1,1,4,4-TETRAMETHYL-
Formula: C15 H24
CAS: 17015-38-2
State: LIQUID (NEAT)
Class: COBLENTZ III
Instrument: UNICAM SP-200
Sampling: TRANSMISSION
Path length: CAPILLARY
Resolution: 4
Origin: BUSH BOAKE ALLEN LTD. VIA SCIENTIFIC DOC. CENTRE LTD.
1/CM	TRANSMITTANCE
635.753	0.684
646.857	0.598
657.962	0.703
669.066	0.745
680.17	0.777
691.275	0.8
702.379	0.533
713.483	0.8019
724.588	0.841
735.692	0.788
746.796	0.854
757.901	0.867
769.005	0.5992
780.109	0.846
791.214	0.87
802.318	0.797
813.422	0.5541
824.527	0.5607
835.631	0.811
846.735	0.433
857.84	0.858
868.944	0.882
880.048	0.87
891.153	0.825
902.257	0.864
913.361	0.802
924.466	0.842
935.57	0.6017
946.674	0.3511
957.779	0.813
968.883	0.782
979.987	0.837
991.092	0.7991
1002.2	0.811
1013.3	0.5769
1024.4	0.785
1035.51	0.842
1046.61	0.7402
1057.72	0.701
1068.82	0.806
1079.93	0.646
1091.03	0.791
1102.13	0.825
1113.24	0.712
1124.34	0.679
1135.45	0.804
1146.55	0.7461
1157.66	0.6768
1168.76	0.667
1179.87	0.716
1190.97	0.61
1202.07	0.783
1213.18	0.757
1224.28	0.6259
1235.39	0.731
1246.49	0.826
1257.6	0.82
1268.7	0.6611
1279.8	0.686
1290.91	0.7368
1302.01	0.769
1313.12	0.758
1324.22	0.772
1335.33	0.6031
1346.43	0.5348
1357.53	0.512
1368.64	0.2228
1379.74	0.3931
1390.85	0.5478
1401.95	0.729
1413.06	0.754
1424.16	0.688
1435.26	0.4111
1446.37	0.245
1457.47	0.101
1468.58	0.096
1479.68	0.173
1490.79	0.5368
1501.89	0.78
1513	0.839
1524.1	0.869
1535.2	0.883
1546.31	0.893
1557.41	0.896
1568.52	0.896
1579.62	0.895
1590.73	0.886
1601.83	0.891
1612.93	0.882
1624.04	0.869
1635.14	0.865
1646.25	0.836
1657.35	0.82
1668.46	0.842
1679.56	0.756
1690.66	0.852
1701.77	0.875
1712.87	0.882
1723.98	0.881
1735.08	0.885
1746.19	0.89
1757.29	0.891
1768.39	0.891
1779.5	0.893
1790.6	0.896
1801.71	0.896
1812.81	0.895
1823.92	0.896
1835.02	0.893
1846.12	0.9
1857.23	0.894
1868.33	0.894
1879.44	0.893
1890.54	0.896
1901.65	0.896
1912.75	0.897
1923.86	0.899
1934.96	0.899
1946.06	0.893
1957.17	0.89
1968.27	0.894
1979.38	0.896
1990.48	0.896
2001.59	0.893
2012.69	0.894
2023.79	0.8965
2034.9	0.896
2046	0.8955
2057.11	0.893
2068.21	0.896
2079.32	0.893
2090.42	0.894
2101.52	0.896
2112.63	0.8945
2123.73	0.891
2134.84	0.889
2145.94	0.885
2157.05	0.883
2168.15	0.884
2179.25	0.884
2190.36	0.8829
2201.46	0.882
2212.57	0.8809
2223.67	0.8796
2234.78	0.881
2245.88	0.882
2256.99	0.8819
2268.09	0.8794
2279.19	0.877
2290.3	0.877
2301.4	0.877
2312.51	0.878
2323.61	0.8801
2334.72	0.8826
2345.82	0.8851
2356.92	0.8882
2368.03	0.8912
2379.13	0.8956
2390.24	0.8916
2401.34	0.8789
2412.45	0.872
2423.55	0.8726
2434.65	0.8751
2445.76	0.875
2456.86	0.877
2467.97	0.877
2479.07	0.8759
2490.18	0.8766
2501.28	0.876
2512.38	0.875
2523.49	0.872
2534.59	0.87
2545.7	0.87
2556.8	0.87
2567.91	0.869
2579.01	0.869
2590.11	0.869
2601.22	0.8683
2612.32	0.8658
2623.43	0.8603
2634.53	0.8554
2645.64	0.8468
2656.74	0.8248
2667.85	0.8106
2678.95	0.808
2690.05	0.8117
2701.16	0.818
2712.26	0.8126
2723.37	0.8006
2734.47	0.797
2745.58	0.8014
2756.68	0.808
2767.78	0.8
2778.89	0.798
2789.99	0.7948
2801.1	0.7798
2812.2	0.7441
2823.31	0.6955
2834.41	0.6131
2845.51	0.4566
2856.62	0.2692
2867.72	0.1461
2878.83	0.0951
2889.93	0.0735
2901.04	0.0639
2912.14	0.0509
2923.24	0.0434
2934.35	0.0392
2945.45	0.0344
2956.56	0.0302
2967.66	0.028
2978.77	0.0272
2989.87	0.0257
3000.98	0.025
3012.08	0.0253
3023.18	0.0686
3034.29	0.279
3045.39	0.4267
3056.5	0.5095
3067.6	0.5607
3078.71	0.681
3089.81	0.752
3100.91	0.7823
3112.02	0.8072
3123.12	0.8203
3134.23	0.823
3145.33	0.825
3156.44	0.826
3167.54	0.827
3178.64	0.827
3189.75	0.8256
3200.85	0.825
3211.96	0.823
3223.06	0.82
3234.17	0.819
3245.27	0.819
3256.37	0.82
3267.48	0.82
3278.58	0.8204
3289.69	0.8248
3300.79	0.8352
3311.9	0.8409
3323	0.8454
3334.1	0.8489
3345.21	0.8518
3356.31	0.8559
3367.42	0.8594
3378.52	0.8648
3389.63	0.8664
3400.73	0.867
3411.84	0.869
3422.94	0.87
3434.04	0.87
3445.15	0.87
3456.25	0.8704
3467.36	0.8729
3478.46	0.8734
3489.57	0.875
3500.67	0.876
3511.77	0.876
3522.88	0.876
3533.98	0.877
3545.09	0.879
3556.19	0.88
3567.3	0.879
3578.4	0.879
3589.5	0.879
3600.61	0.88
3611.71	0.8815
3622.82	0.881
3633.92	0.8785
3645.03	0.876
3656.13	0.8745
3667.23	0.87
3678.34	0.87
3689.44	0.874
3700.55	0.878
3711.65	0.881
3722.76	0.882
3733.86	0.883
3744.97	0.882
3756.07	0.882
3767.17	0.884
3778.28	0.884
3789.38	0.8845
3800.49	0.886
3811.59	0.8844
3822.7	0.884
3833.8	0.8824
3844.9	0.8788
3856.01	0.8714
3867.11	0.8711
3878.22	0.8704
3889.32	0.8681
3900.43	0.87
3911.53	0.8699
3922.63	0.867
3933.74	0.8679
3944.84	0.867
3955.95	0.8669
3967.05	0.8644
3978.16	0.865
3989.26	0.866
4000.36	0.865
4011.47	0.8644
4022.57	0.8651
4033.68	0.865
4044.78	0.867
4055.89	0.868
4066.99	0.868
4078.1	0.867
4089.2	0.869
4100.3	0.8684
4111.41	0.867
4122.51	0.8664
4133.62	0.865
4144.72	0.8637
4155.83	0.8588
4166.93	0.856
4178.03	0.854
4189.14	0.854
4200.24	0.853
4211.35	0.851
4222.45	0.85
4233.56	0.849
4244.66	0.849
4255.76	0.8453
4266.87	0.841
4277.97	0.839
4289.08	0.837
4300.18	0.8363
4311.29	0.837
4322.39	0.838
4333.49	0.838
4344.6	0.838
4355.7	0.839
4366.81	0.839
4377.91	0.838
4389.02	0.8373
4400.12	0.8368
4411.22	0.836
4422.33	0.835
4433.43	0.8323
4444.54	0.8285
4455.64	0.8222
4466.75	0.8152
4477.85	0.811
4488.96	0.8113
4500.06	0.813
4511.16	0.8153
4522.27	0.816
4533.37	0.816
4544.48	0.815
4555.58	0.8163
4566.69	0.8198
4577.79	0.8342
4588.89	0.8479
4600	0.8609
4611.1	0.8716
4622.21	0.8763
4633.31	0.8814
4644.42	0.8863
4655.52	0.889
4666.62	0.8903
4677.73	0.8928
4688.83	0.8953
4699.94	0.896
4711.04	0.8973
4722.15	0.898
4733.25	0.899
4744.35	0.9
4755.46	0.9
4766.56	0.9018
4777.67	0.903
4788.77	0.903
4799.88	0.903
4810.98	0.903
4822.09	0.905
4833.19	0.9033
4844.29	0.9037
4855.4	0.9051
4866.5	0.9054
4877.61	0.907
4888.71	0.907
4899.82	0.906
4910.92	0.908
4922.02	0.908
4933.13	0.9094
4944.23	0.91
4955.34	0.908
4966.44	0.9079
4977.55	0.909
4988.65	0.909
4999.75	0.9076
5010.86	0.908
5021.96	0.909
5033.07	0.909
