Infrared Spectrum: (4S)-(-)-Isopropyl-2-oxalidinone
Formula: C 6 H 11 N O 2
CAS: 17016-83-0
State: gas
Origin: EPA-IR VAPOR PHASE LIBRARY
1/CM	ABSORBANCE
549.8	0.0013703
559.445	0.0012746
569.09	0.001773
578.734	0.0014576
588.379	0.001943
598.024	0.001683
607.669	0.0008679
617.313	0.0012732
626.958	0.0013835
636.603	0.0008262
646.248	0.000789
655.893	0.0009445
665.537	0.0010197
675.182	0.0012879
684.827	0.001933
694.472	0.001358
704.116	0.001643
713.761	0.001873
723.406	0.001683
733.051	0.001843
742.695	0.002143
752.34	0.003663
761.985	0.004263
771.63	0.003463
781.275	0.002943
790.919	0.002283
800.564	0.001623
810.209	0.001603
819.854	0.001653
829.498	0.0011626
839.143	0.0013126
848.788	0.0013414
858.433	0.0011325
868.078	0.0014588
877.722	0.001673
887.367	0.002043
897.012	0.002893
906.657	0.004433
916.301	0.006213
925.946	0.005573
935.591	0.004453
945.236	0.002633
954.88	0.001683
964.525	0.003093
974.17	0.003993
983.815	0.004053
993.46	0.005653
1003.1	0.005783
1012.75	0.005943
1022.39	0.004783
1032.04	0.005223
1041.68	0.007403
1051.33	0.010693
1060.97	0.014153
1070.62	0.015073
1080.26	0.011383
1089.91	0.008103
1099.55	0.004563
1109.2	0.003903
1118.84	0.004423
1128.49	0.002913
1138.13	0.004183
1147.78	0.003633
1157.42	0.003063
1167.07	0.004533
1176.71	0.006053
1186.36	0.007093
1196	0.010893
1205.64	0.018303
1215.29	0.015973
1224.93	0.011353
1234.58	0.005493
1244.22	0.002483
1253.87	0.001833
1263.51	0.001613
1273.16	0.0013638
1282.8	0.002003
1292.45	0.002873
1302.09	0.003053
1311.74	0.003083
1321.38	0.003393
1331.03	0.003433
1340.67	0.003183
1350.32	0.003633
1359.96	0.005233
1369.61	0.006983
1379.25	0.008853
1388.9	0.009983
1398.54	0.008613
1408.18	0.005083
1417.83	0.002713
1427.47	0.001763
1437.12	0.001623
1446.76	0.001813
1456.41	0.002613
1466.05	0.003343
1475.7	0.004323
1485.34	0.003743
1494.99	0.002903
1504.63	0.002013
1514.28	0.001853
1523.92	0.0013656
1533.57	0.0011001
1543.21	0.0010513
1552.86	0.0009105
1562.5	0.0009484
1572.15	0.000795
1581.79	0.0007948
1591.44	0.0007704
1601.08	0.000693
1610.73	0.0006805
1620.37	0.0007058
1630.01	0.000869
1639.66	0.000696
1649.3	0.0006929
1658.95	0.0007601
1668.59	0.0008977
1678.24	0.0009439
1687.88	0.0007278
1697.53	0.0011591
1707.17	0.001133
1716.82	0.0013151
1726.46	0.001783
1736.11	0.002363
1745.75	0.003263
1755.4	0.004713
1765.04	0.006553
1774.69	0.009653
1784.33	0.017513
1793.98	0.037633
1803.62	0.071593
1813.27	0.093503
1822.91	0.082583
1832.55	0.053593
1842.2	0.031613
1851.84	0.016953
1861.49	0.008343
1871.13	0.005123
1880.78	0.003803
1890.42	0.003283
1900.07	0.002833
1909.71	0.002343
1919.36	0.001863
1929	0.001683
1938.65	0.001543
1948.29	0.0013042
1957.94	0.0014199
1967.58	0.0013397
1977.23	0.0013657
1986.87	0.0011383
1996.52	0.0012309
2006.16	0.001014
2015.81	0.0008605
2025.45	0.0008081
2035.1	0.0008527
2044.74	0.0008635
2054.38	0.0007992
2064.03	0.0006796
2073.67	0.0007572
2083.32	0.0009326
2092.96	0.0008041
2102.61	0.0006797
2112.25	0.0007204
2121.9	0.0006476
2131.54	0.0007233
2141.19	0.0006667
2150.83	0.00054666
2160.48	0.0007115
2170.12	0.0007716
2179.77	0.00056759
2189.41	0.0006079
2199.06	0.0006577
2208.7	0.00051532
2218.35	0.0006926
2227.99	0.0004519
2237.64	0.0006869
2247.28	0.0004559
2256.92	0.0008061
2266.57	0.0006925
2276.21	0.0006429
2285.86	0.0007253
2295.5	0.0006643
2305.15	0.0006514
2314.79	0.00051794
2324.44	0.0006142
2334.08	0.0006768
2343.73	0.00055635
2353.37	0.0007799
2363.02	0.0007259
2372.66	0.0006218
2382.31	0.0008732
2391.95	0.0009039
2401.6	0.0008548
2411.24	0.0008537
2420.89	0.0007962
2430.53	0.0007968
2440.18	0.0006172
2449.82	0.0006755
2459.47	0.0006877
2469.11	0.0006451
2478.75	0.00057768
2488.4	0.0007548
2498.04	0.0006051
2507.69	0.0006588
2517.33	0.000486835
2526.98	0.0006382
2536.62	0.0005855
2546.27	0.0006541
2555.91	0.0006334
2565.56	0.0006666
2575.2	0.0006693
2584.85	0.0006938
2594.49	0.0007887
2604.14	0.0007613
2613.78	0.0006614
2623.43	0.000823
2633.07	0.0006302
2642.72	0.0006936
2652.36	0.0007338
2662.01	0.0006755
2671.65	0.0008409
2681.29	0.0006874
2690.94	0.0008119
2700.58	0.00087
2710.23	0.0007613
2719.87	0.0006774
2729.52	0.0009927
2739.16	0.0009437
2748.81	0.001007
2758.45	0.0010508
2768.1	0.0010965
2777.74	0.0010357
2787.39	0.0009427
2797.03	0.0010056
2806.68	0.001093
2816.32	0.0010724
2825.97	0.0010906
2835.61	0.0012886
2845.26	0.001963
2854.9	0.002493
2864.55	0.003433
2874.19	0.005533
2883.84	0.007073
2893.48	0.009333
2903.12	0.010323
2912.77	0.010263
2922.41	0.009443
2932.06	0.008923
2941.7	0.008963
2951.35	0.009913
2960.99	0.013583
2970.64	0.018943
2980.28	0.016903
2989.93	0.009423
2999.57	0.004613
3009.22	0.002623
3018.86	0.001743
3028.51	0.0011917
3038.15	0.0014458
3047.8	0.0009885
3057.44	0.0008758
3067.09	0.0007836
3076.73	0.0010842
3086.38	0.0006451
3096.02	0.0005677
3105.67	0.0008144
3115.31	0.00055581
3124.95	0.0006821
3134.6	0.000784
3144.24	0.0009336
3153.89	0.0006605
3163.53	0.000786
3173.18	0.0007307
3182.82	0.0007417
3192.47	0.0007818
3202.11	0.0006323
3211.76	0.0004168
3221.4	0.0007552
3231.05	0.0009347
3240.69	0.00056866
3250.34	0.000197
3259.98	0.000262
3269.63	0.0003938
3279.27	0.0006193
3288.92	0.0005851
3298.56	0.00049461
3308.21	0.00049416
3317.85	0.0004047
3327.49	0.0006062
3337.14	0.000359
3346.78	0.000758
3356.43	0.000337
3366.07	0.0004127
3375.72	0.00053161
3385.36	0.00058167
3395.01	0.000263
3404.65	0.0004504
3414.3	0.0004468
3423.94	0.000245
3433.59	0.00052179
3443.23	0.0007266
3452.88	0.0009469
3462.52	0.0013223
3472.17	0.002663
3481.81	0.004823
3491.46	0.005533
3501.1	0.004423
3510.75	0.001963
3520.39	0.0011018
3530.04	0.000345
3539.68	0.0008742
3549.32	0.00050909
3558.97	0.0005819
3568.61	0.0008482
3578.26	0.0007826
3587.9	0.0007233
3597.55	0.0008373
3607.19	0.001563
3616.84	0.0011824
3626.48	0.001095
3636.13	0.0011651
3645.77	0.0006694
3655.42	0.00052107
3665.06	0.0006379
3674.71	0.0006053
3684.35	0.000379
3694	0.0005995
3703.64	0.000654
3713.29	0.0006619
3722.93	0.0008151
3732.58	0.0005885
3742.22	0.0007571
3751.86	0.0006298
3761.51	0.0007377
3771.15	0.0005997
3780.8	0.0006554
3790.44	0.000633
3800.09	0.0003986
3809.73	0.0006886
3819.38	0.000484414
3829.02	0.0004326
3838.67	0.0004435
3848.31	0.0006563
3857.96	0.0009669
3867.6	0.000338
3877.25	0.0008028
3886.89	0.000329
3896.54	0.00054873
3906.18	0.0007201
3915.83	0.0006573
3925.47	0.0007817
3935.12	0.000374
3944.76	0
3954.41	0.001071
3964.05	0.0004233
3973.69	0.00049873
3983.34	0.00057141
3992.98	0.0006588
