Infrared Spectrum: 3-Trifluoromethoxyacetophenone
Formula: C 9 H 7 F 3 O 2
CAS: 170141-63-6
State: gas
Origin: EPA-IR VAPOR PHASE LIBRARY
1/CM	ABSORBANCE
549.8	0.002009
559.445	0.0038544
569.09	0.00276
578.734	0.0033224
588.379	0.0034249
598.024	0.0038482
607.669	0.0034786
617.313	0.0031101
626.958	0.00413
636.603	0.0031529
646.248	0.00298564
655.893	0.0035454
665.537	0.0034941
675.182	0.0033683
684.827	0.00434
694.472	0.0036578
704.116	0.0033305
713.761	0.003379
723.406	0.002808
733.051	0.002636
742.695	0.0036528
752.34	0.002316
761.985	0.0036033
771.63	0.00249
781.275	0.0038195
790.919	0.00474
800.564	0.0035796
810.209	0.002831
819.854	0
829.498	0.00299158
839.143	0.0031905
848.788	0.0032487
858.433	0.0034924
868.078	0.00304552
877.722	0.0029189
887.367	0.0035138
897.012	0.0034097
906.657	0.002439
916.301	0.0036665
925.946	0.002833
935.591	0.0034258
945.236	0.0036712
954.88	0.0034909
964.525	0.0036347
974.17	0.002833
983.815	0.0031417
993.46	0.0037584
1003.1	0.002747
1012.75	0.0037694
1022.39	0.002424
1032.04	0.002841
1041.68	0.00417
1051.33	0.0037166
1060.97	0.00422
1070.62	0.00418
1080.26	0.0035705
1089.91	0.00416
1099.55	0.0033197
1109.2	0.002759
1118.84	0.0035666
1128.49	0.003372
1138.13	0.0035651
1147.78	0.0049
1157.42	0.00582
1167.07	0.00922
1176.71	0.01507
1186.36	0.02022
1196	0.01968
1205.64	0.01908
1215.29	0.03108
1224.93	0.03574
1234.58	0.02014
1244.22	0.01987
1253.87	0.03371
1263.51	0.04831
1273.16	0.03732
1282.8	0.02084
1292.45	0.01115
1302.09	0.00759
1311.74	0.00549
1321.38	0.00491
1331.03	0.004
1340.67	0.0037576
1350.32	0.00447
1359.96	0.00561
1369.61	0.00494
1379.25	0.0033784
1388.9	0.0032365
1398.54	0.0032001
1408.18	0.0035053
1417.83	0.0037275
1427.47	0.00473
1437.12	0.0064
1446.76	0.00529
1456.41	0.0039207
1466.05	0.0036958
1475.7	0.0036473
1485.34	0.00457
1494.99	0.0037814
1504.63	0.003321
1514.28	0.0031358
1523.92	0.0032283
1533.57	0.0033231
1543.21	0.0033667
1552.86	0.0029328
1562.5	0.0035922
1572.15	0.00408
1581.79	0.00454
1591.44	0.00485
1601.08	0.00404
1610.73	0.0034924
1620.37	0.0030911
1630.01	0.002829
1639.66	0.002805
1649.3	0.0033079
1658.95	0.0032481
1668.59	0.0035695
1678.24	0.0037337
1687.88	0.00437
1697.53	0.00596
1707.17	0.01165
1716.82	0.00951
1726.46	0.00412
1736.11	0.003481
1745.75	0.0035748
1755.4	0.0035277
1765.04	0.0031519
1774.69	0.0031475
1784.33	0.0029463
1793.98	0.0029564
1803.62	0.0031137
1813.27	0.0032116
1822.91	0.0028796
1832.55	0.002679
1842.2	0.00303925
1851.84	0.00302031
1861.49	0.0028724
1871.13	0.002771
1880.78	0.002775
1890.42	0.002681
1900.07	0.002815
1909.71	0.00297819
1919.36	0.002563
1929	0.0028924
1938.65	0.002702
1948.29	0.002857
1957.94	0.0028877
1967.58	0.002713
1977.23	0.0028747
1986.87	0.002792
1996.52	0.00293
2006.16	0.002729
2015.81	0.002723
2025.45	0.002861
2035.1	0.0029006
2044.74	0.002801
2054.38	0.002753
2064.03	0.0029041
2073.67	0.002803
2083.32	0.0029411
2092.96	0.00298945
2102.61	0.0029087
2112.25	0.002798
2121.9	0.0028776
2131.54	0.002675
2141.19	0.002782
2150.83	0.00297436
2160.48	0.002862
2170.12	0.002837
2179.77	0.002788
2189.41	0.0026
2199.06	0.0030226
2208.7	0.0029
2218.35	0.002823
2227.99	0.002797
2237.64	0.002472
2247.28	0.002481
2256.92	0.002795
2266.57	0.0031014
2276.21	0.0028808
2285.86	0.0029228
2295.5	0.002538
2305.15	0.0030779
2314.79	0.0029338
2324.44	0.002543
2334.08	0.002741
2343.73	0.00268
2353.37	0.00272
2363.02	0.002589
2372.66	0.00299863
2382.31	0.002818
2391.95	0.002775
2401.6	0.0030905
2411.24	0.00262
2420.89	0.0031269
2430.53	0.0029699
2440.18	0.00303702
2449.82	0.00298658
2459.47	0.002461
2469.11	0.0031918
2478.75	0.0031452
2488.4	0.002771
2498.04	0.002856
2507.69	0.0029563
2517.33	0.002679
2526.98	0.002791
2536.62	0.0030578
2546.27	0.002324
2555.91	0.0028791
2565.56	0.0028921
2575.2	0.002891
2584.85	0.002952
2594.49	0.002748
2604.14	0.00297875
2613.78	0.0030009
2623.43	0.002808
2633.07	0.0029352
2642.72	0.002769
2652.36	0.00296884
2662.01	0.002731
2671.65	0.0029588
2681.29	0.002656
2690.94	0.0030701
2700.58	0.002473
2710.23	0.002597
2719.87	0.0033385
2729.52	0.002603
2739.16	0.0024
2748.81	0.00269
2758.45	0.002433
2768.1	0.0029545
2777.74	0.002783
2787.39	0.00305875
2797.03	0.0028983
2806.68	0.0031255
2816.32	0.0034176
2825.97	0.0036785
2835.61	0.002723
2845.26	0.002726
2854.9	0.002851
2864.55	0.0029323
2874.19	0.0036293
2883.84	0.00304418
2893.48	0.002735
2903.12	0.002601
2912.77	0.002704
2922.41	0.002772
2932.06	0.0032577
2941.7	0.002554
2951.35	0.002215
2960.99	0.002423
2970.64	0.002782
2980.28	0.0036743
2989.93	0.0031004
2999.57	0.0032185
3009.22	0.0032489
3018.86	0.00297068
3028.51	0.0031014
3038.15	0.002571
3047.8	0.0031061
3057.44	0.0032311
3067.09	0.002336
3076.73	0.0034997
3086.38	0.0036499
3096.02	0.0036124
3105.67	0.0029084
3115.31	0.0034334
3124.95	0.002812
3134.6	0.002634
3144.24	0.002908
3153.89	0.002586
3163.53	0.002446
3173.18	0.002287
3182.82	0.002767
3192.47	0.002776
3202.11	0.0029
3211.76	0.002735
3221.4	0.00303378
3231.05	0.0033879
3240.69	0.002676
3250.34	0.00222
3259.98	0.00192
3269.63	0.002664
3279.27	0.0031993
3288.92	0.002621
3298.56	0.002287
3308.21	0.003331
3317.85	0.0031912
3327.49	0.0035461
3337.14	0.002724
3346.78	0.0032064
3356.43	0.002445
3366.07	0.00281
3375.72	0.003253
3385.36	0.0037163
3395.01	0.0032978
3404.65	0.002532
3414.3	0.0033743
3423.94	0.0030829
3433.59	0.0028998
3443.23	0.0031889
3452.88	0.002219
3462.52	0.0031509
3472.17	0.002527
3481.81	0.002575
3491.46	0.0029492
3501.1	0.0031639
3510.75	0.002808
3520.39	0.002529
3530.04	0.0034331
3539.68	0.002652
3549.32	0.002157
3558.97	0.00301788
3568.61	0.0031025
3578.26	0.00306738
3587.9	0.0029323
3597.55	0.002692
3607.19	0.002653
3616.84	0.002801
3626.48	0.002425
3636.13	0.002544
3645.77	0.002679
3655.42	0.002718
3665.06	0.002799
3674.71	0.0035227
3684.35	0.002864
3694	0.002744
3703.64	0.002784
3713.29	0.003359
3722.93	0.002813
3732.58	0.00292
3742.22	0.00404
3751.86	0.0029123
3761.51	0.002525
3771.15	0.0029545
3780.8	0.002622
3790.44	0.002219
3800.09	0.002966
3809.73	0.002197
3819.38	0.002107
3829.02	0.002376
3838.67	0.002791
3848.31	0.00302189
3857.96	0.002366
3867.6	0.0034223
3877.25	0.002477
3886.89	0.002324
3896.54	0.002661
3906.18	0.0032077
3915.83	0.0030796
3925.47	0.002614
3935.12	0.0029076
3944.76	0.002192
3954.41	0.00306662
3964.05	0.002755
3973.69	0.002389
3983.34	0.002658
3992.98	0.0035451
