Infrared Spectrum: M-XYLENE, A,A'-DIOL 5-CHLORO-2-HYDROXY-
Formula: C8 H9 Cl O3
CAS: 17026-49-2
State: SOLID (KBr PELLET)
Class: COBLENTZ
Instrument: Not specified, most likely a prism, grating, or hybrid spectrometer.
Sampling: TRANSMISSION
Resolution: 4
Origin: TENNESSEE EASTMAN COMPANY, RESEARCH LABORATORIES
MICROMETERS	TRANSMITTANCE
2.062	0.836
2.10314	0.837
2.14429	0.843
2.18543	0.844
2.22657	0.849
2.26771	0.851
2.30886	0.854
2.35	0.861
2.39114	0.865
2.43229	0.87
2.47343	0.873
2.51457	0.877
2.55571	0.878
2.59686	0.882
2.638	0.883
2.67914	0.883
2.72029	0.883
2.76143	0.853
2.80257	0.791
2.84372	0.626
2.88486	0.343
2.926	0.04
2.96714	0.156
3.00829	0.121
3.04943	0.088
3.09057	0.179
3.13172	0.194
3.17286	0.192
3.214	0.199
3.25514	0.262
3.29629	0.37
3.33743	0.488
3.37857	0.482
3.41972	0.494
3.46086	0.552
3.502	0.622
3.54314	0.703
3.58429	0.749
3.62543	0.762
3.66657	0.791
3.70772	0.793
3.74886	0.795
3.79	0.808
3.83114	0.824
3.87229	0.834
3.91343	0.853
3.95457	0.856
3.99572	0.854
4.03686	0.865
4.078	0.887
4.11914	0.892
4.16029	0.901
4.20143	0.909
4.24257	0.931
4.28372	0.918
4.32486	0.901
4.366	0.931
4.40715	0.945
4.44829	0.948
4.48943	0.95
4.53057	0.952
4.57172	0.952
4.61286	0.957
4.654	0.953
4.69515	0.952
4.73629	0.96
4.77743	0.96
4.81857	0.962
4.85972	0.962
4.90086	0.962
4.942	0.96
4.98315	0.959
5.02429	0.96
5.06543	0.962
5.10657	0.962
5.14772	0.965
5.18886	0.964
5.23	0.962
5.27115	0.962
5.31229	0.962
5.35343	0.962
5.39457	0.964
5.43572	0.965
5.47686	0.962
5.518	0.962
5.55915	0.962
5.60029	0.957
5.64143	0.921
5.68258	0.926
5.72372	0.904
5.76486	0.921
5.806	0.952
5.84715	0.95
5.88829	0.933
5.92943	0.947
5.97058	0.94
6.01172	0.938
6.05286	0.938
6.094	0.933
6.13515	0.918
6.17629	0.883
6.21743	0.853
6.25858	0.822
6.29972	0.894
6.34086	0.914
6.382	0.918
6.42315	0.916
6.46429	0.897
6.50543	0.895
6.54658	0.865
6.58772	0.863
6.62886	0.831
6.67	0.754
6.71115	0.43
6.75229	0.249
6.79343	0.419
6.83458	0.134
6.87572	0.18
6.91686	0.23
6.95801	0.298
6.99915	0.327
7.04029	0.547
7.08143	0.689
7.12258	0.755
7.16372	0.771
7.20486	0.776
7.24601	0.755
7.28715	0.713
7.32829	0.65
7.36943	0.581
7.41058	0.407
7.45172	0.25
7.49286	0.133
7.53401	0.175
7.57515	0.315
7.61629	0.453
7.65743	0.631
7.69858	0.696
7.73972	0.708
7.78086	0.622
7.82201	0.447
7.86315	0.484
7.90429	0.414
7.94543	0.209
7.98658	0.257
8.02772	0.532
8.06886	0.587
8.11001	0.559
8.15115	0.293
8.19229	0.131
8.23343	0.075
8.27458	0.156
8.31572	0.298
8.35686	0.399
8.39801	0.459
8.43915	0.612
8.48029	0.699
8.52144	0.738
8.56258	0.761
8.60372	0.773
8.64486	0.795
8.68601	0.803
8.72715	0.808
8.76829	0.812
8.80944	0.812
8.85058	0.812
8.89172	0.812
8.93286	0.802
8.97401	0.773
9.01515	0.732
9.05629	0.699
9.09744	0.755
9.13858	0.761
9.17972	0.738
9.22086	0.616
9.26201	0.286
9.30315	0.08
9.34429	0.095
9.38544	0.447
9.42658	0.612
9.46772	0.697
9.50886	0.742
9.55001	0.774
9.59115	0.793
9.63229	0.798
9.67344	0.766
9.71458	0.728
9.75572	0.575
9.79687	0.267
9.83801	0.092
9.87915	0.167
9.92029	0.474
9.96144	0.66
10.0026	0.72
10.0437	0.759
10.0849	0.757
10.126	0.757
10.1672	0.803
10.2083	0.839
10.2494	0.853
10.2906	0.863
10.3317	0.87
10.3729	0.878
10.414	0.885
10.4552	0.89
10.4963	0.89
10.5374	0.872
10.5786	0.848
10.6197	0.759
10.6609	0.54
10.702	0.399
10.7432	0.587
10.7843	0.737
10.8254	0.832
10.8666	0.866
10.9077	0.882
10.9489	0.885
10.99	0.887
11.0312	0.882
11.0723	0.873
11.1134	0.849
11.1546	0.761
11.1957	0.609
11.2369	0.394
11.278	0.493
11.3192	0.687
11.3603	0.745
11.4014	0.537
11.4426	0.199
11.4837	0.433
11.5249	0.725
11.566	0.837
11.6072	0.872
11.6483	0.894
11.6894	0.906
11.7306	0.911
11.7717	0.912
11.8129	0.912
11.854	0.911
11.8952	0.911
11.9363	0.911
11.9774	0.909
12.0186	0.907
12.0597	0.911
12.1009	0.912
12.142	0.912
12.1832	0.912
12.2243	0.907
12.2654	0.902
12.3066	0.897
12.3477	0.887
12.3889	0.877
12.43	0.872
12.4712	0.861
12.5123	0.851
12.5534	0.834
12.5946	0.81
12.6357	0.783
12.6769	0.75
12.718	0.715
12.7592	0.687
12.8003	0.682
12.8414	0.694
12.8826	0.709
12.9237	0.728
12.9649	0.738
13.006	0.749
13.0472	0.754
13.0883	0.752
13.1294	0.752
13.1706	0.75
13.2117	0.732
13.2529	0.696
13.294	0.648
13.3352	0.614
13.3763	0.581
13.4174	0.559
13.4586	0.534
13.4997	0.505
13.5409	0.489
13.582	0.465
13.6232	0.438
13.6643	0.423
13.7054	0.407
13.7466	0.387
13.7877	0.377
13.8289	0.37
13.87	0.366
13.9112	0.365
13.9523	0.368
13.9934	0.378
14.0346	0.394
14.0757	0.406
14.1169	0.426
14.158	0.441
14.1992	0.469
14.2403	0.486
14.2814	0.505
14.3226	0.53
14.3637	0.547
14.4049	0.571
14.446	0.585
14.4872	0.6
14.5283	0.616
14.5694	0.638
14.6106	0.655
14.6517	0.668
14.6929	0.679
14.734	0.692
14.7752	0.709
14.8163	0.72
14.8574	0.732
14.8986	0.742
14.9397	0.745
14.9809	0.749
15.022	0.754
15.0632	0.771
15.1043	0.779
15.1454	0.786
15.1866	0.79
15.2277	0.79
15.2689	0.79
15.31	0.79
15.3512	0.79
15.3923	0.79
15.4334	0.783
15.4746	0.779
15.5157	0.773
15.5569	0.767
15.598	0.752
15.6392	0.74
15.6803	0.718
15.7214	0.703
15.7626	0.682
15.8037	0.667
15.8449	0.662
15.886	0.655
15.9272	0.651
15.9683	0.65
16.0094	0.65
