Infrared Spectrum: tert-Butyl N(1-hydroxy-2,2,2-trifluoroethyl)carbamate
Formula: C 7 H 12 F 3 N O 3
CAS: 17049-74-0
State: gas
Origin: EPA-IR VAPOR PHASE LIBRARY
1/CM	ABSORBANCE
549.8	0.003146
559.445	0.002986
569.09	0.002836
578.734	0.002436
588.379	0.0015465
598.024	0.001644
607.669	0.001966
617.313	0.0015104
626.958	0.0013886
636.603	0.001816
646.248	0.001806
655.893	0.0014401
665.537	0.002066
675.182	0.002456
684.827	0.004236
694.472	0.004766
704.116	0.007236
713.761	0.005506
723.406	0.004706
733.051	0.003386
742.695	0.003166
752.34	0.003396
761.985	0.004336
771.63	0.004626
781.275	0.004606
790.919	0.003776
800.564	0.004306
810.209	0.004126
819.854	0.004616
829.498	0.005706
839.143	0.006436
848.788	0.005796
858.433	0.004916
868.078	0.004246
877.722	0.004266
887.367	0.002546
897.012	0.002636
906.657	0.002446
916.301	0.002436
925.946	0.002306
935.591	0.002156
945.236	0.002526
954.88	0.002776
964.525	0.001906
974.17	0.002966
983.815	0.002906
993.46	0.005376
1003.1	0.008056
1012.75	0.009486
1022.39	0.008456
1032.04	0.007826
1041.68	0.007666
1051.33	0.006006
1060.97	0.004456
1070.62	0.004786
1080.26	0.004076
1089.91	0.007376
1099.55	0.009796
1109.2	0.008246
1118.84	0.008296
1128.49	0.007466
1138.13	0.012176
1147.78	0.018606
1157.42	0.026306
1167.07	0.039696
1176.71	0.056716
1186.36	0.064916
1196	0.058966
1205.64	0.036846
1215.29	0.024716
1224.93	0.019126
1234.58	0.015636
1244.22	0.016926
1253.87	0.016346
1263.51	0.014576
1273.16	0.013446
1282.8	0.013616
1292.45	0.014066
1302.09	0.014356
1311.74	0.015126
1321.38	0.023176
1331.03	0.036326
1340.67	0.040996
1350.32	0.031666
1359.96	0.018316
1369.61	0.016656
1379.25	0.014016
1388.9	0.010286
1398.54	0.007706
1408.18	0.005396
1417.83	0.003716
1427.47	0.003396
1437.12	0.003296
1446.76	0.003526
1456.41	0.003996
1466.05	0.004136
1475.7	0.004626
1485.34	0.005086
1494.99	0.006196
1504.63	0.005716
1514.28	0.003686
1523.92	0.002536
1533.57	0.002266
1543.21	0.002196
1552.86	0.002706
1562.5	0.005296
1572.15	0.009736
1581.79	0.011386
1591.44	0.009216
1601.08	0.005456
1610.73	0.003576
1620.37	0.002426
1630.01	0.002006
1639.66	0.0016744
1649.3	0.0016093
1658.95	0.001686
1668.59	0.001806
1678.24	0.002096
1687.88	0.002316
1697.53	0.002926
1707.17	0.003286
1716.82	0.004356
1726.46	0.007006
1736.11	0.015146
1745.75	0.030886
1755.4	0.044526
1765.04	0.042646
1774.69	0.024936
1784.33	0.013486
1793.98	0.008356
1803.62	0.005316
1813.27	0.003286
1822.91	0.003066
1832.55	0.002766
1842.2	0.002396
1851.84	0.001866
1861.49	0.0015795
1871.13	0.0014236
1880.78	0.0010842
1890.42	0.0010997
1900.07	0.0009945
1909.71	0.0010952
1919.36	0.000932
1929	0.0008526
1938.65	0.0009553
1948.29	0.0009714
1957.94	0.0011064
1967.58	0.0009216
1977.23	0.000972
1986.87	0.0008945
1996.52	0.0009369
2006.16	0.0008159
2015.81	0.0009394
2025.45	0.0009836
2035.1	0.0009609
2044.74	0.0010661
2054.38	0.0008392
2064.03	0.0009181
2073.67	0.0007799
2083.32	0.0009797
2092.96	0.0010085
2102.61	0.0008619
2112.25	0.0008927
2121.9	0.00070331
2131.54	0.0008404
2141.19	0.0010435
2150.83	0.0007765
2160.48	0.000676068
2170.12	0.0008159
2179.77	0.00074057
2189.41	0.0008545
2199.06	0.0006504
2208.7	0.000871
2218.35	0.00075826
2227.99	0.000802
2237.64	0.00076683
2247.28	0.000869
2256.92	0.00070185
2266.57	0.00073463
2276.21	0.0009106
2285.86	0.0011197
2295.5	0.001068
2305.15	0.0011333
2314.79	0.001454
2324.44	0.001433
2334.08	0.0016148
2343.73	0.0014739
2353.37	0.0013202
2363.02	0.001846
2372.66	0.0016343
2382.31	0.0008821
2391.95	0.0009006
2401.6	0.000847
2411.24	0.000845
2420.89	0.0006427
2430.53	0.0008567
2440.18	0.0008483
2449.82	0.0005907
2459.47	0.0006724
2469.11	0.0007957
2478.75	0.00071173
2488.4	0.00068366
2498.04	0.000683763
2507.69	0.00073116
2517.33	0.00073269
2526.98	0.000468
2536.62	0.0007832
2546.27	0.0008901
2555.91	0.0008736
2565.56	0.000679019
2575.2	0.0006191
2584.85	0.000552
2594.49	0.0005982
2604.14	0.000572
2613.78	0.0005793
2623.43	0.00069042
2633.07	0.0008428
2642.72	0.0009946
2652.36	0.0007803
2662.01	0.0008917
2671.65	0.0006391
2681.29	0.000427
2690.94	0.0005889
2700.58	0.0007822
2710.23	0.00071307
2719.87	0.0008431
2729.52	0.0011613
2739.16	0.0008983
2748.81	0.0010008
2758.45	0.00074826
2768.1	0.0008493
2777.74	0.0010023
2787.39	0.0011611
2797.03	0.0013221
2806.68	0.0012795
2816.32	0.001528
2825.97	0.001686
2835.61	0.001996
2845.26	0.002476
2854.9	0.002946
2864.55	0.003936
2874.19	0.003276
2883.84	0.003446
2893.48	0.003286
2903.12	0.003596
2912.77	0.004046
2922.41	0.004496
2932.06	0.005156
2941.7	0.006016
2951.35	0.005346
2960.99	0.005706
2970.64	0.008286
2980.28	0.011416
2989.93	0.010616
2999.57	0.006616
3009.22	0.003806
3018.86	0.002426
3028.51	0.0011246
3038.15	0.0009235
3047.8	0.0009119
3057.44	0.0010302
3067.09	0.0010143
3076.73	0.00077256
3086.38	0.0010005
3096.02	0.0008543
3105.67	0.0009572
3115.31	0.0005768
3124.95	0.0009592
3134.6	0.0010213
3144.24	0.00075883
3153.89	0.00075975
3163.53	0.000576
3173.18	0.0007826
3182.82	0.00069571
3192.47	0.0006116
3202.11	0.0009074
3211.76	0.000682455
3221.4	0.00077327
3231.05	0.0009278
3240.69	0.0006257
3250.34	0.00056
3259.98	0.0006045
3269.63	0.00071928
3279.27	0.00073404
3288.92	0.00053
3298.56	0.000573
3308.21	0.0008257
3317.85	0.0009501
3327.49	0.00077313
3337.14	0.00076671
3346.78	0.00071009
3356.43	0.0006312
3366.07	0.0010547
3375.72	0.001006
3385.36	0.0009468
3395.01	0.0007956
3404.65	0.0012403
3414.3	0.0011721
3423.94	0.0013669
3433.59	0.002336
3443.23	0.003036
3452.88	0.003876
3462.52	0.004246
3472.17	0.003256
3481.81	0.001886
3491.46	0.0013421
3501.1	0.0014675
3510.75	0.0016004
3520.39	0.001806
3530.04	0.002006
3539.68	0.002526
3549.32	0.002856
3558.97	0.003096
3568.61	0.003056
3578.26	0.003076
3587.9	0.002636
3597.55	0.001624
3607.19	0.0012071
3616.84	0.0007961
3626.48	0.0009166
3636.13	0.0008425
3645.77	0.0011116
3655.42	0.0010724
3665.06	0.0008759
3674.71	0.0010957
3684.35	0.00070694
3694	0.00072711
3703.64	0.00075525
3713.29	0.000388
3722.93	0.0005778
3732.58	0.0006497
3742.22	0.000401
3751.86	0.00047
3761.51	0.000154
3771.15	0.0005988
3780.8	0.00066702
3790.44	0.00077558
3800.09	0.000197
3809.73	0.00067383
3819.38	0.0008572
3829.02	0.00075314
3838.67	0.0007817
3848.31	0.0005812
3857.96	0.0006329
3867.6	0.000518
3877.25	0.000498
3886.89	0.000475
3896.54	0.000681518
3906.18	0.0009076
3915.83	0.0006135
3925.47	0.00076624
3935.12	0.0006209
3944.76	0.000443
3954.41	0.0009177
3964.05	0.00076447
3973.69	0.0006582
3983.34	0.0008137
3992.98	0.0008097
