Infrared Spectrum: 2-Pyridinesulphonylacetonitrile
Formula: C 7 H 6 N 2 O 2 S
CAS: 170449-34-0
State: gas
Origin: EPA-IR VAPOR PHASE LIBRARY
1/CM	ABSORBANCE
549.8	0.008611
559.445	0.010441
569.09	0.017631
578.734	0.019261
588.379	0.009901
598.024	0.008251
607.669	0.008061
617.313	0.005791
626.958	0.005401
636.603	0.002631
646.248	0.0014498
655.893	0.0013071
665.537	0.0011184
675.182	0.001741
684.827	0.001971
694.472	0.003121
704.116	0.005601
713.761	0.005641
723.406	0.005441
733.051	0.009381
742.695	0.015711
752.34	0.022961
761.985	0.022321
771.63	0.015071
781.275	0.008801
790.919	0.003991
800.564	0.002901
810.209	0.0013756
819.854	0.0014436
829.498	0.001751
839.143	0.002371
848.788	0.004111
858.433	0.011451
868.078	0.017661
877.722	0.009901
887.367	0.003031
897.012	0.001651
906.657	0.0014111
916.301	0.00063552
925.946	0.0007599
935.591	0.000199
945.236	0.00055
954.88	0.0011697
964.525	0.0009802
974.17	0.001641
983.815	0.003261
993.46	0.005041
1003.1	0.002581
1012.75	0.0010257
1022.39	0.0015067
1032.04	0.0014926
1041.68	0.001841
1051.33	0.0013779
1060.97	0.0012095
1070.62	0.002421
1080.26	0.003131
1089.91	0.003071
1099.55	0.002171
1109.2	0.009361
1118.84	0.016991
1128.49	0.014441
1138.13	0.008971
1147.78	0.013701
1157.42	0.013541
1167.07	0.014671
1176.71	0.035331
1186.36	0.041741
1196	0.019761
1205.64	0.006631
1215.29	0.006341
1224.93	0.007591
1234.58	0.010911
1244.22	0.012331
1253.87	0.006751
1263.51	0.003341
1273.16	0.002261
1282.8	0.002901
1292.45	0.003121
1302.09	0.002101
1311.74	0.001921
1321.38	0.002121
1331.03	0.003351
1340.67	0.006921
1350.32	0.017131
1359.96	0.047721
1369.61	0.079021
1379.25	0.045931
1388.9	0.016021
1398.54	0.009201
1408.18	0.006681
1417.83	0.009331
1427.47	0.014771
1437.12	0.010141
1446.76	0.005901
1456.41	0.006381
1466.05	0.003371
1475.7	0.001532
1485.34	0.0011886
1494.99	0.0011933
1504.63	0.001345
1514.28	0.0010744
1523.92	0.0007902
1533.57	0.0011606
1543.21	0.001701
1552.86	0.003011
1562.5	0.007191
1572.15	0.010561
1581.79	0.006961
1591.44	0.003081
1601.08	0.001651
1610.73	0.0013854
1620.37	0.0010932
1630.01	0.0010408
1639.66	0.0007125
1649.3	0.0010008
1658.95	0.0011203
1668.59	0.001172
1678.24	0.000952
1687.88	0.0007542
1697.53	0.0009164
1707.17	0.0007035
1716.82	0.0006835
1726.46	0.0007997
1736.11	0.000878
1745.75	0.0009043
1755.4	0.0008579
1765.04	0.00064703
1774.69	0.0008272
1784.33	0.00065973
1793.98	0.0008061
1803.62	0.0006775
1813.27	0.000363
1822.91	0.00065069
1832.55	0.00062221
1842.2	0.0008173
1851.84	0.0008747
1861.49	0.0010996
1871.13	0.0009605
1880.78	0.0009365
1890.42	0.0011436
1900.07	0.0008834
1909.71	0.0007915
1919.36	0.0010047
1929	0.0010901
1938.65	0.0008002
1948.29	0.001314
1957.94	0.0013056
1967.58	0.000935
1977.23	0.0007862
1986.87	0.0012103
1996.52	0.0010042
2006.16	0.0007371
2015.81	0.0007171
2025.45	0.00058101
2035.1	0.0006966
2044.74	0.0005276
2054.38	0.000426
2064.03	0.00064038
2073.67	0.0007488
2083.32	0.0005609
2092.96	0.0005322
2102.61	0.00061234
2112.25	0.000811
2121.9	0.00056983
2131.54	0.0005169
2141.19	0.00064649
2150.83	0.0005332
2160.48	0.00066338
2170.12	0.0007218
2179.77	0.0007912
2189.41	0.0006727
2199.06	0.0007362
2208.7	0.000837
2218.35	0.0007879
2227.99	0.0007261
2237.64	0.0008568
2247.28	0.0010871
2256.92	0.0013151
2266.57	0.0011775
2276.21	0.0010004
2285.86	0.0009216
2295.5	0.0013254
2305.15	0.0011219
2314.79	0.0009219
2324.44	0.0009699
2334.08	0.0009009
2343.73	0.0007953
2353.37	0.000818
2363.02	0.0010076
2372.66	0.0008201
2382.31	0.0008336
2391.95	0.0007805
2401.6	0.0007469
2411.24	0.0007408
2420.89	0.0009112
2430.53	0.0008682
2440.18	0.0008129
2449.82	0.0009376
2459.47	0.0010106
2469.11	0.0009455
2478.75	0.0010189
2488.4	0.0009902
2498.04	0.0009945
2507.69	0.0009656
2517.33	0.0012091
2526.98	0.0008327
2536.62	0.0011245
2546.27	0.0008987
2555.91	0.0010297
2565.56	0.0012947
2575.2	0.000936
2584.85	0.0007084
2594.49	0.000987
2604.14	0.0008645
2613.78	0.0010377
2623.43	0.000744
2633.07	0.0009543
2642.72	0.0008007
2652.36	0.0008324
2662.01	0.000859
2671.65	0.0011176
2681.29	0.0011225
2690.94	0.0008947
2700.58	0.00065883
2710.23	0.0009611
2719.87	0.0009752
2729.52	0.000985
2739.16	0.000823
2748.81	0.0008054
2758.45	0.0008088
2768.1	0.0009751
2777.74	0.0009236
2787.39	0.0008412
2797.03	0.0007521
2806.68	0.0008338
2816.32	0.0009106
2825.97	0.0009151
2835.61	0.00067021
2845.26	0.0007211
2854.9	0.0009264
2864.55	0.0009061
2874.19	0.000467
2883.84	0.0009663
2893.48	0.0011002
2903.12	0.0011956
2912.77	0.0008539
2922.41	0.0008211
2932.06	0.0009087
2941.7	0.001761
2951.35	0.002011
2960.99	0.0012693
2970.64	0.0010699
2980.28	0.0015412
2989.93	0.002271
2999.57	0.003071
3009.22	0.002631
3018.86	0.0015614
3028.51	0.001017
3038.15	0.001691
3047.8	0.002501
3057.44	0.005421
3067.09	0.007661
3076.73	0.006451
3086.38	0.003871
3096.02	0.0014776
3105.67	0.0011453
3115.31	0.0012265
3124.95	0.0011292
3134.6	0.0015675
3144.24	0.0011809
3153.89	0.0012554
3163.53	0.0010435
3173.18	0.0010829
3182.82	0.0009325
3192.47	0.0009591
3202.11	0.0008819
3211.76	0.0010416
3221.4	0.0008461
3231.05	0.0008932
3240.69	0.000358
3250.34	0.0007733
3259.98	0.0007249
3269.63	0.0004877
3279.27	0.00058772
3288.92	0.0010664
3298.56	0.00059769
3308.21	0.000681
3317.85	0.0007792
3327.49	0.0008083
3337.14	0.0005327
3346.78	0.0007773
3356.43	0.000339
3366.07	0.000409
3375.72	0.00060444
3385.36	0.000577058
3395.01	0.0005404
3404.65	0.0006297
3414.3	0.0010789
3423.94	0.0010523
3433.59	0.000571128
3443.23	0.0005276
3452.88	0.0008133
3462.52	0.00058732
3472.17	0.0007856
3481.81	0.0008239
3491.46	0.0008882
3501.1	0.0005662
3510.75	0.00056552
3520.39	0.000378
3530.04	0.000577759
3539.68	0.0010003
3549.32	0.0004988
3558.97	0.0006841
3568.61	0.000469
3578.26	0.000417
3587.9	0.000451
3597.55	0.0008432
3607.19	0.00058933
3616.84	0.00064044
3626.48	0.0012516
3636.13	0.0008382
3645.77	0.0009901
3655.42	0.00058456
3665.06	0.0006101
3674.71	0.000578811
3684.35	0.0004932
3694	0.00059353
3703.64	0.0006815
3713.29	0.0008654
3722.93	0.0004839
3732.58	0.000397
3742.22	0.0004885
3751.86	0.000278
3761.51	0.0005125
3771.15	0.0010531
3780.8	0.0005221
3790.44	0.00066441
3800.09	0.00064416
3809.73	0.0005165
3819.38	0.0008554
3829.02	0.0005584
3838.67	0.0007174
3848.31	0.0008217
3857.96	0.0010413
3867.6	0.0010841
3877.25	0.0008245
3886.89	0.0007235
3896.54	0.0005469
3906.18	2.5e-05
3915.83	0.0006832
3925.47	0.00062721
3935.12	0.0008749
3944.76	0.000389
3954.41	0.0008533
3964.05	0.000226
3973.69	0.0013274
3983.34	0.0005257
3992.98	0.0008085
