Infrared Spectrum: 4-Methyl-3-hexanone
Formula: C 7 H 14 O
CAS: 17042-16-9
State: gas
Instrument: HP-GC/MS/IRD
Origin: NIST Mass Spectrometry Data Center
1/CM	ABSORBANCE
550	8.28e-05
562	0.0003243
574	0.0002323
586	0.0002967
598	0.0001817
610	0.0001587
622	0.0001656
634	0.0001311
646	0.0001518
658	0.0001541
670	9.89e-05
682	1.84e-05
694	7.36e-05
706	9.2e-05
718	4.6e-05
730	0.0001587
742	0.000253
754	0.000299
766	0.000414
778	0.0004669
790	0.0005313
802	0.0005888
814	0.0005796
826	0.0004485
838	0.0005359
850	0.0004577
862	0.0003036
874	0.0002024
886	0.0001495
898	0.0002139
910	0.0003657
922	0.0007199
934	0.0018469
946	0.0031188
958	0.0036432
970	0.0035374
982	0.0028129
994	0.0020125
1006	0.0022218
1018	0.0026749
1030	0.0025714
1042	0.0019044
1054	0.0015548
1066	0.0015732
1078	0.0022333
1090	0.0036869
1102	0.0044321
1114	0.0035282
1126	0.0022149
1138	0.0017089
1150	0.0017595
1162	0.0023828
1174	0.002806
1186	0.0022218
1198	0.0014007
1210	0.0008211
1222	0.0006233
1234	0.0007061
1246	0.0009039
1258	0.0010948
1270	0.0010948
1282	0.0010603
1294	0.0012006
1306	0.0014329
1318	0.0018791
1330	0.0025001
1342	0.0031142
1354	0.0035282
1366	0.0036823
1378	0.004048
1390	0.0037651
1402	0.0023874
1414	0.0019964
1426	0.0022218
1438	0.0027646
1450	0.004393
1462	0.005842
1474	0.0045678
1486	0.0021896
1498	0.0010442
1510	0.000644
1522	0.0004922
1534	0.0003841
1546	0.0003335
1558	0.0002829
1570	0.0003243
1582	0.0003013
1594	0.0003243
1606	0.0003358
1618	0.0004025
1630	0.0004324
1642	0.0005083
1654	0.0006417
1666	0.0010097
1678	0.0016997
1690	0.0031947
1702	0.0071898
1714	0.0144647
1726	0.0184276
1738	0.0110239
1750	0.0038272
1762	0.0014628
1774	0.0007544
1786	0.0004232
1798	0.0002714
1810	0.0002139
1822	0.0001794
1834	0.0001495
1846	0.0001219
1858	0.0001288
1870	9.89e-05
1882	0.0001012
1894	8.05e-05
1906	9.2e-05
1918	6.21e-05
1930	5.75e-05
1942	4.37e-05
1954	7.59e-05
1966	5.06e-05
1978	5.75e-05
1990	3.68e-05
2002	4.6e-05
2014	4.14e-05
2026	5.29e-05
2038	4.6e-05
2050	1.38e-05
2062	3.22e-05
2074	9.2e-06
2086	2.76e-05
2098	2.99e-05
2110	1.84e-05
2122	1.61e-05
2134	3.22e-05
2146	2.53e-05
2158	3.68e-05
2170	1.61e-05
2182	2.99e-05
2194	2.07e-05
2206	4.6e-06
2218	2.53e-05
2230	1.61e-05
2242	3.22e-05
2254	2.76e-05
2266	3.45e-05
2278	2.3e-05
2290	3.68e-05
2302	3.91e-05
2314	3.22e-05
2326	5.98e-05
2338	5.52e-05
2350	5.52e-05
2362	3.22e-05
2374	6.44e-05
2386	8.05e-05
2398	5.06e-05
2410	7.36e-05
2422	5.06e-05
2434	6.67e-05
2446	8.05e-05
2458	7.82e-05
2470	5.29e-05
2482	6.44e-05
2494	5.52e-05
2506	3.45e-05
2518	5.98e-05
2530	5.06e-05
2542	3.45e-05
2554	6.44e-05
2566	5.75e-05
2578	8.97e-05
2590	5.52e-05
2602	7.13e-05
2614	9.89e-05
2626	8.05e-05
2638	0.0001081
2650	9.66e-05
2662	0.0001426
2674	0.0001518
2686	0.0001656
2698	0.000184
2710	0.0002162
2722	0.0002852
2734	0.0003818
2746	0.0004715
2758	0.0004669
2770	0.0004508
2782	0.0005198
2794	0.000667
2806	0.0008372
2818	0.0010764
2830	0.001357
2842	0.0017963
2854	0.002668
2866	0.0048208
2878	0.0082409
2890	0.0104443
2902	0.0101913
2914	0.0105064
2926	0.0128708
2938	0.0157665
2950	0.0162909
2962	0.018354
2974	0.023
2986	0.0186024
2998	0.0090045
3010	0.0040756
3022	0.0023667
3034	0.0016744
3046	0.001288
3058	0.0010649
3070	0.000897
3082	0.0007866
3094	0.0007107
3106	0.0006992
3118	0.0005865
3130	0.0005106
3142	0.0004945
3154	0.0004623
3166	0.0004508
3178	0.0003565
3190	0.0002852
3202	0.0002392
3214	0.0001955
3226	0.0001311
3238	0.0001173
3250	5.75e-05
3262	3.68e-05
3274	4.6e-05
3286	4.14e-05
3298	0.0001081
3310	8.28e-05
3322	8.28e-05
3334	6.9e-05
3346	5.29e-05
3358	5.75e-05
3370	7.82e-05
3382	0.0001081
3394	0.0001541
3406	0.00023
3418	0.0003266
3430	0.0003611
3442	0.0003128
3454	0.0001886
3466	0.0001541
3478	0.0001081
3490	0.0001104
3502	5.06e-05
3514	4.83e-05
3526	5.06e-05
3538	3.45e-05
3550	8.51e-05
3562	2.3e-05
3574	2.53e-05
3586	5.06e-05
3598	6.21e-05
3610	3.91e-05
3622	5.52e-05
3634	3.45e-05
3646	3.22e-05
3658	6.44e-05
3670	3.45e-05
3682	5.98e-05
3694	5.75e-05
3706	7.59e-05
3718	5.29e-05
3730	7.13e-05
3742	1.38e-05
3754	4.37e-05
3766	7.36e-05
3778	5.29e-05
3790	2.07e-05
3802	8.97e-05
3814	5.75e-05
3826	5.52e-05
3838	6.44e-05
