Infrared Spectrum: DIETHYL ISOCYANATO SUCCINATE
Formula: C9 H13 N O5
CAS: 17046-24-1
State: LIQUID
Boiling point: 132 C AT 8 mmHg
Class: COBLENTZ
Instrument: Not specified, most likely a prism, grating, or hybrid spectrometer.
Sampling: TRANSMISSION
Path length: CAPILLARY CELL
Resolution: 4
Origin: EASTMAN KODAK COMPANY, RESEARCH LABORATORIES, ROCHESTER, N.Y.
MICROMETERS	TRANSMITTANCE
2.007	0.923
2.04211	0.921
2.07721	0.919
2.11232	0.917
2.14742	0.917
2.18253	0.914
2.21763	0.903
2.25274	0.896
2.28784	0.891
2.32295	0.891
2.35806	0.895
2.39316	0.895
2.42827	0.898
2.46337	0.9
2.49848	0.905
2.53358	0.909
2.56869	0.914
2.6038	0.919
2.6389	0.921
2.67401	0.921
2.70911	0.912
2.74422	0.896
2.77932	0.874
2.81443	0.895
2.84953	0.903
2.88464	0.898
2.91975	0.872
2.95485	0.874
2.98996	0.879
3.02506	0.882
3.06017	0.882
3.09527	0.888
3.13038	0.891
3.16549	0.898
3.20059	0.889
3.2357	0.872
3.2708	0.863
3.30591	0.839
3.34101	0.697
3.37612	0.423
3.41122	0.601
3.44633	0.666
3.48144	0.751
3.51654	0.826
3.55165	0.867
3.58675	0.882
3.62186	0.888
3.65696	0.889
3.69207	0.893
3.72718	0.898
3.76228	0.902
3.79739	0.902
3.83249	0.902
3.8676	0.898
3.9027	0.898
3.93781	0.898
3.97291	0.893
4.00802	0.893
4.04313	0.895
4.07823	0.875
4.11334	0.87
4.14844	0.854
4.18355	0.832
4.21865	0.821
4.25376	0.805
4.28887	0.777
4.32397	0.652
4.35908	0.092
4.39418	0.062
4.42929	0.057
4.46439	0.09
4.4995	0.354
4.5346	0.592
4.56971	0.68
4.60482	0.784
4.63992	0.823
4.67503	0.84
4.71013	0.821
4.74524	0.835
4.78034	0.84
4.81545	0.858
4.85056	0.884
4.88566	0.905
4.92077	0.921
4.95587	0.923
4.99098	0.923
5.02608	0.928
5.06119	0.937
5.09629	0.928
5.1314	0.93
5.16651	0.924
5.20161	0.926
5.23672	0.928
5.27182	0.921
5.30693	0.914
5.34203	0.912
5.37714	0.912
5.41225	0.905
5.44735	0.902
5.48246	0.888
5.51756	0.865
5.55267	0.837
5.58777	0.802
5.62288	0.718
5.65798	0.493
5.69309	0.11
5.7282	0.082
5.7633	0.096
5.79841	0.251
5.83351	0.466
5.86862	0.596
5.90372	0.709
5.93883	0.763
5.97394	0.812
6.00904	0.854
6.04415	0.867
6.07925	0.872
6.11436	0.882
6.14946	0.884
6.18457	0.896
6.21967	0.893
6.25478	0.891
6.28989	0.893
6.32499	0.905
6.3601	0.905
6.3952	0.903
6.43031	0.896
6.46541	0.895
6.50052	0.886
6.53562	0.881
6.57073	0.875
6.60584	0.863
6.64094	0.854
6.67605	0.854
6.71115	0.842
6.74626	0.72
6.78136	0.641
6.81647	0.589
6.85158	0.587
6.88668	0.585
6.92179	0.538
6.95689	0.555
6.992	0.589
7.0271	0.632
7.06221	0.615
7.09731	0.548
7.13242	0.522
7.16753	0.5
7.20263	0.496
7.23774	0.465
7.27284	0.304
7.30795	0.291
7.34305	0.444
7.37816	0.543
7.41327	0.482
7.44837	0.493
7.48348	0.503
7.51858	0.548
7.55369	0.592
7.58879	0.641
7.6239	0.646
7.659	0.585
7.69411	0.451
7.72922	0.342
7.76432	0.309
7.79943	0.243
7.83453	0.188
7.86964	0.194
7.90474	0.236
7.93985	0.27
7.97496	0.279
8.01006	0.29
8.04517	0.262
8.08027	0.216
8.11538	0.171
8.15048	0.129
8.18559	0.11
8.22069	0.113
8.2558	0.122
8.29091	0.167
8.32601	0.18
8.36112	0.173
8.39622	0.15
8.43133	0.153
8.46643	0.171
8.50154	0.188
8.53665	0.213
8.57175	0.241
8.60686	0.277
8.64196	0.332
8.67707	0.435
8.71217	0.555
8.74728	0.646
8.78238	0.718
8.81749	0.753
8.8526	0.765
8.8877	0.776
8.92281	0.758
8.95791	0.715
8.99302	0.687
9.02812	0.681
9.06323	0.653
9.09834	0.583
9.13344	0.554
9.16855	0.618
9.20365	0.69
9.23876	0.699
9.27386	0.706
9.30897	0.695
9.34407	0.655
9.37918	0.608
9.41429	0.575
9.44939	0.54
9.4845	0.517
9.5196	0.487
9.55471	0.423
9.58981	0.316
9.62492	0.237
9.66003	0.181
9.69513	0.171
9.73024	0.183
9.76534	0.218
9.80045	0.269
9.83555	0.361
9.87066	0.459
9.90576	0.531
9.94087	0.582
9.97598	0.631
10.0111	0.678
10.0462	0.737
10.0813	0.776
10.1164	0.804
10.1515	0.821
10.1866	0.835
10.2217	0.847
10.2568	0.849
10.2919	0.853
10.327	0.854
10.3621	0.847
10.3972	0.844
10.4323	0.833
10.4675	0.828
10.5026	0.839
10.5377	0.842
10.5728	0.84
10.6079	0.825
10.643	0.814
10.6781	0.816
10.7132	0.825
10.7483	0.832
10.7834	0.844
10.8185	0.854
10.8536	0.872
10.8887	0.882
10.9238	0.903
10.9589	0.912
10.994	0.931
11.0291	0.93
11.0642	0.926
11.0994	0.921
11.1345	0.917
11.1696	0.914
11.2047	0.909
11.2398	0.903
11.2749	0.893
11.31	0.884
11.3451	0.867
11.3802	0.86
11.4153	0.854
11.4504	0.844
11.4855	0.816
11.5206	0.777
11.5557	0.72
11.5908	0.674
11.6259	0.676
11.661	0.697
11.6962	0.75
11.7313	0.784
11.7664	0.797
11.8015	0.798
11.8366	0.805
11.8717	0.842
11.9068	0.867
11.9419	0.872
11.977	0.875
12.0121	0.874
12.0472	0.865
12.0823	0.854
12.1174	0.839
12.1525	0.821
12.1876	0.812
12.2227	0.807
12.2578	0.811
12.2929	0.825
12.3281	0.823
12.3632	0.83
12.3983	0.835
12.4334	0.839
12.4685	0.84
12.5036	0.842
12.5387	0.84
12.5738	0.837
12.6089	0.837
12.644	0.835
12.6791	0.839
12.7142	0.835
12.7493	0.835
12.7844	0.833
12.8195	0.828
12.8546	0.828
12.8897	0.835
12.9248	0.839
12.96	0.846
12.9951	0.851
13.0302	0.856
13.0653	0.865
13.1004	0.868
13.1355	0.87
13.1706	0.874
13.2057	0.875
13.2408	0.875
13.2759	0.874
13.311	0.889
13.3461	0.881
13.3812	0.879
13.4163	0.879
13.4514	0.875
13.4865	0.863
13.5216	0.863
13.5567	0.867
13.5919	0.867
13.627	0.865
13.6621	0.86
13.6972	0.851
13.7323	0.846
13.7674	0.83
13.8025	0.828
13.8376	0.826
13.8727	0.819
13.9078	0.812
13.9429	0.807
13.978	0.798
14.0131	0.783
14.0482	0.776
14.0833	0.77
14.1184	0.758
14.1535	0.744
14.1887	0.723
14.2238	0.708
14.2589	0.695
14.294	0.678
14.3291	0.667
14.3642	0.657
14.3993	0.653
14.4344	0.646
14.4695	0.639
14.5046	0.639
14.5397	0.632
14.5748	0.62
14.6099	0.608
14.645	0.603
14.6801	0.603
14.7152	0.599
14.7503	0.596
14.7854	0.587
14.8206	0.576
14.8557	0.573
14.8908	0.575
14.9259	0.571
14.961	0.561
14.9961	0.554
15.0312	0.552
15.0663	0.548
15.1014	0.54
15.1365	0.534
15.1716	0.522
15.2067	0.513
15.2418	0.505
15.2769	0.503
15.312	0.501
15.3471	0.496
15.3822	0.494
15.4173	0.493
15.4525	0.489
15.4876	0.487
15.5227	0.486
15.5578	0.486
15.5929	0.489
15.628	0.491
15.6631	0.486
15.6982	0.494
15.7333	0.505
15.7684	0.51
15.8035	0.513
15.8386	0.508
15.8737	0.512
15.9088	0.506
15.9439	0.508
15.979	0.517
