Infrared Spectrum: 3-METHYL-9-FLUORENONE
Formula: C14 H10 O
CAS: 1705-89-1
State: SOLUTION (10% CCl4 FOR 5000-1300, 10% CS2 FOR 1300-625 CM^-^1)
Class: COBLENTZ
Instrument: Not specified, most likely a prism, grating, or hybrid spectrometer.
Sampling: TRANSMISSION
Path length: 0.01 CM, 0.01 CM
Resolution: 4
Origin: DOW CHEMICAL COMPANY
MICROMETERS	TRANSMITTANCE
2.02	0.844
2.06074	0.846
2.10148	0.846
2.14221	0.847
2.18295	0.856
2.22369	0.859
2.26443	0.856
2.30517	0.861
2.34591	0.868
2.38664	0.859
2.42738	0.861
2.46812	0.876
2.50886	0.873
2.5496	0.868
2.59034	0.878
2.63107	0.878
2.67181	0.873
2.71255	0.869
2.75329	0.871
2.79403	0.861
2.83477	0.853
2.8755	0.824
2.91624	0.79
2.95698	0.837
2.99772	0.847
3.03846	0.859
3.0792	0.851
3.11993	0.859
3.16067	0.863
3.20141	0.8
3.24215	0.69
3.28289	0.646
3.32363	0.744
3.36436	0.739
3.4051	0.729
3.44584	0.802
3.48658	0.846
3.52732	0.873
3.56806	0.876
3.60879	0.888
3.64953	0.88
3.69027	0.89
3.73101	0.903
3.77175	0.903
3.81249	0.912
3.85322	0.908
3.89396	0.917
3.9347	0.91
3.97544	0.908
4.01618	0.918
4.05692	0.91
4.09765	0.917
4.13839	0.917
4.17913	0.908
4.21987	0.903
4.26061	0.898
4.30135	0.898
4.34208	0.908
4.38282	0.905
4.42356	0.912
4.4643	0.922
4.50504	0.935
4.54578	0.951
4.58651	0.935
4.62725	0.956
4.66799	0.957
4.70873	0.951
4.74947	0.939
4.79021	0.935
4.83094	0.949
4.87168	0.93
4.91242	0.92
4.95316	0.932
4.9939	0.912
5.03464	0.932
5.07537	0.881
5.11611	0.913
5.15685	0.885
5.19759	0.869
5.23833	0.888
5.27907	0.91
5.3198	0.91
5.36054	0.896
5.40128	0.847
5.44202	0.854
5.48276	0.883
5.5235	0.888
5.56423	0.844
5.60497	0.832
5.64571	0.861
5.68645	0.822
5.72719	0.722
5.76793	0.375
5.80866	0.084
5.8494	0.109
5.89014	0.584
5.93088	0.675
5.97162	0.707
6.01236	0.744
6.05309	0.738
6.09383	0.608
6.13457	0.364
6.17531	0.062
6.21605	0.113
6.25679	0.256
6.29752	0.44
6.33826	0.53
6.379	0.51
6.41974	0.461
6.46048	0.467
6.50122	0.545
6.54195	0.579
6.58269	0.65
6.62343	0.709
6.66417	0.751
6.70491	0.75
6.74565	0.653
6.78638	0.609
6.82712	0.527
6.86786	0.361
6.9086	0.554
6.94934	0.641
6.99008	0.609
7.03081	0.665
7.07155	0.804
7.11229	0.846
7.15303	0.849
7.19377	0.804
7.23451	0.765
7.27524	0.785
7.31598	0.744
7.35672	0.787
7.39746	0.82
7.4382	0.861
7.47894	0.859
7.51967	0.824
7.56041	0.743
7.60115	0.548
7.64189	0.354
7.68263	0.229
7.72337	0.461
7.7641	0.709
7.80484	0.771
7.84558	0.824
7.88632	0.817
7.92706	0.831
7.9678	0.868
8.00853	0.866
8.04927	0.868
8.09001	0.842
8.13075	0.836
8.17149	0.765
8.21223	0.712
8.25296	0.751
8.2937	0.709
8.33444	0.525
8.37518	0.304
8.41592	0.66
8.45666	0.559
8.49739	0.535
8.53813	0.76
8.57887	0.783
8.61961	0.709
8.66035	0.653
8.70109	0.525
8.74182	0.778
8.78256	0.824
8.8233	0.839
8.86404	0.846
8.90478	0.804
8.94552	0.675
8.98625	0.418
9.02699	0.396
9.06773	0.702
9.10847	0.738
9.14921	0.75
9.18995	0.721
9.23068	0.765
9.27142	0.847
9.31216	0.866
9.3529	0.876
9.39364	0.878
9.43438	0.876
9.47511	0.866
9.51585	0.856
9.55659	0.817
9.59733	0.792
9.63807	0.771
9.67881	0.817
9.71954	0.849
9.76028	0.868
9.80102	0.883
9.84176	0.886
9.8825	0.89
9.92324	0.89
9.96397	0.898
10.0047	0.907
10.0455	0.908
10.0862	0.91
10.1269	0.915
10.1677	0.918
10.2084	0.922
10.2491	0.929
10.2899	0.932
10.3306	0.929
10.3714	0.908
10.4121	0.858
10.4528	0.817
10.4936	0.829
10.5343	0.773
10.575	0.814
10.6158	0.875
10.6565	0.866
10.6973	0.849
10.738	0.809
10.7787	0.704
10.8195	0.415
10.8602	0.128
10.901	0.261
10.9417	0.609
10.9824	0.736
11.0232	0.763
11.0639	0.79
11.1046	0.807
11.1454	0.804
11.1861	0.78
11.2269	0.739
11.2676	0.658
11.3083	0.621
11.3491	0.687
11.3898	0.687
11.4306	0.679
11.4713	0.68
11.512	0.663
11.5528	0.609
11.5935	0.56
11.6342	0.648
11.675	0.677
11.7157	0.69
11.7565	0.701
11.7972	0.709
11.8379	0.689
11.8787	0.618
11.9194	0.445
11.9602	0.221
12.0009	0.277
12.0416	0.616
12.0824	0.741
12.1231	0.766
12.1638	0.778
12.2046	0.788
12.2453	0.792
12.2861	0.79
12.3268	0.797
12.3675	0.798
12.4083	0.798
12.449	0.795
12.4897	0.782
12.5305	0.748
12.5712	0.695
12.612	0.665
12.6527	0.721
12.6934	0.751
12.7342	0.76
12.7749	0.758
12.8157	0.763
12.8564	0.761
12.8971	0.748
12.9379	0.695
12.9786	0.545
13.0193	0.332
13.0601	0.106
13.1008	0.133
13.1416	0.43
13.1823	0.594
13.223	0.663
13.2638	0.694
13.3045	0.697
13.3453	0.672
13.386	0.628
13.4267	0.543
13.4675	0.42
13.5082	0.221
13.5489	0.062
13.5897	0.03
13.6304	0.18
13.6712	0.408
13.7119	0.579
13.7526	0.668
13.7934	0.707
13.8341	0.729
13.8749	0.736
13.9156	0.733
13.9563	0.717
13.9971	0.694
14.0378	0.667
14.0785	0.662
14.1193	0.684
14.16	0.701
14.2008	0.697
14.2415	0.682
14.2822	0.679
14.323	0.679
14.3637	0.69
14.4045	0.699
14.4452	0.695
14.4859	0.687
14.5267	0.677
14.5674	0.662
14.6081	0.64
14.6489	0.619
14.6896	0.594
14.7304	0.555
14.7711	0.52
14.8118	0.452
14.8526	0.375
14.8933	0.28
14.934	0.217
14.9748	0.246
15.0155	0.334
15.0563	0.402
15.097	0.459
15.1377	0.489
15.1785	0.503
15.2192	0.508
15.26	0.506
15.3007	0.503
15.3414	0.501
15.3822	0.505
15.4229	0.501
15.4636	0.498
15.5044	0.489
15.5451	0.483
15.5859	0.478
15.6266	0.467
15.6673	0.449
15.7081	0.427
15.7488	0.408
15.7896	0.402
15.8303	0.396
15.871	0.4
