Infrared Spectrum: 6-Methylchrysene
Formula: C 19 H 14
CAS: 1705-85-7
State: gas
Instrument: HP-GC/MS/IRD
Origin: NIST Mass Spectrometry Data Center
1/CM	ABSORBANCE
550	0.0009135
562	0.001356
574	0.000624
586	0.0005175
598	0.00042
610	0.0002205
622	0.000282
634	0.0002445
646	0.0009045
658	0.000534
670	0.000429
682	0.001194
694	0.000351
706	0.000285
718	0.0004425
730	0.0007515
742	0.0047655
754	0.015
766	0.004596
778	0.001068
790	0.0007455
802	0.0013425
814	0.004119
826	0.0011925
838	0.000372
850	0.0004575
862	0.001644
874	0.0020625
886	0.000675
898	0.000204
910	0.0001155
922	0.000186
934	0.0002235
946	0.0002955
958	0.000138
970	9.9e-05
982	0.0002025
994	0.000246
1006	0.0002805
1018	0.0005865
1030	0.0016785
1042	0.000825
1054	0.0001695
1066	7.2e-05
1078	2.25e-05
1090	5.1e-05
1102	0.000162
1114	0.000126
1126	0.0001425
1138	0.0002355
1150	0.000429
1162	0.0004335
1174	0.000378
1186	0.000588
1198	0.0007005
1210	0.000552
1222	0.000708
1234	0.0009195
1246	0.0011595
1258	0.0005535
1270	0.0002925
1282	0.0002865
1294	0.0002955
1306	0.000216
1318	0.00021
1330	0.0002055
1342	0.0002505
1354	0.000264
1366	0.0003435
1378	0.000609
1390	0.00102
1402	0.001245
1414	0.001017
1426	0.0014565
1438	0.001635
1450	0.0012405
1462	0.0009645
1474	0.0009525
1486	0.001071
1498	0.000594
1510	0.00102
1522	0.001044
1534	0.0005715
1546	0.000318
1558	0.0002895
1570	0.0002895
1582	0.000555
1594	0.00135
1606	0.001458
1618	0.0009285
1630	0.000567
1642	0.0002565
1654	0.000216
1666	0.0002775
1678	0.0005235
1690	0.000603
1702	0.000492
1714	0.0004665
1726	0.0005265
1738	0.00045
1750	0.0006225
1762	0.0004425
1774	0.0002295
1786	0.0002925
1798	0.0004065
1810	0.0003855
1822	0.0004725
1834	0.0002775
1846	0.000114
1858	9.15e-05
1870	0.000168
1882	0.000396
1894	0.0004485
1906	0.000528
1918	0.000393
1930	0.000483
1942	0.00069
1954	0.000153
1966	4.8e-05
1978	4.2e-05
1990	3.9e-05
2002	4.2e-05
2014	4.35e-05
2026	3.75e-05
2038	2.55e-05
2050	3.6e-05
2062	4.05e-05
2074	4.95e-05
2086	5.55e-05
2098	4.35e-05
2110	2.7e-05
2122	1.65e-05
2134	3.3e-05
2146	2.7e-05
2158	2.7e-05
2170	1.5e-05
2182	4.95e-05
2194	3.9e-05
2206	1.5e-05
2218	3.15e-05
2230	2.7e-05
2242	4.2e-05
2254	3.45e-05
2266	1.65e-05
2278	5.55e-05
2290	4.8e-05
2302	7.65e-05
2314	8.25e-05
2326	6.9e-05
2338	7.5e-05
2350	3.75e-05
2362	5.1e-05
2374	4.8e-05
2386	4.65e-05
2398	4.65e-05
2410	3.6e-05
2422	4.65e-05
2434	3.9e-05
2446	7.05e-05
2458	5.4e-05
2470	4.95e-05
2482	8.7e-05
2494	9.75e-05
2506	7.8e-05
2518	5.1e-05
2530	5.85e-05
2542	4.65e-05
2554	4.8e-05
2566	4.5e-05
2578	3.3e-05
2590	6.6e-05
2602	6.45e-05
2614	4.2e-05
2626	4.35e-05
2638	4.35e-05
2650	4.5e-05
2662	4.2e-05
2674	2.55e-05
2686	3.15e-05
2698	6e-06
2710	3.75e-05
2722	4.8e-05
2734	7.5e-05
2746	0.000111
2758	0.000114
2770	3.75e-05
2782	2.7e-05
2794	7.05e-05
2806	8.25e-05
2818	0.0001185
2830	0.0001755
2842	0.000234
2854	0.0004185
2866	0.000708
2878	0.0009255
2890	0.0007875
2902	0.001074
2914	0.0013875
2926	0.0016125
2938	0.002223
2950	0.0016695
2962	0.001338
2974	0.0014955
2986	0.0014295
2998	0.000981
3010	0.001254
3022	0.0018735
3034	0.0024645
3046	0.0035745
3058	0.0048975
3070	0.0062835
3082	0.006264
3094	0.004695
3106	0.001914
3118	0.0008445
3130	0.0004815
3142	0.0002865
3154	0.000195
3166	0.0001575
3178	0.000123
3190	0.0001005
3202	0.0001215
3214	0.0001455
3226	6.9e-05
3238	4.8e-05
3250	1.05e-05
3262	2.7e-05
3274	3.75e-05
3286	3.15e-05
3298	1.8e-05
3310	4.8e-05
3322	1.05e-05
3334	2.1e-05
3346	1.8e-05
3358	5.1e-05
3370	1.95e-05
3382	1.2e-05
3394	7.05e-05
3406	1.8e-05
3418	3.3e-05
3430	5.4e-05
3442	4.2e-05
3454	3.45e-05
3466	7.05e-05
3478	8.1e-05
3490	9.3e-05
3502	2.55e-05
3514	5.25e-05
3526	9.45e-05
3538	0.000102
3550	8.85e-05
3562	7.5e-05
3574	5.55e-05
3586	0.000114
3598	5.85e-05
3610	0.0001665
3622	7.5e-06
3634	0.0001125
3646	6.75e-05
3658	6.75e-05
3670	8.7e-05
3682	9.3e-05
3694	5.1e-05
3706	9.75e-05
3718	0.0001305
3730	7.8e-05
3742	0.000141
3754	7.35e-05
3766	0.00012
3778	0.0001215
3790	9.6e-05
3802	0.0001125
3814	0.0001635
3826	0.0001185
3838	7.65e-05
