Infrared Spectrum: 2,4-DICHLOROPHENYL PROPARGYL ETHER
Formula: C9 H6 Cl2 O
CAS: 17061-90-4
State: SOLUTION (10% IN CCl4 FOR 3800-1300, 10% IN CS2 FOR 1300-650, AND 10% IN CCl4 FOR 650-250 CM^-^1) VERSUS SOLVENT
Class: COBLENTZ
Instrument: Not specified, most likely a prism, grating, or hybrid spectrometer.
Sampling: TRANSMISSION
Path length: 0.010, 0.010, AND 0.010 CM (CsBr CELL)
Resolution: 4
Origin: DOW CHEMICAL COMPANY
1/CM	TRANSMITTANCE
449.213	0.961
458.662	0.965
468.111	0.963
477.559	0.937
487.008	0.95
496.457	0.979
505.906	0.994
515.355	1.005
524.804	1.022
534.252	1.027
543.701	1.018
553.15	0.9022
562.599	0.974
572.048	1.033
581.497	1.042
590.945	1.016
600.394	1
609.843	0.965
619.292	0.7901
628.741	0.2951
638.19	0.187
647.638	0.5197
657.087	0.674
666.536	0.45
675.985	0.244
685.434	0.757
694.883	0.867
704.331	0.6851
713.78	0.468
723.229	0.876
732.678	0.966
742.127	0.937
751.575	0.6891
761.024	0.998
770.473	1.034
779.922	1.029
789.371	0.9092
798.82	0.3635
808.268	0.5579
817.717	0.856
827.166	0.814
836.615	0.194
846.064	0.86
855.513	0.803
864.961	0.509
874.41	0.6931
883.859	0.959
893.308	1.022
902.757	1.045
912.206	1.022
921.654	0.871
931.103	0.6295
940.552	1.003
950.001	1.04
959.45	1.027
968.898	0.977
978.347	0.961
987.796	0.8511
997.245	0.564
1006.69	0.512
1016.14	0.3579
1025.59	0.1118
1035.04	0.8379
1044.49	0.976
1053.94	0.744
1063.39	0.0201
1072.84	0.7633
1082.28	0.963
1091.73	0.8632
1101.18	0.378
1110.63	0.5901
1120.08	0.6758
1129.53	0.9459
1138.98	0.957
1148.43	1.014
1157.88	1.034
1167.32	1.075
1176.77	1.058
1186.22	1.044
1195.67	1.02
1205.12	0.968
1214.57	0.7751
1224.02	0.406
1233.47	0.023
1242.91	0.248
1252.36	0.222
1261.81	0.1781
1271.26	0.4213
1280.71	0.4831
1290.16	0.066
1299.61	0.4192
1309.06	0.9039
1318.51	0.966
1327.95	0.974
1337.4	0.957
1346.85	0.933
1356.3	0.873
1365.75	0.656
1375.2	0.74
1384.65	0.812
1394.1	0.5862
1403.54	0.998
1412.99	0.998
1422.44	0.924
1431.89	0.777
1441.34	0.775
1450.79	0.5445
1460.24	0.514
1469.69	0.0881
1479.14	0.009
1488.58	0.034
1498.03	0.3857
1507.48	0.6319
1516.93	0.731
1526.38	0.716
1535.83	0.643
1545.28	0.5181
1554.73	0.536
1564.17	0.582
1573.62	0.443
1583.07	0.516
1592.52	0.6519
1601.97	0.9039
1611.42	0.988
1620.87	1.025
1630.32	1.055
1639.77	1.082
1649.21	1.077
1658.66	1.068
1668.11	1.062
1677.56	1.058
1687.01	1.053
1696.46	1.049
1705.91	1.036
1715.36	1.034
1724.8	1.012
1734.25	0.976
1743.7	1.012
1753.15	1.036
1762.6	1.045
1772.05	1.049
1781.5	1.049
1790.95	1.045
1800.4	1.044
1809.84	1.049
1819.29	1.049
1828.74	1.044
1838.19	1.023
1847.64	0.985
1857.09	1.016
1866.54	1.033
1875.99	1.033
1885.43	1.042
1894.88	1.049
1904.33	1.049
1913.78	1.047
1923.23	1.044
1932.68	1.029
1942.13	1.025
1951.58	1.033
1961.03	1.042
1970.47	1.036
1979.92	1.034
1989.37	1.034
1998.82	1.012
2008.27	1.037
2017.72	1.034
2027.17	1.0312
2036.62	1.023
2046.06	1.0176
2055.51	1.0388
2064.96	1.045
2074.41	1.044
2083.86	1.034
2093.31	1.0406
2102.76	1.045
2112.21	1.0355
2121.66	0.9719
2131.1	0.8856
2140.55	1.0058
2150	1.0477
2159.45	1.0527
2168.9	1.051
2178.35	1.049
2187.8	1.049
2197.25	1.0472
2206.69	1.049
2216.14	1.047
2225.59	1.045
2235.04	1.044
2244.49	1.04
2253.94	1.0361
2263.39	1.034
2272.84	1.0312
2282.29	1.027
2291.73	1.0221
2301.18	1.02
2310.63	1.0246
2320.08	1.0327
2329.53	1.0344
2338.98	1.036
2348.43	1.038
2357.88	1.042
2367.32	1.045
2376.77	1.04
2386.22	1.04
2395.67	1.042
2405.12	1.038
2414.57	1.0367
2424.02	1.029
2433.47	1.025
2442.92	1.0209
2452.36	1.0088
2461.81	1.003
2471.26	1.0135
2480.71	1.0225
2490.16	1.023
2499.61	1.023
2509.06	1.0211
2518.51	1.0152
2527.95	1.014
2537.4	1.012
2546.85	1.0127
2556.3	1.0207
2565.75	1.025
2575.2	1.027
2584.65	1.025
2594.1	1.023
2603.55	1.023
2612.99	1.022
2622.44	1.02
2631.89	1.023
2641.34	1.023
2650.79	1.0217
2660.24	1.018
2669.69	1.0138
2679.14	1.0108
2688.59	1.009
2698.03	1.005
2707.48	0.998
2716.93	0.988
2726.38	0.981
2735.83	0.979
2745.28	0.9702
2754.73	0.9572
2764.18	0.952
2773.62	0.95
2783.07	0.9517
2792.52	0.954
2801.97	0.9586
2811.42	0.963
2820.87	0.9658
2830.32	0.9735
2839.77	0.9665
2849.22	0.9567
2858.66	0.9314
2868.11	0.8585
2877.56	0.8707
2887.01	0.9317
2896.46	0.9503
2905.91	0.9287
2915.36	0.8527
2924.81	0.7946
2934.25	0.8535
2943.7	0.9326
2953.15	0.9329
2962.6	0.9046
2972.05	0.9005
2981.5	0.9509
2990.95	0.9643
3000.4	0.9708
3009.85	0.979
3019.29	0.983
3028.74	0.9816
3038.19	0.9843
3047.64	0.99
3057.09	0.988
3066.54	0.9791
3075.99	0.937
3085.44	0.9729
3094.88	0.9794
3104.33	0.9908
3113.78	1.0027
3123.23	1.0123
3132.68	1.0183
3142.13	1.022
3151.58	1.02
3161.03	1.023
3170.48	1.0231
3179.92	1.0271
3189.37	1.027
3198.82	1.029
3208.27	1.033
3217.72	1.0271
3227.17	1.027
3236.62	1.025
3246.07	1.0232
3255.51	1.022
3264.96	1.0093
3274.41	0.9669
3283.86	0.9108
3293.31	0.7778
3302.76	0.6324
3312.21	0.047
3321.66	0.4528
3331.11	0.9396
3340.55	0.9899
3350	1.0051
3359.45	1.014
3368.9	1.018
3378.35	1.0226
3387.8	1.0262
3397.25	1.031
3406.7	1.033
3416.14	1.031
3425.59	1.029
3435.04	1.027
3444.49	1.025
3453.94	1.0241
3463.39	1.023
3472.84	1.022
3482.29	1.02
3491.74	1.02
3501.18	1.018
3510.63	1.0153
3520.08	1.012
3529.53	1.012
3538.98	1.0113
3548.43	1.014
3557.88	1.0135
3567.33	1.011
3576.77	1.007
3586.22	1.005
3595.67	1.003
3605.12	1.0027
3614.57	1
3624.02	0.998
3633.47	1
3642.92	1.001
3652.37	1.001
3661.81	1.001
3671.26	1
3680.71	0.998
3690.16	0.998
3699.61	0.996
3709.06	0.998
3718.51	1
3727.96	1.0009
3737.4	1.0028
3746.85	1.005
3756.3	1.005
3765.75	1.003
3775.2	1.001
3784.65	1
3794.1	0.998
