Infrared Spectrum: o-CHLOROPHENYL PROPARGYL ETHER
Formula: C9 H7 Cl O
CAS: 17061-92-6
State: SOLUTION (10% IN CCl4 FOR 3800-1330,AND 10% IN CS2 FOR 1330-400 CM^-^1) VERSUS SOLVENT
Class: COBLENTZ
Instrument: Not specified, most likely a prism, grating, or hybrid spectrometer.
Sampling: TRANSMISSION
Path length: 0.010 AND 0.010 CM
Resolution: 4
Origin: DOW CHEMICAL COMPANY
1/CM	TRANSMITTANCE
452.681	0.839
462.145	0.881
471.609	0.9
481.072	0.918
490.536	0.924
500	0.933
509.464	0.937
518.927	0.924
528.391	0.907
537.855	0.896
547.319	0.861
556.782	0.826
566.246	0.8979
575.71	0.924
585.174	0.913
594.638	0.88
604.101	0.8211
613.565	0.7601
623.029	0.4611
632.493	0.075
641.956	0.394
651.42	0.546
660.884	0.5141
670.348	0.108
679.811	0.298
689.275	0.3671
698.739	0.549
708.203	0.73
717.667	0.738
727.13	0.691
736.594	0.5639
746.058	0
755.522	0.4158
764.985	0.6949
774.449	0.848
783.913	0.852
793.377	0.739
802.84	0.795
812.304	0.865
821.768	0.863
831.232	0.815
840.695	0.785
850.159	0.758
859.623	0.734
869.087	0.769
878.551	0.802
888.014	0.841
897.478	0.872
906.942	0.857
916.406	0.802
925.869	0.3699
935.333	0.6949
944.797	0.837
954.261	0.841
963.724	0.809
973.188	0.76
982.652	0.774
992.116	0.6341
1001.58	0.472
1011.04	0.284
1020.51	0.0789
1029.97	0.1817
1039.43	0.3152
1048.9	0.4699
1058.36	0.4279
1067.83	0.0355
1077.29	0.6179
1086.75	0.664
1096.22	0.782
1105.68	0.856
1115.14	0.85
1124.61	0.7891
1134.07	0.5752
1143.54	0.821
1153	0.841
1162.46	0.557
1171.93	0.839
1181.39	0.861
1190.85	0.857
1200.32	0.822
1209.78	0.7339
1219.25	0.2911
1228.71	0.06
1238.17	0.101
1247.64	0.114
1257.1	0.2299
1266.57	0.405
1276.03	0.1421
1285.49	0.254
1294.96	0.2209
1304.42	0.3223
1313.88	0.73
1323.35	0.791
1332.81	0.817
1342.28	0.802
1351.74	0.797
1361.2	0.778
1370.67	0.573
1380.13	0.647
1389.59	0.904
1399.06	0.933
1408.52	0.916
1417.99	0.904
1427.45	0.898
1436.91	0.821
1446.38	0.285
1455.84	0.142
1465.3	0.595
1474.77	0.3348
1484.23	0.005
1493.7	0.2912
1503.16	0.555
1512.62	0.575
1522.09	0.664
1531.55	0.632
1541.01	0.5249
1550.48	0.468
1559.94	0.498
1569.41	0.533
1578.87	0.3019
1588.33	0.2148
1597.8	0.4569
1607.26	0.826
1616.72	0.909
1626.19	0.957
1635.65	0.983
1645.12	1.007
1654.58	0.994
1664.04	0.974
1673.51	0.955
1682.97	0.957
1692.43	0.97
1701.9	0.974
1711.36	0.97
1720.83	0.977
1730.29	0.981
1739.75	0.976
1749.22	0.968
1758.68	0.94
1768.14	0.937
1777.61	0.972
1787.07	0.97
1796.54	0.963
1806	0.959
1815.46	0.97
1824.93	0.972
1834.39	0.97
1843.85	0.957
1853.32	0.94
1862.78	0.966
1872.25	0.974
1881.71	0.961
1891.17	0.905
1900.64	0.961
1910.1	0.963
1919.57	0.959
1929.03	0.926
1938.49	0.961
1947.96	0.972
1957.42	0.981
1966.88	0.981
1976.35	0.979
1985.81	0.974
1995.28	0.97
2004.74	0.95
2014.2	0.9293
2023.67	0.9329
2033.13	0.9401
2042.59	0.9352
2052.06	0.9415
2061.52	0.961
2070.99	0.959
2080.45	0.9553
2089.91	0.952
2099.38	0.9626
2108.84	0.963
2118.3	0.941
2127.77	0.7955
2137.23	0.917
2146.7	0.9603
2156.16	0.972
2165.62	0.9733
2175.09	0.979
2184.55	0.983
2194.01	0.983
2203.48	0.983
2212.94	0.9819
2222.41	0.9799
2231.87	0.9765
2241.33	0.971
2250.8	0.9651
2260.26	0.9601
2269.72	0.9517
2279.19	0.942
2288.65	0.9468
2298.12	0.9507
2307.58	0.9537
2317.04	0.953
2326.51	0.9556
2335.97	0.9686
2345.43	0.972
2354.9	0.972
2364.36	0.9695
2373.83	0.9656
2383.29	0.9684
2392.75	0.9743
2402.22	0.9773
2411.68	0.979
2421.14	0.977
2430.61	0.9769
2440.07	0.976
2449.54	0.9738
2459	0.968
2468.46	0.972
2477.93	0.974
2487.39	0.976
2496.85	0.9741
2506.32	0.9681
2515.78	0.968
2525.25	0.9642
2534.71	0.9631
2544.17	0.963
2553.64	0.9627
2563.1	0.966
2572.57	0.9594
2582.03	0.959
2591.49	0.9625
2600.96	0.9637
2610.42	0.9767
2619.88	0.979
2629.35	0.981
2638.81	0.9777
2648.28	0.981
2657.74	0.987
2667.2	0.983
2676.67	0.983
2686.13	0.9821
2695.59	0.9841
2705.06	0.981
2714.52	0.981
2723.99	0.974
2733.45	0.976
2742.91	0.9779
2752.38	0.9798
2761.84	0.981
2771.3	0.9837
2780.77	0.981
2790.23	0.983
2799.7	0.983
2809.16	0.9767
2818.62	0.972
2828.09	0.972
2837.55	0.97
2847.01	0.9654
2856.48	0.9454
2865.94	0.8798
2875.41	0.7933
2884.87	0.8749
2894.33	0.9118
2903.8	0.9119
2913.26	0.8729
2922.72	0.8045
2932.19	0.7748
2941.65	0.8565
2951.12	0.928
2960.58	0.9151
2970.04	0.8681
2979.51	0.9153
2988.97	0.9708
2998.43	0.9724
3007.9	0.9645
3017.36	0.9525
3026.83	0.9207
3036.29	0.9176
3045.75	0.9342
3055.22	0.8975
3064.68	0.8216
3074.14	0.76
3083.61	0.8557
3093.07	0.9296
3102.54	0.9584
3112	0.9849
3121.46	0.9933
3130.93	0.998
3140.39	1.0006
3149.85	1.001
3159.32	1.001
3168.78	1.001
3178.25	1.003
3187.71	1.003
3197.17	1.005
3206.64	1.005
3216.1	1.005
3225.57	1.005
3235.03	1.0042
3244.49	1.001
3253.96	0.9973
3263.42	0.9837
3272.88	0.9599
3282.35	0.9237
3291.81	0.841
3301.28	0.6449
3310.74	0.2296
3320.2	0.0837
3329.67	0.6866
3339.13	0.9359
3348.59	0.9747
3358.06	0.9883
3367.52	0.9986
3376.99	1.0072
3386.45	1.0122
3395.91	1.018
3405.38	1.02
3414.84	1.02
3424.3	1.02
3433.77	1.018
3443.23	1.0141
3452.7	1.0121
3462.16	1.012
3471.62	1.009
3481.09	1.007
3490.55	1.005
3500.01	1.003
3509.48	1.001
3518.94	1.001
3528.41	1.001
3537.87	1
3547.33	1
3556.8	1
3566.26	0.998
3575.72	0.9946
3585.19	0.99
3594.65	0.9953
3604.12	1
3613.58	1
3623.04	0.9968
3632.51	0.996
3641.97	0.994
3651.43	0.993
3660.9	0.995
3670.36	0.996
3679.83	0.996
3689.29	0.996
3698.75	0.996
3708.22	0.996
3717.68	0.994
3727.14	0.994
3736.61	0.992
3746.07	0.99
3755.54	0.99
3765	0.99
3774.46	0.99
3783.93	0.99
3793.39	0.99
