Infrared Spectrum: MORPHOLINE, 3-METHYL-2-PHENYL-, HYDROCHLORIDE
Formula: C11 H16 Cl N O
CAS: 1707-14-8
State: SOLID (OIL MULL)
Class: COBLENTZ III
Instrument: PERKIN-ELMER 21 (GRATING)
Instrument parameters: NaCl PRISM
Sampling: TRANSMISSION
Resolution: 2
Origin: SMITH KLINE & FRENCH LABS.
MICROMETERS	TRANSMITTANCE
2.011	0.201
2.04509	0.201
2.07918	0.201
2.11328	0.204
2.14737	0.207
2.18146	0.212
2.21555	0.215
2.24964	0.213
2.28374	0.213
2.31783	0.212
2.35192	0.214
2.38601	0.22
2.4201	0.221
2.4542	0.226
2.48829	0.223
2.52238	0.23
2.55647	0.235
2.59057	0.236
2.62466	0.253
2.65875	0.258
2.69284	0.263
2.72693	0.27
2.76103	0.288
2.79512	0.3
2.82921	0.313
2.8633	0.32
2.89739	0.33
2.93149	0.333
2.96558	0.339
2.99967	0.35
3.03376	0.355
3.06785	0.373
3.10195	0.381
3.13604	0.391
3.17013	0.392
3.20422	0.398
3.23831	0.395
3.27241	0.368
3.3065	0.345
3.34059	0.232
3.37468	0.11
3.40878	0.052
3.44287	0.033
3.47696	0.03
3.51105	0.031
3.54514	0.05
3.57924	0.071
3.61333	0.075
3.64742	0.069
3.68151	0.064
3.7156	0.059
3.7497	0.058
3.78379	0.055
3.81788	0.054
3.85197	0.059
3.88606	0.078
3.92016	0.098
3.95425	0.111
3.98834	0.112
4.02243	0.1
4.05652	0.089
4.09062	0.08
4.12471	0.09
4.1588	0.101
4.19289	0.107
4.22698	0.121
4.26108	0.129
4.29517	0.144
4.32926	0.203
4.36335	0.236
4.39745	0.264
4.43154	0.27
4.46563	0.301
4.49972	0.312
4.53381	0.312
4.56791	0.334
4.602	0.341
4.63609	0.35
4.67018	0.351
4.70427	0.372
4.73837	0.397
4.77246	0.4
4.80655	0.41
4.84064	0.413
4.87473	0.413
4.90883	0.423
4.94292	0.4
4.97701	0.398
5.0111	0.406
5.04519	0.42
5.07929	0.442
5.11338	0.45
5.14747	0.467
5.18156	0.471
5.21566	0.48
5.24975	0.487
5.28384	0.483
5.31793	0.482
5.35202	0.492
5.38612	0.495
5.42021	0.499
5.4543	0.505
5.48839	0.515
5.52248	0.52
5.55658	0.528
5.59067	0.538
5.62476	0.547
5.65885	0.551
5.69294	0.552
5.72704	0.558
5.76113	0.56
5.79522	0.55
5.82931	0.547
5.8634	0.56
5.8975	0.567
5.93159	0.569
5.96568	0.561
5.99977	0.564
6.03387	0.568
6.06796	0.57
6.10205	0.574
6.13614	0.574
6.17023	0.568
6.20433	0.566
6.23842	0.58
6.27251	0.596
6.3066	0.575
6.34069	0.54
6.37479	0.561
6.40888	0.569
6.44297	0.574
6.47706	0.574
6.51115	0.575
6.54525	0.576
6.57934	0.579
6.61343	0.581
6.64752	0.566
6.68161	0.473
6.71571	0.461
6.7498	0.44
6.78389	0.301
6.81798	0.083
6.85207	0.072
6.88617	0.071
6.92026	0.099
6.95435	0.249
6.98844	0.392
7.02254	0.483
7.05663	0.526
7.09072	0.55
7.12481	0.55
7.1589	0.52
7.193	0.353
7.22709	0.192
7.26118	0.179
7.29527	0.28
7.32936	0.398
7.36346	0.463
7.39755	0.473
7.43164	0.392
7.46573	0.329
7.49982	0.511
7.53392	0.549
7.56801	0.551
7.6021	0.533
7.63619	0.545
7.67028	0.576
7.70438	0.574
7.73847	0.573
7.77256	0.574
7.80665	0.585
7.84075	0.444
7.87484	0.54
7.90893	0.587
7.94302	0.444
7.97711	0.516
8.01121	0.631
8.0453	0.66
8.07939	0.663
8.11348	0.598
8.14757	0.46
8.18167	0.608
8.21576	0.66
8.24985	0.638
8.28394	0.549
8.31803	0.653
8.35213	0.68
8.38622	0.706
8.42031	0.726
8.4544	0.724
8.48849	0.706
8.52259	0.723
8.55668	0.726
8.59077	0.72
8.62486	0.712
8.65895	0.699
8.69305	0.68
8.72714	0.698
8.76123	0.699
8.79532	0.601
8.82942	0.6
8.86351	0.672
8.8976	0.7
8.93169	0.71
8.96578	0.678
8.99988	0.553
9.03397	0.364
9.06806	0.438
9.10215	0.449
9.13624	0.227
9.17034	0.08
9.20443	0.071
9.23852	0.081
9.27261	0.236
9.3067	0.28
9.3408	0.323
9.37489	0.43
9.40898	0.509
9.44307	0.579
9.47716	0.623
9.51126	0.65
9.54535	0.669
9.57944	0.69
9.61353	0.71
9.64763	0.717
9.68172	0.609
9.71581	0.47
9.7499	0.561
9.78399	0.649
9.81809	0.688
9.85218	0.713
9.88627	0.724
9.92036	0.732
9.95445	0.717
9.98855	0.503
10.0226	0.535
10.0567	0.379
10.0908	0.301
10.1249	0.517
10.159	0.629
10.1931	0.67
10.2272	0.698
10.2613	0.707
10.2954	0.689
10.3295	0.539
10.3636	0.187
10.3977	0.178
10.4317	0.379
10.4658	0.567
10.4999	0.652
10.534	0.682
10.5681	0.712
10.6022	0.728
10.6363	0.735
10.6704	0.735
10.7045	0.72
10.7386	0.615
10.7727	0.608
10.8068	0.701
10.8408	0.747
10.8749	0.753
10.909	0.741
10.9431	0.581
10.9772	0.51
11.0113	0.661
11.0454	0.718
11.0795	0.705
11.1136	0.59
11.1477	0.586
11.1818	0.664
11.2159	0.726
11.25	0.75
11.284	0.699
11.3181	0.656
11.3522	0.757
11.3863	0.78
11.4204	0.808
11.4545	0.818
11.4886	0.821
11.5227	0.825
11.5568	0.838
11.5909	0.852
11.625	0.86
11.6591	0.869
11.6931	0.87
11.7272	0.871
11.7613	0.871
11.7954	0.867
11.8295	0.819
11.8636	0.666
11.8977	0.539
11.9318	0.513
11.9659	0.641
12	0.723
12.0341	0.762
12.0682	0.791
12.1023	0.801
12.1363	0.804
12.1704	0.831
12.2045	0.84
12.2386	0.848
12.2727	0.849
12.3068	0.853
12.3409	0.858
12.375	0.859
12.4091	0.861
12.4432	0.863
12.4773	0.864
12.5114	0.87
12.5455	0.871
12.5795	0.871
12.6136	0.866
12.6477	0.861
12.6818	0.858
12.7159	0.852
12.75	0.848
12.7841	0.831
12.8182	0.813
12.8523	0.8
12.8864	0.768
12.9205	0.749
12.9546	0.729
12.9886	0.693
13.0227	0.618
13.0568	0.526
13.0909	0.41
13.125	0.313
13.1591	0.21
13.1932	0.178
13.2273	0.18
13.2614	0.235
13.2955	0.34
13.3296	0.459
13.3637	0.579
13.3978	0.642
13.4318	0.675
13.4659	0.709
13.5	0.74
13.5341	0.758
13.5682	0.763
13.6023	0.766
13.6364	0.768
13.6705	0.768
13.7046	0.768
13.7387	0.768
13.7728	0.758
13.8069	0.741
13.841	0.733
13.875	0.718
13.9091	0.711
13.9432	0.722
13.9773	0.739
14.0114	0.747
14.0455	0.755
14.0796	0.755
14.1137	0.749
14.1478	0.73
14.1819	0.661
14.216	0.579
14.2501	0.5
14.2841	0.379
14.3182	0.266
14.3523	0.203
14.3864	0.168
14.4205	0.17
14.4546	0.237
14.4887	0.333
14.5228	0.464
14.5569	0.562
14.591	0.629
14.6251	0.673
14.6592	0.72
14.6933	0.752
14.7273	0.762
14.7614	0.783
14.7955	0.797
14.8296	0.806
14.8637	0.81
14.8978	0.813
14.9319	0.814
14.966	0.803
