Infrared Spectrum: Diphenyl phosphinic acid
Formula: C12 H11 O2 P
CAS: 1707-03-5
State: SOLID (SPLIT MULL) DRY BOX, N2 ATMOSPHERE
Class: COBLENTZ II
Instrument: DOW KBr FOREPRISM-GRATING
Instrument parameters: BLAZED AT 3.5, 12.0, 20.0 MICRON AND CHANGED AT 5.0, 7.5, 14.9 MICRON
Sampling: TRANSMISSION
Resolution: 2
Origin: DOW CHEMICAL COMPANY
1/CM	TRANSMITTANCE
3800	0.8682
3791	0.8692
3782	0.8707
3773	0.8706
3764	0.8698
3755	0.8705
3746	0.881
3737	0.8807
3728	0.8791
3719	0.8771
3710	0.8745
3701	0.8739
3692	0.8778
3683	0.8806
3674	0.8821
3665	0.8818
3656	0.8816
3647	0.8814
3638	0.8812
3629	0.8812
3620	0.8817
3611	0.8845
3602	0.8887
3593	0.8909
3584	0.8907
3575	0.8904
3566	0.8902
3557	0.89
3548	0.8899
3539	0.8897
3530	0.8898
3521	0.89
3512	0.8903
3503	0.8905
3494	0.891
3485	0.8913
3476	0.8921
3467	0.8934
3458	0.8946
3449	0.8955
3440	0.8965
3431	0.8975
3422	0.8989
3413	0.8997
3404	0.9005
3395	0.9002
3386	0.8998
3377	0.8978
3368	0.896
3359	0.894
3350	0.8931
3341	0.8921
3332	0.8913
3323	0.8908
3314	0.8905
3305	0.8903
3296	0.8909
3287	0.8908
3278	0.8899
3269	0.89
3260	0.8903
3251	0.8903
3242	0.8902
3233	0.8902
3224	0.891
3215	0.8916
3206	0.892
3197	0.8923
3188	0.8925
3179	0.8927
3170	0.8928
3161	0.8928
3152	0.8928
3143	0.893
3134	0.8934
3125	0.8925
3116	0.8913
3107	0.8905
3098	0.89
3089	0.8867
3080	0.8431
3071	0.8168
3062	0.8391
3053	0.8239
3044	0.8368
3035	0.8502
3026	0.8554
3017	0.8568
3008	0.8528
2999	0.8528
2990	0.856
2981	0.8602
2972	0.8633
2963	0.8651
2954	0.8662
2945	0.865
2936	0.8614
2927	0.857
2918	0.8542
2909	0.8518
2900	0.8497
2891	0.8478
2882	0.8461
2873	0.844
2864	0.8417
2855	0.8392
2846	0.8367
2837	0.8341
2828	0.8313
2819	0.8281
2810	0.825
2801	0.8218
2792	0.8189
2783	0.8157
2774	0.8125
2765	0.8093
2756	0.8061
2747	0.8026
2738	0.7991
2729	0.7953
2720	0.7915
2711	0.788
2702	0.7856
2693	0.7838
2684	0.7821
2675	0.7806
2666	0.7793
2657	0.7778
2648	0.7764
2639	0.7743
2630	0.7722
2621	0.7706
2612	0.7665
2603	0.7674
2594	0.7669
2585	0.7671
2576	0.7674
2567	0.768
2558	0.7689
2549	0.77
2540	0.7715
2531	0.7732
2522	0.7756
2513	0.7783
2504	0.7814
2495	0.7844
2486	0.7855
2477	0.7861
2468	0.7865
2459	0.7867
2450	0.7868
2441	0.7868
2432	0.785
2423	0.7818
2414	0.778
2405	0.7745
2396	0.7728
2387	0.7717
2378	0.7703
2369	0.7688
2360	0.7671
2351	0.7658
2342	0.7654
2333	0.7641
2324	0.7628
2315	0.7526
2306	0.7428
2297	0.736
2288	0.7296
2279	0.7249
2270	0.7215
2261	0.7186
2252	0.7171
2243	0.7162
2234	0.7161
2225	0.7158
2216	0.7164
2207	0.7157
2198	0.714
2189	0.7128
2180	0.7119
2171	0.7111
2162	0.7107
2153	0.7101
2144	0.7099
2135	0.7097
2126	0.7096
2117	0.7111
2108	0.713
2099	0.7162
2090	0.7194
2081	0.7219
2072	0.7245
2063	0.7268
2054	0.7293
2045	0.7315
2036	0.7328
2027	0.7348
2018	0.7372
2009	0.7394
2000	0.7575
1991	0.7665
1982	0.764
1973	0.7657
1964	0.7701
1955	0.7784
1946	0.7821
1937	0.7828
1928	0.7833
1919	0.781
1910	0.7761
1901	0.7644
1892	0.7661
1883	0.774
1874	0.7711
1865	0.7662
1856	0.761
1847	0.7558
1838	0.7487
1829	0.7381
1820	0.7203
1811	0.7085
1802	0.6995
1793	0.6838
1784	0.6674
1775	0.6488
1766	0.6277
1757	0.6084
1748	0.59
1739	0.5736
1730	0.5598
1721	0.5482
1712	0.5388
1703	0.5297
1694	0.5223
1685	0.5178
1676	0.521
1667	0.5288
1658	0.5374
1649	0.5453
1640	0.551
1631	0.5674
1622	0.5772
1613	0.5854
1604	0.601
1595	0.6
1586	0.5844
1577	0.6327
1568	0.6581
1559	0.6571
1550	0.6636
1541	0.6724
1532	0.6857
1523	0.7011
1514	0.7138
1505	0.7306
1496	0.7448
1487	0.7372
1478	0.7506
1469	0.7824
1460	0.7912
1451	0.8019
1442	0.2932
1433	0.6377
1424	0.7525
1415	0.7833
1406	0.7936
1397	0.7951
1388	0.834
1379	0.8496
1370	0.8442
1361	0.8392
1352	0.828
1343	0.7922
1334	0.7806
1325	0.7901
1316	0.7757
1307	0.7725
1298	0.7871
1289	0.7951
1280	0.8024
1271	0.8024
1262	0.8086
1253	0.8092
1244	0.8047
1235	0.7944
1226	0.7808
1217	0.7675
1208	0.7465
1199	0.5469
1190	0.2858
1181	0.252
1172	0.3988
1163	0.6236
1154	0.4594
1145	0.5157
1136	0.3475
1127	0.3479
1118	0.4089
1109	0.6381
1100	0.6551
1091	0.6508
1082	0.6367
1073	0.5247
1064	0.5251
1055	0.5412
1046	0.5482
1037	0.5593
1028	0.4965
1019	0.5258
1010	0.432
1001	0.3771
992	0.3448
983	0.2963
974	0.2408
965	0.1056
956	0.2015
947	0.388
938	0.5057
929	0.5042
920	0.5806
911	0.63
902	0.6572
893	0.6825
884	0.7148
875	0.741
866	0.7175
857	0.7575
848	0.7834
839	0.7969
830	0.8083
821	0.8174
812	0.8262
803	0.8347
794	0.8427
785	0.8496
776	0.8536
767	0.8459
758	0.6299
749	0.864
740	0.7825
731	0.1429
722	0.7815
713	0.8743
704	0.4451
695	0.2247
686	0.8354
677	0.888
668	0.898
659	0.9103
650	0.9146
641	0.9144
632	0.9108
623	0.9059
614	0.9006
605	0.8946
596	0.8883
587	0.881
578	0.8684
569	0.7395
560	0.3596
551	0.2734
542	0.7404
533	0.4082
524	0.3471
515	0.6749
506	0.7042
497	0.6926
488	0.7632
479	0.834
470	0.8633
461	0.8758
452	0.8746
443	0.7918
434	0.5455
425	0.7093
416	0.7997
407	0.8048
398	0.8051
389	0.8057
