Infrared Spectrum: Pyridine, 2-(methylsulfonly)-
Formula: C6 H7 N O2 S
CAS: 17075-14-8
State: SOLUTION, SATURATED (CCl4 FOR 3800-1350, CS2 FOR 1350-400)
Class: COBLENTZ III
Instrument: BECKMAN IR-9 (GRATING)
Instrument parameters: ORDER CHANGES: 670, 1200, 2000 CM^-^1
Sampling: TRANSMISSION
Path length: 0.011 CM, 0.012 CM
Resolution: 2
Origin: DOW CHEMICAL COMPANY
1/CM	TRANSMITTANCE
3818	0.9293
3809	0.9304
3800	0.9312
3791	0.9267
3782	0.9259
3773	0.9274
3764	0.9271
3755	0.9265
3746	0.9251
3737	0.9249
3728	0.922
3719	0.9185
3710	0.9185
3701	0.9199
3692	0.9196
3683	0.9194
3674	0.9198
3665	0.9201
3656	0.9199
3647	0.9192
3638	0.9182
3629	0.9077
3620	0.916
3611	0.9161
3602	0.9044
3593	0.9082
3584	0.9132
3575	0.913
3566	0.9133
3557	0.9139
3548	0.9152
3539	0.9149
3530	0.9156
3521	0.9146
3512	0.9143
3503	0.9139
3494	0.9136
3485	0.9134
3476	0.9131
3467	0.9128
3458	0.9126
3449	0.9123
3440	0.9121
3431	0.9118
3422	0.9116
3413	0.9114
3404	0.9118
3395	0.9121
3386	0.9123
3377	0.9121
3368	0.9119
3359	0.9117
3350	0.9115
3341	0.9116
3332	0.9132
3323	0.9147
3314	0.9164
3305	0.9188
3296	0.9192
3287	0.9207
3278	0.9222
3269	0.9231
3260	0.9234
3251	0.9233
3242	0.9231
3233	0.9225
3224	0.9216
3215	0.9209
3206	0.9199
3197	0.9206
3188	0.9204
3179	0.9189
3170	0.9172
3161	0.9172
3152	0.917
3143	0.9147
3134	0.9148
3125	0.9139
3116	0.9077
3107	0.9017
3098	0.8963
3089	0.8853
3080	0.86
3071	0.8154
3062	0.821
3053	0.8606
3044	0.8852
3035	0.8896
3026	0.8916
3017	0.8987
3008	0.9072
2999	0.9179
2990	0.9214
2981	0.9213
2972	0.9221
2963	0.923
2954	0.9119
2945	0.8969
2936	0.8973
2927	0.9187
2918	0.9176
2909	0.9178
2900	0.9184
2891	0.9189
2882	0.9194
2873	0.9223
2864	0.9252
2855	0.9293
2846	0.9328
2837	0.9349
2828	0.9357
2819	0.9373
2810	0.9374
2801	0.9389
2792	0.9386
2783	0.9379
2774	0.9379
2765	0.937
2756	0.9348
2747	0.9329
2738	0.9325
2729	0.9332
2720	0.9339
2711	0.9342
2702	0.9339
2693	0.9329
2684	0.9324
2675	0.9324
2666	0.9327
2657	0.9344
2648	0.9344
2639	0.9334
2630	0.9331
2621	0.9341
2612	0.9347
2603	0.9351
2594	0.9355
2585	0.9351
2576	0.935
2567	0.935
2558	0.9351
2549	0.9353
2540	0.936
2531	0.9369
2522	0.9364
2513	0.9346
2504	0.9323
2495	0.9304
2486	0.9295
2477	0.9314
2468	0.9344
2459	0.9369
2450	0.9355
2441	0.9327
2432	0.933
2423	0.9349
2414	0.9365
2405	0.9379
2396	0.9381
2387	0.9379
2378	0.9392
2369	0.9374
2360	0.9356
2351	0.9357
2342	0.933
2333	0.9294
2324	0.9282
2315	0.9243
2306	0.9197
2297	0.9165
2288	0.9127
2279	0.9128
2270	0.9174
2261	0.923
2252	0.9279
2243	0.9317
2234	0.9356
2225	0.9398
2216	0.9412
2207	0.9415
2198	0.9419
2189	0.9411
2180	0.9415
2171	0.9426
2162	0.9417
2153	0.9417
2144	0.9421
2135	0.9425
2126	0.9426
2117	0.942
2108	0.9416
2099	0.9409
2090	0.9404
2081	0.9398
2072	0.9393
2063	0.9386
2054	0.939
2045	0.9373
2036	0.9364
2027	0.9348
2018	0.9329
2009	0.9305
2000	0.9265
1991	0.9247
1982	0.9306
1973	0.9282
1964	0.9244
1955	0.9299
1946	0.9331
1937	0.9337
1928	0.9301
1919	0.9317
1910	0.9298
1901	0.9274
1892	0.9249
1883	0.9256
1874	0.9237
1865	0.9183
1856	0.9257
1847	0.9314
1838	0.9324
1829	0.932
1820	0.9332
1811	0.9357
1802	0.9326
1793	0.9326
1784	0.9339
1775	0.9333
1766	0.9327
1757	0.9322
1748	0.9299
1739	0.9285
1730	0.9287
1721	0.9258
1712	0.9246
1703	0.9128
1694	0.8995
1685	0.8766
1676	0.8872
1667	0.8997
1658	0.9009
1649	0.9033
1640	0.905
1631	0.9003
1622	0.8954
1613	0.8782
1604	0.8567
1595	0.8423
1586	0.7323
1577	0.4298
1568	0.6374
1559	0.6221
1550	0.634
1541	0.669
1532	0.713
1523	0.7422
1514	0.7949
1505	0.825
1496	0.8453
1487	0.8662
1478	0.892
1469	0.8783
1460	0.8582
1451	0.6556
1442	0.8759
1433	0.808
1424	0.4939
1415	0.8029
1406	0.8227
1397	0.8477
1388	0.9017
1379	0.9067
1370	0.9176
1361	0.9076
1352	0.8959
1343	0.8466
1334	0.7334
1325	0.2945
1316	0.1658
1307	0.3827
1298	0.6947
1289	0.8454
1280	0.884
1271	0.9086
1262	0.9167
1253	0.9083
1244	0.9023
1235	0.9289
1226	0.9346
1217	0.9392
1208	0.937
1199	0.9268
1190	0.912
1181	0.8789
1172	0.6167
1163	0.344
1154	0.8249
1145	0.7593
1136	0.8733
1127	0.8379
1118	0.4382
1109	0.7342
1100	0.9053
1091	0.9014
1082	0.7776
1073	0.8915
1064	0.9137
1055	0.906
1046	0.8968
1037	0.89
1028	0.9187
1019	0.9301
1010	0.9313
1001	0.9161
992	0.8165
983	0.9124
974	0.918
965	0.8813
956	0.7395
947	0.7443
938	0.9182
929	0.9298
920	0.9314
911	0.9327
902	0.9265
893	0.9193
884	0.9001
875	0.8754
866	0.8507
857	0.8294
848	0.8246
839	0.8945
830	0.9243
821	0.9283
812	0.9287
803	0.9167
794	0.8879
785	0.7519
776	0.7434
767	0.7709
758	0.4408
749	0.6866
740	0.8687
731	0.8894
722	0.9195
713	0.799
704	0.9098
695	0.9232
686	0.9269
677	0.9316
668	0.9347
659	0.8899
650	0.8969
641	0.9183
632	0.9305
623	0.9332
614	0.8649
605	0.9413
596	0.9449
587	0.9426
578	0.9414
569	0.938
560	0.9292
551	0.9054
542	0.7856
533	0.1854
524	0.5323
515	0.8384
506	0.8694
497	0.8667
488	0.8402
479	0.8002
470	0.7848
461	0.78
452	0.7585
443	0.7212
434	0.6464
425	0.5389
416	0.3582
407	0.1326
