Infrared Spectrum: 2-Chloro-6-fluorobenzyl mercaptan
Formula: C 7 H 6 Cl F S
CAS: 170924-52-4
State: gas
Origin: EPA-IR VAPOR PHASE LIBRARY
1/CM	ABSORBANCE
549.8	0.002414
559.445	0.002124
569.09	0.001614
578.735	0.001304
588.38	0.0009607
598.025	0.001144
607.67	0.001614
617.315	0.003124
626.96	0.004474
636.605	0.002784
646.251	0.001864
655.896	0.002604
665.541	0.004464
675.186	0.011194
684.831	0.017964
694.476	0.009614
704.121	0.003494
713.766	0.003564
723.411	0.006544
733.056	0.010324
742.701	0.009314
752.346	0.009664
761.991	0.020404
771.636	0.043744
781.281	0.056894
790.926	0.030274
800.571	0.009594
810.216	0.006264
819.861	0.006154
829.507	0.004504
839.152	0.004024
848.797	0.005234
858.442	0.008914
868.087	0.020314
877.732	0.038924
887.377	0.044434
897.022	0.031224
906.667	0.020424
916.312	0.016774
925.957	0.014454
935.602	0.011234
945.247	0.008924
954.892	0.009384
964.537	0.012134
974.182	0.021964
983.827	0.034184
993.472	0.027524
1003.12	0.011704
1012.76	0.006544
1022.41	0.005114
1032.05	0.004294
1041.7	0.003314
1051.34	0.003334
1060.99	0.004354
1070.63	0.003574
1080.28	0.002314
1089.92	0.002304
1099.57	0.002474
1109.21	0.003154
1118.86	0.005124
1128.5	0.010094
1138.15	0.011864
1147.79	0.008284
1157.44	0.005594
1167.08	0.004544
1176.73	0.009494
1186.37	0.019384
1196.02	0.017664
1205.66	0.010214
1215.31	0.008214
1224.95	0.008244
1234.6	0.019994
1244.24	0.053844
1253.89	0.068794
1263.53	0.038894
1273.18	0.012134
1282.82	0.005074
1292.47	0.003674
1302.11	0.002394
1311.76	0.001904
1321.4	0.001854
1331.05	0.002474
1340.69	0.003184
1350.34	0.002704
1359.98	0.001744
1369.63	0.001374
1379.27	0.001474
1388.92	0.001914
1398.56	0.002514
1408.21	0.003294
1417.85	0.005784
1427.5	0.013964
1437.14	0.033214
1446.79	0.073814
1456.43	0.104844
1466.08	0.076894
1475.73	0.028244
1485.37	0.008024
1495.02	0.005294
1504.66	0.005764
1514.31	0.007384
1523.95	0.008664
1533.6	0.008334
1543.24	0.007714
1552.89	0.010224
1562.53	0.022094
1572.18	0.047774
1581.82	0.057714
1591.47	0.038004
1601.11	0.032814
1610.76	0.020864
1620.4	0.007474
1630.05	0.003154
1639.69	0.002164
1649.34	0.002054
1658.98	0.002184
1668.63	0.001934
1678.27	0.001604
1687.92	0.001594
1697.56	0.001384
1707.21	0.001194
1716.85	0.0010621
1726.5	0.0010814
1736.14	0.00098
1745.79	0.001474
1755.43	0.002744
1765.08	0.002594
1774.72	0.001124
1784.37	0.0007324
1794.01	0.0005789
1803.66	0.0006391
1813.3	0.000748
1822.95	0.001174
1832.59	0.002634
1842.24	0.002674
1851.88	0.001254
1861.53	0.000786
1871.17	0.0008495
1880.82	0.0007752
1890.46	0.0007729
1900.11	0.001384
1909.75	0.003414
1919.4	0.003844
1929.04	0.001524
1938.69	0.0005636
1948.33	0.0005045
1957.98	0.0004415
1967.62	0.0005182
1977.27	0.0005131
1986.91	0.0004667
1996.56	0.0004375
2006.2	0.0004269
2015.85	0.0004464
2025.49	0.0005249
2035.14	0.0004786
2044.78	0.0003935
2054.43	0.0003749
2064.07	0.0004986
2073.72	0.0005782
2083.36	0.0006052
2093.01	0.0005412
2102.65	0.0005374
2112.3	0.0006386
2121.94	0.0007236
2131.59	0.0008351
2141.23	0.0006909
2150.88	0.0004554
2160.52	0.0004423
2170.17	0.000318
2179.81	0.0003465
2189.46	0.000403
2199.1	0.0004601
2208.75	0.0005005
2218.39	0.0005227
2228.04	0.0005014
2237.68	0.0004252
2247.33	0.0003061
2256.97	0.0004077
2266.62	0.0004692
2276.26	0.0004911
2285.91	0.0004956
2295.55	0.0004888
2305.2	0.0006327
2314.84	0.0006036
2324.49	0.0005021
2334.13	0.0005417
2343.78	0.0005678
2353.42	0.000479
2363.07	0.0004054
2372.72	0.0003921
2382.36	0.00048
2392.01	0.0004134
2401.65	0.0003918
2411.3	0.0003642
2420.94	0.0004885
2430.59	0.0006139
2440.23	0.0008113
2449.88	0.0007427
2459.52	0.0006626
2469.17	0.0005756
2478.81	0.0006315
2488.46	0.0008895
2498.1	0.0010375
2507.75	0.0007875
2517.39	0.0006633
2527.04	0.000493
2536.68	0.000462
2546.33	0.0004544
2555.97	0.0003082
2565.62	0.0003352
2575.26	0.0004493
2584.91	0.0008519
2594.55	0.001224
2604.2	0.0007195
2613.84	0.0003215
2623.49	0.000259
2633.13	0.0003318
2642.78	0.0004946
2652.42	0.0004834
2662.07	0.0004313
2671.71	0.0004357
2681.36	0.0005126
2691	0.0006521
2700.65	0.0006824
2710.29	0.0005581
2719.94	0.0003403
2729.58	0.0003264
2739.23	0.0002738
2748.87	0.0004037
2758.52	0.0001152
2768.16	0.0001946
2777.81	0.000131902
2787.45	0.00013526
2797.1	9.18e-05
2806.74	4.22e-05
2816.39	6.26e-05
2826.03	0
2835.68	0.00019679
2845.32	0.00049
2854.97	0.0005682
2864.61	0.0004326
2874.26	0.0003196
2883.9	0.0002366
2893.55	0.00014583
2903.19	0.00015022
2912.84	2.55e-05
2922.48	0.00022295
2932.13	0.0006738
2941.77	0.001584
2951.42	0.002634
2961.06	0.004094
2970.71	0.006184
2980.35	0.004094
2990	0.001784
2999.64	0.0010838
3009.29	0.001344
3018.93	0.001404
3028.58	0.0010652
3038.22	0.0009124
3047.87	0.0010518
3057.51	0.001744
3067.16	0.003554
3076.8	0.006824
3086.45	0.007364
3096.09	0.004334
3105.74	0.001214
3115.38	0.0004812
3125.03	0.0003802
3134.67	0.000309
3144.32	0.0003791
3153.96	0.0005317
3163.61	0.0004006
3173.25	9.96e-05
3182.9	0.00014402
3192.54	0.000326
3202.19	0.00021744
3211.83	0.0002282
3221.48	0.00014727
3231.12	0.0002383
3240.77	0.00014552
3250.41	0.00018502
3260.06	0.0003169
3269.7	0.000364
3279.35	0.0003549
3289	0.0004331
3298.64	0.0003294
3308.29	0.0003306
3317.93	0.0002983
3327.58	0.0003562
3337.22	0.0002037
3346.87	0.0003955
3356.51	0.0003973
3366.16	0.000326
3375.8	0.0004508
3385.45	0.0002983
3395.09	0.0004947
3404.74	0.0004712
3414.38	0.0004016
3424.03	0.0003891
3433.67	0.0004482
3443.32	0.0003669
3452.96	0.0004764
3462.61	0.0004245
3472.25	0.0005765
3481.9	0.0003804
3491.54	0.0004437
3501.19	0.000471
3510.83	0.0004476
3520.48	0.0004077
3530.12	0.0002776
3539.77	0.0004617
3549.41	0.0005541
3559.06	0.0006998
3568.7	0.000769
3578.35	0.0008205
3587.99	0.0006401
3597.64	0.0005929
3607.28	0.0005523
3616.93	0.000541
3626.57	0.0005831
3636.22	0.0005314
3645.86	0.0005294
3655.51	0.0004797
3665.15	0.0004081
3674.8	0.0004797
3684.44	0.0006688
3694.09	0.000492
3703.73	0.0004515
3713.38	0.0005361
3723.02	0.0005218
3732.67	0.000593
3742.31	0.00055
3751.96	0.0005624
3761.6	0.0004926
3771.25	0.0004394
3780.89	0.000355
3790.54	0.0004606
3800.18	0.0004654
3809.83	0.0005163
3819.47	0.0004422
3829.12	0.0005599
3838.76	0.0003981
3848.41	0.000502
3858.05	0.0003393
3867.7	0.0004317
3877.34	0.0007268
3886.99	0.0005691
3896.63	0.0007943
3906.28	0.0006886
3915.92	0.0005859
3925.57	0.0004707
3935.21	0.0005852
3944.86	0.0004356
3954.5	0.0005198
3964.15	0.0005987
3973.79	0.0005903
3983.44	0.0005955
3993.08	0.0004598
