Infrared Spectrum: N^l,N^l-DIETHYLSULFANILAMIDE
Formula: C10 H16 N2 O2 S
CAS: 1709-39-3
State: SOLID (MINERAL OIL MULL)
Melting point: 105-106 C
Class: COBLENTZ
Instrument: Not specified, most likely a prism, grating, or hybrid spectrometer.
Sampling: TRANSMISSION
Resolution: 4
Origin: WYANDOTTE CHEMICALS CORP., WYANDOTTE, MICHIGAN, USA
MICROMETERS	TRANSMITTANCE
2.012	0.451
2.04912	0.453
2.08624	0.458
2.12336	0.459
2.16048	0.456
2.1976	0.445
2.23472	0.454
2.27184	0.461
2.30896	0.472
2.34608	0.47
2.3832	0.472
2.42032	0.482
2.45744	0.486
2.49456	0.498
2.53168	0.509
2.5688	0.523
2.60592	0.521
2.64304	0.526
2.68016	0.534
2.71728	0.538
2.7544	0.537
2.79152	0.515
2.82864	0.389
2.86576	0.19
2.90288	0.357
2.94	0.422
2.97712	0.22
3.01424	0.333
3.05136	0.414
3.08848	0.368
3.1256	0.425
3.16272	0.45
3.19984	0.439
3.23696	0.422
3.27408	0.375
3.3112	0.195
3.34832	0.054
3.38544	0.038
3.42256	0.055
3.45968	0.072
3.4968	0.116
3.53392	0.44
3.57104	0.555
3.60816	0.602
3.64528	0.602
3.6824	0.588
3.71952	0.585
3.75664	0.596
3.79376	0.597
3.83088	0.613
3.868	0.645
3.90512	0.666
3.94224	0.681
3.97936	0.684
4.01648	0.686
4.0536	0.687
4.09072	0.683
4.12784	0.675
4.16496	0.678
4.20208	0.684
4.2392	0.659
4.27632	0.661
4.31344	0.695
4.35056	0.725
4.38768	0.739
4.4248	0.734
4.46192	0.732
4.49904	0.746
4.53616	0.732
4.57328	0.74
4.6104	0.751
4.64752	0.762
4.68464	0.763
4.72176	0.75
4.75888	0.765
4.796	0.771
4.83312	0.782
4.87024	0.795
4.90736	0.798
4.94448	0.801
4.9816	0.815
5.01872	0.822
5.05584	0.813
5.09296	0.819
5.13008	0.824
5.1672	0.827
5.20432	0.821
5.24144	0.795
5.27856	0.793
5.31568	0.854
5.3528	0.868
5.38992	0.899
5.42704	0.891
5.46416	0.9
5.50128	0.906
5.53841	0.909
5.57553	0.911
5.61265	0.891
5.64977	0.913
5.68689	0.942
5.72401	0.951
5.76113	0.958
5.79825	0.951
5.83537	0.94
5.87249	0.962
5.90961	0.956
5.94673	0.931
5.98385	0.855
6.02097	0.69
6.05809	0.403
6.09521	0.122
6.13233	0.181
6.16945	0.402
6.20657	0.113
6.24369	0.105
6.28081	0.248
6.31793	0.358
6.35505	0.475
6.39217	0.577
6.42929	0.586
6.46641	0.65
6.50353	0.677
6.54065	0.669
6.57777	0.579
6.61489	0.197
6.65201	0.265
6.68913	0.413
6.72625	0.38
6.76337	0.186
6.80049	0.094
6.83761	0.113
6.87473	0.147
6.91185	0.209
6.94897	0.332
6.98609	0.507
7.02321	0.582
7.06033	0.616
7.09745	0.633
7.13457	0.605
7.17169	0.419
7.20881	0.169
7.24593	0.175
7.28305	0.27
7.32017	0.279
7.35729	0.225
7.39441	0.184
7.43153	0.173
7.46865	0.172
7.50577	0.201
7.54289	0.173
7.58001	0.057
7.61713	0.027
7.65425	0.027
7.69137	0.049
7.72849	0.069
7.76561	0.178
7.80273	0.332
7.83985	0.437
7.87697	0.504
7.91409	0.565
7.95121	0.596
7.98833	0.622
8.02545	0.652
8.06257	0.664
8.09969	0.659
8.13681	0.655
8.17393	0.631
8.21105	0.582
8.24817	0.5
8.28529	0.265
8.32241	0.1
8.35953	0.206
8.39665	0.371
8.43377	0.222
8.47089	0.212
8.50801	0.24
8.54513	0.253
8.58225	0.218
8.61937	0.121
8.65649	0.038
8.69361	0.027
8.73073	0.029
8.76785	0.038
8.80497	0.057
8.84209	0.096
8.87921	0.184
8.91633	0.267
8.95345	0.309
8.99057	0.293
9.02769	0.251
9.06481	0.242
9.10193	0.175
9.13905	0.066
9.17617	0.099
9.21329	0.178
9.25041	0.184
9.28753	0.231
9.32465	0.288
9.36177	0.295
9.39889	0.344
9.43601	0.442
9.47313	0.498
9.51025	0.532
9.54737	0.548
9.58449	0.552
9.62161	0.535
9.65873	0.484
9.69585	0.414
9.73297	0.305
9.77009	0.204
9.80721	0.114
9.84433	0.082
9.88145	0.093
9.91857	0.153
9.95569	0.226
9.99281	0.352
10.0299	0.451
10.0671	0.503
10.1042	0.543
10.1413	0.579
10.1784	0.594
10.2155	0.599
10.2527	0.596
10.2898	0.597
10.3269	0.596
10.364	0.596
10.4011	0.6
10.4383	0.596
10.4754	0.571
10.5125	0.501
10.5496	0.475
10.5867	0.461
10.6239	0.355
10.661	0.22
10.6981	0.111
10.7352	0.09
10.7723	0.097
10.8095	0.113
10.8466	0.164
10.8837	0.25
10.9208	0.33
10.9579	0.408
10.9951	0.467
11.0322	0.504
11.0693	0.532
11.1064	0.552
11.1435	0.572
11.1807	0.58
11.2178	0.59
11.2549	0.593
11.292	0.604
11.3291	0.61
11.3663	0.608
11.4034	0.613
11.4405	0.613
11.4776	0.618
11.5147	0.622
11.5519	0.619
11.589	0.621
11.6261	0.618
11.6632	0.618
11.7003	0.616
11.7375	0.604
11.7746	0.593
11.8117	0.569
11.8488	0.538
11.8859	0.445
11.9231	0.318
11.9602	0.175
11.9973	0.079
12.0344	0.063
12.0715	0.127
12.1087	0.263
12.1458	0.358
12.1829	0.409
12.22	0.409
12.2571	0.417
12.2943	0.461
12.3314	0.473
12.3685	0.475
12.4056	0.464
12.4427	0.447
12.4799	0.419
12.517	0.377
12.5541	0.329
12.5912	0.285
12.6283	0.228
12.6655	0.186
12.7026	0.183
12.7397	0.215
12.7768	0.24
12.8139	0.254
12.8511	0.291
12.8882	0.364
12.9253	0.43
12.9624	0.479
12.9995	0.517
13.0367	0.532
13.0738	0.548
13.1109	0.566
13.148	0.577
13.1851	0.585
13.2223	0.586
13.2594	0.585
13.2965	0.583
13.3336	0.58
13.3707	0.577
13.4079	0.571
13.445	0.565
13.4821	0.546
13.5192	0.513
13.5563	0.487
13.5935	0.459
13.6306	0.423
13.6677	0.361
13.7048	0.288
13.7419	0.214
13.7791	0.119
13.8162	0.072
13.8533	0.059
13.8904	0.066
13.9275	0.105
13.9647	0.203
14.0018	0.324
14.0389	0.36
14.076	0.281
14.1131	0.175
14.1503	0.11
14.1874	0.08
14.2245	0.074
14.2616	0.08
14.2987	0.1
14.3359	0.131
14.373	0.166
14.4101	0.197
14.4472	0.231
14.4843	0.282
14.5215	0.312
14.5586	0.349
14.5957	0.375
14.6328	0.394
14.6699	0.408
14.7071	0.433
14.7442	0.448
14.7813	0.47
14.8184	0.482
14.8555	0.492
14.8927	0.5
14.9298	0.509
14.9669	0.512
15.004	0.513
15.0411	0.501
15.0783	0.479
15.1154	0.475
15.1525	0.478
15.1896	0.481
15.2267	0.487
15.2639	0.475
15.301	0.448
15.3381	0.423
15.3752	0.399
15.4123	0.374
15.4495	0.372
15.4866	0.4
15.5237	0.448
15.5608	0.481
15.5979	0.504
15.6351	0.518
15.6722	0.529
15.7093	0.523
15.7464	0.515
15.7835	0.496
15.8207	0.486
15.8578	0.5
15.8949	0.506
15.932	0.509
15.9691	0.509
