Infrared Spectrum: m-Toluyl chloride
Formula: C 8 H 7 Cl O
CAS: 1711-06-4
State: gas
Origin: EPA-IR VAPOR PHASE LIBRARY
1/CM	ABSORBANCE
549.8	0.0006032
559.445	0.0007061
569.09	0.0006869
578.734	0.0009967
588.379	0.0003383
598.024	0.0007735
607.669	0.0005671
617.313	0.001366
626.958	0.001876
636.603	0.001766
646.248	0.002826
655.893	0.009986
665.537	0.031556
675.182	0.032296
684.827	0.016786
694.472	0.020976
704.116	0.014996
713.761	0.006986
723.406	0.003416
733.051	0.003596
742.695	0.004646
752.34	0.008316
761.985	0.024486
771.63	0.048646
781.275	0.041016
790.919	0.030986
800.564	0.041146
810.209	0.034336
819.854	0.015116
829.498	0.008056
839.143	0.005136
848.788	0.003516
858.433	0.002866
868.078	0.002956
877.722	0.003146
887.367	0.004066
897.012	0.005216
906.657	0.007486
916.301	0.014296
925.946	0.025896
935.591	0.031586
945.236	0.031426
954.88	0.023146
964.525	0.007986
974.17	0.006046
983.815	0.007966
993.46	0.009786
1003.1	0.009086
1012.75	0.005666
1022.39	0.002816
1032.04	0.002356
1041.68	0.002386
1051.33	0.001896
1060.97	0.002656
1070.62	0.002356
1080.26	0.002866
1089.91	0.003136
1099.55	0.003396
1109.2	0.003766
1118.84	0.004056
1128.49	0.006906
1138.13	0.018506
1147.78	0.045806
1157.42	0.047056
1167.07	0.020826
1176.71	0.009746
1186.36	0.006046
1196	0.003666
1205.64	0.003036
1215.29	0.004346
1224.93	0.011056
1234.58	0.031656
1244.22	0.036796
1253.87	0.013316
1263.51	0.004876
1273.16	0.003736
1282.8	0.003306
1292.45	0.003036
1302.09	0.002936
1311.74	0.003266
1321.38	0.003016
1331.03	0.001956
1340.67	0.001596
1350.32	0.001756
1359.96	0.001686
1369.61	0.001796
1379.25	0.002206
1388.9	0.002786
1398.54	0.002666
1408.18	0.003416
1417.83	0.005256
1427.47	0.006036
1437.12	0.005746
1446.76	0.004766
1456.41	0.004176
1466.05	0.004336
1475.7	0.006336
1485.34	0.007036
1494.99	0.004896
1504.63	0.002876
1514.28	0.002446
1523.92	0.002276
1533.57	0.001996
1543.21	0.001836
1552.86	0.001616
1562.5	0.002216
1572.15	0.004226
1581.79	0.006376
1591.44	0.006736
1601.08	0.006166
1610.73	0.005166
1620.37	0.003096
1630.01	0.001916
1639.66	0.001366
1649.3	0.0011035
1658.95	0.0009483
1668.59	0.001326
1678.24	0.001436
1687.88	0.001776
1697.53	0.002496
1707.17	0.004216
1716.82	0.006336
1726.46	0.007846
1736.11	0.009646
1745.75	0.012626
1755.4	0.018686
1765.04	0.039006
1774.69	0.082526
1784.33	0.095846
1793.98	0.056756
1803.62	0.020166
1813.27	0.010816
1822.91	0.009156
1832.55	0.005576
1842.2	0.003036
1851.84	0.002386
1861.49	0.002166
1871.13	0.001776
1880.78	0.001616
1890.42	0.001886
1900.07	0.001986
1909.71	0.001636
1919.36	0.001386
1929	0.001406
1938.65	0.001496
1948.29	0.001486
1957.94	0.001246
1967.58	0.0007854
1977.23	0.0005422
1986.87	0.0004492
1996.52	0.0004236
2006.16	0.0004412
2015.81	0.0004009
2025.45	0.0004854
2035.1	0.0004011
2044.74	0.0005055
2054.38	0.0004184
2064.03	0.0004176
2073.67	0.0005777
2083.32	0.0005974
2092.96	0.0005586
2102.61	0.0005198
2112.25	0.0003385
2121.9	0.0004153
2131.54	0.00028451
2141.19	0.00028987
2150.83	0.0003668
2160.48	0.0004433
2170.12	0.000515
2179.77	0.0004977
2189.41	0.0006008
2199.06	0.000369
2208.7	0.00027736
2218.35	0.000403
2227.99	0.0004222
2237.64	0.0005315
2247.28	0.0004212
2256.92	0.0003783
2266.57	0.0003389
2276.21	0.0003517
2285.86	0.0004191
2295.5	0.0003908
2305.15	0.0003644
2314.79	0.00033564
2324.44	0.0004068
2334.08	0.0003979
2343.73	0.0004306
2353.37	0.0004319
2363.02	0.0004689
2372.66	0.0003382
2382.31	0.0006128
2391.95	0.000584
2401.6	0.0005253
2411.24	0.000398
2420.89	0.0003696
2430.53	0.0003899
2440.18	0.0003322
2449.82	0.0003685
2459.47	0.00027848
2469.11	0.0004437
2478.75	0.0005208
2488.4	0.0003848
2498.04	0.0003845
2507.69	0.0004717
2517.33	0.0005321
2526.98	0.00025157
2536.62	0.0003402
2546.27	0.0003943
2555.91	0.0003933
2565.56	0.0003908
2575.2	0.0004926
2584.85	0.0005962
2594.49	0.0004475
2604.14	0.0003334
2613.78	0.00029039
2623.43	0.0003841
2633.07	0.00030509
2642.72	0.00026691
2652.36	0.00033586
2662.01	0.0001771
2671.65	0.00032153
2681.29	0.0003884
2690.94	0.0004615
2700.58	0.0004447
2710.23	0.0005705
2719.87	0.0004897
2729.52	0.000404
2739.16	0.0006942
2748.81	0.0008235
2758.45	0.000511
2768.1	0.000386
2777.74	0.0004528
2787.39	0.0004266
2797.03	0.0004604
2806.68	0.0005126
2816.32	0.0006881
2825.97	0.0007844
2835.61	0.0010487
2845.26	0.0011687
2854.9	0.001336
2864.55	0.002436
2874.19	0.003476
2883.84	0.003356
2893.48	0.003066
2903.12	0.003446
2912.77	0.004136
2922.41	0.005946
2932.06	0.008096
2941.7	0.007276
2951.35	0.005006
2960.99	0.003266
2970.64	0.002806
2980.28	0.002366
2989.93	0.002616
2999.57	0.003336
3009.22	0.003886
3018.86	0.004546
3028.51	0.005576
3038.15	0.006146
3047.8	0.005746
3057.44	0.005906
3067.09	0.006416
3076.73	0.005326
3086.38	0.003406
3096.02	0.002466
3105.67	0.002066
3115.31	0.001266
3124.95	0.0008836
3134.6	0.0007044
3144.24	0.000334
3153.89	0.0004995
3163.53	0.0003615
3173.18	0.0006136
3182.82	0.000603
3192.47	0.0004487
3202.11	0.0004918
3211.76	0.0002126
3221.4	0.0003282
3231.05	0.000386
3240.69	0.0004316
3250.34	0.0002461
3259.98	0.000357
3269.63	0.00030836
3279.27	0.0002178
3288.92	0.0001913
3298.56	0.00028588
3308.21	0.0004147
3317.85	0.000245946
3327.49	0.00026863
3337.14	0.00028634
3346.78	0.0005431
3356.43	0.0003316
3366.07	0.0005374
3375.72	0.0004218
3385.36	0.00030621
3395.01	0.0004707
3404.65	0.0003676
3414.3	0.0004132
3423.94	0.0003714
3433.59	0.0004168
3443.23	0.000342
3452.88	0.0006088
3462.52	0.0004321
3472.17	0.0006064
3481.81	0.0006009
3491.46	0.0006525
3501.1	0.0006663
3510.75	0.0008278
3520.39	0.001219
3530.04	0.001246
3539.68	0.001386
3549.32	0.001316
3558.97	0.0011098
3568.61	0.0010258
3578.26	0.000713
3587.9	0.0006712
3597.55	0.0005618
3607.19	0.0004203
3616.84	0.0004701
3626.48	0.00029027
3636.13	0.00026032
3645.77	0.0005572
3655.42	5.3e-05
3665.06	0.0004285
3674.71	0.0004261
3684.35	0.0004424
3694	0.00033252
3703.64	0.000563
3713.29	0.00025526
3722.93	0.0003897
3732.58	0.00026264
3742.22	0.00029528
3751.86	0.0006212
3761.51	0.0005076
3771.15	0.0007504
3780.8	0.0003422
3790.44	0.0003303
3800.09	0.0001711
3809.73	0.000117
3819.38	0.0004615
3829.02	0.0003531
3838.67	0.0004786
3848.31	7.5e-05
3857.96	0.00028303
3867.6	0.0004934
3877.25	0.00032228
3886.89	0.0005255
3896.54	9e-05
3906.18	0.00025419
3915.83	0.0005134
3925.47	0.0002216
3935.12	0.000125
3944.76	0.000244105
3954.41	0.00025915
3964.05	0.0004498
3973.69	0.0004241
3983.34	0.0006519
3992.98	0.0003635
