Infrared Spectrum: 1-Naphthalenemethyl isothiocyanate
Formula: C 12 H 9 N S
CAS: 17112-82-2
State: gas
Origin: EPA-IR VAPOR PHASE LIBRARY
1/CM	ABSORBANCE
549.8	0.007426
559.445	0.007846
569.09	0.009846
578.734	0.010436
588.379	0.012036
598.024	0.009076
607.669	0.006916
617.313	0.005086
626.958	0.004896
636.603	0.005646
646.248	0.002876
655.893	0.002326
665.537	0.002406
675.182	0.003406
684.827	0.005906
694.472	0.009386
704.116	0.016176
713.761	0.015076
723.406	0.010526
733.051	0.013376
742.695	0.010766
752.34	0.012016
761.985	0.032236
771.63	0.080856
781.275	0.061956
790.919	0.038256
800.564	0.019946
810.209	0.008586
819.854	0.004316
829.498	0.002866
839.143	0.003316
848.788	0.005376
858.433	0.005106
868.078	0.005276
877.722	0.003926
887.367	0.002996
897.012	0.003186
906.657	0.002806
916.301	0.002746
925.946	0.003096
935.591	0.003676
945.236	0.004586
954.88	0.004446
964.525	0.003806
974.17	0.002916
983.815	0.002336
993.46	0.002476
1003.1	0.002826
1012.75	0.004406
1022.39	0.004396
1032.04	0.003886
1041.68	0.004676
1051.33	0.003836
1060.97	0.002786
1070.62	0.003216
1080.26	0.003236
1089.91	0.002626
1099.55	0.002546
1109.2	0.002376
1118.84	0.002576
1128.49	0.002686
1138.13	0.003606
1147.78	0.003626
1157.42	0.004306
1167.07	0.005866
1176.71	0.003966
1186.36	0.003086
1196	0.003036
1205.64	0.004096
1215.29	0.004626
1224.93	0.006956
1234.58	0.006626
1244.22	0.005996
1253.87	0.007786
1263.51	0.010186
1273.16	0.007136
1282.8	0.006066
1292.45	0.007056
1302.09	0.012016
1311.74	0.027766
1321.38	0.048066
1331.03	0.052356
1340.67	0.035426
1350.32	0.028556
1359.96	0.026306
1369.61	0.018106
1379.25	0.013626
1388.9	0.009216
1398.54	0.008966
1408.18	0.005036
1417.83	0.004476
1427.47	0.006006
1437.12	0.008896
1446.76	0.015346
1456.41	0.016036
1466.05	0.014346
1475.7	0.005186
1485.34	0.003566
1494.99	0.005226
1504.63	0.010376
1514.28	0.011586
1523.92	0.005106
1533.57	0.002506
1543.21	0.001636
1552.86	0.001646
1562.5	0.001866
1572.15	0.002526
1581.79	0.003006
1591.44	0.004326
1601.08	0.005486
1610.73	0.003216
1620.37	0.003076
1630.01	0.003466
1639.66	0.002686
1649.3	0.001996
1658.95	0.002056
1668.59	0.002596
1678.24	0.002986
1687.88	0.003306
1697.53	0.002886
1707.17	0.002366
1716.82	0.002436
1726.46	0.002636
1736.11	0.002636
1745.75	0.002536
1755.4	0.002546
1765.04	0.002536
1774.69	0.002236
1784.33	0.002626
1793.98	0.003646
1803.62	0.003946
1813.27	0.003396
1822.91	0.003286
1832.55	0.002996
1842.2	0.002976
1851.84	0.003676
1861.49	0.005056
1871.13	0.005186
1880.78	0.005446
1890.42	0.006716
1900.07	0.008396
1909.71	0.011176
1919.36	0.014056
1929	0.017026
1938.65	0.021256
1948.29	0.026166
1957.94	0.032416
1967.58	0.042286
1977.23	0.056556
1986.87	0.077026
1996.52	0.105936
2006.16	0.146236
2015.81	0.198056
2025.45	0.254266
2035.1	0.298356
2044.74	0.324166
2054.38	0.312966
2064.03	0.275106
2073.67	0.232146
2083.32	0.178856
2092.96	0.136336
2102.61	0.109686
2112.25	0.091206
2121.9	0.075976
2131.54	0.065256
2141.19	0.058146
2150.83	0.054146
2160.48	0.052826
2170.12	0.048126
2179.77	0.043876
2189.41	0.040106
2199.06	0.033336
2208.7	0.027406
2218.35	0.023346
2227.99	0.020436
2237.64	0.016746
2247.28	0.012976
2256.92	0.010196
2266.57	0.008316
2276.21	0.007046
2285.86	0.006046
2295.5	0.004906
2305.15	0.004136
2314.79	0.003606
2324.44	0.003236
2334.08	0.002986
2343.73	0.002706
2353.37	0.002406
2363.02	0.002146
2372.66	0.001996
2382.31	0.001866
2391.95	0.001696
2401.6	0.001616
2411.24	0.001626
2420.89	0.001626
2430.53	0.001546
2440.18	0.001476
2449.82	0.001351
2459.47	0.001406
2469.11	0.001436
2478.75	0.001526
2488.4	0.001596
2498.04	0.001626
2507.69	0.001756
2517.33	0.001856
2526.98	0.001926
2536.62	0.001996
2546.27	0.002046
2555.91	0.001816
2565.56	0.001856
2575.2	0.001846
2584.85	0.001806
2594.49	0.001566
2604.14	0.001576
2613.78	0.001586
2623.43	0.001576
2633.07	0.001636
2642.72	0.001626
2652.36	0.001806
2662.01	0.001846
2671.65	0.002116
2681.29	0.002296
2690.94	0.002336
2700.58	0.002526
2710.23	0.002596
2719.87	0.002876
2729.52	0.002966
2739.16	0.003276
2748.81	0.003436
2758.45	0.003546
2768.1	0.003726
2777.74	0.003746
2787.39	0.003716
2797.03	0.003346
2806.68	0.003096
2816.32	0.002746
2825.97	0.002586
2835.61	0.002586
2845.26	0.002676
2854.9	0.003106
2864.55	0.004156
2874.19	0.005286
2883.84	0.006766
2893.48	0.007216
2903.12	0.006776
2912.77	0.006536
2922.41	0.007556
2932.06	0.009016
2941.7	0.010276
2951.35	0.011996
2960.99	0.011956
2970.64	0.008076
2980.28	0.005346
2989.93	0.004206
2999.57	0.004946
3009.22	0.006486
3018.86	0.008116
3028.51	0.009196
3038.15	0.013036
3047.8	0.022546
3057.44	0.032426
3067.09	0.040126
3076.73	0.031756
3086.38	0.018776
3096.02	0.012136
3105.67	0.007496
3115.31	0.003166
3124.95	0.001476
3134.6	0.0010095
3144.24	0.0007421
3153.89	0.0006873
3163.53	0.0006955
3173.18	0.000786
3182.82	0.0008457
3192.47	0.0006538
3202.11	0.0004885
3211.76	0.00044385
3221.4	0.00039294
3231.05	0.0005212
3240.69	0.0002792
3250.34	0.0003083
3259.98	0.000266
3269.63	0.000248
3279.27	0.00011
3288.92	0.000258
3298.56	0.000243
3308.21	0.000202
3317.85	0.000221
3327.49	0.000157
3337.14	0.000118
3346.78	9.6e-05
3356.43	0.0002773
3366.07	0.000207
3375.72	0.00039248
3385.36	0.000109
3395.01	0.000174
3404.65	0.0003445
3414.3	0.000142
3423.94	0.000234
3433.59	0.00040702
3443.23	0.000185
3452.88	0.00043452
3462.52	0.0003123
3472.17	0.000196
3481.81	0.0003559
3491.46	0.000241
3501.1	0.0003149
3510.75	0.0003018
3520.39	0.00038676
3530.04	0.0003482
3539.68	0.0005597
3549.32	0.00039066
3558.97	0.00042577
3568.61	0.000366936
3578.26	0.0005447
3587.9	0.0002796
3597.55	0.0003452
3607.19	0.0002952
3616.84	0.00037709
3626.48	0.00038105
3636.13	0.00044024
3645.77	0.0004472
3655.42	0.00040822
3665.06	0.0005497
3674.71	0.000262
3684.35	0.00041655
3694	0.00045321
3703.64	0.0003474
3713.29	0.00043288
3722.93	0.0004954
3732.58	0.0004885
3742.22	0.0005648
3751.86	0.0003381
3761.51	0.0003278
3771.15	0.0006298
3780.8	0.0003447
3790.44	0.000621
3800.09	0.0005959
3809.73	0.0006289
3819.38	0.0007069
3829.02	0.000514
3838.67	0.0006676
3848.31	0.0009489
3857.96	0.0010328
3867.6	0.0008962
3877.25	0.0009212
3886.89	0.0008192
3896.54	0.0008899
3906.18	0.0009236
3915.83	0.0011751
3925.47	0.0011563
3935.12	0.0009926
3944.76	0.0010414
3954.41	0.001456
3964.05	0.0012178
3973.69	0.001396
3983.34	0.001486
3992.98	0.001616
