Infrared Spectrum: 3-Bromobenzoyl chloride
Formula: C 7 H 4 Br Cl O
CAS: 1711-09-7
State: gas
Instrument: HP-GC/MS/IRD
Origin: NIST Mass Spectrometry Data Center
1/CM	ABSORBANCE
550	0.0008756
562	0.0001393
574	0.0003781
586	0.0001393
598	0.0002587
610	0.0008955
622	0.0025074
634	0.0060695
646	0.016517
658	0.0131738
670	0.0122982
682	0.0361782
694	0.158304
706	0.0989826
718	0.0412925
730	0.0743464
742	0.027661
754	0.00796
766	0.0070446
778	0.0131738
790	0.0262879
802	0.0140494
814	0.0052138
826	0.0060098
838	0.005771
850	0.0082784
862	0.0155817
874	0.0260093
886	0.051939
898	0.103102
910	0.101669
922	0.0698689
934	0.0297704
946	0.0149648
958	0.0072834
970	0.0036815
982	0.0025273
994	0.0060695
1006	0.0051342
1018	0.0020099
1030	0.0023283
1042	0.0031641
1054	0.0056118
1066	0.0119599
1078	0.0173926
1090	0.0090943
1102	0.0061093
1114	0.0047959
1126	0.0043979
1138	0.0062088
1150	0.0143678
1162	0.0385264
1174	0.089749
1186	0.199
1198	0.116415
1210	0.0411731
1222	0.0196413
1234	0.0110246
1246	0.0052337
1258	0.0046566
1270	0.0060098
1282	0.0056914
1294	0.0055521
1306	0.0037611
1318	0.0017313
1330	0.0014726
1342	0.0020696
1354	0.0017313
1366	0.0018109
1378	0.0036019
1390	0.006766
1402	0.01393
1414	0.0291734
1426	0.0163976
1438	0.004975
1450	0.0052934
1462	0.0131937
1474	0.0181886
1486	0.0044974
1498	0.0016318
1510	0.001194
1522	0.001393
1534	0.0022885
1546	0.0065471
1558	0.0192632
1570	0.0282182
1582	0.0154225
1594	0.0075819
1606	0.0036417
1618	0.0027462
1630	0.0027263
1642	0.0020298
1654	0.0017114
1666	0.0015323
1678	0.0018905
1690	0.0028059
1702	0.0046566
1714	0.0065272
1726	0.0102684
1738	0.0192035
1750	0.0372727
1762	0.106445
1774	0.168871
1786	0.096117
1798	0.0545061
1810	0.0481978
1822	0.0253725
1834	0.0150245
1846	0.0099301
1858	0.0054327
1870	0.00398
1882	0.0038208
1894	0.0039402
1906	0.0022487
1918	0.0011343
1930	0.0009751
1942	0.001393
1954	0.001393
1966	0.0006368
1978	0.0002985
1990	0.0002786
2002	0.0001592
2014	0.0001393
2026	0.0001592
2038	0.0002189
2050	0.0002587
2062	0.000398
2074	0.0005771
2086	0.0007562
2098	0.0008955
2110	0.0005572
2122	0.000199
2134	9.95e-05
2146	5.97e-05
2158	0.0001194
2170	0.000199
2182	0.0002388
2194	0.0002587
2206	0.000199
2218	0.0001393
2230	5.97e-05
2242	3.98e-05
2254	3.98e-05
2266	7.96e-05
2278	0.0001194
2290	0.0001194
2302	9.95e-05
2314	9.95e-05
2326	0.0001791
2338	0.0004975
2350	0.0007562
2362	0.000796
2374	0.0007164
2386	0.0005174
2398	0.0002985
2410	0.0001393
2422	9.95e-05
2434	9.95e-05
2446	0.000199
2458	0.0002985
2470	0.0002985
2482	0.0002189
2494	0.0002388
2506	0.000199
2518	0.0002786
2530	0.0003383
2542	0.0003781
2554	0.0003383
2566	0.0003582
2578	0.0004179
2590	0.000398
2602	0.0002786
2614	0.0001592
2626	0.0001592
2638	0.000199
2650	0.0002786
2662	0.0003582
2674	0.0002388
2686	0.0002388
2698	0.000199
2710	0.0001592
2722	0.000199
2734	0.0003184
2746	0.0005771
2758	0.0008358
2770	0.0009353
2782	0.0006766
2794	0.0002786
2806	0.0001791
2818	0.0001592
2830	0.0001791
2842	0.0002587
2854	0.0002388
2866	0.0002786
2878	0.000199
2890	0.0001592
2902	7.96e-05
2914	0.0001393
2926	0.0002388
2938	0.000398
2950	0.0003383
2962	0.0004577
2974	0.000398
2986	0.0004179
2998	0.0004378
3010	0.0004975
3022	0.0006368
3034	0.0006169
3046	0.0006766
3058	0.0020099
3070	0.0062486
3082	0.0079003
3094	0.0030248
3106	0.0009154
3118	0.0004776
3130	0.0004975
3142	0.0005373
3154	0.0004179
3166	0.0003383
3178	0.000199
3190	0.0001592
3202	0.0001393
3214	0.0001592
3226	9.95e-05
3238	0.0001393
3250	0.0001194
3262	0.0001194
3274	7.96e-05
3286	7.96e-05
3298	7.96e-05
3310	5.97e-05
3322	0.0001194
3334	0.000199
3346	0.0002786
3358	0.0003184
3370	0.0003184
3382	0.0002587
3394	0.0002587
3406	0.0002587
3418	0.0002189
3430	0.0002786
3442	0.0002388
3454	0.0002189
3466	0.0003582
3478	0.0004975
3490	0.0006567
3502	0.0009552
3514	0.0019502
3526	0.0028258
3538	0.002388
3550	0.0016318
3562	0.0012537
3574	0.0009353
3586	0.0007761
3598	0.0006169
3610	0.0005174
3622	0.0004378
3634	0.0004577
3646	0.0003582
3658	0.0003781
3670	0.0003582
3682	0.0003184
3694	0.0003184
3706	0.0002786
3718	0.0003383
3730	0.0003184
3742	0.0004378
3754	0.0004577
3766	0.000398
3778	0.0003781
3790	0.0003383
3802	0.0002985
3814	0.0002985
3826	0.0002388
3838	0.0001791
