Infrared Spectrum: Ethyl 3-isothiocyanatopropionate
Formula: C 6 H 9 N O 2 S
CAS: 17126-62-4
State: gas
Origin: EPA-IR VAPOR PHASE LIBRARY
1/CM	ABSORBANCE
549.8	0.00184
559.445	0.00216
569.09	0.00166
578.735	0.00139
588.38	0.00157
598.025	0.00109
607.67	0.0008725
617.315	0.0006589
626.96	0.0006427
636.605	0.0008249
646.251	0.0009073
655.896	0.0011
665.541	0.00136
675.186	0.00136
684.831	0.0008877
694.476	0.0004404
704.121	0.0003335
713.766	0.0004079
723.411	0.0003516
733.056	0.0003269
742.701	0.0003287
752.346	0.0004288
761.991	0.0003116
771.636	0.0002606
781.281	0.000289
790.926	0.0003303
800.571	0.0003603
810.216	9.567e-05
819.861	0.0003604
829.507	0.0003437
839.152	0.0005611
848.797	0.00113
858.442	0.00154
868.087	0.00125
877.732	0.0009097
887.377	0.0008794
897.022	0.0007721
906.667	0.0007695
916.312	0.00119
925.957	0.00139
935.602	0.00151
945.247	0.00127
954.892	0.00108
964.537	0.00109
974.182	0.0009966
983.827	0.00111
993.472	0.00134
1003.12	0.00202
1012.76	0.00362
1022.41	0.00495
1032.05	0.00544
1041.7	0.0058
1051.34	0.00602
1060.99	0.00506
1070.63	0.00363
1080.28	0.00318
1089.92	0.00369
1099.57	0.00435
1109.21	0.00391
1118.86	0.00331
1128.5	0.0035
1138.15	0.00425
1147.79	0.00629
1157.44	0.01055
1167.08	0.01763
1176.73	0.02428
1186.37	0.02526
1196.02	0.01972
1205.66	0.01316
1215.31	0.01062
1224.95	0.01062
1234.6	0.01149
1244.24	0.01319
1253.89	0.01281
1263.53	0.0094
1273.18	0.00601
1282.82	0.00462
1292.47	0.00466
1302.11	0.00518
1311.76	0.0053
1321.4	0.00473
1331.05	0.00524
1340.69	0.00787
1350.34	0.01155
1359.98	0.0124
1369.63	0.01149
1379.27	0.01062
1388.92	0.00665
1398.56	0.00423
1408.21	0.00319
1417.85	0.00297
1427.5	0.00317
1437.14	0.00326
1446.79	0.00352
1456.43	0.00469
1466.08	0.00428
1475.73	0.00257
1485.37	0.00156
1495.02	0.00108
1504.66	0.0007591
1514.31	0.0005836
1523.95	0.0004309
1533.6	0.0003941
1543.24	0.0003723
1552.89	0.0003462
1562.53	0.0002871
1572.18	0.0004854
1581.82	0.0003295
1591.47	0.0003073
1601.11	0.0004056
1610.76	0.0004223
1620.4	0.0004487
1630.05	0.0004722
1639.69	0.0004995
1649.34	0.000512
1658.98	0.0004969
1668.63	0.0005095
1678.27	0.000666
1687.92	0.0008909
1697.56	0.00128
1707.21	0.00187
1716.85	0.00305
1726.5	0.00491
1736.14	0.00961
1745.79	0.01829
1755.43	0.02548
1765.08	0.0221
1774.72	0.01142
1784.37	0.00513
1794.01	0.00256
1803.66	0.00149
1813.3	0.0009972
1822.95	0.0008302
1832.59	0.0007049
1842.24	0.000661
1851.88	0.0006741
1861.53	0.0007576
1871.17	0.0008845
1880.82	0.0009146
1890.46	0.00113
1900.11	0.00125
1909.75	0.00155
1919.4	0.0019
1929.04	0.00217
1938.69	0.00276
1948.33	0.00341
1957.98	0.00438
1967.62	0.00566
1977.27	0.00754
1986.91	0.01024
1996.56	0.01398
2006.2	0.01919
2015.85	0.02575
2025.49	0.03366
2035.14	0.04251
2044.78	0.05102
2054.43	0.05719
2064.07	0.05656
2073.72	0.04665
2083.36	0.03272
2093.01	0.02283
2102.65	0.01753
2112.3	0.01427
2121.94	0.01183
2131.59	0.01002
2141.23	0.00897
2150.88	0.0082
2160.52	0.0074
2170.17	0.00657
2179.81	0.00602
2189.46	0.00561
2199.1	0.00578
2208.75	0.00587
2218.39	0.00547
2228.04	0.00431
2237.68	0.00324
2247.33	0.00236
2256.97	0.00182
2266.62	0.00148
2276.26	0.00134
2285.91	0.00107
2295.55	0.0009126
2305.2	0.0008473
2314.84	0.000689
2324.49	0.0006418
2334.13	0.0005154
2343.78	0.0005057
2353.42	0.0003798
2363.07	0.0004196
2372.72	0.000365
2382.36	0.0004185
2392.01	0.0002835
2401.65	0.0002279
2411.3	0.0001883
2420.94	0.0002377
2430.59	0.0002142
2440.23	0.0001443
2449.88	0.0001675
2459.52	0.0001884
2469.17	0.0001875
2478.81	0.0002135
2488.46	0.000306
2498.1	0.0002175
2507.75	0.0002735
2517.39	0.0003106
2527.04	0.0001674
2536.68	0.0003632
2546.33	0.0003144
2555.97	0.0003604
2565.62	0.0003197
2575.26	0.0001799
2584.91	0.0002059
2594.55	0.0001865
2604.2	0.0001984
2613.84	0.0003133
2623.49	0.0001335
2633.13	7.203e-05
2642.78	0.0001829
2652.42	0.0001986
2662.07	0.0002809
2671.71	0.0002212
2681.36	0.0002344
2691	0.0003612
2700.65	0.0005419
2710.29	0.0007134
2719.94	0.0007264
2729.58	0.00104
2739.23	0.00116
2748.87	0.00114
2758.52	0.0007092
2768.16	0.000621
2777.81	0.000546
2787.45	0.0004856
2797.1	0.0005551
2806.74	0.0005056
2816.39	0.0006137
2826.03	0.0004309
2835.68	0.0005911
2845.32	0.0004935
2854.97	0.0007438
2864.61	0.000787
2874.26	0.00118
2883.9	0.00174
2893.55	0.00227
2903.19	0.00217
2912.84	0.00218
2922.48	0.00248
2932.13	0.00312
2941.77	0.00466
2951.42	0.00548
2961.06	0.00526
2970.71	0.00534
2980.35	0.0064
2990	0.00685
2999.64	0.0047
3009.29	0.00317
3018.93	0.00197
3028.58	0.00128
3038.22	0.0008975
3047.87	0.0005133
3057.51	0.0006761
3067.16	0.0004491
3076.8	0.0004155
3086.45	0.0004363
3096.09	0.0006142
3105.74	0.0004566
3115.38	0.0005211
3125.03	0.0002806
3134.67	0.0005053
3144.32	0.0003807
3153.96	0.0003627
3163.61	0.0003147
3173.25	0.0003529
3182.9	0.0004257
3192.54	0.0003012
3202.19	0.0004344
3211.83	0.0005035
3221.48	0.0003932
3231.12	0.0003866
3240.77	0.0004732
3250.41	0.000605
3260.06	0.0006628
3269.7	0.0003748
3279.35	0.0004734
3289	0.0004536
3298.64	0.0003943
3308.29	0.0004771
3317.93	0.0003988
3327.58	0.000594
3337.22	0.0004853
3346.87	0.000539
3356.51	0.0006227
3366.16	0.0004434
3375.8	0.0006484
3385.45	0.0003699
3395.09	0.0005722
3404.74	0.0007312
3414.38	0.0006292
3424.03	0.0007776
3433.67	0.0005357
3443.32	0.0007798
3452.96	0.0008298
3462.61	0.0005885
3472.25	0.0006957
3481.9	0.000854
3491.54	0.0009046
3501.19	0.0008968
3510.83	0.00089
3520.48	0.0007898
3530.12	0.0006842
3539.77	0.0006286
3549.41	0.0006874
3559.06	0.0005412
3568.7	0.0007903
3578.35	0.0006985
3587.99	0.0007348
3597.64	0.0005481
3607.28	0.0006456
3616.93	0.0007877
3626.57	0.0008055
3636.22	0.0006193
3645.86	0.0008736
3655.51	0.0008589
3665.15	0.0007575
3674.8	0.0008802
3684.44	0.0009807
3694.09	0.0006538
3703.73	0.0006796
3713.38	0.000783
3723.02	0.0007345
3732.67	0.0005699
3742.31	0.0006427
3751.96	0.0006948
3761.6	0.0007794
3771.25	0.000848
3780.89	0.0006592
3790.54	0.0005863
3800.18	0.0007922
3809.83	0.0007807
3819.47	0.0007561
3829.12	0.0009476
3838.76	0.0007516
3848.41	0.0008551
3858.05	0.0009074
3867.7	0.0006627
3877.34	0.0007195
3886.99	0.0009066
3896.63	0.0007076
3906.28	0.0007756
3915.92	0.0008225
3925.57	0.0009452
3935.21	0.00101
3944.86	0.0009072
3954.5	0.0009178
3964.15	0.0009327
3973.79	0.0009234
3983.44	0.00108
3993.08	0.0008481
