Infrared Spectrum: STYRENE, p-METHOXY-Alpha-METHYL-
Formula: C10 H12 O
CAS: 1712-69-2
State: SOLID (NUJOL MULL)
Melting point: 32 C
Class: COBLENTZ III
Instrument: BECKMAN IR-7 (GRATING)
Instrument parameters: GRATING CHANGES AT 3000, 2000, 1150 CM^-^1
Sampling: TRANSMISSION
Resolution: 4
Origin: WESTERN REGIONAL RES. USDA
1/CM	TRANSMITTANCE
604.661	0.748
613.549	0.754
622.436	0.754
631.324	0.75
640.211	0.751
649.099	0.764
657.986	0.767
666.874	0.761
675.761	0.6341
684.649	0.727
693.536	0.766
702.424	0.783
711.311	0.782
720.199	0.765
729.086	0.756
737.974	0.75
746.861	0.678
755.749	0.762
764.636	0.776
773.524	0.779
782.412	0.775
791.299	0.768
800.187	0.698
809.074	0.605
817.962	0.71
826.849	0.4721
835.737	0.3045
844.624	0.6529
853.512	0.737
862.399	0.736
871.287	0.691
880.174	0.488
889.062	0.469
897.949	0.634
906.837	0.74
915.724	0.759
924.612	0.756
933.499	0.753
942.387	0.761
951.275	0.753
960.162	0.759
969.05	0.766
977.937	0.775
986.825	0.768
995.712	0.762
1004.6	0.744
1013.49	0.73
1022.37	0.7
1031.26	0.4861
1040.15	0.2769
1049.04	0.624
1057.92	0.729
1066.81	0.742
1075.7	0.744
1084.59	0.745
1093.47	0.743
1102.36	0.74
1111.25	0.701
1120.14	0.621
1129.03	0.743
1137.91	0.756
1146.8	0.744
1155.69	0.714
1164.58	0.685
1173.46	0.4361
1182.35	0.3178
1191.24	0.672
1200.13	0.73
1209.01	0.736
1217.9	0.707
1226.79	0.669
1235.68	0.513
1244.56	0.123
1253.45	0.2
1262.34	0.566
1271.23	0.587
1280.11	0.485
1289	0.349
1297.89	0.592
1306.78	0.5069
1315.66	0.537
1324.55	0.716
1333.44	0.731
1342.33	0.723
1351.21	0.704
1360.1	0.684
1368.99	0.592
1377.88	0.5199
1386.76	0.67
1395.65	0.723
1404.54	0.714
1413.43	0.679
1422.31	0.709
1431.2	0.623
1440.09	0.45
1448.98	0.442
1457.86	0.332
1466.75	0.361
1475.64	0.6019
1484.53	0.688
1493.41	0.695
1502.3	0.518
1511.19	0.1089
1520.08	0.555
1528.96	0.735
1537.85	0.77
1546.74	0.768
1555.63	0.757
1564.51	0.73
1573.4	0.646
1582.29	0.718
1591.18	0.677
1600.06	0.505
1608.95	0.357
1617.84	0.555
1626.73	0.536
1635.61	0.711
1644.5	0.761
1653.39	0.782
1662.28	0.783
1671.16	0.785
1680.05	0.788
1688.94	0.791
1697.83	0.793
1706.71	0.791
1715.6	0.791
1724.49	0.792
1733.38	0.794
1742.26	0.795
1751.15	0.796
1760.04	0.795
1768.93	0.795
1777.81	0.797
1786.7	0.803
1795.59	0.811
1804.48	0.814
1813.36	0.811
1822.25	0.815
1831.14	0.817
1840.03	0.815
1848.91	0.808
1857.8	0.808
1866.69	0.812
1875.58	0.802
1884.46	0.804
1893.35	0.809
1902.24	0.808
1911.13	0.812
1920.01	0.804
1928.9	0.812
1937.79	0.814
1946.68	0.813
1955.56	0.813
1964.45	0.812
1973.34	0.81
1982.23	0.803
1991.12	0.812
2000	0.806
2008.89	0.8033
2017.78	0.8
2026.67	0.791
2035.55	0.791
2044.44	0.7917
2053.33	0.795
2062.22	0.7992
2071.1	0.8039
2079.99	0.8091
2088.88	0.8134
2097.77	0.8162
2106.65	0.8179
2115.54	0.819
2124.43	0.82
2133.32	0.821
2142.2	0.821
2151.09	0.822
2159.98	0.823
2168.87	0.824
2177.75	0.824
2186.64	0.824
2195.53	0.824
2204.42	0.8239
2213.3	0.823
2222.19	0.823
2231.08	0.8217
2239.97	0.821
2248.85	0.821
2257.74	0.8194
2266.63	0.818
2275.52	0.817
2284.4	0.817
2293.29	0.817
2302.18	0.817
2311.07	0.818
2319.95	0.8188
2328.84	0.819
2337.73	0.82
2346.62	0.82
2355.5	0.82
2364.39	0.82
2373.28	0.819
2382.17	0.819
2391.05	0.8173
2399.94	0.817
2408.83	0.816
2417.72	0.815
2426.6	0.814
2435.49	0.8125
2444.38	0.812
2453.27	0.8111
2462.15	0.8103
2471.04	0.8096
2479.93	0.8088
2488.82	0.808
2497.7	0.807
2506.59	0.804
2515.48	0.804
2524.37	0.804
2533.25	0.803
2542.14	0.802
2551.03	0.8019
2559.92	0.801
2568.8	0.801
2577.69	0.8
2586.58	0.8
2595.47	0.8
2604.35	0.8
2613.24	0.8
2622.13	0.8
2631.02	0.8
2639.9	0.799
2648.79	0.798
2657.68	0.797
2666.57	0.796
2675.45	0.795
2684.34	0.795
2693.23	0.794
2702.12	0.792
2711	0.791
2719.89	0.79
2728.78	0.789
2737.67	0.788
2746.55	0.787
2755.44	0.7858
2764.33	0.782
2773.22	0.7783
2782.1	0.7725
2790.99	0.7572
2799.88	0.7177
2808.77	0.6928
2817.65	0.5995
2826.54	0.4788
2835.43	0.3614
2844.32	0.2911
2853.21	0.2364
2862.09	0.2511
2870.98	0.321
2879.87	0.3267
2888.76	0.2887
2897.64	0.1481
2906.53	0.1057
2915.42	0.0795
2924.31	0.0777
2933.19	0.123
2942.08	0.1168
2950.97	0.1249
2959.86	0.2806
2968.74	0.3778
2977.63	0.4462
2986.52	0.5326
2995.41	0.5817
3004.29	0.6374
3013.18	0.6983
3022.07	0.7253
3030.96	0.7091
3039.84	0.7
3048.73	0.7123
3057.62	0.7241
3066.51	0.7245
3075.39	0.7019
3084.28	0.6811
3093.17	0.7135
3102.06	0.7391
3110.94	0.761
3119.83	0.7802
3128.72	0.7855
3137.61	0.7872
3146.49	0.789
3155.38	0.791
3164.27	0.7925
3173.16	0.794
3182.04	0.795
3190.93	0.7957
3199.82	0.797
3208.71	0.798
3217.59	0.7989
3226.48	0.7997
3235.37	0.8
3244.26	0.8002
3253.14	0.8019
3262.03	0.803
3270.92	0.803
3279.81	0.803
3288.69	0.803
3297.58	0.802
3306.47	0.8016
3315.36	0.8
3324.24	0.7992
3333.13	0.797
3342.02	0.795
3350.91	0.795
3359.79	0.794
3368.68	0.793
3377.57	0.792
3386.46	0.792
3395.34	0.792
3404.23	0.793
3413.12	0.794
3422.01	0.794
3430.89	0.795
3439.78	0.795
3448.67	0.796
3457.56	0.797
3466.44	0.798
3475.33	0.7995
3484.22	0.8
3493.11	0.8
3501.99	0.801
3510.88	0.801
3519.77	0.802
3528.66	0.803
3537.54	0.803
3546.43	0.804
3555.32	0.805
3564.21	0.8069
3573.09	0.807
3581.98	0.808
3590.87	0.8082
3599.76	0.809
3608.64	0.8107
3617.53	0.812
3626.42	0.812
3635.31	0.812
3644.19	0.812
3653.08	0.812
3661.97	0.812
3670.86	0.8111
3679.74	0.811
3688.63	0.811
3697.52	0.81
3706.41	0.81
3715.3	0.809
3724.18	0.809
3733.07	0.809
3741.96	0.809
3750.85	0.809
3759.73	0.809
3768.62	0.808
3777.51	0.808
3786.4	0.8075
3795.28	0.8067
3804.17	0.805
3813.06	0.805
3821.95	0.805
3830.83	0.805
3839.72	0.805
3848.61	0.804
3857.5	0.804
3866.38	0.804
3875.27	0.803
3884.16	0.802
3893.05	0.802
3901.93	0.802
3910.82	0.802
3919.71	0.801
3928.6	0.8
3937.48	0.8
3946.37	0.799
3955.26	0.798
3964.15	0.797
3973.03	0.796
3981.92	0.795
3990.81	0.795
