Infrared Spectrum: 2-Methyl-1,5-hexadiene-3-ol
Formula: C 7 H 12 O
CAS: 17123-60-3
State: gas
Instrument: HP-GC/MS/IRD
Origin: NIST Mass Spectrometry Data Center
1/CM	ABSORBANCE
550	0.0010836
562	0.0006471
574	0.0005769
586	0.000531
598	0.0004149
610	0.000693
622	0.0010323
634	0.0009369
646	0.0006309
658	0.0003222
670	0.0002025
682	0.0001962
694	0.0001008
706	0.0001746
718	9e-05
730	0.0001971
742	6.21e-05
754	1.98e-05
766	9.45e-05
778	0.0001593
790	0.0001755
802	0.0002043
814	0.0002574
826	0.0004194
838	0.00063
850	0.0010953
862	0.0016191
874	0.0021996
886	0.0039735
898	0.0075735
910	0.0088938
922	0.0064998
934	0.0036981
946	0.0023049
958	0.0021582
970	0.0026352
982	0.004113
994	0.0058329
1006	0.0066294
1018	0.0068571
1030	0.0067185
1042	0.0061389
1054	0.0054504
1066	0.0044568
1078	0.0031914
1090	0.0022887
1102	0.0019413
1114	0.0017757
1126	0.0015408
1138	0.0010845
1150	0.0009144
1162	0.0008919
1174	0.0011646
1186	0.001692
1198	0.0021771
1210	0.0024507
1222	0.0024579
1234	0.0023832
1246	0.0022023
1258	0.0021195
1270	0.0021771
1282	0.0020898
1294	0.0020052
1306	0.0018171
1318	0.0018153
1330	0.0018711
1342	0.001926
1354	0.0022113
1366	0.0026685
1378	0.0028773
1390	0.0024579
1402	0.0021069
1414	0.0021042
1426	0.002448
1438	0.0028764
1450	0.0028449
1462	0.0021456
1474	0.0012978
1486	0.0007236
1498	0.0004779
1510	0.0003744
1522	0.0002988
1534	0.0002466
1546	0.0003024
1558	0.0002898
1570	0.0002691
1582	0.0003051
1594	0.000351
1606	0.00054
1618	0.0009792
1630	0.002106
1642	0.0030654
1654	0.002358
1666	0.0009972
1678	0.0003402
1690	0.0001332
1702	8.01e-05
1714	7.47e-05
1726	3.78e-05
1738	1.35e-05
1750	2.97e-05
1762	1.89e-05
1774	6.21e-05
1786	0.0001638
1798	0.0003366
1810	0.0004806
1822	0.0005283
1834	0.0005364
1846	0.0004554
1858	0.0001935
1870	0.0001053
1882	6.12e-05
1894	4.05e-05
1906	3.42e-05
1918	1.26e-05
1930	3.6e-06
1942	3.06e-05
1954	3.33e-05
1966	5.67e-05
1978	5.67e-05
1990	3.96e-05
2002	1.89e-05
2014	3.33e-05
2026	2.16e-05
2038	2.88e-05
2050	4.23e-05
2062	5.04e-05
2074	6.84e-05
2086	3.96e-05
2098	3.42e-05
2110	3.69e-05
2122	5.31e-05
2134	4.95e-05
2146	5.58e-05
2158	3.87e-05
2170	2.7e-05
2182	1.8e-05
2194	3.33e-05
2206	7.11e-05
2218	5.31e-05
2230	4.95e-05
2242	4.86e-05
2254	3.51e-05
2266	6.84e-05
2278	7.38e-05
2290	6.93e-05
2302	6.12e-05
2314	5.85e-05
2326	7.92e-05
2338	7.2e-05
2350	5.76e-05
2362	6.84e-05
2374	7.02e-05
2386	5.67e-05
2398	5.67e-05
2410	6.3e-05
2422	8.28e-05
2434	9.18e-05
2446	8.19e-05
2458	4.86e-05
2470	5.67e-05
2482	6.3e-05
2494	8.19e-05
2506	6.75e-05
2518	7.38e-05
2530	3.42e-05
2542	7.11e-05
2554	8.82e-05
2566	0.0001179
2578	8.64e-05
2590	0.0001143
2602	9.36e-05
2614	9e-05
2626	0.0001332
2638	0.0001161
2650	0.0001386
2662	0.0001386
2674	0.0001557
2686	0.000162
2698	0.0001593
2710	0.0001971
2722	0.0002241
2734	0.0002403
2746	0.0002439
2758	0.0002664
2770	0.0002817
2782	0.0003213
2794	0.0003789
2806	0.0004986
2818	0.0007011
2830	0.0010782
2842	0.0017118
2854	0.0026064
2866	0.0033255
2878	0.0037134
2890	0.0038727
2902	0.0041706
2914	0.0050283
2926	0.0060534
2938	0.0062118
2950	0.0052722
2962	0.0043533
2974	0.0048456
2986	0.0053289
2998	0.0043011
3010	0.0031455
3022	0.0021294
3034	0.0015102
3046	0.0014211
3058	0.001926
3070	0.0034677
3082	0.0052893
3094	0.0042975
3106	0.0017694
3118	0.0006894
3130	0.0003969
3142	0.0003051
3154	0.0002043
3166	0.0001494
3178	0.0001026
3190	5.49e-05
3202	8.1e-05
3214	7.29e-05
3226	7.56e-05
3238	5.94e-05
3250	0.0001107
3262	9.54e-05
3274	9.9e-05
3286	9.36e-05
3298	3.96e-05
3310	9.09e-05
3322	3.87e-05
3334	8.37e-05
3346	9.09e-05
3358	8.28e-05
3370	0.0001638
3382	6.39e-05
3394	0.0001161
3406	8.73e-05
3418	0.000117
3430	0.0001026
3442	0.0001026
3454	0.0001494
3466	8.64e-05
3478	0.0001413
3490	0.0001116
3502	0.0001683
3514	0.0001089
3526	0.0001728
3538	0.0001791
3550	0.0001701
3562	0.0001917
3574	0.0002205
3586	0.0003546
3598	0.0004806
3610	0.0009099
3622	0.0011547
3634	0.001665
3646	0.002115
3658	0.0016326
3670	0.0007371
3682	0.000342
3694	0.0002025
3706	0.0001575
3718	0.0001035
3730	0.0001215
3742	0.0001512
3754	0.0001242
3766	0.0001305
3778	0.0001197
3790	0.0001008
3802	0.000153
3814	0.0001521
3826	9.54e-05
3838	0.0001575
