Infrared Spectrum: 5-Methyl-1,5-hexadien-3-ol
Formula: C 7 H 12 O
CAS: 17123-61-4
State: gas
Instrument: HP-GC/MS/IRD
Origin: NIST Mass Spectrometry Data Center
1/CM	ABSORBANCE
550	0.0006432
562	0.0003036
574	0.0001908
586	0.0002046
598	0.0003474
610	0.0002676
622	0.000222
634	0.0002094
646	0.000348
658	0.0003858
670	0.0004884
682	0.0004224
694	0.0003324
706	0.000264
718	0.0002412
730	0.0001422
742	0.0001476
754	7.38e-05
766	0.0001074
778	9.6e-06
790	3.3e-05
802	0.000111
814	0.0002544
826	0.0004914
838	0.0007818
850	0.001344
862	0.0018642
874	0.0026022
886	0.0045966
898	0.0058596
910	0.005217
922	0.0056106
934	0.004629
946	0.0026424
958	0.0022542
970	0.0029196
982	0.004353
994	0.0052386
1006	0.005004
1018	0.0047232
1030	0.0046338
1042	0.0045714
1054	0.0042804
1066	0.0035082
1078	0.0024378
1090	0.0018918
1102	0.0019734
1114	0.0022572
1126	0.0020766
1138	0.0015012
1150	0.0010452
1162	0.0009876
1174	0.0011856
1186	0.001458
1198	0.0016476
1210	0.0017886
1222	0.0019764
1234	0.0021132
1246	0.0022338
1258	0.0024078
1270	0.0022626
1282	0.002016
1294	0.0018378
1306	0.0017556
1318	0.0018294
1330	0.0019794
1342	0.0021378
1354	0.0022374
1366	0.002565
1378	0.002856
1390	0.0024234
1402	0.0020082
1414	0.0026304
1426	0.0030954
1438	0.0028572
1450	0.0023844
1462	0.0017916
1474	0.0010866
1486	0.0006048
1498	0.0003774
1510	0.0002814
1522	0.0002316
1534	0.0002034
1546	0.0002178
1558	0.000234
1570	0.0002586
1582	0.0003378
1594	0.0003726
1606	0.0005202
1618	0.0008604
1630	0.0016452
1642	0.0025194
1654	0.002262
1666	0.0010836
1678	0.0004164
1690	0.00021
1702	0.0001512
1714	0.0001122
1726	7.68e-05
1738	5.16e-05
1750	4.74e-05
1762	7.98e-05
1774	0.0001554
1786	0.000306
1798	0.0003636
1810	0.0002994
1822	0.0002106
1834	0.0002658
1846	0.0004254
1858	0.0004128
1870	0.0002076
1882	9.18e-05
1894	4.98e-05
1906	6.6e-05
1918	3.24e-05
1930	2.4e-05
1942	4.26e-05
1954	1.8e-05
1966	5.7e-05
1978	5.28e-05
1990	4.32e-05
2002	1.68e-05
2014	1.62e-05
2026	2.82e-05
2038	1.44e-05
2050	3.66e-05
2062	3.48e-05
2074	2.52e-05
2086	3e-05
2098	1.8e-05
2110	2.22e-05
2122	3.78e-05
2134	4.44e-05
2146	1.68e-05
2158	2.16e-05
2170	2.94e-05
2182	3.3e-05
2194	6.6e-06
2206	2.28e-05
2218	2.58e-05
2230	8.4e-06
2242	2.76e-05
2254	1.14e-05
2266	3.42e-05
2278	5.22e-05
2290	3.6e-05
2302	2.7e-05
2314	3.48e-05
2326	5.28e-05
2338	1.98e-05
2350	3.72e-05
2362	6.78e-05
2374	7.02e-05
2386	6.24e-05
2398	4.5e-05
2410	6.18e-05
2422	6.18e-05
2434	6.12e-05
2446	3.66e-05
2458	5.58e-05
2470	6.18e-05
2482	7.14e-05
2494	5.34e-05
2506	8.1e-05
2518	8.16e-05
2530	9.36e-05
2542	8.34e-05
2554	8.52e-05
2566	9.06e-05
2578	8.88e-05
2590	0.0001194
2602	9.3e-05
2614	8.76e-05
2626	0.0001302
2638	0.000123
2650	0.0001608
2662	0.000153
2674	0.0001374
2686	0.0001608
2698	0.000174
2710	0.0001806
2722	0.000219
2734	0.000261
2746	0.0003024
2758	0.0002538
2770	0.0002526
2782	0.0002664
2794	0.0004044
2806	0.0004632
2818	0.0006384
2830	0.0009774
2842	0.0015156
2854	0.0021672
2866	0.00285
2878	0.003411
2890	0.0038532
2902	0.0045894
2914	0.0054282
2926	0.0059598
2938	0.0059058
2950	0.0048978
2962	0.003924
2974	0.0045846
2986	0.004776
2998	0.0034416
3010	0.0024678
3022	0.0019296
3034	0.001377
3046	0.0012252
3058	0.0016068
3070	0.0030702
3082	0.0046248
3094	0.0037392
3106	0.001575
3118	0.000618
3130	0.0003114
3142	0.0002022
3154	0.0001854
3166	0.0001104
3178	0.0001098
3190	8.34e-05
3202	5.22e-05
3214	4.26e-05
3226	1.86e-05
3238	5.94e-05
3250	7.02e-05
3262	6.24e-05
3274	2.7e-05
3286	6.96e-05
3298	2.58e-05
3310	3.78e-05
3322	3.48e-05
3334	5.46e-05
3346	6.24e-05
3358	4.8e-05
3370	4.62e-05
3382	5.04e-05
3394	3.78e-05
3406	5.58e-05
3418	2.46e-05
3430	4.62e-05
3442	5.16e-05
3454	5.1e-05
3466	3.96e-05
3478	4.98e-05
3490	5.1e-05
3502	3.96e-05
3514	6.96e-05
3526	3.78e-05
3538	4.08e-05
3550	0.0001044
3562	0.000129
3574	0.0001962
3586	0.0004446
3598	0.0007416
3610	0.0008934
3622	0.0009744
3634	0.0013452
3646	0.0016056
3658	0.001086
3670	0.0004362
3682	0.0001614
3694	0.0001152
3706	7.86e-05
3718	8.4e-05
3730	1.74e-05
3742	4.02e-05
3754	2.04e-05
3766	4.74e-05
3778	1.26e-05
3790	3e-06
3802	1.2e-05
3814	4.38e-05
3826	2.28e-05
3838	1.26e-05
