Infrared Spectrum: 3-Fluoro-5-(trifluoromethyl)benzoyl chloride
Formula: C 8 H 3 Cl F 4 O
CAS: 171243-30-4
State: gas
Origin: EPA-IR VAPOR PHASE LIBRARY
1/CM	ABSORBANCE
549.8	0.0014314
559.445	0.001959
569.09	0.0014059
578.734	0.0010321
588.379	0.002309
598.024	0.005939
607.669	0.004749
617.313	0.001969
626.958	0.0009027
636.603	0.001979
646.248	0.0017184
655.893	0.003739
665.537	0.003019
675.182	0.006269
684.827	0.021289
694.472	0.091919
704.116	0.050509
713.761	0.010479
723.406	0.006739
733.051	0.009939
742.695	0.010089
752.34	0.022659
761.985	0.099369
771.63	0.106519
781.275	0.022939
790.919	0.011079
800.564	0.007439
810.209	0.003779
819.854	0.003199
829.498	0.003459
839.143	0.003139
848.788	0.003389
858.433	0.004799
868.078	0.008389
877.722	0.021939
887.367	0.074299
897.012	0.075619
906.657	0.030389
916.301	0.023239
925.946	0.011309
935.591	0.008549
945.236	0.006559
954.88	0.005239
964.525	0.007509
974.17	0.017769
983.815	0.037399
993.46	0.032729
1003.1	0.015279
1012.75	0.011109
1022.39	0.007039
1032.04	0.004949
1041.68	0.004929
1051.33	0.005019
1060.97	0.004189
1070.62	0.005059
1080.26	0.011119
1089.91	0.032319
1099.55	0.037869
1109.2	0.016229
1118.84	0.020679
1128.49	0.060549
1138.13	0.133599
1147.78	0.154209
1157.42	0.229929
1167.07	0.124069
1176.71	0.117899
1186.36	0.165449
1196	0.068779
1205.64	0.040349
1215.29	0.057429
1224.93	0.146819
1234.58	0.162099
1244.22	0.064099
1253.87	0.032209
1263.51	0.013799
1273.16	0.008929
1282.8	0.008669
1292.45	0.011519
1302.09	0.014879
1311.74	0.017759
1321.38	0.018939
1331.03	0.047769
1340.67	0.166459
1350.32	0.205269
1359.96	0.059069
1369.61	0.020349
1379.25	0.015489
1388.9	0.012339
1398.54	0.010419
1408.18	0.011199
1417.83	0.014189
1427.47	0.019729
1437.12	0.033299
1446.76	0.057119
1456.41	0.061419
1466.05	0.028319
1475.7	0.009209
1485.34	0.005569
1494.99	0.004469
1504.63	0.003719
1514.28	0.003719
1523.92	0.003319
1533.57	0.003259
1543.21	0.002739
1552.86	0.002839
1562.5	0.003259
1572.15	0.005239
1581.79	0.008159
1591.44	0.014769
1601.08	0.026069
1610.73	0.026559
1620.37	0.014629
1630.01	0.007979
1639.66	0.005239
1649.3	0.003939
1658.95	0.003849
1668.59	0.003379
1678.24	0.003259
1687.88	0.002889
1697.53	0.002649
1707.17	0.003409
1716.82	0.004269
1726.46	0.007089
1736.11	0.011149
1745.75	0.018969
1755.4	0.036429
1765.04	0.056049
1774.69	0.078469
1784.33	0.118249
1793.98	0.071949
1803.62	0.023289
1813.27	0.018079
1822.91	0.015119
1832.55	0.007009
1842.2	0.003699
1851.84	0.002779
1861.49	0.002579
1871.13	0.002539
1880.78	0.002599
1890.42	0.003149
1900.07	0.003029
1909.71	0.002419
1919.36	0.0018267
1929	0.0014812
1938.65	0.0016101
1948.29	0.0014591
1957.94	0.0014223
1967.58	0.0016723
1977.23	0.0013488
1986.87	0.0011498
1996.52	0.0014272
2006.16	0.001544
2015.81	0.0012884
2025.45	0.0012107
2035.1	0.0012801
2044.74	0.001071
2054.38	0.0012216
2064.03	0.0013295
2073.67	0.0013535
2083.32	0.0011875
2092.96	0.0014951
2102.61	0.0014632
2112.25	0.001949
2121.9	0.0016927
2131.54	0.0018065
2141.19	0.0017338
2150.83	0.0015289
2160.48	0.001313
2170.12	0.00099343
2179.77	0.0012664
2189.41	0.0011745
2199.06	0.0013698
2208.7	0.0010719
2218.35	0.0014547
2227.99	0.0016289
2237.64	0.001949
2247.28	0.001829
2256.92	0.001572
2266.57	0.0016535
2276.21	0.001736
2285.86	0.0013365
2295.5	0.0017798
2305.15	0.001989
2314.79	0.0017766
2324.44	0.0016215
2334.08	0.0013251
2343.73	0.0015545
2353.37	0.001713
2363.02	0.0017078
2372.66	0.001646
2382.31	0.0013995
2391.95	0.0012971
2401.6	0.0011175
2411.24	0.0012219
2420.89	0.0010839
2430.53	0.0013637
2440.18	0.0012286
2449.82	0.0012626
2459.47	0.0012806
2469.11	0.0012511
2478.75	0.0013708
2488.4	0.0012384
2498.04	0.0013514
2507.69	0.0010742
2517.33	0.0010493
2526.98	0.0009163
2536.62	0.0011735
2546.27	0.0015664
2555.91	0.0014152
2565.56	0.0016533
2575.2	0.0015696
2584.85	0.0013523
2594.49	0.0011677
2604.14	0.00102307
2613.78	0.0011356
2623.43	0.001399
2633.07	0.0011715
2642.72	0.0010795
2652.36	0.0013426
2662.01	0.0010619
2671.65	0.0013105
2681.29	0.0011149
2690.94	0.0011586
2700.58	0.000695
2710.23	0.00096056
2719.87	0.00092525
2729.52	0.00096443
2739.16	0.0011677
2748.81	0.0014463
2758.45	0.0014199
2768.1	0.0012578
2777.74	0.0011667
2787.39	0.0013163
2797.03	0.0011305
2806.68	0.00079
2816.32	0.0013769
2825.97	0.0011383
2835.61	0.000918
2845.26	0.00076
2854.9	0.0011951
2864.55	0.0010529
2874.19	0.0011872
2883.84	0.0014239
2893.48	0.000816
2903.12	0.0014241
2912.77	0.0016647
2922.41	0.0015077
2932.06	0.00101702
2941.7	0.0012616
2951.35	0.0012499
2960.99	0.0015837
2970.64	0.0012101
2980.28	0.0011952
2989.93	0.00066
2999.57	0.0013896
3009.22	0.0008703
3018.86	0.0012782
3028.51	0.000719
3038.15	0.0011998
3047.8	0.002049
3057.44	0.002319
3067.09	0.001805
3076.73	0.002489
3086.38	0.003599
3096.02	0.006099
3105.67	0.005199
3115.31	0.002009
3124.95	0.0014073
3134.6	0.000642
3144.24	0.000748
3153.89	0.000551
3163.53	0.0011187
3173.18	0.0011146
3182.82	0.000711
3192.47	0.0010619
3202.11	0.000822
3211.76	0.0010867
3221.4	0.00096394
3231.05	0.0008521
3240.69	0.0008649
3250.34	0.000259
3259.98	0.00058
3269.63	0.0014802
3279.27	0.0013058
3288.92	0.0010737
3298.56	0.0009039
3308.21	0.000587
3317.85	0.0010953
3327.49	0.0008949
3337.14	0.000793
3346.78	0.000928518
3356.43	0.00069
3366.07	0.000799
3375.72	0.0013253
3385.36	0.0008968
3395.01	0.0011774
3404.65	0.0008854
3414.3	0.0012219
3423.94	0.0010891
3433.59	0.0010939
3443.23	0.00098974
3452.88	0.000786
3462.52	0.0012705
3472.17	0.0008701
3481.81	0.00118
3491.46	0.0011467
3501.1	0.0010792
3510.75	0.0015338
3520.39	0.002239
3530.04	0.002479
3539.68	0.0018499
3549.32	0.002179
3558.97	0.0015846
3568.61	0.0013085
3578.26	0.0013439
3587.9	0.0013013
3597.55	0.0010638
3607.19	0.0014208
3616.84	0.0015292
3626.48	0.00095303
3636.13	0.000664
3645.77	0.0009146
3655.42	0.000637
3665.06	0.000419
3674.71	0.0010548
3684.35	0.000668
3694	0.000415
3703.64	0.000776
3713.29	0.000727
3722.93	0.0009038
3732.58	0.00059
3742.22	6.3e-05
3751.86	0.0010455
3761.51	0.0008349
3771.15	0.000782
3780.8	0.00100756
3790.44	0.000629
3800.09	0.0009121
3809.73	0.000315
3819.38	0.0011891
3829.02	0.0011202
3838.67	0.000814
3848.31	0.000374
3857.96	0.000823
3867.6	0.000679
3877.25	0.0012735
3886.89	0.000201
3896.54	0.000299
3906.18	0.0009094
3915.83	0.000669
3925.47	0.000444
3935.12	0.000583
3944.76	0.000371
3954.41	0.0008474
3964.05	0.000642
3973.69	0.0008359
3983.34	0.000157
3992.98	0.00049
