Infrared Spectrum: Ethyl 4-isothiocyanatobutyrate
Formula: C 7 H 11 N O 2 S
CAS: 17126-65-7
State: gas
Origin: EPA-IR VAPOR PHASE LIBRARY
1/CM	ABSORBANCE
549.8	0.006988
559.445	0.006588
569.09	0.005348
578.734	0.005328
588.379	0.004458
598.024	0.004078
607.669	0.003578
617.313	0.002838
626.958	0.002758
636.603	0.002608
646.248	0.002688
655.893	0.002598
665.537	0.002578
675.182	0.002388
684.827	0.002298
694.472	0.003038
704.116	0.003288
713.761	0.003368
723.406	0.002978
733.051	0.002578
742.695	0.002238
752.34	0.002298
761.985	0.002548
771.63	0.003618
781.275	0.004748
790.919	0.006018
800.564	0.006188
810.209	0.005838
819.854	0.005678
829.498	0.005738
839.143	0.005968
848.788	0.007258
858.433	0.008038
868.078	0.007048
877.722	0.006198
887.367	0.004548
897.012	0.003908
906.657	0.004098
916.301	0.004838
925.946	0.004848
935.591	0.004368
945.236	0.004068
954.88	0.004468
964.525	0.004988
974.17	0.005388
983.815	0.005008
993.46	0.005638
1003.1	0.007878
1012.75	0.013228
1022.39	0.021808
1032.04	0.028528
1041.68	0.029058
1051.33	0.026908
1060.97	0.024858
1070.62	0.023788
1080.26	0.021378
1089.91	0.021778
1099.55	0.022748
1109.2	0.019368
1118.84	0.017188
1128.49	0.018558
1138.13	0.025258
1147.78	0.041358
1157.42	0.070788
1167.07	0.100528
1176.71	0.109418
1186.36	0.090618
1196	0.066988
1205.64	0.052598
1215.29	0.047928
1224.93	0.053498
1234.58	0.060518
1244.22	0.061328
1253.87	0.050668
1263.51	0.034548
1273.16	0.025708
1282.8	0.022908
1292.45	0.022868
1302.09	0.024648
1311.74	0.027168
1321.38	0.028768
1331.03	0.033278
1340.67	0.044918
1350.32	0.054328
1359.96	0.046188
1369.61	0.042158
1379.25	0.037868
1388.9	0.021478
1398.54	0.014748
1408.18	0.011978
1417.83	0.011868
1427.47	0.014048
1437.12	0.016338
1446.76	0.019758
1456.41	0.025108
1466.05	0.024848
1475.7	0.014138
1485.34	0.007798
1494.99	0.005178
1504.63	0.003828
1514.28	0.003118
1523.92	0.002588
1533.57	0.002538
1543.21	0.002408
1552.86	0.002228
1562.5	0.002138
1572.15	0.002108
1581.79	0.002038
1591.44	0.001938
1601.08	0.001948
1610.73	0.002038
1620.37	0.001948
1630.01	0.001888
1639.66	0.002068
1649.3	0.002138
1658.95	0.002368
1668.59	0.002788
1678.24	0.003398
1687.88	0.004358
1697.53	0.005988
1707.17	0.009008
1716.82	0.014328
1726.46	0.025788
1736.11	0.052788
1745.75	0.095418
1755.4	0.110658
1765.04	0.075268
1774.69	0.037448
1784.33	0.016948
1793.98	0.009018
1803.62	0.005768
1813.27	0.004348
1822.91	0.003628
1832.55	0.003158
1842.2	0.003108
1851.84	0.003138
1861.49	0.003418
1871.13	0.003718
1880.78	0.004288
1890.42	0.004868
1900.07	0.005638
1909.71	0.006748
1919.36	0.008128
1929	0.010098
1938.65	0.012368
1948.29	0.015338
1957.94	0.019028
1967.58	0.023958
1977.23	0.030968
1986.87	0.041058
1996.52	0.055698
2006.16	0.076548
2015.81	0.105388
2025.45	0.143068
2035.1	0.187848
2044.74	0.229318
2054.38	0.249358
2064.03	0.239318
2073.67	0.209698
2083.32	0.172178
2092.96	0.132198
2102.61	0.097378
2112.25	0.074698
2121.9	0.061698
2131.54	0.052608
2141.19	0.045528
2150.83	0.040158
2160.48	0.036548
2170.12	0.034068
2179.77	0.033218
2189.41	0.032828
2199.06	0.031618
2208.7	0.028478
2218.35	0.023588
2227.99	0.017658
2237.64	0.012848
2247.28	0.009668
2256.92	0.007698
2266.57	0.006258
2276.21	0.005288
2285.86	0.004428
2295.5	0.003848
2305.15	0.003268
2314.79	0.002958
2324.44	0.002498
2334.08	0.002308
2343.73	0.001988
2353.37	0.001938
2363.02	0.001548
2372.66	0.001578
2382.31	0.0013538
2391.95	0.0013141
2401.6	0.0013007
2411.24	0.0011834
2420.89	0.0012002
2430.53	0.0011481
2440.18	0.0011472
2449.82	0.0010743
2459.47	0.0011524
2469.11	0.001125
2478.75	0.0011846
2488.4	0.0012388
2498.04	0.0011762
2507.69	0.0012062
2517.33	0.0012522
2526.98	0.0012184
2536.62	0.0013187
2546.27	0.0013094
2555.91	0.0014356
2565.56	0.001428
2575.2	0.001528
2584.85	0.0013025
2594.49	0.0014249
2604.14	0.0013162
2613.78	0.0013094
2623.43	0.0010593
2633.07	0.0010592
2642.72	0.0011491
2652.36	0.0012698
2662.01	0.0014383
2671.65	0.001698
2681.29	0.002078
2690.94	0.002378
2700.58	0.002728
2710.23	0.003088
2719.87	0.003558
2729.52	0.003828
2739.16	0.003938
2748.81	0.003868
2758.45	0.003618
2768.1	0.003288
2777.74	0.002898
2787.39	0.002658
2797.03	0.002658
2806.68	0.002808
2816.32	0.002858
2825.97	0.002778
2835.61	0.003108
2845.26	0.003588
2854.9	0.004498
2864.55	0.006238
2874.19	0.009068
2883.84	0.013368
2893.48	0.014558
2903.12	0.013048
2912.77	0.012898
2922.41	0.015208
2932.06	0.021398
2941.7	0.031298
2951.35	0.036448
2960.99	0.035908
2970.64	0.035408
2980.28	0.036128
2989.93	0.033308
2999.57	0.021598
3009.22	0.014148
3018.86	0.008828
3028.51	0.005538
3038.15	0.003648
3047.8	0.002548
3057.44	0.001988
3067.09	0.001708
3076.73	0.0013416
3086.38	0.0012954
3096.02	0.0011476
3105.67	0.0011882
3115.31	0.0010754
3124.95	0.0010024
3134.6	0.0010702
3144.24	0.0010926
3153.89	0.0007624
3163.53	0.0004822
3173.18	0.0007152
3182.82	0.0006808
3192.47	0.00058674
3202.11	0.00054927
3211.76	0.0004443
3221.4	0.000388
3231.05	0.0004598
3240.69	0.0004773
3250.34	0.000164
3259.98	0.000211
3269.63	0.000336
3279.27	0.000314
3288.92	0.000174
3298.56	0.000251
3308.21	6e-05
3317.85	0.000361
3327.49	0.000305
3337.14	0.00054891
3346.78	0.000393
3356.43	0.000175
3366.07	0.000407
3375.72	0.000309
3385.36	0.000111
3395.01	0.000376
3404.65	0.0004362
3414.3	0.000355
3423.94	0.0004265
3433.59	0.000415
3443.23	0.000333
3452.88	0.00051431
3462.52	0.0007452
3472.17	0.0012362
3481.81	0.0013174
3491.46	0.001462
3501.1	0.0011695
3510.75	0.0006669
3520.39	0.0008311
3530.04	0.0006761
3539.68	0.000287
3549.32	0.0006188
3558.97	0.000313
3568.61	0.000249
3578.26	0.00039
3587.9	0.000298
3597.55	0.000288
3607.19	0.000325
3616.84	0.000264
3626.48	0.000317
3636.13	0.000296
3645.77	0.0004875
3655.42	0.000201
3665.06	0.000311
3674.71	0.000184
3684.35	0.000304
3694	0.00059495
3703.64	0.000278
3713.29	0.0004578
3722.93	0.000319
3732.58	0.00061367
3742.22	0.00028
3751.86	0.000364
3761.51	0.000524063
3771.15	0.000333
3780.8	0.0004872
3790.44	0.0004997
3800.09	0.0004376
3809.73	0.000412
3819.38	0.00053293
3829.02	0.000363
3838.67	0.0004461
3848.31	0.000201
3857.96	0.0004413
3867.6	0.0005972
3877.25	0.000526358
3886.89	0.00051095
3896.54	0.0004958
3906.18	0.00060793
3915.83	0.0005064
3925.47	0.0008316
3935.12	0.0010343
3944.76	0.0006778
3954.41	0.0008043
3964.05	0.0009131
3973.69	0.0010521
3983.34	0.0010174
3992.98	0.0012193
