Infrared Spectrum: 2-Chloroanthracene
Formula: C 14 H 9 Cl
CAS: 17135-78-3
State: gas
Instrument: HP-GC/MS/IRD
Origin: NIST Mass Spectrometry Data Center
1/CM	ABSORBANCE
550	0.0016464
562	0.0005872
574	0.000292
586	0.0006136
598	0.0004512
610	0.0003224
622	0.0003416
634	0.0002336
646	0.000208
658	0.0001248
670	6.96e-05
682	0.0001112
694	0.0006456
706	0.001968
718	0.0019512
730	0.0051992
742	0.0047008
754	0.0008112
766	0.0003568
778	0.0004424
790	0.0011096
802	0.000548
814	0.000444
826	0.000364
838	0.0005064
850	0.0008432
862	0.0012496
874	0.0037456
886	0.0074408
898	0.004132
910	0.0016608
922	0.0011992
934	0.006412
946	0.0023584
958	0.0008808
970	0.0005232
982	0.0004024
994	0.0004168
1006	0.0004984
1018	0.0002656
1030	0.0003944
1042	0.0006584
1054	0.001916
1066	0.008
1078	0.0018184
1090	0.0005248
1102	0.00054
1114	0.0005576
1126	0.0005656
1138	0.0005152
1150	0.0010704
1162	0.000724
1174	0.000376
1186	0.0002
1198	0.0002576
1210	0.0002472
1222	0.000244
1234	0.000316
1246	0.0008776
1258	0.00066
1270	0.0006872
1282	0.0004096
1294	0.0007896
1306	0.0005936
1318	0.000628
1330	0.0011648
1342	0.0004544
1354	0.000468
1366	0.0002016
1378	0.0002032
1390	0.0003208
1402	0.0005848
1414	0.0004912
1426	0.0007528
1438	0.0011808
1450	0.0028528
1462	0.0009304
1474	0.0009088
1486	0.0003152
1498	2.56e-05
1510	0.0001776
1522	0.0005984
1534	0.0012344
1546	0.0007528
1558	0.0009928
1570	0.001868
1582	0.001588
1594	0.000692
1606	0.0012976
1618	0.0037184
1630	0.0031096
1642	0.0010296
1654	0.0004
1666	0.0004296
1678	0.0007416
1690	0.0006016
1702	0.0004504
1714	0.0003496
1726	0.000396
1738	0.0005
1750	0.000348
1762	0.0004008
1774	0.0005224
1786	0.0005088
1798	0.0004976
1810	0.0002192
1822	0.0002256
1834	0.0002536
1846	0.0002016
1858	0.0001704
1870	0.0001152
1882	0.000188
1894	0.0004616
1906	0.0005032
1918	0.0003168
1930	0.0003736
1942	0.0003344
1954	9.76e-05
1966	8.56e-05
1978	5.92e-05
1990	6.08e-05
2002	7.6e-05
2014	6.32e-05
2026	8e-05
2038	6.64e-05
2050	5.92e-05
2062	3.68e-05
2074	6.56e-05
2086	8.32e-05
2098	6.48e-05
2110	4.32e-05
2122	4.16e-05
2134	1.04e-05
2146	1.12e-05
2158	3.84e-05
2170	3.44e-05
2182	3.44e-05
2194	2.32e-05
2206	2.4e-05
2218	1.76e-05
2230	1.84e-05
2242	4.48e-05
2254	4.24e-05
2266	7.2e-05
2278	5.36e-05
2290	8.08e-05
2302	8.96e-05
2314	8.48e-05
2326	4.96e-05
2338	9.28e-05
2350	5.44e-05
2362	5.6e-06
2374	2.72e-05
2386	7.76e-05
2398	7.04e-05
2410	8.56e-05
2422	9.84e-05
2434	8.64e-05
2446	8e-05
2458	7.76e-05
2470	8.72e-05
2482	8.32e-05
2494	9.92e-05
2506	0.0001048
2518	0.00012
2530	0.0001232
2542	0.0001152
2554	9.28e-05
2566	0.0001256
2578	9.12e-05
2590	9.12e-05
2602	0.0001064
2614	9.76e-05
2626	9.6e-05
2638	0.0001192
2650	0.000136
2662	0.0001472
2674	0.0001536
2686	0.0001472
2698	0.0001392
2710	0.0001488
2722	0.0001272
2734	0.0001328
2746	0.0001288
2758	0.0001136
2770	0.0001144
2782	0.0001456
2794	0.0001432
2806	0.0001488
2818	0.0001512
2830	0.000172
2842	0.0001624
2854	0.0001496
2866	0.0001392
2878	0.0001304
2890	0.0001672
2902	0.000172
2914	0.0002008
2926	0.0002048
2938	0.0002128
2950	0.000288
2962	0.000308
2974	0.0003296
2986	0.0004976
2998	0.0007032
3010	0.0009376
3022	0.001388
3034	0.00242
3046	0.00368
3058	0.0053024
3070	0.003852
3082	0.001996
3094	0.0012144
3106	0.0006568
3118	0.0004032
3130	0.0002664
3142	0.0001856
3154	0.0002048
3166	0.0001752
3178	0.0002136
3190	0.0002184
3202	0.000188
3214	0.0001536
3226	0.0001408
3238	0.0001488
3250	0.0001528
3262	0.0001376
3274	0.000132
3286	0.000104
3298	0.0001168
3310	9.12e-05
3322	0.0001056
3334	8.48e-05
3346	0.000112
3358	8.48e-05
3370	0.0001136
3382	0.0001
3394	0.000112
3406	0.0001056
3418	8.8e-05
3430	9.28e-05
3442	7.52e-05
3454	7.04e-05
3466	0.0001048
3478	5.92e-05
3490	7.2e-05
3502	7.68e-05
3514	7.92e-05
3526	7.04e-05
3538	4.96e-05
3550	6.96e-05
3562	6.64e-05
3574	7.04e-05
3586	3.2e-06
3598	5.12e-05
3610	3.04e-05
3622	8.72e-05
3634	9.76e-05
3646	7.28e-05
3658	8.88e-05
3670	7.36e-05
3682	8e-05
3694	0.0001192
3706	8.56e-05
3718	7.6e-05
3730	5.28e-05
3742	2.4e-05
3754	5.44e-05
3766	8.88e-05
3778	0.0001344
3790	9.36e-05
3802	7.92e-05
3814	0.0001024
3826	5.92e-05
3838	5.04e-05
