Infrared Spectrum: 1-Bromopyrene
Formula: C 16 H 9 Br
CAS: 1714-29-0
State: gas
Origin: EPA-IR VAPOR PHASE LIBRARY
1/CM	ABSORBANCE
501.5	0.0009174
513.074	0.0013936
524.648	0.001994
536.222	0.0012557
547.796	0.0009306
559.37	0.0010463
570.944	0.0014043
582.518	0.00144
594.092	0.000913
605.666	0.0009183
617.24	0.0011862
628.814	0.000826
640.388	0.000967137
651.962	0.0009201
663.536	0.0010665
675.11	0.0017061
686.684	0.0014099
698.258	0.003764
709.832	0.006964
721.406	0.0016853
732.98	0.0012977
744.554	0.003454
756.128	0.003754
767.702	0.0014768
779.276	0.0011736
790.85	0.0012917
802.423	0.0017913
813.997	0.007344
825.571	0.008534
837.145	0.021324
848.719	0.011114
860.293	0.002014
871.867	0.0013228
883.441	0.0012236
895.015	0.0011949
906.589	0.0011588
918.163	0.0011565
929.737	0.0012284
941.311	0.0012645
952.885	0.0014558
964.459	0.003054
976.033	0.0014793
987.607	0.0013841
999.181	0.0016689
1010.76	0.004434
1022.33	0.004584
1033.9	0.001544
1045.48	0.0012843
1057.05	0.0014301
1068.63	0.002364
1080.2	0.004404
1091.77	0.002144
1103.35	0.0014701
1114.92	0.0014956
1126.49	0.002034
1138.07	0.002704
1149.64	0.003504
1161.22	0.0014003
1172.79	0.0017391
1184.36	0.002104
1195.94	0.0015582
1207.51	0.000836
1219.09	0.000512
1230.66	0.000371
1242.23	0.000579
1253.81	0.00014
1265.38	0
1276.96	0.000447
1288.53	0.00103273
1300.1	0.0012196
1311.68	0.001994
1323.25	0.0011029
1334.83	0.000928
1346.4	0.0010713
1357.97	0.0010957
1369.55	0.00106038
1381.12	0.0012401
1392.7	0.0011344
1404.27	0.0016096
1415.84	0.002154
1427.42	0.003924
1438.99	0.002534
1450.57	0.003654
1462.14	0.002634
1473.71	0.003394
1485.29	0.005314
1496.86	0.002664
1508.44	0.0015043
1520.01	0.0012931
1531.58	0.0014661
1543.16	0.0015269
1554.73	0.0013046
1566.31	0.0017456
1577.88	0.003004
1589.45	0.004254
1601.03	0.002704
1612.6	0.0015259
1624.18	0.0016043
1635.75	0.0013897
1647.32	0.0016578
1658.9	0.0016154
1670.47	0.0013256
1682.05	0.0012296
1693.62	0.0011019
1705.19	0.0012726
1716.77	0.0013436
1728.34	0.0012483
1739.92	0.0016081
1751.49	0.0013466
1763.06	0.001325
1774.64	0.0017747
1786.21	0.0019082
1797.79	0.0017287
1809.36	0.0011711
1820.93	0.00106086
1832.51	0.0011032
1844.08	0.0012078
1855.66	0.001577
1867.23	0.0017868
1878.8	0.0016429
1890.38	0.0012975
1901.95	0.001437
1913.53	0.001974
1925.1	0.002044
1936.67	0.0014698
1948.25	0.0011012
1959.82	0.00105812
1971.4	0.001075
1982.97	0.00105169
1994.54	0.0010642
2006.12	0.0010835
2017.69	0.0010808
2029.27	0.0010867
2040.84	0.0011026
2052.41	0.0011029
2063.99	0.0011077
2075.56	0.0011061
2087.14	0.0010929
2098.71	0.0010918
2110.28	0.0011415
2121.86	0.0011401
2133.43	0.0011772
2145.01	0.0011419
2156.58	0.0011376
2168.15	0.0011302
2179.73	0.0011583
2191.3	0.0011537
2202.88	0.0011639
2214.45	0.0011529
2226.02	0.0012141
2237.6	0.0012077
2249.17	0.0011642
2260.74	0.0012153
2272.32	0.0012049
2283.89	0.0012042
2295.47	0.0011717
2307.04	0.0011323
2318.61	0.0010804
2330.19	0.0010692
2341.76	0.0010893
2353.34	0.0010889
2364.91	0.00102503
2376.48	0.0011227
2388.06	0.0012254
2399.63	0.0012376
2411.21	0.0012159
2422.78	0.00121
2434.35	0.0012074
2445.93	0.0012231
2457.5	0.0012445
2469.08	0.0012578
2480.65	0.0012353
2492.22	0.0012796
2503.8	0.0012585
2515.37	0.0012248
2526.95	0.0012438
2538.52	0.0012615
2550.09	0.0012597
2561.67	0.001237
2573.24	0.0012389
2584.82	0.0012533
2596.39	0.0012632
2607.96	0.0012828
2619.54	0.0012761
2631.11	0.0012849
2642.69	0.0012805
2654.26	0.0012836
2665.83	0.0012647
2677.41	0.0012665
2688.98	0.0012937
2700.56	0.0012528
2712.13	0.0012827
2723.7	0.0012698
2735.28	0.0012689
2746.85	0.0013201
2758.43	0.0013147
2770	0.0013344
2781.57	0.0013496
2793.15	0.0013391
2804.72	0.0013231
2816.3	0.0013219
2827.87	0.0013273
2839.44	0.0014001
2851.02	0.0013582
2862.59	0.0013423
2874.17	0.0013806
2885.74	0.0014233
2897.31	0.0014031
2908.89	0.0013733
2920.46	0.0014203
2932.04	0.0014614
2943.61	0.0015354
2955.18	0.0015864
2966.76	0.0016696
2978.33	0.001683
2989.91	0.0017315
3001.48	0.0018117
3013.05	0.002094
3024.63	0.002834
3036.2	0.005814
3047.78	0.012684
3059.35	0.010204
3070.92	0.004984
3082.5	0.004004
3094.07	0.002944
3105.65	0.002444
3117.22	0.0018851
3128.79	0.0018022
3140.37	0.0015804
3151.94	0.0014839
3163.52	0.0014744
3175.09	0.0014113
3186.66	0.0014644
3198.24	0.0014243
3209.81	0.0014062
3221.39	0.0013914
3232.96	0.001381
3244.53	0.001362
3256.11	0.0014229
3267.68	0.0014249
3279.26	0.0013576
3290.83	0.0013534
3302.4	0.001364
3313.98	0.0014259
3325.55	0.0013854
3337.13	0.0014092
3348.7	0.0013423
3360.27	0.001386
3371.85	0.0013945
3383.42	0.0013892
3395	0.0013566
3406.57	0.0013979
3418.14	0.0013349
3429.72	0.001415
3441.29	0.001424
3452.86	0.0014343
3464.44	0.001448
3476.01	0.0013717
3487.59	0.0014154
3499.16	0.0014085
3510.73	0.0013223
3522.31	0.0013944
3533.88	0.0012961
3545.46	0.0014057
3557.03	0.0013356
3568.6	0.0013584
3580.18	0.00137
3591.75	0.0013819
3603.33	0.0014351
3614.9	0.0014424
3626.47	0.0014005
3638.05	0.0013832
3649.62	0.0013739
3661.2	0.0013901
3672.77	0.0014411
3684.34	0.0014601
3695.92	0.0014381
3707.49	0.0014487
3719.07	0.0014854
3730.64	0.001426
3742.21	0.0014946
3753.79	0.0014716
3765.36	0.0015247
3776.94	0.0015442
3788.51	0.0014655
3800.08	0.0015574
3811.66	0.0015118
3823.23	0.00154
3834.81	0.0015664
3846.38	0.0016009
3857.95	0.0016159
3869.53	0.001624
3881.1	0.0016155
3892.68	0.0015915
3904.25	0.0015546
3915.82	0.0015188
3927.4	0.0015556
3938.97	0.0015337
3950.55	0.0015065
3962.12	0.0014957
3973.69	0.0015145
3985.27	0.0015612
3996.84	0.0014912
