Infrared Spectrum: Methanephosphonic acid bis(dimethylamide)
Formula: C 5 H 15 N 2 O P
CAS: 17166-16-4
State: gas
Origin: EPA-IR VAPOR PHASE LIBRARY
1/CM	ABSORBANCE
549.9	0.000506
559.547	0.000517
569.193	0.000467
578.84	0.000404
588.486	0.0005862
598.133	0.0005616
607.779	0.00068485
617.426	0.0009362
627.072	0.0011428
636.719	0.0010327
646.365	0.0007757
656.012	0.00065065
665.658	0.0009417
675.305	0.0014553
684.951	0.002879
694.598	0.005349
704.245	0.006049
713.891	0.004009
723.538	0.001849
733.184	0.0016209
742.831	0.002729
752.477	0.006589
762.124	0.010299
771.77	0.008099
781.417	0.003499
791.063	0.0011826
800.71	0.0009211
810.356	0.0008958
820.003	0.0008996
829.649	0.0008995
839.296	0.0009713
848.943	0.0011881
858.589	0.001759
868.236	0.003409
877.882	0.007309
887.529	0.008989
897.175	0.005739
906.822	0.002679
916.468	0.002209
926.115	0.002879
935.761	0.004639
945.408	0.009209
955.054	0.017139
964.701	0.023349
974.347	0.022889
983.994	0.018359
993.64	0.013059
1003.29	0.007549
1012.93	0.004309
1022.58	0.003129
1032.23	0.002719
1041.87	0.002729
1051.52	0.003089
1061.17	0.003509
1070.81	0.003399
1080.46	0.002629
1090.11	0.002019
1099.75	0.001749
1109.4	0.001679
1119.05	0.001769
1128.69	0.002139
1138.34	0.002839
1147.99	0.003969
1157.63	0.005209
1167.28	0.005959
1176.92	0.006239
1186.57	0.005689
1196.22	0.005039
1205.86	0.005189
1215.51	0.008319
1225.16	0.015299
1234.8	0.020199
1244.45	0.015379
1254.1	0.009199
1263.74	0.008129
1273.39	0.011019
1283.04	0.014209
1292.68	0.015839
1302.33	0.015089
1311.98	0.008889
1321.62	0.004439
1331.27	0.002829
1340.92	0.002059
1350.56	0.001689
1360.21	0.0015027
1369.86	0.0014102
1379.5	0.0014279
1389.15	0.0014842
1398.79	0.0015505
1408.44	0.001729
1418.09	0.002049
1427.73	0.002299
1437.38	0.002439
1447.03	0.002829
1456.67	0.003329
1466.32	0.003479
1475.97	0.003319
1485.61	0.002779
1495.26	0.002099
1504.91	0.0016168
1514.55	0.0013079
1524.2	0.0012529
1533.85	0.0011803
1543.49	0.0010803
1553.14	0.0010906
1562.79	0.0010661
1572.43	0.001107
1582.08	0.0011359
1591.73	0.001049
1601.37	0.0010378
1611.02	0.0009472
1620.67	0.0008557
1630.31	0.0008803
1639.96	0.0007299
1649.6	0.0007545
1659.25	0.0007617
1668.9	0.000796
1678.54	0.000735
1688.19	0.0006737
1697.84	0.00065833
1707.48	0.0005943
1717.13	0.000515
1726.78	0.000528
1736.42	0.000573
1746.07	0.0005424
1755.72	0.0005505
1765.36	0.000505
1775.01	0.000517
1784.66	0.000519
1794.3	0.000483
1803.95	0.000476
1813.6	0.000496
1823.24	0.000475
1832.89	0.000468
1842.54	0.000452
1852.18	0.000484
1861.83	0.000449
1871.47	0.000524
1881.12	0.0005562
1890.77	0.000496
1900.41	0.0005667
1910.06	0.0005858
1919.71	0.0005779
1929.35	0.0005387
1939	0.000498
1948.65	0.000501
1958.29	0.0005327
1967.94	0.000517
1977.59	0.0005381
1987.23	0.000513
1996.88	0.000527
2006.53	0.000497
2016.17	0.000488
2025.82	0.000471
2035.47	0.0005
2045.11	0.0005323
2054.76	0.0005486
2064.41	0.0005743
2074.05	0.0005389
2083.7	0.000527
2093.35	0.000484
2102.99	0.0005359
2112.64	0.0005404
2122.28	0.0005399
2131.93	0.0005502
2141.58	0.000588
2151.22	0.000513
2160.87	0.0005321
2170.52	0.000485
2180.16	0.0005706
2189.81	0.000523
2199.46	0.000489
2209.1	0.000436
2218.75	0.000498
2228.4	0.000494
2238.04	0.000489
2247.69	0.000496
2257.34	0.000475
2266.98	0.000509
2276.63	0.000475
2286.28	0.000504
2295.92	0.000498
2305.57	0.000474
2315.22	0.000479
2324.86	0.000519
2334.51	0.000507
2344.16	0.0005434
2353.8	0.000494
2363.45	0.000485
2373.09	0.000497
2382.74	0.000511
2392.39	0.000508
2402.03	0.000519
2411.68	0.000513
2421.33	0.000524
2430.97	0.000481
2440.62	0.000498
2450.27	0.000506
2459.91	0.0005735
2469.56	0.0005591
2479.21	0.000499
2488.85	0.000517
2498.5	0.000497
2508.15	0.000491
2517.79	0.0005309
2527.44	0.000482
2537.09	0.000492
2546.73	0.000499
2556.38	0.0005384
2566.03	0.000514
2575.67	0.000505
2585.32	0.0005647
2594.96	0.0005511
2604.61	0.000527
2614.26	0.0005295
2623.9	0.0005443
2633.55	0.000484
2643.2	0.0005592
2652.84	0.0005692
2662.49	0.0006025
2672.14	0.0005295
2681.78	0.0006054
2691.43	0.0006627
2701.08	0.00064732
2710.72	0.00069439
2720.37	0.0007598
2730.02	0.0008119
2739.66	0.0009048
2749.31	0.0011351
2758.96	0.0012734
2768.6	0.0016089
2778.25	0.002139
2787.9	0.003099
2797.54	0.005079
2807.19	0.007079
2816.84	0.006999
2826.48	0.005669
2836.13	0.005639
2845.77	0.007249
2855.42	0.008749
2865.07	0.009189
2874.71	0.009649
2884.36	0.011309
2894.01	0.012979
2903.65	0.013569
2913.3	0.012779
2922.95	0.011989
2932.59	0.011549
2942.24	0.010369
2951.89	0.007959
2961.53	0.005879
2971.18	0.004779
2980.83	0.004999
2990.47	0.005599
3000.12	0.005269
3009.77	0.003869
3019.41	0.002659
3029.06	0.001989
3038.71	0.001709
3048.35	0.0014076
3058	0.0011508
3067.64	0.0010799
3077.29	0.0009818
3086.94	0.0009786
3096.58	0.0008061
3106.23	0.00062392
3115.88	0.0005592
3125.52	0.000488
3135.17	0.000349
3144.82	0.000444
3154.46	0.000224
3164.11	0.000117
3173.76	0.000153
3183.4	0.00011
3193.05	0.00029
3202.7	0.000216
3212.34	0.000288
3221.99	0.000344
3231.64	0.000221
3241.28	0.000154
3250.93	0.000116
3260.58	0.000238
3270.22	0.000221
3279.87	0.00018
3289.52	0.00013
3299.16	0.000138
3308.81	7.4e-05
3318.45	0.000171
3328.1	0.000122
3337.75	0.000153
3347.39	0.000243
3357.04	0.000156
3366.69	0.000196
3376.33	0.000178
3385.98	0.000108
3395.63	0.000131
3405.27	0.000212
3414.92	0.000208
3424.57	8.2e-05
3434.21	0.000103
3443.86	9.7e-05
3453.51	0.000128
3463.15	0.000228
3472.8	0.000219
3482.45	0.000232
3492.09	0.000239
3501.74	6.8e-05
3511.39	3.1e-05
3521.03	0.000179
3530.68	0.000232
3540.33	0.000134
3549.97	0.000136
3559.62	0.000178
3569.26	0.000248
3578.91	6.6e-05
3588.56	0.000192
3598.2	0.000234
3607.85	0.000113
3617.5	0.000199
3627.14	0.000222
3636.79	0.000161
3646.44	0.000185
3656.08	0.000124
3665.73	0.000157
3675.38	0.000191
3685.02	0.000258
3694.67	0.000134
3704.32	0.000219
3713.96	0.000205
3723.61	0.000226
3733.26	0.000185
3742.9	0.00026
3752.55	0.000274
3762.2	0.000263
3771.84	0.000293
3781.49	0.00022
3791.13	0.000314
3800.78	0.00026
3810.43	0.00028
3820.07	0.000293
3829.72	0.000226
3839.37	0.00029
3849.01	0.000291
3858.66	0.000339
3868.31	0.000225
3877.95	0.000262
3887.6	0.000289
3897.25	0.000236
3906.89	0.000345
3916.54	0.000228
3926.19	0.000395
3935.83	0.000347
3945.48	0.000286
3955.13	0.000254
3964.77	0.000395
3974.42	0.000363
3984.07	0.00041
3993.71	0.000348
