Infrared Spectrum: 4-Chloro-2-methylthiophenol
Formula: C 7 H 7 Cl S
CAS: 17178-01-7
State: gas
Origin: EPA-IR VAPOR PHASE LIBRARY
1/CM	ABSORBANCE
549.8	0.005171
559.445	0.006801
569.09	0.009691
578.734	0.005551
588.379	0.002751
598.024	0.002931
607.669	0.003351
617.313	0.002141
626.958	0.0010971
636.603	0.0012788
646.248	0.0011136
655.893	0.00122
665.537	0.0017085
675.182	0.0017657
684.827	0.002361
694.472	0.004491
704.116	0.004221
713.761	0.0014727
723.406	0.0012335
733.051	0.001951
742.695	0.0013008
752.34	0.0016226
761.985	0.002451
771.63	0.004061
781.275	0.009551
790.919	0.018481
800.564	0.032241
810.209	0.030941
819.854	0.017791
829.498	0.010271
839.143	0.006901
848.788	0.008301
858.433	0.021081
868.078	0.047581
877.722	0.040941
887.367	0.015461
897.012	0.006271
906.657	0.005531
916.301	0.006481
925.946	0.007701
935.591	0.006401
945.236	0.004021
954.88	0.003211
964.525	0.003511
974.17	0.003271
983.815	0.004611
993.46	0.006981
1003.1	0.005591
1012.75	0.004601
1022.39	0.004521
1032.04	0.005661
1041.68	0.010051
1051.33	0.022131
1060.97	0.024401
1070.62	0.015181
1080.26	0.026221
1089.91	0.031721
1099.55	0.056951
1109.2	0.077211
1118.84	0.028981
1128.49	0.011821
1138.13	0.007951
1147.78	0.005821
1157.42	0.005371
1167.07	0.003701
1176.71	0.002991
1186.36	0.005991
1196	0.013241
1205.64	0.011291
1215.29	0.006151
1224.93	0.005501
1234.58	0.004361
1244.22	0.004571
1253.87	0.005201
1263.51	0.011051
1273.16	0.009571
1282.8	0.004921
1292.45	0.004141
1302.09	0.003311
1311.74	0.003191
1321.38	0.003211
1331.03	0.003201
1340.67	0.003381
1350.32	0.003581
1359.96	0.005241
1369.61	0.008661
1379.25	0.013781
1388.9	0.017651
1398.54	0.015641
1408.18	0.013521
1417.83	0.011861
1427.47	0.011791
1437.12	0.015461
1446.76	0.023201
1456.41	0.050811
1466.05	0.083651
1475.7	0.066761
1485.34	0.033201
1494.99	0.015211
1504.63	0.008031
1514.28	0.006071
1523.92	0.005641
1533.57	0.006211
1543.21	0.007951
1552.86	0.010321
1562.5	0.010801
1572.15	0.015471
1581.79	0.021561
1591.44	0.016841
1601.08	0.008371
1610.73	0.005531
1620.37	0.004691
1630.01	0.003731
1639.66	0.002691
1649.3	0.002301
1658.95	0.002171
1668.59	0.002381
1678.24	0.002431
1687.88	0.002331
1697.53	0.001941
1707.17	0.002061
1716.82	0.002771
1726.46	0.003831
1736.11	0.004611
1745.75	0.003531
1755.4	0.002381
1765.04	0.0017776
1774.69	0.0014081
1784.33	0.0015501
1793.98	0.0015803
1803.62	0.0016283
1813.27	0.0015579
1822.91	0.0013115
1832.55	0.0012065
1842.2	0.0015214
1851.84	0.0018459
1861.49	0.002601
1871.13	0.003051
1880.78	0.003131
1890.42	0.002491
1900.07	0.001951
1909.71	0.0015361
1919.36	0.0010618
1929	0.0011712
1938.65	0.000769
1948.29	0.0010468
1957.94	0.0008606
1967.58	0.00096986
1977.23	0.0008334
1986.87	0.00092948
1996.52	0.0008982
2006.16	0.0009176
2015.81	0.000875
2025.45	0.0008614
2035.1	0.000626
2044.74	0.000806
2054.38	0.000806
2064.03	0.00099147
2073.67	0.000669
2083.32	0.00095913
2092.96	0.00094426
2102.61	0.0010584
2112.25	0.000741
2121.9	0.0009225
2131.54	0.00102456
2141.19	0.00099952
2150.83	0.0007
2160.48	0.000737
2170.12	0.00092264
2179.77	0.000801
2189.41	0.00099167
2199.06	0.000737
2208.7	0.000529
2218.35	0.0009919
2227.99	0.000714
2237.64	0.000593
2247.28	0.0011395
2256.92	0.0011278
2266.57	0.00093985
2276.21	0.0009297
2285.86	0.0013
2295.5	0.0009179
2305.15	0.000769
2314.79	0.000861
2324.44	0.000675
2334.08	0.000814
2343.73	0.0008681
2353.37	0.0011732
2363.02	0.0015612
2372.66	0.0011988
2382.31	0.0012519
2391.95	0.0013442
2401.6	0.0010911
2411.24	0.00096967
2420.89	0.00095886
2430.53	0.00092361
2440.18	0.0009802
2449.82	0.000695
2459.47	0.001058
2469.11	0.0011834
2478.75	0.0011186
2488.4	0.00097148
2498.04	0.0010619
2507.69	0.00092419
2517.33	0.0010983
2526.98	0.0011784
2536.62	0.0009141
2546.27	0.0008611
2555.91	0.000803
2565.56	0.0012392
2575.2	0.0014282
2584.85	0.002221
2594.49	0.001532
2604.14	0.001267
2613.78	0.0011937
2623.43	0.000592
2633.07	0.0011321
2642.72	0.0011887
2652.36	0.001059
2662.01	0.0012936
2671.65	0.0011503
2681.29	0.000813
2690.94	0.0012253
2700.58	0.0012566
2710.23	0.001459
2719.87	0.0010725
2729.52	0.0011828
2739.16	0.0015662
2748.81	0.0016667
2758.45	0.001929
2768.1	0.0014203
2777.74	0.0015216
2787.39	0.0014706
2797.03	0.0017343
2806.68	0.001941
2816.32	0.002211
2825.97	0.002011
2835.61	0.002391
2845.26	0.002811
2854.9	0.003821
2864.55	0.005651
2874.19	0.006311
2883.84	0.006011
2893.48	0.006171
2903.12	0.006811
2912.77	0.008021
2922.41	0.012641
2932.06	0.015971
2941.7	0.014271
2951.35	0.011931
2960.99	0.010771
2970.64	0.010871
2980.28	0.012071
2989.93	0.011161
2999.57	0.008791
3009.22	0.007401
3018.86	0.006891
3028.51	0.006241
3038.15	0.005211
3047.8	0.004561
3057.44	0.004981
3067.09	0.007801
3076.73	0.009231
3086.38	0.008771
3096.02	0.005111
3105.67	0.002951
3115.31	0.0017848
3124.95	0.0013506
3134.6	0.001256
3144.24	0.0009043
3153.89	0.0011732
3163.53	0.0014309
3173.18	0.001361
3182.82	0.0008517
3192.47	0.000617
3202.11	0.0010448
3211.76	0.000689
3221.4	0.00045
3231.05	0.0008748
3240.69	0.0008716
3250.34	0.0008496
3259.98	0.0011794
3269.63	0.000485
3279.27	0.000701
3288.92	0.0011908
3298.56	0.00095282
3308.21	0.000274
3317.85	0.000775
3327.49	0.001083
3337.14	0.0012208
3346.78	0.0008789
3356.43	0.0011117
3366.07	0.0008751
3375.72	0.0011509
3385.36	0.000697
3395.01	0.000383
3404.65	0.0011436
3414.3	0.000495
3423.94	0.000252
3433.59	0.001407
3443.23	0.000371
3452.88	0.00072
3462.52	0.000161
3472.17	0.000772
3481.81	0.000414
3491.46	0.000623
3501.1	0.001062
3510.75	0.000455
3520.39	0.0014298
3530.04	0.001494
3539.68	0.0012472
3549.32	0.000827
3558.97	0.0010356
3568.61	0.0010642
3578.26	0.0016044
3587.9	0.000441
3597.55	0.00100775
3607.19	0.0011303
3616.84	0.000768
3626.48	0.0015229
3636.13	0.000546
3645.77	0.0013046
3655.42	0.0015516
3665.06	0.0008731
3674.71	0.0009142
3684.35	0.00099646
3694	0.000515
3703.64	0.000208
3713.29	0.0012553
3722.93	0.0010959
3732.58	0.000933846
3742.22	0.0013798
3751.86	0.000706
3761.51	0.0009027
3771.15	0.0010989
3780.8	0.000521
3790.44	0.0014648
3800.09	0.000936082
3809.73	0.00094944
3819.38	0.000757
3829.02	0.000565
3838.67	0.00100817
3848.31	0.0012911
3857.96	0
3867.6	0.000644
3877.25	0.000738
3886.89	0.000481
3896.54	0.0010891
3906.18	0.001455
3915.83	0.001361
3925.47	0.0012612
3935.12	0.000751
3944.76	0.0008511
3954.41	0.00063
3964.05	0.00100347
3973.69	0.000722
3983.34	0.0011497
3992.98	0.0013948
