Infrared Spectrum: Dibenzyl phosphite
Formula: C 14 H 15 O 3 P
CAS: 17176-77-1
State: gas
Origin: EPA-IR VAPOR PHASE LIBRARY
1/CM	ABSORBANCE
501.5	0.001594
513.074	0.001414
524.648	0.001854
536.222	0.002184
547.796	0.001674
559.37	0.001344
570.944	0.001544
582.518	0.002024
594.092	0.002604
605.666	0.002034
617.24	0.0012444
628.814	0.000814
640.388	0.0007404
651.962	0.0008404
663.536	0.001364
675.11	0.002664
686.684	0.004934
698.258	0.006374
709.832	0.005194
721.406	0.005964
732.98	0.007694
744.554	0.005484
756.128	0.002904
767.702	0.001914
779.276	0.002004
790.85	0.002564
802.423	0.002764
813.997	0.002684
825.571	0.002894
837.145	0.003074
848.719	0.003124
860.293	0.002844
871.867	0.002304
883.441	0.002144
895.015	0.002544
906.589	0.003384
918.163	0.004974
929.737	0.007744
941.311	0.016544
952.885	0.030784
964.459	0.035374
976.033	0.031114
987.607	0.025944
999.181	0.018584
1010.76	0.014184
1022.33	0.012454
1033.9	0.012754
1045.48	0.014034
1057.05	0.012274
1068.63	0.010574
1080.2	0.008744
1091.77	0.005944
1103.35	0.003754
1114.92	0.002304
1126.49	0.001664
1138.07	0.001394
1149.64	0.0012358
1161.22	0.001314
1172.79	0.001474
1184.36	0.001774
1195.94	0.002684
1207.51	0.004584
1219.09	0.003154
1230.66	0.002574
1242.23	0.003194
1253.81	0.004424
1265.38	0.007564
1276.96	0.012994
1288.53	0.011254
1300.1	0.008424
1311.68	0.004744
1323.25	0.002564
1334.83	0.001754
1346.4	0.001514
1357.97	0.001604
1369.55	0.002384
1381.12	0.003064
1392.7	0.001744
1404.27	0.0011434
1415.84	0.0009365
1427.42	0.0010501
1438.99	0.001414
1450.57	0.002064
1462.14	0.002214
1473.71	0.001504
1485.29	0.001284
1496.86	0.001994
1508.44	0.0009863
1520.01	0.0005965
1531.58	0.0005905
1543.16	0.0005353
1554.73	0.0005274
1566.31	0.0006375
1577.88	0.0006384
1589.45	0.0006725
1601.03	0.0006699
1612.6	0.000633
1624.18	0.0004955
1635.75	0.0004613
1647.32	0.0004013
1658.9	0.0004332
1670.47	0.000432
1682.05	0.0003873
1693.62	0.0004066
1705.19	0.0004237
1716.77	0.0004461
1728.34	0.0005263
1739.92	0.0005372
1751.49	0.0005173
1763.06	0.0005447
1774.64	0.0005853
1786.21	0.0006755
1797.79	0.0008893
1809.36	0.0007685
1820.93	0.0005941
1832.51	0.0005487
1844.08	0.0005324
1855.66	0.0006092
1867.23	0.0006353
1878.8	0.0007147
1890.38	0.0006409
1901.95	0.0005144
1913.53	0.0005113
1925.1	0.0005655
1936.67	0.0006656
1948.25	0.0007469
1959.82	0.0006748
1971.4	0.0004005
1982.97	0.00031373
1994.54	0.00030751
2006.12	0.000272426
2017.69	0.00028362
2029.27	0.00026071
2040.84	0.000263876
2052.41	0.0002519
2063.99	0.0002357
2075.56	0.00025876
2087.14	0.0002187
2098.71	0.0002182
2110.28	0.000217
2121.86	0.0002231
2133.43	0.000223
2145.01	0.000194
2156.58	0.0002027
2168.15	0.0002121
2179.73	0.0001965
2191.3	0.0002013
2202.88	0.0002165
2214.45	0.0002046
2226.02	0.0001796
2237.6	0.000196
2249.17	0.0002225
2260.74	0.0002232
2272.32	0.00027706
2283.89	0.00025866
2295.47	0.0002304
2307.04	0.0002382
2318.61	0.00031176
2330.19	0.00028655
2341.76	0.00035354
2353.34	0.000371
2364.91	0.0005004
2376.48	0.0006579
2388.06	0.0009553
2399.63	0.001344
2411.21	0.001724
2422.78	0.002094
2434.35	0.002594
2445.93	0.002454
2457.5	0.001374
2469.08	0.0006541
2480.65	0.0003642
2492.22	0.0002426
2503.8	0.0001976
2515.37	0.0002037
2526.95	0.000163
2538.52	0.0001727
2550.09	0.0001735
2561.67	0.0002049
2573.24	9.9e-05
2584.82	0.00015
2596.39	0.0001773
2607.96	0.000152
2619.54	0.000111
2631.11	0.000104
2642.69	0.000106
2654.26	8.4e-05
2665.83	0.000109
2677.41	0.000117
2688.98	0.000134
2700.56	0.000134
2712.13	0.000129
2723.7	0.000135
2735.28	0.000141
2746.85	0.000127
2758.43	0.000104
2770	0.00014
2781.57	0.0001665
2793.15	0.000154
2804.72	0.0002444
2816.3	0.00028667
2827.87	0.00031162
2839.44	0.0004709
2851.02	0.0005466
2862.59	0.000669
2874.17	0.0009122
2885.74	0.001304
2897.31	0.001764
2908.89	0.001674
2920.46	0.001304
2932.04	0.001334
2943.61	0.001684
2955.18	0.002314
2966.76	0.002554
2978.33	0.001854
2989.91	0.0011796
3001.48	0.000878
3013.05	0.0012264
3024.63	0.002274
3036.2	0.003924
3047.78	0.003544
3059.35	0.003114
3070.92	0.004744
3082.5	0.003534
3094.07	0.002254
3105.65	0.001494
3117.22	0.0008237
3128.79	0.0003745
3140.37	0.0002385
3151.94	0.000133
3163.52	0.000133
3175.09	0.000123
3186.66	8.7e-05
3198.24	6.4e-05
3209.81	2e-06
3221.39	7.6e-05
3232.96	9.7e-05
3244.53	2.1e-05
3256.11	2.9e-05
3267.68	4.1e-05
3279.26	4.7e-05
3290.83	4.6e-05
3302.4	7.2e-05
3313.98	7.5e-05
3325.55	6e-06
3337.13	6.5e-05
3348.7	3.7e-05
3360.27	9.3e-05
3371.85	6.5e-05
3383.42	8.5e-05
3395	0.000121
3406.57	0.000115
3418.14	8.6e-05
3429.72	0.0002307
3441.29	0.000146
3452.86	0.000114
3464.44	0.000123
3476.01	9.9e-05
3487.59	0.0001701
3499.16	0.0001678
3510.73	0.000117
3522.31	0.00011
3533.88	9e-05
3545.46	0.000117
3557.03	9.1e-05
3568.6	5.4e-05
3580.18	0.000138
3591.75	7.7e-05
3603.33	0.000148
3614.9	0.000151
3626.47	0.0001712
3638.05	0.00034624
3649.62	0.000375
3661.2	0.0004001
3672.77	0.0002246
3684.34	0.0002119
3695.92	0.0001656
3707.49	0.0001718
3719.07	0.0001676
3730.64	0.000122
3742.21	0.0001
3753.79	0.000123
3765.36	0.0001702
3776.94	0.0001755
3788.51	7.3e-05
3800.08	0.000129
3811.66	0.00016
3823.23	0.000108
3834.81	0.000128
3846.38	0.0002244
3857.95	0.000127
3869.53	0.0001687
3881.1	0.000143
3892.68	0.0002131
3904.25	5.1e-05
3915.82	0.000102
3927.4	9.5e-05
3938.97	0.0001849
3950.55	5.4e-05
3962.12	0.000127
3973.69	0.000109
3985.27	0.0001659
3996.84	0.000107
