Infrared Spectrum: FORMAMIDE, N-(2,4-DIAMINO-6-CHLORO-5-PYRIMIDINYL)-
Formula: C5 H6 Cl N5 O
CAS: 171887-09-5
State: SOLID (1 mg / 650 mg KBr DISC)
Class: COBLENTZ III
Instrument: PERKIN-ELMER 221 (GRATING)
Instrument parameters: FILTER CHANGES AT 2490, 980 CM^-^1, GRATING FOR 4000-1428 CM^-^1, NaCl PRISM FOR 1428-650 CM^-^1
Sampling: TRANSMISSION
Resolution: 4
Origin: SOUTHERN RESEARCH INST.
1/CM	TRANSMITTANCE
643.985	0.775
653.588	0.773
663.19	0.77
672.793	0.765
682.396	0.773
691.998	0.786
701.601	0.809
711.203	0.821
720.806	0.834
730.409	0.84
740.011	0.811
749.614	0.752
759.217	0.806
768.819	0.554
778.422	0.773
788.025	0.862
797.627	0.861
807.23	0.859
816.833	0.853
826.435	0.842
836.038	0.83
845.64	0.811
855.243	0.784
864.846	0.674
874.448	0.645
884.051	0.713
893.654	0.621
903.256	0.691
912.859	0.837
922.462	0.87
932.064	0.867
941.667	0.862
951.269	0.857
960.872	0.848
970.475	0.834
980.077	0.819
989.68	0.805
999.283	0.781
1008.89	0.747
1018.49	0.764
1028.09	0.775
1037.69	0.777
1047.3	0.777
1056.9	0.775
1066.5	0.77
1076.1	0.769
1085.71	0.767
1095.31	0.766
1104.91	0.753
1114.51	0.737
1124.12	0.711
1133.72	0.683
1143.32	0.696
1152.92	0.721
1162.53	0.749
1172.13	0.766
1181.73	0.762
1191.34	0.747
1200.94	0.724
1210.54	0.698
1220.14	0.659
1229.75	0.623
1239.35	0.658
1248.95	0.672
1258.55	0.656
1268.16	0.569
1277.76	0.606
1287.36	0.699
1296.96	0.709
1306.57	0.705
1316.17	0.69
1325.77	0.656
1335.38	0.622
1344.98	0.528
1354.58	0.552
1364.18	0.613
1373.79	0.454
1383.39	0.532
1392.99	0.667
1402.59	0.671
1412.2	0.642
1421.8	0.611
1431.4	0.568
1441	0.449
1450.61	0.329
1460.21	0.386
1469.81	0.473
1479.41	0.373
1489.02	0.301
1498.62	0.336
1508.22	0.369
1517.83	0.433
1527.43	0.392
1537.03	0.311
1546.63	0.361
1556.24	0.507
1565.84	0.591
1575.44	0.483
1585.04	0.298
1594.65	0.38
1604.25	0.371
1613.85	0.245
1623.45	0.184
1633.06	0.205
1642.66	0.218
1652.26	0.219
1661.86	0.219
1671.47	0.267
1681.07	0.41
1690.67	0.521
1700.28	0.581
1709.88	0.648
1719.48	0.707
1729.08	0.757
1738.69	0.797
1748.29	0.826
1757.89	0.856
1767.49	0.88
1777.1	0.9
1786.7	0.924
1796.3	0.935
1805.9	0.948
1815.51	0.959
1825.11	0.972
1834.71	0.984
1844.32	0.995
1853.92	1.001
1863.52	1.002
1873.12	1.003
1882.73	1.004
1892.33	1.004
1901.93	1.004
1911.53	1.005
1921.14	1.004
1930.74	1.003
1940.34	1
1949.94	0.997
1959.55	0.996
1969.15	0.992
1978.75	0.991
1988.35	0.988
1997.96	0.986
2007.56	0.978
2017.16	0.974
2026.77	0.971
2036.37	0.97
2045.97	0.969
2055.57	0.967
2065.18	0.966
2074.78	0.966
2084.38	0.965
2093.98	0.965
2103.59	0.966
2113.19	0.959
2122.79	0.958
2132.39	0.959
2142	0.959
2151.6	0.959
2161.2	0.958
2170.8	0.956
2180.41	0.953
2190.01	0.95
2199.61	0.947
2209.22	0.945
2218.82	0.943
2228.42	0.939
2238.02	0.936
2247.63	0.934
2257.23	0.933
2266.83	0.932
2276.43	0.932
2286.04	0.932
2295.64	0.93
2305.24	0.928
2314.84	0.924
2324.45	0.922
2334.05	0.92
2343.65	0.918
2353.25	0.918
2362.86	0.92
2372.46	0.924
2382.06	0.924
2391.67	0.922
2401.27	0.92
2410.87	0.918
2420.47	0.916
2430.08	0.915
2439.68	0.914
2449.28	0.915
2458.88	0.915
2468.49	0.915
2478.09	0.913
2487.69	0.906
2497.29	0.901
2506.9	0.898
2516.5	0.893
2526.1	0.889
2535.71	0.885
2545.31	0.883
2554.91	0.882
2564.51	0.88
2574.12	0.879
2583.72	0.877
2593.32	0.872
2602.92	0.87
2612.53	0.866
2622.13	0.86
2631.73	0.856
2641.33	0.852
2650.94	0.849
2660.54	0.845
2670.14	0.842
2679.74	0.837
2689.35	0.831
2698.95	0.826
2708.55	0.823
2718.16	0.822
2727.76	0.821
2737.36	0.818
2746.96	0.815
2756.57	0.81
2766.17	0.804
2775.77	0.8
2785.37	0.797
2794.98	0.795
2804.58	0.792
2814.18	0.79
2823.78	0.788
2833.39	0.784
2842.99	0.777
2852.59	0.766
2862.19	0.759
2871.8	0.754
2881.4	0.743
2891	0.73
2900.61	0.72
2910.21	0.705
2919.81	0.699
2929.41	0.702
2939.02	0.705
2948.62	0.704
2958.22	0.701
2967.82	0.694
2977.43	0.69
2987.03	0.687
2996.63	0.682
3006.23	0.675
3015.84	0.667
3025.44	0.653
3035.04	0.638
3044.65	0.628
3054.25	0.617
3063.85	0.601
3073.45	0.583
3083.06	0.554
3092.66	0.539
3102.26	0.518
3111.86	0.491
3121.47	0.47
3131.07	0.456
3140.67	0.444
3150.27	0.427
3159.88	0.403
3169.48	0.376
3179.08	0.353
3188.68	0.337
3198.29	0.331
3207.89	0.348
3217.49	0.38
3227.1	0.415
3236.7	0.445
3246.3	0.446
3255.9	0.437
3265.51	0.417
3275.11	0.4
3284.71	0.388
3294.31	0.384
3303.92	0.382
3313.52	0.386
3323.12	0.39
3332.72	0.397
3342.33	0.417
3351.93	0.462
3361.53	0.466
3371.13	0.47
3380.74	0.478
3390.34	0.496
3399.94	0.509
3409.55	0.52
3419.15	0.524
3428.75	0.532
3438.35	0.536
3447.96	0.553
3457.56	0.596
3467.16	0.625
3476.76	0.63
3486.37	0.582
3495.97	0.534
3505.57	0.631
3515.17	0.726
3524.78	0.772
3534.38	0.803
3543.98	0.826
3553.59	0.849
3563.19	0.857
3572.79	0.868
3582.39	0.88
3592	0.891
3601.6	0.901
3611.2	0.908
3620.8	0.911
3630.41	0.914
3640.01	0.916
3649.61	0.916
3659.21	0.916
3668.82	0.914
3678.42	0.913
3688.02	0.913
3697.62	0.913
3707.23	0.913
3716.83	0.913
3726.43	0.912
3736.04	0.911
3745.64	0.911
3755.24	0.91
3764.84	0.909
3774.45	0.908
3784.05	0.906
3793.65	0.904
3803.25	0.901
3812.86	0.898
3822.46	0.897
3832.06	0.895
3841.66	0.894
3851.27	0.893
3860.87	0.891
3870.47	0.89
3880.07	0.89
3889.68	0.89
3899.28	0.89
3908.88	0.89
3918.49	0.89
3928.09	0.89
3937.69	0.89
3947.29	0.89
3956.9	0.89
3966.5	0.889
3976.1	0.889
3985.7	0.889
3995.31	0.89
4004.91	0.89
