Infrared Spectrum: Bicyclo[2.2.2]-7-octene-2,3,5,6-tetracarboxylic dianhydride
Formula: C 12 H 8 O 6
CAS: 1719-83-1
State: gas
Origin: EPA-IR VAPOR PHASE LIBRARY
1/CM	ABSORBANCE
549.8	0.0003026
559.445	0.0003454
569.09	0.0006902
578.734	0.0008869
588.379	0.0011177
598.024	0.0007745
607.669	0.0003319
617.313	0.0003856
626.958	0.0005916
636.603	0.0003513
646.248	0.0003839
655.893	0.0004928
665.537	0.0011397
675.182	0.001616
684.827	0.0006526
694.472	0.0009707
704.116	0.0006584
713.761	0.0008189
723.406	0.0007382
733.051	0.001236
742.695	0.002316
752.34	0.001876
761.985	0.002046
771.63	0.0009819
781.275	0.0002711
790.919	0.0006533
800.564	0.0004603
810.209	0.0004609
819.854	0.00021933
829.498	0.0003287
839.143	0.0006929
848.788	0.0005382
858.433	0.0004881
868.078	0.0007534
877.722	0.0009978
887.367	0.0007973
897.012	0.001366
906.657	0.002616
916.301	0.007126
925.946	0.018796
935.591	0.017496
945.236	0.004326
954.88	0.001416
964.525	0.0011489
974.17	0.0010076
983.815	0.000913
993.46	0.001406
1003.1	0.002846
1012.75	0.001956
1022.39	0.0009521
1032.04	0.001586
1041.68	0.001426
1051.33	0.002466
1060.97	0.003506
1070.62	0.002236
1080.26	0.002926
1089.91	0.005756
1099.55	0.006996
1109.2	0.005066
1118.84	0.001966
1128.49	0.0010124
1138.13	0.0010629
1147.78	0.0010805
1157.42	0.0007416
1167.07	0.000976
1176.71	0.001816
1186.36	0.002056
1196	0.003556
1205.64	0.005876
1215.29	0.010226
1224.93	0.012166
1234.58	0.007336
1244.22	0.003756
1253.87	0.002026
1263.51	0.001496
1273.16	0.0011181
1282.8	0.0009836
1292.45	0.001676
1302.09	0.002336
1311.74	0.001606
1321.38	0.0008504
1331.03	0.0005919
1340.67	0.0007564
1350.32	0.0006113
1359.96	0.0007647
1369.61	0.0009257
1379.25	0.0009248
1388.9	0.0006003
1398.54	0.0005135
1408.18	0.00035
1417.83	0.0006057
1427.47	0.0004327
1437.12	0.0006371
1446.76	0.0004733
1456.41	0.0008118
1466.05	0.0004904
1475.7	0.0005471
1485.34	0.0004686
1494.99	0.0004894
1504.63	0.000637
1514.28	0.0006251
1523.92	0.0005781
1533.57	0.0006208
1543.21	0.0007346
1552.86	0.0005812
1562.5	0.0003653
1572.15	0.0003336
1581.79	0.000328
1591.44	0.0003482
1601.08	0.0003711
1610.73	0.0003638
1620.37	0.0005043
1630.01	0.0004469
1639.66	0.0005206
1649.3	0.0004675
1658.95	0.0004826
1668.59	0.0005155
1678.24	0.0004775
1687.88	0.0005476
1697.53	0.0007126
1707.17	0.0007244
1716.82	0.0010648
1726.46	0.0006797
1736.11	0.0009696
1745.75	0.0010286
1755.4	0.001366
1765.04	0.002236
1774.69	0.004056
1784.33	0.008006
1793.98	0.020776
1803.62	0.035586
1813.27	0.022236
1822.91	0.012046
1832.55	0.008526
1842.2	0.006066
1851.84	0.004616
1861.49	0.005526
1871.13	0.008716
1880.78	0.006516
1890.42	0.002976
1900.07	0.001706
1909.71	0.0010696
1919.36	0.0007144
1929	0.0005812
1938.65	0.0004736
1948.29	0.0004773
1957.94	0.0004346
1967.58	0.000453
1977.23	0.000506
1986.87	0.0004672
1996.52	0.0004071
2006.16	0.0004778
2015.81	0.0004513
2025.45	0.0003557
2035.1	0.0003117
2044.74	0.00025141
2054.38	0.00020114
2064.03	0.0002869
2073.67	0.00024258
2083.32	0.0002796
2092.96	0.00023409
2102.61	0.0003042
2112.25	0.0003671
2121.9	0.0003193
2131.54	0.0003685
2141.19	0.0003931
2150.83	0.0003999
2160.48	0.0004385
2170.12	0.0004399
2179.77	0.0004305
2189.41	0.0003695
2199.06	0.0003636
2208.7	0.0002829
2218.35	0.0002947
2227.99	0.0003306
2237.64	0.0002741
2247.28	0.00025281
2256.92	0.0002619
2266.57	0.0003043
2276.21	0.000265
2285.86	0.0003487
2295.5	0.0002937
2305.15	0.0002679
2314.79	0.00023736
2324.44	0.00022576
2334.08	0.0002248
2343.73	0.0002169
2353.37	0.00024638
2363.02	0.00024148
2372.66	0.00021375
2382.31	0.000161523
2391.95	0.0002357
2401.6	0.00016839
2411.24	0.00020131
2420.89	0.00025371
2430.53	0.0002729
2440.18	0.00019871
2449.82	0.0003029
2459.47	0.00023996
2469.11	0.00020446
2478.75	0.0001336
2488.4	0.00018233
2498.04	0.0002228
2507.69	0.00020118
2517.33	0.00022701
2526.98	0.00020265
2536.62	0.00015234
2546.27	0.00021951
2555.91	0.0002047
2565.56	0.00017219
2575.2	0.00020527
2584.85	0.00021028
2594.49	0.00017738
2604.14	0.00018651
2613.78	0.00019812
2623.43	0.0001233
2633.07	9.66e-05
2642.72	0.00019884
2652.36	0.000155642
2662.01	0.000136
2671.65	0.00020077
2681.29	0.00021115
2690.94	0.00018301
2700.58	0.00021607
2710.23	0.00018007
2719.87	0.00014958
2729.52	0.000164084
2739.16	5e-05
2748.81	0.00016934
2758.45	0.0001513
2768.1	0.0001406
2777.74	0.00019741
2787.39	0.00019361
2797.03	0.0001331
2806.68	0.00019151
2816.32	0.00011
2825.97	0.00020494
2835.61	0.00018917
2845.26	0.0001519
2854.9	0.00021634
2864.55	0.0001419
2874.19	0.0001344
2883.84	0.000157835
2893.48	9.04e-05
2903.12	0.000160122
2912.77	0.00015033
2922.41	0.000161662
2932.06	0.0005082
2941.7	0.0009515
2951.35	0.001176
2960.99	0.0002491
2970.64	0.0001175
2980.28	0.00018491
2989.93	0.0004244
2999.57	0.0005386
3009.22	0.00023444
3018.86	0.00022567
3028.51	0.0001274
3038.15	0.00015299
3047.8	0.000145
3057.44	0.00013
3067.09	0.00021506
3076.73	0.0002919
3086.38	0.00016845
3096.02	0.0002416
3105.67	0.00018324
3115.31	5.5e-05
3124.95	0.000137
3134.6	0.0001376
3144.24	8.51e-05
3153.89	0.0002565
3163.53	9.52e-05
3173.18	0.0001043
3182.82	0.00014754
3192.47	9.52e-05
3202.11	0.00022216
3211.76	0.00016723
3221.4	0.0001388
3231.05	0.0001368
3240.69	0.0001399
3250.34	0.0001342
3259.98	0.0001111
3269.63	0.0003064
3279.27	9.32e-05
3288.92	0.00019291
3298.56	0.0001312
3308.21	0.00020814
3317.85	0.00015245
3327.49	0.000125
3337.14	0.00023844
3346.78	0.00022745
3356.43	0.0002801
3366.07	0.000157026
3375.72	0.00024512
3385.36	0.0001124
3395.01	0.0001399
3404.65	9.32e-05
3414.3	0.00019528
3423.94	0.0002319
3433.59	0.00025554
3443.23	0.00025019
3452.88	0.00018921
3462.52	0.0002914
3472.17	0.00022167
3481.81	0.0001279
3491.46	0.00022877
3501.1	0.0003554
3510.75	0.0002603
3520.39	0.0002986
3530.04	0.00019907
3539.68	0.00023458
3549.32	0.0003696
3558.97	0.0003607
3568.61	0.0004184
3578.26	0.00022079
3587.9	0.0004814
3597.55	0.0004923
3607.19	0.0004682
3616.84	0.0004126
3626.48	0.0005794
3636.13	0.0003808
3645.77	0.000515
3655.42	0.0006388
3665.06	0.0005302
3674.71	0.0006458
3684.35	0.0004224
3694	0.0003387
3703.64	0.0003976
3713.29	0.0005194
3722.93	0.0004025
3732.58	0.0004643
3742.22	0.0005228
3751.86	0.0006005
3761.51	0.0002724
3771.15	0.0002974
3780.8	0.000157845
3790.44	0.000158124
3800.09	0.0003523
3809.73	0.000268
3819.38	0.000387
3829.02	0.0002966
3838.67	0.0003866
3848.31	0.0003214
3857.96	0.0002833
3867.6	0.0002502
3877.25	0.0003484
3886.89	0.0002869
3896.54	0.00024507
3906.18	0.0004206
3915.83	0.0003187
3925.47	0.0003909
3935.12	0.0003042
3944.76	0.0002675
3954.41	0.0003053
3964.05	0.0003119
3973.69	0.0002622
3983.34	0.0004599
3992.98	0.0004038
