Infrared Spectrum: D-Mandelic acid
Formula: C 8 H 8 O 3
CAS: 17199-29-0
State: gas
Origin: EPA-IR VAPOR PHASE LIBRARY
1/CM	ABSORBANCE
549.8	0.003456
559.445	0.003896
569.09	0.002716
578.734	0.002676
588.379	0.003196
598.024	0.004416
607.669	0.006426
617.313	0.004906
626.958	0.002826
636.603	0.002636
646.248	0.002676
655.893	0.002696
665.537	0.002486
675.182	0.002466
684.827	0.003126
694.472	0.004296
704.116	0.004386
713.761	0.004046
723.406	0.003446
733.051	0.002826
742.695	0.002456
752.34	0.002226
761.985	0.001816
771.63	0.001586
781.275	0.0010909
790.919	0.0011028
800.564	0.0011808
810.209	0.0011704
819.854	0.0012038
829.498	0.001027
839.143	0.0009072
848.788	0.0011939
858.433	0.0014186
868.078	0.001516
877.722	0.001526
887.367	0.0014837
897.012	0.001666
906.657	0.0014908
916.301	0.001586
925.946	0.0013757
935.591	0.0012473
945.236	0.0009989
954.88	0.0010168
964.525	0.0008763
974.17	0.0012578
983.815	0.001036
993.46	0.0010457
1003.1	0.0012476
1012.75	0.001916
1022.39	0.002186
1032.04	0.002826
1041.68	0.003086
1051.33	0.004166
1060.97	0.005046
1070.62	0.005906
1080.26	0.006726
1089.91	0.006396
1099.55	0.006206
1109.2	0.005936
1118.84	0.006906
1128.49	0.008596
1138.13	0.008456
1147.78	0.006436
1157.42	0.004536
1167.07	0.003626
1176.71	0.003076
1186.36	0.003436
1196	0.002626
1205.64	0.002146
1215.29	0.002086
1224.93	0.002076
1234.58	0.002406
1244.22	0.002646
1253.87	0.002316
1263.51	0.002966
1273.16	0.003086
1282.8	0.002956
1292.45	0.003026
1302.09	0.003126
1311.74	0.003576
1321.38	0.003936
1331.03	0.004206
1340.67	0.004086
1350.32	0.003516
1359.96	0.002906
1369.61	0.002386
1379.25	0.001866
1388.9	0.001656
1398.54	0.0013395
1408.18	0.0011792
1417.83	0.0009684
1427.47	0.0009302
1437.12	0.0009322
1446.76	0.0012625
1456.41	0.001269
1466.05	0.0009568
1475.7	0.0007077
1485.34	0.0009296
1494.99	0.001256
1504.63	0.0009678
1514.28	0.00052666
1523.92	0.000471
1533.57	0.0005596
1543.21	0.00050814
1552.86	0.0004796
1562.5	0.00050761
1572.15	0.0006101
1581.79	0.0006133
1591.44	0.0008792
1601.08	0.0010043
1610.73	0.0009227
1620.37	0.0007645
1630.01	0.0007805
1639.66	0.0006792
1649.3	0.000643
1658.95	0.0007184
1668.59	0.0007642
1678.24	0.0007534
1687.88	0.0007737
1697.53	0.0009072
1707.17	0.0010905
1716.82	0.0014821
1726.46	0.001776
1736.11	0.002236
1745.75	0.003246
1755.4	0.005856
1765.04	0.010336
1774.69	0.013156
1784.33	0.010906
1793.98	0.007736
1803.62	0.005516
1813.27	0.003966
1822.91	0.002506
1832.55	0.001526
1842.2	0.0010828
1851.84	0.0008713
1861.49	0.0007318
1871.13	0.0006704
1880.78	0.0007632
1890.42	0.0006995
1900.07	0.0006498
1909.71	0.0006442
1919.36	0.000496018
1929	0.0005854
1938.65	0.0006505
1948.29	0.0006748
1957.94	0.0006593
1967.58	0.00056623
1977.23	0.0004784
1986.87	0.00049501
1996.52	0.0004737
2006.16	0.0004395
2015.81	0.0005965
2025.45	0.0004567
2035.1	0.0004745
2044.74	0.0004113
2054.38	0.000498361
2064.03	0.0004797
2073.67	0.0004453
2083.32	0.0004526
2092.96	0.000414
2102.61	0.0003998
2112.25	0.0004369
2121.9	0.000391
2131.54	0.000496321
2141.19	0.0004575
2150.83	0.0004575
2160.48	0.0004224
2170.12	0.0004208
2179.77	0.0004213
2189.41	0.0004149
2199.06	0.0004253
2208.7	0.0004438
2218.35	0.0004208
2227.99	0.0004442
2237.64	0.00055042
2247.28	0.0004504
2256.92	0.0005181
2266.57	0.00053139
2276.21	0.0004188
2285.86	0.0004388
2295.5	0.0004054
2305.15	0.000471
2314.79	0.0005306
2324.44	0.00054257
2334.08	0.0006072
2343.73	0.00053174
2353.37	0.0006191
2363.02	0.0006854
2372.66	0.00050695
2382.31	0.0004388
2391.95	0.0004072
2401.6	0.0004618
2411.24	0.0004371
2420.89	0.0004215
2430.53	0.0004841
2440.18	0.0004164
2449.82	0.000292
2459.47	0.0004758
2469.11	0.00052984
2478.75	0.000378
2488.4	0.000502893
2498.04	0.000339
2507.69	0.000367
2517.33	0.000324
2526.98	0.000233
2536.62	0.000321
2546.27	0.000346
2555.91	0.000314
2565.56	0.000414
2575.2	0.000308
2584.85	0.000329
2594.49	0.000359
2604.14	0.00037
2613.78	0.0004816
2623.43	0.000107
2633.07	0.000349
2642.72	0.000298
2652.36	0.000279
2662.01	0.000344
2671.65	0.000313
2681.29	0.00036
2690.94	0.0004495
2700.58	0.00038
2710.23	0.000259
2719.87	0.000239
2729.52	0.000256
2739.16	0.00024
2748.81	0.0004088
2758.45	0.000278
2768.1	0.000245
2777.74	0.000379
2787.39	0.000257
2797.03	0.00027
2806.68	0.000308
2816.32	0.0003992
2825.97	0.000393
2835.61	0.000372
2845.26	0.0004466
2854.9	0.0004269
2864.55	0.0006299
2874.19	0.0004438
2883.84	0.00058344
2893.48	0.0004316
2903.12	0.0004727
2912.77	0.0007602
2922.41	0.0008165
2932.06	0.0007026
2941.7	0.0006267
2951.35	0.00051649
2960.99	0.0006408
2970.64	0.00051286
2980.28	0.00035
2989.93	0.0004253
2999.57	0.0004612
3009.22	0.0005974
3018.86	0.0008029
3028.51	0.001178
3038.15	0.001666
3047.8	0.001656
3057.44	0.0011611
3067.09	0.001626
3076.73	0.001996
3086.38	0.001686
3096.02	0.0012047
3105.67	0.0009212
3115.31	0.0007242
3124.95	0.00055245
3134.6	0.00055635
3144.24	0.000382
3153.89	0.000297
3163.53	0.000282
3173.18	0.0004178
3182.82	0.000395
3192.47	0.0004126
3202.11	0.0004589
3211.76	0.000387
3221.4	0.000307
3231.05	0.000272
3240.69	0.000188
3250.34	0.000505097
3259.98	0.00018
3269.63	0.00056305
3279.27	0.000253
3288.92	0.000367
3298.56	0.00054383
3308.21	0.000286
3317.85	7.6e-05
3327.49	0.000381
3337.14	0.000214
3346.78	0.00058907
3356.43	0.00052732
3366.07	0.00034
3375.72	0.000335
3385.36	0.00046
3395.01	0.0004474
3404.65	0.000393
3414.3	0.000353
3423.94	0.00021
3433.59	0.0004387
3443.23	0.000214
3452.88	0.00051166
3462.52	0.00052369
3472.17	0.0008072
3481.81	0.0008224
3491.46	0.0006079
3501.1	0.0007541
3510.75	0.0008868
3520.39	0.0009771
3530.04	0.0009377
3539.68	0.0011311
3549.32	0.001526
3558.97	0.003076
3568.61	0.006566
3578.26	0.007216
3587.9	0.003786
3597.55	0.001846
3607.19	0.0010832
3616.84	0.0008658
3626.48	0.0009461
3636.13	0.0011444
3645.77	0.0010804
3655.42	0.0009544
3665.06	0.0007359
3674.71	0.0006611
3684.35	0.000166
3694	0.0005975
3703.64	0.00028
3713.29	0.0004333
3722.93	3.2e-05
3732.58	0.000313
3742.22	9.3e-05
3751.86	9.3e-05
3761.51	0.0004179
3771.15	0.00054658
3780.8	0.000208
3790.44	0.000323
3800.09	0.00035
3809.73	0.00050389
3819.38	0.0004257
3829.02	0.00048922
3838.67	0.000326
3848.31	0.000208
3857.96	0.000231
3867.6	0.0004826
3877.25	0.000279
3886.89	0.000328
3896.54	0.00055633
3906.18	0.000373
3915.83	0.00015
3925.47	0.000259
3935.12	0.00018
3944.76	0.000189
3954.41	0.000212
3964.05	0.000498977
3973.69	3.3e-05
3983.34	0.000261
3992.98	0.000206
