Infrared Spectrum: Anthracene-d10
Formula: C 14 D 10
CAS: 1719-06-8
State: gas
Instrument: HP-GC/MS/IRD
Origin: NIST Mass Spectrometry Data Center
1/CM	ABSORBANCE
550	0.0036351
562	0.0069534
574	0.0031257
586	0.0019197
598	0.0005373
610	0.000333
622	0.0003447
634	0.0001629
646	0.0001089
658	4.68e-05
670	6.21e-05
682	0.0001989
694	0.0002853
706	0.0012159
718	0.003555
730	0.0023238
742	0.000459
754	0.0002034
766	0.000333
778	0.001701
790	0.0025821
802	0.0006975
814	0.0004266
826	0.0020421
838	0.001314
850	0.0002547
862	0.000216
874	0.0008649
886	0.0012069
898	0.0005697
910	0.0002241
922	0.0001431
934	0.0001935
946	0.0001395
958	0.0001305
970	4.77e-05
982	0.0001188
994	3.51e-05
1006	0.0001062
1018	0.0001017
1030	0.0001638
1042	0.0001278
1054	3.87e-05
1066	5.04e-05
1078	4.23e-05
1090	7.2e-05
1102	5.76e-05
1114	7.29e-05
1126	1.53e-05
1138	4.77e-05
1150	0.0001278
1162	0.0002511
1174	0.0001026
1186	0.000153
1198	0.0003825
1210	0.0002592
1222	0.0001719
1234	0.0002142
1246	0.0005337
1258	0.0010683
1270	0.0005355
1282	0.0001917
1294	0.0001692
1306	0.0002718
1318	0.0006165
1330	0.0007164
1342	0.0002205
1354	0.0002871
1366	0.0003717
1378	0.000576
1390	0.0009207
1402	0.0005895
1414	0.0004734
1426	0.0002601
1438	0.0002061
1450	0.0002565
1462	0.0002367
1474	9e-05
1486	0.0003699
1498	0.0016119
1510	0.0006345
1522	0.0005778
1534	0.000522
1546	0.0001494
1558	0.0002034
1570	0.0002412
1582	0.0004041
1594	0.0007713
1606	0.0003717
1618	0.0002619
1630	0.0002043
1642	0.0002475
1654	0.0001926
1666	0.0001908
1678	0.0001368
1690	8.73e-05
1702	7.2e-05
1714	6.84e-05
1726	0.0001089
1738	0.0001044
1750	0.0001071
1762	9.27e-05
1774	8.19e-05
1786	1.71e-05
1798	4.59e-05
1810	0.0001134
1822	0.000108
1834	9.9e-05
1846	4.86e-05
1858	4.95e-05
1870	4.14e-05
1882	7.02e-05
1894	5.04e-05
1906	2.25e-05
1918	4.41e-05
1930	4.86e-05
1942	6.3e-05
1954	6.84e-05
1966	5.13e-05
1978	7.29e-05
1990	6.84e-05
2002	2.43e-05
2014	1.08e-05
2026	3.06e-05
2038	3.78e-05
2050	5.04e-05
2062	4.95e-05
2074	3.15e-05
2086	3.15e-05
2098	9.72e-05
2110	7.02e-05
2122	2.88e-05
2134	3.78e-05
2146	5.4e-05
2158	7.74e-05
2170	9.72e-05
2182	0.0001872
2194	0.0002682
2206	0.0003123
2218	0.0004608
2230	0.0008694
2242	0.001701
2254	0.0031923
2266	0.0051624
2278	0.0066969
2290	0.0076023
2302	0.0043947
2314	0.0010899
2326	0.0005589
2338	0.0006165
2350	0.0003843
2362	0.0003699
2374	0.0003033
2386	0.00018
2398	0.0001611
2410	0.0001881
2422	0.0001872
2434	0.000171
2446	0.0001314
2458	8.64e-05
2470	8.55e-05
2482	7.29e-05
2494	8.19e-05
2506	7.38e-05
2518	6.84e-05
2530	5.94e-05
2542	3.87e-05
2554	4.14e-05
2566	7.2e-05
2578	5.31e-05
2590	7.11e-05
2602	4.23e-05
2614	1.17e-05
2626	4.5e-05
2638	7.38e-05
2650	7.65e-05
2662	7.56e-05
2674	5.31e-05
2686	5.67e-05
2698	3.42e-05
2710	3.33e-05
2722	4.5e-05
2734	4.32e-05
2746	5.67e-05
2758	2.16e-05
2770	4.41e-05
2782	6.66e-05
2794	3.06e-05
2806	3.51e-05
2818	4.23e-05
2830	0.0001116
2842	0.0001116
2854	0.0001035
2866	8.46e-05
2878	6.75e-05
2890	0.0001062
2902	6.66e-05
2914	5.22e-05
2926	8.19e-05
2938	6.21e-05
2950	9.72e-05
2962	9.09e-05
2974	8.19e-05
2986	5.4e-05
2998	1.89e-05
3010	6.39e-05
3022	0.0001215
3034	0.0001557
3046	0.000198
3058	0.0002313
3070	0.0001764
3082	0.0001539
3094	0.0001656
3106	0.0001143
3118	9.54e-05
3130	0.0001449
3142	0.0001872
3154	0.0001152
3166	0.0001098
3178	0.0001242
3190	7.92e-05
3202	6.03e-05
3214	5.67e-05
3226	7.92e-05
3238	8.1e-05
3250	7.65e-05
3262	5.31e-05
3274	4.41e-05
3286	0.0001035
3298	0.0001269
3310	8.46e-05
3322	9.9e-06
3334	4.5e-05
3346	5.4e-05
3358	5.85e-05
3370	5.67e-05
3382	3.6e-05
3394	7.65e-05
3406	8.55e-05
3418	5.4e-05
3430	9.27e-05
3442	4.59e-05
3454	7.29e-05
3466	7.56e-05
3478	0.0001314
3490	0.0001233
3502	0.0001188
3514	0.0001602
3526	0.0001377
3538	0.0001233
3550	9.63e-05
3562	6.93e-05
3574	7.02e-05
3586	0.0001161
3598	9.63e-05
3610	0.0001125
3622	9.36e-05
3634	8.46e-05
3646	0.0001521
3658	0.000135
3670	0.0001224
3682	8.55e-05
3694	0.0001134
3706	5.85e-05
3718	0.0001008
3730	7.11e-05
3742	5.67e-05
3754	0.0001008
3766	0.0001827
3778	0.0001071
3790	0.0001584
3802	0.0001827
3814	0.0001449
3826	0.0001062
3838	9.45e-05
