Infrared Spectrum: CHLORODIMETHYLVINYLSILANE
Formula: C4 H9 Cl Si
CAS: 1719-58-0
State: SOLID (BETWEEN SALTS)
Class: COBLENTZ
Instrument: BECKMAN IR-4 (HYBRID PRISM-GRATING)
Sampling: TRANSMISSION
Resolution: 4
Origin: PENINSULAR CHEMRESEARCH, INC., GAINESVILLE, FLORIDA
MICROMETERS	TRANSMITTANCE
2.02	0.851
2.05499	0.853
2.08997	0.853
2.12496	0.848
2.15995	0.851
2.19493	0.85
2.22992	0.844
2.26491	0.843
2.29989	0.848
2.33488	0.851
2.36987	0.851
2.40485	0.855
2.43984	0.859
2.47483	0.861
2.50981	0.853
2.5448	0.853
2.57978	0.853
2.61477	0.854
2.64976	0.849
2.68474	0.849
2.71973	0.853
2.75472	0.845
2.7897	0.856
2.82469	0.853
2.85968	0.849
2.89466	0.848
2.92965	0.851
2.96464	0.853
2.99962	0.845
3.03461	0.848
3.0696	0.849
3.10458	0.848
3.13957	0.843
3.17456	0.843
3.20954	0.839
3.24453	0.82
3.27952	0.716
3.3145	0.752
3.34949	0.708
3.38448	0.524
3.41946	0.697
3.45445	0.751
3.48943	0.813
3.52442	0.839
3.55941	0.849
3.59439	0.86
3.62938	0.875
3.66437	0.882
3.69935	0.884
3.73434	0.888
3.76933	0.889
3.80431	0.888
3.8393	0.893
3.87429	0.893
3.90927	0.893
3.94426	0.893
3.97925	0.898
4.01423	0.892
4.04922	0.899
4.08421	0.899
4.11919	0.897
4.15418	0.898
4.18917	0.888
4.22415	0.88
4.25914	0.885
4.29413	0.9
4.32911	0.904
4.3641	0.897
4.39908	0.883
4.43407	0.893
4.46906	0.892
4.50404	0.893
4.53903	0.899
4.57402	0.893
4.609	0.899
4.64399	0.895
4.67898	0.895
4.71396	0.892
4.74895	0.889
4.78394	0.892
4.81892	0.89
4.85391	0.89
4.8889	0.887
4.92388	0.887
4.95887	0.892
4.99386	0.888
5.02884	0.892
5.06383	0.883
5.09882	0.882
5.1338	0.872
5.16879	0.851
5.20378	0.856
5.23876	0.873
5.27375	0.882
5.30873	0.887
5.34372	0.889
5.37871	0.893
5.41369	0.887
5.44868	0.892
5.48367	0.9
5.51865	0.892
5.55364	0.889
5.58863	0.894
5.62361	0.883
5.6586	0.883
5.69359	0.863
5.72857	0.856
5.76356	0.863
5.79855	0.859
5.83353	0.87
5.86852	0.868
5.90351	0.873
5.93849	0.88
5.97348	0.884
6.00847	0.877
6.04345	0.867
6.07844	0.869
6.11343	0.863
6.14841	0.863
6.1834	0.867
6.21838	0.843
6.25337	0.741
6.28836	0.789
6.32334	0.843
6.35833	0.853
6.39332	0.854
6.4283	0.859
6.46329	0.849
6.49828	0.851
6.53326	0.843
6.56825	0.85
6.60324	0.851
6.63822	0.858
6.67321	0.844
6.7082	0.849
6.74318	0.841
6.77817	0.834
6.81316	0.81
6.84814	0.813
6.88313	0.803
6.91812	0.81
6.9531	0.787
6.98809	0.766
7.02308	0.692
7.05806	0.59
7.09305	0.451
7.12803	0.5
7.16302	0.67
7.19801	0.744
7.23299	0.782
7.26798	0.815
7.30297	0.833
7.33795	0.843
7.37294	0.846
7.40793	0.848
7.44291	0.841
7.4779	0.849
7.51289	0.841
7.54787	0.839
7.58286	0.84
7.61785	0.831
7.65283	0.829
7.68782	0.794
7.72281	0.764
7.75779	0.749
7.79278	0.752
7.82777	0.71
7.86275	0.619
7.89774	0.483
7.93273	0.302
7.96771	0.247
8.0027	0.404
8.03768	0.632
8.07267	0.728
8.10766	0.77
8.14264	0.796
8.17763	0.81
8.21262	0.816
8.2476	0.819
8.28259	0.819
8.31758	0.815
8.35256	0.814
8.38755	0.818
8.42254	0.814
8.45752	0.81
8.49251	0.791
8.5275	0.772
8.56248	0.754
8.59747	0.77
8.63246	0.774
8.66744	0.769
8.70243	0.752
8.73742	0.75
8.7724	0.742
8.80739	0.728
8.84238	0.715
8.87736	0.701
8.91235	0.691
8.94733	0.682
8.98232	0.668
9.01731	0.654
9.05229	0.632
9.08728	0.601
9.12227	0.577
9.15725	0.543
9.19224	0.51
9.22723	0.478
9.26221	0.45
9.2972	0.422
9.33219	0.39
9.36717	0.361
9.40216	0.35
9.43715	0.345
9.47213	0.351
9.50712	0.367
9.54211	0.382
9.57709	0.419
9.61208	0.442
9.64707	0.47
9.68205	0.503
9.71704	0.521
9.75203	0.553
9.78701	0.578
9.822	0.579
9.85698	0.539
9.89197	0.47
9.92696	0.411
9.96194	0.409
9.99693	0.471
10.0319	0.593
10.0669	0.681
10.1019	0.713
10.1369	0.744
10.1719	0.752
10.2069	0.741
10.2418	0.713
10.2768	0.672
10.3118	0.603
10.3468	0.523
10.3818	0.473
10.4168	0.455
10.4518	0.48
10.4867	0.55
10.5217	0.619
10.5567	0.671
10.5917	0.72
10.6267	0.762
10.6617	0.777
10.6967	0.789
10.7316	0.792
10.7666	0.804
10.8016	0.803
10.8366	0.803
10.8716	0.804
10.9066	0.803
10.9416	0.797
10.9766	0.794
11.0115	0.79
11.0465	0.784
11.0815	0.776
11.1165	0.76
11.1515	0.752
11.1865	0.746
11.2215	0.741
11.2564	0.73
11.2914	0.713
11.3264	0.706
11.3614	0.697
11.3964	0.685
11.4314	0.654
11.4664	0.633
11.5014	0.601
11.5363	0.579
11.5713	0.521
11.6063	0.48
11.6413	0.43
11.6763	0.36
11.7113	0.291
11.7463	0.212
11.7812	0.169
11.8162	0.156
11.8512	0.166
11.8862	0.189
11.9212	0.212
11.9562	0.249
11.9912	0.291
12.0262	0.318
12.0611	0.327
12.0961	0.313
12.1311	0.277
12.1661	0.229
12.2011	0.151
12.2361	0.121
12.2711	0.11
12.306	0.129
12.341	0.169
12.376	0.219
12.411	0.243
12.446	0.245
12.481	0.234
12.516	0.212
12.5509	0.191
12.5859	0.151
12.6209	0.116
12.6559	0.079
12.6909	0.081
12.7259	0.121
12.7609	0.189
12.7959	0.267
12.8308	0.342
12.8658	0.42
12.9008	0.481
12.9358	0.537
12.9708	0.59
13.0058	0.629
13.0408	0.656
13.0757	0.682
13.1107	0.697
13.1457	0.703
13.1807	0.707
13.2157	0.716
13.2507	0.722
13.2857	0.723
13.3207	0.725
13.3556	0.728
13.3906	0.728
13.4256	0.728
13.4606	0.727
13.4956	0.727
13.5306	0.726
13.5656	0.723
13.6005	0.72
13.6355	0.713
13.6705	0.708
13.7055	0.701
13.7405	0.69
13.7755	0.67
13.8105	0.633
13.8455	0.601
13.8804	0.542
13.9154	0.483
13.9504	0.451
13.9854	0.429
14.0204	0.421
14.0554	0.416
14.0904	0.426
14.1253	0.441
14.1603	0.447
14.1953	0.454
14.2303	0.456
14.2653	0.454
14.3003	0.461
14.3353	0.459
14.3702	0.475
14.4052	0.493
14.4402	0.513
14.4752	0.539
14.5102	0.553
14.5452	0.583
14.5802	0.601
14.6152	0.614
14.6501	0.626
14.6851	0.637
14.7201	0.641
14.7551	0.654
14.7901	0.651
14.8251	0.638
14.8601	0.636
14.895	0.629
14.93	0.619
14.965	0.602
15	0.599
