Infrared Spectrum: p-Cyanobenzyl bromide
Formula: C 8 H 6 Br N
CAS: 17201-43-3
State: gas
Instrument: HP-GC/MS/IRD
Origin: NIST Mass Spectrometry Data Center
1/CM	ABSORBANCE
550	0.002064
562	0.0013312
574	0.0009264
586	0.0020128
598	0.005528
610	0.0132368
622	0.0133824
634	0.0077872
646	0.00368
658	0.0020192
670	0.0017776
682	0.0017024
694	0.0022464
706	0.0042384
718	0.0041456
730	0.0016368
742	0.0009888
754	0.000592
766	0.0006672
778	0.0016048
790	0.0029472
802	0.0043248
814	0.0076464
826	0.0107632
838	0.0103728
850	0.0074816
862	0.0048096
874	0.0029952
886	0.0021008
898	0.0014256
910	0.0006864
922	0.000312
934	0.000248
946	0.000424
958	0.0002976
970	0.0001376
982	9.92e-05
994	3.2e-05
1006	0.0002512
1018	0.0026096
1030	0.0012064
1042	1.6e-05
1054	9.12e-05
1066	0.0003584
1078	0.0008672
1090	0.0016
1102	0.001864
1114	0.0011456
1126	0.0006736
1138	0.0004704
1150	0.0005584
1162	0.0007968
1174	0.0013248
1186	0.0026288
1198	0.0054048
1210	0.0091184
1222	0.016
1234	0.0116704
1246	0.0051568
1258	0.0028256
1270	0.0018784
1282	0.001472
1294	0.001024
1306	0.0005488
1318	0.00036
1330	0.0004048
1342	0.0004448
1354	0.0005232
1366	0.0007312
1378	0.0008672
1390	0.001504
1402	0.0029504
1414	0.003624
1426	0.0026112
1438	0.0019024
1450	0.0014528
1462	0.000888
1474	0.0007104
1486	0.0014848
1498	0.0037856
1510	0.0087936
1522	0.0020752
1534	0.0005776
1546	0.00044
1558	0.0005056
1570	0.0004608
1582	0.0004384
1594	0.0007856
1606	0.0020896
1618	0.0020496
1630	0.000672
1642	0.0007312
1654	0.000848
1666	0.0008064
1678	0.000656
1690	0.0004272
1702	0.0002624
1714	0.0002048
1726	0.000144
1738	0.0001456
1750	0.0002016
1762	0.0003408
1774	0.0005984
1786	0.0010736
1798	0.0008048
1810	0.0002592
1822	0.0001552
1834	9.92e-05
1846	8.16e-05
1858	0.0001056
1870	0.0001504
1882	0.0002736
1894	0.0007136
1906	0.0013584
1918	0.0013856
1930	0.0006864
1942	0.0002528
1954	0.0001248
1966	0.0001104
1978	0.0001264
1990	8.96e-05
2002	0.00012
2014	0.0001184
2026	8.96e-05
2038	8.64e-05
2050	7.2e-05
2062	4e-05
2074	7.04e-05
2086	6.72e-05
2098	4.8e-05
2110	7.68e-05
2122	4e-05
2134	1.76e-05
2146	2.4e-05
2158	5.6e-05
2170	9.44e-05
2182	0.000128
2194	0.0001536
2206	0.0003248
2218	0.0012144
2230	0.0050784
2242	0.0040848
2254	0.0004336
2266	0.0002624
2278	0.0002688
2290	0.0003648
2302	0.0004096
2314	0.0003984
2326	0.0002928
2338	0.0002112
2350	0.0002096
2362	0.0002448
2374	0.0002624
2386	0.0002208
2398	0.0002208
2410	0.0002528
2422	0.0002
2434	0.0001152
2446	4.48e-05
2458	4.8e-06
2470	1.92e-05
2482	7.2e-05
2494	6.72e-05
2506	3.04e-05
2518	8e-05
2530	7.2e-05
2542	6.72e-05
2554	6.08e-05
2566	6.72e-05
2578	9.28e-05
2590	7.36e-05
2602	0.0001136
2614	0.0001536
2626	0.0002528
2638	0.000328
2650	0.0002896
2662	0.0002368
2674	0.0001904
2686	0.0001728
2698	0.0001984
2710	0.000168
2722	0.000152
2734	0.0001296
2746	0.0001152
2758	0.0001456
2770	0.0001984
2782	0.0002208
2794	0.0002128
2806	0.0003104
2818	0.0002912
2830	0.0003296
2842	0.0003856
2854	0.0004016
2866	0.0004
2878	0.0004416
2890	0.0003584
2902	0.0002416
2914	0.0003424
2926	0.0003856
2938	0.0005536
2950	0.0008624
2962	0.00164
2974	0.0026448
2986	0.0026912
2998	0.0018224
3010	0.00144
3022	0.001536
3034	0.0024896
3046	0.0036448
3058	0.0022864
3070	0.001752
3082	0.0017504
3094	0.0019616
3106	0.0015024
3118	0.0009392
3130	0.000792
3142	0.0003552
3154	0.0001888
3166	0.0001392
3178	0.00012
3190	0.0001328
3202	9.92e-05
3214	0.0001696
3226	0.0001232
3238	8.16e-05
3250	9.76e-05
3262	5.44e-05
3274	3.68e-05
3286	4.8e-05
3298	0.0001104
3310	0.000112
3322	7.2e-05
3334	7.84e-05
3346	0.0001456
3358	0.0001232
3370	9.76e-05
3382	0.0001312
3394	0.0001792
3406	0.0002944
3418	0.0003152
3430	0.0002512
3442	0.0002944
3454	0.0001312
3466	0.000128
3478	0.0001104
3490	0.0001184
3502	6.56e-05
3514	0.0001424
3526	0.0001344
3538	0.0001152
3550	0.0001488
3562	0.0001392
3574	0.0001488
3586	0.0002064
3598	8e-05
3610	0.0001728
3622	0.0001168
3634	0.0001424
3646	0.000144
3658	0.0001104
3670	0.0002096
3682	0.0001424
3694	0.0002304
3706	0.0001968
3718	0.0002224
3730	0.0002
3742	0.0003264
3754	0.0003184
3766	0.0001456
3778	0.0001664
3790	0.0002208
3802	0.0002112
3814	0.0001952
3826	0.0002384
3838	0.0002336
