Infrared Spectrum: 1,9-Decadiyne
Formula: C 10 H 14
CAS: 1720-38-3
State: gas
Instrument: HP-GC/MS/IRD
Origin: NIST Mass Spectrometry Data Center
1/CM	ABSORBANCE
550	0.001315
562	0.00101
574	0.000975
586	0.00123
598	0.00229
610	0.00635
622	0.019855
634	0.05
646	0.02196
658	0.00578
670	0.00192
682	0.000865
694	0.00053
706	0.000535
718	0.00068
730	0.00071
742	0.000445
754	0.00037
766	0.00024
778	0.000145
790	0.000145
802	0.000155
814	0.0002
826	0.00012
838	0.00014
850	0.000125
862	5.5e-05
874	0.00013
886	1e-05
898	1e-05
910	4.5e-05
922	9.5e-05
934	0.000115
946	0.00016
958	0.00019
970	0.000225
982	0.00017
994	7.5e-05
1006	5e-05
1018	5e-06
1030	4.5e-05
1042	0.0001
1054	0.000125
1066	0.000165
1078	0.000205
1090	0.00011
1102	8.5e-05
1114	7.5e-05
1126	9.5e-05
1138	0.00012
1150	0.00016
1162	0.00023
1174	0.0003
1186	0.00039
1198	0.000505
1210	0.000875
1222	0.001635
1234	0.00467
1246	0.01155
1258	0.00862
1270	0.003045
1282	0.00178
1294	0.00141
1306	0.00143
1318	0.00176
1330	0.002085
1342	0.00188
1354	0.00174
1366	0.001175
1378	0.00072
1390	0.00045
1402	0.000465
1414	0.000695
1426	0.00159
1438	0.00357
1450	0.003555
1462	0.003005
1474	0.0017
1486	0.000745
1498	0.000325
1510	0.000205
1522	0.00015
1534	0.000105
1546	8e-05
1558	8.5e-05
1570	9e-05
1582	6e-05
1594	2.5e-05
1606	3.5e-05
1618	5.5e-05
1630	2.5e-05
1642	4e-05
1654	5.5e-05
1666	3e-05
1678	3e-05
1690	1e-05
1702	5e-05
1714	5e-05
1726	1.5e-05
1738	3e-05
1750	5e-06
1762	2e-05
1774	5e-05
1786	3e-05
1798	3e-05
1810	2e-05
1822	4.5e-05
1834	5e-06
1846	2.5e-05
1858	4e-05
1870	2.5e-05
1882	3e-05
1894	3.5e-05
1906	3.5e-05
1918	2e-05
1930	5e-06
1942	2e-05
1954	2e-05
1966	4e-05
1978	3e-05
1990	5.5e-05
2002	6e-05
2014	6.5e-05
2026	7.5e-05
2038	0.000115
2050	0.000135
2062	0.000185
2074	0.00024
2086	0.00043
2098	0.00096
2110	0.00193
2122	0.00223
2134	0.00094
2146	0.000295
2158	0.000165
2170	0.000125
2182	8.5e-05
2194	8.5e-05
2206	8.5e-05
2218	5e-05
2230	4.5e-05
2242	6e-05
2254	6.5e-05
2266	5.5e-05
2278	7.5e-05
2290	7e-05
2302	7.5e-05
2314	6.5e-05
2326	7e-05
2338	6e-05
2350	4.5e-05
2362	7.5e-05
2374	6.5e-05
2386	5.5e-05
2398	6.5e-05
2410	6e-05
2422	5e-05
2434	7e-05
2446	8e-05
2458	5e-05
2470	1e-05
2482	2.5e-05
2494	5e-05
2506	6e-05
2518	8e-05
2530	9.5e-05
2542	9.5e-05
2554	5e-05
2566	6.5e-05
2578	7.5e-05
2590	0.000105
2602	0.000145
2614	0.00016
2626	0.00019
2638	0.000255
2650	0.000265
2662	0.00035
2674	0.00039
2686	0.000505
2698	0.000495
2710	0.00031
2722	0.000275
2734	0.000295
2746	0.00032
2758	0.00032
2770	0.00037
2782	0.0004
2794	0.000525
2806	0.000725
2818	0.00101
2830	0.001565
2842	0.003035
2854	0.006335
2866	0.00967
2878	0.008585
2890	0.0061
2902	0.00721
2914	0.01184
2926	0.019625
2938	0.030715
2950	0.029975
2962	0.013765
2974	0.00488
2986	0.002195
2998	0.001255
3010	0.00085
3022	0.00059
3034	0.000435
3046	0.00039
3058	0.000325
3070	0.0003
3082	0.00022
3094	0.00016
3106	0.00017
3118	0.0001
3130	0.00011
3142	0.00011
3154	9e-05
3166	0.000105
3178	9e-05
3190	8e-05
3202	6e-05
3214	0.000105
3226	0.00015
3238	0.00021
3250	0.00043
3262	0.00078
3274	0.00139
3286	0.00288
3298	0.005095
3310	0.00942
3322	0.015595
3334	0.01564
3346	0.004525
3358	0.002135
3370	0.000925
3382	0.0004
3394	0.00026
3406	0.000135
3418	0.000145
3430	8e-05
3442	9e-05
3454	6e-05
3466	6.5e-05
3478	8e-05
3490	7e-05
3502	7.5e-05
3514	3.5e-05
3526	2.5e-05
3538	6.5e-05
3550	2.5e-05
3562	7.5e-05
3574	5.5e-05
3586	1e-05
3598	4e-05
3610	5.5e-05
3622	6e-05
3634	6.5e-05
3646	4e-05
3658	0.0001
3670	9e-05
3682	0.000105
3694	4e-05
3706	1.5e-05
3718	5e-05
3730	9.5e-05
3742	3e-05
3754	4.5e-05
3766	0.000115
3778	9.5e-05
3790	5e-05
3802	7.5e-05
3814	7.5e-05
3826	3.5e-05
3838	5.5e-05
