Infrared Spectrum: 3,5-Dimethoxybenzoyl chloride
Formula: C 9 H 9 Cl O 3
CAS: 17213-57-9
State: gas
Origin: EPA-IR VAPOR PHASE LIBRARY
1/CM	ABSORBANCE
549.9	0.00826
559.547	0.00738
569.193	0.00799
578.84	0.00836
588.486	0.00881
598.133	0.01134
607.779	0.01507
617.426	0.01439
627.072	0.01052
636.719	0.00999
646.365	0.00876
656.012	0.00951
665.658	0.0141
675.305	0.01419
684.951	0.01381
694.598	0.02941
704.245	0.03855
713.891	0.02729
723.538	0.04061
733.184	0.0561
742.831	0.09745
752.477	0.25696
762.124	0.28089
771.77	0.09109
781.417	0.03281
791.063	0.02252
800.71	0.01523
810.356	0.01208
820.003	0.01165
829.649	0.01339
839.296	0.0206
848.943	0.03369
858.589	0.03515
868.236	0.03663
877.882	0.02999
887.529	0.01505
897.175	0.01063
906.822	0.01203
916.468	0.01941
926.115	0.03156
935.761	0.03116
945.408	0.02943
955.054	0.04697
964.701	0.09771
974.347	0.13121
983.994	0.1156
993.64	0.06391
1003.29	0.0287
1012.93	0.02045
1022.58	0.01939
1032.23	0.02138
1041.87	0.03266
1051.52	0.06171
1061.17	0.09354
1070.81	0.07794
1080.46	0.03873
1090.11	0.02409
1099.75	0.02137
1109.4	0.02321
1119.05	0.02959
1128.69	0.05045
1138.34	0.11466
1147.99	0.22923
1157.63	0.33503
1167.28	0.23265
1176.92	0.10731
1186.57	0.10355
1196.22	0.16499
1205.86	0.18688
1215.51	0.10403
1225.16	0.0396
1234.8	0.03011
1244.45	0.03156
1254.1	0.02665
1263.74	0.02427
1273.39	0.03553
1283.04	0.07663
1292.68	0.14479
1302.33	0.15652
1311.98	0.15352
1321.62	0.1546
1331.27	0.14387
1340.92	0.12121
1350.56	0.09059
1360.21	0.05421
1369.86	0.03028
1379.5	0.02119
1389.15	0.02065
1398.79	0.0269
1408.44	0.04256
1418.09	0.0887
1427.73	0.15393
1437.38	0.12343
1447.03	0.0776
1456.67	0.11575
1466.32	0.14422
1475.97	0.0861
1485.61	0.03893
1495.26	0.02444
1504.91	0.02034
1514.55	0.0193
1524.2	0.01984
1533.85	0.02083
1543.49	0.02152
1553.14	0.02402
1562.79	0.03361
1572.43	0.05861
1582.08	0.12452
1591.73	0.23088
1601.37	0.25775
1611.02	0.16827
1620.67	0.07211
1630.31	0.03196
1639.96	0.02015
1649.6	0.01577
1659.25	0.01387
1668.9	0.01313
1678.54	0.0132
1688.19	0.01354
1697.84	0.01452
1707.48	0.0167
1717.13	0.02183
1726.78	0.02964
1736.42	0.03727
1746.07	0.04308
1755.72	0.04775
1765.36	0.07781
1775.01	0.22225
1784.66	0.26831
1794.3	0.10058
1803.95	0.04032
1813.6	0.03998
1823.24	0.02642
1832.89	0.01184
1842.54	0.00753
1852.18	0.00631
1861.83	0.00577
1871.47	0.00569
1881.12	0.00581
1890.77	0.00645
1900.41	0.00747
1910.06	0.00745
1919.71	0.00621
1929.35	0.0053095
1939	0.0051357
1948.65	0.0051981
1958.29	0.00561
1967.94	0.00578
1977.59	0.0054531
1987.23	0.0048952
1996.88	0.004338
2006.53	0.004022
2016.17	0.004068
2025.82	0.004418
2035.47	0.0046699
2045.11	0.0049235
2054.76	0.0053792
2064.41	0.00578
2074.05	0.00582
2083.7	0.00563
2093.35	0.00562
2102.99	0.00598
2112.64	0.00631
2122.28	0.00632
2131.93	0.00588
2141.58	0.0052238
2151.22	0.004462
2160.87	0.003984
2170.52	0.003924
2180.16	0.004062
2189.81	0.004205
2199.46	0.004292
2209.1	0.0046855
2218.75	0.0051483
2228.4	0.0049847
2238.04	0.004457
2247.69	0.004181
2257.34	0.00408
2266.98	0.004047
2276.63	0.003884
2286.28	0.00355
2295.92	0.00328
2305.57	0.00313
2315.22	0.00299
2324.86	0.003
2334.51	0.00306
2344.16	0.00331
2353.8	0.00346
2363.45	0.00347
2373.09	0.00354
2382.74	0.003773
2392.39	0.00366
2402.03	0.00341
2411.68	0.0032
2421.33	0.00313
2430.97	0.00326
2440.62	0.003617
2450.27	0.003822
2459.91	0.003791
2469.56	0.003649
2479.21	0.003765
2488.85	0.00391
2498.5	0.004053
2508.15	0.003987
2517.79	0.003767
2527.44	0.003693
2537.09	0.003713
2546.73	0.003631
2556.38	0.003675
2566.03	0.003751
2575.67	0.003799
2585.32	0.003748
2594.96	0.003789
2604.61	0.004178
2614.26	0.0047919
2623.9	0.0053337
2633.55	0.0052189
2643.2	0.0047367
2652.84	0.004127
2662.49	0.003614
2672.14	0.00316
2681.78	0.00276
2691.43	0.00253
2701.08	0.00269
2710.72	0.00278
2720.37	0.00305
2730.02	0.00345
2739.66	0.003664
2749.31	0.003997
2758.96	0.004033
2768.6	0.004227
2778.25	0.0046187
2787.9	0.0048201
2797.54	0.0054884
2807.19	0.0059
2816.84	0.00742
2826.48	0.0108
2836.13	0.02053
2845.77	0.03829
2855.42	0.03341
2865.07	0.02054
2874.71	0.018
2884.36	0.01914
2894.01	0.02138
2903.65	0.02422
2913.3	0.02769
2922.95	0.0298
2932.59	0.03357
2942.24	0.05501
2951.89	0.06984
2961.53	0.0575
2971.18	0.04394
2980.83	0.02703
2990.47	0.02144
3000.12	0.02955
3009.77	0.05342
3019.41	0.04527
3029.06	0.01776
3038.71	0.00979
3048.35	0.00713
3058	0.00563
3067.64	0.0051839
3077.29	0.0054033
3086.94	0.00689
3096.58	0.00803
3106.23	0.00687
3115.88	0.004314
3125.52	0.00271
3135.17	0.0021
3144.82	0.00174
3154.46	0.00154
3164.11	0.0012
3173.76	0.0011
3183.4	0.00109
3193.05	0.00094
3202.7	0.00107
3212.34	0.00069
3221.99	0.00058
3231.64	0.00041
3241.28	0.0002
3250.93	0.00013
3260.58	0.00011
3270.22	6e-05
3279.87	7e-05
3289.52	5e-05
3299.16	0.00011
3308.81	4e-05
3318.45	4e-05
3328.1	0.00027
3337.75	0.00036
3347.39	0.00038
3357.04	0.00053
3366.69	0.00059
3376.33	0.00069
3385.98	0.00077
3395.63	0.0006
3405.27	0.0006
3414.92	0.00072
3424.57	0.00079
3434.21	0.0007
3443.86	0.00084
3453.51	0.00103
3463.15	0.00106
3472.8	0.00128
3482.45	0.00156
3492.09	0.00171
3501.74	0.00233
3511.39	0.00282
3521.03	0.00294
3530.68	0.00321
3540.33	0.003769
3549.97	0.00364
3559.62	0.00271
3569.26	0.00222
3578.91	0.0019
3588.56	0.00193
3598.2	0.0018
3607.85	0.00182
3617.5	0.00167
3627.14	0.00177
3636.79	0.00176
3646.44	0.00179
3656.08	0.00177
3665.73	0.00167
3675.38	0.00183
3685.02	0.00173
3694.67	0.00184
3704.32	0.00178
3713.96	0.00191
3723.61	0.00195
3733.26	0.00187
3742.9	0.00202
3752.55	0.00202
3762.2	0.00203
3771.84	0.00192
3781.49	0.00208
3791.13	0.00194
3800.78	0.00195
3810.43	0.00208
3820.07	0.00215
3829.72	0.00216
3839.37	0.00217
3849.01	0.00219
3858.66	0.00219
3868.31	0.00218
3877.95	0.00234
3887.6	0.00235
3897.25	0.00237
3906.89	0.00243
3916.54	0.00245
3926.19	0.00246
3935.83	0.00238
3945.48	0.00238
3955.13	0.00246
3964.77	0.00234
3974.42	0.00239
3984.07	0.00249
3993.71	0.00265
