Infrared Spectrum: Ethyl 2-methylnicotinate
Formula: C 9 H 11 N O 2
CAS: 1721-26-2
State: gas
Origin: EPA-IR VAPOR PHASE LIBRARY
1/CM	ABSORBANCE
549.8	0.003025
559.445	0.005025
569.09	0.005025
578.734	0.002965
588.379	0.0006853
598.024	0.00041731
607.669	0.0011295
617.313	0.0006975
626.958	0.0006933
636.603	0.0007217
646.248	0.002115
655.893	0.005835
665.537	0.006065
675.182	0.003355
684.827	0.002125
694.472	0.002535
704.116	0.004135
713.761	0.007845
723.406	0.013555
733.051	0.024395
742.695	0.059975
752.34	0.107305
761.985	0.078435
771.63	0.039295
781.275	0.022385
790.919	0.018105
800.564	0.017175
810.209	0.017665
819.854	0.016635
829.498	0.012745
839.143	0.010645
848.788	0.015065
858.433	0.023025
868.078	0.022555
877.722	0.013285
887.367	0.007595
897.012	0.005675
906.657	0.005275
916.301	0.004925
925.946	0.005475
935.591	0.006455
945.236	0.006515
954.88	0.007915
964.525	0.009745
974.17	0.013645
983.815	0.015845
993.46	0.017285
1003.1	0.023295
1012.75	0.030545
1022.39	0.030945
1032.04	0.031085
1041.68	0.042665
1051.33	0.076075
1060.97	0.148305
1070.62	0.276065
1080.26	0.416735
1089.91	0.382915
1099.55	0.238025
1109.2	0.115985
1118.84	0.112605
1128.49	0.225815
1138.13	0.264385
1147.78	0.127915
1157.42	0.055095
1167.07	0.052825
1176.71	0.057265
1186.36	0.063515
1196	0.071965
1205.64	0.067525
1215.29	0.074875
1224.93	0.127925
1234.58	0.261835
1244.22	0.395605
1253.87	0.336215
1263.51	0.219435
1273.16	0.337445
1282.8	0.384985
1292.45	0.315695
1302.09	0.167405
1311.74	0.066285
1321.38	0.037895
1331.03	0.025905
1340.67	0.021305
1350.32	0.022535
1359.96	0.037575
1369.61	0.056875
1379.25	0.048055
1388.9	0.040195
1398.54	0.039165
1408.18	0.044315
1417.83	0.066785
1427.47	0.122885
1437.12	0.170645
1446.76	0.140235
1456.41	0.082055
1466.05	0.059845
1475.7	0.046305
1485.34	0.032055
1494.99	0.024575
1504.63	0.021845
1514.28	0.020865
1523.92	0.021855
1533.57	0.025155
1543.21	0.034815
1552.86	0.058545
1562.5	0.102195
1572.15	0.127375
1581.79	0.119885
1591.44	0.080435
1601.08	0.033775
1610.73	0.019915
1620.37	0.015355
1630.01	0.014175
1639.66	0.013855
1649.3	0.013355
1658.95	0.013215
1668.59	0.014235
1678.24	0.018035
1687.88	0.025995
1697.53	0.039885
1707.17	0.065435
1716.82	0.130385
1726.46	0.277385
1736.11	0.455135
1745.75	0.421445
1755.4	0.216365
1765.04	0.098815
1774.69	0.050435
1784.33	0.026445
1793.98	0.015345
1803.62	0.010305
1813.27	0.007685
1822.91	0.006345
1832.55	0.005575
1842.2	0.004905
1851.84	0.004795
1861.49	0.004475
1871.13	0.005045
1880.78	0.005535
1890.42	0.006615
1900.07	0.007115
1909.71	0.007755
1919.36	0.009025
1929	0.009205
1938.65	0.008795
1948.29	0.008185
1957.94	0.006405
1967.58	0.004705
1977.23	0.003725
1986.87	0.003415
1996.52	0.003565
2006.16	0.003115
2015.81	0.002725
2025.45	0.002745
2035.1	0.002775
2044.74	0.002935
2054.38	0.003075
2064.03	0.003215
2073.67	0.003485
2083.32	0.003855
2092.96	0.004175
2102.61	0.004155
2112.25	0.003775
2121.9	0.003065
2131.54	0.002985
2141.19	0.002665
2150.83	0.002895
2160.48	0.002735
2170.12	0.002575
2179.77	0.002505
2189.41	0.002585
2199.06	0.002625
2208.7	0.003125
2218.35	0.003085
2227.99	0.003065
2237.64	0.003045
2247.28	0.003155
2256.92	0.003215
2266.57	0.003045
2276.21	0.002555
2285.86	0.002335
2295.5	0.002065
2305.15	0.002535
2314.79	0.002695
2324.44	0.002975
2334.08	0.002635
2343.73	0.002885
2353.37	0.002685
2363.02	0.002735
2372.66	0.002615
2382.31	0.002795
2391.95	0.002975
2401.6	0.002715
2411.24	0.002985
2420.89	0.002595
2430.53	0.002525
2440.18	0.002415
2449.82	0.002305
2459.47	0.002475
2469.11	0.002485
2478.75	0.002485
2488.4	0.002305
2498.04	0.002305
2507.69	0.002235
2517.33	0.002645
2526.98	0.002365
2536.62	0.002135
2546.27	0.001845
2555.91	0.001715
2565.56	0.001575
2575.2	0.001785
2584.85	0.001805
2594.49	0.001835
2604.14	0.002125
2613.78	0.002435
2623.43	0.002475
2633.07	0.002235
2642.72	0.002105
2652.36	0.001985
2662.01	0.001905
2671.65	0.001905
2681.29	0.001595
2690.94	0.001525
2700.58	0.001945
2710.23	0.002095
2719.87	0.002225
2729.52	0.002705
2739.16	0.002765
2748.81	0.002835
2758.45	0.002875
2768.1	0.003065
2777.74	0.003485
2787.39	0.003455
2797.03	0.003935
2806.68	0.004585
2816.32	0.005785
2825.97	0.006465
2835.61	0.007215
2845.26	0.008375
2854.9	0.010655
2864.55	0.013135
2874.19	0.016915
2883.84	0.022995
2893.48	0.025005
2903.12	0.026705
2912.77	0.030845
2922.41	0.034095
2932.06	0.045105
2941.7	0.067545
2951.35	0.067545
2960.99	0.060345
2970.64	0.074755
2980.28	0.110565
2989.93	0.119765
2999.57	0.083525
3009.22	0.058445
3018.86	0.041095
3028.51	0.031425
3038.15	0.031705
3047.8	0.047155
3057.44	0.048025
3067.09	0.036045
3076.73	0.036705
3086.38	0.026615
3096.02	0.014215
3105.67	0.010155
3115.31	0.009135
3124.95	0.008745
3134.6	0.007685
3144.24	0.006595
3153.89	0.004955
3163.53	0.004275
3173.18	0.003395
3182.82	0.003165
3192.47	0.002615
3202.11	0.002615
3211.76	0.002355
3221.4	0.001835
3231.05	0.001815
3240.69	0.0013237
3250.34	0.0011382
3259.98	0.0011467
3269.63	0.0010044
3279.27	0.0007173
3288.92	0.0009414
3298.56	0.0011453
3308.21	0.0012399
3317.85	0.0010065
3327.49	0.0010259
3337.14	0.0011158
3346.78	0.0008726
3356.43	0.0008558
3366.07	0.0011361
3375.72	0.0013071
3385.36	0.0011921
3395.01	0.0009903
3404.65	0.0012443
3414.3	0.001375
3423.94	0.001705
3433.59	0.002455
3443.23	0.003135
3452.88	0.003585
3462.52	0.004505
3472.17	0.003905
3481.81	0.002915
3491.46	0.001855
3501.1	0.0008704
3510.75	0.0008143
3520.39	0.0008277
3530.04	0.000813
3539.68	0.00039054
3549.32	0.00034189
3558.97	0.0010068
3568.61	0.0008125
3578.26	0.0003092
3587.9	0.0005208
3597.55	0.0004538
3607.19	0.00016
3616.84	0.0002966
3626.48	0.0002856
3636.13	0.0003105
3645.77	0.0005369
3655.42	0.00041192
3665.06	0.000508
3674.71	0.00041524
3684.35	0.0006484
3694	0.0005935
3703.64	0.0005555
3713.29	0.0007195
3722.93	0.00036536
3732.58	0.0006395
3742.22	0.0005758
3751.86	0.0006393
3761.51	0.0007664
3771.15	0.0009665
3780.8	0.0008748
3790.44	0.000547
3800.09	0.0007943
3809.73	0.000949
3819.38	0.00043202
3829.02	0.000350599
3838.67	0.0007298
3848.31	0.0013297
3857.96	0.0008816
3867.6	0.0011362
3877.25	0.0011244
3886.89	0.0006193
3896.54	0.0010047
3906.18	0.0007493
3915.83	0.0011297
3925.47	0.0010426
3935.12	0.0010838
3944.76	0.0010754
3954.41	0.001385
3964.05	0.0008419
3973.69	0.001455
3983.34	0.001355
3992.98	0.001375
