Infrared Spectrum: CYCLOPROPANECARBOXAMIDE, N-BENZIMIDAZOLE-2-YL-
Formula: C11 H11 N3 O
CAS: 17228-32-9
State: SOLID (OIL MULL)
Class: COBLENTZ III
Instrument: PERKIN-ELMER 21 (GRATING)
Instrument parameters: NaCl PRISM
Sampling: TRANSMISSION
Resolution: 2
Origin: SMITH KLINE & FRENCH LABS.
MICROMETERS	TRANSMITTANCE
2.017	0.598
2.05124	0.611
2.08549	0.625
2.11973	0.634
2.15397	0.65
2.18822	0.661
2.22246	0.68
2.2567	0.678
2.29095	0.677
2.32519	0.68
2.35943	0.667
2.39368	0.675
2.42792	0.693
2.46216	0.715
2.49641	0.724
2.53065	0.733
2.56489	0.765
2.59914	0.77
2.63338	0.772
2.66762	0.778
2.70187	0.789
2.73611	0.799
2.77035	0.815
2.8046	0.829
2.83884	0.831
2.87309	0.849
2.90733	0.853
2.94157	0.846
2.97582	0.766
3.01006	0.489
3.0443	0.459
3.07855	0.663
3.11279	0.664
3.14703	0.628
3.18128	0.579
3.21552	0.51
3.24976	0.532
3.28401	0.501
3.31825	0.399
3.35249	0.361
3.38674	0.23
3.42098	0.063
3.45522	0.057
3.48947	0.057
3.52371	0.057
3.55795	0.1
3.5922	0.374
3.62644	0.534
3.66068	0.568
3.69493	0.606
3.72917	0.632
3.76341	0.68
3.79766	0.72
3.8319	0.736
3.86614	0.772
3.90039	0.787
3.93463	0.83
3.96887	0.844
4.00312	0.866
4.03736	0.888
4.0716	0.893
4.10585	0.904
4.14009	0.91
4.17433	0.91
4.20858	0.92
4.24282	0.907
4.27706	0.908
4.31131	0.912
4.34555	0.921
4.37979	0.936
4.41404	0.949
4.44828	0.952
4.48253	0.957
4.51677	0.956
4.55101	0.958
4.58526	0.959
4.6195	0.959
4.65374	0.962
4.68799	0.959
4.72223	0.96
4.75647	0.957
4.79072	0.958
4.82496	0.971
4.8592	0.976
4.89345	0.979
4.92769	0.981
4.96193	0.982
4.99618	0.986
5.03042	0.991
5.06466	0.985
5.09891	0.985
5.13315	0.993
5.16739	0.993
5.20164	0.991
5.23588	0.957
5.27012	0.952
5.30437	0.971
5.33861	0.96
5.37285	0.942
5.4071	0.958
5.44134	0.953
5.47558	0.957
5.50983	0.96
5.54407	0.954
5.57831	0.951
5.61256	0.953
5.6468	0.953
5.68104	0.949
5.71529	0.927
5.74953	0.96
5.78377	0.96
5.81802	0.949
5.85226	0.915
5.8865	0.897
5.92075	0.804
5.95499	0.504
5.98923	0.146
6.02348	0.371
6.05772	0.63
6.09196	0.573
6.12621	0.246
6.16045	0.098
6.1947	0.362
6.22894	0.653
6.26318	0.454
6.29743	0.174
6.33167	0.203
6.36591	0.073
6.40016	0.073
6.4344	0.081
6.46864	0.158
6.50289	0.319
6.53713	0.45
6.57137	0.247
6.60562	0.112
6.63986	0.147
6.6741	0.457
6.70835	0.534
6.74259	0.564
6.77683	0.526
6.81108	0.253
6.84532	0.134
6.87956	0.07
6.91381	0.058
6.94805	0.12
6.98229	0.222
7.01654	0.206
7.05078	0.311
7.08502	0.582
7.11927	0.67
7.15351	0.644
7.18775	0.442
7.222	0.36
7.25624	0.316
7.29048	0.225
7.32473	0.241
7.35897	0.376
7.39321	0.483
7.42746	0.59
7.4617	0.678
7.49594	0.67
7.53019	0.726
7.56443	0.737
7.59867	0.72
7.63292	0.663
7.66716	0.456
7.7014	0.395
7.73565	0.684
7.76989	0.749
7.80414	0.754
7.83838	0.725
7.87262	0.489
7.90687	0.148
7.94111	0.51
7.97535	0.711
8.0096	0.768
8.04384	0.771
8.07808	0.77
8.11233	0.757
8.14657	0.695
8.18081	0.732
8.21506	0.666
8.2493	0.515
8.28354	0.28
8.31779	0.098
8.35203	0.269
8.38627	0.173
8.42052	0.089
8.45476	0.201
8.489	0.415
8.52325	0.499
8.55749	0.39
8.59173	0.315
8.62598	0.264
8.66022	0.328
8.69446	0.566
8.72871	0.67
8.76295	0.539
8.79719	0.619
8.83144	0.704
8.86568	0.775
8.89992	0.785
8.93417	0.803
8.96841	0.803
9.00265	0.766
9.0369	0.56
9.07114	0.534
9.10538	0.727
9.13963	0.783
9.17387	0.815
9.20811	0.832
9.24236	0.852
9.2766	0.846
9.31084	0.854
9.34509	0.851
9.37933	0.841
9.41358	0.768
9.44782	0.66
9.48206	0.787
9.51631	0.815
9.55055	0.813
9.58479	0.758
9.61904	0.545
9.65328	0.2
9.68752	0.566
9.72177	0.717
9.75601	0.793
9.79025	0.793
9.8245	0.728
9.85874	0.752
9.89298	0.81
9.92723	0.831
9.96147	0.835
9.99571	0.822
10.03	0.822
10.0642	0.835
10.0984	0.837
10.1327	0.838
10.1669	0.829
10.2012	0.824
10.2354	0.802
10.2697	0.78
10.3039	0.749
10.3381	0.666
10.3724	0.52
10.4066	0.268
10.4409	0.304
10.4751	0.417
10.5094	0.479
10.5436	0.61
10.5779	0.7
10.6121	0.764
10.6463	0.772
10.6806	0.788
10.7148	0.787
10.7491	0.791
10.7833	0.791
10.8176	0.766
10.8518	0.748
10.886	0.786
10.9203	0.791
10.9545	0.802
10.9888	0.808
11.023	0.811
11.0573	0.803
11.0915	0.785
11.1257	0.78
11.16	0.754
11.1942	0.703
11.2285	0.642
11.2627	0.599
11.297	0.595
11.3312	0.627
11.3654	0.686
11.3997	0.76
11.4339	0.778
11.4682	0.785
11.5024	0.81
11.5367	0.83
11.5709	0.833
11.6052	0.832
11.6394	0.825
11.6736	0.818
11.7079	0.81
11.7421	0.809
11.7764	0.8
11.8106	0.794
11.8449	0.791
11.8791	0.789
11.9133	0.791
11.9476	0.802
11.9818	0.833
12.0161	0.82
12.0503	0.793
12.0846	0.777
12.1188	0.774
12.153	0.768
12.1873	0.753
12.2215	0.658
12.2558	0.599
12.29	0.746
12.3243	0.796
12.3585	0.818
12.3928	0.83
12.427	0.832
12.4612	0.832
12.4955	0.824
12.5297	0.841
12.564	0.869
12.5982	0.87
12.6325	0.882
12.6667	0.876
12.7009	0.88
12.7352	0.874
12.7694	0.873
12.8037	0.874
12.8379	0.87
12.8722	0.865
12.9064	0.864
12.9406	0.853
12.9749	0.851
13.0091	0.84
13.0434	0.83
13.0776	0.82
13.1119	0.775
13.1461	0.605
13.1803	0.295
13.2146	0.361
13.2488	0.57
13.2831	0.669
13.3173	0.72
13.3516	0.738
13.3858	0.721
13.4201	0.636
13.4543	0.439
13.4885	0.211
13.5228	0.235
13.557	0.35
13.5913	0.421
13.6255	0.46
13.6598	0.46
13.694	0.46
13.7282	0.438
13.7625	0.378
13.7967	0.291
13.831	0.207
13.8652	0.19
13.8995	0.223
13.9337	0.299
13.9679	0.395
14.0022	0.504
14.0364	0.588
14.0707	0.632
14.1049	0.65
14.1392	0.686
14.1734	0.724
14.2077	0.747
14.2419	0.754
14.2761	0.758
14.3104	0.758
14.3446	0.758
14.3789	0.757
14.4131	0.753
14.4474	0.742
14.4816	0.731
14.5158	0.724
14.5501	0.703
14.5843	0.682
14.6186	0.655
14.6528	0.617
14.6871	0.584
14.7213	0.548
14.7555	0.517
14.7898	0.496
14.824	0.455
14.8583	0.424
14.8925	0.445
14.9268	0.512
14.961	0.555
14.9952	0.561
15.0295	0.549
15.0637	0.457
15.098	0.406
15.1322	0.355
15.1665	0.321
15.2007	0.299
15.235	0.29
15.2692	0.318
15.3034	0.346
