Infrared Spectrum: Propionamide, N-(benzimidazol-2-yl)-2-methyl-
Formula: C11 H13 N3 O
CAS: 17228-23-8
State: SOLID (OIL MULL)
Class: COBLENTZ III
Instrument: PERKIN-ELMER 21 (GRATING)
Instrument parameters: NaCl PRISM
Sampling: TRANSMISSION
Resolution: 2
Origin: SMITH KLINE & FRENCH LABS.
1/CM	TRANSMITTANCE
652	0.532
661	0.386
670	0.5034
679	0.6605
688	0.7398
697	0.7755
706	0.7586
715	0.3068
724	0.2924
733	0.5774
742	0.4576
751	0.7778
760	0.4414
769	0.8497
778	0.8757
787	0.8898
796	0.8731
805	0.8408
814	0.7627
823	0.6333
832	0.7006
841	0.6742
850	0.7697
859	0.8478
868	0.7127
877	0.8843
886	0.8892
895	0.6671
904	0.9039
913	0.8566
922	0.8803
931	0.7676
940	0.7949
949	0.7477
958	0.8712
967	0.8012
976	0.9038
985	0.9086
994	0.9072
1003	0.7997
1012	0.8747
1021	0.8337
1030	0.5369
1039	0.7906
1048	0.9028
1057	0.8981
1066	0.8865
1075	0.876
1084	0.8553
1093	0.6482
1102	0.721
1111	0.7093
1120	0.8052
1129	0.8588
1138	0.8314
1147	0.6461
1156	0.4244
1165	0.6114
1174	0.4286
1183	0.5911
1192	0.5082
1201	0.0876
1210	0.2129
1219	0.6419
1228	0.5469
1237	0.8151
1246	0.8272
1255	0.7634
1264	0.3385
1273	0.693
1282	0.6608
1291	0.6833
1300	0.6737
1309	0.5303
1318	0.7707
1327	0.8044
1336	0.7642
1345	0.6703
1354	0.664
1363	0.3108
1372	0.4419
1381	0.4883
1390	0.6198
1399	0.6419
1408	0.5863
1417	0.5841
1426	0.3116
1435	0.4655
1444	0.2171
1453	0.1266
1462	0.2325
1471	0.5126
1480	0.7204
1489	0.6983
1498	0.6282
1507	0.3438
1516	0.1771
1525	0.4063
1534	0.6474
1543	0.6528
1552	0.5466
1561	0.4237
1570	0.091
1579	0.0401
1588	0.0893
1597	0.2787
1606	0.5925
1615	0.6302
1624	0.3001
1633	0.1032
1642	0.3475
1651	0.5423
1660	0.63
1669	0.4748
1678	0.2185
1687	0.2461
1696	0.5834
1705	0.7821
1714	0.8642
1723	0.8827
1732	0.8898
1741	0.8772
1750	0.8681
1759	0.8873
1768	0.9128
1777	0.9171
1786	0.9176
1795	0.9208
1804	0.932
1813	0.9367
1822	0.9373
1831	0.9376
1840	0.9382
1849	0.9354
1858	0.9224
1867	0.9241
1876	0.9445
1885	0.9485
1894	0.9458
1903	0.9414
1912	0.9493
1921	0.9563
1930	0.9572
1939	0.9576
1948	0.9583
1957	0.9598
1966	0.9617
1975	0.9594
1984	0.9579
1993	0.9616
2002	0.9639
2011	0.9642
2020	0.9627
2029	0.9577
2038	0.9579
2047	0.9666
2056	0.9671
2065	0.9671
2074	0.9671
2083	0.9671
2092	0.9669
2101	0.9661
2110	0.9674
2119	0.9674
2128	0.9674
2137	0.9679
2146	0.9685
2155	0.9691
2164	0.9698
2173	0.9731
2182	0.9747
2191	0.972
2200	0.9718
2209	0.972
2218	0.9714
2227	0.9706
2236	0.9696
2245	0.9682
2254	0.9664
2263	0.9646
2272	0.9641
2281	0.9644
2290	0.9653
2299	0.9656
2308	0.9652
2317	0.9646
2326	0.9628
2335	0.959
2344	0.9582
2353	0.9579
2362	0.9569
2371	0.9557
2380	0.9532
2389	0.9507
2398	0.9484
2407	0.9478
2416	0.9473
2425	0.9469
2434	0.9465
2443	0.946
2452	0.945
2461	0.9431
2470	0.9386
2479	0.932
2488	0.9247
2497	0.9167
2506	0.9102
2515	0.9039
2524	0.8944
2533	0.8832
2542	0.8793
2551	0.8711
2560	0.8609
2569	0.8532
2578	0.8423
2587	0.8305
2596	0.8177
2605	0.8052
2614	0.7911
2623	0.7895
2632	0.7862
2641	0.7805
2650	0.773
2659	0.7635
2668	0.7524
2677	0.7275
2686	0.7042
2695	0.6793
2704	0.665
2713	0.6455
2722	0.6225
2731	0.5916
2740	0.5393
2749	0.5159
2758	0.5117
2767	0.5079
2776	0.4961
2785	0.4149
2794	0.3055
2803	0.1575
2812	0.0986
2821	0.0841
2830	0.078
2839	0.0718
2848	0.0593
2857	0.0496
2866	0.0441
2875	0.044
2884	0.046
2893	0.049
2902	0.0544
2911	0.0946
2920	0.1317
2929	0.1585
2938	0.2067
2947	0.2807
2956	0.3542
2965	0.3996
2974	0.4007
2983	0.4008
2992	0.4022
3001	0.4043
3010	0.409
3019	0.4155
3028	0.4324
3037	0.4527
3046	0.5083
3055	0.526
3064	0.5341
3073	0.5395
3082	0.5416
3091	0.5446
3100	0.5481
3109	0.558
3118	0.5604
3127	0.5772
3136	0.6188
3145	0.6397
3154	0.6476
3163	0.6535
3172	0.6596
3181	0.667
3190	0.6759
3199	0.6995
3208	0.7163
3217	0.7199
3226	0.7205
3235	0.7206
3244	0.7202
3253	0.719
3262	0.7036
3271	0.6339
3280	0.5597
3289	0.4858
3298	0.4124
3307	0.3794
3316	0.3801
3325	0.4719
3334	0.5536
3343	0.6347
3352	0.7155
3361	0.8038
3370	0.8335
3379	0.8516
3388	0.8657
3397	0.8921
3406	0.901
3415	0.9033
3424	0.9046
3433	0.9099
3442	0.9189
3451	0.9281
3460	0.9327
3469	0.9358
3478	0.9368
3487	0.937
3496	0.9372
3505	0.9375
3514	0.9376
3523	0.9375
3532	0.9374
3541	0.9374
3550	0.9373
3559	0.9373
3568	0.9374
3577	0.9376
3586	0.9376
3595	0.9378
3604	0.9378
3613	0.9373
3622	0.9365
3631	0.9357
3640	0.9349
3649	0.934
3658	0.9331
3667	0.9322
3676	0.9313
3685	0.9298
3694	0.9278
3703	0.9257
3712	0.9238
3721	0.9227
3730	0.922
3739	0.9219
3748	0.9219
3757	0.922
3766	0.9221
3775	0.9221
3784	0.9222
3793	0.9222
3802	0.9223
3811	0.9224
3820	0.9224
3829	0.9225
3838	0.9223
3847	0.9213
3856	0.9202
3865	0.919
3874	0.9184
3883	0.9182
3892	0.9181
3901	0.9179
3910	0.9178
3919	0.9176
3928	0.9175
3937	0.9157
3946	0.9116
3955	0.9079
3964	0.9072
3973	0.9066
3982	0.906
3991	0.9049
4000	0.9038
