Infrared Spectrum: 4-Hydroxyquinazoline
Formula: C 8 H 6 N 2 O
CAS: 17227-47-3
State: gas
Origin: EPA-IR VAPOR PHASE LIBRARY
1/CM	ABSORBANCE
501.5	0.0010644
513.074	0.001633
524.648	0.002563
536.222	0.001513
547.796	0.0006285
559.37	0.001183
570.944	0.002403
582.518	0.002583
594.092	0.001173
605.666	0.0005402
617.24	0.0010971
628.814	0.002973
640.388	0.004713
651.962	0.002693
663.536	0.001223
675.11	0.001303
686.684	0.004073
698.258	0.011013
709.832	0.015523
721.406	0.007613
732.98	0.002243
744.554	0.001343
756.128	0.003723
767.702	0.008503
779.276	0.007453
790.85	0.003363
802.423	0.001713
813.997	0.001543
825.571	0.0007202
837.145	0.0004086
848.719	0.0003382
860.293	0.0004531
871.867	0.0005677
883.441	0.0006973
895.015	0.001883
906.589	0.002633
918.163	0.002183
929.737	0.002133
941.311	0.0011119
952.885	0.0006808
964.459	0.0007599
976.033	0.000513
987.607	0.0005259
999.181	0.0008469
1010.76	0.002603
1022.33	0.003043
1033.9	0.001493
1045.48	0.001553
1057.05	0.003103
1068.63	0.003243
1080.2	0.001403
1091.77	0.002573
1103.35	0.003523
1114.92	0.005903
1126.49	0.009423
1138.07	0.007123
1149.64	0.002883
1161.22	0.001763
1172.79	0.0006453
1184.36	0.000664
1195.94	0.001533
1207.51	0.003003
1219.09	0.004153
1230.66	0.004903
1242.23	0.004693
1253.81	0.002963
1265.38	0.002563
1276.96	0.003773
1288.53	0.005503
1300.1	0.009733
1311.68	0.010333
1323.25	0.004913
1334.83	0.002853
1346.4	0.002603
1357.97	0.001643
1369.55	0.001443
1381.12	0.002633
1392.7	0.003463
1404.27	0.003753
1415.84	0.004733
1427.42	0.004393
1438.99	0.003063
1450.57	0.003503
1462.14	0.008713
1473.71	0.011823
1485.29	0.006073
1496.86	0.001863
1508.44	0.001283
1520.01	0.0007098
1531.58	0.0006792
1543.16	0.0010078
1554.73	0.001593
1566.31	0.002273
1577.88	0.003043
1589.45	0.004923
1601.03	0.010213
1612.6	0.023923
1624.18	0.031333
1635.75	0.015653
1647.32	0.004533
1658.9	0.003063
1670.47	0.002693
1682.05	0.004123
1693.62	0.007843
1705.19	0.019913
1716.77	0.053943
1728.34	0.085023
1739.92	0.060113
1751.49	0.014413
1763.06	0.005683
1774.64	0.004153
1786.21	0.002913
1797.79	0.002403
1809.36	0.001813
1820.93	0.001623
1832.51	0.001993
1844.08	0.002713
1855.66	0.002103
1867.23	0.0009035
1878.8	0.000527
1890.38	0.0003925
1901.95	0.0004063
1913.53	0.0004989
1925.1	0.0006514
1936.67	0.0008646
1948.25	0.0009129
1959.82	0.0007986
1971.4	0.0006231
1982.97	0.0003709
1994.54	0.0003105
2006.12	0.000331
2017.69	0.0004082
2029.27	0.0004545
2040.84	0.0003571
2052.41	0.0002811
2063.99	0.00022546
2075.56	0.00020621
2087.14	0.00020859
2098.71	0.00022803
2110.28	0.000266
2121.86	0.0002701
2133.43	0.0002551
2145.01	0.0002962
2156.58	0.0002752
2168.15	0.0002781
2179.73	0.0002806
2191.3	0.0003783
2202.88	0.0003282
2214.45	0.0002672
2226.02	0.0002454
2237.6	0.00022856
2249.17	0.0002366
2260.74	0.0002879
2272.32	0.0003622
2283.89	0.0004638
2295.47	0.0004876
2307.04	0.0004733
2318.61	0.0003978
2330.19	0.0003166
2341.76	0.0003149
2353.34	0.0002586
2364.91	0.0002429
2376.48	0.0002395
2388.06	0.0002083
2399.63	0.00021275
2411.21	0.0002471
2422.78	0.0002827
2434.35	0.0003282
2445.93	0.0003819
2457.5	0.0003791
2469.08	0.0003538
2480.65	0.0003719
2492.22	0.0004328
2503.8	0.0004502
2515.37	0.0005303
2526.95	0.0005713
2538.52	0.0004582
2550.09	0.0003467
2561.67	0.0002818
2573.24	0.0002781
2584.82	0.0002861
2596.39	0.000289
2607.96	0.0002804
2619.54	0.0002967
2631.11	0.00019667
2642.69	0.0002341
2654.26	0.0002363
2665.83	0.00021301
2677.41	0.00018893
2688.98	0.0001717
2700.56	0.00020827
2712.13	0.00022438
2723.7	0.0002565
2735.28	0.0002713
2746.85	0.0002476
2758.43	0.00021121
2770	0.00021065
2781.57	0.0002706
2793.15	0.0003218
2804.72	0.0002716
2816.3	0.0002401
2827.87	0.00020559
2839.44	0.00022929
2851.02	0.0002847
2862.59	0.0002668
2874.17	0.00022139
2885.74	0.00018241
2897.31	0.00020582
2908.89	0.0002413
2920.46	0.0003114
2932.04	0.0002576
2943.61	0.00019541
2955.18	0.0002514
2966.76	0.0003142
2978.33	0.0004893
2989.91	0.0006377
3001.48	0.0006256
3013.05	0.0006482
3024.63	0.0008397
3036.2	0.001213
3047.78	0.001773
3059.35	0.002843
3070.92	0.003973
3082.5	0.003783
3094.07	0.002073
3105.65	0.0008277
3117.22	0.0005277
3128.79	0.0004101
3140.37	0.0003229
3151.94	0.0002614
3163.52	0.00023091
3175.09	0.0002762
3186.66	0.0002703
3198.24	0.0003211
3209.81	0.0003085
3221.39	0.0003811
3232.96	0.0005031
3244.53	0.0004542
3256.11	0.0002388
3267.68	0.00023139
3279.26	0.00017542
3290.83	0.00018475
3302.4	0.00017955
3313.98	9.98e-05
3325.55	0.00017821
3337.13	0.00017367
3348.7	0.00016537
3360.27	0.00020375
3371.85	0.00018432
3383.42	0.00019078
3395	0.0002985
3406.57	0.0006429
3418.14	0.002553
3429.72	0.010223
3441.29	0.013183
3452.86	0.005353
3464.44	0.0010484
3476.01	0.0004728
3487.59	0.0002918
3499.16	0.00022502
3510.73	0.00012776
3522.31	0.00015344
3533.88	0.00015147
3545.46	0.00013196
3557.03	0.0001052
3568.6	0.00021487
3580.18	0.0002416
3591.75	0.00016771
3603.33	0.000140951
3614.9	0.00014309
3626.47	3.44e-05
3638.05	0.0001124
3649.62	8.79e-05
3661.2	4.39e-05
3672.77	0.00011
3684.34	9.09e-05
3695.92	7.53e-05
3707.49	6.59e-05
3719.07	9.41e-05
3730.64	2.6e-05
3742.21	8.89e-05
3753.79	0.00012809
3765.36	7.33e-05
3776.94	0.0001074
3788.51	9.25e-05
3800.08	0.0001022
3811.66	0.00015203
3823.23	0.00014475
3834.81	0.00015592
3846.38	5.05e-05
3857.95	0.000134503
3869.53	0.0001208
3881.1	0.00018454
3892.68	7.94e-05
3904.25	0.000134476
3915.82	0.000132915
3927.4	0.0001503
3938.97	8.85e-05
3950.55	0.0001064
3962.12	0.00015086
3973.69	0.00015388
3985.27	0.00012967
3996.84	9.51e-05
