Infrared Spectrum: 2,3-Dichlorothiophenol
Formula: C 6 H 4 Cl 2 S
CAS: 17231-95-7
State: gas
Origin: EPA-IR VAPOR PHASE LIBRARY
1/CM	ABSORBANCE
549.9	0.0020806
559.547	0.0017097
569.193	0.0015714
578.84	0.0019287
588.486	0.0019613
598.133	0.001914
607.779	0.00219
617.426	0.0020879
627.072	0.0015913
636.719	0.0015899
646.365	0.0018224
656.012	0.0020051
665.658	0.00229
675.305	0.00329
684.951	0.00874
694.598	0.01826
704.245	0.01633
713.891	0.00979
723.538	0.01133
733.184	0.01682
742.831	0.02007
752.477	0.03742
762.124	0.08065
771.77	0.10941
781.417	0.1082
791.063	0.06521
800.71	0.02092
810.356	0.00861
820.003	0.00601
829.649	0.00544
839.296	0.00375
848.943	0.00245
858.589	0.0020413
868.236	0.0020724
877.882	0.00271
887.529	0.00367
897.175	0.0037
906.822	0.00304
916.468	0.0041
926.115	0.00476
935.761	0.00363
945.408	0.0032
955.054	0.00337
964.701	0.0033
974.347	0.00272
983.994	0.00343
993.64	0.00532
1003.29	0.00635
1012.93	0.0059
1022.58	0.00697
1032.23	0.01082
1041.87	0.01979
1051.52	0.02038
1061.17	0.00997
1070.81	0.00442
1080.46	0.00614
1090.11	0.0067
1099.75	0.00348
1109.4	0.0020261
1119.05	0.00262
1128.69	0.0051
1138.34	0.01704
1147.99	0.04458
1157.63	0.05677
1167.28	0.03197
1176.92	0.01237
1186.57	0.02239
1196.22	0.04009
1205.86	0.02926
1215.51	0.01156
1225.16	0.00662
1234.8	0.00402
1244.45	0.00576
1254.1	0.00636
1263.74	0.00529
1273.39	0.00364
1283.04	0.00318
1292.68	0.00259
1302.33	0.0020009
1311.98	0.0016978
1321.62	0.0016447
1331.27	0.0015969
1340.92	0.0019278
1350.56	0.00254
1360.21	0.00339
1369.86	0.00516
1379.5	0.01147
1389.15	0.03258
1398.79	0.07281
1408.44	0.09037
1418.09	0.06567
1427.73	0.08222
1437.38	0.09249
1447.03	0.03145
1456.67	0.00888
1466.32	0.00829
1475.97	0.01026
1485.61	0.00813
1495.26	0.00426
1504.91	0.00342
1514.55	0.00357
1524.2	0.0045
1533.85	0.00662
1543.49	0.01392
1553.14	0.03699
1562.79	0.06443
1572.43	0.04042
1582.08	0.00982
1591.73	0.00353
1601.37	0.0025
1611.02	0.0021707
1620.67	0.00235
1630.31	0.00309
1639.96	0.00421
1649.6	0.0051
1659.25	0.00432
1668.9	0.00283
1678.54	0.0021353
1688.19	0.001834
1697.84	0.0016564
1707.48	0.0017491
1717.13	0.0018261
1726.78	0.0017862
1736.42	0.0019648
1746.07	0.00244
1755.72	0.00308
1765.36	0.00329
1775.01	0.00298
1784.66	0.00227
1794.3	0.0015769
1803.95	0.0014605
1813.6	0.0016524
1823.24	0.00238
1832.89	0.00359
1842.54	0.00418
1852.18	0.0034
1861.83	0.0021353
1871.47	0.0015899
1881.12	0.0015249
1890.77	0.0018829
1900.41	0.00275
1910.06	0.00443
1919.71	0.00508
1929.35	0.0039
1939	0.0024
1948.65	0.0015921
1958.29	0.00125036
1967.94	0.0011068
1977.59	0.001075
1987.23	0.001068
1996.88	0.000961
2006.53	0.000994
2016.17	0.000998
2025.82	0.000949
2035.47	0.000996
2045.11	0.000959
2054.76	0.00093
2064.41	0.000957
2074.05	0.000953
2083.7	0.000916
2093.35	0.000901
2102.99	0.000892
2112.64	0.000845
2122.28	0.00097
2131.93	0.001068
2141.58	0.0010946
2151.22	0.001006
2160.87	0.000937
2170.52	0.000914
2180.16	0.00092
2189.81	0.000994
2199.46	0.000935
2209.1	0.000894
2218.75	0.00086
2228.4	0.000855
2238.04	0.000781
2247.69	0.000817
2257.34	0.000773
2266.98	0.000842
2276.63	0.000979
2286.28	0.0013254
2295.92	0.0015048
2305.57	0.0016472
2315.22	0.0015736
2324.86	0.0014187
2334.51	0.00122238
2344.16	0.0011628
2353.8	0.001061
2363.45	0.000908
2373.09	0.000884
2382.74	0.000822
2392.39	0.00087
2402.03	0.000832
2411.68	0.0008
2421.33	0.000776
2430.97	0.000905
2440.62	0.000972
2450.27	0.001071
2459.91	0.001045
2469.56	0.001028
2479.21	0.0011002
2488.85	0.0013308
2498.5	0.0014401
2508.15	0.001452
2517.79	0.00120477
2527.44	0.000922
2537.09	0.00085
2546.73	0.000779
2556.38	0.000867
2566.03	0.001032
2575.67	0.0015537
2585.32	0.00297
2594.96	0.00553
2604.61	0.00586
2614.26	0.00309
2623.9	0.0013339
2633.55	0.001099
2643.2	0.00121946
2652.84	0.001047
2662.49	0.000786
2672.14	0.000568
2681.78	0.000568
2691.43	0.000487
2701.08	0.00053
2710.72	0.000566
2720.37	0.000488
2730.02	0.00046
2739.66	0.000423
2749.31	0.000382
2758.96	0.000347
2768.6	0.000278
2778.25	0.000411
2787.9	0.00046
2797.54	0.000546
2807.19	0.000541
2816.84	0.000335
2826.48	0.000213
2836.13	0.000343
2845.77	0.000369
2855.42	0.00056
2865.07	0.000662
2874.71	0.000497
2884.36	0.000263
2894.01	0.00013
2903.65	0.000222
2913.3	6e-05
2922.95	7e-05
2932.59	6e-05
2942.24	0.00019
2951.89	0.000241
2961.53	0.000569
2971.18	0.000937
2980.83	0.000999
2990.47	0.000936
3000.12	0.000556
3009.77	0.000243
3019.41	0.000365
3029.06	0.000466
3038.71	0.0011025
3048.35	0.00377
3058	0.01013
3067.64	0.01605
3077.29	0.01247
3086.94	0.00407
3096.58	0.0016079
3106.23	0.0017359
3115.88	0.0019993
3125.52	0.00221
3135.17	0.0018364
3144.82	0.000792
3154.46	0.000308
3164.11	0.000329
3173.76	0.00017
3183.4	0.000352
3193.05	0.00012
3202.7	0.000287
3212.34	0.000298
3221.99	0.00041
3231.64	0.000209
3241.28	0.000246
3250.93	0.000554
3260.58	0.000422
3270.22	0.000197
3279.87	0.000436
3289.52	0.00045
3299.16	0.000391
3308.81	0.000442
3318.45	0.000437
3328.1	0.0005
3337.75	0.000522
3347.39	0.000466
3357.04	0.000647
3366.69	0.000588
3376.33	0.000655
3385.98	0.000618
3395.63	0.000341
3405.27	0.000693
3414.92	0.000697
3424.57	0.000767
3434.21	0.000691
3443.86	0.000859
3453.51	0.001081
3463.15	0.001022
3472.8	0.0011131
3482.45	0.0015885
3492.09	0.0018486
3501.74	0.00258
3511.39	0.00269
3521.03	0.0020169
3530.68	0.0012779
3540.33	0.00120354
3549.97	0.001082
3559.62	0.000961
3569.26	0.000897
3578.91	0.000875
3588.56	0.001028
3598.2	0.000945
3607.85	0.000929
3617.5	0.001072
3627.14	0.00095
3636.79	0.00096
3646.44	0.000988
3656.08	0.000925
3665.73	0.000952
3675.38	0.000986
3685.02	0.001073
3694.67	0.000999
3704.32	0.001016
3713.96	0.000889
3723.61	0.000898
3733.26	0.000966
3742.9	0.001021
3752.55	0.00103
3762.2	0.001122
3771.84	0.0012072
3781.49	0.00121082
3791.13	0.0015005
3800.78	0.0015194
3810.43	0.0013866
3820.07	0.001377
3829.72	0.0011124
3839.37	0.00125848
3849.01	0.00125459
3858.66	0.001044
3868.31	0.001009
3877.95	0.000885
3887.6	0.00082
3897.25	0.000931
3906.89	0.000769
3916.54	0.000842
3926.19	0.00093
3935.83	0.000948
3945.48	0.000766
3955.13	0.000777
3964.77	0.000824
3974.42	0.000875
3984.07	0.000817
3993.71	0.001058
