Infrared Spectrum: 3,5-Dichlorothiophenol
Formula: C 6 H 4 Cl 2 S
CAS: 17231-94-6
State: gas
Origin: EPA-IR VAPOR PHASE LIBRARY
1/CM	ABSORBANCE
549.8	0.00134
559.445	0.000831
569.09	0.0017894
578.734	0.00175211
588.379	0.000743
598.024	0.001098
607.669	0.001464
617.313	0.0022132
626.958	0.001546
636.603	0.0020042
646.248	0.00348
655.893	0.01593
665.537	0.02922
675.182	0.00918
684.827	0.0021791
694.472	0.0021518
704.116	0.00275
713.761	0.00304
723.406	0.00324
733.051	0.0023413
742.695	0.00335
752.34	0.00374
761.985	0.00548
771.63	0.01314
781.275	0.03435
790.919	0.05866
800.564	0.08258
810.209	0.09601
819.854	0.06325
829.498	0.02808
839.143	0.02954
848.788	0.03836
858.433	0.02981
868.078	0.01217
877.722	0.0045
887.367	0.00313
897.012	0.002628
906.657	0.0029
916.301	0.0024688
925.946	0.00273
935.591	0.0021488
945.236	0.00174812
954.88	0.00166688
964.525	0.0018148
974.17	0.0018644
983.815	0.0023563
993.46	0.00313
1003.1	0.0020087
1012.75	0.0022762
1022.39	0.00324
1032.04	0.00325
1041.68	0.00366
1051.33	0.00513
1060.97	0.0018003
1070.62	0.00361
1080.26	0.0024845
1089.91	0.01464
1099.55	0.0269
1109.2	0.02366
1118.84	0.00924
1128.49	0.00468
1138.13	0.00686
1147.78	0.00616
1157.42	0.000884
1167.07	0.001544
1176.71	0.001563
1186.36	0.0019837
1196	0.0018189
1205.64	0.00011
1215.29	0.0019061
1224.93	0.00272
1234.58	0.0019981
1244.22	0.0019041
1253.87	0.001418
1263.51	0.000739
1273.16	0.0016154
1282.8	0.0016298
1292.45	0.001184
1302.09	0.001105
1311.74	0.001422
1321.38	0.0016209
1331.03	0.0021819
1340.67	0.00281
1350.32	0.0054
1359.96	0.01386
1369.61	0.02878
1379.25	0.03721
1388.9	0.03147
1398.54	0.03143
1408.18	0.05467
1417.83	0.06601
1427.47	0.04093
1437.12	0.00818
1446.76	0.00308
1456.41	0.00314
1466.05	0.00361
1475.7	0.00268
1485.34	0.00228
1494.99	0.002639
1504.63	0.00346
1514.28	0.00561
1523.92	0.01095
1533.57	0.02052
1543.21	0.04367
1552.86	0.12314
1562.5	0.22786
1572.15	0.13369
1581.79	0.03689
1591.44	0.01835
1601.08	0.01602
1610.73	0.01141
1620.37	0.00628
1630.01	0.00352
1639.66	0.00273
1649.3	0.00293
1658.95	0.0026291
1668.59	0.0023308
1678.24	0.0025459
1687.88	0.00321
1697.53	0.00452
1707.17	0.00583
1716.82	0.00628
1726.46	0.00564
1736.11	0.00488
1745.75	0.00414
1755.4	0.0025967
1765.04	0.0018849
1774.69	0.0020237
1784.33	0.0017982
1793.98	0.0018708
1803.62	0.0018582
1813.27	0.001543
1822.91	0.0016161
1832.55	0.0016269
1842.2	0.0016515
1851.84	0.0018178
1861.49	0.001628
1871.13	0.0016125
1880.78	0.00168418
1890.42	0.0019282
1900.07	0.0021566
1909.71	0.0019356
1919.36	0.0022063
1929	0.0025085
1938.65	0.0023015
1948.29	0.0023479
1957.94	0.0020597
1967.58	0.00173547
1977.23	0.0019215
1986.87	0.00170862
1996.52	0.0017767
2006.16	0.001629
2015.81	0.00173118
2025.45	0.001531
2035.1	0.00166114
2044.74	0.001532
2054.38	0.001475
2064.03	0.0016203
2073.67	0.001455
2083.32	0.0016367
2092.96	0.001505
2102.61	0.001532
2112.25	0.001296
2121.9	0.00168774
2131.54	0.0019097
2141.19	0.0016488
2150.83	0.00172087
2160.48	0.0016415
2170.12	0.00169238
2179.77	0.0016269
2189.41	0.0018103
2199.06	0.0018964
2208.7	0.0020756
2218.35	0.0018608
2227.99	0.00169994
2237.64	0.001544
2247.28	0.00153
2256.92	0.001363
2266.57	0.001518
2276.21	0.0019211
2285.86	0.0015809
2295.5	0.001537
2305.15	0.0019022
2314.79	0.0018303
2324.44	0.0018526
2334.08	0.0018844
2343.73	0.00175156
2353.37	0.0020209
2363.02	0.002152
2372.66	0.00275
2382.31	0.0025984
2391.95	0.0024153
2401.6	0.0019165
2411.24	0.0020384
2420.89	0.0015748
2430.53	0.00135
2440.18	0.0018426
2449.82	0.0017741
2459.47	0.0018539
2469.11	0.0017397
2478.75	0.001883
2488.4	0.0018944
2498.04	0.0016517
2507.69	0.0019921
2517.33	0.0018205
2526.98	0.0016239
2536.62	0.00156
2546.27	0.0018246
2555.91	0.001629
2565.56	0.0021793
2575.2	0.00173389
2584.85	0.0019649
2594.49	0.0019524
2604.14	0.0021271
2613.78	0.0021041
2623.43	0.0025531
2633.07	0.00272
2642.72	0.0025358
2652.36	0.0025438
2662.01	0.0021852
2671.65	0.0019123
2681.29	0.00209
2690.94	0.00267
2700.58	0.002399
2710.23	0.0020119
2719.87	0.0021833
2729.52	0.00172073
2739.16	0.001308
2748.81	0.00186
2758.45	0.001555
2768.1	0.00172647
2777.74	0.00168588
2787.39	0.0020015
2797.03	0.0018576
2806.68	0.0020964
2816.32	0.0016521
2825.97	0.0024023
2835.61	0.0023216
2845.26	0.0024341
2854.9	0.0019936
2864.55	0.001561
2874.19	0.00171933
2883.84	0.0020692
2893.48	0.0018306
2903.12	0.0017987
2912.77	0.001535
2922.41	0.0016122
2932.06	0.0018581
2941.7	0.0020031
2951.35	0.00171774
2960.99	0.0019592
2970.64	0.00169842
2980.28	0.0019784
2989.93	0.0018094
2999.57	0.0017123
3009.22	0.001343
3018.86	0.0019478
3028.51	0.001786
3038.15	0.0016052
3047.8	0.002067
3057.44	0.001473
3067.09	0.0018764
3076.73	0.0018334
3086.38	0.00176738
3096.02	0.001467
3105.67	0.0021041
3115.31	0.0020803
3124.95	0.0025844
3134.6	0.002182
3144.24	0.0018616
3153.89	0.001317
3163.53	0.0019441
3173.18	0.002047
3182.82	0.00171451
3192.47	0.001438
3202.11	0.00170055
3211.76	0.000918
3221.4	0.001659
3231.05	0.001176
3240.69	0.000853
3250.34	0.002263
3259.98	0.0025089
3269.63	0.0021542
3279.27	0.0021246
3288.92	0.001443
3298.56	0.001448
3308.21	0.0022748
3317.85	0.001222
3327.49	0.0018137
3337.14	0.001465
3346.78	0.001692
3356.43	0.001276
3366.07	0.0019805
3375.72	0.00153
3385.36	0.0018824
3395.01	0.0015709
3404.65	0.001363
3414.3	0.001387
3423.94	0.001491
3433.59	0.0019187
3443.23	0.001499
3452.88	0.001542
3462.52	0.001114
3472.17	0.0019154
3481.81	0.0015724
3491.46	0.00175346
3501.1	0.0022064
3510.75	0.00171025
3520.39	0.00156
3530.04	0.001519
3539.68	0.001285
3549.32	0.001373
3558.97	0.001495
3568.61	0.001439
3578.26	0.0019604
3587.9	0.001296
3597.55	0.00149
3607.19	0.001417
3616.84	0.001
3626.48	0.001385
3636.13	0.00167863
3645.77	0.0018071
3655.42	0.0015807
3665.06	0.0019058
3674.71	0.001538
3684.35	0.000862
3694	0.0019484
3703.64	0.001055
3713.29	0.001263
3722.93	0.0016649
3732.58	0.0017309
3742.22	0.001415
3751.86	0.0019526
3761.51	0.0018193
3771.15	0.0018079
3780.8	0.0016143
3790.44	0.001813
3800.09	0.000916
3809.73	0.001354
3819.38	0.001385
3829.02	0.001417
3838.67	0.0017389
3848.31	0.00169679
3857.96	0.0019908
3867.6	0.0020761
3877.25	0.0018832
3886.89	0.0018437
3896.54	0.000922
3906.18	0.0020546
3915.83	0.0026383
3925.47	0.0020761
3935.12	0.0019298
3944.76	0.0022543
3954.41	0.0016009
3964.05	0.0015878
3973.69	0.0020425
3983.34	0.00141
3992.98	0.0016096
