Infrared Spectrum: Cyclododecanol
Formula: C 12 H 24 O
CAS: 1724-39-6
State: gas
Instrument: HP-GC/MS/IRD
Origin: NIST Mass Spectrometry Data Center
1/CM	ABSORBANCE
550	0.0004503
562	0.0003192
574	0.0001995
586	0.0002565
598	0.0002109
610	8.55e-05
622	0.0001368
634	0.0001026
646	0.0001026
658	0.0001767
670	0.0001653
682	0.0003591
694	0.000741
706	0.0010773
718	0.0015219
730	0.00114
742	0.0007239
754	0.0004446
766	0.0003477
778	0.0003135
790	0.0002565
802	0.0003306
814	0.0004047
826	0.0003477
838	0.0003876
850	0.0004446
862	0.0006099
874	0.0006783
886	0.0006327
898	0.0009006
910	0.0010488
922	0.0009348
934	0.0013281
946	0.0017784
958	0.0021261
970	0.0022971
982	0.0026106
994	0.0038361
1006	0.0049704
1018	0.004446
1030	0.0042465
1042	0.0040185
1054	0.0027474
1066	0.0020748
1078	0.0025707
1090	0.0026676
1102	0.0023484
1114	0.0018468
1126	0.001368
1138	0.0013566
1150	0.0015333
1162	0.0017157
1174	0.0017328
1186	0.0018354
1198	0.0020007
1210	0.0021147
1222	0.0022629
1234	0.002223
1246	0.0022173
1258	0.0021318
1270	0.0020406
1282	0.0018183
1294	0.00171
1306	0.0016929
1318	0.001596
1330	0.0016017
1342	0.0023313
1354	0.0024567
1366	0.002223
1378	0.0021033
1390	0.0018753
1402	0.0013908
1414	0.0010716
1426	0.0011742
1438	0.0027531
1450	0.0052896
1462	0.0049875
1474	0.0044061
1486	0.0015732
1498	0.0006213
1510	0.0005985
1522	0.0003876
1534	0.0002451
1546	0.0002565
1558	0.0001995
1570	7.41e-05
1582	5.13e-05
1594	6.84e-05
1606	3.99e-05
1618	4.56e-05
1630	5.13e-05
1642	5.13e-05
1654	9.69e-05
1666	6.27e-05
1678	0.0001083
1690	9.12e-05
1702	0.000114
1714	0.0001026
1726	3.99e-05
1738	6.84e-05
1750	0.0001425
1762	7.41e-05
1774	6.84e-05
1786	9.12e-05
1798	9.69e-05
1810	6.27e-05
1822	5.7e-05
1834	6.84e-05
1846	9.12e-05
1858	5.7e-05
1870	5.13e-05
1882	2.85e-05
1894	4.56e-05
1906	3.42e-05
1918	4.56e-05
1930	1.71e-05
1942	3.42e-05
1954	3.99e-05
1966	3.99e-05
1978	3.42e-05
1990	2.85e-05
2002	3.42e-05
2014	5.13e-05
2026	3.99e-05
2038	2.85e-05
2050	4.56e-05
2062	4.56e-05
2074	3.42e-05
2086	3.42e-05
2098	2.28e-05
2110	2.85e-05
2122	2.28e-05
2134	6.27e-05
2146	3.99e-05
2158	6.27e-05
2170	4.56e-05
2182	2.28e-05
2194	5.7e-05
2206	3.99e-05
2218	5.13e-05
2230	5.13e-05
2242	5.13e-05
2254	5.7e-05
2266	5.7e-05
2278	4.56e-05
2290	3.99e-05
2302	2.85e-05
2314	1.71e-05
2326	0
2338	0
2350	1.71e-05
2362	0
2374	0
2386	2.28e-05
2398	3.99e-05
2410	3.42e-05
2422	3.42e-05
2434	2.28e-05
2446	3.42e-05
2458	3.99e-05
2470	5.7e-05
2482	5.13e-05
2494	6.27e-05
2506	6.27e-05
2518	9.69e-05
2530	0.0001254
2542	0.0001311
2554	0.0001311
2566	0.0001254
2578	0.0001653
2590	0.0001653
2602	0.0002166
2614	0.0002508
2626	0.0003192
2638	0.0003705
2650	0.0004959
2662	0.0006099
2674	0.0007182
2686	0.0007125
2698	0.000627
2710	0.0005586
2722	0.0005187
2734	0.000513
2746	0.0005301
2758	0.0005928
2770	0.0007068
2782	0.0008151
2794	0.0010602
2806	0.0012996
2818	0.0017499
2830	0.0023655
2842	0.0046683
2854	0.0141759
2866	0.0203775
2878	0.0179664
2890	0.012939
2902	0.0179265
2914	0.0320112
2926	0.0473271
2938	0.0567264
2950	0.0383154
2962	0.0184452
2974	0.0088293
2986	0.0047424
2998	0.0024624
3010	0.0014991
3022	0.001026
3034	0.0007011
3046	0.0005358
3058	0.0004218
3070	0.0003591
3082	0.000285
3094	0.0002565
3106	0.0002394
3118	0.0001938
3130	0.0002052
3142	0.0001995
3154	0.000171
3166	0.0001482
3178	0.0001539
3190	0.0001425
3202	0.000171
3214	0.0001482
3226	0.0001197
3238	0.000114
3250	9.12e-05
3262	6.27e-05
3274	4.56e-05
3286	6.84e-05
3298	9.12e-05
3310	9.12e-05
3322	5.13e-05
3334	0.0001197
3346	9.12e-05
3358	0.0001197
3370	8.55e-05
3382	7.98e-05
3394	7.41e-05
3406	0.0001425
3418	0.0001653
3430	0.0001083
3442	0.0001425
3454	0.000114
3466	0.0001083
3478	0.0001083
3490	8.55e-05
3502	0.0001254
3514	7.41e-05
3526	0.0001824
3538	7.41e-05
3550	0.0001083
3562	0.0001311
3574	0.0001197
3586	0.000228
3598	0.0001824
3610	0.0002907
3622	0.0004104
3634	0.0008322
3646	0.0018183
3658	0.0015276
3670	0.0004503
3682	0.0001881
3694	0.0001539
3706	0.0001425
3718	0.0001482
3730	0.0001881
3742	0.0001938
3754	0.0001311
3766	0.0001254
3778	0.0001368
3790	6.84e-05
3802	6.27e-05
3814	9.12e-05
3826	0.0001197
3838	0.0001767
