Infrared Spectrum: 3-Chlorobenzenesulphonamide
Formula: C 6 H 6 Cl N O 2 S
CAS: 17260-71-8
State: gas
Origin: EPA-IR VAPOR PHASE LIBRARY
1/CM	ABSORBANCE
549.8	0.01046
559.445	0.01604
569.09	0.0295
578.734	0.05385
588.379	0.06465
598.024	0.03506
607.669	0.01613
617.313	0.01093
626.958	0.00949
636.603	0.0086
646.248	0.00823
655.893	0.01098
665.537	0.03495
675.182	0.0373
684.827	0.02093
694.472	0.0138
704.116	0.01015
713.761	0.0094
723.406	0.00951
733.051	0.00937
742.695	0.00909
752.34	0.0102
761.985	0.01213
771.63	0.01881
781.275	0.02969
790.919	0.02256
800.564	0.01133
810.209	0.00914
819.854	0.00956
829.498	0.01249
839.143	0.01738
848.788	0.02588
858.433	0.03408
868.078	0.03369
877.722	0.02479
887.367	0.01723
897.012	0.01064
906.657	0.00674
916.301	0.00465
925.946	0.00359
935.591	0.00251
945.236	0.0026
954.88	0.00225
964.525	0.00226
974.17	0.00253
983.815	0.00141
993.46	0.00197
1003.1	0.00276
1012.75	0.00153
1022.39	0.00172
1032.04	0.0012164
1041.68	0.0018
1051.33	0.00212
1060.97	0.00505
1070.62	0.00896
1080.26	0.01297
1089.91	0.01109
1099.55	0.01152
1109.2	0.01473
1118.84	0.02062
1128.49	0.01469
1138.13	0.00949
1147.78	0.01124
1157.42	0.02072
1167.07	0.05259
1176.71	0.10733
1186.36	0.08092
1196	0.0262
1205.64	0.01064
1215.29	0.007
1224.93	0.00535
1234.58	0.00441
1244.22	0.00399
1253.87	0.00391
1263.51	0.00322
1273.16	0.00304
1282.8	0.00513
1292.45	0.0066
1302.09	0.00452
1311.74	0.00309
1321.38	0.00312
1331.03	0.00429
1340.67	0.00682
1350.32	0.01292
1359.96	0.02368
1369.61	0.0393
1379.25	0.06646
1388.9	0.07108
1398.54	0.04419
1408.18	0.02771
1417.83	0.02092
1427.47	0.01245
1437.12	0.00726
1446.76	0.00844
1456.41	0.01162
1466.05	0.01354
1475.7	0.0104
1485.34	0.00469
1494.99	0.00334
1504.63	0.00318
1514.28	0.00423
1523.92	0.00597
1533.57	0.00906
1543.21	0.01391
1552.86	0.01667
1562.5	0.01381
1572.15	0.0137
1581.79	0.01487
1591.44	0.00702
1601.08	0.00278
1610.73	0.00171
1620.37	0.0012472
1630.01	0.0008374
1639.66	0.0008737
1649.3	0.0009287
1658.95	0.0008994
1668.59	0.0010544
1678.24	0.0010411
1687.88	0.00168
1697.53	0.00176
1707.17	0.0010364
1716.82	0.0008879
1726.46	0.0008233
1736.11	0.0009963
1745.75	0.0008545
1755.4	0.0010648
1765.04	0.0013507
1774.69	0.0012222
1784.33	0.0012751
1793.98	0.0010269
1803.62	0.0010174
1813.27	0.0010165
1822.91	0.0009952
1832.55	0.0008103
1842.2	0.0006961
1851.84	0.0007042
1861.49	0.0009772
1871.13	0.0012977
1880.78	0.00155
1890.42	0.0010805
1900.07	0.0007973
1909.71	0.0006592
1919.36	0.0006496
1929	0.0009361
1938.65	0.0011688
1948.29	0.0012539
1957.94	0.0008055
1967.58	0.0007884
1977.23	0.0006091
1986.87	0.00046619
1996.52	0.00045461
2006.16	0.0005113
2015.81	0.0004861
2025.45	0.00037929
2035.1	0.000604
2044.74	0.00043101
2054.38	0.0005667
2064.03	0.0005751
2073.67	0.0004965
2083.32	0.00046238
2092.96	0.0006061
2102.61	0.00040631
2112.25	0.0005693
2121.9	0.0005047
2131.54	0.0005322
2141.19	0.0005785
2150.83	0.0005754
2160.48	0.00046121
2170.12	0.0004984
2179.77	0.0003559
2189.41	0.0006622
2199.06	0.0006089
2208.7	0.0004854
2218.35	0.0004401
2227.99	0.000382384
2237.64	0.0005433
2247.28	0.00047896
2256.92	0.000545
2266.57	0.00042065
2276.21	0.0005947
2285.86	0.0006351
2295.5	0.0008477
2305.15	0.0006271
2314.79	0.000548
2324.44	0.0007397
2334.08	0.0008397
2343.73	0.0007879
2353.37	0.0007694
2363.02	0.0007593
2372.66	0.0007232
2382.31	0.0004953
2391.95	0.0007202
2401.6	0.0007078
2411.24	0.0005648
2420.89	0.0007359
2430.53	0.0006205
2440.18	0.0004911
2449.82	0.0005578
2459.47	0.0007344
2469.11	0.00039863
2478.75	0.00039015
2488.4	0.0005348
2498.04	0.0006149
2507.69	0.0008078
2517.33	0.0007265
2526.98	0.0008036
2536.62	0.0009052
2546.27	0.0009669
2555.91	0.0011641
2565.56	0.0007178
2575.2	0.0006929
2584.85	0.0006502
2594.49	0.0008411
2604.14	0.0006155
2613.78	0.0006899
2623.43	0.0005262
2633.07	0.00043771
2642.72	0.0003592
2652.36	0.0005427
2662.01	0.0006233
2671.65	0.0005516
2681.29	0.0006592
2690.94	0.0006869
2700.58	0.0004895
2710.23	0.00041492
2719.87	0.0005705
2729.52	0.0005995
2739.16	0.000381786
2748.81	0.000659
2758.45	0.000545
2768.1	0.0005729
2777.74	0.0003508
2787.39	0.0003576
2797.03	0.0003157
2806.68	0.00041475
2816.32	0.0003291
2825.97	0.0004889
2835.61	0.0005578
2845.26	0.0004065
2854.9	0.0004884
2864.55	0.0003568
2874.19	0.00039261
2883.84	0.0005845
2893.48	0.000625
2903.12	0.0007008
2912.77	0.0004991
2922.41	0.00041642
2932.06	0.0004915
2941.7	0.0004874
2951.35	0.0005914
2960.99	0.00028
2970.64	0.00043745
2980.28	0.000269
2989.93	0.0006634
2999.57	0.0005029
3009.22	0.0007259
3018.86	0.0005886
3028.51	0.0007842
3038.15	0.0006802
3047.8	0.0010081
3057.44	0.00171
3067.09	0.0037
3076.73	0.00541
3086.38	0.00396
3096.02	0.0017
3105.67	0.0011843
3115.31	0.0009556
3124.95	0.0007591
3134.6	0.0007675
3144.24	0.0008886
3153.89	0.0008948
3163.53	0.0007827
3173.18	0.0007108
3182.82	0.0006592
3192.47	0.0005737
3202.11	0.0003573
3211.76	0.0007453
3221.4	0.000993
3231.05	0.0007211
3240.69	0.000793
3250.34	0.0010122
3259.98	0.00104
3269.63	0.0010813
3279.27	0.0011099
3288.92	0.0011558
3298.56	0.0009516
3308.21	0.0009935
3317.85	0.0012411
3327.49	0.0010661
3337.14	0.00208
3346.78	0.00387
3356.43	0.00745
3366.07	0.01318
3375.72	0.01572
3385.36	0.01113
3395.01	0.00562
3404.65	0.00321
3414.3	0.00163
3423.94	0.002
3433.59	0.00234
3443.23	0.00368
3452.88	0.00536
3462.52	0.00827
3472.17	0.01016
3481.81	0.00995
3491.46	0.0074
3501.1	0.00496
3510.75	0.00287
3520.39	0.00208
3530.04	0.0012886
3539.68	0.0010184
3549.32	0.0010677
3558.97	0.0008524
3568.61	0.0005652
3578.26	0.0009204
3587.9	0.0007694
3597.55	0.000827
3607.19	0.0007255
3616.84	0.00046354
3626.48	0.0009382
3636.13	0.0007679
3645.77	0.0005306
3655.42	0.0005725
3665.06	0.0009723
3674.71	0.0014
3684.35	0.0006756
3694	0.000709
3703.64	0.0008716
3713.29	0.0009241
3722.93	0.0007301
3732.58	0.0007125
3742.22	0.000644
3751.86	0.0008161
3761.51	0.001178
3771.15	0.0003217
3780.8	0.000525
3790.44	0.000578
3800.09	0.00083
3809.73	0.0006851
3819.38	0.0008594
3829.02	0.0006885
3838.67	0.0008139
3848.31	0.0007555
3857.96	0.0008394
3867.6	0.0007672
3877.25	0.0006663
3886.89	0.0011062
3896.54	0.0007599
3906.18	0.0008303
3915.83	0.0004603
3925.47	0.00042696
3935.12	0.00046189
3944.76	0.0007901
3954.41	0.0008271
3964.05	0.00042753
3973.69	0.0003149
3983.34	0.0008002
3992.98	0.00039983
