Infrared Spectrum: 1-Cyclohexyl-1-propanol
Formula: C 9 H 18 O
CAS: 17264-02-7
State: gas
Instrument: HP-GC/MS/IRD
Origin: NIST Mass Spectrometry Data Center
1/CM	ABSORBANCE
550	0.0001584
562	7.2e-05
574	0.0001488
586	0.0002304
598	0.000192
610	0.0002112
622	0.0001776
634	0.0001584
646	0.00012
658	0.0001728
670	0.0003024
682	0.000168
694	0.0001152
706	0.0001248
718	7.2e-05
730	8.16e-05
742	0.0001488
754	0.0002832
766	0.0003456
778	0.000336
790	0.0002784
802	0.0003312
814	0.0003264
826	0.0004704
838	0.0006384
850	0.0006144
862	0.0007056
874	0.0008976
886	0.0013632
898	0.001296
910	0.0007536
922	0.000768
934	0.001056
946	0.0019536
958	0.0039456
970	0.005664
982	0.0046128
994	0.0025008
1006	0.0016752
1018	0.0017328
1030	0.002136
1042	0.002424
1054	0.0024336
1066	0.0022464
1078	0.0023616
1090	0.0025248
1102	0.0028464
1114	0.0030912
1126	0.002496
1138	0.0018528
1150	0.0014976
1162	0.0013104
1174	0.0013968
1186	0.0016032
1198	0.0016848
1210	0.0020592
1222	0.0022992
1234	0.00228
1246	0.0021552
1258	0.0021024
1270	0.0020544
1282	0.0018288
1294	0.0017472
1306	0.0015936
1318	0.001368
1330	0.0012912
1342	0.0014784
1354	0.0017328
1366	0.0019488
1378	0.0023472
1390	0.0022848
1402	0.0015552
1414	0.0010608
1426	0.0010032
1438	0.0021024
1450	0.0042864
1462	0.0040032
1474	0.0020976
1486	0.0008736
1498	0.0004896
1510	0.0003456
1522	0.0002976
1534	0.0002352
1546	0.0002112
1558	0.0002304
1570	0.000168
1582	0.0001248
1594	0.0001152
1606	8.64e-05
1618	9.6e-05
1630	8.64e-05
1642	8.64e-05
1654	0.0001248
1666	7.68e-05
1678	8.16e-05
1690	5.76e-05
1702	9.12e-05
1714	3.84e-05
1726	1.92e-05
1738	6.24e-05
1750	5.76e-05
1762	3.36e-05
1774	4.8e-05
1786	2.4e-05
1798	1.44e-05
1810	2.4e-05
1822	2.4e-05
1834	1.44e-05
1846	9.6e-06
1858	2.4e-05
1870	2.4e-05
1882	2.4e-05
1894	2.88e-05
1906	3.84e-05
1918	1.92e-05
1930	2.88e-05
1942	3.84e-05
1954	2.88e-05
1966	1.44e-05
1978	2.88e-05
1990	2.88e-05
2002	2.88e-05
2014	1.92e-05
2026	2.4e-05
2038	9.6e-06
2050	3.36e-05
2062	2.88e-05
2074	9.6e-06
2086	9.6e-06
2098	9.6e-06
2110	1.92e-05
2122	9.6e-06
2134	3.84e-05
2146	4.32e-05
2158	2.88e-05
2170	5.28e-05
2182	5.76e-05
2194	5.28e-05
2206	5.76e-05
2218	5.28e-05
2230	6.24e-05
2242	5.76e-05
2254	7.68e-05
2266	5.28e-05
2278	3.84e-05
2290	2.88e-05
2302	4.8e-05
2314	5.76e-05
2326	6.24e-05
2338	0.0001152
2350	0.0001056
2362	0.0001632
2374	0.0001344
2386	0.0001056
2398	0.0001152
2410	0.00012
2422	9.6e-05
2434	9.6e-05
2446	5.28e-05
2458	8.16e-05
2470	6.72e-05
2482	0.0001104
2494	0.0001248
2506	0.0001008
2518	0.0001056
2530	0.0001344
2542	0.0001536
2554	0.0001344
2566	0.000216
2578	0.0002352
2590	0.0003024
2602	0.0003744
2614	0.0003696
2626	0.0004128
2638	0.0004752
2650	0.0005856
2662	0.0007152
2674	0.0007344
2686	0.0006432
2698	0.0005952
2710	0.0005808
2722	0.0005472
2734	0.000552
2746	0.0006048
2758	0.000672
2770	0.0007536
2782	0.0009312
2794	0.0012
2806	0.0013872
2818	0.001728
2830	0.0026304
2842	0.005544
2854	0.0139104
2866	0.018696
2878	0.0133824
2890	0.0105792
2902	0.0117456
2914	0.0196848
2926	0.037632
2938	0.0470784
2950	0.0271104
2962	0.01308
2974	0.0104064
2986	0.0057072
2998	0.0025008
3010	0.0013872
3022	0.0010224
3034	0.0007968
3046	0.0007248
3058	0.0005904
3070	0.000504
3082	0.0004512
3094	0.0004032
3106	0.0003456
3118	0.0002976
3130	0.0002976
3142	0.0002928
3154	0.0003072
3166	0.0002784
3178	0.0001728
3190	0.0001728
3202	0.00012
3214	0.00012
3226	0.0001008
3238	6.72e-05
3250	7.2e-05
3262	6.24e-05
3274	8.16e-05
3286	5.76e-05
3298	3.84e-05
3310	4.8e-05
3322	5.28e-05
3334	4.8e-05
3346	8.16e-05
3358	8.16e-05
3370	6.72e-05
3382	0.0001056
3394	9.12e-05
3406	9.12e-05
3418	0.0001104
3430	0.0001392
3442	0.0001488
3454	0.0001296
3466	0.0001104
3478	8.16e-05
3490	9.12e-05
3502	1.92e-05
3514	2.4e-05
3526	5.28e-05
3538	8.16e-05
3550	8.64e-05
3562	5.28e-05
3574	5.76e-05
3586	5.28e-05
3598	4.32e-05
3610	0.0001824
3622	0.0002832
3634	0.0005616
3646	0.0010608
3658	0.0015504
3670	0.001104
3682	0.0004272
3694	0.0002016
3706	0.0001296
3718	0.0001392
3730	0.0001056
3742	0.0001632
3754	0.0001056
3766	8.16e-05
3778	0.0001152
3790	0.0001056
3802	6.72e-05
3814	0.0001392
3826	0.000144
3838	0.0001872
