Infrared Spectrum: Trityl isothiocyanate
Formula: C 20 H 15 N S
CAS: 1726-94-9
State: gas
Origin: EPA-IR VAPOR PHASE LIBRARY
1/CM	ABSORBANCE
549.8	0.011386
559.445	0.010426
569.09	0.007296
578.734	0.004566
588.379	0.003326
598.024	0.003666
607.669	0.005706
617.313	0.012986
626.958	0.020076
636.603	0.064006
646.248	0.013406
655.893	0.010956
665.537	0.013606
675.182	0.024326
684.827	0.039586
694.472	0.092666
704.116	0.079626
713.761	0.029456
723.406	0.018276
733.051	0.033576
742.695	0.068976
752.34	0.065676
761.985	0.037666
771.63	0.011176
781.275	0.006206
790.919	0.005376
800.564	0.006236
810.209	0.008076
819.854	0.018976
829.498	0.047526
839.143	0.023966
848.788	0.008336
858.433	0.005386
868.078	0.005706
877.722	0.006966
887.367	0.013576
897.012	0.021346
906.657	0.008986
916.301	0.007336
925.946	0.009776
935.591	0.009066
945.236	0.004656
954.88	0.003376
964.525	0.003116
974.17	0.002606
983.815	0.002676
993.46	0.003736
1003.1	0.006516
1012.75	0.003166
1022.39	0.005726
1032.04	0.013936
1041.68	0.007436
1051.33	0.003716
1060.97	0.003616
1070.62	0.002246
1080.26	0.001706
1089.91	0.0007952
1099.55	0.0012128
1109.2	0.0009818
1118.84	0.0009517
1128.49	0.000991
1138.13	0.002016
1147.78	0.005416
1157.42	0.009006
1167.07	0.010516
1176.71	0.014486
1186.36	0.023496
1196	0.021776
1205.64	0.015216
1215.29	0.010146
1224.93	0.006376
1234.58	0.004356
1244.22	0.003166
1253.87	0.002456
1263.51	0.002966
1273.16	0.003846
1282.8	0.002986
1292.45	0.002356
1302.09	0.003076
1311.74	0.004326
1321.38	0.004516
1331.03	0.002766
1340.67	0.001876
1350.32	0.0013374
1359.96	0.0014794
1369.61	0.001986
1379.25	0.002886
1388.9	0.002256
1398.54	0.001826
1408.18	0.002096
1417.83	0.002826
1427.47	0.005146
1437.12	0.014176
1446.76	0.042056
1456.41	0.017366
1466.05	0.008636
1475.7	0.011116
1485.34	0.023026
1494.99	0.033706
1504.63	0.015366
1514.28	0.004766
1523.92	0.002636
1533.57	0.003006
1543.21	0.002596
1552.86	0.001936
1562.5	0.002346
1572.15	0.003906
1581.79	0.007016
1591.44	0.011926
1601.08	0.012366
1610.73	0.005616
1620.37	0.003356
1630.01	0.002416
1639.66	0.002046
1649.3	0.002006
1658.95	0.002376
1668.59	0.002926
1678.24	0.002926
1687.88	0.002356
1697.53	0.001816
1707.17	0.001766
1716.82	0.001996
1726.46	0.002396
1736.11	0.002646
1745.75	0.002666
1755.4	0.003186
1765.04	0.003546
1774.69	0.003896
1784.33	0.003456
1793.98	0.006086
1803.62	0.008866
1813.27	0.004536
1822.91	0.002916
1832.55	0.002286
1842.2	0.002406
1851.84	0.003026
1861.49	0.004276
1871.13	0.005226
1880.78	0.007216
1890.42	0.008276
1900.07	0.008896
1909.71	0.009646
1919.36	0.011346
1929	0.014746
1938.65	0.021866
1948.29	0.031356
1957.94	0.040486
1967.58	0.051616
1977.23	0.065956
1986.87	0.087146
1996.52	0.114006
2006.16	0.144416
2015.81	0.180546
2025.45	0.219686
2035.1	0.245986
2044.74	0.245206
2054.38	0.218366
2064.03	0.185576
2073.67	0.167086
2083.32	0.159506
2092.96	0.144386
2102.61	0.120646
2112.25	0.104136
2121.9	0.095566
2131.54	0.083266
2141.19	0.066486
2150.83	0.056286
2160.48	0.049736
2170.12	0.042066
2179.77	0.033326
2189.41	0.024636
2199.06	0.018516
2208.7	0.014916
2218.35	0.012186
2227.99	0.009196
2237.64	0.006806
2247.28	0.005476
2256.92	0.004426
2266.57	0.003666
2276.21	0.002916
2285.86	0.002346
2295.5	0.002026
2305.15	0.001956
2314.79	0.002566
2324.44	0.002246
2334.08	0.001856
2343.73	0.002006
2353.37	0.002096
2363.02	0.001856
2372.66	0.001846
2382.31	0.001976
2391.95	0.002036
2401.6	0.002046
2411.24	0.001936
2420.89	0.001856
2430.53	0.001836
2440.18	0.001736
2449.82	0.001636
2459.47	0.001586
2469.11	0.001556
2478.75	0.001706
2488.4	0.001616
2498.04	0.001756
2507.69	0.001836
2517.33	0.001926
2526.98	0.002016
2536.62	0.002186
2546.27	0.002396
2555.91	0.002736
2565.56	0.003126
2575.2	0.003706
2584.85	0.003836
2594.49	0.003376
2604.14	0.002256
2613.78	0.001686
2623.43	0.00152
2633.07	0.0014169
2642.72	0.0014461
2652.36	0.0013298
2662.01	0.0012198
2671.65	0.0009616
2681.29	0.0009757
2690.94	0.000969
2700.58	0.0010346
2710.23	0.0010987
2719.87	0.0011104
2729.52	0.0011344
2739.16	0.0011942
2748.81	0.0013711
2758.45	0.0014249
2768.1	0.0014544
2777.74	0.0013993
2787.39	0.0014293
2797.03	0.0013545
2806.68	0.0013442
2816.32	0.0012147
2825.97	0.0012778
2835.61	0.0014516
2845.26	0.001596
2854.9	0.001806
2864.55	0.001976
2874.19	0.001896
2883.84	0.001746
2893.48	0.001976
2903.12	0.001576
2912.77	0.001576
2922.41	0.001656
2932.06	0.001826
2941.7	0.001976
2951.35	0.001806
2960.99	0.001966
2970.64	0.001946
2980.28	0.002326
2989.93	0.002586
2999.57	0.003396
3009.22	0.005276
3018.86	0.010756
3028.51	0.020096
3038.15	0.027186
3047.8	0.021786
3057.44	0.027606
3067.09	0.060516
3076.73	0.055126
3086.38	0.028406
3096.02	0.023536
3105.67	0.012856
3115.31	0.006686
3124.95	0.003236
3134.6	0.002206
3144.24	0.001766
3153.89	0.001866
3163.53	0.002006
3173.18	0.0013596
3182.82	0.0008687
3192.47	0.0007153
3202.11	0.0005445
3211.76	0.000426
3221.4	0.000301
3231.05	0.00027
3240.69	0.00022
3250.34	0.000312
3259.98	0.000343
3269.63	0.000399
3279.27	0.000439
3288.92	0.000189
3298.56	0.000109
3308.21	0.000299
3317.85	0.000285
3327.49	0.000174
3337.14	0.000252
3346.78	0.000233
3356.43	0.000504
3366.07	0.000242
3375.72	0.000292
3385.36	0.000365
3395.01	0.00022
3404.65	0.000341
3414.3	0.000404
3423.94	0.000377
3433.59	0.000317
3443.23	0.0004701
3452.88	0.000303
3462.52	0.000301
3472.17	0.0006048
3481.81	0.00062062
3491.46	0.000392
3501.1	0.00065343
3510.75	0.00058993
3520.39	0.00060835
3530.04	0.0007646
3539.68	0.000561682
3549.32	0.00061888
3558.97	0.00062594
3568.61	0.0004606
3578.26	0.000335
3587.9	0.000273
3597.55	0.000161
3607.19	0.00025
3616.84	0.000282
3626.48	0.0005251
3636.13	0.00057661
3645.77	0.00056666
3655.42	0.0006572
3665.06	0.00064312
3674.71	0.0008299
3684.35	0.0008053
3694	0.0007243
3703.64	0.0009487
3713.29	0.0010192
3722.93	0.00058043
3732.58	0.0006906
3742.22	0.000709
3751.86	0.0005213
3761.51	0.00060468
3771.15	0.00036
3780.8	0.00055338
3790.44	0.00041
3800.09	0.000351
3809.73	0.000413
3819.38	0.0005354
3829.02	0.000325
3838.67	0.00060127
3848.31	0.00060481
3857.96	0.0005263
3867.6	0.0005036
3877.25	0.0005444
3886.89	0.00062318
3896.54	0.0007876
3906.18	0.0007399
3915.83	0.0008996
3925.47	0.0007296
3935.12	0.0007964
3944.76	0.0011052
3954.41	0.0011896
3964.05	0.0011501
3973.69	0.0012437
3983.34	0.0014741
3992.98	0.001493
