Infrared Spectrum: OCTANAL, 2,4-DINITROPHENYL HYDRAZONE
Formula: C14 H20 N4 O4
CAS: 1726-77-8
State: SOLID (KBr PELLET)
Melting point: 107 C
Class: COBLENTZ
Instrument: Not specified, most likely a grating spectrometer.
Sampling: TRANSMISSION
Resolution: 4
Origin: CITRUS EXPERIMENT STATION, UNIVERSITY OF FLORIDA (G. EDWARDS)
MICROMETERS	TRANSMITTANCE
2.013	0.678
2.04646	0.68
2.07992	0.68
2.11338	0.681
2.14685	0.681
2.18031	0.681
2.21377	0.681
2.24723	0.681
2.28069	0.682
2.31415	0.684
2.34761	0.685
2.38107	0.685
2.41454	0.688
2.448	0.688
2.48146	0.688
2.51492	0.688
2.54838	0.689
2.58184	0.689
2.6153	0.688
2.64876	0.689
2.68223	0.685
2.71569	0.677
2.74915	0.67
2.78261	0.658
2.81607	0.649
2.84953	0.639
2.88299	0.633
2.91646	0.637
2.94992	0.65
2.98338	0.657
3.01684	0.593
3.0503	0.423
3.08376	0.704
3.11722	0.73
3.15068	0.741
3.18415	0.741
3.21761	0.69
3.25107	0.708
3.28453	0.702
3.31799	0.697
3.35145	0.67
3.38491	0.5
3.41837	0.368
3.45184	0.57
3.4853	0.491
3.51876	0.651
3.55222	0.673
3.58568	0.68
3.61914	0.682
3.6526	0.682
3.68607	0.685
3.71953	0.686
3.75299	0.685
3.78645	0.682
3.81991	0.69
3.85337	0.69
3.88683	0.69
3.92029	0.692
3.95376	0.692
3.98722	0.693
4.02068	0.69
4.05414	0.688
4.0876	0.686
4.12106	0.69
4.15452	0.692
4.18798	0.689
4.22145	0.698
4.25491	0.7
4.28837	0.7
4.32183	0.7
4.35529	0.698
4.38875	0.692
4.42221	0.692
4.45567	0.696
4.48914	0.696
4.5226	0.697
4.55606	0.696
4.58952	0.698
4.62298	0.7
4.65644	0.7
4.6899	0.7
4.72337	0.7
4.75683	0.7
4.79029	0.698
4.82375	0.694
4.85721	0.693
4.89067	0.698
4.92413	0.701
4.95759	0.7
4.99106	0.693
5.02452	0.701
5.05798	0.698
5.09144	0.696
5.1249	0.693
5.15836	0.7
5.19182	0.694
5.22528	0.701
5.25875	0.697
5.29221	0.701
5.32567	0.693
5.35913	0.697
5.39259	0.693
5.42605	0.701
5.45951	0.698
5.49298	0.698
5.52644	0.692
5.5599	0.692
5.59336	0.694
5.62682	0.694
5.66028	0.693
5.69374	0.692
5.7272	0.692
5.76067	0.694
5.79413	0.692
5.82759	0.685
5.86105	0.682
5.89451	0.681
5.92797	0.672
5.96143	0.654
5.99489	0.645
6.02836	0.611
6.06182	0.571
6.09528	0.508
6.12874	0.234
6.1622	0.1
6.19566	0.157
6.22912	0.319
6.26259	0.236
6.29605	0.356
6.32951	0.465
6.36297	0.602
6.39643	0.634
6.42989	0.635
6.46335	0.563
6.49681	0.522
6.53028	0.423
6.56374	0.253
6.5972	0.329
6.63066	0.406
6.66412	0.493
6.69758	0.591
6.73104	0.631
6.7645	0.606
6.79797	0.583
6.83143	0.583
6.86489	0.599
6.89835	0.598
6.93181	0.572
6.96527	0.484
6.99873	0.406
7.0322	0.428
7.06566	0.614
7.09912	0.68
7.13258	0.716
7.16604	0.712
7.1995	0.685
7.23296	0.631
7.26642	0.601
7.29989	0.593
7.33335	0.58
7.36681	0.552
7.40027	0.464
7.43373	0.238
7.46719	0.084
7.50065	0.06
7.53411	0.046
7.56758	0.137
7.60104	0.12
7.6345	0.216
7.66796	0.283
7.70142	0.358
7.73488	0.416
7.76834	0.412
7.8018	0.393
7.83527	0.405
7.86873	0.431
7.90219	0.496
7.93565	0.542
7.96911	0.56
8.00257	0.593
8.03603	0.625
8.0695	0.627
8.10296	0.615
8.13642	0.59
8.16988	0.503
8.20334	0.504
8.2368	0.591
8.27026	0.634
8.30372	0.641
8.33719	0.641
8.37065	0.641
8.40411	0.642
8.43757	0.643
8.47103	0.647
8.50449	0.653
8.53795	0.658
8.57141	0.662
8.60488	0.663
8.63834	0.663
8.6718	0.658
8.70526	0.639
8.73872	0.593
8.77218	0.463
8.80564	0.238
8.83911	0.302
8.87257	0.401
8.90603	0.443
8.93949	0.487
8.97295	0.543
9.00641	0.575
9.03987	0.601
9.07333	0.611
9.1068	0.614
9.14026	0.611
9.17372	0.601
9.20718	0.563
9.24064	0.514
9.2741	0.433
9.30756	0.35
9.34102	0.412
9.37449	0.562
9.40795	0.607
9.44141	0.602
9.47487	0.579
9.50833	0.586
9.54179	0.613
9.57525	0.641
9.60872	0.65
9.64218	0.659
9.67564	0.662
9.7091	0.663
9.74256	0.666
9.77602	0.672
9.80948	0.673
9.84294	0.674
9.87641	0.676
9.90987	0.674
9.94333	0.674
9.97679	0.674
10.0103	0.673
10.0437	0.672
10.0772	0.674
10.1106	0.678
10.1441	0.677
10.1776	0.674
10.211	0.672
10.2445	0.663
10.2779	0.642
10.3114	0.653
10.3449	0.668
10.3783	0.666
10.4118	0.663
10.4452	0.653
10.4787	0.642
10.5122	0.611
10.5456	0.598
10.5791	0.602
10.6126	0.615
10.646	0.622
10.6795	0.637
10.7129	0.637
10.7464	0.615
10.7799	0.575
10.8133	0.562
10.8468	0.595
10.8802	0.637
10.9137	0.653
10.9472	0.658
10.9806	0.663
11.0141	0.665
11.0476	0.665
11.081	0.662
11.1145	0.654
11.1479	0.647
11.1814	0.633
11.2149	0.613
11.2483	0.618
11.2818	0.645
11.3152	0.659
11.3487	0.663
11.3822	0.665
11.4156	0.668
11.4491	0.669
11.4825	0.666
11.516	0.668
11.5495	0.668
11.5829	0.668
11.6164	0.665
11.6499	0.663
11.6833	0.663
11.7168	0.663
11.7502	0.659
11.7837	0.657
11.8172	0.651
11.8506	0.643
11.8841	0.631
11.9175	0.625
11.951	0.622
11.9845	0.59
12.0179	0.522
12.0514	0.504
12.0849	0.432
12.1183	0.4
12.1518	0.55
12.1852	0.625
12.2187	0.643
12.2522	0.645
12.2856	0.643
12.3191	0.645
12.3525	0.647
12.386	0.649
12.4195	0.647
12.4529	0.649
12.4864	0.649
12.5198	0.643
12.5533	0.643
12.5868	0.642
12.6202	0.642
12.6537	0.641
12.6872	0.641
12.7206	0.637
12.7541	0.634
12.7875	0.634
12.821	0.634
12.8545	0.634
12.8879	0.634
12.9214	0.631
12.9548	0.629
12.9883	0.627
13.0218	0.623
13.0552	0.615
13.0887	0.602
13.1222	0.567
13.1556	0.571
13.1891	0.597
13.2225	0.594
13.256	0.582
13.2895	0.578
13.3229	0.574
13.3564	0.562
13.3898	0.51
13.4233	0.428
13.4568	0.384
13.4902	0.402
13.5237	0.468
13.5571	0.532
13.5906	0.558
13.6241	0.56
13.6575	0.554
13.691	0.54
13.7245	0.512
13.7579	0.473
13.7914	0.456
13.8248	0.471
13.8583	0.485
13.8918	0.502
13.9252	0.506
13.9587	0.507
13.9921	0.512
14.0256	0.522
14.0591	0.534
14.0925	0.546
14.126	0.547
14.1595	0.546
14.1929	0.546
14.2264	0.546
14.2598	0.542
14.2933	0.539
14.3268	0.536
14.3602	0.534
14.3937	0.53
14.4271	0.523
14.4606	0.515
14.4941	0.503
14.5275	0.489
14.561	0.48
14.5944	0.48
14.6279	0.485
14.6614	0.492
14.6948	0.496
14.7283	0.5
14.7618	0.5
14.7952	0.499
14.8287	0.492
14.8621	0.488
14.8956	0.48
14.9291	0.479
14.9625	0.489
