Infrared Spectrum: Methyl (phenylthio)acetate
Formula: C 9 H 10 O 2 S
CAS: 17277-58-6
State: gas
Origin: EPA-IR VAPOR PHASE LIBRARY
1/CM	ABSORBANCE
549.9	0.0017969
559.547	0.002152
569.193	0.0026002
578.84	0.00339
588.486	0.00316
598.133	0.00278
607.779	0.0021966
617.426	0.0020334
627.072	0.0019399
636.719	0.0021156
646.365	0.00276
656.012	0.00453
665.658	0.00803
675.305	0.01459
684.951	0.02462
694.598	0.02779
704.245	0.02417
713.891	0.01834
723.538	0.02028
733.184	0.03033
742.831	0.03731
752.477	0.02296
762.124	0.01014
771.77	0.00577
781.417	0.00449
791.063	0.00403
800.71	0.00392
810.356	0.00406
820.003	0.00457
829.649	0.00505
839.296	0.00504
848.943	0.00504
858.589	0.00521
868.236	0.00557
877.882	0.00618
887.529	0.0079
897.175	0.0095
906.822	0.00861
916.468	0.00617
926.115	0.00373
935.761	0.0025186
945.408	0.0021505
955.054	0.0020535
964.701	0.0023544
974.347	0.00314
983.994	0.00524
993.64	0.01097
1003.29	0.02264
1012.93	0.0351
1022.58	0.03626
1032.23	0.01837
1041.87	0.00741
1051.52	0.0068
1061.17	0.0081
1070.81	0.00994
1080.46	0.01446
1090.11	0.01914
1099.75	0.02305
1109.4	0.03585
1119.05	0.05843
1128.69	0.0838
1138.34	0.0904
1147.99	0.07719
1157.63	0.0621
1167.28	0.04721
1176.92	0.03709
1186.57	0.03238
1196.22	0.03089
1205.86	0.03237
1215.51	0.0368
1225.16	0.04013
1234.8	0.044
1244.45	0.05984
1254.1	0.08587
1263.74	0.11438
1273.39	0.12521
1283.04	0.10218
1292.68	0.06557
1302.33	0.03834
1311.98	0.02292
1321.62	0.01495
1331.27	0.01075
1340.92	0.00819
1350.56	0.00664
1360.21	0.00571
1369.86	0.00546
1379.5	0.00592
1389.15	0.00732
1398.79	0.01022
1408.44	0.01379
1418.09	0.0163
1427.73	0.02223
1437.38	0.03469
1447.03	0.02722
1456.67	0.01597
1466.32	0.01577
1475.97	0.02452
1485.61	0.02309
1495.26	0.00933
1504.91	0.00529
1514.55	0.0042
1524.2	0.00398
1533.85	0.00403
1543.49	0.00433
1553.14	0.00514
1562.79	0.00676
1572.43	0.01068
1582.08	0.01579
1591.73	0.01186
1601.37	0.00608
1611.02	0.00418
1620.67	0.00347
1630.31	0.00319
1639.96	0.00318
1649.6	0.00317
1659.25	0.00324
1668.9	0.00345
1678.54	0.00395
1688.19	0.00495
1697.84	0.00677
1707.48	0.01007
1717.13	0.01587
1726.78	0.0268
1736.42	0.04954
1746.07	0.08782
1755.72	0.13084
1765.36	0.12673
1775.01	0.0803
1784.66	0.04655
1794.3	0.02307
1803.95	0.01168
1813.6	0.00678
1823.24	0.00457
1832.89	0.00357
1842.54	0.00325
1852.18	0.00329
1861.83	0.00344
1871.47	0.00351
1881.12	0.00325
1890.77	0.00276
1900.41	0.0023741
1910.06	0.0023516
1919.71	0.002669
1929.35	0.00317
1939	0.00372
1948.65	0.00409
1958.29	0.00375
1967.94	0.00301
1977.59	0.0025974
1987.23	0.0025788
1996.88	0.0026514
2006.53	0.0028
2016.17	0.00295
2025.82	0.00287
2035.47	0.0026019
2045.11	0.0022381
2054.76	0.0020648
2064.41	0.0020184
2074.05	0.0019918
2083.7	0.0019846
2093.35	0.0020085
2102.99	0.0020304
2112.64	0.0018806
2122.28	0.00178374
2131.93	0.00172476
2141.58	0.00173907
2151.22	0.0017542
2160.87	0.0017077
2170.52	0.0016613
2180.16	0.0015936
2189.81	0.00141
2199.46	0.001301
2209.1	0.001144
2218.75	0.001197
2228.4	0.001244
2238.04	0.001295
2247.69	0.001332
2257.34	0.001367
2266.98	0.001431
2276.63	0.001406
2286.28	0.001455
2295.92	0.001521
2305.57	0.0016046
2315.22	0.00175236
2324.86	0.0016982
2334.51	0.0016006
2344.16	0.001539
2353.8	0.001471
2363.45	0.001498
2373.09	0.00148
2382.74	0.001383
2392.39	0.001392
2402.03	0.001424
2411.68	0.001442
2421.33	0.001413
2430.97	0.001417
2440.62	0.001392
2450.27	0.001376
2459.91	0.001421
2469.56	0.001393
2479.21	0.001402
2488.85	0.001402
2498.5	0.001418
2508.15	0.001392
2517.79	0.001363
2527.44	0.001391
2537.09	0.001334
2546.73	0.001338
2556.38	0.00135
2566.03	0.001354
2575.67	0.001428
2585.32	0.001401
2594.96	0.001456
2604.61	0.001474
2614.26	0.001407
2623.9	0.001431
2633.55	0.001405
2643.2	0.001467
2652.84	0.001537
2662.49	0.001531
2672.14	0.001403
2681.78	0.001284
2691.43	0.001208
2701.08	0.001178
2710.72	0.001128
2720.37	0.001077
2730.02	0.001087
2739.66	0.000996
2749.31	0.001067
2758.96	0.0011
2768.6	0.001118
2778.25	0.001254
2787.9	0.001258
2797.54	0.001376
2807.19	0.001561
2816.84	0.0019727
2826.48	0.0025255
2836.13	0.0036
2845.77	0.00565
2855.42	0.00562
2865.07	0.00372
2874.71	0.0033
2884.36	0.00361
2894.01	0.00469
2903.65	0.00623
2913.3	0.00708
2922.95	0.00798
2932.59	0.01027
2942.24	0.01521
2951.89	0.02522
2961.53	0.03376
2971.18	0.02104
2980.83	0.01125
2990.47	0.0106
3000.12	0.01253
3009.77	0.01343
3019.41	0.01405
3029.06	0.01364
3038.71	0.01159
3048.35	0.01177
3058	0.01861
3067.64	0.0305
3077.29	0.0277
3086.94	0.01949
3096.58	0.01134
3106.23	0.00541
3115.88	0.00318
3125.52	0.0022951
3135.17	0.0018802
3144.82	0.0019416
3154.46	0.00168725
3164.11	0.001198
3173.76	0.001069
3183.4	0.000794
3193.05	0.000849
3202.7	0.00048
3212.34	0.00043
3221.99	0.00025
3231.64	0.00038
3241.28	0.00024
3250.93	0.00035
3260.58	0.0001
3270.22	0.00024
3279.87	0.00028
3289.52	1e-05
3299.16	0.00012
3308.81	0.00025
3318.45	0.00027
3328.1	0.00025
3337.75	0.00025
3347.39	0.00017
3357.04	0.00012
3366.69	0.00018
3376.33	0.00029
3385.98	0.00022
3395.63	0.00014
3405.27	0.00029
3414.92	0.00021
3424.57	0.00023
3434.21	0.00049
3443.86	0.00043
3453.51	0.00064
3463.15	0.00062
3472.8	0.000895
3482.45	0.001351
3492.09	0.001497
3501.74	0.001663
3511.39	0.001498
3521.03	0.001063
3530.68	0.001119
3540.33	0.000726
3549.97	0.000717
3559.62	0.0006
3569.26	0.00064
3578.91	0.0006
3588.56	0.00059
3598.2	0.00066
3607.85	0.00054
3617.5	0.00062
3627.14	0.00069
3636.79	0.00058
3646.44	0.000729
3656.08	0.000796
3665.73	0.000718
3675.38	0.00064
3685.02	0.000886
3694.67	0.000936
3704.32	0.000879
3713.96	0.000922
3723.61	0.000798
3733.26	0.000818
3742.9	0.000814
3752.55	0.000917
3762.2	0.001011
3771.84	0.001034
3781.49	0.001015
3791.13	0.00102
3800.78	0.000968
3810.43	0.000871
3820.07	0.000869
3829.72	0.000898
3839.37	0.000927
3849.01	0.001006
3858.66	0.000981
3868.31	0.000955
3877.95	0.000956
3887.6	0.000995
3897.25	0.001082
3906.89	0.00106
3916.54	0.001105
3926.19	0.000968
3935.83	0.001022
3945.48	0.001135
3955.13	0.001158
3964.77	0.00134
3974.42	0.001261
3984.07	0.001312
3993.71	0.001299
