Infrared Spectrum: 2-Amino-3-bromo-5-methylpyridine
Formula: C 6 H 7 Br N 2
CAS: 17282-00-7
State: gas
Origin: EPA-IR VAPOR PHASE LIBRARY
1/CM	ABSORBANCE
549.8	0.01054
559.445	0.00958
569.09	0.00787
578.734	0.00697
588.379	0.00719
598.024	0.00787
607.669	0.0098
617.313	0.00967
626.958	0.01042
636.603	0.01148
646.248	0.01341
655.893	0.01513
665.537	0.01845
675.182	0.02306
684.827	0.02313
694.472	0.02094
704.116	0.01742
713.761	0.01616
723.406	0.01618
733.051	0.02093
742.695	0.02984
752.34	0.02835
761.985	0.02442
771.63	0.02091
781.275	0.01788
790.919	0.01509
800.564	0.01325
810.209	0.01178
819.854	0.01117
829.498	0.01054
839.143	0.00987
848.788	0.01093
858.433	0.01118
868.078	0.01322
877.722	0.01993
887.367	0.02946
897.012	0.03006
906.657	0.02253
916.301	0.00942
925.946	0.00745
935.591	0.0064
945.236	0.00636
954.88	0.00622
964.525	0.00773
974.17	0.01063
983.815	0.01216
993.46	0.00964
1003.1	0.00648
1012.75	0.00481
1022.39	0.00729
1032.04	0.01585
1041.68	0.04148
1051.33	0.05388
1060.97	0.03208
1070.62	0.01548
1080.26	0.00607
1089.91	0.00489
1099.55	0.0055
1109.2	0.0052
1118.84	0.00485
1128.49	0.00509
1138.13	0.00459
1147.78	0.00476
1157.42	0.0041
1167.07	0.00406
1176.71	0.00496
1186.36	0.01207
1196	0.03029
1205.64	0.03076
1215.29	0.0136
1224.93	0.01306
1234.58	0.01485
1244.22	0.01459
1253.87	0.00862
1263.51	0.00688
1273.16	0.00704
1282.8	0.0078
1292.45	0.00759
1302.09	0.00737
1311.74	0.0099
1321.38	0.00956
1331.03	0.00602
1340.67	0.00451
1350.32	0.00451
1359.96	0.00516
1369.61	0.00691
1379.25	0.01347
1388.9	0.02572
1398.54	0.0331
1408.18	0.02556
1417.83	0.01444
1427.47	0.01234
1437.12	0.01618
1446.76	0.02898
1456.41	0.08536
1466.05	0.19697
1475.7	0.17801
1485.34	0.04955
1494.99	0.01774
1504.63	0.01287
1514.28	0.01225
1523.92	0.01262
1533.57	0.01504
1543.21	0.01736
1552.86	0.01644
1562.5	0.01655
1572.15	0.02385
1581.79	0.03895
1591.44	0.05233
1601.08	0.09572
1610.73	0.17544
1620.37	0.16163
1630.01	0.06346
1639.66	0.02324
1649.3	0.01314
1658.95	0.00935
1668.59	0.00676
1678.24	0.00453
1687.88	0.00374
1697.53	0.00361
1707.17	0.00318
1716.82	0.0038
1726.46	0.00414
1736.11	0.00367
1745.75	0.00326
1755.4	0.00285
1765.04	0.00264
1774.69	0.0026
1784.33	0.00247
1793.98	0.00324
1803.62	0.004
1813.27	0.00361
1822.91	0.0024
1832.55	0.0018867
1842.2	0.00233
1851.84	0.00261
1861.49	0.00217
1871.13	0.0018068
1880.78	0.0015542
1890.42	0.0015509
1900.07	0.0014908
1909.71	0.0013904
1919.36	0.0018219
1929	0.0019848
1938.65	0.0018672
1948.29	0.0019221
1957.94	0.002001
1967.58	0.0015814
1977.23	0.0016138
1986.87	0.0013874
1996.52	0.0015086
2006.16	0.0016724
2015.81	0.0013656
2025.45	0.0013899
2035.1	0.0015059
2044.74	0.0016895
2054.38	0.0019019
2064.03	0.0018547
2073.67	0.0019285
2083.32	0.00186
2092.96	0.0019131
2102.61	0.0017126
2112.25	0.0015109
2121.9	0.0016343
2131.54	0.0017255
2141.19	0.0017075
2150.83	0.0014089
2160.48	0.0013019
2170.12	0.0013375
2179.77	0.0013069
2189.41	0.001384
2199.06	0.0012798
2208.7	0.0013091
2218.35	0.0012426
2227.99	0.001366
2237.64	0.0012931
2247.28	0.0016723
2256.92	0.0015045
2266.57	0.0015156
2276.21	0.0018338
2285.86	0.0019136
2295.5	0.0017591
2305.15	0.0012989
2314.79	0.0013235
2324.44	0.0012379
2334.08	0.0013303
2343.73	0.0017128
2353.37	0.0015958
2363.02	0.0021
2372.66	0.0018614
2382.31	0.0017083
2391.95	0.001447
2401.6	0.0014399
2411.24	0.00100084
2420.89	0.00105679
2430.53	0.0012192
2440.18	0.0013061
2449.82	0.0012355
2459.47	0.0015277
2469.11	0.0015294
2478.75	0.0014872
2488.4	0.0017744
2498.04	0.0014242
2507.69	0.00204
2517.33	0.0016822
2526.98	0.0011136
2536.62	0.00111
2546.27	0.00102501
2555.91	0.0011276
2565.56	0.0009539
2575.2	0.0013027
2584.85	0.0012838
2594.49	0.0018521
2604.14	0.0015948
2613.78	0.0011248
2623.43	0.000993
2633.07	0.0009226
2642.72	0.00106068
2652.36	0.0009226
2662.01	0.000678
2671.65	0.000522
2681.29	0.00106666
2690.94	0.0011481
2700.58	0.000794
2710.23	0.000646
2719.87	0.000861
2729.52	0.000888
2739.16	0.0011897
2748.81	0.001445
2758.45	0.001755
2768.1	0.0016091
2777.74	0.0015761
2787.39	0.001511
2797.03	0.0014191
2806.68	0.0014607
2816.32	0.0016521
2825.97	0.00201
2835.61	0.00282
2845.26	0.00385
2854.9	0.00577
2864.55	0.00817
2874.19	0.01111
2883.84	0.01212
2893.48	0.01103
2903.12	0.01051
2912.77	0.01221
2922.41	0.01656
2932.06	0.02359
2941.7	0.02102
2951.35	0.01187
2960.99	0.00897
2970.64	0.00837
2980.28	0.00913
2989.93	0.00962
2999.57	0.01218
3009.22	0.01858
3018.86	0.02479
3028.51	0.01961
3038.15	0.01139
3047.8	0.0111
3057.44	0.01024
3067.09	0.00728
3076.73	0.00469
3086.38	0.00275
3096.02	0.0019302
3105.67	0.0019367
3115.31	0.00208
3124.95	0.0017259
3134.6	0.0014796
3144.24	0.0012809
3153.89	0.0011558
3163.53	0.0012109
3173.18	0.0011204
3182.82	0.001882
3192.47	0.00107194
3202.11	0.0016155
3211.76	0.0012201
3221.4	0.000578
3231.05	0.0009537
3240.69	0.00108121
3250.34	0.000343
3259.98	0.000716
3269.63	0.00042
3279.27	0.0009118
3288.92	0.000632
3298.56	0.000175
3308.21	0.000368
3317.85	0.000758
3327.49	0.000729
3337.14	0.000834
3346.78	0.000554
3356.43	0.000795
3366.07	0.0011715
3375.72	0.0017805
3385.36	0.00346
3395.01	0.0062
3404.65	0.01397
3414.3	0.02521
3423.94	0.02709
3433.59	0.01637
3443.23	0.0083
3452.88	0.00435
3462.52	0.00345
3472.17	0.00353
3481.81	0.00442
3491.46	0.00644
3501.1	0.01066
3510.75	0.01769
3520.39	0.02425
3530.04	0.02251
3539.68	0.01453
3549.32	0.00751
3558.97	0.00474
3568.61	0.0028
3578.26	0.00242
3587.9	0.0014831
3597.55	0.0011169
3607.19	0.0012227
3616.84	0.0009195
3626.48	0.000754
3636.13	0.000686
3645.77	0.00077
3655.42	0.0011559
3665.06	0.000898
3674.71	0.000834
3684.35	0.000906
3694	0.000545
3703.64	0.000527
3713.29	0.000484
3722.93	0.00036
3732.58	0.000836
3742.22	0.000731
3751.86	0.0011842
3761.51	0.000628
3771.15	0.000536
3780.8	0.0011214
3790.44	0.000533
3800.09	0.000455
3809.73	0.000612
3819.38	0.000673
3829.02	0.00105074
3838.67	0.00108851
3848.31	0.0014102
3857.96	0.0019304
3867.6	0.0013521
3877.25	0.000848
3886.89	0.001337
3896.54	0.0019454
3906.18	0.00205
3915.83	0.00138
3925.47	0.0013322
3935.12	0.0015335
3944.76	0.0014767
3954.41	0.0012245
3964.05	0.0012305
3973.69	0.000683
3983.34	0.0009281
3992.98	0.0013588
