Infrared Spectrum: 2-t-Butylcyclohexanone
Formula: C 10 H 18 O
CAS: 1728-46-7
State: gas
Origin: EPA-IR VAPOR PHASE LIBRARY
1/CM	ABSORBANCE
549.8	0.000367
559.445	0.000393
569.09	0.000426
578.735	0.001671
588.38	0.002691
598.025	0.002061
607.67	0.0008903
617.315	0.0004346
626.96	0.000183
636.605	0.000276
646.251	0
655.896	0.000352
665.541	0.0007159
675.186	0.0007378
684.831	0.000334
694.476	0.000165
704.121	0.000288
713.766	0.000644
723.411	0.0011641
733.056	0.0011188
742.701	0.000535154
752.346	0.000163
761.991	0.000395
771.636	0.0006003
781.281	0.00059122
790.926	0.00042
800.571	0.000377
810.216	0.00059532
819.861	0.001278
829.507	0.003661
839.152	0.003901
848.797	0.002111
858.442	0.002851
868.087	0.003881
877.732	0.002801
887.377	0.0014163
897.022	0.0009892
906.667	0.0007766
916.312	0.0011635
925.957	0.0014696
935.602	0.001821
945.247	0.001651
954.892	0.0009661
964.537	0.0007155
974.182	0.0007687
983.827	0.0013541
993.472	0.002251
1003.12	0.003231
1012.76	0.003151
1022.41	0.003211
1032.05	0.003331
1041.7	0.002771
1051.34	0.004341
1060.99	0.007421
1070.63	0.006571
1080.28	0.003111
1089.92	0.002761
1099.57	0.003641
1109.21	0.007151
1118.86	0.014151
1128.5	0.014411
1138.15	0.007121
1147.79	0.003761
1157.44	0.002451
1167.08	0.002771
1176.73	0.003041
1186.37	0.002511
1196.02	0.002761
1205.66	0.004381
1215.31	0.006661
1224.95	0.007621
1234.6	0.008801
1244.24	0.008541
1253.89	0.005391
1263.53	0.002941
1273.18	0.002561
1282.82	0.003391
1292.47	0.004701
1302.11	0.006981
1311.76	0.008681
1321.4	0.006441
1331.05	0.004371
1340.69	0.005891
1350.34	0.008511
1359.98	0.012821
1369.63	0.017331
1379.27	0.010861
1388.92	0.007001
1398.56	0.007921
1408.21	0.005571
1417.85	0.003491
1427.5	0.005021
1437.14	0.007271
1446.79	0.010121
1456.43	0.012291
1466.08	0.011451
1475.73	0.010541
1485.37	0.008691
1495.02	0.005001
1504.66	0.002041
1514.31	0.0013125
1523.95	0.0010531
1533.6	0.0008941
1543.24	0.0007113
1552.89	0.00062643
1562.53	0.00061886
1572.18	0.00052316
1581.82	0.0006491
1591.47	0.0006673
1601.11	0.000696
1610.76	0.0007086
1620.4	0.0008557
1630.05	0.0009842
1639.69	0.0011078
1649.34	0.0013605
1658.98	0.001771
1668.63	0.002321
1678.27	0.003541
1687.92	0.005801
1697.56	0.012361
1707.21	0.030481
1716.85	0.058191
1726.5	0.062331
1736.14	0.034831
1745.79	0.013701
1755.43	0.005791
1765.08	0.003541
1774.72	0.002691
1784.37	0.002081
1794.01	0.001741
1803.66	0.0013077
1813.3	0.0010294
1822.95	0.0007489
1832.59	0.0007351
1842.24	0.0006554
1851.88	0.0007054
1861.53	0.0006535
1871.17	0.00052579
1880.82	0.00052445
1890.46	0.000494
1900.11	0.00054238
1909.75	0.000539157
1919.4	0.0004564
1929.04	0.000431
1938.69	0.0004573
1948.33	0.0004714
1957.98	0.0004583
1967.62	0.0004505
1977.27	0.000404
1986.91	0.000396
1996.56	0.000328
2006.2	0.000354
2015.85	0.000378
2025.49	0.00038
2035.14	0.000379
2044.78	0.000392
2054.43	0.000335
2064.07	0.000354
2073.72	0.000336
2083.36	0.000414
2093.01	0.000361
2102.65	0.000312
2112.3	0.000323
2121.94	0.000365
2131.59	0.000422
2141.23	0.000406
2150.88	0.000385
2160.52	0.000366
2170.17	0.000343
2179.81	0.0004373
2189.46	0.000425
2199.1	0.000398
2208.75	0.000416
2218.39	0.000325
2228.04	0.000339
2237.68	0.000348
2247.33	0.000378
2256.97	0.000356
2266.62	0.000369
2276.26	0.000391
2285.91	0.0004584
2295.55	0.0004894
2305.2	0.000403
2314.84	0.000384
2324.49	0.000368
2334.13	0.000429
2343.78	0.000382
2353.42	0.0004678
2363.07	0.0004317
2372.72	0.0004609
2382.36	0.0004603
2392.01	0.00055836
2401.65	0.00057028
2411.3	0.00053879
2420.94	0.0004694
2430.59	0.0004357
2440.23	0.0004717
2449.88	0.000384
2459.52	0.000326
2469.17	0.000333
2478.81	0.000373
2488.46	0.000382
2498.1	0.0004858
2507.75	0.000489
2517.39	0.0004716
2527.04	0.00052179
2536.68	0.0004955
2546.33	0.0004674
2555.97	0.0004997
2565.62	0.00059799
2575.26	0.00062904
2584.91	0.00058492
2594.55	0.00055961
2604.2	0.0006607
2613.84	0.0006628
2623.49	0.0007109
2633.13	0.0007561
2642.78	0.0009029
2652.42	0.0011531
2662.07	0.00122
2671.71	0.0012671
2681.36	0.0011393
2691	0.0010137
2700.65	0.0010253
2710.29	0.0010531
2719.94	0.0012269
2729.58	0.0014513
2739.23	0.0012937
2748.87	0.0014324
2758.52	0.001541
2768.16	0.001641
2777.81	0.001741
2787.45	0.002231
2797.1	0.002461
2806.74	0.002741
2816.39	0.003111
2826.03	0.003931
2835.68	0.005891
2845.32	0.010611
2854.97	0.019461
2864.61	0.031471
2874.26	0.040531
2883.9	0.036041
2893.55	0.027971
2903.19	0.028021
2912.84	0.033931
2922.48	0.044091
2932.13	0.065941
2941.77	0.096681
2951.42	0.103601
2961.06	0.095161
2970.71	0.071721
2980.35	0.036921
2990	0.018111
2999.64	0.013051
3009.29	0.008921
3018.93	0.004551
3028.58	0.002941
3038.22	0.002421
3047.87	0.002001
3057.51	0.001921
3067.16	0.001691
3076.8	0.001701
3086.45	0.0014452
3096.09	0.0013501
3105.74	0.0012551
3115.38	0.0011436
3125.03	0.0010414
3134.67	0.0011348
3144.32	0.0011245
3153.96	0.001188
3163.61	0.0010802
3173.25	0.0011189
3182.9	0.0011101
3192.54	0.0009701
3202.19	0.0008783
3211.83	0.0008727
3221.48	0.0008378
3231.12	0.0007579
3240.77	0.000907
3250.41	0.0007696
3260.06	0.0005018
3269.7	0.00055198
3279.35	0.00052424
3289	0.0004431
3298.64	0.0004494
3308.29	0.000384
3317.93	0.000353
3327.58	0.000423
3337.22	0.000415
3346.87	0.000378
3356.51	0.00056917
3366.16	0.000701
3375.8	0.00055131
3385.45	0.000540782
3395.09	0.0006661
3404.74	0.0010503
3414.38	0.001159
3424.03	0.0014059
3433.67	0.0011174
3443.32	0.0008322
3452.96	0.0007097
3462.61	0.0004532
3472.25	0.000536251
3481.9	0.000365
3491.54	0.00039
3501.19	0.000282
3510.83	0.000306
3520.48	0.00021
3530.12	0.000301
3539.77	0.000229
3549.41	8.6e-05
3559.06	0.000131
3568.7	0.000342
3578.35	0.000176
3587.99	0.000304
3597.64	0.000223
3607.28	0.000233
3616.93	0.000199
3626.57	0.000112
3636.22	0.000308
3645.86	0.000225
3655.51	0.000345
3665.15	0.000365
3674.8	0.00028
3684.44	0.000248
3694.09	0.000414
3703.73	0.000227
3713.38	0.000264
3723.02	0.000288
3732.67	0.000301
3742.31	0.000326
3751.96	0.000398
3761.6	0.000138
3771.25	0.000309
3780.89	0.000187
3790.54	0.000358
3800.18	0.000388
3809.83	0.000426
3819.47	0.000375
3829.12	0.000367
3838.76	0.000253
3848.41	0.000422
3858.05	0.0004769
3867.7	0.000461
3877.34	0.0004314
3886.99	0.000313
3896.63	0.000530343
3906.28	0.000358
3915.92	0.000339
3925.57	0.0004807
3935.21	0.000376
3944.86	0.0004371
3954.5	0.0004564
3964.15	0.0005093
3973.79	0.0004501
3983.44	0.0005024
3993.08	0.00056327
