Infrared Spectrum: 2,7-(exo)-Diacetoxynorbornane
Formula: C 11 H 16 O 4
CAS: 17290-00-5
State: gas
Origin: EPA-IR VAPOR PHASE LIBRARY
1/CM	ABSORBANCE
549.8	0.0005298
559.445	6.4e-05
569.09	0
578.734	0.00037512
588.379	0.0007875
598.024	0.002357
607.669	0.003187
617.313	0.003237
626.958	0.004917
636.603	0.004377
646.248	0.002657
655.893	0.001297
665.537	0.0010005
675.182	0.0006308
684.827	0.0006404
694.472	0.00029871
704.116	0.0004019
713.761	0.0006913
723.406	0.00037106
733.051	0.0005748
742.695	0.0005321
752.34	0.0005862
761.985	0.0010534
771.63	0.0008041
781.275	0.0009731
790.919	0.0009867
800.564	0.0008253
810.209	0.0011416
819.854	0.001707
829.498	0.001887
839.143	0.002267
848.788	0.003027
858.433	0.003237
868.078	0.002777
877.722	0.003197
887.367	0.003387
897.012	0.003157
906.657	0.002857
916.301	0.002557
925.946	0.003517
935.591	0.006857
945.236	0.008757
954.88	0.006707
964.525	0.008037
974.17	0.012017
983.815	0.021637
993.46	0.026847
1003.1	0.033647
1012.75	0.037137
1022.39	0.027687
1032.04	0.025427
1041.68	0.028087
1051.33	0.021497
1060.97	0.028037
1070.62	0.052517
1080.26	0.035967
1089.91	0.017887
1099.55	0.012817
1109.2	0.008897
1118.84	0.008427
1128.49	0.007617
1138.13	0.006917
1147.78	0.007707
1157.42	0.007447
1167.07	0.011777
1176.71	0.013217
1186.36	0.015077
1196	0.021597
1205.64	0.044207
1215.29	0.100337
1224.93	0.184537
1234.58	0.194747
1244.22	0.110807
1253.87	0.052417
1263.51	0.027317
1273.16	0.017577
1282.8	0.013397
1292.45	0.011817
1302.09	0.012337
1311.74	0.011767
1321.38	0.006047
1331.03	0.004717
1340.67	0.005437
1350.32	0.010357
1359.96	0.032087
1369.61	0.034247
1379.25	0.025607
1388.9	0.013607
1398.54	0.007117
1408.18	0.005097
1417.83	0.004407
1427.47	0.004807
1437.12	0.006727
1446.76	0.008407
1456.41	0.006347
1466.05	0.004447
1475.7	0.003857
1485.34	0.003127
1494.99	0.002577
1504.63	0.002387
1514.28	0.002287
1523.92	0.002267
1533.57	0.002417
1543.21	0.002297
1552.86	0.002157
1562.5	0.001987
1572.15	0.001877
1581.79	0.001667
1591.44	0.001427
1601.08	0.001477
1610.73	0.001467
1620.37	0.001497
1630.01	0.001647
1639.66	0.001747
1649.3	0.001787
1658.95	0.001977
1668.59	0.002447
1678.24	0.002667
1687.88	0.003487
1697.53	0.004887
1707.17	0.007377
1716.82	0.010977
1726.46	0.015287
1736.11	0.026037
1745.75	0.058687
1755.4	0.106117
1765.04	0.089887
1774.69	0.042837
1784.33	0.020467
1793.98	0.012007
1803.62	0.007937
1813.27	0.005707
1822.91	0.004187
1832.55	0.003307
1842.2	0.002617
1851.84	0.002207
1861.49	0.001847
1871.13	0.001607
1880.78	0.001407
1890.42	0.001327
1900.07	0.0011167
1909.71	0.0010609
1919.36	0.0010621
1929	0.0010111
1938.65	0.0009933
1948.29	0.0008323
1957.94	0.0007852
1967.58	0.0007416
1977.23	0.0006459
1986.87	0.0007073
1996.52	0.0008428
2006.16	0.0007864
2015.81	0.0007886
2025.45	0.0007311
2035.1	0.0007659
2044.74	0.0008424
2054.38	0.0008676
2064.03	0.0009299
2073.67	0.0009182
2083.32	0.0010286
2092.96	0.0011235
2102.61	0.0010729
2112.25	0.0010994
2121.9	0.0010357
2131.54	0.0009993
2141.19	0.0010488
2150.83	0.0007855
2160.48	0.0007519
2170.12	0.0007158
2179.77	0.000669
2189.41	0.0007199
2199.06	0.0007562
2208.7	0.0006232
2218.35	0.0006604
2227.99	0.0006617
2237.64	0.0006558
2247.28	0.0006514
2256.92	0.0006623
2266.57	0.000613
2276.21	0.0005749
2285.86	0.0004099
2295.5	0.000584
2305.15	0.0004647
2314.79	0.0004803
2324.44	0.0005143
2334.08	0.0004387
2343.73	0.0004662
2353.37	0.000514
2363.02	0.0004735
2372.66	0.0004395
2382.31	0.0004511
2391.95	0.0005185
2401.6	0.00036973
2411.24	0.0004085
2420.89	0.0004881
2430.53	0.0006319
2440.18	0.0005635
2449.82	0.0007467
2459.47	0.0007359
2469.11	0.0006822
2478.75	0.0005226
2488.4	0.0005339
2498.04	0.0003952
2507.69	0.00034278
2517.33	0.00035269
2526.98	0.000107
2536.62	0.0002414
2546.27	0.000280014
2555.91	0.0002291
2565.56	0.000168
2575.2	0.00035547
2584.85	0.00030685
2594.49	0.0004769
2604.14	0.00037282
2613.78	0.0003801
2623.43	0.00034057
2633.07	0.00033048
2642.72	0.00031689
2652.36	0.00033758
2662.01	0.0003818
2671.65	0.0005127
2681.29	0.0002547
2690.94	0.00035426
2700.58	0.00037428
2710.23	0.00027981
2719.87	0.00032389
2729.52	0.00032263
2739.16	0.0004206
2748.81	0.0004072
2758.45	0.0004927
2768.1	0.0004206
2777.74	0.0002126
2787.39	0.00033406
2797.03	0.0002548
2806.68	0.0002428
2816.32	0.0004941
2825.97	0.0005777
2835.61	0.0006445
2845.26	0.000853
2854.9	0.001337
2864.55	0.002487
2874.19	0.003627
2883.84	0.004687
2893.48	0.004657
2903.12	0.003847
2912.77	0.003227
2922.41	0.003417
2932.06	0.004947
2941.7	0.009967
2951.35	0.016367
2960.99	0.016517
2970.64	0.025717
2980.28	0.038917
2989.93	0.027587
2999.57	0.011007
3009.22	0.003897
3018.86	0.002877
3028.51	0.002367
3038.15	0.002277
3047.8	0.002037
3057.44	0.001677
3067.09	0.001597
3076.73	0.001367
3086.38	0.0010919
3096.02	0.0010002
3105.67	0.0009105
3115.31	0.0009076
3124.95	0.0007638
3134.6	0.0005411
3144.24	0.0005236
3153.89	0.0004065
3163.53	0.00036564
3173.18	0.0004127
3182.82	0.00027363
3192.47	0.0005334
3202.11	0.00030919
3211.76	0.00032736
3221.4	0.000203
3231.05	0.000177
3240.69	0.000173
3250.34	0.00016
3259.98	6e-05
3269.63	0.0001789
3279.27	0.000129
3288.92	0.0002541
3298.56	0.00031594
3308.21	7.3e-05
3317.85	0.00030878
3327.49	0.0002143
3337.14	6.9e-05
3346.78	0.0002507
3356.43	0.00017
3366.07	0.0002122
3375.72	0.000144
3385.36	0.0002103
3395.01	0.0002052
3404.65	0.00012
3414.3	0.0001937
3423.94	0.00028822
3433.59	0.0004801
3443.23	0.0004077
3452.88	0.0005216
3462.52	0.0005347
3472.17	0.0007315
3481.81	0.0009512
3491.46	0.001287
3501.1	0.001297
3510.75	0.0008904
3520.39	0.0005239
3530.04	0.00029184
3539.68	0.0004998
3549.32	0.0003965
3558.97	0.0004124
3568.61	0.0004418
3578.26	0.0001853
3587.9	0.0001818
3597.55	0.0002418
3607.19	0.0003835
3616.84	0.0003826
3626.48	0.00037546
3636.13	0.000435
3645.77	0.0002147
3655.42	0.00035198
3665.06	0.000116
3674.71	0.000151
3684.35	6.2e-05
3694	0.000163
3703.64	0.0002479
3713.29	0.000126
3722.93	0.00028675
3732.58	0.000164
3742.22	0.0004095
3751.86	0.00029454
3761.51	0.0003786
3771.15	0.00028905
3780.8	0.0004556
3790.44	0.000280728
3800.09	0.0002105
3809.73	0.0004415
3819.38	0.0003834
3829.02	0.00031105
3838.67	0.0004027
3848.31	0.0004222
3857.96	0.00029269
3867.6	0.0005005
3877.25	0.0004283
3886.89	0.0004147
3896.54	0.00034596
3906.18	0.0004633
3915.83	0.0004957
3925.47	0.0006037
3935.12	0.0003838
3944.76	0.000381
3954.41	0.0006185
3964.05	0.0003927
3973.69	0.0004168
3983.34	0.0005099
3992.98	0.00036079
