Infrared Spectrum: 2,6-Dimethylundecene
Formula: C 13 H 28
CAS: 17301-23-4
State: gas
Instrument: HP-GC/MS/IRD
Origin: NIST Mass Spectrometry Data Center
1/CM	ABSORBANCE
550	0.0005332
562	0.0001922
574	0.0002418
586	0.0002356
598	0.0001054
610	0
622	0.0001178
634	0.0001984
646	0.0001364
658	0.0001302
670	0.0001302
682	0.000155
694	0.0002542
706	0.0004588
718	0.0006882
730	0.0009052
742	0.0007192
754	0.0005146
766	0.0004898
778	0.0004464
790	0.0003348
802	0.0003782
814	0.0003782
826	0.0004712
838	0.0003906
850	0.000434
862	0.0003658
874	0.0003782
886	0.0004278
898	0.000465
910	0.0004898
922	0.00062
934	0.0006634
946	0.00062
958	0.0005394
970	0.0005394
982	0.000465
994	0.000434
1006	0.0004464
1018	0.0004588
1030	0.0004712
1042	0.0004898
1054	0.000403
1066	0.0003038
1078	0.0002728
1090	0.000248
1102	0.0002728
1114	0.000279
1126	0.0004092
1138	0.000744
1150	0.0010974
1162	0.0013206
1174	0.0011098
1186	0.0006634
1198	0.0006324
1210	0.0006882
1222	0.000558
1234	0.0005208
1246	0.0005394
1258	0.0005704
1270	0.0007564
1282	0.0008618
1294	0.0009734
1306	0.0011346
1318	0.0013578
1330	0.0017112
1342	0.0022754
1354	0.0025606
1366	0.003813
1378	0.005363
1390	0.0046252
1402	0.00186
1414	0.0013702
1426	0.0014942
1438	0.0026164
1450	0.0049042
1462	0.0078058
1474	0.006324
1486	0.0026846
1498	0.0014012
1510	0.001116
1522	0.0007874
1534	0.0005022
1546	0.000496
1558	0.0005208
1570	0.0002728
1582	0.0002232
1594	0.0002232
1606	0.0002108
1618	0.0002666
1630	0.000217
1642	0.0002604
1654	0.0004278
1666	0.000279
1678	0.0002914
1690	0.0002666
1702	0.0003534
1714	0.000279
1726	0.0001426
1738	0.0002046
1750	0.0002418
1762	0.0001302
1774	0.0001426
1786	0.0001612
1798	0.000155
1810	9.3e-05
1822	0.0001302
1834	0.0001116
1846	0.000155
1858	7.44e-05
1870	0.0001116
1882	6.82e-05
1894	8.06e-05
1906	6.2e-05
1918	5.58e-05
1930	4.34e-05
1942	6.82e-05
1954	1.86e-05
1966	3.1e-05
1978	1.86e-05
1990	5.58e-05
2002	1.86e-05
2014	5.58e-05
2026	5.58e-05
2038	4.96e-05
2050	3.72e-05
2062	2.48e-05
2074	2.48e-05
2086	1.24e-05
2098	1.86e-05
2110	1.24e-05
2122	6.2e-06
2134	0
2146	2.48e-05
2158	2.48e-05
2170	1.86e-05
2182	5.58e-05
2194	6.2e-06
2206	1.86e-05
2218	0
2230	3.72e-05
2242	6.2e-06
2254	3.1e-05
2266	4.34e-05
2278	6.82e-05
2290	8.68e-05
2302	0.000124
2314	0.0001364
2326	0.0001488
2338	0.0001612
2350	0.0001426
2362	0.0001984
2374	0.000186
2386	9.92e-05
2398	9.3e-05
2410	0.0001116
2422	9.3e-05
2434	9.3e-05
2446	8.06e-05
2458	6.2e-05
2470	9.3e-05
2482	0.0001054
2494	0.0001116
2506	0.000124
2518	0.0001798
2530	0.0001984
2542	0.000217
2554	0.0002542
2566	0.0003038
2578	0.0003844
2590	0.0004402
2602	0.0004774
2614	0.000527
2626	0.0005394
2638	0.0005642
2650	0.0006014
2662	0.0006696
2674	0.000713
2686	0.000713
2698	0.000775
2710	0.0008494
2722	0.0010292
2734	0.001178
2746	0.001178
2758	0.0011718
2770	0.0012834
2782	0.0015252
2794	0.0019716
2806	0.0025296
2818	0.003379
2830	0.0048794
2842	0.0086428
2854	0.0176328
2866	0.0237212
2878	0.027807
2890	0.0260276
2902	0.0307334
2914	0.0413168
2926	0.0565254
2938	0.0594332
2950	0.0460846
2962	0.0578708
2974	0.0386818
2986	0.0129642
2998	0.0063612
3010	0.003875
3022	0.0027032
3034	0.0021018
3046	0.0016616
3058	0.0014322
3070	0.0012648
3082	0.001178
3094	0.001054
3106	0.0009672
3118	0.0008494
3130	0.000775
3142	0.000775
3154	0.0007068
3166	0.000682
3178	0.0007006
3190	0.0005642
3202	0.0004836
3214	0.0003658
3226	0.0002728
3238	0.0001984
3250	0.0001798
3262	0.000186
3274	0.0001426
3286	0.0001674
3298	0.0001736
3310	0.0001612
3322	0.0001488
3334	0.000186
3346	0.000155
3358	0.0001488
3370	0.0001364
3382	0.0001612
3394	9.3e-05
3406	9.3e-05
3418	0.0001116
3430	8.68e-05
3442	8.68e-05
3454	4.96e-05
3466	8.68e-05
3478	3.72e-05
3490	3.1e-05
3502	4.34e-05
3514	7.44e-05
3526	0.0001054
3538	2.48e-05
3550	8.68e-05
3562	7.44e-05
3574	4.34e-05
3586	0.0001674
3598	0.0001054
3610	0.0002108
3622	0.0001364
3634	0.000124
3646	0.000186
3658	0.0001116
3670	0.0002294
3682	0.0001364
3694	0.0001178
3706	0.0001116
3718	0.0001488
3730	0.0001612
3742	0.0002604
3754	0.000186
3766	9.3e-05
3778	6.2e-05
3790	6.82e-05
3802	0.000155
3814	0.0001426
3826	0.000124
3838	0.0002046
