Infrared Spectrum: 3-Ethyl-3-methylheptane
Formula: C 10 H 22
CAS: 17302-01-1
State: gas
Instrument: HP-GC/MS/IRD
Origin: NIST Mass Spectrometry Data Center
1/CM	ABSORBANCE
550	0.00027
562	9.4e-05
574	0.000222
586	5.2e-05
598	9.2e-05
610	0.000162
622	0.00019
634	0.00011
646	0.000198
658	8.2e-05
670	0.000106
682	0.000124
694	0.000238
706	0.00013
718	0.000206
730	0.000248
742	0.000256
754	0.000236
766	0.000322
778	0.000514
790	0.00056
802	0.000332
814	0.000218
826	7.4e-05
838	0.000138
850	0.00015
862	0.00015
874	0.000168
886	0.000178
898	0.000194
910	0.000148
922	0.00018
934	0.000186
946	0.000202
958	0.00021
970	0.000204
982	0.000338
994	0.000524
1006	0.000606
1018	0.000352
1030	0.000238
1042	0.000154
1054	0.00015
1066	0.000112
1078	0.000138
1090	6e-05
1102	0.000104
1114	6.8e-05
1126	9.8e-05
1138	7.2e-05
1150	0.000122
1162	0.000266
1174	0.000336
1186	0.000322
1198	0.000232
1210	0.000188
1222	0.000244
1234	0.000224
1246	0.000248
1258	0.00027
1270	0.000306
1282	0.000366
1294	0.000374
1306	0.000382
1318	0.000418
1330	0.000478
1342	0.000666
1354	0.00064
1366	0.000994
1378	0.001924
1390	0.001722
1402	0.00069
1414	0.000452
1426	0.00051
1438	0.000828
1450	0.00173
1462	0.002892
1474	0.002502
1486	0.001092
1498	0.000504
1510	0.000376
1522	0.000264
1534	0.000244
1546	0.000214
1558	0.000182
1570	0.000218
1582	0.000182
1594	0.000124
1606	0.000116
1618	0.00011
1630	0.00012
1642	0.000148
1654	0.00015
1666	0.00014
1678	0.00014
1690	0.000132
1702	0.000128
1714	0.000102
1726	7.4e-05
1738	0.000134
1750	0.000116
1762	0.0001
1774	8e-05
1786	8.8e-05
1798	6.6e-05
1810	6.8e-05
1822	7.4e-05
1834	8.6e-05
1846	7.8e-05
1858	7.4e-05
1870	8e-05
1882	6.2e-05
1894	5.4e-05
1906	5e-05
1918	7.8e-05
1930	3.2e-05
1942	7.2e-05
1954	4.6e-05
1966	3.4e-05
1978	1.2e-05
1990	7e-05
2002	4e-05
2014	3e-05
2026	4.2e-05
2038	5.8e-05
2050	4e-05
2062	4e-05
2074	2.6e-05
2086	2.8e-05
2098	3.4e-05
2110	2.8e-05
2122	3.4e-05
2134	2.6e-05
2146	3.4e-05
2158	2.8e-05
2170	3e-05
2182	1.2e-05
2194	4.8e-05
2206	3.8e-05
2218	2e-05
2230	2.8e-05
2242	3.2e-05
2254	6.8e-05
2266	2.2e-05
2278	3.8e-05
2290	4.4e-05
2302	3.6e-05
2314	5.2e-05
2326	3.8e-05
2338	3.2e-05
2350	7.8e-05
2362	5.6e-05
2374	7e-05
2386	6.2e-05
2398	7.6e-05
2410	7.8e-05
2422	6.4e-05
2434	4.4e-05
2446	8.4e-05
2458	7.6e-05
2470	6.4e-05
2482	8.4e-05
2494	9.2e-05
2506	9.2e-05
2518	7.2e-05
2530	9.4e-05
2542	9e-05
2554	0.000132
2566	0.000138
2578	0.000146
2590	0.00015
2602	0.000176
2614	0.000202
2626	0.000224
2638	0.000234
2650	0.00026
2662	0.000288
2674	0.000262
2686	0.000268
2698	0.00028
2710	0.00024
2722	0.00033
2734	0.000408
2746	0.00043
2758	0.000458
2770	0.000484
2782	0.00056
2794	0.000632
2806	0.000798
2818	0.000964
2830	0.001264
2842	0.001936
2854	0.003638
2866	0.006246
2878	0.007734
2890	0.00813
2902	0.008072
2914	0.010706
2926	0.014454
2938	0.016708
2950	0.015028
2962	0.01822
2974	0.018236
2986	0.00793
2998	0.003238
3010	0.001912
3022	0.00134
3034	0.001068
3046	0.000876
3058	0.000774
3070	0.000728
3082	0.00065
3094	0.000592
3106	0.00051
3118	0.000412
3130	0.000442
3142	0.000382
3154	0.000336
3166	0.000338
3178	0.000298
3190	0.00028
3202	0.000226
3214	0.000216
3226	0.000214
3238	0.00016
3250	0.00018
3262	0.000148
3274	0.000118
3286	0.00014
3298	0.000152
3310	0.000126
3322	0.000136
3334	0.000116
3346	8.2e-05
3358	5e-05
3370	0.000104
3382	8.4e-05
3394	0.000112
3406	5.6e-05
3418	9.2e-05
3430	6e-05
3442	5.4e-05
3454	6.2e-05
3466	9.4e-05
3478	8.8e-05
3490	9.4e-05
3502	8.6e-05
3514	0.000116
3526	6.4e-05
3538	4e-05
3550	3.2e-05
3562	8e-05
3574	5.8e-05
3586	0.000106
3598	7.6e-05
3610	2.4e-05
3622	8e-06
3634	0.000122
3646	5.2e-05
3658	3.8e-05
3670	8.4e-05
3682	4.6e-05
3694	0.000114
3706	5.2e-05
3718	4.8e-05
3730	4.6e-05
3742	4.4e-05
3754	8.2e-05
3766	7.4e-05
3778	5.4e-05
3790	2.2e-05
3802	5.8e-05
3814	1e-05
3826	2.8e-05
3838	8e-05
