Infrared Spectrum: 1-Methylfluorene
Formula: C 14 H 12
CAS: 1730-37-6
State: gas
Instrument: HP-GC/MS/IRD
Origin: NIST Mass Spectrometry Data Center
1/CM	ABSORBANCE
550	0.0001562
562	9.24e-05
574	0.0007546
586	0.0001628
598	2.42e-05
610	7.92e-05
622	0.000858
634	0.000561
646	0.0001408
658	4.62e-05
670	0.0001144
682	0.0006578
694	0.0019888
706	0.0013068
718	0.0013244
730	0.0035134
742	0.0143704
754	0.01683
766	0.0036498
778	0.0011154
790	0.0015224
802	0.0005852
814	0.0001892
826	0.0001452
838	0.0002354
850	0.0001056
862	0.0001188
874	0.0002684
886	0.0002816
898	0.000209
910	6.82e-05
922	5.5e-05
934	0.0002332
946	0.0003608
958	0.000286
970	0.0002442
982	0.0001826
994	0.0002596
1006	0.0004928
1018	0.0013068
1030	0.0004862
1042	0.0002948
1054	0.0005434
1066	0.0007238
1078	0.000374
1090	0.000253
1102	0.0002948
1114	0.0002662
1126	0.0001056
1138	0.0001606
1150	0.000495
1162	0.0008778
1174	0.0010098
1186	0.0008624
1198	0.0007436
1210	0.0004422
1222	0.0002398
1234	0.000407
1246	0.0004114
1258	0.0002178
1270	0.00055
1282	0.0007832
1294	0.000704
1306	0.000781
1318	0.0004158
1330	0.0005038
1342	0.0002684
1354	0.0003674
1366	0.0004532
1378	0.000957
1390	0.0011176
1402	0.0012958
1414	0.001991
1426	0.0024552
1438	0.0023144
1450	0.0045628
1462	0.0053284
1474	0.0017182
1486	0.0010186
1498	0.0007062
1510	0.000319
1522	0.0004444
1534	0.0006732
1546	0.0005302
1558	0.0005434
1570	0.0012562
1582	0.0025146
1594	0.002926
1606	0.0017336
1618	0.000561
1630	0.0004004
1642	0.0003608
1654	0.0002376
1666	0.0004136
1678	0.000396
1690	0.0002442
1702	0.0001958
1714	0.0001892
1726	0.00011
1738	3.96e-05
1750	8.14e-05
1762	0.0002948
1774	0.0004818
1786	0.0003036
1798	0.0002948
1810	0.0002508
1822	0.0004422
1834	0.0003784
1846	0.0004818
1858	0.0003256
1870	0.0002618
1882	0.0003608
1894	0.0003586
1906	0.0005126
1918	0.0006182
1930	0.0006798
1942	0.00044
1954	6.6e-05
1966	2.86e-05
1978	3.52e-05
1990	2.42e-05
2002	1.54e-05
2014	1.32e-05
2026	1.98e-05
2038	3.52e-05
2050	1.1e-05
2062	8.8e-06
2074	2.42e-05
2086	8.8e-06
2098	2.2e-05
2110	1.32e-05
2122	8.8e-06
2134	3.74e-05
2146	2.42e-05
2158	2.2e-05
2170	4.4e-05
2182	1.32e-05
2194	6.6e-06
2206	2.64e-05
2218	1.76e-05
2230	5.5e-05
2242	3.74e-05
2254	7.26e-05
2266	8.8e-05
2278	7.26e-05
2290	5.5e-05
2302	8.36e-05
2314	9.02e-05
2326	0.0001122
2338	4.18e-05
2350	5.06e-05
2362	1.54e-05
2374	2.86e-05
2386	4.62e-05
2398	4.84e-05
2410	4.62e-05
2422	8.14e-05
2434	8.36e-05
2446	9.68e-05
2458	7.48e-05
2470	5.72e-05
2482	4.4e-05
2494	5.94e-05
2506	6.6e-05
2518	8.14e-05
2530	8.14e-05
2542	8.8e-05
2554	8.36e-05
2566	3.96e-05
2578	7.92e-05
2590	8.8e-05
2602	0.0001078
2614	9.02e-05
2626	0.0001056
2638	9.02e-05
2650	7.48e-05
2662	8.58e-05
2674	6.38e-05
2686	8.58e-05
2698	7.92e-05
2710	0.0001144
2722	0.0001122
2734	0.0001716
2746	0.0002112
2758	0.0002002
2770	0.0002398
2782	0.0003014
2794	0.0004576
2806	0.0006732
2818	0.0005852
2830	0.0005324
2842	0.0006314
2854	0.0010296
2866	0.0018282
2878	0.0021186
2890	0.0030822
2902	0.0053482
2914	0.0056144
2926	0.0043186
2938	0.0031284
2950	0.00209
2962	0.0016654
2974	0.0018898
2986	0.0017732
2998	0.0016192
3010	0.0026928
3022	0.0047432
3034	0.0060984
3046	0.0075658
3058	0.00946
3070	0.0091894
3082	0.0061358
3094	0.0025124
3106	0.0009746
3118	0.000473
3130	0.0003124
3142	0.0003256
3154	0.0003938
3166	0.0003828
3178	0.000242
3190	0.0001892
3202	0.000121
3214	0.00011
3226	7.92e-05
3238	6.82e-05
3250	9.02e-05
3262	7.48e-05
3274	5.06e-05
3286	5.5e-05
3298	7.7e-05
3310	5.5e-05
3322	8.58e-05
3334	9.02e-05
3346	8.58e-05
3358	6.82e-05
3370	0.0001122
3382	0.0001188
3394	7.48e-05
3406	5.06e-05
3418	8.8e-05
3430	7.92e-05
3442	5.06e-05
3454	8.14e-05
3466	7.7e-05
3478	8.58e-05
3490	6.38e-05
3502	7.7e-05
3514	5.5e-05
3526	5.28e-05
3538	8.14e-05
3550	5.06e-05
3562	0.0001034
3574	9.9e-05
3586	2.2e-05
3598	6.6e-05
3610	3.74e-05
3622	3.08e-05
3634	9.24e-05
3646	0.00011
3658	8.8e-05
3670	3.3e-05
3682	8.36e-05
3694	9.02e-05
3706	0.0001364
3718	0.0001122
3730	8.58e-05
3742	4.84e-05
3754	8.8e-05
3766	0.0001364
3778	0.0001122
3790	0.0001364
3802	0.0001298
3814	0.0001232
3826	0.0001518
3838	0.0001144
