Infrared Spectrum: 4-Methylnonane
Formula: C 10 H 22
CAS: 17301-94-9
State: gas
Instrument: HP-GC/MS/IRD
Origin: NIST Mass Spectrometry Data Center
1/CM	ABSORBANCE
550	0.000147
562	0.000203
574	0.000252
586	9.1e-05
598	7.7e-05
610	5.6e-05
622	5.6e-05
634	7e-05
646	0.0001015
658	0.000154
670	0.0001645
682	0.000126
694	0.0001785
706	0.0002975
718	0.0004025
730	0.000616
742	0.0006405
754	0.000476
766	0.0003745
778	0.0002765
790	0.000217
802	0.000112
814	0.0002345
826	6.3e-05
838	0.0002135
850	0.000245
862	0.000245
874	0.000301
886	0.000252
898	0.000315
910	0.0002975
922	0.0002695
934	0.0004515
946	0.000497
958	0.000413
970	0.000259
982	0.000182
994	0.000217
1006	0.000182
1018	0.0001855
1030	0.000196
1042	0.0002205
1054	0.000217
1066	0.0001855
1078	0.000189
1090	0.000203
1102	0.0001645
1114	0.0001995
1126	0.000287
1138	0.0004445
1150	0.000623
1162	0.0005005
1174	0.000315
1186	0.0002695
1198	0.0003045
1210	0.0003535
1222	0.000294
1234	0.000343
1246	0.000357
1258	0.000385
1270	0.000434
1282	0.0004935
1294	0.000539
1306	0.000602
1318	0.0006755
1330	0.000812
1342	0.0010815
1354	0.0011935
1366	0.001533
1378	0.002464
1390	0.0021315
1402	0.001036
1414	0.000784
1426	0.0009065
1438	0.0015015
1450	0.0029155
1462	0.0042875
1474	0.003304
1486	0.001484
1498	0.0007595
1510	0.0004865
1522	0.0003465
1534	0.000259
1546	0.0002205
1558	0.000175
1570	0.000168
1582	0.000182
1594	0.000154
1606	0.000182
1618	0.0001365
1630	0.0001225
1642	0.000126
1654	9.1e-05
1666	0.000126
1678	0.000133
1690	8.05e-05
1702	8.05e-05
1714	5.25e-05
1726	9.1e-05
1738	6.65e-05
1750	7.7e-05
1762	4.9e-05
1774	3.85e-05
1786	3.85e-05
1798	3.5e-05
1810	4.2e-05
1822	5.95e-05
1834	4.55e-05
1846	3.5e-05
1858	3.5e-05
1870	4.2e-05
1882	4.2e-05
1894	4.2e-05
1906	2.1e-05
1918	1.75e-05
1930	7e-06
1942	7e-06
1954	0
1966	3.15e-05
1978	2.1e-05
1990	0
2002	7e-06
2014	2.8e-05
2026	2.45e-05
2038	4.55e-05
2050	3.5e-05
2062	2.8e-05
2074	2.1e-05
2086	1.4e-05
2098	1.75e-05
2110	2.1e-05
2122	2.45e-05
2134	2.1e-05
2146	2.1e-05
2158	4.2e-05
2170	5.25e-05
2182	4.9e-05
2194	3.85e-05
2206	2.8e-05
2218	3.85e-05
2230	2.45e-05
2242	3.15e-05
2254	4.55e-05
2266	4.55e-05
2278	3.15e-05
2290	3.85e-05
2302	3.5e-05
2314	6.65e-05
2326	4.55e-05
2338	5.25e-05
2350	5.6e-05
2362	4.9e-05
2374	6.65e-05
2386	6.3e-05
2398	9.1e-05
2410	9.45e-05
2422	8.4e-05
2434	4.2e-05
2446	3.85e-05
2458	3.5e-05
2470	5.25e-05
2482	5.25e-05
2494	7.35e-05
2506	7.35e-05
2518	9.45e-05
2530	0.000105
2542	0.0001505
2554	0.000147
2566	0.0001645
2578	0.0002135
2590	0.000238
2602	0.000266
2614	0.0002765
2626	0.0002835
2638	0.000322
2650	0.0003325
2662	0.0003675
2674	0.0004025
2686	0.000413
2698	0.000441
2710	0.0004935
2722	0.00056
2734	0.0006615
2746	0.000721
2758	0.0007
2770	0.00077
2782	0.0009345
2794	0.0011725
2806	0.001484
2818	0.001953
2830	0.0028105
2842	0.0050085
2854	0.0097685
2866	0.0139125
2878	0.0165165
2890	0.015561
2902	0.0169575
2914	0.0235655
2926	0.032431
2938	0.033908
2950	0.026782
2962	0.031416
2974	0.025613
2986	0.009191
2998	0.0044415
3010	0.002919
3022	0.0021
3034	0.0016205
3046	0.0012845
3058	0.001036
3070	0.0008785
3082	0.000791
3094	0.000721
3106	0.000637
3118	0.0005285
3130	0.000483
3142	0.000448
3154	0.00042
3166	0.000399
3178	0.0003675
3190	0.000301
3202	0.0002555
3214	0.0002345
3226	0.00014
3238	0.0001435
3250	9.45e-05
3262	0.000126
3274	0.0001085
3286	0.00014
3298	0.0001015
3310	0.0001015
3322	7.35e-05
3334	8.4e-05
3346	9.45e-05
3358	6.3e-05
3370	8.4e-05
3382	8.75e-05
3394	0.0001015
3406	5.95e-05
3418	9.1e-05
3430	9.45e-05
3442	7e-05
3454	7.35e-05
3466	4.55e-05
3478	9.8e-05
3490	6.3e-05
3502	8.4e-05
3514	2.1e-05
3526	5.6e-05
3538	6.3e-05
3550	4.9e-05
3562	4.2e-05
3574	3.5e-05
3586	7.35e-05
3598	6.3e-05
3610	8.75e-05
3622	9.1e-05
3634	0.000112
3646	0.0001155
3658	0.0001575
3670	0.000119
3682	0.0001505
3694	0.000133
3706	0.0001295
3718	0.000126
3730	0.0001225
3742	0.00014
3754	0.000147
3766	0.000105
3778	0.000133
3790	0.0001295
3802	0.0001365
3814	0.0001505
3826	0.000133
3838	0.0001225
