Infrared Spectrum: 3,3'-(2,2,4,4-TETRAMETHYL-1,3-CYCLOBUTYLENEDIOXY)DIPROPIONITRILE
Formula: C14 H22 N2 O2
CAS: 1731-46-0
State: SOLID (MELT)
Melting point: 47-57 C
Boiling point: 173-176 C AT 0.002 mmHg
Class: COBLENTZ
Instrument: Not specified, most likely a prism, grating, or hybrid spectrometer.
Sampling: TRANSMISSION
Resolution: 4
Origin: TENNESSEE EASTMAN COMPANY, RESEARCH LABORATORIES
MICROMETERS	TRANSMITTANCE
2	0.779
2.04077	0.781
2.08155	0.786
2.12232	0.791
2.1631	0.794
2.20387	0.794
2.24464	0.791
2.28542	0.762
2.32619	0.772
2.36696	0.781
2.40774	0.781
2.44851	0.781
2.48929	0.782
2.53006	0.788
2.57083	0.789
2.61161	0.793
2.65238	0.805
2.69315	0.808
2.73393	0.815
2.7747	0.818
2.81548	0.818
2.85625	0.817
2.89702	0.818
2.9378	0.823
2.97857	0.823
3.01934	0.825
3.06012	0.825
3.10089	0.82
3.14167	0.815
3.18244	0.801
3.22321	0.805
3.26399	0.8
3.30476	0.776
3.34553	0.41
3.38631	0.087
3.42708	0.17
3.46786	0.1
3.50863	0.441
3.5494	0.596
3.59018	0.632
3.63095	0.723
3.67172	0.747
3.7125	0.76
3.75327	0.782
3.79405	0.794
3.83482	0.815
3.87559	0.825
3.91637	0.835
3.95714	0.841
3.99791	0.846
4.03869	0.849
4.07946	0.849
4.12024	0.849
4.16101	0.851
4.20178	0.856
4.24256	0.858
4.28333	0.859
4.32411	0.859
4.36488	0.861
4.40565	0.861
4.44643	0.379
4.4872	0.774
4.52797	0.839
4.56875	0.841
4.60952	0.832
4.6503	0.847
4.69107	0.856
4.73184	0.866
4.77262	0.882
4.81339	0.892
4.85416	0.899
4.89494	0.899
4.93571	0.9
4.97649	0.902
5.01726	0.907
5.05803	0.907
5.09881	0.9
5.13958	0.911
5.18035	0.911
5.22113	0.902
5.2619	0.911
5.30268	0.916
5.34345	0.921
5.38422	0.921
5.425	0.923
5.46577	0.924
5.50654	0.928
5.54732	0.926
5.58809	0.924
5.62887	0.919
5.66964	0.924
5.71041	0.923
5.75119	0.917
5.79196	0.905
5.83273	0.9
5.87351	0.9
5.91428	0.9
5.95506	0.9
5.99583	0.902
6.0366	0.902
6.07738	0.902
6.11815	0.907
6.15892	0.904
6.1997	0.907
6.24047	0.909
6.28125	0.909
6.32202	0.912
6.36279	0.914
6.40357	0.905
6.44434	0.914
6.48512	0.899
6.52589	0.905
6.56666	0.887
6.60744	0.876
6.64821	0.851
6.68898	0.762
6.72976	0.507
6.77053	0.326
6.81131	0.179
6.85208	0.317
6.89285	0.458
6.93363	0.499
6.9744	0.565
7.01517	0.447
7.05595	0.331
7.09672	0.422
7.1375	0.37
7.17827	0.461
7.21904	0.398
7.25982	0.423
7.30059	0.374
7.34136	0.391
7.38214	0.37
7.42291	0.275
7.46369	0.343
7.50446	0.475
7.54523	0.464
7.58601	0.714
7.62678	0.791
7.66755	0.793
7.70833	0.794
7.7491	0.818
7.78988	0.803
7.83065	0.69
7.87142	0.654
7.9122	0.663
7.95297	0.634
7.99374	0.536
8.03452	0.516
8.07529	0.603
8.11607	0.548
8.15684	0.502
8.19761	0.382
8.23839	0.499
8.27916	0.526
8.31993	0.434
8.36071	0.439
8.40148	0.514
8.44226	0.574
8.48303	0.591
8.5238	0.564
8.56458	0.459
8.60535	0.362
8.64613	0.28
8.6869	0.222
8.72767	0.2
8.76845	0.181
8.80922	0.128
8.84999	0.076
8.89077	0.029
8.93154	0.013
8.97232	0.008
9.01309	0.006
9.05386	0.008
9.09464	0.022
9.13541	0.073
9.17618	0.176
9.21696	0.242
9.25773	0.188
9.29851	0.114
9.33928	0.152
9.38005	0.205
9.42083	0.229
9.4616	0.23
9.50237	0.312
9.54315	0.324
9.58392	0.215
9.6247	0.264
9.66547	0.382
9.70624	0.495
9.74702	0.545
9.78779	0.548
9.82856	0.589
9.86934	0.615
9.91011	0.603
9.95089	0.553
9.99166	0.528
10.0324	0.523
10.0732	0.528
10.114	0.577
10.1548	0.629
10.1955	0.646
10.2363	0.639
10.2771	0.69
10.3178	0.767
10.3586	0.822
10.3994	0.839
10.4402	0.844
10.4809	0.818
10.5217	0.779
10.5625	0.745
10.6033	0.793
10.644	0.846
10.6848	0.873
10.7256	0.899
10.7664	0.917
10.8071	0.935
10.8479	0.943
10.8887	0.95
10.9295	0.955
10.9702	0.955
11.011	0.955
11.0518	0.952
11.0926	0.948
11.1333	0.941
11.1741	0.933
11.2149	0.933
11.2556	0.924
11.2964	0.914
11.3372	0.878
11.378	0.813
11.4187	0.758
11.4595	0.753
11.5003	0.798
11.5411	0.81
11.5818	0.779
11.6226	0.697
11.6634	0.692
11.7042	0.748
11.7449	0.774
11.7857	0.793
11.8265	0.82
11.8673	0.832
11.908	0.844
11.9488	0.847
11.9896	0.842
12.0303	0.829
12.0711	0.83
12.1119	0.846
12.1527	0.858
12.1934	0.871
12.2342	0.89
12.275	0.909
12.3158	0.924
12.3565	0.928
12.3973	0.931
12.4381	0.933
12.4789	0.936
12.5196	0.936
12.5604	0.938
12.6012	0.938
12.642	0.936
12.6827	0.931
12.7235	0.921
12.7643	0.9
12.8051	0.808
12.8458	0.699
12.8866	0.726
12.9274	0.8
12.9681	0.842
13.0089	0.871
13.0497	0.897
13.0905	0.911
13.1312	0.912
13.172	0.912
13.2128	0.905
13.2536	0.888
13.2943	0.87
13.3351	0.861
13.3759	0.859
13.4167	0.861
13.4574	0.866
13.4982	0.868
13.539	0.875
13.5798	0.876
13.6205	0.882
13.6613	0.883
13.7021	0.887
13.7428	0.888
13.7836	0.888
13.8244	0.888
13.8652	0.888
13.9059	0.885
13.9467	0.883
13.9875	0.883
14.0283	0.88
14.069	0.878
14.1098	0.873
14.1506	0.87
14.1914	0.863
14.2321	0.861
14.2729	0.858
14.3137	0.854
14.3545	0.849
14.3952	0.846
14.436	0.839
14.4768	0.835
14.5175	0.83
14.5583	0.825
14.5991	0.82
14.6399	0.815
14.6806	0.81
14.7214	0.803
14.7622	0.801
14.803	0.794
14.8437	0.788
14.8845	0.784
14.9253	0.777
14.9661	0.767
15.0068	0.765
15.0476	0.758
15.0884	0.75
15.1292	0.743
15.1699	0.74
15.2107	0.731
15.2515	0.729
15.2923	0.724
15.333	0.719
15.3738	0.709
15.4146	0.7
15.4553	0.694
15.4961	0.682
15.5369	0.668
15.5777	0.649
15.6184	0.632
15.6592	0.623
15.7	0.622
15.7408	0.622
15.7815	0.629
15.8223	0.637
15.8631	0.644
15.9039	0.649
15.9446	0.654
15.9854	0.658
