Infrared Spectrum: 4,4-Dipropylheptane
Formula: C 13 H 28
CAS: 17312-72-0
State: gas
Instrument: HP-GC/MS/IRD
Origin: NIST Mass Spectrometry Data Center
1/CM	ABSORBANCE
550	0.0001984
562	0.0001408
574	0.0001792
586	0.0002048
598	9.6e-05
610	7.04e-05
622	2.56e-05
634	2.56e-05
646	8.32e-05
658	8.96e-05
670	9.6e-05
682	0.0001408
694	0.0001984
706	0.0002496
718	0.0003584
730	0.0006912
742	0.0013504
754	0.0011712
766	0.0005888
778	0.0004096
790	0.000384
802	0.00032
814	0.0002432
826	0.000192
838	0.000192
850	0.0001984
862	0.0001792
874	0.0004416
886	0.0007808
898	0.0010112
910	0.0009472
922	0.0004352
934	0.0002368
946	0.00016
958	0.0001536
970	0.000256
982	0.0003904
994	0.0003648
1006	0.0002176
1018	0.0001792
1030	0.0001536
1042	0.000192
1054	0.0003008
1066	0.0004032
1078	0.000544
1090	0.0003456
1102	0.0002624
1114	0.0002304
1126	0.0002112
1138	0.0003136
1150	0.0006016
1162	0.001024
1174	0.0009344
1186	0.0003968
1198	0.000192
1210	0.0002048
1222	0.0002368
1234	0.0002752
1246	0.0003264
1258	0.0003776
1270	0.0004416
1282	0.0004736
1294	0.0005568
1306	0.0006208
1318	0.000768
1330	0.0006784
1342	0.000672
1354	0.000992
1366	0.0014592
1378	0.0022976
1390	0.0018304
1402	0.0011392
1414	0.0010816
1426	0.001376
1438	0.0024576
1450	0.0048448
1462	0.00768
1474	0.0059392
1486	0.0020352
1498	0.0010048
1510	0.0006912
1522	0.0005248
1534	0.000448
1546	0.0004032
1558	0.0003456
1570	0.0003136
1582	0.0002752
1594	0.0002368
1606	0.0002368
1618	0.0002304
1630	0.0002496
1642	0.000192
1654	0.0001856
1666	0.0001792
1678	0.00016
1690	0.0001216
1702	8.32e-05
1714	7.04e-05
1726	7.68e-05
1738	5.12e-05
1750	2.56e-05
1762	3.84e-05
1774	3.84e-05
1786	2.56e-05
1798	3.2e-05
1810	2.56e-05
1822	3.84e-05
1834	2.56e-05
1846	1.92e-05
1858	1.92e-05
1870	3.2e-05
1882	2.56e-05
1894	3.84e-05
1906	1.92e-05
1918	2.56e-05
1930	6.4e-06
1942	6.4e-06
1954	1.28e-05
1966	0
1978	6.4e-06
1990	1.28e-05
2002	0
2014	3.2e-05
2026	5.12e-05
2038	6.4e-05
2050	7.04e-05
2062	5.76e-05
2074	2.56e-05
2086	2.56e-05
2098	3.2e-05
2110	2.56e-05
2122	2.56e-05
2134	1.92e-05
2146	1.92e-05
2158	1.28e-05
2170	3.84e-05
2182	3.2e-05
2194	5.12e-05
2206	3.84e-05
2218	5.76e-05
2230	3.2e-05
2242	5.12e-05
2254	5.12e-05
2266	5.12e-05
2278	5.12e-05
2290	8.32e-05
2302	8.96e-05
2314	9.6e-05
2326	7.68e-05
2338	0.0001024
2350	0.000128
2362	0.0001472
2374	0.00016
2386	0.000128
2398	0.000128
2410	0.0001536
2422	0.0001344
2434	0.0001152
2446	8.32e-05
2458	8.96e-05
2470	7.04e-05
2482	8.96e-05
2494	8.96e-05
2506	7.04e-05
2518	8.96e-05
2530	0.0001536
2542	0.0001728
2554	0.0001984
2566	0.0002368
2578	0.0003008
2590	0.0003392
2602	0.0003904
2614	0.0004032
2626	0.0004224
2638	0.0004672
2650	0.0004544
2662	0.0004224
2674	0.0004416
2686	0.0004864
2698	0.000512
2710	0.0006272
2722	0.0007872
2734	0.0011264
2746	0.001248
2758	0.0010688
2770	0.0010944
2782	0.0012288
2794	0.0014336
2806	0.0018688
2818	0.0024704
2830	0.003264
2842	0.0049728
2854	0.0094144
2866	0.0149952
2878	0.0251712
2890	0.0221632
2902	0.0208896
2914	0.0282304
2926	0.0326976
2938	0.0435008
2950	0.0376256
2962	0.0606528
2974	0.0413632
2986	0.0124928
2998	0.006848
3010	0.004928
3022	0.0038272
3034	0.0028608
3046	0.0021888
3058	0.0018432
3070	0.001504
3082	0.0012352
3094	0.0010624
3106	0.00096
3118	0.0008384
3130	0.000736
3142	0.0006656
3154	0.0006272
3166	0.0006144
3178	0.0005504
3190	0.0004736
3202	0.0003712
3214	0.00032
3226	0.0002368
3238	0.0002176
3250	0.000224
3262	0.0001856
3274	0.0001664
3286	0.000128
3298	8.32e-05
3310	0.0001024
3322	9.6e-05
3334	9.6e-05
3346	7.04e-05
3358	0.0001024
3370	8.96e-05
3382	8.96e-05
3394	6.4e-05
3406	7.04e-05
3418	5.76e-05
3430	8.96e-05
3442	7.68e-05
3454	6.4e-05
3466	8.32e-05
3478	5.76e-05
3490	4.48e-05
3502	1.92e-05
3514	9.6e-05
3526	8.96e-05
3538	7.04e-05
3550	4.48e-05
3562	7.04e-05
3574	6.4e-05
3586	5.76e-05
3598	8.96e-05
3610	5.12e-05
3622	0.0001088
3634	0.0001024
3646	0.000128
3658	0.0001408
3670	0.0001152
3682	0.0001216
3694	0.0001408
3706	0.0001344
3718	0.0001728
3730	0.0001216
3742	0.0001216
3754	0.0001408
3766	0.0001664
3778	0.0001728
3790	0.0001728
3802	0.00016
3814	0.000224
3826	0.0001984
3838	0.0001728
