Infrared Spectrum: 1,2,3,6,7,8-Hexahydropyrene
Formula: C 16 H 16
CAS: 1732-13-4
State: gas
Instrument: HP-GC/MS/IRD
Origin: NIST Mass Spectrometry Data Center
1/CM	ABSORBANCE
550	0.0059285
562	0.0064965
574	0.0065107
586	0.0053889
598	0.0030033
610	0.0010437
622	0.0014413
634	0.0023572
646	0.0032944
658	0.002911
670	0.0024424
682	0.0009372
694	0.0006887
706	0.0010792
718	0.0014768
730	0.0017608
742	0.001207
754	0.0005893
766	0.000142
778	0.0001136
790	0.0004189
802	0.0012638
814	0.0065675
826	0.0185523
838	0.0053108
850	0.0009443
862	0.0004686
874	0.0006674
886	0.0004686
898	0.0007242
910	0.00213
922	0.002414
934	0.0005538
946	0.0002272
958	0.000142
970	0.0002982
982	0.0008733
994	0.0003692
1006	4.26e-05
1018	7.1e-05
1030	0.0001633
1042	0.0002556
1054	0.000781
1066	0.0003976
1078	0.0001207
1090	5.68e-05
1102	2.84e-05
1114	0.0004047
1126	0.0021726
1138	0.0016614
1150	0.0002343
1162	1.42e-05
1174	8.52e-05
1186	0.0001207
1198	7.81e-05
1210	0.0002059
1222	0.0004331
1234	0.0004828
1246	0.001207
1258	0.005396
1270	0.0054528
1282	0.0019525
1294	0.0020306
1306	0.000852
1318	0.0003905
1330	0.0005396
1342	0.0018176
1354	0.0012851
1366	0.0007029
1378	0.0009727
1390	0.0027051
1402	0.0049558
1414	0.0036707
1426	0.0018531
1438	0.0042529
1450	0.0049842
1462	0.0033725
1474	0.0009656
1486	0.0004473
1498	0.0006177
1510	0.001562
1522	0.0012638
1534	0.0004757
1546	0.0005609
1558	0.0008804
1570	0.0005325
1582	0.00142
1594	0.0047641
1606	0.0027051
1618	0.0014129
1630	0.001136
1642	0.0003905
1654	0.0005538
1666	0.0002059
1678	0.000355
1690	0.0006532
1702	0.0009585
1714	0.0005041
1726	0.0002485
1738	0.0004473
1750	0.0005112
1762	0.0002911
1774	0.0003692
1786	0.0003479
1798	0.0003053
1810	0.0001846
1822	0.0002556
1834	0.0004331
1846	0.0016046
1858	0.0022152
1870	0.000781
1882	0.0002343
1894	0.0001491
1906	7.81e-05
1918	0.0001633
1930	9.23e-05
1942	0.0001136
1954	7.1e-05
1966	9.23e-05
1978	6.39e-05
1990	9.23e-05
2002	4.26e-05
2014	4.26e-05
2026	4.97e-05
2038	4.26e-05
2050	3.55e-05
2062	4.26e-05
2074	2.13e-05
2086	2.84e-05
2098	3.55e-05
2110	4.26e-05
2122	7.1e-06
2134	3.55e-05
2146	4.26e-05
2158	3.55e-05
2170	2.13e-05
2182	4.97e-05
2194	7.1e-05
2206	9.23e-05
2218	0.0001136
2230	0.0001136
2242	0.0001562
2254	0.0001207
2266	0.0001065
2278	0.0001562
2290	0.0002059
2302	0.0002343
2314	0.0002911
2326	0.0003976
2338	0.0004189
2350	0.0003692
2362	0.0005467
2374	0.0003337
2386	0.0001278
2398	9.23e-05
2410	0.000142
2422	0.0001846
2434	0.0001633
2446	0.0001633
2458	0.0001704
2470	0.0002343
2482	0.0002343
2494	0.000213
2506	0.0002556
2518	0.000213
2530	0.000213
2542	0.0001491
2554	0.0001775
2566	0.0001846
2578	0.000213
2590	0.0002485
2602	0.0003124
2614	0.0003976
2626	0.0004615
2638	0.0005396
2650	0.0006106
2662	0.0006319
2674	0.0006035
2686	0.0005538
2698	0.0004473
2710	0.0004047
2722	0.000426
2734	0.0005254
2746	0.0005964
2758	0.0006319
2770	0.0007171
2782	0.000781
2794	0.000923
2806	0.0012496
2818	0.0019241
2830	0.0049203
2842	0.0138592
2854	0.0137527
2866	0.0118144
2878	0.0139444
2890	0.0104228
2902	0.008449
2914	0.009727
2926	0.0268025
2938	0.0622102
2950	0.0539813
2962	0.007526
2974	0.0031524
2986	0.0022294
2998	0.0025489
3010	0.0051546
3022	0.0149952
3034	0.0147893
3046	0.004189
3058	0.0036423
3070	0.0034009
3082	0.001278
3094	0.0008165
3106	0.0011289
3118	0.0012212
3130	0.0006745
3142	0.0004544
3154	0.0004331
3166	0.0002911
3178	0.0003124
3190	0.0004473
3202	0.0003621
3214	0.0003408
3226	0.0003124
3238	0.0002911
3250	0.0001846
3262	0.0002059
3274	0.0001846
3286	0.0001633
3298	0.0001704
3310	0.0001562
3322	9.23e-05
3334	0.0001349
3346	0.000142
3358	0.000142
3370	0.0001633
3382	0.0001136
3394	0.0001562
3406	9.94e-05
3418	0.0001633
3430	8.52e-05
3442	0.0001562
3454	0.0001207
3466	0.0001278
3478	0.0001917
3490	0.0001846
3502	0.000213
3514	0.0001278
3526	0.0002201
3538	0.0001136
3550	0.0001562
3562	0.0001846
3574	6.39e-05
3586	0.0003266
3598	0.000142
3610	0.0003195
3622	0.0001207
3634	9.23e-05
3646	0.0001775
3658	7.81e-05
3670	0.0002698
3682	4.97e-05
3694	7.81e-05
3706	0.0001136
3718	0.0001846
3730	0.0003195
3742	0.0004757
3754	0.0003195
3766	8.52e-05
3778	0
3790	4.26e-05
3802	0.0002059
3814	0.0001491
3826	0.0001562
3838	0.0003337
