Infrared Spectrum: Dimethyl pimelate
Formula: C 9 H 16 O 4
CAS: 1732-08-7
State: gas
Origin: EPA-IR VAPOR PHASE LIBRARY
1/CM	ABSORBANCE
549.8	0.00188
559.445	0.00243
569.09	0.00342
578.734	0.00559
588.379	0.00796
598.024	0.00902
607.669	0.01027
617.313	0.00968
626.958	0.00887
636.603	0.00946
646.248	0.00875
655.893	0.00725
665.537	0.00636
675.182	0.00654
684.827	0.00755
694.472	0.00898
704.116	0.00999
713.761	0.01099
723.406	0.01288
733.051	0.01562
742.695	0.01853
752.34	0.02016
761.985	0.0198
771.63	0.01759
781.275	0.01648
790.919	0.01731
800.564	0.0194
810.209	0.02276
819.854	0.02716
829.498	0.0304
839.143	0.03366
848.788	0.03977
858.433	0.04313
868.078	0.03788
877.722	0.03092
887.367	0.02643
897.012	0.02233
906.657	0.01717
916.301	0.01347
925.946	0.01148
935.591	0.01069
945.236	0.01144
954.88	0.01394
964.525	0.01816
974.17	0.02578
983.815	0.03636
993.46	0.05113
1003.1	0.07814
1012.75	0.10895
1022.39	0.09633
1032.04	0.07823
1041.68	0.07421
1051.33	0.08113
1060.97	0.09933
1070.62	0.11578
1080.26	0.12098
1089.91	0.11509
1099.55	0.10154
1109.2	0.10191
1118.84	0.12827
1128.49	0.19
1138.13	0.28995
1147.78	0.39697
1157.42	0.49383
1167.07	0.55448
1176.71	0.54224
1186.36	0.48659
1196	0.47069
1205.64	0.44822
1215.29	0.41258
1224.93	0.38777
1234.58	0.37831
1244.22	0.37251
1253.87	0.3482
1263.51	0.28938
1273.16	0.22782
1282.8	0.18233
1292.45	0.15702
1302.09	0.14296
1311.74	0.13623
1321.38	0.13146
1331.03	0.13059
1340.67	0.14318
1350.32	0.16253
1359.96	0.16382
1369.61	0.12915
1379.25	0.08476
1388.9	0.05354
1398.54	0.04154
1408.18	0.04532
1417.83	0.06236
1427.47	0.10755
1437.12	0.20021
1446.76	0.15643
1456.41	0.11397
1466.05	0.08871
1475.7	0.05736
1485.34	0.03746
1494.99	0.02743
1504.63	0.02194
1514.28	0.01873
1523.92	0.01694
1533.57	0.01597
1543.21	0.01542
1552.86	0.01534
1562.5	0.015
1572.15	0.01452
1581.79	0.01392
1591.44	0.01293
1601.08	0.01181
1610.73	0.01119
1620.37	0.01063
1630.01	0.01051
1639.66	0.01068
1649.3	0.01131
1658.95	0.01247
1668.59	0.0144
1678.24	0.01789
1687.88	0.02417
1697.53	0.03592
1707.17	0.05918
1716.82	0.10345
1726.46	0.18754
1736.11	0.33558
1745.75	0.56822
1755.4	0.84506
1765.04	0.77378
1774.69	0.47102
1784.33	0.23931
1793.98	0.10508
1803.62	0.04846
1813.27	0.02636
1822.91	0.01694
1832.55	0.01243
1842.2	0.01013
1851.84	0.00887
1861.49	0.00805
1871.13	0.00764
1880.78	0.0072
1890.42	0.00697
1900.07	0.00681
1909.71	0.00666
1919.36	0.00675
1929	0.00697
1938.65	0.00735
1948.29	0.00785
1957.94	0.00827
1967.58	0.00875
1977.23	0.00938
1986.87	0.01011
1996.52	0.01104
2006.16	0.01181
2015.81	0.01215
2025.45	0.01217
2035.1	0.01181
2044.74	0.01145
2054.38	0.01113
2064.03	0.01055
2073.67	0.00962
2083.32	0.00858
2092.96	0.00735
2102.61	0.00617
2112.25	0.00519
2121.9	0.00454
2131.54	0.0042
2141.19	0.0039
2150.83	0.00376
2160.48	0.00353
2170.12	0.00332
2179.77	0.00318
2189.41	0.00291
2199.06	0.00266
2208.7	0.00251
2218.35	0.00229
2227.99	0.00213
2237.64	0.00206
2247.28	0.00214
2256.92	0.00212
2266.57	0.00242
2276.21	0.0024
2285.86	0.00256
2295.5	0.00258
2305.15	0.00266
2314.79	0.00266
2324.44	0.00276
2334.08	0.0028
2343.73	0.00286
2353.37	0.00288
2363.02	0.00288
2372.66	0.00292
2382.31	0.00274
2391.95	0.00267
2401.6	0.00258
2411.24	0.00252
2420.89	0.00229
2430.53	0.00222
2440.18	0.00205
2449.82	0.00199
2459.47	0.00178
2469.11	0.00179
2478.75	0.00166
2488.4	0.0017
2498.04	0.00173
2507.69	0.00169
2517.33	0.00185
2526.98	0.00184
2536.62	0.00193
2546.27	0.00174
2555.91	0.00194
2565.56	0.00207
2575.2	0.00237
2584.85	0.00279
2594.49	0.00328
2604.14	0.00343
2613.78	0.00353
2623.43	0.00332
2633.07	0.00329
2642.72	0.00345
2652.36	0.00371
2662.01	0.00382
2671.65	0.00383
2681.29	0.00392
2690.94	0.00403
2700.58	0.004
2710.23	0.00364
2719.87	0.00341
2729.52	0.00339
2739.16	0.00346
2748.81	0.00379
2758.45	0.00419
2768.1	0.0048
2777.74	0.00545
2787.39	0.00653
2797.03	0.0078
2806.68	0.00981
2816.32	0.01325
2825.97	0.01928
2835.61	0.03061
2845.26	0.05239
2854.9	0.06777
2864.55	0.08008
2874.19	0.09129
2883.84	0.08028
2893.48	0.07358
2903.12	0.08561
2912.77	0.11488
2922.41	0.15685
2932.06	0.20782
2941.7	0.27126
2951.35	0.33895
2960.99	0.36139
2970.64	0.21656
2980.28	0.13203
2989.93	0.09789
2999.57	0.08389
3009.22	0.07041
3018.86	0.06046
3028.51	0.05282
3038.15	0.04097
3047.8	0.03006
3057.44	0.02295
3067.09	0.01894
3076.73	0.01682
3086.38	0.01538
3096.02	0.0137
3105.67	0.01197
3115.31	0.01
3124.95	0.00803
3134.6	0.0067
3144.24	0.00573
3153.89	0.00457
3163.53	0.00414
3173.18	0.00353
3182.82	0.00311
3192.47	0.00267
3202.11	0.0023
3211.76	0.00176
3221.4	0.00151
3231.05	0.00114
3240.69	0.00121
3250.34	0.00106
3259.98	0.000857
3269.63	0.0008744
3279.27	0.0008252
3288.92	0.0007997
3298.56	0.0007406
3308.21	0.0006569
3317.85	0.0006657
3327.49	0.0006546
3337.14	0.0006454
3346.78	0.0006058
3356.43	0.0005676
3366.07	0.0006871
3375.72	0.0006694
3385.36	0.000839
3395.01	0.000942
3404.65	0.00102
3414.3	0.0009881
3423.94	0.00125
3433.59	0.00144
3443.23	0.00177
3452.88	0.00222
3462.52	0.00298
3472.17	0.00456
3481.81	0.00685
3491.46	0.00904
3501.1	0.00949
3510.75	0.00721
3520.39	0.00472
3530.04	0.00292
3539.68	0.00153
3549.32	0.00126
3558.97	0.0013
3568.61	0.00128
3578.26	0.00115
3587.9	0.000788
3597.55	0.0007588
3607.19	0.0005438
3616.84	0.0005059
3626.48	0.0005843
3636.13	0.0005546
3645.77	0.0005574
3655.42	0.0005851
3665.06	0.000558
3674.71	0.0004847
3684.35	0.0006203
3694	0.0005711
3703.64	0.0005993
3713.29	0.0005462
3722.93	0.000688
3732.58	0.0006182
3742.22	0.0006713
3751.86	0.0006786
3761.51	0.0006783
3771.15	0.0004609
3780.8	0.00084
3790.44	0.0007
3800.09	0.0007853
3809.73	0.0007522
3819.38	0.0008297
3829.02	0.00103
3838.67	0.00109
3848.31	0.00108
3857.96	0.0009434
3867.6	0.00116
3877.25	0.00114
3886.89	0.00117
3896.54	0.0009765
3906.18	0.00115
3915.83	0.00128
3925.47	0.0015
3935.12	0.0018
3944.76	0.00161
3954.41	0.00194
3964.05	0.00193
3973.69	0.00206
3983.34	0.00215
3992.98	0.00234
