Infrared Spectrum: all-trans-1,6-Diphenylhexatriene
Formula: C 18 H 16
CAS: 17329-15-6
State: gas
Origin: EPA-IR VAPOR PHASE LIBRARY
1/CM	ABSORBANCE
549.8	0.00143332
559.445	0.001195
569.09	0.0018786
578.734	0.001298
588.379	0.0015866
598.024	0.0017851
607.669	0.001725
617.313	0.0017168
626.958	0.00286
636.603	0.00283
646.248	0.0020192
655.893	0.0020734
665.537	0.00379
675.182	0.00595
684.827	0.01063
694.472	0.01234
704.116	0.0091
713.761	0.00573
723.406	0.00525
733.051	0.00727
742.695	0.01094
752.34	0.01084
761.985	0.00625
771.63	0.00357
781.275	0.00302
790.919	0.0023244
800.564	0.0019332
810.209	0.0018306
819.854	0.0016977
829.498	0.0019357
839.143	0.0024185
848.788	0.00269
858.433	0.00247
868.078	0.0022593
877.722	0.0023437
887.367	0.00263
897.012	0.00286
906.657	0.00315
916.301	0.00306
925.946	0.00278
935.591	0.003
945.236	0.00311
954.88	0.0041
964.525	0.00534
974.17	0.00881
983.815	0.01482
993.46	0.01283
1003.1	0.00565
1012.75	0.00318
1022.39	0.00324
1032.04	0.004
1041.68	0.0016788
1051.33	0.0024265
1060.97	0.0020332
1070.62	0.00265
1080.26	0.00286
1089.91	0.00278
1099.55	0.00252
1109.2	0.0019236
1118.84	0.00144075
1128.49	0.00147788
1138.13	0.0017146
1147.78	0.0018632
1157.42	0.001327
1167.07	0.0015995
1176.71	0.0019898
1186.36	0.0020167
1196	0.00042
1205.64	0.000884
1215.29	0.001119
1224.93	0.0019834
1234.58	0.001157
1244.22	0.000539
1253.87	0.0015946
1263.51	0.000929
1273.16	0.001287
1282.8	0.00145487
1292.45	0.0016724
1302.09	0.0019376
1311.74	0.0020237
1321.38	0.0020212
1331.03	0.0018265
1340.67	0.0016651
1350.32	0.0017741
1359.96	0.0018026
1369.61	0.0017401
1379.25	0.0017187
1388.9	0.001653
1398.54	0.0017516
1408.18	0.0018714
1417.83	0.0018852
1427.47	0.0020914
1437.12	0.00248
1446.76	0.00333
1456.41	0.00284
1466.05	0.00273
1475.7	0.0033
1485.34	0.0049
1494.99	0.00921
1504.63	0.00355
1514.28	0.0019304
1523.92	0.0018411
1533.57	0.0020468
1543.21	0.0015701
1552.86	0.0017902
1562.5	0.0020837
1572.15	0.00257
1581.79	0.0034
1591.44	0.00636
1601.08	0.00714
1610.73	0.00307
1620.37	0.0022594
1630.01	0.0020027
1639.66	0.0021913
1649.3	0.0024213
1658.95	0.0023873
1668.59	0.001943
1678.24	0.0018111
1687.88	0.0019205
1697.53	0.0019186
1707.17	0.0023309
1716.82	0.00262
1726.46	0.00279
1736.11	0.0021186
1745.75	0.0019687
1755.4	0.0018849
1765.04	0.0019076
1774.69	0.0022915
1784.33	0.00279
1793.98	0.00328
1803.62	0.0023768
1813.27	0.0021946
1822.91	0.0020779
1832.55	0.0018294
1842.2	0.0019937
1851.84	0.0024349
1861.49	0.00281
1871.13	0.00244
1880.78	0.00262
1890.42	0.0019516
1900.07	0.0018911
1909.71	0.0018784
1919.36	0.0020429
1929	0.0021665
1938.65	0.0023253
1948.29	0.00257
1957.94	0.0021031
1967.58	0.001625
1977.23	0.0016285
1986.87	0.00148423
1996.52	0.0015752
2006.16	0.00145578
2015.81	0.00149508
2025.45	0.00145632
2035.1	0.0015984
2044.74	0.0015411
2054.38	0.0015504
2064.03	0.001425
2073.67	0.00146883
2083.32	0.001339
2092.96	0.00150146
2102.61	0.00147209
2112.25	0.00151733
2121.9	0.0014241
2131.54	0.00150526
2141.19	0.00150971
2150.83	0.0016011
2160.48	0.0015886
2170.12	0.00146821
2179.77	0.0015982
2189.41	0.0015942
2199.06	0.001543
2208.7	0.00144811
2218.35	0.0013965
2227.99	0.00151254
2237.64	0.00151013
2247.28	0.0013904
2256.92	0.0015649
2266.57	0.0015325
2276.21	0.00145773
2285.86	0.0017218
2295.5	0.00150761
2305.15	0.00144434
2314.79	0.0016299
2324.44	0.00151918
2334.08	0.0015821
2343.73	0.0015406
2353.37	0.00152335
2363.02	0.0016022
2372.66	0.00146162
2382.31	0.001355
2391.95	0.0014179
2401.6	0.0014293
2411.24	0.0013978
2420.89	0.00151225
2430.53	0.0016186
2440.18	0.00149703
2449.82	0.00148875
2459.47	0.0014226
2469.11	0.00145835
2478.75	0.00150103
2488.4	0.0015513
2498.04	0.0015499
2507.69	0.00146243
2517.33	0.0015604
2526.98	0.0014066
2536.62	0.0015437
2546.27	0.0016292
2555.91	0.0015716
2565.56	0.00150844
2575.2	0.0015755
2584.85	0.00146534
2594.49	0.0014259
2604.14	0.0015503
2613.78	0.0014116
2623.43	0.0013661
2633.07	0.0015677
2642.72	0.00149932
2652.36	0.0016101
2662.01	0.0014869
2671.65	0.00145718
2681.29	0.00148743
2690.94	0.0015682
2700.58	0.0016446
2710.23	0.00150446
2719.87	0.0014262
2729.52	0.00143623
2739.16	0.00148094
2748.81	0.00143633
2758.45	0.001405
2768.1	0.0015991
2777.74	0.00153166
2787.39	0.00143516
2797.03	0.0017243
2806.68	0.00153067
2816.32	0.0017346
2825.97	0.0016596
2835.61	0.0019718
2845.26	0.0016349
2854.9	0.0017296
2864.55	0.0018217
2874.19	0.0018832
2883.84	0.0017367
2893.48	0.0019885
2903.12	0.0022572
2912.77	0.002283
2922.41	0.0021554
2932.06	0.0022847
2941.7	0.0021271
2951.35	0.0021251
2960.99	0.0019734
2970.64	0.0022556
2980.28	0.00249
2989.93	0.00334
2999.57	0.00458
3009.22	0.00681
3018.86	0.01471
3028.51	0.02042
3038.15	0.01209
3047.8	0.00824
3057.44	0.00868
3067.09	0.01717
3076.73	0.01063
3086.38	0.00861
3096.02	0.0063
3105.67	0.00443
3115.31	0.00289
3124.95	0.0022307
3134.6	0.0017614
3144.24	0.0022627
3153.89	0.001836
3163.53	0.0016557
3173.18	0.0015639
3182.82	0.0013415
3192.47	0.0017692
3202.11	0.00146408
3211.76	0.0016935
3221.4	0.0016233
3231.05	0.001415
3240.69	0.00148012
3250.34	0.00146448
3259.98	0.0015816
3269.63	0.001223
3279.27	0.00145074
3288.92	0.001648
3298.56	0.001256
3308.21	0.00150302
3317.85	0.001306
3327.49	0.0016503
3337.14	0.0016002
3346.78	0.001122
3356.43	0.00150395
3366.07	0.001181
3375.72	0.00151044
3385.36	0.0016617
3395.01	0.001338
3404.65	0.0018499
3414.3	0.0015598
3423.94	0.0014003
3433.59	0.00126
3443.23	0.00150207
3452.88	0.001212
3462.52	0.001248
3472.17	0.001218
3481.81	0.00148286
3491.46	0.00149971
3501.1	0.00150829
3510.75	0.00144677
3520.39	0.001634
3530.04	0.00153679
3539.68	0.0013904
3549.32	0.0017149
3558.97	0.001322
3568.61	0.001339
3578.26	0.0013429
3587.9	0.0013642
3597.55	0.00147783
3607.19	0.0016107
3616.84	0.001321
3626.48	0.0015485
3636.13	0.0017657
3645.77	0.0016157
3655.42	0.001028
3665.06	0.0015451
3674.71	0.001247
3684.35	0.0016344
3694	0.0015786
3703.64	0.0013449
3713.29	0.0013545
3722.93	0.0015703
3732.58	0.00145661
3742.22	0.0013673
3751.86	0.001312
3761.51	0.00146311
3771.15	0.001272
3780.8	0.001239
3790.44	0.00148169
3800.09	0.0014078
3809.73	0.001268
3819.38	0.0014267
3829.02	0.00114
3838.67	0.0015884
3848.31	0.0014123
3857.96	0.0014145
3867.6	0.0013591
3877.25	0.0018145
3886.89	0.0018519
3896.54	0.001292
3906.18	0.0016538
3915.83	0.001281
3925.47	0.001178
3935.12	0.00147008
3944.76	0.001128
3954.41	0.0017845
3964.05	0.001191
3973.69	0.001246
3983.34	0.00143444
3992.98	0.0016695
