Infrared Spectrum: PHOSPHORAMIDOTHIOIC ACID, O,O-DIETHYL ESTER
Formula: C4 H12 N O2 P S
CAS: 17321-48-1
State: SOLUTION (10% IN CCl4 FOR 3800-1330, 10% IN CS2 FOR 1330-400 CM^-^1)
Class: COBLENTZ III
Instrument: DOW KBr FOREPRISM-GRATING
Instrument parameters: BLAZED AT 3.5, 12.0, 20.0 MICRON, CHANGED AT 5.0, 7.5, 14.9 MICRON
Sampling: TRANSMISSION
Path length: 0.010, 0.010 CM
Resolution: 4
Origin: DOW CHEMICAL COMPANY
1/CM	TRANSMITTANCE
380.98	0.153
389.731	0.16
398.483	0.21
407.234	0.403
415.986	0.54
424.737	0.578
433.489	0.582
442.24	0.592
450.992	0.616
459.743	0.637
468.495	0.656
477.246	0.668
485.998	0.679
494.749	0.708
503.5	0.749
512.252	0.775
521.003	0.793
529.755	0.804
538.506	0.812
547.258	0.823
556.009	0.829
564.761	0.822
573.512	0.818
582.264	0.826
591.015	0.813
599.767	0.725
608.518	0.447
617.269	0.273
626.021	0.481
634.772	0.653
643.524	0.678
652.275	0.708
661.027	0.807
669.778	0.816
678.53	0.834
687.281	0.842
696.033	0.846
704.784	0.845
713.536	0.842
722.287	0.826
731.038	0.8
739.79	0.74
748.541	0.611
757.293	0.331
766.044	0.106
774.796	0.05
783.547	0.042
792.299	0.058
801.05	0.14
809.802	0.229
818.553	0.432
827.305	0.604
836.056	0.677
844.807	0.662
853.559	0.614
862.31	0.621
871.062	0.618
879.813	0.581
888.565	0.506
897.316	0.362
906.068	0.218
914.819	0.105
923.571	0.106
932.322	0.086
941.073	0.041
949.825	0.013
958.576	0.008
967.328	0.015
976.079	0.028
984.831	0.051
993.582	0.135
1002.33	0.175
1011.09	0.09
1019.84	0.01
1028.59	0.004
1037.34	0.01
1046.09	0.027
1054.84	0.028
1063.59	0.032
1072.35	0.187
1081.1	0.367
1089.85	0.383
1098.6	0.254
1107.35	0.443
1116.1	0.616
1124.85	0.692
1133.61	0.716
1142.36	0.707
1151.11	0.608
1159.86	0.38
1168.61	0.473
1177.36	0.748
1186.11	0.835
1194.87	0.879
1203.62	0.89
1212.37	0.889
1221.12	0.883
1229.87	0.859
1238.62	0.846
1247.37	0.835
1256.13	0.861
1264.88	0.844
1273.63	0.856
1282.38	0.85
1291.13	0.819
1299.88	0.848
1308.63	0.898
1317.39	0.926
1326.14	0.928
1334.89	0.924
1343.64	0.926
1352.39	0.919
1361.14	0.893
1369.9	0.813
1378.65	0.794
1387.4	0.562
1396.15	0.352
1404.9	0.775
1413.65	0.849
1422.4	0.845
1431.16	0.804
1439.91	0.692
1448.66	0.556
1457.41	0.66
1466.16	0.746
1474.91	0.649
1483.66	0.621
1492.42	0.783
1501.17	0.759
1509.92	0.707
1518.67	0.629
1527.42	0.456
1536.17	0.186
1544.92	0.117
1553.68	0.224
1562.43	0.425
1571.18	0.573
1579.93	0.645
1588.68	0.693
1597.43	0.768
1606.18	0.853
1614.94	0.901
1623.69	0.923
1632.44	0.945
1641.19	0.954
1649.94	0.956
1658.69	0.956
1667.44	0.954
1676.2	0.953
1684.95	0.95
1693.7	0.949
1702.45	0.946
1711.2	0.946
1719.95	0.938
1728.7	0.932
1737.46	0.922
1746.21	0.924
1754.96	0.932
1763.71	0.941
1772.46	0.946
1781.21	0.945
1789.97	0.937
1798.72	0.93
1807.47	0.919
1816.22	0.912
1824.97	0.904
1833.72	0.906
1842.47	0.913
1851.23	0.92
1859.98	0.934
1868.73	0.945
1877.48	0.957
1886.23	0.967
1894.98	0.969
1903.73	0.972
1912.49	0.972
1921.24	0.974
1929.99	0.975
1938.74	0.974
1947.49	0.975
1956.24	0.978
1964.99	0.975
1973.75	0.969
1982.5	0.969
1991.25	0.972
2000	0.976
2008.75	0.979
2017.5	0.979
2026.25	0.979
2035.01	0.978
2043.76	0.976
2052.51	0.979
2061.26	0.978
2070.01	0.978
2078.76	0.9762
2087.51	0.976
2096.27	0.9789
2105.02	0.978
2113.77	0.976
2122.52	0.978
2131.27	0.9752
2140.02	0.976
2148.78	0.978
2157.53	0.974
2166.28	0.972
2175.03	0.972
2183.78	0.971
2192.53	0.971
2201.28	0.971
2210.04	0.9717
2218.79	0.972
2227.54	0.971
2236.29	0.969
2245.04	0.967
2253.79	0.9603
2262.54	0.9547
2271.3	0.952
2280.05	0.9484
2288.8	0.945
2297.55	0.943
2306.3	0.945
2315.05	0.9424
2323.8	0.9414
2332.56	0.939
2341.31	0.943
2350.06	0.9446
2358.81	0.946
2367.56	0.951
2376.31	0.955
2385.06	0.958
2393.82	0.958
2402.57	0.9575
2411.32	0.956
2420.07	0.954
2428.82	0.9517
2437.57	0.946
2446.32	0.943
2455.08	0.9386
2463.83	0.9346
2472.58	0.935
2481.33	0.937
2490.08	0.937
2498.83	0.9373
2507.58	0.9356
2516.34	0.934
2525.09	0.935
2533.84	0.935
2542.59	0.939
2551.34	0.942
2560.09	0.945
2568.85	0.9435
2577.6	0.946
2586.35	0.948
2595.1	0.945
2603.85	0.9422
2612.6	0.946
2621.35	0.9452
2630.11	0.943
2638.86	0.945
2647.61	0.945
2656.36	0.946
2665.11	0.945
2673.86	0.946
2682.61	0.945
2691.37	0.945
2700.12	0.9429
2708.87	0.9389
2717.62	0.9279
2726.37	0.9219
2735.12	0.911
2743.87	0.917
2752.63	0.92
2761.38	0.911
2770.13	0.906
2778.88	0.9169
2787.63	0.922
2796.38	0.919
2805.13	0.9082
2813.89	0.8912
2822.64	0.8909
2831.39	0.8901
2840.14	0.876
2848.89	0.8749
2857.64	0.8488
2866.39	0.7366
2875.15	0.7478
2883.9	0.7433
2892.65	0.5757
2901.4	0.4013
2910.15	0.5196
2918.9	0.6613
2927.66	0.5355
2936.41	0.4923
2945.16	0.5202
2953.91	0.5387
2962.66	0.4838
2971.41	0.3602
2980.16	0.1646
2988.92	0.1527
2997.67	0.2521
3006.42	0.5574
3015.17	0.7378
3023.92	0.8139
3032.67	0.8441
3041.42	0.8602
3050.18	0.8618
3058.93	0.856
3067.68	0.852
3076.43	0.852
3085.18	0.8556
3093.93	0.8645
3102.68	0.8745
3111.44	0.8826
3120.19	0.889
3128.94	0.891
3137.69	0.8905
3146.44	0.8881
3155.19	0.8855
3163.94	0.882
3172.7	0.8756
3181.45	0.8679
3190.2	0.8558
3198.95	0.8432
3207.7	0.8149
3216.45	0.7845
3225.2	0.7538
3233.96	0.7239
3242.71	0.676
3251.46	0.635
3260.21	0.5792
3268.96	0.5363
3277.71	0.5034
3286.46	0.4777
3295.22	0.4639
3303.97	0.455
3312.72	0.4582
3321.47	0.4652
3330.22	0.466
3338.97	0.4612
3347.73	0.4496
3356.48	0.445
3365.23	0.458
3373.98	0.4435
3382.73	0.3623
3391.48	0.3541
3400.23	0.5488
3408.99	0.6422
3417.74	0.6299
3426.49	0.6005
3435.24	0.5615
3443.99	0.5258
3452.74	0.5018
3461.49	0.4763
3470.25	0.4277
3479	0.3979
3487.75	0.4021
3496.5	0.5361
3505.25	0.7623
3514	0.8477
3522.75	0.8758
3531.51	0.8929
3540.26	0.9019
3549.01	0.9109
3557.76	0.916
3566.51	0.919
3575.26	0.9229
3584.01	0.923
3592.77	0.926
3601.52	0.927
3610.27	0.924
3619.02	0.923
3627.77	0.9222
3636.52	0.9256
3645.27	0.9222
3654.03	0.9194
3662.78	0.923
3671.53	0.919
3680.28	0.9215
3689.03	0.9135
3697.78	0.923
3706.54	0.9267
3715.29	0.9303
3724.04	0.932
3732.79	0.9313
3741.54	0.9294
3750.29	0.9317
3759.04	0.9347
3767.8	0.934
3776.55	0.935
3785.3	0.935
3794.05	0.9344
