Infrared Spectrum: Naphthalene, 1,5-bis(chloromethyl)-
Formula: C12 H10 Cl2
CAS: 1733-76-2
State: SOLID (SPLIT MULL), FLUOROLUBE FOR 3800-1330 CM^-^1, NUJOL FOR 1330-450 CM^-^1
Melting point: 172 C
Class: COBLENTZ III
Instrument: DOW KBr FOREPRISM-GRATING
Instrument parameters: BLAZED AT 3.5, 12.0, 20.0 MICRON AND CHANGED AT 5.0, 7.5, 14.9 MICRON
Sampling: TRANSMISSION
Resolution: 2
Origin: DOW CHEMICAL COMPANY
1/CM	TRANSMITTANCE
450	0.8011
459	0.7953
468	0.7804
477	0.8241
486	0.8278
495	0.8313
504	0.8278
513	0.8132
522	0.7499
531	0.733
540	0.8273
549	0.8293
558	0.8154
567	0.7825
576	0.3414
585	0.8505
594	0.8471
603	0.8301
612	0.7844
621	0.5722
630	0.375
639	0.8071
648	0.857
657	0.8609
666	0.8557
675	0.8418
684	0.8043
693	0.8048
702	0.713
711	0.3426
720	0.5778
729	0.7536
738	0.7851
747	0.793
756	0.7839
765	0.7576
774	0.7154
783	0.3788
792	0.2069
801	0.7244
810	0.8051
819	0.8111
828	0.8161
837	0.8203
846	0.8191
855	0.8244
864	0.8196
873	0.7911
882	0.6712
891	0.8086
900	0.8039
909	0.7033
918	0.8026
927	0.7799
936	0.7692
945	0.7958
954	0.7886
963	0.7788
972	0.7258
981	0.7904
990	0.7937
999	0.7908
1008	0.7892
1017	0.7878
1026	0.7841
1035	0.7761
1044	0.7753
1053	0.7783
1062	0.7644
1071	0.7732
1080	0.7811
1089	0.7841
1098	0.7849
1107	0.7854
1116	0.7842
1125	0.7755
1134	0.7112
1143	0.75
1152	0.7658
1161	0.7492
1170	0.7008
1179	0.7665
1188	0.7791
1197	0.7725
1206	0.7282
1215	0.7472
1224	0.7655
1233	0.7261
1242	0.4523
1251	0.7415
1260	0.663
1269	0.6158
1278	0.7265
1287	0.7317
1296	0.7224
1305	0.7205
1314	0.7249
1323	0.7335
1332	0.7153
1341	0.6878
1350	0.6721
1359	0.7664
1368	0.7901
1377	0.7885
1386	0.786
1395	0.7851
1404	0.7733
1413	0.7636
1422	0.7871
1431	0.7749
1440	0.7347
1449	0.3762
1458	0.7943
1467	0.8178
1476	0.8176
1485	0.8099
1494	0.8036
1503	0.7851
1512	0.6806
1521	0.8259
1530	0.8146
1539	0.8221
1548	0.8182
1557	0.8206
1566	0.82
1575	0.8178
1584	0.8065
1593	0.7708
1602	0.8136
1611	0.8099
1620	0.8008
1629	0.8061
1638	0.8024
1647	0.796
1656	0.7996
1665	0.8017
1674	0.7953
1683	0.7901
1692	0.7857
1701	0.7836
1710	0.7801
1719	0.7938
1728	0.7789
1737	0.7697
1746	0.7799
1755	0.7797
1764	0.769
1773	0.7651
1782	0.7701
1791	0.7705
1800	0.7661
1809	0.765
1818	0.7561
1827	0.753
1836	0.7621
1845	0.7625
1854	0.7553
1863	0.7535
1872	0.7501
1881	0.7404
1890	0.7401
1899	0.7525
1908	0.7505
1917	0.7474
1926	0.7441
1935	0.7364
1944	0.7003
1953	0.7361
1962	0.746
1971	0.7449
1980	0.7431
1989	0.7211
1998	0.7297
2007	0.7372
2016	0.7358
2025	0.7331
2034	0.7308
2043	0.7287
2052	0.7261
2061	0.7236
2070	0.7211
2079	0.7188
2088	0.7158
2097	0.713
2106	0.7101
2115	0.7075
2124	0.705
2133	0.7024
2142	0.6996
2151	0.6965
2160	0.6936
2169	0.6905
2178	0.6872
2187	0.6841
2196	0.6808
2205	0.6775
2214	0.6742
2223	0.6708
2232	0.6675
2241	0.6643
2250	0.6611
2259	0.6581
2268	0.6554
2277	0.653
2286	0.6507
2295	0.6478
2304	0.6447
2313	0.6418
2322	0.6398
2331	0.6382
2340	0.6436
2349	0.6453
2358	0.6446
2367	0.6445
2376	0.6445
2385	0.6431
2394	0.6422
2403	0.6415
2412	0.6408
2421	0.64
2430	0.6393
2439	0.6385
2448	0.6374
2457	0.6362
2466	0.6345
2475	0.6329
2484	0.6314
2493	0.6297
2502	0.6282
2511	0.6272
2520	0.626
2529	0.6249
2538	0.6238
2547	0.6225
2556	0.6212
2565	0.6199
2574	0.6183
2583	0.6166
2592	0.615
2601	0.6135
2610	0.6121
2619	0.6106
2628	0.6086
2637	0.6062
2646	0.604
2655	0.6016
2664	0.5991
2673	0.5965
2682	0.594
2691	0.5914
2700	0.5895
2709	0.5877
2718	0.5859
2727	0.5841
2736	0.5825
2745	0.5809
2754	0.5793
2763	0.5777
2772	0.5757
2781	0.5736
2790	0.5716
2799	0.5693
2808	0.567
2817	0.5647
2826	0.562
2835	0.5588
2844	0.5549
2853	0.5516
2862	0.5497
2871	0.5476
2880	0.5435
2889	0.543
2898	0.5415
2907	0.5366
2916	0.5322
2925	0.5296
2934	0.5286
2943	0.5266
2952	0.5212
2961	0.5102
2970	0.5104
2979	0.5292
2988	0.5302
2997	0.5269
3006	0.5232
3015	0.5192
3024	0.5137
3033	0.5087
3042	0.5101
3051	0.5126
3060	0.5112
3069	0.5076
3078	0.5108
3087	0.5167
3096	0.5168
3105	0.5162
3114	0.5153
3123	0.5142
3132	0.5131
3141	0.5119
3150	0.5108
3159	0.5091
3168	0.5071
3177	0.5052
3186	0.5032
3195	0.501
3204	0.4991
3213	0.4971
3222	0.4951
3231	0.4933
3240	0.4915
3249	0.4897
3258	0.4879
3267	0.4862
3276	0.4845
3285	0.4829
3294	0.4814
3303	0.4798
3312	0.4783
3321	0.4767
3330	0.4751
3339	0.4736
3348	0.4721
3357	0.4705
3366	0.469
3375	0.4674
3384	0.4659
3393	0.4644
3402	0.4633
3411	0.4622
3420	0.461
3429	0.46
3438	0.459
3447	0.4579
3456	0.4568
3465	0.4556
3474	0.4544
3483	0.4531
3492	0.4519
3501	0.4507
3510	0.4495
3519	0.4483
3528	0.4471
3537	0.4459
3546	0.4447
3555	0.4435
3564	0.4425
3573	0.4416
3582	0.441
3591	0.4396
3600	0.4404
3609	0.4376
3618	0.436
3627	0.4356
3636	0.435
3645	0.4343
3654	0.4333
3663	0.4322
3672	0.429
3681	0.4244
3690	0.4253
3699	0.4257
3708	0.4246
3717	0.4237
3726	0.4232
3735	0.4217
3744	0.4204
3753	0.4188
3762	0.417
3771	0.4151
3780	0.4144
3789	0.4141
3798	0.4139
