Infrared Spectrum: Ethyl diphenyl phosphine oxide
Formula: C 14 H 15 O P
CAS: 1733-57-9
State: gas
Origin: EPA-IR VAPOR PHASE LIBRARY
1/CM	ABSORBANCE
549.8	0.018079
559.445	0.004179
569.09	0.002139
578.735	0.001549
588.38	0.0008105
598.025	0.0009859
607.67	0.000817
617.315	0.0012594
626.96	0.0009143
636.605	0.0011631
646.251	0.001889
655.896	0.004579
665.541	0.010879
675.186	0.011959
684.831	0.014499
694.476	0.025559
704.121	0.037019
713.766	0.061989
723.411	0.032139
733.056	0.022819
742.701	0.019289
752.346	0.020479
761.991	0.017009
771.636	0.006559
781.281	0.003789
790.926	0.002449
800.571	0.001639
810.216	0.001339
819.861	0.0011306
829.507	0.000962
839.152	0.0007901
848.797	0.0007358
858.442	0.0006724
868.087	0.0005687
877.732	0.0006286
887.377	0.0005695
897.022	0.0005204
906.667	0.0006666
916.312	0.0006284
925.957	0.0007704
935.602	0.0006472
945.247	0.0006445
954.892	0.0009315
964.537	0.0012574
974.182	0.001789
983.827	0.002769
993.472	0.005869
1003.12	0.004929
1012.76	0.003669
1022.41	0.007919
1032.05	0.008149
1041.7	0.003129
1051.34	0.002199
1060.99	0.003209
1070.63	0.003309
1080.28	0.003339
1089.92	0.005939
1099.57	0.013489
1109.21	0.030669
1118.86	0.035259
1128.5	0.010429
1138.15	0.003859
1147.79	0.002129
1157.44	0.002029
1167.08	0.002179
1176.73	0.004179
1186.37	0.006629
1196.02	0.010219
1205.66	0.028979
1215.31	0.044799
1224.95	0.023509
1234.6	0.014449
1244.24	0.009889
1253.89	0.007799
1263.53	0.006379
1273.18	0.004569
1282.82	0.003199
1292.47	0.002479
1302.11	0.002569
1311.76	0.002319
1321.4	0.002209
1331.05	0.002229
1340.69	0.001629
1350.34	0.0013238
1359.98	0.001479
1369.63	0.001659
1379.27	0.002149
1388.92	0.002339
1398.56	0.002639
1408.21	0.004019
1417.85	0.004679
1427.5	0.006969
1437.14	0.011909
1446.79	0.007809
1456.43	0.004439
1466.08	0.003969
1475.73	0.003369
1485.37	0.003389
1495.02	0.001919
1504.66	0.0010431
1514.31	0.000956
1523.95	0.0009765
1533.6	0.0009978
1543.24	0.0010503
1552.89	0.0010472
1562.53	0.0011057
1572.18	0.0012701
1581.82	0.001609
1591.47	0.001939
1601.11	0.001419
1610.76	0.0011196
1620.4	0.0009161
1630.05	0.000861
1639.69	0.0009545
1649.34	0.0011655
1658.98	0.001369
1668.63	0.001349
1678.27	0.00104
1687.92	0.0007647
1697.56	0.0006631
1707.21	0.0006617
1716.85	0.0006785
1726.5	0.0006487
1736.14	0.0006838
1745.79	0.0007841
1755.43	0.0009618
1765.08	0.0011178
1774.72	0.0011065
1784.37	0.0009217
1794.01	0.0010765
1803.66	0.001829
1813.3	0.002339
1822.95	0.001699
1832.59	0.0012584
1842.24	0.0008894
1851.88	0.0008144
1861.53	0.0009012
1871.17	0.0010917
1880.82	0.001579
1890.46	0.001899
1900.11	0.001879
1909.75	0.001389
1919.4	0.000982
1929.04	0.0009607
1938.69	0.001092
1948.33	0.001659
1957.98	0.002049
1967.62	0.001849
1977.27	0.0012616
1986.91	0.0006994
1996.56	0.0005866
2006.2	0.0005629
2015.85	0.0005599
2025.49	0.0005134
2035.14	0.0005357
2044.78	0.0004942
2054.43	0.0005547
2064.07	0.0005375
2073.72	0.0004713
2083.36	0.0005135
2093.01	0.0005351
2102.65	0.0005633
2112.3	0.0005394
2121.94	0.0005169
2131.59	0.0005788
2141.23	0.000586
2150.88	0.0006051
2160.52	0.000579
2170.17	0.0005883
2179.81	0.0005771
2189.46	0.0006298
2199.1	0.0006576
2208.75	0.0007671
2218.39	0.0007981
2228.04	0.0007717
2237.68	0.0006886
2247.33	0.0006832
2256.97	0.0006442
2266.62	0.0005896
2276.26	0.0006353
2285.91	0.000684
2295.55	0.0006427
2305.2	0.0007171
2314.84	0.0010177
2324.49	0.000884
2334.13	0.0006996
2343.78	0.0007712
2353.42	0.0007375
2363.07	0.00069
2372.72	0.0007419
2382.36	0.0006661
2392.01	0.000699
2401.65	0.0006884
2411.3	0.0007262
2420.94	0.000734
2430.59	0.0007236
2440.23	0.0006411
2449.88	0.0006202
2459.52	0.0006052
2469.17	0.0007064
2478.81	0.0006726
2488.46	0.0005438
2498.1	0.0006061
2507.75	0.0006112
2517.39	0.0004913
2527.04	0.000596
2536.68	0.0006074
2546.33	0.0006007
2555.97	0.0005888
2565.62	0.0006654
2575.26	0.0007066
2584.91	0.0008644
2594.55	0.0007491
2604.2	0.000777
2613.84	0.0007403
2623.49	0.0006735
2633.13	0.0006574
2642.78	0.0007191
2652.42	0.0006784
2662.07	0.0007164
2671.71	0.0006188
2681.36	0.0008498
2691	0.0009577
2700.65	0.0008825
2710.29	0.0009128
2719.94	0.0007118
2729.58	0.0006335
2739.23	0.0006887
2748.87	0.0007784
2758.52	0.0007351
2768.16	0.0006388
2777.81	0.0007696
2787.45	0.000733
2797.1	0.0009135
2806.74	0.0008883
2816.39	0.0010256
2826.03	0.0010044
2835.68	0.0010332
2845.32	0.0011487
2854.97	0.001359
2864.61	0.001639
2874.26	0.002179
2883.9	0.004229
2893.55	0.005749
2903.19	0.004349
2912.84	0.005349
2922.48	0.006239
2932.13	0.004899
2941.77	0.008459
2951.42	0.009419
2961.06	0.005269
2970.71	0.007199
2980.35	0.009999
2990	0.006929
2999.64	0.004499
3009.29	0.004679
3018.93	0.005599
3028.58	0.005939
3038.22	0.005259
3047.87	0.006839
3057.51	0.015259
3067.16	0.023769
3076.8	0.015819
3086.45	0.011989
3096.09	0.006729
3105.74	0.003349
3115.38	0.001809
3125.03	0.001419
3134.67	0.001369
3144.32	0.001499
3153.96	0.001349
3163.61	0.0007855
3173.25	0.0006978
3182.9	0.0004561
3192.54	0.00040701
3202.19	0.0004933
3211.83	0.00037701
3221.48	0.00040413
3231.12	0.0003088
3240.77	0.000342095
3250.41	0.0003017
3260.06	0.000209
3269.7	0.0002975
3279.35	0.000163
3289	9.6e-05
3298.64	0.0002633
3308.29	5.3e-05
3317.93	0.000152
3327.58	0.000223
3337.22	0.000204
3346.87	0.000217
3356.51	0.0002737
3366.16	0.000234
3375.8	0.000193
3385.45	0.000197
3395.09	0.000154
3404.74	0.00034949
3414.38	0.0002752
3424.03	1.2e-05
3433.67	0.000174
3443.32	0.000168
3452.96	9.4e-05
3462.61	4.9e-05
3472.25	0.000155
3481.9	0.0002507
3491.54	0.0002
3501.19	1e-05
3510.83	0.000153
3520.48	0.000203
3530.12	0.000158
3539.77	0.00016
3549.41	0.000161
3559.06	8.7e-05
3568.7	0.000201
3578.35	0.000144
3587.99	0.0002612
3597.64	0.000109
3607.28	0.000228
3616.93	0.000158
3626.57	0.00040127
3636.22	0.0002526
3645.86	0.0003045
3655.51	0.0003222
3665.15	0.0003017
3674.8	0.000187
3684.44	0.0002919
3694.09	0.0004984
3703.73	0.000195
3713.38	0.000221
3723.02	0.00035363
3732.67	0.00035827
3742.31	0.000204
3751.96	0.000223
3761.6	0.00036221
3771.25	0.0003031
3780.89	0.0004454
3790.54	0.000238
3800.18	0.0003124
3809.83	0.000205
3819.47	0.000235
3829.12	0.000233
3838.76	0.000124
3848.41	0.000131
3858.05	0.000187
3867.7	0.00023
3877.34	0.000148
3886.99	0.0002609
3896.63	0.0002444
3906.28	0.0003274
3915.92	0.00036578
3925.57	0.000288
3935.21	0.0005397
3944.86	0.00039354
3954.5	0.0002777
3964.15	0.0004636
3973.79	0.00036913
3983.44	0.00039207
3993.08	0.0002696
