Infrared Spectrum: 4-Nitrocinnamaldehyde
Formula: C 9 H 7 N O 3
CAS: 1734-79-8
State: gas
Origin: EPA-IR VAPOR PHASE LIBRARY
1/CM	ABSORBANCE
549.9	0.00433
559.547	0.00488
569.193	0.00673
578.84	0.01103
588.486	0.00946
598.133	0.00747
607.779	0.00751
617.426	0.00447
627.072	0.0038994
636.719	0.0037383
646.365	0.0035395
656.012	0.00523
665.658	0.00939
675.305	0.00979
684.951	0.0102
694.598	0.00894
704.245	0.00721
713.891	0.00769
723.538	0.01876
733.184	0.02925
742.831	0.02659
752.477	0.01653
762.124	0.00746
771.77	0.00499
781.417	0.00496
791.063	0.00579
800.71	0.00909
810.356	0.01829
820.003	0.03923
829.649	0.03294
839.296	0.0214
848.943	0.02692
858.589	0.05034
868.236	0.04047
877.882	0.01779
887.529	0.0084
897.175	0.00612
906.822	0.00594
916.468	0.0059
926.115	0.00682
935.761	0.00973
945.408	0.01635
955.054	0.03041
964.701	0.04269
974.347	0.03576
983.994	0.0238
993.64	0.01411
1003.29	0.01199
1012.93	0.01694
1022.58	0.00842
1032.23	0.00607
1041.87	0.00676
1051.52	0.00783
1061.17	0.00968
1070.81	0.01549
1080.46	0.02897
1090.11	0.05322
1099.75	0.09368
1109.4	0.09732
1119.05	0.06625
1128.69	0.02439
1138.34	0.01088
1147.99	0.0075
1157.63	0.00619
1167.28	0.00594
1176.92	0.00755
1186.57	0.00843
1196.22	0.00785
1205.86	0.00684
1215.51	0.00734
1225.16	0.00819
1234.8	0.00764
1244.45	0.0064
1254.1	0.00655
1263.74	0.01026
1273.39	0.01548
1283.04	0.02656
1292.68	0.0327
1302.33	0.02559
1311.98	0.02785
1321.62	0.03068
1331.27	0.04892
1340.92	0.13063
1350.56	0.21015
1360.21	0.10945
1369.86	0.05
1379.5	0.02717
1389.15	0.01772
1398.79	0.01421
1408.44	0.01308
1418.09	0.01152
1427.73	0.00768
1437.38	0.0068
1447.03	0.00725
1456.67	0.00803
1466.32	0.00892
1475.97	0.01195
1485.61	0.02046
1495.26	0.03045
1504.91	0.02434
1514.55	0.03497
1524.2	0.07802
1533.85	0.14052
1543.49	0.14422
1553.14	0.08245
1562.79	0.03954
1572.43	0.02953
1582.08	0.03736
1591.73	0.06418
1601.37	0.07285
1611.02	0.05567
1620.67	0.05442
1630.31	0.03486
1639.96	0.01978
1649.6	0.01439
1659.25	0.0142
1668.9	0.02038
1678.54	0.02813
1688.19	0.03934
1697.84	0.07083
1707.48	0.28482
1717.13	0.26988
1726.78	0.04196
1736.42	0.01789
1746.07	0.01399
1755.72	0.01109
1765.36	0.00837
1775.01	0.00802
1784.66	0.00944
1794.3	0.00849
1803.95	0.00565
1813.6	0.00443
1823.24	0.0039446
1832.89	0.0035498
1842.54	0.0031879
1852.18	0.00300047
1861.83	0.0029896
1871.47	0.0029549
1881.12	0.00302991
1890.77	0.0034207
1900.41	0.00428
1910.06	0.00563
1919.71	0.00618
1929.35	0.00521
1939	0.0038715
1948.65	0.0033312
1958.29	0.0033558
1967.94	0.0036345
1977.59	0.0036563
1987.23	0.00299503
1996.88	0.002437
2006.53	0.002205
2016.17	0.002129
2025.82	0.002086
2035.47	0.00205
2045.11	0.002065
2054.76	0.00199
2064.41	0.00194
2074.05	0.00189
2083.7	0.00187
2093.35	0.0019
2102.99	0.00189
2112.64	0.00191
2122.28	0.00199
2131.93	0.002018
2141.58	0.002081
2151.22	0.002173
2160.87	0.002227
2170.52	0.002375
2180.16	0.002663
2189.81	0.0029891
2199.46	0.0032887
2209.1	0.0033003
2218.75	0.00301005
2228.4	0.002539
2238.04	0.002199
2247.69	0.00191
2257.34	0.00195
2266.98	0.00197
2276.63	0.002045
2286.28	0.002129
2295.92	0.002061
2305.57	0.00186
2315.22	0.00172
2324.86	0.00168
2334.51	0.00163
2344.16	0.00172
2353.8	0.00178
2363.45	0.00192
2373.09	0.00182
2382.74	0.00195
2392.39	0.00187
2402.03	0.00183
2411.68	0.00181
2421.33	0.0017
2430.97	0.00189
2440.62	0.002094
2450.27	0.002378
2459.91	0.002424
2469.56	0.002274
2479.21	0.002001
2488.85	0.00179
2498.5	0.00171
2508.15	0.00163
2517.79	0.00159
2527.44	0.00158
2537.09	0.00158
2546.73	0.00156
2556.38	0.00175
2566.03	0.00177
2575.67	0.00182
2585.32	0.0018
2594.96	0.002
2604.61	0.002252
2614.26	0.002437
2623.9	0.002507
2633.55	0.002762
2643.2	0.002826
2652.84	0.002879
2662.49	0.0033033
2672.14	0.00435
2681.78	0.00691
2691.43	0.0104
2701.08	0.01304
2710.72	0.01638
2720.37	0.02138
2730.02	0.02308
2739.66	0.02337
2749.31	0.02023
2758.96	0.01071
2768.6	0.00846
2778.25	0.01025
2787.9	0.01538
2797.54	0.02152
2807.19	0.02759
2816.84	0.02766
2826.48	0.0261
2836.13	0.02391
2845.77	0.01134
2855.42	0.00668
2865.07	0.0057
2874.71	0.00583
2884.36	0.00549
2894.01	0.00469
2903.65	0.0039629
2913.3	0.0033426
2922.95	0.002637
2932.59	0.002856
2942.24	0.002781
2951.89	0.002622
2961.53	0.002204
2971.18	0.00199
2980.83	0.002509
2990.47	0.0039993
3000.12	0.00556
3009.77	0.00447
3019.41	0.0038771
3029.06	0.0032615
3038.71	0.0039852
3048.35	0.00652
3058	0.00828
3067.64	0.00774
3077.29	0.00678
3086.94	0.00598
3096.58	0.002288
3106.23	0.00109
3115.88	0.00079
3125.52	0.00052
3135.17	0.00043
3144.82	0.00029
3154.46	0.00028
3164.11	0.00019
3173.76	0.00022
3183.4	0.00033
3193.05	0.00059
3202.7	0.00056
3212.34	0.00034
3221.99	0.00034
3231.64	0.00036
3241.28	0.00036
3250.93	0.00041
3260.58	0.00041
3270.22	0.00057
3279.87	0.00046
3289.52	0.00058
3299.16	0.00059
3308.81	0.00073
3318.45	0.00114
3328.1	0.00102
3337.75	0.00119
3347.39	0.00126
3357.04	0.00139
3366.69	0.00146
3376.33	0.0019
3385.98	0.002786
3395.63	0.00525
3405.27	0.00639
3414.92	0.0037688
3424.57	0.002234
3434.21	0.00188
3443.86	0.00139
3453.51	0.00133
3463.15	0.00157
3472.8	0.00131
3482.45	0.00135
3492.09	0.00132
3501.74	0.0016
3511.39	0.00134
3521.03	0.00162
3530.68	0.00148
3540.33	0.00152
3549.97	0.00159
3559.62	0.00159
3569.26	0.00159
3578.91	0.00167
3588.56	0.00149
3598.2	0.00159
3607.85	0.00153
3617.5	0.0017
3627.14	0.00155
3636.79	0.00171
3646.44	0.00163
3656.08	0.00163
3665.73	0.00181
3675.38	0.0017
3685.02	0.0017
3694.67	0.00191
3704.32	0.00166
3713.96	0.00191
3723.61	0.00197
3733.26	0.00194
3742.9	0.002011
3752.55	0.00171
3762.2	0.00155
3771.84	0.00178
3781.49	0.00173
3791.13	0.00169
3800.78	0.00164
3810.43	0.00167
3820.07	0.00177
3829.72	0.0017
3839.37	0.00166
3849.01	0.00173
3858.66	0.00167
3868.31	0.00174
3877.95	0.00175
3887.6	0.00168
3897.25	0.00163
3906.89	0.00186
3916.54	0.00172
3926.19	0.00181
3935.83	0.00168
3945.48	0.00167
3955.13	0.00165
3964.77	0.00161
3974.42	0.00176
3984.07	0.0017
3993.71	0.00177
