Infrared Spectrum: 5-Bromoindoxyl-3-acetate
Formula: C 10 H 8 Br N O 2
CAS: 17357-14-1
State: gas
Origin: EPA-IR VAPOR PHASE LIBRARY
1/CM	ABSORBANCE
549.8	0.009237
559.445	0.004977
569.09	0.008897
578.734	0.006227
588.379	0.006647
598.024	0.012767
607.669	0.007467
617.313	0.004067
626.958	0.003677
636.603	0.003197
646.248	0.003017
655.893	0.003157
665.537	0.005827
675.182	0.011007
684.827	0.008387
694.472	0.004157
704.116	0.002947
713.761	0.003957
723.406	0.003507
733.051	0.004657
742.695	0.007217
752.34	0.008587
761.985	0.009487
771.63	0.013417
781.275	0.022327
790.919	0.023867
800.564	0.012607
810.209	0.009447
819.854	0.008307
829.498	0.005457
839.143	0.005147
848.788	0.006217
858.433	0.008837
868.078	0.011547
877.722	0.015627
887.367	0.031437
897.012	0.021957
906.657	0.008427
916.301	0.004227
925.946	0.002967
935.591	0.002367
945.236	0.002317
954.88	0.001917
964.525	0.002237
974.17	0.003207
983.815	0.004337
993.46	0.006177
1003.1	0.009877
1012.75	0.009057
1022.39	0.003977
1032.04	0.005017
1041.68	0.008557
1051.33	0.009577
1060.97	0.006357
1070.62	0.010717
1080.26	0.021177
1089.91	0.030537
1099.55	0.023817
1109.2	0.008287
1118.84	0.006957
1128.49	0.008837
1138.13	0.011527
1147.78	0.011687
1157.42	0.012687
1167.07	0.015047
1176.71	0.023557
1186.36	0.047167
1196	0.104897
1205.64	0.168987
1215.29	0.153147
1224.93	0.078727
1234.58	0.047027
1244.22	0.026587
1253.87	0.015407
1263.51	0.028877
1273.16	0.038027
1282.8	0.015127
1292.45	0.008297
1302.09	0.012477
1311.74	0.010667
1321.38	0.007497
1331.03	0.008597
1340.67	0.006947
1350.32	0.006747
1359.96	0.009827
1369.61	0.021047
1379.25	0.019547
1388.9	0.009437
1398.54	0.005957
1408.18	0.004847
1417.83	0.005247
1427.47	0.008477
1437.12	0.012897
1446.76	0.019787
1456.41	0.043307
1466.05	0.029777
1475.7	0.010547
1485.34	0.007237
1494.99	0.005387
1504.63	0.004227
1514.28	0.003887
1523.92	0.005037
1533.57	0.006517
1543.21	0.011457
1552.86	0.015787
1562.5	0.012717
1572.15	0.012557
1581.79	0.010377
1591.44	0.006887
1601.08	0.005137
1610.73	0.004407
1620.37	0.003967
1630.01	0.003687
1639.66	0.003017
1649.3	0.002747
1658.95	0.002277
1668.59	0.002297
1678.24	0.002617
1687.88	0.002897
1697.53	0.003347
1707.17	0.004127
1716.82	0.005557
1726.46	0.006737
1736.11	0.008067
1745.75	0.011417
1755.4	0.018557
1765.04	0.030517
1774.69	0.036047
1784.33	0.045437
1793.98	0.043087
1803.62	0.029827
1813.27	0.017337
1822.91	0.008957
1832.55	0.005577
1842.2	0.004377
1851.84	0.003827
1861.49	0.002607
1871.13	0.002157
1880.78	0.002177
1890.42	0.001827
1900.07	0.002117
1909.71	0.001847
1919.36	0.001907
1929	0.001867
1938.65	0.001957
1948.29	0.001677
1957.94	0.001987
1967.58	0.001877
1977.23	0.001657
1986.87	0.0016377
1996.52	0.001502
2006.16	0.001687
2015.81	0.001667
2025.45	0.0016073
2035.1	0.0015058
2044.74	0.001777
2054.38	0.0016446
2064.03	0.001797
2073.67	0.001937
2083.32	0.002047
2092.96	0.002207
2102.61	0.002137
2112.25	0.001837
2121.9	0.001747
2131.54	0.0014903
2141.19	0.0015206
2150.83	0.0012502
2160.48	0.0014159
2170.12	0.0013381
2179.77	0.0014781
2189.41	0.0013792
2199.06	0.001177
2208.7	0.0012636
2218.35	0.0012336
2227.99	0.0012209
2237.64	0.0011995
2247.28	0.0013583
2256.92	0.0012931
2266.57	0.0013754
2276.21	0.001193
2285.86	0.0014897
2295.5	0.0012793
2305.15	0.0013884
2314.79	0.0011556
2324.44	0.0014059
2334.08	0.0015403
2343.73	0.001365
2353.37	0.0016111
2363.02	0.0014176
2372.66	0.0014326
2382.31	0.0014167
2391.95	0.0014691
2401.6	0.0012627
2411.24	0.0012282
2420.89	0.0011098
2430.53	0.0015206
2440.18	0.0015805
2449.82	0.0015002
2459.47	0.00155
2469.11	0.001419
2478.75	0.0016253
2488.4	0.0015747
2498.04	0.001717
2507.69	0.002007
2517.33	0.0013556
2526.98	0.0011572
2536.62	0.0011864
2546.27	0.0014339
2555.91	0.0014847
2565.56	0.0014527
2575.2	0.0013886
2584.85	0.0012261
2594.49	0.0014806
2604.14	0.0014176
2613.78	0.0012602
2623.43	0.0011582
2633.07	0.0015312
2642.72	0.0015406
2652.36	0.0014342
2662.01	0.0015806
2671.65	0.0013317
2681.29	0.0012043
2690.94	0.001787
2700.58	0.0013853
2710.23	0.001807
2719.87	0.0014896
2729.52	0.0010386
2739.16	0.001287
2748.81	0.0014169
2758.45	0.0010541
2768.1	0.0014172
2777.74	0.001048
2787.39	0.0008439
2797.03	0.0014555
2806.68	0.0009426
2816.32	0.0011958
2825.97	0.0014691
2835.61	0.0014196
2845.26	0.001707
2854.9	0.001787
2864.55	0.001667
2874.19	0.0012813
2883.84	0.001707
2893.48	0.0015612
2903.12	0.0011149
2912.77	0.0016317
2922.41	0.0013908
2932.06	0.0012916
2941.7	0.001677
2951.35	0.002547
2960.99	0.001667
2970.64	0.0011594
2980.28	0.002027
2989.93	0.002047
2999.57	0.001757
3009.22	0.001987
3018.86	0.002417
3028.51	0.003217
3038.15	0.003317
3047.8	0.002577
3057.44	0.002817
3067.09	0.002857
3076.73	0.003327
3086.38	0.003177
3096.02	0.002537
3105.67	0.001707
3115.31	0.0016397
3124.95	0.001687
3134.6	0.001837
3144.24	0.0014267
3153.89	0.002017
3163.53	0.002067
3173.18	0.002417
3182.82	0.001777
3192.47	0.002077
3202.11	0.0011123
3211.76	0.0014093
3221.4	0.0012851
3231.05	0.0011412
3240.69	0.0013046
3250.34	0.0014124
3259.98	0.0005796
3269.63	0.001282
3279.27	0.0014938
3288.92	0.0011931
3298.56	0.0010928
3308.21	0.001571
3317.85	0.0009457
3327.49	0.0010357
3337.14	0.0015604
3346.78	0.0012008
3356.43	0.0009098
3366.07	0.0010754
3375.72	0.0010748
3385.36	0.0007887
3395.01	0.0014655
3404.65	0.001414
3414.3	0.0008481
3423.94	0.0014857
3433.59	0.0014527
3443.23	0.001947
3452.88	0.002487
3462.52	0.003047
3472.17	0.003837
3481.81	0.005527
3491.46	0.009847
3501.1	0.015207
3510.75	0.021217
3520.39	0.019927
3530.04	0.007077
3539.68	0.003407
3549.32	0.002857
3558.97	0.002487
3568.61	0.002147
3578.26	0.001737
3587.9	0.002227
3597.55	0.0014491
3607.19	0.0014662
3616.84	0.001352
3626.48	0.0010789
3636.13	0.0008741
3645.77	0.0010913
3655.42	0.001078
3665.06	0.0010561
3674.71	0.0008139
3684.35	0.0009958
3694	0.0010999
3703.64	0.0012891
3713.29	0.0012618
3722.93	0.0014544
3732.58	0.001687
3742.22	0.00071211
3751.86	0.0012219
3761.51	0.001727
3771.15	0.0012342
3780.8	0.0009048
3790.44	0.000944
3800.09	0.0008409
3809.73	0.0014264
3819.38	0.0010684
3829.02	0.0013457
3838.67	0.0013599
3848.31	0.001887
3857.96	0.0010465
3867.6	0.0011826
3877.25	0.000535
3886.89	0.001577
3896.54	0.0016495
3906.18	0.00072319
3915.83	0.0008726
3925.47	0.001667
3935.12	0.0009307
3944.76	0.0008241
3954.41	0.0012594
3964.05	0.000768
3973.69	0.0012562
3983.34	0.0012329
3992.98	0.0012651
