Infrared Spectrum: 1,2-Dimethyl-1,4-cyclohexadiene
Formula: C 8 H 12
CAS: 17351-28-9
State: gas
Instrument: HP-GC/MS/IRD
Origin: NIST Mass Spectrometry Data Center
1/CM	ABSORBANCE
550	0.000288
562	0.0001467
574	7.56e-05
586	0.0001368
598	0.0001602
610	4.86e-05
622	0.000108
634	0.0004608
646	0.001566
658	0.0032742
670	0.0020979
682	0.0011466
694	0.0002016
706	4.68e-05
718	1.53e-05
730	0.0001008
742	0.0002925
754	0.0002169
766	0.0001638
778	9.63e-05
790	0.0001125
802	0.000126
814	0.0001215
826	9.54e-05
838	7.56e-05
850	0.0001053
862	0.000135
874	0.0002619
886	0.0004986
898	0.0008586
910	0.0007146
922	0.0004428
934	0.0002502
946	0.0001728
958	0.0001305
970	0.0001863
982	0.0002709
994	0.0004275
1006	0.0006714
1018	0.0007011
1030	0.0005778
1042	0.000333
1054	0.0002457
1066	0.0001782
1078	0.0001962
1090	0.0001035
1102	0.0001377
1114	0.0003006
1126	0.0006678
1138	0.0007641
1150	0.0003771
1162	0.0001701
1174	0.0001476
1186	0.0001044
1198	0.000135
1210	0.0001188
1222	0.0001278
1234	0.0001125
1246	0.0001503
1258	0.0001404
1270	0.0001845
1282	0.0001863
1294	0.0001755
1306	0.0002034
1318	0.0003114
1330	0.0003852
1342	0.000432
1354	0.0003951
1366	0.0005148
1378	0.0007479
1390	0.0008973
1402	0.0006921
1414	0.0005121
1426	0.00081
1438	0.0009585
1450	0.0009297
1462	0.0007227
1474	0.0005022
1486	0.0004041
1498	0.0003546
1510	0.0003276
1522	0.0003942
1534	0.0003816
1546	0.0004041
1558	0.0003582
1570	0.000333
1582	0.0002619
1594	0.0002151
1606	0.0002088
1618	0.000351
1630	0.0003915
1642	0.0004392
1654	0.0003897
1666	0.0003537
1678	0.0002475
1690	0.0002502
1702	0.0002322
1714	0.0001215
1726	8.73e-05
1738	2.79e-05
1750	5.67e-05
1762	3.33e-05
1774	3.78e-05
1786	6.12e-05
1798	7.2e-05
1810	9.72e-05
1822	0.0001467
1834	0.0001107
1846	9.18e-05
1858	8.91e-05
1870	7.02e-05
1882	5.49e-05
1894	5.67e-05
1906	5.4e-05
1918	4.59e-05
1930	4.68e-05
1942	6.93e-05
1954	4.77e-05
1966	3.51e-05
1978	3.6e-05
1990	5.22e-05
2002	3.69e-05
2014	4.32e-05
2026	4.59e-05
2038	3.69e-05
2050	3.06e-05
2062	2.16e-05
2074	4.14e-05
2086	4.5e-06
2098	2.52e-05
2110	2.43e-05
2122	3.15e-05
2134	3.24e-05
2146	3.78e-05
2158	3.6e-05
2170	1.53e-05
2182	4.14e-05
2194	3.6e-05
2206	2.88e-05
2218	3.6e-06
2230	1.08e-05
2242	2.88e-05
2254	1.98e-05
2266	5.4e-05
2278	1.53e-05
2290	5.76e-05
2302	3.87e-05
2314	2.88e-05
2326	6.57e-05
2338	6.57e-05
2350	7.74e-05
2362	8.37e-05
2374	3.69e-05
2386	4.77e-05
2398	5.22e-05
2410	6.3e-05
2422	3.15e-05
2434	4.68e-05
2446	4.86e-05
2458	5.94e-05
2470	5.58e-05
2482	6.66e-05
2494	6.84e-05
2506	5.76e-05
2518	4.5e-05
2530	4.32e-05
2542	5.85e-05
2554	9.36e-05
2566	8.82e-05
2578	5.58e-05
2590	5.04e-05
2602	7.74e-05
2614	6.12e-05
2626	7.02e-05
2638	7.65e-05
2650	0.0001359
2662	0.0001971
2674	0.0003087
2686	0.0003915
2698	0.0003465
2710	0.0003501
2722	0.0004023
2734	0.0005328
2746	0.0005382
2758	0.0005193
2770	0.0005544
2782	0.0007632
2794	0.0010845
2806	0.0020214
2818	0.0048114
2830	0.006381
2842	0.0065709
2854	0.0079263
2866	0.0081162
2878	0.009
2890	0.0074682
2902	0.0051327
2914	0.0050193
2926	0.0054486
2938	0.0044604
2950	0.0026847
2962	0.0020385
2974	0.0021465
2986	0.0027369
2998	0.0031095
3010	0.00315
3022	0.0043821
3034	0.006147
3046	0.0050931
3058	0.0017991
3070	0.0007974
3082	0.000612
3094	0.0004446
3106	0.0003915
3118	0.0003015
3130	0.0002637
3142	0.0001881
3154	0.0001485
3166	0.0001134
3178	0.000135
3190	4.77e-05
3202	0.0001107
3214	9.18e-05
3226	0.0001017
3238	0.0001791
3250	0.0001152
3262	0.0001341
3274	7.65e-05
3286	5.76e-05
3298	8.19e-05
3310	0.0001035
3322	5.67e-05
3334	0.0001728
3346	5.85e-05
3358	0.0001134
3370	9.45e-05
3382	9.27e-05
3394	4.77e-05
3406	0.0001152
3418	9.27e-05
3430	0.0001188
3442	0.0001071
3454	7.38e-05
3466	6.3e-05
3478	6.57e-05
3490	6.66e-05
3502	0.0001233
3514	0.0001116
3526	0.0001467
3538	6.3e-05
3550	0.0001179
3562	6.03e-05
3574	7.74e-05
3586	0.0001386
3598	0.0001539
3610	1.8e-05
3622	8.01e-05
3634	0.0001359
3646	0.0001008
3658	5.22e-05
3670	0.0001296
3682	8.19e-05
3694	0.000108
3706	0.0001053
3718	9.18e-05
3730	0.0001242
3742	7.92e-05
3754	9.9e-05
3766	7.74e-05
3778	9.18e-05
3790	0.0001611
3802	0.0001071
3814	0.0001305
3826	0.0001251
3838	0.0001017
