Infrared Spectrum: 4-Iodoisopropylbenzene
Formula: C 9 H 11 I
CAS: 17356-09-1
State: gas
Origin: EPA-IR VAPOR PHASE LIBRARY
1/CM	ABSORBANCE
549.8	0.003326
559.445	0.002116
569.09	0.0013193
578.735	0.001976
588.38	0.002646
598.025	0.0006636
607.67	0.000225
617.315	0.00039
626.96	0.000297
636.605	0.0004594
646.251	0.0008431
655.896	0.0009272
665.541	0.000206
675.186	0.000314
684.831	0.000383
694.476	0.0007476
704.121	0.001686
713.766	0.002826
723.411	0.002736
733.056	0.002606
742.701	0.006506
752.346	0.005726
761.991	0.0011422
771.636	0.0014068
781.281	0.001986
790.926	0.002626
800.571	0.006866
810.216	0.016296
819.861	0.020806
829.507	0.011856
839.152	0.003876
848.797	0.0014406
858.442	0.0008057
868.087	0.00056121
877.732	0.0008021
887.377	0.0008614
897.022	0.0006992
906.667	0.00060307
916.312	0.0007053
925.957	0.000859
935.602	0.0007885
945.247	0.0006745
954.892	0.00054163
964.537	0.0006058
974.182	0.0009937
983.827	0.001746
993.472	0.007016
1003.12	0.039376
1012.76	0.028136
1022.41	0.002406
1032.05	0.0014649
1041.7	0.002836
1051.34	0.007136
1060.99	0.017916
1070.63	0.018606
1080.28	0.006736
1089.92	0.004786
1099.57	0.006696
1109.21	0.004386
1118.86	0.002736
1128.5	0.002756
1138.15	0.003606
1147.79	0.002386
1157.44	0.0007238
1167.08	0.00054513
1176.73	0.0008067
1186.37	0.0006891
1196.02	0.0004962
1205.66	0.0004836
1215.31	0.0013352
1224.95	0.001676
1234.6	0.0005028
1244.24	0.0004759
1253.89	0.0006817
1263.53	0.0007948
1273.18	0.0008094
1282.82	0.0013718
1292.47	0.003986
1302.11	0.003566
1311.76	0.002556
1321.4	0.003206
1331.05	0.002986
1340.69	0.003086
1350.34	0.003516
1359.98	0.003896
1369.63	0.004836
1379.27	0.005576
1388.92	0.007506
1398.56	0.009396
1408.21	0.008986
1417.85	0.004996
1427.5	0.003256
1437.14	0.003366
1446.79	0.005186
1456.43	0.008776
1466.08	0.012736
1475.73	0.020176
1485.37	0.040876
1495.02	0.020776
1504.66	0.004126
1514.31	0.001786
1523.95	0.0013501
1533.6	0.0011209
1543.24	0.0008923
1552.89	0.0007995
1562.53	0.0007673
1572.18	0.0008771
1581.82	0.001736
1591.47	0.002016
1601.11	0.0008168
1610.76	0.0007231
1620.4	0.0011155
1630.05	0.001776
1639.69	0.002096
1649.34	0.001646
1658.98	0.0009194
1668.63	0.00055529
1678.27	0.000474
1687.92	0.00038
1697.56	0.000328
1707.21	0.000363
1716.85	0.000288
1726.5	0.000367
1736.14	0.0005182
1745.79	0.0006926
1755.43	0.0008854
1765.08	0.0009849
1774.72	0.0015278
1784.37	0.0008143
1794.01	0.000237
1803.66	0.000198
1813.3	0.000269
1822.95	0.000245
1832.59	0.000313
1842.24	0.00031
1851.88	0.000381
1861.53	0.00058296
1871.17	0.0010089
1880.82	0.001596
1890.46	0.002006
1900.11	0.001576
1909.75	0.0009022
1919.4	0.000540671
1929.04	0.000378
1938.69	0.000321
1948.33	0.000304
1957.98	0.000347
1967.62	0.000244
1977.27	0.00025
1986.91	0.000245
1996.56	0.000276
2006.2	0.000311
2015.85	0.000277
2025.49	0.000247
2035.14	0.000314
2044.78	0.000261
2054.43	0.000271
2064.07	0.000341
2073.72	0.000353
2083.36	0.000312
2093.01	0.000294
2102.65	0.000304
2112.3	0.000323
2121.94	0.00032
2131.59	0.000384
2141.23	0.000323
2150.88	0.000361
2160.52	0.000289
2170.17	0.000298
2179.81	0.000329
2189.46	0.000293
2199.1	0.000351
2208.75	0.000306
2218.39	0.000385
2228.04	0.00041
2237.68	0.000431
2247.33	0.0004768
2256.97	0.0005046
2266.62	0.00058431
2276.26	0.00060462
2285.91	0.00061419
2295.55	0.00061796
2305.2	0.00053134
2314.84	0.00055295
2324.49	0.000538266
2334.13	0.0005235
2343.78	0.000417
2353.42	0.0004824
2363.07	0.0005154
2372.72	0.00054696
2382.36	0.00057226
2392.01	0.00058226
2401.65	0.00057124
2411.3	0.0004986
2420.94	0.000427
2430.59	0.000541602
2440.23	0.0004953
2449.88	0.000543156
2459.52	0.00055489
2469.17	0.0006433
2478.81	0.0005849
2488.46	0.0005841
2498.1	0.0006504
2507.75	0.00060965
2517.39	0.00060799
2527.04	0.00058696
2536.68	0.0006917
2546.33	0.00061368
2555.97	0.000745
2565.62	0.0006745
2575.26	0.0009372
2584.91	0.0011098
2594.55	0.0011845
2604.2	0.0009253
2613.84	0.0007989
2623.49	0.0007022
2633.13	0.0008001
2642.78	0.0008113
2652.42	0.0007013
2662.07	0.0006975
2671.71	0.0007297
2681.36	0.0006681
2691	0.000668
2700.65	0.000812
2710.29	0.0008742
2719.94	0.0009897
2729.58	0.0011933
2739.23	0.001055
2748.87	0.0011404
2758.52	0.0011317
2768.16	0.0011873
2777.81	0.0011672
2787.45	0.0012401
2797.1	0.0013711
2806.74	0.001586
2816.39	0.001856
2826.03	0.001926
2835.68	0.002216
2845.32	0.002886
2854.97	0.004336
2864.61	0.007176
2874.26	0.012766
2883.9	0.017516
2893.55	0.016176
2903.19	0.016696
2912.84	0.016916
2922.48	0.016876
2932.13	0.019946
2941.77	0.023646
2951.42	0.025146
2961.06	0.046966
2970.71	0.080996
2980.35	0.041736
2990	0.014216
2999.64	0.007236
3009.29	0.005846
3018.93	0.007606
3028.58	0.008236
3038.22	0.006436
3047.87	0.005796
3057.51	0.005896
3067.16	0.006636
3076.8	0.007286
3086.45	0.006976
3096.09	0.004326
3105.74	0.002336
3115.38	0.001726
3125.03	0.0012375
3134.67	0.0011858
3144.32	0.0012024
3153.96	0.0011539
3163.61	0.0010295
3173.25	0.0010889
3182.9	0.0011175
3192.54	0.0011463
3202.19	0.0009938
3211.83	0.0008663
3221.48	0.0008408
3231.12	0.0006513
3240.77	0.000537076
3250.41	0.000427
3260.06	0.0004473
3269.7	0.000349
3279.35	0.000267
3289	0.000259
3298.64	0.000268
3308.29	0.000421
3317.93	0.00042
3327.58	0.000416
3337.22	0.000208
3346.87	0.000313
3356.51	0.000235
3366.16	0.000316
3375.8	0.000129
3385.45	0.000146
3395.09	0.000119
3404.74	0.000219
3414.38	0.000203
3424.03	0.000284
3433.67	9.2e-05
3443.32	0.000279
3452.96	0.000132
3462.61	5e-05
3472.25	0.000312
3481.9	0.000208
3491.54	0.000248
3501.19	0.000137
3510.83	3e-06
3520.48	0.000279
3530.12	0.000306
3539.77	0.000161
3549.41	0.0001
3559.06	0.000259
3568.7	1.9e-05
3578.35	0.000174
3587.99	0.000231
3597.64	0.00013
3607.28	2.3e-05
3616.93	0.000152
3626.57	0.000109
3636.22	0.00019
3645.86	0.000211
3655.51	0.000285
3665.15	0.000297
3674.8	0.000239
3684.44	0.000297
3694.09	0.00019
3703.73	0.000247
3713.38	0.000258
3723.02	0.000201
3732.67	0.000219
3742.31	0.000179
3751.96	0.00025
3761.6	0.000229
3771.25	9e-05
3780.89	0.000244
3790.54	0.000297
3800.18	0.00027
3809.83	0.00039
3819.47	0.00053213
3829.12	0.00054887
3838.76	0.0004755
3848.41	0.0004583
3858.05	0.000278
3867.7	0.0004502
3877.34	0.000306
3886.99	0.0006651
3896.63	0.000536594
3906.28	0.00034
3915.92	0.000363
3925.57	0.000207
3935.21	0.000335
3944.86	0.000429
3954.5	0.0004447
3964.15	0.000398
3973.79	0.000348
3983.44	0.000411
3993.08	0.00058179
