Infrared Spectrum: 3-(4-Hydroxyphenyl)propionitrile
Formula: C 9 H 9 N O
CAS: 17362-17-3
State: gas
Origin: EPA-IR VAPOR PHASE LIBRARY
1/CM	ABSORBANCE
549.8	0.0043632
559.445	0.0034532
569.09	0.0042932
578.734	0.0040932
588.379	0.0026532
598.024	0.0014732
607.669	0.0007486
617.313	0.0006718
626.958	0.0004564
636.603	0.0008396
646.248	0.0006787
655.893	0.0006182
665.537	0.0008101
675.182	0.0007468
684.827	0.0009203
694.472	0.0013932
704.116	0.0021832
713.761	0.0028132
723.406	0.0026832
733.051	0.0018832
742.695	0.0013432
752.34	0.0014132
761.985	0.0022032
771.63	0.0034832
781.275	0.0037832
790.919	0.0059332
800.564	0.0098932
810.209	0.0131332
819.854	0.0152132
829.498	0.0157232
839.143	0.0125032
848.788	0.0070632
858.433	0.0029332
868.078	0.0016132
877.722	0.0013632
887.367	0.0012132
897.012	0.001019
906.657	0.0010932
916.301	0.0011932
925.946	0.0011932
935.591	0.0011132
945.236	0.0010141
954.88	0.0009581
964.525	0.0008921
974.17	0.0009626
983.815	0.0011832
993.46	0.0011232
1003.1	0.0013132
1012.75	0.0018132
1022.39	0.0016032
1032.04	0.0011332
1041.68	0.0008112
1051.33	0.0011932
1060.97	0.0011932
1070.62	0.0018132
1080.26	0.0027032
1089.91	0.0049432
1099.55	0.0073432
1109.2	0.0069832
1118.84	0.0054232
1128.49	0.0064332
1138.13	0.0063632
1147.78	0.0081132
1157.42	0.0226332
1167.07	0.0531532
1176.71	0.0677632
1186.36	0.0465232
1196	0.0245432
1205.64	0.0136832
1215.29	0.0093632
1224.93	0.0087332
1234.58	0.0091432
1244.22	0.0149232
1253.87	0.0400332
1263.51	0.0428832
1273.16	0.0118432
1282.8	0.0045432
1292.45	0.0038132
1302.09	0.0038532
1311.74	0.0046632
1321.38	0.0073232
1331.03	0.0130132
1340.67	0.0125332
1350.32	0.0057132
1359.96	0.0027032
1369.61	0.0016832
1379.25	0.0014232
1388.9	0.0013032
1398.54	0.0014932
1408.18	0.0020932
1417.83	0.0039232
1427.47	0.0090032
1437.12	0.0124532
1446.76	0.0083032
1456.41	0.0051432
1466.05	0.0034432
1475.7	0.0026732
1485.34	0.0032432
1494.99	0.0073032
1504.63	0.0275132
1514.28	0.0573632
1523.92	0.0340232
1533.57	0.0076532
1543.21	0.0034032
1552.86	0.0022732
1562.5	0.0019732
1572.15	0.0025632
1581.79	0.0049632
1591.44	0.0101532
1601.08	0.0134632
1610.73	0.0143432
1620.37	0.0131932
1630.01	0.0067932
1639.66	0.0033432
1649.3	0.0020932
1658.95	0.0012532
1668.59	0.000959
1678.24	0.0007082
1687.88	0.0005838
1697.53	0.0005511
1707.17	0.0006802
1716.82	0.0007248
1726.46	0.0008109
1736.11	0.000933
1745.75	0.0010484
1755.4	0.0009981
1765.04	0.0007616
1774.69	0.0005185
1784.33	0.0003848
1793.98	0.000275
1803.62	0.000297
1813.27	0.0003139
1822.91	0.0004392
1832.55	0.0005908
1842.2	0.0007697
1851.84	0.0010439
1861.49	0.0013332
1871.13	0.0013932
1880.78	0.0012632
1890.42	0.0010108
1900.07	0.0006624
1909.71	0.0004836
1919.36	0.000355
1929	0.0003653
1938.65	0.0003714
1948.29	0.0003646
1957.94	0.0004093
1967.58	0.0004368
1977.23	0.0004912
1986.87	0.0004221
1996.52	0.0004679
2006.16	0.0004901
2015.81	0.0005972
2025.45	0.0006169
2035.1	0.0005137
2044.74	0.0003955
2054.38	0.0003341
2064.03	0.0003685
2073.67	0.0004332
2083.32	0.0005214
2092.96	0.00053
2102.61	0.0005479
2112.25	0.0003371
2121.9	0.0002548
2131.54	0.0002057
2141.19	0.000221
2150.83	0.0002003
2160.48	0.0002493
2170.12	0.0002655
2179.77	0.0002802
2189.41	0.0002943
2199.06	0.000246
2208.7	0.000216
2218.35	0.00026
2227.99	0.0004183
2237.64	0.0007091
2247.28	0.0012632
2256.92	0.0011632
2266.57	0.000636
2276.21	0.000577
2285.86	0.0005171
2295.5	0.00047
2305.15	0.0004513
2314.79	0.0005384
2324.44	0.0005291
2334.08	0.0006647
2343.73	0.0006989
2353.37	0.0006917
2363.02	0.0005879
2372.66	0.0004382
2382.31	0.0004638
2391.95	0.0003809
2401.6	0.0005434
2411.24	0.0006481
2420.89	0.000997
2430.53	0.0013032
2440.18	0.0011632
2449.82	0.0008327
2459.47	0.00062
2469.11	0.000541
2478.75	0.0005524
2488.4	0.0004476
2498.04	0.0005078
2507.69	0.0007282
2517.33	0.0007288
2526.98	0.0005047
2536.62	0.0003976
2546.27	0.0003281
2555.91	0.0002256
2565.56	0.0001959
2575.2	0.0002724
2584.85	0.0004203
2594.49	0.0003927
2604.14	0.0006003
2613.78	0.0005468
2623.43	0.0004403
2633.07	0.0004146
2642.72	0.0003718
2652.36	0.0004008
2662.01	0.0004279
2671.65	0.0004127
2681.29	0.0003934
2690.94	0.0003405
2700.58	0.0003553
2710.23	0.0003248
2719.87	0.0002434
2729.52	0.0002604
2739.16	0.0002525
2748.81	0.0003455
2758.45	0.0003096
2768.1	0.0004429
2777.74	0.0005401
2787.39	0.0004321
2797.03	0.0004472
2806.68	0.0003648
2816.32	0.0004092
2825.97	0.0004485
2835.61	0.0006379
2845.26	0.0010336
2854.9	0.0015732
2864.55	0.0021932
2874.19	0.0030732
2883.84	0.0026032
2893.48	0.0018432
2903.12	0.0017832
2912.77	0.0021332
2922.41	0.0038632
2932.06	0.0074132
2941.7	0.0101832
2951.35	0.0098032
2960.99	0.0092232
2970.64	0.0066532
2980.28	0.0035432
2989.93	0.0024632
2999.57	0.0030732
3009.22	0.0058932
3018.86	0.0089032
3028.51	0.0090732
3038.15	0.0091132
3047.8	0.0067332
3057.44	0.0043632
3067.09	0.0035832
3076.73	0.0029932
3086.38	0.0021932
3096.02	0.0015332
3105.67	0.0014232
3115.31	0.0012632
3124.95	0.0010084
3134.6	0.0007696
3144.24	0.0005485
3153.89	0.000404
3163.53	0.0002346
3173.18	0.00034
3182.82	0.0003067
3192.47	0.0004115
3202.11	0.000448
3211.76	0.0002256
3221.4	0.0002518
3231.05	0.0003332
3240.69	0.000445
3250.34	0.0002578
3259.98	0.0003032
3269.63	0.0002208
3279.27	0.0001861
3288.92	0.0002229
3298.56	0.00015741
3308.21	0.00016087
3317.85	0.0001765
3327.49	0.0002859
3337.14	0.0005125
3346.78	0.0003715
3356.43	0.0005249
3366.07	0.0005236
3375.72	0.0005547
3385.36	0.0004178
3395.01	0.0003946
3404.65	0.000427
3414.3	0.0004529
3423.94	0.0004665
3433.59	0.0003245
3443.23	0.0004079
3452.88	0.0003121
3462.52	0.0003297
3472.17	0.0002659
3481.81	0.0003165
3491.46	0.0002724
3501.1	0.0003239
3510.75	0.0002696
3520.39	0.0002872
3530.04	0.0002809
3539.68	0.0001847
3549.32	0.0002675
3558.97	0.0003811
3568.61	0.0002996
3578.26	0.0002664
3587.9	0.0004399
3597.55	0.0005152
3607.19	0.0007414
3616.84	0.0011932
3626.48	0.0028632
3636.13	0.0091432
3645.77	0.0288632
3655.42	0.0302932
3665.06	0.0086032
3674.71	0.0023332
3684.35	0.0010132
3694	0.0006467
3703.64	0.0004328
3713.29	0.0003578
3722.93	0.00014231
3732.58	0.00011373
3742.22	0.0002878
3751.86	0.0001749
3761.51	0.00035
3771.15	0.0002534
3780.8	0.0002995
3790.44	0.00014821
3800.09	0.0003517
3809.73	0.0002818
3819.38	0.0003921
3829.02	0.0004021
3838.67	0.0004182
3848.31	0.0004262
3857.96	0.000499
3867.6	0.0004981
3877.25	0.0003346
3886.89	0.0005166
3896.54	0.0003831
3906.18	0.0003593
3915.83	0.0005678
3925.47	0.0004877
3935.12	0.0005414
3944.76	0.0005354
3954.41	0.0005008
3964.05	0.0004634
3973.69	0.0002906
3983.34	0.00013077
3992.98	0.0002683
