Infrared Spectrum: 4-(Trifluoromethoxy)benzyl alcohol
Formula: C 8 H 7 F 3 O 2
CAS: 1736-74-9
State: gas
Origin: EPA-IR VAPOR PHASE LIBRARY
1/CM	ABSORBANCE
549.8	0.00522
559.445	0.00425
569.09	0.00353
578.735	0.00324
588.38	0.00327
598.025	0.00444
607.67	0.00579
617.315	0.00567
626.96	0.00429
636.605	0.00348
646.251	0.00324
655.896	0.0041
665.541	0.00641
675.186	0.00825
684.831	0.00723
694.476	0.00591
704.121	0.00503
713.766	0.00493
723.411	0.00418
733.056	0.00331
742.701	0.00298
752.346	0.00348
761.991	0.00457
771.636	0.00546
781.281	0.00617
790.926	0.00834
800.571	0.01366
810.216	0.02053
819.861	0.02403
829.507	0.02606
839.152	0.02365
848.797	0.01897
858.442	0.01228
868.087	0.00718
877.732	0.00487
887.377	0.00416
897.022	0.00409
906.667	0.00529
916.312	0.00929
925.957	0.01302
935.602	0.01145
945.247	0.0104
954.892	0.01028
964.537	0.01181
974.182	0.0137
983.827	0.01638
993.472	0.02112
1003.12	0.02971
1012.76	0.05069
1022.41	0.05184
1032.05	0.04484
1041.7	0.0386
1051.34	0.02756
1060.99	0.02094
1070.63	0.01523
1080.28	0.01163
1089.92	0.01075
1099.57	0.01207
1109.21	0.01375
1118.86	0.01487
1128.5	0.01711
1138.15	0.02357
1147.79	0.03685
1157.44	0.06489
1167.08	0.12203
1176.73	0.2107
1186.37	0.2905
1196.02	0.24555
1205.66	0.24248
1215.31	0.32195
1224.95	0.3335
1234.6	0.26903
1244.24	0.25344
1253.89	0.40526
1263.53	0.68381
1273.18	0.58768
1282.82	0.24456
1292.47	0.10757
1302.11	0.0601
1311.76	0.03736
1321.4	0.02563
1331.05	0.01949
1340.69	0.01656
1350.34	0.01558
1359.98	0.01616
1369.63	0.01803
1379.27	0.01856
1388.92	0.01546
1398.56	0.01257
1408.21	0.01118
1417.85	0.00989
1427.5	0.00824
1437.14	0.00669
1446.79	0.00601
1456.43	0.00637
1466.08	0.00918
1475.73	0.00922
1485.37	0.00905
1495.02	0.01918
1504.66	0.0553
1514.31	0.0583
1523.95	0.02148
1533.6	0.012
1543.24	0.00791
1552.89	0.00576
1562.53	0.00525
1572.18	0.00579
1581.82	0.00724
1591.47	0.00923
1601.11	0.01217
1610.76	0.01309
1620.4	0.0077
1630.05	0.00466
1639.69	0.00378
1649.34	0.00329
1658.98	0.0029
1668.63	0.00252
1678.27	0.00213
1687.92	0.0017713
1697.56	0.0015921
1707.21	0.001424
1716.85	0.0013303
1726.5	0.0014756
1736.14	0.0014853
1745.79	0.001718
1755.43	0.00209
1765.08	0.00271
1774.72	0.00309
1784.37	0.00222
1794.01	0.0016952
1803.66	0.0015815
1813.3	0.0015664
1822.95	0.0014863
1832.59	0.0014415
1842.24	0.0012596
1851.88	0.0013834
1861.53	0.0016676
1871.17	0.00242
1880.82	0.00317
1890.46	0.00366
1900.11	0.00337
1909.75	0.00238
1919.4	0.0016539
1929.04	0.0014381
1938.69	0.001315
1948.33	0.0013891
1957.98	0.0014283
1967.62	0.0016114
1977.27	0.0017907
1986.91	0.00195
1996.56	0.00198
2006.2	0.00211
2015.85	0.00222
2025.49	0.00236
2035.14	0.00239
2044.78	0.00233
2054.43	0.00229
2064.07	0.00214
2073.72	0.00208
2083.36	0.00201
2093.01	0.00207
2102.65	0.00208
2112.3	0.00186
2121.94	0.001616
2131.59	0.0016155
2141.23	0.0017315
2150.88	0.0016287
2160.52	0.0013959
2170.17	0.0014692
2179.81	0.0016818
2189.46	0.0015849
2199.1	0.0011207
2208.75	0.0007788
2218.39	0.000737
2228.04	0.000657
2237.68	0.000683
2247.33	0.000689
2256.97	0.000735
2266.62	0.0008157
2276.26	0.00093719
2285.91	0.0010186
2295.55	0.0009734
2305.2	0.0010324
2314.84	0.0011197
2324.49	0.0011583
2334.13	0.0012999
2343.78	0.0013184
2353.42	0.0013342
2363.07	0.0012485
2372.72	0.0014324
2382.36	0.0016639
2392.01	0.0017718
2401.65	0.00198
2411.3	0.00241
2420.94	0.00285
2430.59	0.00317
2440.23	0.00329
2449.88	0.00331
2459.52	0.00316
2469.17	0.00318
2478.81	0.00327
2488.46	0.00359
2498.1	0.00363
2507.75	0.003
2517.39	0.00226
2527.04	0.0018398
2536.68	0.0015345
2546.33	0.0011949
2555.97	0.0010776
2565.62	0.00094529
2575.26	0.000858673
2584.91	0.00088254
2594.55	0.0007941
2604.2	0.000647
2613.84	0.0007779
2623.49	0.000661
2633.13	0.000667
2642.78	0.000659
2652.42	0.000674
2662.07	0.000679
2671.71	0.0007617
2681.36	0.0007964
2691	0.0007817
2700.65	0.00086471
2710.29	0.00091012
2719.94	0.0009991
2729.58	0.0010027
2739.23	0.0011753
2748.87	0.0011751
2758.52	0.0014286
2768.16	0.0015556
2777.81	0.0015988
2787.45	0.0018482
2797.1	0.00199
2806.74	0.00235
2816.39	0.00256
2826.03	0.00308
2835.68	0.00387
2845.32	0.00517
2854.97	0.00709
2864.61	0.00958
2874.26	0.01341
2883.9	0.01698
2893.55	0.0155
2903.19	0.0132
2912.84	0.01235
2922.48	0.01234
2932.13	0.01225
2941.77	0.01163
2951.42	0.0106
2961.06	0.0086
2970.71	0.00596
2980.35	0.00418
2990	0.00316
2999.64	0.00315
3009.29	0.00333
3018.93	0.00379
3028.58	0.00469
3038.22	0.00688
3047.87	0.00777
3057.51	0.00554
3067.16	0.00369
3076.8	0.00281
3086.45	0.00256
3096.09	0.00194
3105.74	0.0017597
3115.38	0.001628
3125.03	0.0012997
3134.67	0.000712
3144.32	0.000456
3153.96	0.000386
3163.61	0.000137
3173.25	0.00023
3182.9	0.000117
3192.54	0.000265
3202.19	0.000304
3211.83	0.000219
3221.48	0.000193
3231.12	0.000243
3240.77	0.00025
3250.41	0.000207
3260.06	0.000163
3269.7	0
3279.35	0.00019
3289	0.000209
3298.64	0.000158
3308.29	0.000285
3317.93	0.000232
3327.58	0.000298
3337.22	0.000279
3346.87	0.000361
3356.51	0.00032
3366.16	0.000322
3375.8	0.000269
3385.45	0.000342
3395.09	0.000383
3404.74	0.000374
3414.38	0.000536
3424.03	0.000671
3433.67	0.000524
3443.32	0.000723
3452.96	0.000654
3462.61	0.000718
3472.25	0.000593
3481.9	0.000714
3491.54	0.000617
3501.19	0.000647
3510.83	0.000634
3520.48	0.000687
3530.12	0.000732
3539.77	0.000689
3549.41	0.000662
3559.06	0.0007966
3568.7	0.0007832
3578.35	0.000733
3587.99	0.0010125
3597.64	0.0011213
3607.28	0.0014369
3616.93	0.00225
3626.57	0.00346
3636.22	0.00548
3645.86	0.00781
3655.51	0.01067
3665.15	0.01107
3674.8	0.00835
3684.44	0.0054
3694.09	0.00357
3703.73	0.0025
3713.38	0.0017087
3723.02	0.0015134
3732.67	0.0012867
3742.31	0.0009727
3751.96	0.001002
3761.6	0.0007658
3771.25	0.00086754
3780.89	0.00086526
3790.54	0.0007625
3800.18	0.0007564
3809.83	0.00090858
3819.47	0.0008844
3829.12	0.0008391
3838.76	0.0010277
3848.41	0.001255
3858.05	0.0010394
3867.7	0.0009091
3877.34	0.0011201
3886.99	0.0011282
3896.63	0.0009513
3906.28	0.000941
3915.92	0.0010347
3925.57	0.000801
3935.21	0.0007663
3944.86	0.000665
3954.5	0.0007904
3964.15	0.0007791
3973.79	0.00086694
3983.44	0.0007704
3993.08	0.000625
