Infrared Spectrum: Crotonic acid, octyl ester, trans-
Formula: C12 H22 O2
CAS: 173605-13-5
State: SOLUTION (10% CCl4 FOR 3800-1330, 10% CS2 FOR 1330-400 CM^-^1)
Class: COBLENTZ III
Instrument: DOW KBr FOREPRISM-GRATING
Instrument parameters: BLAZED AT 3.5, 12.0, 20.0 MICRON AND CHANGED AT 5.0, 7.5, 14.9 MICRON
Sampling: TRANSMISSION
Path length: 0.011 CM, 0.011 CM
Resolution: 2
Origin: DOW CHEMICAL COMPANY
1/CM	TRANSMITTANCE
384	0.2303
393	0.2384
402	0.2864
411	0.428
420	0.58
429	0.6735
438	0.7055
447	0.7283
456	0.7527
465	0.7744
474	0.7903
483	0.8023
492	0.8095
501	0.8137
510	0.8257
519	0.831
528	0.8329
537	0.8379
546	0.8489
555	0.8581
564	0.8652
573	0.8724
582	0.878
591	0.8817
600	0.8852
609	0.8869
618	0.8884
627	0.8854
636	0.8754
645	0.8572
654	0.8328
663	0.8556
672	0.8352
681	0.6862
690	0.6164
699	0.8074
708	0.8105
717	0.7718
726	0.7123
735	0.7831
744	0.7923
753	0.8269
762	0.8466
771	0.8421
780	0.8568
789	0.855
798	0.8442
807	0.8269
816	0.8075
825	0.8016
834	0.6761
843	0.5509
852	0.6679
861	0.6697
870	0.6851
879	0.7096
888	0.7392
897	0.7641
906	0.7535
915	0.7277
924	0.7429
933	0.7354
942	0.6953
951	0.6324
960	0.4066
969	0.0738
978	0.4529
987	0.5618
996	0.5267
1005	0.4761
1014	0.3796
1023	0.3419
1032	0.4125
1041	0.4316
1050	0.5147
1059	0.5397
1068	0.5513
1077	0.579
1086	0.6039
1095	0.4942
1104	0.1882
1113	0.6471
1122	0.6646
1131	0.6739
1140	0.6491
1149	0.5936
1158	0.4694
1167	0.2606
1176	0.0185
1185	0.0135
1194	0.1703
1203	0.4076
1212	0.547
1221	0.5751
1230	0.5887
1239	0.5186
1248	0.3922
1257	0.1663
1266	0.0846
1275	0.1516
1284	0.3108
1293	0.1308
1302	0.1643
1311	0.089
1320	0.1964
1329	0.3981
1338	0.553
1347	0.6363
1356	0.6344
1365	0.6306
1374	0.5568
1383	0.4612
1392	0.5163
1401	0.626
1410	0.6987
1419	0.6725
1428	0.6073
1437	0.3943
1446	0.1912
1455	0.3082
1464	0.301
1473	0.3463
1482	0.6108
1491	0.6944
1500	0.6807
1509	0.6475
1518	0.6034
1527	0.5419
1536	0.482
1545	0.4259
1554	0.4223
1563	0.4753
1572	0.5541
1581	0.5708
1590	0.5939
1599	0.6794
1608	0.738
1617	0.7463
1626	0.7339
1635	0.6767
1644	0.5505
1653	0.3155
1662	0.1147
1671	0.402
1680	0.4725
1689	0.4863
1698	0.4241
1707	0.1684
1716	0.007
1725	0.0057
1734	0.1374
1743	0.4796
1752	0.6024
1761	0.6772
1770	0.7216
1779	0.7516
1788	0.7738
1797	0.7843
1806	0.7945
1815	0.8114
1824	0.8194
1833	0.824
1842	0.8267
1851	0.8277
1860	0.8274
1869	0.828
1878	0.8285
1887	0.8302
1896	0.8327
1905	0.8384
1914	0.8399
1923	0.8407
1932	0.8418
1941	0.8419
1950	0.8421
1959	0.8503
1968	0.8377
1977	0.8365
1986	0.8357
1995	0.84
2004	0.836
2013	0.8338
2022	0.8408
2031	0.8441
2040	0.8473
2049	0.8481
2058	0.8489
2067	0.8493
2076	0.848
2085	0.8483
2094	0.8481
2103	0.8482
2112	0.8483
2121	0.8484
2130	0.8484
2139	0.8484
2148	0.8484
2157	0.8486
2166	0.8488
2175	0.8491
2184	0.8494
2193	0.8498
2202	0.8503
2211	0.8507
2220	0.8507
2229	0.8507
2238	0.8504
2247	0.8473
2256	0.843
2265	0.8391
2274	0.8355
2283	0.8318
2292	0.8313
2301	0.8334
2310	0.8319
2319	0.8385
2328	0.8519
2337	0.8535
2346	0.8563
2355	0.8631
2364	0.8609
2373	0.8566
2382	0.8524
2391	0.8539
2400	0.8559
2409	0.8568
2418	0.8574
2427	0.8574
2436	0.857
2445	0.8563
2454	0.8547
2463	0.8521
2472	0.8491
2481	0.8495
2490	0.8498
2499	0.849
2508	0.8476
2517	0.8462
2526	0.845
2535	0.8433
2544	0.8412
2553	0.8391
2562	0.8376
2571	0.8362
2580	0.8347
2589	0.833
2598	0.8314
2607	0.8298
2616	0.8277
2625	0.825
2634	0.8222
2643	0.8204
2652	0.8187
2661	0.8171
2670	0.8159
2679	0.8159
2688	0.8154
2697	0.8144
2706	0.8116
2715	0.8078
2724	0.7993
2733	0.7866
2742	0.8044
2751	0.8066
2760	0.8052
2769	0.8011
2778	0.7957
2787	0.7869
2796	0.7746
2805	0.7522
2814	0.7202
2823	0.6616
2832	0.6033
2841	0.4115
2850	0.1474
2859	0.0753
2868	0.1674
2877	0.1912
2886	0.3319
2895	0.2327
2904	0.1448
2913	0.0684
2922	0.0135
2931	0.0106
2940	0.0322
2949	0.0431
2958	0.0357
2967	0.0536
2976	0.1627
2985	0.3342
2994	0.5096
3003	0.6012
3012	0.7127
3021	0.7318
3030	0.7412
3039	0.7385
3048	0.7139
3057	0.7102
3066	0.7636
3075	0.7996
3084	0.8113
3093	0.8149
3102	0.8182
3111	0.8208
3120	0.8227
3129	0.8246
3138	0.8258
3147	0.8265
3156	0.8288
3165	0.8316
3174	0.8341
3183	0.8355
3192	0.8371
3201	0.8384
3210	0.8391
3219	0.8398
3228	0.8408
3237	0.842
3246	0.8426
3255	0.843
3264	0.8432
3273	0.8436
3282	0.8441
3291	0.845
3300	0.8459
3309	0.8467
3318	0.8468
3327	0.8464
3336	0.8454
3345	0.8444
3354	0.8435
3363	0.8435
3372	0.8448
3381	0.8454
3390	0.8454
3399	0.8435
3408	0.8371
3417	0.8293
3426	0.8266
3435	0.8411
3444	0.8547
3453	0.8601
3462	0.8633
3471	0.8645
3480	0.8652
3489	0.8657
3498	0.8657
3507	0.8652
3516	0.8644
3525	0.8637
3534	0.8633
3543	0.8666
3552	0.8716
3561	0.873
3570	0.8739
3579	0.8746
3588	0.8755
3597	0.8764
3606	0.8764
3615	0.8762
3624	0.8774
3633	0.8784
3642	0.879
3651	0.8794
3660	0.8787
3669	0.8779
3678	0.8748
3687	0.8723
3696	0.8751
3705	0.8813
3714	0.8822
3723	0.8825
3732	0.8828
3741	0.8831
3750	0.8834
3759	0.8836
3768	0.8837
3777	0.8837
3786	0.8842
3795	0.8846
