Infrared Spectrum: BENZYL ALCOHOL, o-METHYL-, ACETATE
Formula: C10 H12 O2
CAS: 17373-93-2
State: LIQUID (NEAT)
Boiling point: 228-230 C
Class: COBLENTZ III
Instrument: BAIRD (GRATING)
Instrument parameters: NaCl PRISM
Path length: 0.003 CM
Resolution: 2
Origin: WYANDOTTE CHEMICALS CORP.
1/CM	TRANSMITTANCE
626	0.8383
635	0.8459
644	0.869
653	0.8791
662	0.8975
671	0.9225
680	0.9252
689	0.9278
698	0.9262
707	0.9236
716	0.756
725	0.8141
734	0.5341
743	0.153
752	0.2953
761	0.2507
770	0.5957
779	0.804
788	0.874
797	0.8826
806	0.8764
815	0.8672
824	0.8101
833	0.7507
842	0.7644
851	0.8419
860	0.8344
869	0.8453
878	0.8571
887	0.8446
896	0.794
905	0.7259
914	0.6834
923	0.762
932	0.7181
941	0.5845
950	0.5093
959	0.4282
968	0.4915
977	0.5943
986	0.5883
995	0.5207
1004	0.4845
1013	0.292
1022	0.1317
1031	0.145
1040	0.1733
1049	0.2439
1058	0.4039
1067	0.6211
1076	0.6961
1085	0.7386
1094	0.788
1103	0.8204
1112	0.8101
1121	0.7977
1130	0.8393
1139	0.8402
1148	0.8168
1157	0.7667
1166	0.7639
1175	0.7419
1184	0.6663
1193	0.5937
1202	0.4708
1211	0.2281
1220	0.0422
1229	0.0212
1238	0.022
1247	0.025
1256	0.0513
1265	0.1664
1274	0.3518
1283	0.4515
1292	0.5456
1301	0.6529
1310	0.6991
1319	0.7731
1328	0.8218
1337	0.8179
1346	0.7772
1355	0.6149
1364	0.3368
1373	0.3314
1382	0.2035
1391	0.2236
1400	0.4966
1409	0.6813
1418	0.6476
1427	0.5779
1436	0.5079
1445	0.4583
1454	0.4466
1463	0.4004
1472	0.3553
1481	0.4759
1490	0.5764
1499	0.5256
1508	0.5338
1517	0.7446
1526	0.8304
1535	0.8509
1544	0.8621
1553	0.8684
1562	0.8697
1571	0.8722
1580	0.8688
1589	0.8623
1598	0.855
1607	0.843
1616	0.7894
1625	0.7813
1634	0.8285
1643	0.823
1652	0.8115
1661	0.7969
1670	0.7797
1679	0.7614
1688	0.7399
1697	0.6979
1706	0.6434
1715	0.5667
1724	0.3636
1733	0.1061
1742	0.0688
1751	0.1196
1760	0.2919
1769	0.5231
1778	0.673
1787	0.7455
1796	0.7883
1805	0.8263
1814	0.8535
1823	0.8668
1832	0.8736
1841	0.8796
1850	0.8832
1859	0.8857
1868	0.8865
1877	0.8858
1886	0.8843
1895	0.8837
1904	0.8845
1913	0.8855
1922	0.8864
1931	0.8874
1940	0.8896
1949	0.8929
1958	0.8986
1967	0.9062
1976	0.9094
1985	0.9099
1994	0.9101
2003	0.9101
2012	0.91
2021	0.9099
2030	0.9095
2039	0.9091
2048	0.9086
2057	0.9088
2066	0.909
2075	0.9087
2084	0.9082
2093	0.9076
2102	0.9073
2111	0.9071
2120	0.9069
2129	0.9068
2138	0.9068
2147	0.9067
2156	0.9067
2165	0.9066
2174	0.9066
2183	0.9066
2192	0.9063
2201	0.906
2210	0.9058
2219	0.9055
2228	0.9052
2237	0.9045
2246	0.9039
2255	0.9032
2264	0.9025
2273	0.9015
2282	0.9007
2291	0.8997
2300	0.8988
2309	0.8967
2318	0.8936
2327	0.8906
2336	0.8886
2345	0.8878
2354	0.8866
2363	0.8843
2372	0.882
2381	0.8798
2390	0.8786
2399	0.8778
2408	0.8775
2417	0.8773
2426	0.8775
2435	0.8779
2444	0.8785
2453	0.8793
2462	0.8802
2471	0.8817
2480	0.8831
2489	0.8846
2498	0.8859
2507	0.8873
2516	0.888
2525	0.8886
2534	0.889
2543	0.8887
2552	0.8866
2561	0.8829
2570	0.8786
2579	0.875
2588	0.8728
2597	0.8721
2606	0.8719
2615	0.8721
2624	0.8724
2633	0.872
2642	0.8712
2651	0.8699
2660	0.8675
2669	0.8637
2678	0.8599
2687	0.8559
2696	0.8521
2705	0.8491
2714	0.8462
2723	0.8433
2732	0.8412
2741	0.8392
2750	0.8383
2759	0.8382
2768	0.8386
2777	0.8386
2786	0.838
2795	0.8365
2804	0.832
2813	0.8233
2822	0.8115
2831	0.7953
2840	0.775
2849	0.7548
2858	0.7346
2867	0.7147
2876	0.6948
2885	0.6751
2894	0.6554
2903	0.636
2912	0.6165
2921	0.5973
2930	0.5781
2939	0.5591
2948	0.5402
2957	0.5212
2966	0.5121
2975	0.5103
2984	0.5115
2993	0.5268
3002	0.5473
3011	0.5677
3020	0.583
3029	0.5796
3038	0.5661
3047	0.5598
3056	0.5729
3065	0.593
3074	0.6096
3083	0.6287
3092	0.7017
3101	0.7433
3110	0.7601
3119	0.77
3128	0.7793
3137	0.7857
3146	0.7908
3155	0.7934
3164	0.7947
3173	0.7954
3182	0.7957
3191	0.7956
3200	0.7955
3209	0.7954
3218	0.7952
3227	0.7952
3236	0.7953
3245	0.7954
3254	0.7955
3263	0.7956
3272	0.7955
3281	0.7953
3290	0.7952
3299	0.7951
3308	0.7949
3317	0.7942
3326	0.7935
3335	0.7927
3344	0.7918
3353	0.7909
3362	0.79
3371	0.7891
3380	0.7882
3389	0.787
3398	0.7858
3407	0.7845
3416	0.7833
3425	0.782
3434	0.7813
3443	0.7805
3452	0.7797
3461	0.779
3470	0.7793
3479	0.7817
3488	0.785
3497	0.7886
3506	0.7922
3515	0.7959
3524	0.7994
3533	0.8025
3542	0.8055
3551	0.8084
3560	0.8108
3569	0.8124
3578	0.814
3587	0.8156
3596	0.8168
3605	0.8179
3614	0.819
3623	0.8199
3632	0.8199
3641	0.8198
3650	0.8225
3659	0.8194
3668	0.8191
3677	0.8187
3686	0.8184
3695	0.8181
3704	0.8176
3713	0.817
3722	0.8163
3731	0.8157
3740	0.815
3749	0.8144
3758	0.8134
3767	0.8124
3776	0.8114
3785	0.8105
3794	0.8095
3803	0.8086
3812	0.8074
3821	0.8061
3830	0.8047
3839	0.8033
3848	0.8021
3857	0.8007
3866	0.7993
3875	0.7981
3884	0.7969
3893	0.7957
3902	0.7946
3911	0.7934
3920	0.7923
3929	0.7911
3938	0.7899
3947	0.7888
3956	0.7876
3965	0.7866
3974	0.7854
3983	0.7843
3992	0.7833
