Infrared Spectrum: 2-Benzoxazolethiol, 5-phenyl-
Formula: C13 H9 N O S
CAS: 17371-99-2
State: SOLID (SPLIT MULL), FLUOROLUBE FOR 3800-1330 CM^-^1, NUJOL FOR 1330-400 CM^-^1
Class: COBLENTZ III
Instrument: BECKMAN IR-9 (GRATING)
Instrument parameters: ORDER CHANGES: 670, 1200, 2000 CM^-^1
Sampling: TRANSMISSION
Resolution: 2
Origin: DOW CHEMICAL COMPANY
1/CM	TRANSMITTANCE
403	0.6887
412	0.6827
421	0.6757
430	0.5905
439	0.7263
448	0.7649
457	0.7122
466	0.5478
475	0.8089
484	0.8191
493	0.7686
502	0.8343
511	0.8389
520	0.7297
529	0.7971
538	0.8576
547	0.8664
556	0.8686
565	0.8672
574	0.8642
583	0.8602
592	0.8518
601	0.8341
610	0.5744
619	0.8027
628	0.7955
637	0.4511
646	0.7366
655	0.7616
664	0.4975
673	0.8323
682	0.8113
691	0.482
700	0.3042
709	0.655
718	0.5251
727	0.5559
736	0.6059
745	0.6734
754	0.2877
763	0.0287
772	0.6493
781	0.798
790	0.8276
799	0.8272
808	0.7948
817	0.5617
826	0.6157
835	0.703
844	0.7746
853	0.7443
862	0.3884
871	0.7792
880	0.8133
889	0.8076
898	0.8024
907	0.7537
916	0.5633
925	0.5267
934	0.0603
943	0.7203
952	0.7975
961	0.8145
970	0.8024
979	0.8024
988	0.8016
997	0.7591
1006	0.7845
1015	0.7228
1024	0.7618
1033	0.663
1042	0.7226
1051	0.729
1060	0.7219
1069	0.642
1078	0.5255
1087	0.6183
1096	0.3183
1105	0.1034
1114	0.5577
1123	0.6213
1132	0.5437
1141	0.2895
1150	0.0779
1159	0.1994
1168	0.5264
1177	0.4848
1186	0.1122
1195	0.197
1204	0.6101
1213	0.6695
1222	0.6755
1231	0.6715
1240	0.6691
1249	0.5768
1258	0.2666
1267	0.3376
1276	0.154
1285	0.2104
1294	0.4984
1303	0.5834
1312	0.661
1321	0.6622
1330	0.6267
1339	0.5656
1348	0.5521
1357	0.6445
1366	0.66
1375	0.6461
1384	0.624
1393	0.5997
1402	0.5343
1411	0.4082
1420	0.321
1429	0.1217
1438	0.3719
1447	0.2031
1456	0.0319
1465	0.0352
1474	0.0764
1483	0.5808
1492	0.5286
1501	0.2477
1510	0.69
1519	0.4906
1528	0.1637
1537	0.5283
1546	0.7511
1555	0.8428
1564	0.8571
1573	0.8413
1582	0.7731
1591	0.8385
1600	0.6553
1609	0.7629
1618	0.3991
1627	0.7017
1636	0.7591
1645	0.785
1654	0.76
1663	0.7795
1672	0.7925
1681	0.7964
1690	0.803
1699	0.7934
1708	0.7966
1717	0.8103
1726	0.8144
1735	0.8267
1744	0.8197
1753	0.8167
1762	0.8168
1771	0.8197
1780	0.8285
1789	0.8317
1798	0.8272
1807	0.821
1816	0.8195
1825	0.8167
1834	0.8128
1843	0.8094
1852	0.8044
1861	0.7975
1870	0.7861
1879	0.784
1888	0.7689
1897	0.7778
1906	0.7883
1915	0.7871
1924	0.7932
1933	0.7922
1942	0.7883
1951	0.7765
1960	0.7652
1969	0.7629
1978	0.7632
1987	0.7657
1996	0.7668
2005	0.7622
2014	0.7564
2023	0.7511
2032	0.7474
2041	0.7448
2050	0.7418
2059	0.7386
2068	0.7354
2077	0.7321
2086	0.7287
2095	0.7246
2104	0.7207
2113	0.7166
2122	0.7114
2131	0.7079
2140	0.7062
2149	0.7043
2158	0.6997
2167	0.6945
2176	0.689
2185	0.6831
2194	0.6773
2203	0.6713
2212	0.6655
2221	0.6586
2230	0.6522
2239	0.6458
2248	0.6392
2257	0.6324
2266	0.6257
2275	0.6202
2284	0.6163
2293	0.6136
2302	0.6116
2311	0.6108
2320	0.6103
2329	0.61
2338	0.6097
2347	0.6093
2356	0.609
2365	0.6086
2374	0.6045
2383	0.5878
2392	0.5781
2401	0.577
2410	0.5764
2419	0.5749
2428	0.5731
2437	0.5711
2446	0.5689
2455	0.5664
2464	0.5634
2473	0.5604
2482	0.5567
2491	0.5526
2500	0.5486
2509	0.544
2518	0.5394
2527	0.5347
2536	0.5302
2545	0.5258
2554	0.5214
2563	0.5164
2572	0.5107
2581	0.5047
2590	0.4989
2599	0.4934
2608	0.4879
2617	0.4832
2626	0.479
2635	0.4747
2644	0.4712
2653	0.4682
2662	0.4652
2671	0.4564
2680	0.4452
2689	0.4387
2698	0.4351
2707	0.4312
2716	0.4204
2725	0.4173
2734	0.4179
2743	0.4181
2752	0.4151
2761	0.4048
2770	0.3944
2779	0.3845
2788	0.3748
2797	0.3652
2806	0.359
2815	0.3542
2824	0.3521
2833	0.3481
2842	0.3395
2851	0.3291
2860	0.3182
2869	0.3072
2878	0.2975
2887	0.2796
2896	0.2635
2905	0.2563
2914	0.2519
2923	0.2475
2932	0.2411
2941	0.2389
2950	0.238
2959	0.238
2968	0.238
2977	0.2376
2986	0.2287
2995	0.2063
3004	0.1996
3013	0.2019
3022	0.1997
3031	0.1901
3040	0.1858
3049	0.1695
3058	0.1572
3067	0.1561
3076	0.1557
3085	0.1556
3094	0.1515
3103	0.1451
3112	0.145
3121	0.1484
3130	0.1545
3139	0.1744
3148	0.1812
3157	0.1811
3166	0.1817
3175	0.1928
3184	0.2113
3193	0.2281
3202	0.2425
3211	0.2581
3220	0.2731
3229	0.287
3238	0.3013
3247	0.3128
3256	0.3224
3265	0.3301
3274	0.339
3283	0.3468
3292	0.3513
3301	0.3536
3310	0.3542
3319	0.3537
3328	0.3526
3337	0.3504
3346	0.3522
3355	0.3586
3364	0.3666
3373	0.3715
3382	0.3728
3391	0.3728
3400	0.3727
3409	0.3715
3418	0.3703
3427	0.3688
3436	0.3673
3445	0.3654
3454	0.3635
3463	0.3615
3472	0.3595
3481	0.3575
3490	0.3556
3499	0.3536
3508	0.3516
3517	0.3498
3526	0.3482
3535	0.3466
3544	0.345
3553	0.3435
3562	0.3424
3571	0.3413
3580	0.3402
3589	0.3391
3598	0.338
3607	0.3366
3616	0.3349
3625	0.3333
3634	0.3317
3643	0.33
3652	0.3284
3661	0.327
3670	0.3257
3679	0.3243
3688	0.323
3697	0.3216
3706	0.3202
3715	0.3187
3724	0.3173
3733	0.3158
3742	0.3147
3751	0.3136
3760	0.3125
3769	0.3113
3778	0.3098
3787	0.3082
3796	0.3064
