Infrared Spectrum: 3-Fluorophenylacetone
Formula: C 9 H 9 F O
CAS: 1737-19-5
State: gas
Origin: EPA-IR VAPOR PHASE LIBRARY
1/CM	ABSORBANCE
549.8	0.008064
559.445	0.006464
569.09	0.006614
578.734	0.003844
588.379	0.0012461
598.024	0.0015249
607.669	0.002634
617.313	0.002144
626.958	0.002684
636.603	0.002524
646.248	0.002474
655.893	0.003174
665.537	0.004744
675.182	0.012434
684.827	0.025704
694.472	0.019064
704.116	0.007704
713.761	0.004784
723.406	0.006174
733.051	0.011704
742.695	0.018004
752.34	0.019934
761.985	0.022314
771.63	0.031134
781.275	0.028084
790.919	0.016464
800.564	0.007704
810.209	0.004274
819.854	0.003134
829.498	0.003554
839.143	0.003764
848.788	0.005114
858.433	0.009604
868.078	0.015764
877.722	0.015754
887.367	0.012054
897.012	0.007914
906.657	0.005804
916.301	0.007104
925.946	0.012794
935.591	0.025014
945.236	0.025064
954.88	0.011324
964.525	0.007984
974.17	0.008324
983.815	0.008104
993.46	0.007134
1003.1	0.007354
1012.75	0.006934
1022.39	0.006194
1032.04	0.005314
1041.68	0.005204
1051.33	0.003144
1060.97	0.004794
1070.62	0.006634
1080.26	0.007704
1089.91	0.005274
1099.55	0.005094
1109.2	0.006234
1118.84	0.011434
1128.49	0.025184
1138.13	0.049854
1147.78	0.059844
1157.42	0.037654
1167.07	0.022654
1176.71	0.016684
1186.36	0.016504
1196	0.020524
1205.64	0.030244
1215.29	0.040354
1224.93	0.040494
1234.58	0.038004
1244.22	0.054914
1253.87	0.071614
1263.51	0.061544
1273.16	0.040234
1282.8	0.026134
1292.45	0.019194
1302.09	0.015684
1311.74	0.013984
1321.38	0.015104
1331.03	0.015554
1340.67	0.017704
1350.32	0.027654
1359.96	0.038614
1369.61	0.029374
1379.25	0.015784
1388.9	0.011384
1398.54	0.011484
1408.18	0.012984
1417.83	0.016294
1427.47	0.021934
1437.12	0.031294
1446.76	0.037304
1456.41	0.031004
1466.05	0.022414
1475.7	0.029924
1485.34	0.054024
1494.99	0.045084
1504.63	0.017724
1514.28	0.012964
1523.92	0.011794
1533.57	0.009614
1543.21	0.009064
1552.86	0.010774
1562.5	0.015964
1572.15	0.027584
1581.79	0.047644
1591.44	0.064124
1601.08	0.062234
1610.73	0.064774
1620.37	0.046104
1630.01	0.015264
1639.66	0.007914
1649.3	0.006244
1658.95	0.007074
1668.59	0.008244
1678.24	0.010704
1687.88	0.015154
1697.53	0.022424
1707.17	0.034904
1716.82	0.060364
1726.46	0.092274
1736.11	0.092334
1745.75	0.067364
1755.4	0.044574
1765.04	0.026644
1774.69	0.014964
1784.33	0.008714
1793.98	0.005834
1803.62	0.004344
1813.27	0.003234
1822.91	0.003164
1832.55	0.003434
1842.2	0.003854
1851.84	0.004084
1861.49	0.003114
1871.13	0.002564
1880.78	0.002234
1890.42	0.002414
1900.07	0.002164
1909.71	0.002774
1919.36	0.003324
1929	0.003624
1938.65	0.002664
1948.29	0.002254
1957.94	0.0017993
1967.58	0.0015506
1977.23	0.0018321
1986.87	0.0018592
1996.52	0.002024
2006.16	0.002164
2015.81	0.0019262
2025.45	0.0018154
2035.1	0.0017607
2044.74	0.0016259
2054.38	0.0016697
2064.03	0.001628
2073.67	0.0016264
2083.32	0.0019029
2092.96	0.001994
2102.61	0.0016046
2112.25	0.0016737
2121.9	0.0018366
2131.54	0.001994
2141.19	0.001925
2150.83	0.002044
2160.48	0.0018329
2170.12	0.0017774
2179.77	0.002134
2189.41	0.0018128
2199.06	0.001809
2208.7	0.0016702
2218.35	0.0016598
2227.99	0.001476
2237.64	0.0016217
2247.28	0.0015915
2256.92	0.0014594
2266.57	0.0014117
2276.21	0.0016663
2285.86	0.0014111
2295.5	0.0016692
2305.15	0.0016571
2314.79	0.0017163
2324.44	0.002024
2334.08	0.0015421
2343.73	0.0016556
2353.37	0.002004
2363.02	0.0016405
2372.66	0.0019487
2382.31	0.0017193
2391.95	0.001974
2401.6	0.0016715
2411.24	0.0016873
2420.89	0.002104
2430.53	0.0018716
2440.18	0.0017507
2449.82	0.001317
2459.47	0.0016389
2469.11	0.0014215
2478.75	0.0018165
2488.4	0.0019357
2498.04	0.002104
2507.69	0.0016987
2517.33	0.001964
2526.98	0.001757
2536.62	0.0017856
2546.27	0.0013404
2555.91	0.0016087
2565.56	0.0018138
2575.2	0.0014689
2584.85	0.0017122
2594.49	0.0013798
2604.14	0.0017506
2613.78	0.0014231
2623.43	0.001418
2633.07	0.0017018
2642.72	0.0012992
2652.36	0.0010518
2662.01	0.0008923
2671.65	0.0017195
2681.29	0.0014374
2690.94	0.0016413
2700.58	0.0016396
2710.23	0.0016565
2719.87	0.0016264
2729.52	0.0018447
2739.16	0.001898
2748.81	0.0015004
2758.45	0.0018156
2768.1	0.00113
2777.74	0.0017612
2787.39	0.001679
2797.03	0.0018164
2806.68	0.002084
2816.32	0.002844
2825.97	0.002134
2835.61	0.002594
2845.26	0.002754
2854.9	0.002834
2864.55	0.003154
2874.19	0.003374
2883.84	0.004564
2893.48	0.006154
2903.12	0.007324
2912.77	0.010004
2922.41	0.012564
2932.06	0.012684
2941.7	0.010214
2951.35	0.008714
2960.99	0.009544
2970.64	0.008894
2980.28	0.006844
2989.93	0.005194
2999.57	0.006394
3009.22	0.007674
3018.86	0.008784
3028.51	0.008304
3038.15	0.010124
3047.8	0.011934
3057.44	0.011964
3067.09	0.012044
3076.73	0.011784
3086.38	0.010584
3096.02	0.007964
3105.67	0.005004
3115.31	0.003824
3124.95	0.002644
3134.6	0.002304
3144.24	0.0015965
3153.89	0.0012699
3163.53	0.00104772
3173.18	0.000675
3182.82	0.0011997
3192.47	0.0011451
3202.11	0.00084
3211.76	0.0016605
3221.4	0.0014333
3231.05	0.0011283
3240.69	0.001581
3250.34	0.0011297
3259.98	0.0012254
3269.63	0.0013427
3279.27	0.000745
3288.92	0.000772
3298.56	0.0014556
3308.21	0.0013248
3317.85	0.0012954
3327.49	0.00072
3337.14	0.000589
3346.78	0.00104053
3356.43	0.000814
3366.07	0.0009371
3375.72	0.0011149
3385.36	0.00102142
3395.01	0.0013758
3404.65	0.0013763
3414.3	0.0019077
3423.94	0.002064
3433.59	0.002704
3443.23	0.003324
3452.88	0.003084
3462.52	0.001549
3472.17	0.0018945
3481.81	0.001994
3491.46	0.0014088
3501.1	0.0012039
3510.75	0.0014154
3520.39	0.0013012
3530.04	0.0013414
3539.68	0.0015739
3549.32	0.0011841
3558.97	0.00095231
3568.61	0.001529
3578.26	0.000402
3587.9	0.0009402
3597.55	0.0015029
3607.19	0.000525
3616.84	0.000699
3626.48	0.000694
3636.13	0.0011323
3645.77	0.000275
3655.42	0.00083
3665.06	0.000605
3674.71	0.0010217
3684.35	0.000579
3694	0.000536
3703.64	0.0011287
3713.29	0.0010843
3722.93	0.000113
3732.58	0.0008818
3742.22	0.000812
3751.86	0.000698
3761.51	0.00102984
3771.15	0.0008698
3780.8	0.000268
3790.44	0.001994
3800.09	0.000536
3809.73	0.000727
3819.38	0.00097526
3829.02	0.0012648
3838.67	0.00099692
3848.31	0.001359
3857.96	0.000615
3867.6	0.000839
3877.25	0.0010688
3886.89	0.00098461
3896.54	0.0013606
3906.18	0.0009192
3915.83	0.000296
3925.47	0.0010689
3935.12	0.000799
3944.76	0.000235
3954.41	0.0011565
3964.05	0.001293
3973.69	0.001512
3983.34	0.000725
3992.98	0.0015327
