Infrared Spectrum: 4-PHENYL-4H-1,3,4-THIADIAZINE-2(3H)-THIONE
Formula: C9 H8 N2 S2
CAS: 17374-23-1
State: SOLID (MINERAL OIL MULL)
Class: COBLENTZ
Instrument: Not specified, most likely a prism, grating, or hybrid spectrometer.
Sampling: TRANSMISSION
Resolution: 4
Origin: DOW CHEMICAL COMPANY
MICROMETERS	TRANSMITTANCE
2.039	0.482
2.07807	0.495
2.11714	0.508
2.15621	0.521
2.19528	0.531
2.23435	0.538
2.27342	0.543
2.31249	0.551
2.35156	0.56
2.39063	0.575
2.4297	0.58
2.46877	0.595
2.50784	0.604
2.54691	0.613
2.58598	0.622
2.62505	0.63
2.66412	0.634
2.70319	0.65
2.74226	0.653
2.78133	0.663
2.8204	0.673
2.85947	0.676
2.89854	0.678
2.93761	0.687
2.97668	0.687
3.01575	0.682
3.05482	0.588
3.09389	0.356
3.13296	0.526
3.17203	0.554
3.2111	0.486
3.25017	0.521
3.28924	0.512
3.32831	0.533
3.36738	0.365
3.40645	0.074
3.44552	0.068
3.48459	0.157
3.52366	0.502
3.56273	0.686
3.6018	0.72
3.64087	0.73
3.67994	0.73
3.71901	0.739
3.75808	0.746
3.79715	0.754
3.83622	0.76
3.87529	0.767
3.91436	0.778
3.95343	0.79
3.9925	0.8
4.03157	0.803
4.07064	0.808
4.10971	0.814
4.14879	0.817
4.18786	0.811
4.22693	0.808
4.266	0.816
4.30507	0.84
4.34414	0.842
4.38321	0.837
4.42228	0.837
4.46135	0.848
4.50042	0.855
4.53949	0.86
4.57856	0.858
4.61763	0.858
4.6567	0.861
4.69577	0.869
4.73484	0.873
4.77391	0.874
4.81298	0.874
4.85205	0.874
4.89112	0.878
4.93019	0.881
4.96926	0.882
5.00833	0.884
5.0474	0.887
5.08647	0.886
5.12554	0.876
5.16461	0.874
5.20368	0.889
5.24275	0.894
5.28182	0.899
5.32089	0.9
5.35996	0.899
5.39903	0.887
5.4381	0.894
5.47717	0.904
5.51624	0.905
5.55531	0.905
5.59438	0.9
5.63345	0.902
5.67252	0.915
5.71159	0.912
5.75066	0.891
5.78973	0.855
5.8288	0.874
5.86787	0.892
5.90694	0.91
5.94601	0.912
5.98508	0.913
6.02415	0.912
6.06322	0.899
6.10229	0.899
6.14136	0.871
6.18043	0.835
6.2195	0.7
6.25857	0.43
6.29764	0.71
6.33671	0.821
6.37578	0.839
6.41485	0.83
6.45392	0.772
6.49299	0.83
6.53206	0.887
6.57113	0.868
6.6102	0.814
6.64927	0.655
6.68834	0.382
6.72741	0.33
6.76648	0.656
6.80555	0.499
6.84462	0.408
6.88369	0.414
6.92276	0.365
6.96183	0.705
7.0009	0.819
7.03997	0.852
7.07904	0.869
7.11811	0.869
7.15718	0.843
7.19625	0.791
7.23532	0.673
7.27439	0.613
7.31346	0.708
7.35253	0.66
7.3916	0.687
7.43067	0.759
7.46974	0.588
7.50881	0.406
7.54788	0.278
7.58695	0.292
7.62602	0.453
7.66509	0.383
7.70416	0.206
7.74323	0.195
7.7823	0.297
7.82137	0.565
7.86044	0.72
7.89951	0.772
7.93858	0.777
7.97765	0.733
8.01672	0.601
8.05579	0.551
8.09486	0.691
8.13393	0.769
8.173	0.713
8.21207	0.652
8.25114	0.765
8.29021	0.858
8.32929	0.882
8.36836	0.894
8.40743	0.902
8.4465	0.905
8.48557	0.899
8.52464	0.897
8.56371	0.899
8.60278	0.899
8.64185	0.892
8.68092	0.852
8.71999	0.824
8.75906	0.84
8.79813	0.798
8.8372	0.523
8.87627	0.232
8.91534	0.595
8.95441	0.791
8.99348	0.83
9.03255	0.865
9.07162	0.899
9.11069	0.912
9.14976	0.917
9.18883	0.921
9.2279	0.918
9.26697	0.84
9.30604	0.809
9.34511	0.856
9.38418	0.874
9.42325	0.856
9.46232	0.796
9.50139	0.601
9.54046	0.391
9.57953	0.2
9.6186	0.216
9.65767	0.432
9.69674	0.497
9.73581	0.666
9.77488	0.769
9.81395	0.819
9.85302	0.845
9.89209	0.871
9.93116	0.886
9.97023	0.897
10.0093	0.902
10.0484	0.905
10.0874	0.907
10.1265	0.907
10.1656	0.902
10.2046	0.892
10.2437	0.889
10.2828	0.894
10.3219	0.887
10.3609	0.822
10.4	0.736
10.4391	0.606
10.4781	0.549
10.5172	0.66
10.5563	0.757
10.5954	0.816
10.6344	0.853
10.6735	0.873
10.7126	0.887
10.7516	0.899
10.7907	0.904
10.8298	0.913
10.8688	0.917
10.9079	0.917
10.947	0.917
10.9861	0.915
11.0251	0.923
11.0642	0.93
11.1033	0.928
11.1423	0.918
11.1814	0.869
11.2205	0.826
11.2595	0.83
11.2986	0.891
11.3377	0.913
11.3768	0.928
11.4158	0.93
11.4549	0.93
11.494	0.933
11.533	0.933
11.5721	0.905
11.6112	0.806
11.6502	0.764
11.6893	0.783
11.7284	0.801
11.7675	0.782
11.8065	0.756
11.8456	0.826
11.8847	0.899
11.9237	0.933
11.9628	0.949
12.0019	0.939
12.0409	0.902
12.08	0.837
12.1191	0.708
12.1582	0.551
12.1972	0.51
12.2363	0.7
12.2754	0.843
12.3144	0.9
12.3535	0.923
12.3926	0.939
12.4316	0.943
12.4707	0.946
12.5098	0.946
12.5489	0.947
12.5879	0.949
12.627	0.949
12.6661	0.946
12.7051	0.938
12.7442	0.926
12.7833	0.913
12.8223	0.897
12.8614	0.889
12.9005	0.868
12.9396	0.848
12.9786	0.821
13.0177	0.77
13.0568	0.699
13.0958	0.59
13.1349	0.434
13.174	0.294
13.213	0.2
13.2521	0.17
13.2912	0.258
13.3303	0.38
13.3693	0.51
13.4084	0.562
13.4475	0.588
13.4865	0.59
13.5256	0.564
13.5647	0.499
13.6037	0.452
13.6428	0.386
13.6819	0.36
13.721	0.455
13.76	0.551
13.7991	0.629
13.8382	0.692
13.8772	0.72
13.9163	0.741
13.9554	0.757
13.9944	0.769
14.0335	0.772
14.0726	0.772
14.1117	0.765
14.1507	0.744
14.1898	0.723
14.2289	0.676
14.2679	0.588
14.307	0.445
14.3461	0.317
14.3851	0.224
14.4242	0.221
14.4633	0.287
14.5024	0.331
14.5414	0.331
14.5805	0.273
14.6196	0.203
14.6586	0.17
14.6977	0.162
14.7368	0.226
14.7759	0.294
14.8149	0.359
14.854	0.448
14.8931	0.492
14.9321	0.517
14.9712	0.539
15.0103	0.564
15.0493	0.573
15.0884	0.577
15.1275	0.58
15.1666	0.58
15.2056	0.58
15.2447	0.58
15.2838	0.577
15.3228	0.569
15.3619	0.567
15.401	0.557
15.44	0.551
15.4791	0.546
15.5182	0.538
15.5573	0.526
15.5963	0.518
15.6354	0.508
15.6745	0.502
15.7135	0.494
15.7526	0.487
15.7917	0.474
15.8307	0.466
15.8698	0.456
15.9089	0.453
15.948	0.452
