Infrared Spectrum: N-Benzyl-4-methoxyaniline
Formula: C 14 H 15 N O
CAS: 17377-95-6
State: gas
Origin: EPA-IR VAPOR PHASE LIBRARY
1/CM	ABSORBANCE
549.8	0.011133
559.445	0.011103
569.09	0.010333
578.734	0.011193
588.379	0.011743
598.024	0.011353
607.669	0.010613
617.313	0.009943
626.958	0.010353
636.603	0.010473
646.248	0.010303
655.893	0.010363
665.537	0.012253
675.182	0.015703
684.827	0.023503
694.472	0.034223
704.116	0.029503
713.761	0.024573
723.406	0.026643
733.051	0.034193
742.695	0.034053
752.34	0.026943
761.985	0.018473
771.63	0.009883
781.275	0.008523
790.919	0.010273
800.564	0.014523
810.209	0.026663
819.854	0.040513
829.498	0.029743
839.143	0.015473
848.788	0.009063
858.433	0.006463
868.078	0.005793
877.722	0.005023
887.367	0.004593
897.012	0.004843
906.657	0.005463
916.301	0.004383
925.946	0.003103
935.591	0.003523
945.236	0.003093
954.88	0.003723
964.525	0.004313
974.17	0.005533
983.815	0.007463
993.46	0.008483
1003.1	0.011403
1012.75	0.015353
1022.39	0.026933
1032.04	0.041843
1041.68	0.044003
1051.33	0.038403
1060.97	0.029323
1070.62	0.021783
1080.26	0.019793
1089.91	0.015603
1099.55	0.013023
1109.2	0.014113
1118.84	0.014813
1128.49	0.010843
1138.13	0.007523
1147.78	0.007693
1157.42	0.011023
1167.07	0.021983
1176.71	0.028163
1186.36	0.024393
1196	0.022623
1205.64	0.027313
1215.29	0.042543
1224.93	0.089103
1234.58	0.175393
1244.22	0.200773
1253.87	0.128393
1263.51	0.064673
1273.16	0.043993
1282.8	0.037043
1292.45	0.032833
1302.09	0.027703
1311.74	0.023973
1321.38	0.018813
1331.03	0.013593
1340.67	0.010903
1350.32	0.012203
1359.96	0.012953
1369.61	0.009413
1379.25	0.008573
1388.9	0.009733
1398.54	0.013863
1408.18	0.015813
1417.83	0.011583
1427.47	0.013403
1437.12	0.021533
1446.76	0.032703
1456.41	0.036663
1466.05	0.049783
1475.7	0.051703
1485.34	0.038513
1494.99	0.066163
1504.63	0.207853
1514.28	0.316253
1523.92	0.104173
1533.57	0.038463
1543.21	0.019963
1552.86	0.013783
1562.5	0.011023
1572.15	0.009843
1581.79	0.010073
1591.44	0.011243
1601.08	0.012843
1610.73	0.012383
1620.37	0.009783
1630.01	0.007773
1639.66	0.006063
1649.3	0.004603
1658.95	0.003973
1668.59	0.003403
1678.24	0.003143
1687.88	0.002993
1697.53	0.003323
1707.17	0.003423
1716.82	0.003793
1726.46	0.003723
1736.11	0.003013
1745.75	0.003183
1755.4	0.002903
1765.04	0.002863
1774.69	0.002973
1784.33	0.003173
1793.98	0.004373
1803.62	0.004303
1813.27	0.003723
1822.91	0.003873
1832.55	0.004283
1842.2	0.004493
1851.84	0.004613
1861.49	0.004503
1871.13	0.004253
1880.78	0.003803
1890.42	0.003153
1900.07	0.002793
1909.71	0.002723
1919.36	0.003123
1929	0.003263
1938.65	0.003973
1948.29	0.004063
1957.94	0.003973
1967.58	0.003023
1977.23	0.002933
1986.87	0.002893
1996.52	0.002863
2006.16	0.002753
2015.81	0.002663
2025.45	0.002723
2035.1	0.003043
2044.74	0.003323
2054.38	0.003663
2064.03	0.003593
2073.67	0.003373
2083.32	0.003123
2092.96	0.002743
2102.61	0.002083
2112.25	0.002033
2121.9	0.001743
2131.54	0.0014352
2141.19	0.0013403
2150.83	0.0014943
2160.48	0.001461
2170.12	0.0013414
2179.77	0.001362
2189.41	0.0013473
2199.06	0.0012081
2208.7	0.0013478
2218.35	0.0012476
2227.99	0.0011576
2237.64	0.0013321
2247.28	0.0012538
2256.92	0.001401
2266.57	0.0015563
2276.21	0.0015846
2285.86	0.001853
2295.5	0.001703
2305.15	0.001733
2314.79	0.002133
2324.44	0.002103
2334.08	0.002023
2343.73	0.001913
2353.37	0.001613
2363.02	0.0015169
2372.66	0.0015436
2382.31	0.0011205
2391.95	0.0012714
2401.6	0.0014154
2411.24	0.001495
2420.89	0.0014381
2430.53	0.0012876
2440.18	0.001623
2449.82	0.0015767
2459.47	0.0015465
2469.11	0.001653
2478.75	0.0015911
2488.4	0.001783
2498.04	0.001763
2507.69	0.001633
2517.33	0.0014581
2526.98	0.0015683
2536.62	0.001913
2546.27	0.002273
2555.91	0.001993
2565.56	0.001833
2575.2	0.001803
2584.85	0.001623
2594.49	0.002133
2604.14	0.0014803
2613.78	0.001683
2623.43	0.0014681
2633.07	0.0015436
2642.72	0.0015198
2652.36	0.0015228
2662.01	0.0015813
2671.65	0.001793
2681.29	0.001753
2690.94	0.001913
2700.58	0.002193
2710.23	0.001813
2719.87	0.002053
2729.52	0.001813
2739.16	0.002103
2748.81	0.002393
2758.45	0.002373
2768.1	0.002783
2777.74	0.003743
2787.39	0.004533
2797.03	0.006083
2806.68	0.008053
2816.32	0.010553
2825.97	0.014483
2835.61	0.025913
2845.26	0.027283
2854.9	0.021583
2864.55	0.019843
2874.19	0.018683
2883.84	0.017843
2893.48	0.018663
2903.12	0.021383
2912.77	0.025523
2922.41	0.028193
2932.06	0.030923
2941.7	0.032013
2951.35	0.027223
2960.99	0.020903
2970.64	0.015953
2980.28	0.014663
2989.93	0.019023
2999.57	0.030443
3009.22	0.027013
3018.86	0.025093
3028.51	0.037563
3038.15	0.034363
3047.8	0.024913
3057.44	0.026983
3067.09	0.033743
3076.73	0.029163
3086.38	0.018603
3096.02	0.014773
3105.67	0.011013
3115.31	0.007803
3124.95	0.004613
3134.6	0.002933
3144.24	0.002513
3153.89	0.001953
3163.53	0.001783
3173.18	0.001713
3182.82	0.0015196
3192.47	0.0007678
3202.11	0.0010676
3211.76	0.00063801
3221.4	0.0009892
3231.05	0.0005446
3240.69	0.001097
3250.34	0.0010874
3259.98	0.0005407
3269.63	0.000384
3279.27	0.00060934
3288.92	0.00063109
3298.56	0.00063979
3308.21	0.000443
3317.85	0.00034
3327.49	0.000427
3337.14	0.0012604
3346.78	0.00058566
3356.43	0.0006205
3366.07	0.0012026
3375.72	0.0007913
3385.36	0.0011753
3395.01	0.0013596
3404.65	0.002323
3414.3	0.003673
3423.94	0.003513
3433.59	0.003523
3443.23	0.003893
3452.88	0.003633
3462.52	0.002403
3472.17	0.0014956
3481.81	0.0013026
3491.46	0.0007939
3501.1	0.000394
3510.75	0.0006878
3520.39	0.00060814
3530.04	0.00058311
3539.68	0.0008322
3549.32	0.0011684
3558.97	0.0007577
3568.61	0.0005421
3578.26	0.000442
3587.9	0.0012915
3597.55	0.0008
3607.19	0.0005012
3616.84	0.0008267
3626.48	0.0005664
3636.13	0.0009472
3645.77	0.0005134
3655.42	0.0010095
3665.06	0.0011031
3674.71	0.000799
3684.35	0.0005787
3694	0.0008182
3703.64	0.0013499
3713.29	0.00067374
3722.93	0.00060451
3732.58	0.0010457
3742.22	0.0007643
3751.86	0.0007353
3761.51	0.0009274
3771.15	0.000394
3780.8	0.0008323
3790.44	0.0008307
3800.09	0.0011353
3809.73	0.0009276
3819.38	0.0008074
3829.02	0.0009354
3838.67	0.0008987
3848.31	0.000335
3857.96	0.000746
3867.6	0.000938
3877.25	0.0008614
3886.89	0.0012664
3896.54	0.0009872
3906.18	0.001016
3915.83	0.00066905
3925.47	0.0007844
3935.12	0.0009488
3944.76	0.0008628
3954.41	0.0009414
3964.05	0.001173
3973.69	0.001593
3983.34	0.0007828
3992.98	0.0011555
