Infrared Spectrum: 3',4'-Dihydroxybutyrophenone
Formula: C10 H12 O3
CAS: 17386-89-9
State: SOLID (SPLIT MULL), FLUOROLUBE FOR 3800-1330 CM^-^1, NUJOL FOR 1330-400 CM^-^1
Class: COBLENTZ III
Instrument: DOW KBr FOREPRISM-GRATING
Instrument parameters: BLAZED AT 3.5, 12.0, 20.0 MICRON AND CHANGED AT 5.0, 7.5, 14.9 MICRON
Sampling: TRANSMISSION
Resolution: 2
Origin: DOW CHEMICAL COMPANY
1/CM	TRANSMITTANCE
3812	0.5773
3803	0.5799
3794	0.5827
3785	0.5854
3776	0.5882
3767	0.591
3758	0.5937
3749	0.5965
3740	0.5991
3731	0.6012
3722	0.6041
3713	0.6071
3704	0.6101
3695	0.613
3686	0.6158
3677	0.6187
3668	0.6226
3659	0.6268
3650	0.631
3641	0.6353
3632	0.6398
3623	0.6443
3614	0.6488
3605	0.6538
3596	0.6586
3587	0.6608
3578	0.6698
3569	0.6751
3560	0.6753
3551	0.6722
3542	0.6653
3533	0.6557
3524	0.6388
3515	0.6008
3506	0.5603
3497	0.5215
3488	0.4633
3479	0.4189
3470	0.383
3461	0.3576
3452	0.3443
3443	0.338
3434	0.3374
3425	0.3486
3416	0.3645
3407	0.3804
3398	0.3971
3389	0.4125
3380	0.421
3371	0.4258
3362	0.4271
3353	0.4265
3344	0.4243
3335	0.4188
3326	0.4077
3317	0.397
3308	0.3897
3299	0.3798
3290	0.3666
3281	0.3521
3272	0.3248
3263	0.2593
3254	0.2197
3245	0.1973
3236	0.1771
3227	0.1602
3218	0.1489
3209	0.1463
3200	0.152
3191	0.1643
3182	0.1793
3173	0.1966
3164	0.2142
3155	0.2302
3146	0.2463
3137	0.2615
3128	0.2765
3119	0.2923
3110	0.3085
3101	0.3282
3092	0.3471
3083	0.3643
3074	0.38
3065	0.3958
3056	0.4036
3047	0.409
3038	0.4223
3029	0.4405
3020	0.4568
3011	0.4715
3002	0.4871
2993	0.5001
2984	0.5007
2975	0.33
2966	0.3098
2957	0.4265
2948	0.4394
2939	0.4034
2930	0.4445
2921	0.473
2912	0.4857
2903	0.487
2894	0.4529
2885	0.4397
2876	0.4074
2867	0.4746
2858	0.5075
2849	0.521
2840	0.5272
2831	0.533
2822	0.5374
2813	0.5401
2804	0.5416
2795	0.5415
2786	0.5412
2777	0.5494
2768	0.5576
2759	0.5627
2750	0.5655
2741	0.5662
2732	0.5656
2723	0.5652
2714	0.566
2705	0.5685
2696	0.5722
2687	0.5768
2678	0.5837
2669	0.59
2660	0.5934
2651	0.5941
2642	0.5942
2633	0.5956
2624	0.6008
2615	0.6046
2606	0.6084
2597	0.6097
2588	0.61
2579	0.6095
2570	0.6077
2561	0.606
2552	0.6087
2543	0.6141
2534	0.6173
2525	0.6194
2516	0.6218
2507	0.6241
2498	0.6266
2489	0.6289
2480	0.6314
2471	0.6362
2462	0.638
2453	0.638
2444	0.6387
2435	0.6392
2426	0.6395
2417	0.6397
2408	0.6405
2399	0.6424
2390	0.6445
2381	0.6467
2372	0.6492
2363	0.6508
2354	0.6531
2345	0.6594
2336	0.6614
2327	0.6649
2318	0.6728
2309	0.681
2300	0.681
2291	0.6791
2282	0.6784
2273	0.6841
2264	0.6898
2255	0.6917
2246	0.695
2237	0.6997
2228	0.7053
2219	0.7103
2210	0.7145
2201	0.7187
2192	0.7212
2183	0.7226
2174	0.7238
2165	0.7255
2156	0.7278
2147	0.7318
2138	0.734
2129	0.7358
2120	0.7388
2111	0.7421
2102	0.7474
2093	0.7522
2084	0.7534
2075	0.7501
2066	0.7508
2057	0.7519
2048	0.7542
2039	0.7565
2030	0.7596
2021	0.7628
2012	0.7657
2003	0.7658
1994	0.7631
1985	0.7681
1976	0.7715
1967	0.7742
1958	0.7818
1949	0.7825
1940	0.7828
1931	0.7843
1922	0.7872
1913	0.7911
1904	0.7933
1895	0.7855
1886	0.769
1877	0.7839
1868	0.7864
1859	0.7908
1850	0.7955
1841	0.7999
1832	0.8046
1823	0.81
1814	0.8137
1805	0.8171
1796	0.8213
1787	0.821
1778	0.8191
1769	0.8268
1760	0.8268
1751	0.8284
1742	0.8448
1733	0.8566
1724	0.8531
1715	0.8521
1706	0.8678
1697	0.8754
1688	0.8803
1679	0.8821
1670	0.8307
1661	0.6926
1652	0.1979
1643	0.0641
1634	0.5443
1625	0.6775
1616	0.6956
1607	0.1782
1598	0.1734
1589	0.0646
1580	0.2045
1571	0.3882
1562	0.4967
1553	0.5588
1544	0.6209
1535	0.5467
1526	0.5418
1517	0.638
1508	0.6601
1499	0.6984
1490	0.7251
1481	0.7283
1472	0.7228
1463	0.6651
1454	0.5259
1445	0.2918
1436	0.2305
1427	0.4993
1418	0.6234
1409	0.6214
1400	0.4497
1391	0.571
1382	0.42
1373	0.1766
1364	0.1808
1355	0.4282
1346	0.4803
1337	0.4996
1328	0.498
1319	0.2866
1310	0.1984
1301	0.3126
1292	0.1995
1283	0.0984
1274	0.2768
1265	0.4637
1256	0.3602
1247	0.4112
1238	0.381
1229	0.3192
1220	0.0989
1211	0.0494
1202	0.2056
1193	0.3372
1184	0.245
1175	0.3162
1166	0.4493
1157	0.5294
1148	0.5642
1139	0.5916
1130	0.6208
1121	0.6476
1112	0.6358
1103	0.5737
1094	0.5017
1085	0.6259
1076	0.675
1067	0.6967
1058	0.7122
1049	0.7245
1040	0.7212
1031	0.7191
1022	0.7278
1013	0.5487
1004	0.6268
995	0.6911
986	0.7146
977	0.7151
968	0.7125
959	0.7185
950	0.7162
941	0.6945
932	0.4547
923	0.7217
914	0.7461
905	0.7425
896	0.5344
887	0.7233
878	0.7564
869	0.746
860	0.631
851	0.7924
842	0.8036
833	0.7948
824	0.6715
815	0.8119
806	0.8214
797	0.6496
788	0.7183
779	0.7876
770	0.7271
761	0.6241
752	0.6406
743	0.7542
734	0.728
725	0.7542
716	0.7545
707	0.7738
698	0.7699
689	0.7455
680	0.6682
671	0.654
662	0.6868
653	0.7775
644	0.7976
635	0.7278
626	0.7933
617	0.6167
608	0.7619
599	0.7511
590	0.6136
581	0.7056
572	0.7022
563	0.6984
554	0.6937
545	0.6946
536	0.7038
527	0.7196
518	0.7375
509	0.7596
500	0.763
491	0.7607
482	0.7901
473	0.8056
464	0.8006
455	0.7419
446	0.7569
437	0.7756
428	0.7371
419	0.7734
410	0.7838
401	0.7868
392	0.7878
383	0.7878
