Infrared Spectrum: Beta-DIMETHYLAMINO PROPIONITRILE
Formula: C5 H10 N2
CAS: 1738-25-6
State: LIQUID
Boiling point: 172-174 C
Class: COBLENTZ
Instrument: Not specified, most likely a prism, grating, or hybrid spectrometer.
Sampling: TRANSMISSION
Path length: 0.003 CM
Resolution: 4
Origin: WYANDOTTE CHEMICALS CORP., WYANDOTTE, MICHIGAN, USA
MICROMETERS	TRANSMITTANCE
2.034	0.994
2.07474	0.996
2.11547	0.998
2.15621	0.996
2.19694	0.981
2.23768	0.923
2.27841	0.95
2.31915	0.928
2.35989	0.94
2.40062	0.95
2.44136	0.95
2.48209	0.935
2.52283	0.95
2.56356	0.954
2.6043	0.955
2.64504	0.955
2.68577	0.962
2.72651	0.943
2.76724	0.918
2.80798	0.91
2.84871	0.911
2.88945	0.915
2.93019	0.91
2.97092	0.898
3.01166	0.881
3.05239	0.874
3.09313	0.865
3.13386	0.82
3.1746	0.801
3.21534	0.801
3.25607	0.78
3.29681	0.762
3.33754	0.636
3.37828	0.166
3.41901	0.11
3.45975	0.232
3.50049	0.242
3.54122	0.202
3.58196	0.061
3.62269	0.091
3.66343	0.183
3.70417	0.436
3.7449	0.723
3.78564	0.809
3.82637	0.835
3.86711	0.835
3.90784	0.855
3.94858	0.872
3.98932	0.865
4.03005	0.855
4.07079	0.852
4.11152	0.87
4.15226	0.874
4.19299	0.869
4.23373	0.877
4.27447	0.889
4.3152	0.896
4.35594	0.891
4.39667	0.893
4.43741	0.881
4.47814	0.86
4.51888	0.631
4.55962	0.507
4.60035	0.869
4.64109	0.869
4.68182	0.879
4.72256	0.906
4.76329	0.915
4.80403	0.896
4.84477	0.891
4.8855	0.887
4.92624	0.891
4.96697	0.891
5.00771	0.881
5.04844	0.887
5.08918	0.887
5.12992	0.899
5.17065	0.903
5.21139	0.893
5.25212	0.893
5.29286	0.893
5.33359	0.893
5.37433	0.886
5.41507	0.887
5.4558	0.889
5.49654	0.881
5.53727	0.876
5.57801	0.879
5.61874	0.887
5.65948	0.894
5.70022	0.884
5.74095	0.881
5.78169	0.877
5.82242	0.874
5.86316	0.864
5.90389	0.848
5.94463	0.82
5.98537	0.825
6.0261	0.828
6.06684	0.818
6.10757	0.816
6.14831	0.823
6.18904	0.823
6.22978	0.823
6.27052	0.823
6.31125	0.825
6.35199	0.825
6.39272	0.821
6.43346	0.813
6.4742	0.796
6.51493	0.789
6.55567	0.774
6.5964	0.752
6.63714	0.701
6.67787	0.645
6.71861	0.485
6.75935	0.281
6.80008	0.062
6.84082	0.108
6.88155	0.173
6.92229	0.266
6.96302	0.365
7.00376	0.324
7.0445	0.461
7.08523	0.573
7.12597	0.638
7.1667	0.655
7.20744	0.534
7.24817	0.317
7.28891	0.38
7.32965	0.548
7.37038	0.657
7.41112	0.662
7.45185	0.616
7.49259	0.483
7.53332	0.626
7.57406	0.668
7.6148	0.662
7.65553	0.628
7.69627	0.597
7.737	0.55
7.77774	0.461
7.81847	0.348
7.85921	0.208
7.89995	0.297
7.94068	0.522
7.98142	0.58
8.02215	0.456
8.06289	0.38
8.10362	0.533
8.14436	0.636
8.1851	0.689
8.22583	0.716
8.26657	0.738
8.3073	0.748
8.34804	0.755
8.38877	0.736
8.42951	0.657
8.47025	0.512
8.51098	0.471
8.55172	0.405
8.59245	0.434
8.63319	0.414
8.67392	0.263
8.71466	0.495
8.7554	0.689
8.79613	0.738
8.83687	0.757
8.8776	0.77
8.91834	0.764
8.95907	0.743
8.99981	0.694
9.04055	0.526
9.08128	0.392
9.12202	0.601
9.16275	0.67
9.20349	0.67
9.24423	0.65
9.28496	0.602
9.3257	0.499
9.36643	0.331
9.40717	0.152
9.4479	0.084
9.48864	0.108
9.52938	0.146
9.57011	0.154
9.61085	0.225
9.65158	0.242
9.69232	0.241
9.73305	0.361
9.77379	0.483
9.81453	0.544
9.85526	0.55
9.896	0.606
9.93673	0.645
9.97747	0.651
10.0182	0.617
10.0589	0.611
10.0997	0.687
10.1404	0.738
10.1811	0.752
10.2219	0.764
10.2626	0.764
10.3034	0.752
10.3441	0.731
10.3848	0.731
10.4256	0.74
10.4663	0.765
10.507	0.775
10.5478	0.777
10.5885	0.764
10.6292	0.726
10.67	0.689
10.7107	0.697
10.7514	0.711
10.7922	0.66
10.8329	0.531
10.8737	0.402
10.9144	0.494
10.9551	0.617
10.9959	0.718
11.0366	0.765
11.0773	0.782
11.1181	0.789
11.1588	0.789
11.1995	0.791
11.2403	0.799
11.281	0.803
11.3217	0.803
11.3625	0.811
11.4032	0.803
11.444	0.794
11.4847	0.791
11.5254	0.78
11.5662	0.772
11.6069	0.753
11.6476	0.724
11.6884	0.679
11.7291	0.604
11.7698	0.526
11.8106	0.461
11.8513	0.48
11.892	0.551
11.9328	0.614
11.9735	0.657
12.0143	0.663
12.055	0.655
12.0957	0.633
12.1365	0.619
12.1772	0.64
12.2179	0.675
12.2587	0.704
12.2994	0.726
12.3401	0.741
12.3809	0.748
12.4216	0.748
12.4623	0.752
12.5031	0.747
12.5438	0.75
12.5846	0.738
12.6253	0.731
12.666	0.716
12.7068	0.696
12.7475	0.651
12.7882	0.573
12.829	0.478
12.8697	0.37
12.9104	0.327
12.9512	0.378
12.9919	0.451
13.0326	0.521
13.0734	0.572
13.1141	0.607
13.1549	0.636
13.1956	0.667
13.2363	0.697
13.2771	0.718
13.3178	0.738
13.3585	0.743
13.3993	0.752
13.44	0.757
13.4807	0.762
13.5215	0.774
13.5622	0.777
13.6029	0.779
13.6437	0.782
13.6844	0.786
13.7252	0.789
13.7659	0.797
13.8066	0.797
13.8474	0.803
13.8881	0.797
13.9288	0.803
13.9696	0.806
14.0103	0.808
14.051	0.808
14.0918	0.808
14.1325	0.808
14.1732	0.809
14.214	0.811
14.2547	0.806
14.2955	0.804
14.3362	0.808
14.3769	0.803
14.4177	0.804
14.4584	0.801
14.4991	0.796
14.5399	0.796
14.5806	0.796
14.6213	0.791
14.6621	0.784
14.7028	0.786
14.7435	0.784
14.7843	0.777
14.825	0.774
14.8658	0.777
14.9065	0.775
14.9472	0.772
14.988	0.758
15.0287	0.74
15.0694	0.74
15.1102	0.755
15.1509	0.762
15.1916	0.753
15.2324	0.753
15.2731	0.752
15.3138	0.745
15.3546	0.733
15.3953	0.73
15.4361	0.726
15.4768	0.73
15.5175	0.723
15.5583	0.719
15.599	0.718
15.6397	0.714
15.6805	0.714
15.7212	0.702
15.7619	0.699
15.8027	0.696
15.8434	0.697
15.8841	0.691
15.9249	0.684
15.9656	0.675
