Infrared Spectrum: Isophthalamide
Formula: C8 H8 N2 O2
CAS: 1740-57-4
State: SOLID (SPLIT MULL), FLUOROLUBE FOR 3800-1330 CM^-^1, NUJOL FOR 1330-400 CM^-^1
Class: COBLENTZ III
Instrument: DOW KBr FOREPRISM-GRATING
Instrument parameters: BLAZED AT 3.5, 12.0, 20.0 MICRON AND CHANGED AT 5.0, 7.5, 14.9 MICRON
Sampling: TRANSMISSION
Resolution: 2
Origin: DOW CHEMICAL COMPANY
1/CM	TRANSMITTANCE
3798	0.7657
3789	0.7651
3780	0.7647
3771	0.7653
3762	0.7665
3753	0.7682
3744	0.7698
3735	0.7711
3726	0.7726
3717	0.7739
3708	0.7753
3699	0.7755
3690	0.7757
3681	0.7758
3672	0.7796
3663	0.7833
3654	0.7843
3645	0.7849
3636	0.7855
3627	0.7868
3618	0.7882
3609	0.7897
3600	0.7912
3591	0.7928
3582	0.7939
3573	0.7938
3564	0.7955
3555	0.7972
3546	0.7993
3537	0.8012
3528	0.8033
3519	0.8047
3510	0.8061
3501	0.8067
3492	0.8067
3483	0.8064
3474	0.806
3465	0.8049
3456	0.8037
3447	0.8001
3438	0.7948
3429	0.7815
3420	0.7565
3411	0.7087
3402	0.6227
3393	0.4323
3384	0.2818
3375	0.1313
3366	0.0819
3357	0.0912
3348	0.1972
3339	0.3347
3330	0.416
3321	0.4626
3312	0.4779
3303	0.4816
3294	0.5037
3285	0.526
3276	0.5457
3267	0.5592
3258	0.5662
3249	0.5698
3240	0.5672
3231	0.5534
3222	0.5334
3213	0.4997
3204	0.459
3195	0.4098
3186	0.3117
3177	0.2483
3168	0.1989
3159	0.1811
3150	0.1841
3141	0.2487
3132	0.3198
3123	0.3703
3114	0.4135
3105	0.4459
3096	0.4718
3087	0.4833
3078	0.4877
3069	0.4922
3060	0.4977
3051	0.5179
3042	0.5446
3033	0.5669
3024	0.5864
3015	0.6043
3006	0.6221
2997	0.6407
2988	0.6571
2979	0.6701
2970	0.6812
2961	0.691
2952	0.7001
2943	0.7087
2934	0.7171
2925	0.7231
2916	0.7292
2907	0.7348
2898	0.7399
2889	0.7442
2880	0.7476
2871	0.7508
2862	0.7532
2853	0.754
2844	0.7544
2835	0.7542
2826	0.7534
2817	0.7524
2808	0.7521
2799	0.7517
2790	0.7498
2781	0.731
2772	0.7248
2763	0.7431
2754	0.7565
2745	0.7668
2736	0.775
2727	0.7826
2718	0.7872
2709	0.7918
2700	0.7951
2691	0.7985
2682	0.8018
2673	0.8049
2664	0.8068
2655	0.8088
2646	0.8108
2637	0.8125
2628	0.8143
2619	0.816
2610	0.8178
2601	0.8195
2592	0.8208
2583	0.822
2574	0.8233
2565	0.8245
2556	0.8255
2547	0.8265
2538	0.8274
2529	0.8284
2520	0.8293
2511	0.8302
2502	0.8309
2493	0.8317
2484	0.8324
2475	0.8331
2466	0.8339
2457	0.8346
2448	0.8352
2439	0.8359
2430	0.8365
2421	0.8371
2412	0.8387
2403	0.8401
2394	0.8416
2385	0.8425
2376	0.8433
2367	0.8436
2358	0.8432
2349	0.8434
2340	0.8402
2331	0.8389
2322	0.8415
2313	0.8456
2304	0.8301
2295	0.8358
2286	0.84
2277	0.8414
2268	0.8418
2259	0.841
2250	0.8423
2241	0.8452
2232	0.8481
2223	0.8509
2214	0.8536
2205	0.8563
2196	0.8588
2187	0.8613
2178	0.8638
2169	0.8662
2160	0.8687
2151	0.8703
2142	0.872
2133	0.8735
2124	0.8749
2115	0.8761
2106	0.8768
2097	0.8774
2088	0.878
2079	0.8781
2070	0.8781
2061	0.8784
2052	0.8793
2043	0.8809
2034	0.8825
2025	0.8838
2016	0.8842
2007	0.8832
1998	0.8838
1989	0.8939
1980	0.8767
1971	0.8775
1962	0.8745
1953	0.8768
1944	0.8783
1935	0.879
1926	0.8792
1917	0.879
1908	0.8783
1899	0.8644
1890	0.8738
1881	0.8777
1872	0.8771
1863	0.8761
1854	0.8745
1845	0.8695
1836	0.8624
1827	0.8723
1818	0.875
1809	0.875
1800	0.8718
1791	0.8691
1782	0.8698
1773	0.8662
1764	0.8555
1755	0.8457
1746	0.8373
1737	0.8375
1728	0.8382
1719	0.8316
1710	0.8072
1701	0.7711
1692	0.7084
1683	0.5002
1674	0.2173
1665	0.0515
1656	0.0378
1647	0.1885
1638	0.3982
1629	0.3264
1620	0.3586
1611	0.543
1602	0.5169
1593	0.6915
1584	0.7069
1575	0.4104
1566	0.6597
1557	0.7468
1548	0.7794
1539	0.7942
1530	0.8038
1521	0.8112
1512	0.8168
1503	0.8162
1494	0.8098
1485	0.7968
1476	0.7678
1467	0.788
1458	0.756
1449	0.7589
1440	0.7603
1431	0.7504
1422	0.6924
1413	0.5758
1404	0.2775
1395	0.1116
1386	0.3236
1377	0.5429
1368	0.6015
1359	0.6519
1350	0.6861
1341	0.6872
1332	0.6781
1323	0.6956
1314	0.6997
1305	0.6606
1296	0.6811
1287	0.686
1278	0.6862
1269	0.6801
1260	0.6865
1251	0.6931
1242	0.7001
1233	0.709
1224	0.7214
1215	0.7368
1206	0.7544
1197	0.7675
1188	0.7744
1179	0.6728
1170	0.7554
1161	0.719
1152	0.7851
1143	0.7744
1134	0.6335
1125	0.4784
1116	0.7284
1107	0.7899
1098	0.7418
1089	0.8058
1080	0.8404
1071	0.8518
1062	0.8583
1053	0.8633
1044	0.8678
1035	0.8732
1026	0.8767
1017	0.8782
1008	0.8784
999	0.8765
990	0.8777
981	0.8749
972	0.8768
963	0.8739
954	0.8757
945	0.8814
936	0.8835
927	0.8797
918	0.6718
909	0.8683
900	0.8868
891	0.8894
882	0.8855
873	0.8207
864	0.8789
855	0.8827
846	0.8798
837	0.8714
828	0.8387
819	0.7561
810	0.6762
801	0.5565
792	0.5202
783	0.651
774	0.7421
765	0.7634
756	0.8245
747	0.8409
738	0.8432
729	0.7268
720	0.5494
711	0.8038
702	0.8531
693	0.8634
684	0.8485
675	0.7678
666	0.685
657	0.7618
648	0.6181
639	0.4117
630	0.515
621	0.4374
612	0.4678
603	0.5547
594	0.6682
585	0.7501
576	0.7926
567	0.8203
558	0.8385
549	0.7469
540	0.7261
531	0.7718
522	0.8363
513	0.8644
504	0.8795
495	0.8886
486	0.8921
477	0.8906
468	0.8856
459	0.8781
450	0.8675
441	0.852
432	0.8108
423	0.7083
414	0.7212
405	0.7331
396	0.7351
387	0.7342
