Infrared Spectrum: 2-Fluoro-6-(trifluoromethyl)acetophenone
Formula: C 9 H 6 F 4 O
CAS: 174013-29-7
State: gas
Origin: EPA-IR VAPOR PHASE LIBRARY
1/CM	ABSORBANCE
549.8	0.0027
559.445	0.00406
569.09	0.00358
578.734	0.00434
588.379	0.00278
598.024	0.00546
607.669	0.00678
617.313	0.0029
626.958	0.0018516
636.603	0.00322
646.248	0.00341
655.893	0.0020932
665.537	0.0019626
675.182	0.0016605
684.827	0.00221
694.472	0.00346
704.116	0.01249
713.761	0.0128
723.406	0.0046
733.051	0.01019
742.695	0.02343
752.34	0.00975
761.985	0.00659
771.63	0.00769
781.275	0.00386
790.919	0.01228
800.564	0.03024
810.209	0.01493
819.854	0.00387
829.498	0.00236
839.143	0.0020719
848.788	0.00241
858.433	0.00276
868.078	0.0027
877.722	0.00403
887.367	0.01381
897.012	0.04084
906.657	0.03786
916.301	0.01187
925.946	0.0054
935.591	0.00534
945.236	0.00567
954.88	0.00789
964.525	0.01038
974.17	0.00787
983.815	0.00497
993.46	0.00474
1003.1	0.0054
1012.75	0.00601
1022.39	0.00629
1032.04	0.00705
1041.68	0.0086
1051.33	0.01211
1060.97	0.00815
1070.62	0.00573
1080.26	0.00556
1089.91	0.00783
1099.55	0.01104
1109.2	0.01128
1118.84	0.02836
1128.49	0.06242
1138.13	0.07496
1147.78	0.0938
1157.42	0.12396
1167.07	0.1364
1176.71	0.13613
1186.36	0.08306
1196	0.03801
1205.64	0.02357
1215.29	0.02302
1224.93	0.0385
1234.58	0.04595
1244.22	0.05791
1253.87	0.09803
1263.51	0.06397
1273.16	0.02072
1282.8	0.01672
1292.45	0.02403
1302.09	0.04298
1311.74	0.11821
1321.38	0.18531
1331.03	0.09832
1340.67	0.0261
1350.32	0.01851
1359.96	0.02643
1369.61	0.0223
1379.25	0.0102
1388.9	0.00592
1398.54	0.00546
1408.18	0.0063
1417.83	0.00775
1427.47	0.0104
1437.12	0.01616
1446.76	0.031
1456.41	0.04176
1466.05	0.02772
1475.7	0.01732
1485.34	0.01003
1494.99	0.00527
1504.63	0.00418
1514.28	0.00407
1523.92	0.00396
1533.57	0.00399
1543.21	0.00434
1552.86	0.00409
1562.5	0.00545
1572.15	0.00779
1581.79	0.00994
1591.44	0.00771
1601.08	0.00827
1610.73	0.01099
1620.37	0.00865
1630.01	0.00437
1639.66	0.00375
1649.3	0.00409
1658.95	0.00384
1668.59	0.0039
1678.24	0.00445
1687.88	0.00529
1697.53	0.00749
1707.17	0.01154
1716.82	0.02363
1726.46	0.05994
1736.11	0.07664
1745.75	0.03306
1755.4	0.01202
1765.04	0.00751
1774.69	0.00538
1784.33	0.00444
1793.98	0.00427
1803.62	0.0041
1813.27	0.00324
1822.91	0.00213
1832.55	0.0020914
1842.2	0.0020819
1851.84	0.0020934
1861.49	0.00246
1871.13	0.00289
1880.78	0.002091
1890.42	0.0015556
1900.07	0.0014957
1909.71	0.0015349
1919.36	0.0017988
1929	0.00215
1938.65	0.0028
1948.29	0.00223
1957.94	0.0012695
1967.58	0.0014136
1977.23	0.0012376
1986.87	0.001227
1996.52	0.0012434
2006.16	0.0010671
2015.81	0.0014778
2025.45	0.001334
2035.1	0.0013184
2044.74	0.00117745
2054.38	0.0010706
2064.03	0.00114099
2073.67	0.0015318
2083.32	0.0013852
2092.96	0.0013464
2102.61	0.0010648
2112.25	0.000967
2121.9	0.000996
2131.54	0.0012474
2141.19	0.00115036
2150.83	0.00116775
2160.48	0.0013398
2170.12	0.00112058
2179.77	0.0012251
2189.41	0.000995
2199.06	0.000991
2208.7	0.00117579
2218.35	0.0011497
2227.99	0.0013172
2237.64	0.000962
2247.28	0.0010916
2256.92	0.0014191
2266.57	0.00162
2276.21	0.0011707
2285.86	0.0010766
2295.5	0.001316
2305.15	0.00118519
2314.79	0.0013969
2324.44	0.001617
2334.08	0.0014359
2343.73	0.0013107
2353.37	0.0013602
2363.02	0.0015057
2372.66	0.0010981
2382.31	0.0010238
2391.95	0.0010147
2401.6	0.0010932
2411.24	0.000806
2420.89	0.0010344
2430.53	0.0010867
2440.18	0.00112742
2449.82	0.0010208
2459.47	0.00115668
2469.11	0.0013546
2478.75	0.0014385
2488.4	0.00119254
2498.04	0.00112014
2507.69	0.00119036
2517.33	0.000873
2526.98	0.000934
2536.62	0.0010887
2546.27	0.000902
2555.91	0.0011227
2565.56	0.0013055
2575.2	0.0010867
2584.85	0.00114175
2594.49	0.0010486
2604.14	0.0010797
2613.78	0.0011936
2623.43	0.001036
2633.07	0.0010248
2642.72	0.000797
2652.36	0.000611
2662.01	0.000686
2671.65	0.000672
2681.29	0.000821
2690.94	0.000698
2700.58	0.00113094
2710.23	0.000545
2719.87	0.000977
2729.52	0.00072
2739.16	0.000634
2748.81	0.000657
2758.45	0.000498
2768.1	0.000773
2777.74	0.000692
2787.39	0.000344
2797.03	0.00069
2806.68	0.000517
2816.32	0.000536
2825.97	0.000908
2835.61	0.000544
2845.26	0.000605
2854.9	0.00091
2864.55	0.000831
2874.19	0.00117172
2883.84	0.000638
2893.48	0.00114724
2903.12	0.0010669
2912.77	0.0012491
2922.41	0.0012256
2932.06	0.0019371
2941.7	0.0014988
2951.35	0.0013155
2960.99	0.0012316
2970.64	0.0013411
2980.28	0.0015301
2989.93	0.0013686
2999.57	0.00224
3009.22	0.00277
3018.86	0.00253
3028.51	0.00224
3038.15	0.0022
3047.8	0.0015862
3057.44	0.00222
3067.09	0.00221
3076.73	0.00309
3086.38	0.00309
3096.02	0.00335
3105.67	0.0014608
3115.31	0.000791
3124.95	0.000765
3134.6	0.0010415
3144.24	0.000309
3153.89	0.000658
3163.53	0.00114099
3173.18	0.001074
3182.82	0.001005
3192.47	0.0016685
3202.11	0.000592
3211.76	0.000803
3221.4	0.000803
3231.05	0.001007
3240.69	0.000665
3250.34	0.000476
3259.98	0.00119466
3269.63	0.000909
3279.27	0.000982
3288.92	0.00093
3298.56	0.000702
3308.21	0.000928
3317.85	0.000522
3327.49	0.000757
3337.14	0.001024
3346.78	0.000638
3356.43	0.000888
3366.07	0.000455
3375.72	0.0012524
3385.36	0.0011226
3395.01	0.000542
3404.65	0.00116806
3414.3	0.0010483
3423.94	0.0015419
3433.59	0.002095
3443.23	0.0019968
3452.88	0.002076
3462.52	0.0015262
3472.17	0.00181
3481.81	0.000848
3491.46	0.0010457
3501.1	0.000716
3510.75	0.001
3520.39	0.0010309
3530.04	0.000987
3539.68	0.000935
3549.32	0.000735
3558.97	0.000701
3568.61	0.0014914
3578.26	0.000892
3587.9	0.000681
3597.55	0.000928
3607.19	0.000908
3616.84	0.000949
3626.48	0.0012795
3636.13	0.000592
3645.77	0.000687
3655.42	0.001327
3665.06	0.000471
3674.71	0.00115814
3684.35	0.000742
3694	0.000782
3703.64	0.0010716
3713.29	0.00110889
3722.93	0.001447
3732.58	0.000958
3742.22	0.00113167
3751.86	0.000802
3761.51	0.000759
3771.15	0.0010251
3780.8	0.000653
3790.44	0.000903
3800.09	0.000923
3809.73	0.000369
3819.38	0.001
3829.02	0.00052
3838.67	0.000885
3848.31	0.000571
3857.96	0.000625
3867.6	0.000881
3877.25	0.0010918
3886.89	0.000911
3896.54	0.000665
3906.18	0.0010892
3915.83	0.000756
3925.47	0.0010412
3935.12	0.000488
3944.76	0.000993
3954.41	0.00115334
3964.05	0.0014023
3973.69	0.0010786
3983.34	0.000728
3992.98	0.000758
