Infrared Spectrum: 2-Trifluoromethylacetophenone
Formula: C 9 H 7 F 3 O
CAS: 17408-14-9
State: gas
Origin: EPA-IR VAPOR PHASE LIBRARY
1/CM	ABSORBANCE
549.8	0.001829
559.445	0.002499
569.09	0.003819
578.734	0.011079
588.379	0.024999
598.024	0.033799
607.669	0.025369
617.313	0.011389
626.958	0.004469
636.603	0.004659
646.248	0.017029
655.893	0.018499
665.537	0.005579
675.182	0.002829
684.827	0.001999
694.472	0.002039
704.116	0.004159
713.761	0.013369
723.406	0.015709
733.051	0.007489
742.695	0.015529
752.34	0.050379
761.985	0.083969
771.63	0.048369
781.275	0.012309
790.919	0.003769
800.564	0.001889
810.209	0.0013732
819.854	0.0011209
829.498	0.001509
839.143	0.002089
848.788	0.002649
858.433	0.003099
868.078	0.002299
877.722	0.002179
887.367	0.001899
897.012	0.002409
906.657	0.002609
916.301	0.002499
925.946	0.003599
935.591	0.006869
945.236	0.014119
954.88	0.018459
964.525	0.016419
974.17	0.012469
983.815	0.009519
993.46	0.009449
1003.1	0.012589
1012.75	0.017269
1022.39	0.027399
1032.04	0.066999
1041.68	0.095839
1051.33	0.064789
1060.97	0.029409
1070.62	0.021999
1080.26	0.031279
1089.91	0.047139
1099.55	0.044159
1109.2	0.050669
1118.84	0.093159
1128.49	0.143229
1138.13	0.201309
1147.78	0.241779
1157.42	0.217589
1167.07	0.239239
1176.71	0.290539
1186.36	0.212579
1196	0.090169
1205.64	0.041099
1215.29	0.038129
1224.93	0.062899
1234.58	0.125829
1244.22	0.152759
1253.87	0.100689
1263.51	0.084349
1273.16	0.079039
1282.8	0.058409
1292.45	0.063599
1302.09	0.147069
1311.74	0.340649
1321.38	0.315079
1331.03	0.089729
1340.67	0.033899
1350.32	0.038619
1359.96	0.053799
1369.61	0.042739
1379.25	0.020289
1388.9	0.011999
1398.54	0.009709
1408.18	0.009639
1417.83	0.010049
1427.47	0.011449
1437.12	0.013989
1446.76	0.014529
1456.41	0.010319
1466.05	0.006879
1475.7	0.006329
1485.34	0.007389
1494.99	0.007179
1504.63	0.005689
1514.28	0.005669
1523.92	0.005619
1533.57	0.005279
1543.21	0.004799
1552.86	0.004759
1562.5	0.007009
1572.15	0.012369
1581.79	0.014629
1591.44	0.009259
1601.08	0.008299
1610.73	0.008139
1620.37	0.006859
1630.01	0.007399
1639.66	0.006849
1649.3	0.005669
1658.95	0.005979
1668.59	0.008829
1678.24	0.012909
1687.88	0.017059
1697.53	0.027479
1707.17	0.065889
1716.82	0.139759
1726.46	0.152119
1736.11	0.074889
1745.75	0.028249
1755.4	0.016829
1765.04	0.012309
1774.69	0.008639
1784.33	0.005789
1793.98	0.004059
1803.62	0.003929
1813.27	0.004909
1822.91	0.005629
1832.55	0.004239
1842.2	0.003099
1851.84	0.003109
1861.49	0.002819
1871.13	0.001919
1880.78	0.001609
1890.42	0.001909
1900.07	0.002189
1909.71	0.002279
1919.36	0.002729
1929	0.003999
1938.65	0.003929
1948.29	0.002949
1957.94	0.003389
1967.58	0.003609
1977.23	0.002029
1986.87	0.0011554
1996.52	0.00102
2006.16	0.0009429
2015.81	0.0010048
2025.45	0.0010631
2035.1	0.0011095
2044.74	0.000795
2054.38	0.0008732
2064.03	0.000902
2073.67	0.0009227
2083.32	0.001197
2092.96	0.0013546
2102.61	0.001539
2112.25	0.0010766
2121.9	0.0007335
2131.54	0.0009494
2141.19	0.0008425
2150.83	0.0007276
2160.48	0.0008399
2170.12	0.0008356
2179.77	0.001144
2189.41	0.0010323
2199.06	0.0011112
2208.7	0.0011157
2218.35	0.001325
2227.99	0.001469
2237.64	0.001519
2247.28	0.0014019
2256.92	0.001489
2266.57	0.001529
2276.21	0.001709
2285.86	0.001619
2295.5	0.001489
2305.15	0.001759
2314.79	0.001739
2324.44	0.002049
2334.08	0.002199
2343.73	0.002099
2353.37	0.001709
2363.02	0.0013355
2372.66	0.0012179
2382.31	0.0010767
2391.95	0.0010816
2401.6	0.0008123
2411.24	0.000873
2420.89	0.0007686
2430.53	0.0006761
2440.18	0.0008575
2449.82	0.001072
2459.47	0.001072
2469.11	0.0010624
2478.75	0.0009926
2488.4	0.0009988
2498.04	0.0007459
2507.69	0.0008343
2517.33	0.0007849
2526.98	0.0006478
2536.62	0.0005871
2546.27	0.0006741
2555.91	0.0006562
2565.56	0.0007019
2575.2	0.000667
2584.85	0.000862
2594.49	0.0009943
2604.14	0.0009715
2613.78	0.0010437
2623.43	0.0010471
2633.07	0.0011381
2642.72	0.0007522
2652.36	0.0007927
2662.01	0.0007907
2671.65	0.0006979
2681.29	0.0006922
2690.94	0.0007865
2700.58	0.0005848
2710.23	0.00046046
2719.87	0.0004529
2729.52	0.0006439
2739.16	0.00046949
2748.81	0.0006625
2758.45	0.0005984
2768.1	0.0005681
2777.74	0.0006916
2787.39	0.0007599
2797.03	0.0008836
2806.68	0.0012217
2816.32	0.0008927
2825.97	0.0007329
2835.61	0.0011717
2845.26	0.0014242
2854.9	0.001489
2864.55	0.001459
2874.19	0.001579
2883.84	0.001889
2893.48	0.001919
2903.12	0.002149
2912.77	0.002399
2922.41	0.003219
2932.06	0.003759
2941.7	0.003849
2951.35	0.002669
2960.99	0.002929
2970.64	0.002999
2980.28	0.004199
2989.93	0.004279
2999.57	0.005259
3009.22	0.005939
3018.86	0.006219
3028.51	0.006819
3038.15	0.007229
3047.8	0.007029
3057.44	0.008599
3067.09	0.014609
3076.73	0.021159
3086.38	0.017549
3096.02	0.007509
3105.67	0.004169
3115.31	0.003489
3124.95	0.002049
3134.6	0.001959
3144.24	0.002029
3153.89	0.001619
3163.53	0.0013783
3173.18	0.001397
3182.82	0.0012079
3192.47	0.0011856
3202.11	0.0005846
3211.76	0.0005891
3221.4	0.000613
3231.05	0.000264
3240.69	0.00052136
3250.34	0.0003487
3259.98	0.00049054
3269.63	0.000322
3279.27	0.00042071
3288.92	0.000178
3298.56	0.00050499
3308.21	0.000139
3317.85	0.0006011
3327.49	0.0003823
3337.14	0.0005507
3346.78	0.00045867
3356.43	0.00046731
3366.07	0.0005367
3375.72	0.00051231
3385.36	0.0008451
3395.01	0.0011997
3404.65	0.001849
3414.3	0.002709
3423.94	0.003169
3433.59	0.002879
3443.23	0.002179
3452.88	0.001254
3462.52	0.0013636
3472.17	0.0006839
3481.81	0.0008274
3491.46	0.0008253
3501.1	0.000438879
3510.75	0.0004474
3520.39	0.0005775
3530.04	0.0005685
3539.68	0.0006078
3549.32	0.000317
3558.97	0.00052036
3568.61	0.0004004
3578.26	0.00050072
3587.9	0.0003418
3597.55	0.0002
3607.19	0.0003973
3616.84	0.0006438
3626.48	0.0003596
3636.13	0.00047949
3645.77	0.0007603
3655.42	0.0009785
3665.06	0.00045397
3674.71	0.000699
3684.35	0.0006639
3694	0.000816
3703.64	0.0005675
3713.29	0.000433828
3722.93	0.0006104
3732.58	0.0007868
3742.22	0.0008703
3751.86	0.0007875
3761.51	0.0005389
3771.15	0.00047629
3780.8	0.0006555
3790.44	0.00042036
3800.09	0.0008158
3809.73	0.0005592
3819.38	0.0007195
3829.02	0.000436231
3838.67	0.0007552
3848.31	0.0008052
3857.96	0.000664
3867.6	0.0009488
3877.25	0.00029
3886.89	0
3896.54	0.000252
3906.18	0.00048271
3915.83	0.00046328
3925.47	0.0005908
3935.12	0.0005685
3944.76	0.00050606
3954.41	0.0007225
3964.05	0.0005985
3973.69	0.0005309
3983.34	0.0006612
3992.98	0.0006496
