Infrared Spectrum: 2-Fluoro-5-nitrobenzonitrile
Formula: C 7 H 3 F N 2 O 2
CAS: 17417-09-3
State: gas
Origin: EPA-IR VAPOR PHASE LIBRARY
1/CM	ABSORBANCE
549.8	0.00107
559.445	0.000843
569.09	0.0019018
578.734	0.00256
588.379	0.00269
598.024	0.00279
607.669	0.0019389
617.313	0.0017418
626.958	0.0018999
636.603	0.00487
646.248	0.00976
655.893	0.00545
665.537	0.0020744
675.182	0.001984
684.827	0.0023228
694.472	0.0031
704.116	0.00353
713.761	0.00391
723.406	0.00424
733.051	0.00917
742.695	0.02599
752.34	0.02334
761.985	0.00801
771.63	0.00553
781.275	0.00479
790.919	0.00389
800.564	0.00305
810.209	0.0058
819.854	0.00759
829.498	0.00988
839.143	0.01571
848.788	0.00803
858.433	0.00328
868.078	0.0022193
877.722	0.00258
887.367	0.0022623
897.012	0.005
906.657	0.01072
916.301	0.01642
925.946	0.00977
935.591	0.00355
945.236	0.00246
954.88	0.0020245
964.525	0.0023118
974.17	0.00144545
983.815	0.0018405
993.46	0.0018736
1003.1	0.0017983
1012.75	0.0020825
1022.39	0.0018977
1032.04	0.001961
1041.68	0.001196
1051.33	0.00265
1060.97	0.00333
1070.62	0.00701
1080.26	0.01199
1089.91	0.00997
1099.55	0.00333
1109.2	0.00601
1118.84	0.00979
1128.49	0.0086
1138.13	0.00312
1147.78	0.0022895
1157.42	0.0017569
1167.07	0.00143013
1176.71	0.001175
1186.36	0.00168
1196	0.0022476
1205.64	0.00403
1215.29	0.00266
1224.93	0.00459
1234.58	0.00524
1244.22	0.0086
1253.87	0.01528
1263.51	0.03589
1273.16	0.02855
1282.8	0.01057
1292.45	0.00847
1302.09	0.00742
1311.74	0.00699
1321.38	0.00946
1331.03	0.01364
1340.67	0.02881
1350.32	0.08011
1359.96	0.07394
1369.61	0.01519
1379.25	0.00575
1388.9	0.00392
1398.54	0.00378
1408.18	0.00554
1417.83	0.0078
1427.47	0.00664
1437.12	0.00507
1446.76	0.00458
1456.41	0.00621
1466.05	0.01091
1475.7	0.01899
1485.34	0.03929
1494.99	0.04842
1504.63	0.02752
1514.28	0.01316
1523.92	0.01234
1533.57	0.02403
1543.21	0.05502
1552.86	0.06501
1562.5	0.0388
1572.15	0.02636
1581.79	0.03222
1591.44	0.02968
1601.08	0.01652
1610.73	0.01302
1620.37	0.01713
1630.01	0.01638
1639.66	0.00789
1649.3	0.00365
1658.95	0.00337
1668.59	0.00348
1678.24	0.00349
1687.88	0.0023114
1697.53	0.0021656
1707.17	0.0020305
1716.82	0.001746
1726.46	0.00148802
1736.11	0.0014991
1745.75	0.0015555
1755.4	0.00172
1765.04	0.0014965
1774.69	0.0016566
1784.33	0.0021835
1793.98	0.0019757
1803.62	0.0022222
1813.27	0.0021542
1822.91	0.00259
1832.55	0.0021572
1842.2	0.001879
1851.84	0.0017004
1861.49	0.0016593
1871.13	0.0017606
1880.78	0.0017134
1890.42	0.001532
1900.07	0.0019629
1909.71	0.00256
1919.36	0.00267
1929	0.0021748
1938.65	0.00172
1948.29	0.0016249
1957.94	0.0014966
1967.58	0.0012918
1977.23	0.00142143
1986.87	0.0015682
1996.52	0.0015913
2006.16	0.0018049
2015.81	0.0015931
2025.45	0.0014478
2035.1	0.0015609
2044.74	0.00142199
2054.38	0.0016622
2064.03	0.0015762
2073.67	0.0016787
2083.32	0.0016921
2092.96	0.0017118
2102.61	0.0016579
2112.25	0.00146808
2121.9	0.00146009
2131.54	0.0015219
2141.19	0.0016512
2150.83	0.0015647
2160.48	0.0015477
2170.12	0.0015914
2179.77	0.0015181
2189.41	0.0016979
2199.06	0.0016331
2208.7	0.001221
2218.35	0.0016648
2227.99	0.0014903
2237.64	0.0019268
2247.28	0.0017884
2256.92	0.0016668
2266.57	0.0015484
2276.21	0.0015315
2285.86	0.00138702
2295.5	0.0019613
2305.15	0.0016963
2314.79	0.0019277
2324.44	0.0018729
2334.08	0.0018926
2343.73	0.001784
2353.37	0.0018704
2363.02	0.0016041
2372.66	0.0016149
2382.31	0.0015606
2391.95	0.00144942
2401.6	0.0016362
2411.24	0.001517
2420.89	0.001645
2430.53	0.0015828
2440.18	0.0016403
2449.82	0.0017065
2459.47	0.001349
2469.11	0.0018473
2478.75	0.0018073
2488.4	0.0018713
2498.04	0.0017714
2507.69	0.00144444
2517.33	0.001463
2526.98	0.0016678
2536.62	0.0020569
2546.27	0.0018959
2555.91	0.0018903
2565.56	0.0018832
2575.2	0.0015931
2584.85	0.0015934
2594.49	0.0018543
2604.14	0.0019267
2613.78	0.0017445
2623.43	0.0016099
2633.07	0.0015224
2642.72	0.0015392
2652.36	0.0014708
2662.01	0.00145937
2671.65	0.0017072
2681.29	0.0016712
2690.94	0.0018976
2700.58	0.0022585
2710.23	0.0017029
2719.87	0.0016913
2729.52	0.00146648
2739.16	0.0016941
2748.81	0.0014947
2758.45	0.0017256
2768.1	0.0015252
2777.74	0.0020204
2787.39	0.0019741
2797.03	0.0015794
2806.68	0.0016028
2816.32	0.0017249
2825.97	0.0018369
2835.61	0.0018846
2845.26	0.0017869
2854.9	0.001632
2864.55	0.0021803
2874.19	0.0020292
2883.84	0.00254
2893.48	0.00269
2903.12	0.00264
2912.77	0.0018479
2922.41	0.0020771
2932.06	0.0015694
2941.7	0.0015765
2951.35	0.0013125
2960.99	0.0017766
2970.64	0.0021395
2980.28	0.00142961
2989.93	0.0017941
2999.57	0.0013757
3009.22	0.0015528
3018.86	0.0013713
3028.51	0.001345
3038.15	0.0016705
3047.8	0.0016974
3057.44	0.001646
3067.09	0.0019344
3076.73	0.00252
3086.38	0.00426
3096.02	0.00546
3105.67	0.00444
3115.31	0.00253
3124.95	0.0018217
3134.6	0.0021028
3144.24	0.0017612
3153.89	0.001237
3163.53	0.0013774
3173.18	0.0018045
3182.82	0.000931
3192.47	0.001273
3202.11	0.001094
3211.76	0.0020223
3221.4	0.000646
3231.05	0.0016111
3240.69	0.0019022
3250.34	0.0013609
3259.98	0.0017507
3269.63	0.0015087
3279.27	0.0013728
3288.92	0.0015357
3298.56	0.00148871
3308.21	0.001274
3317.85	0.001089
3327.49	0.0012965
3337.14	0.0016781
3346.78	0.00144381
3356.43	0.001211
3366.07	0.0015013
3375.72	0.0014491
3385.36	0.0013677
3395.01	0.0016614
3404.65	0.0017244
3414.3	0.0017586
3423.94	0.0015456
3433.59	0.00144171
3443.23	0.0017375
3452.88	0.001168
3462.52	0.0013546
3472.17	0.00138446
3481.81	0.001178
3491.46	0.0012934
3501.1	0.000996
3510.75	0.001676
3520.39	0.001839
3530.04	0.0015734
3539.68	0.001222
3549.32	0.0015523
3558.97	0.00147187
3568.61	0.000995
3578.26	0.0015602
3587.9	0.0013181
3597.55	0.0018129
3607.19	0.0016312
3616.84	0.00146649
3626.48	0.0015116
3636.13	0.00133
3645.77	0.001222
3655.42	0.00147794
3665.06	0.0018942
3674.71	0.000907
3684.35	0.00139698
3694	0.0016513
3703.64	0.001014
3713.29	0.0015134
3722.93	0.00143575
3732.58	0.0015732
3742.22	0.0016025
3751.86	0.0021218
3761.51	0.0013578
3771.15	0.0019691
3780.8	0.00146512
3790.44	0.001339
3800.09	0.001223
3809.73	0.001206
3819.38	0.001306
3829.02	0.00143484
3838.67	0.0015705
3848.31	0.001082
3857.96	0.00144314
3867.6	0.00147689
3877.25	0.0016266
3886.89	0.000953
3896.54	0.0020549
3906.18	0.0018211
3915.83	0.00106
3925.47	0.000992
3935.12	0.0017991
3944.76	0.00145373
3954.41	0.001061
3964.05	0.001309
3973.69	0.0017014
3983.34	0.00142129
3992.98	0.0015176
