Infrared Spectrum: Chromone-3-carboxaldehyde
Formula: C 10 H 6 O 3
CAS: 17422-74-1
State: gas
Origin: EPA-IR VAPOR PHASE LIBRARY
1/CM	ABSORBANCE
549.8	0.001912
559.445	0.0014049
569.09	0.0010503
578.735	0.0008882
588.38	0.0011393
598.025	0.0008255
607.67	0.0006836
617.315	0.0007997
626.96	0.0009845
636.605	0.001492
646.251	0.002332
655.896	0.0011382
665.541	0.0010829
675.186	0.001592
684.831	0.002322
694.476	0.001832
704.121	0.0011429
713.766	0.0009939
723.411	0.0011521
733.056	0.002392
742.701	0.004622
752.346	0.008412
761.991	0.018102
771.636	0.013352
781.281	0.002672
790.926	0.001522
800.571	0.0013593
810.216	0.0012243
819.861	0.0009461
829.507	0.0009766
839.152	0.001782
848.797	0.002232
858.442	0.0012224
868.087	0.0009031
877.732	0.0010485
887.377	0.000957
897.022	0.0008902
906.667	0.0008003
916.312	0.0009874
925.957	0.001692
935.602	0.001972
945.247	0.0011285
954.892	0.0007545
964.537	0.0005375
974.182	0.0005513
983.827	0.0007667
993.472	0.0006893
1003.12	0.0006533
1012.76	0.0006108
1022.41	0.0012474
1032.05	0.0011876
1041.7	0.0006212
1051.34	0.0006072
1060.99	0.0007064
1070.63	0.0007132
1080.28	0.0007953
1089.92	0.0010173
1099.57	0.0012857
1109.21	0.0012162
1118.86	0.0010125
1128.5	0.001542
1138.15	0.002382
1147.79	0.002362
1157.44	0.0013981
1167.08	0.002022
1176.73	0.002282
1186.37	0.001792
1196.02	0.0011379
1205.66	0.001462
1215.31	0.003322
1224.95	0.005162
1234.6	0.002612
1244.24	0.0013626
1253.89	0.001852
1263.53	0.003462
1273.18	0.003102
1282.82	0.002592
1292.47	0.008492
1302.11	0.013972
1311.76	0.013152
1321.4	0.012782
1331.05	0.009332
1340.69	0.006182
1350.34	0.005092
1359.98	0.005902
1369.63	0.002302
1379.27	0.001642
1388.92	0.002212
1398.56	0.004422
1408.21	0.006452
1417.85	0.004162
1427.5	0.001532
1437.14	0.001642
1446.79	0.003402
1456.43	0.013232
1466.08	0.019682
1475.73	0.005702
1485.37	0.001632
1495.02	0.0008805
1504.66	0.0009587
1514.31	0.0010798
1523.95	0.0010076
1533.6	0.0008747
1543.24	0.001672
1552.89	0.004282
1562.53	0.010162
1572.18	0.012322
1581.82	0.006872
1591.47	0.003852
1601.11	0.008682
1610.76	0.020052
1620.4	0.014532
1630.05	0.004292
1639.69	0.002312
1649.34	0.002592
1658.98	0.004292
1668.63	0.012022
1678.27	0.030582
1687.92	0.031832
1697.56	0.013362
1707.21	0.011962
1716.85	0.018132
1726.5	0.010372
1736.14	0.002992
1745.79	0.002032
1755.43	0.0012782
1765.08	0.0010391
1774.72	0.0011
1784.37	0.0008683
1794.01	0.0005967
1803.66	0.0005651
1813.3	0.0006621
1822.95	0.0006343
1832.59	0.0006807
1842.24	0.0007648
1851.88	0.0008529
1861.53	0.0007864
1871.17	0.0007019
1880.82	0.00050712
1890.46	0.00042343
1900.11	0.000375
1909.75	0.00045571
1919.4	0.00049263
1929.04	0.0005567
1938.69	0.0005748
1948.33	0.00047574
1957.98	0.00044519
1967.62	0.000431636
1977.27	0.0003504
1986.91	0.0003363
1996.56	0.0003321
2006.2	0.000261
2015.85	0.000272
2025.49	0.000277
2035.14	0.000296
2044.78	0.000268
2054.43	0.00027
2064.07	0.0003946
2073.72	0.0003511
2083.36	0.000277
2093.01	0.00027
2102.65	0.000259
2112.3	0.000227
2121.94	0.000168
2131.59	0.000156
2141.23	0.000229
2150.88	0.000262
2160.52	0.000204
2170.17	0.000181
2179.81	0.000222
2189.46	0.00024
2199.1	0.000258
2208.75	0.000187
2218.39	0.00018
2228.04	0.000187
2237.68	0.000204
2247.33	0.000202
2256.97	0.000108
2266.62	0.000157
2276.26	0.000153
2285.91	0.000158
2295.55	0.000181
2305.2	0.000203
2314.84	0.000226
2324.49	0.000277
2334.13	0.000301
2343.78	0.000301
2353.42	0.000308
2363.07	0.0003526
2372.72	0.000295
2382.36	0.0003
2392.01	0.0003293
2401.65	0.00028
2411.3	0.000231
2420.94	0.000222
2430.59	0.000237
2440.23	0.000229
2449.88	0.000233
2459.52	0.000143
2469.17	0.000109
2478.81	0.000144
2488.46	0.000141
2498.1	0.000163
2507.75	0.000134
2517.39	0.000112
2527.04	8.4e-05
2536.68	0.000189
2546.33	0.00015
2555.97	0.000118
2565.62	0.000107
2575.26	6.1e-05
2584.91	0.000167
2594.55	9.6e-05
2604.2	0.000135
2613.84	7.5e-05
2623.49	0.000106
2633.13	6.6e-05
2642.78	5.9e-05
2652.42	6.4e-05
2662.07	5.2e-05
2671.71	8.2e-05
2681.36	0.000112
2691	0.000223
2700.65	0.000258
2710.29	0.00027
2719.94	0.000157
2729.58	0.000239
2739.23	0.000254
2748.87	0.000217
2758.52	0.000316
2768.16	0.000189
2777.81	0.000188
2787.45	0.000258
2797.1	0.000213
2806.74	0.000273
2816.39	0.000309
2826.03	0.000321
2835.68	0.0003313
2845.32	0.0005515
2854.97	0.001512
2864.61	0.003162
2874.26	0.002612
2883.9	0.0008198
2893.55	0.000298
2903.19	0.000177
2912.84	6.7e-05
2922.48	2.1e-05
2932.13	9.6e-05
2941.77	0.000121
2951.42	0.00014
2961.06	0.000147
2970.71	0.00018
2980.35	0.000254
2990	0.000218
2999.64	0.0003284
3009.29	0.0003315
3018.93	0.0003677
3028.58	0.0003554
3038.22	0.0003674
3047.87	0.00045322
3057.51	0.000735
3067.16	0.0010027
3076.8	0.001318
3086.45	0.0014051
3096.09	0.0009251
3105.74	0.00051643
3115.38	0.000313
3125.03	0.000315
3134.67	0.0003297
3144.32	0.0004112
3153.96	0.000302
3163.61	0.000242
3173.25	9.9e-05
3182.9	0.000213
3192.54	0.000308
3202.19	0.0003414
3211.83	0.000231
3221.48	0.000259
3231.12	0.000287
3240.77	0.0003902
3250.41	0.000405
3260.06	0.00044432
3269.7	0.0003907
3279.35	0.0003375
3289	0.00051435
3298.64	0.000422881
3308.29	0.0004011
3317.93	0.00049639
3327.58	0.0006315
3337.22	0.0005604
3346.87	0.0006242
3356.51	0.0007273
3366.16	0.0006197
3375.8	0.00050796
3385.45	0.00048596
3395.09	0.000554
3404.74	0.0007805
3414.38	0.0006907
3424.03	0.0005989
3433.67	0.0006031
3443.32	0.00045354
3452.96	0.00051588
3462.61	0.00043445
3472.25	0.00050436
3481.9	0.00051117
3491.54	0.0003866
3501.19	0.00046657
3510.83	0.0003907
3520.48	0.0004026
3530.12	0.00041
3539.77	0.00041378
3549.41	0.0004579
3559.06	0.000356
3568.7	0.0005658
3578.35	0.0004627
3587.99	0.0004065
3597.64	0.00046441
3607.28	0.0003909
3616.93	0.00048016
3626.57	0.0003657
3636.22	0.0006181
3645.86	0.00047118
3655.51	0.00044441
3665.15	0.00049672
3674.8	0.0006147
3684.44	0.00050298
3694.09	0.00051481
3703.73	0.0003412
3713.38	0.00051495
3723.02	0.000423001
3732.67	0.00044908
3742.31	0.0005459
3751.96	0.00047213
3761.6	0.000314
3771.25	0.000421454
3780.89	0.0003972
3790.54	0.00041603
3800.18	0.00041374
3809.83	0.00045578
3819.47	0.00043541
3829.12	0.00051937
3838.76	0.00050617
3848.41	0.00047932
3858.05	0.0003952
3867.7	0.000284
3877.34	0.00049503
3886.99	0.0004175
3896.63	0.00050273
3906.28	0.0003233
3915.92	0.000427289
3925.57	0.0003691
3935.21	0.0003607
3944.86	0.0003662
3954.5	0.00045598
3964.15	0.0003517
3973.79	0.000317
3983.44	0.000179
3993.08	0.0003489
