Infrared Spectrum: Pyridine, 2,4,6-trimethyl-, hydrochloride
Formula: C8 H12 Cl N
CAS: 17423-08-4
State: SOLID (KBr DISC, 0.8% WT.)
Class: COBLENTZ III
Instrument: PERKIN-ELMER 157
Sampling: TRANSMISSION
Resolution: 2
Origin: BRITISH PETROLEUM CO. LTD., ENGLAND
1/CM	TRANSMITTANCE
668	0.871
677	0.806
686	0.8446
695	0.8661
704	0.8364
713	0.6874
722	0.7926
731	0.8368
740	0.8232
749	0.7977
758	0.8113
767	0.798
776	0.7804
785	0.7636
794	0.747
803	0.7364
812	0.7146
821	0.6749
830	0.6222
839	0.6302
848	0.6299
857	0.6427
866	0.6344
875	0.5302
884	0.2744
893	0.0835
902	0.4802
911	0.6238
920	0.6004
929	0.4761
938	0.451
947	0.465
956	0.4507
965	0.2937
974	0.4788
983	0.5275
992	0.4417
1001	0.429
1010	0.4832
1019	0.4336
1028	0.3432
1037	0.2545
1046	0.2628
1055	0.3265
1064	0.4744
1073	0.5442
1082	0.5793
1091	0.602
1100	0.607
1109	0.6077
1118	0.6075
1127	0.6012
1136	0.5907
1145	0.5805
1154	0.5628
1163	0.5207
1172	0.3547
1181	0.5893
1190	0.606
1199	0.5925
1208	0.5883
1217	0.5242
1226	0.5574
1235	0.5442
1244	0.5199
1253	0.4453
1262	0.3457
1271	0.2131
1280	0.3322
1289	0.4594
1298	0.4704
1307	0.448
1316	0.4168
1325	0.3114
1334	0.4113
1343	0.3807
1352	0.3494
1361	0.3087
1370	0.1824
1379	0.0545
1388	0.0515
1397	0.0974
1406	0.2097
1415	0.208
1424	0.1931
1433	0.2199
1442	0.2664
1451	0.2731
1460	0.2457
1469	0.2323
1478	0.2335
1487	0.2508
1496	0.2455
1505	0.2326
1514	0.2321
1523	0.2327
1532	0.2335
1541	0.2409
1550	0.2413
1559	0.2444
1568	0.2622
1577	0.2681
1586	0.2586
1595	0.2308
1604	0.1431
1613	0.078
1622	0.0315
1631	0.0297
1640	0.0619
1649	0.2501
1658	0.2995
1667	0.4817
1676	0.5066
1685	0.5024
1694	0.545
1703	0.5486
1712	0.5516
1721	0.5556
1730	0.5546
1739	0.5419
1748	0.5342
1757	0.5278
1766	0.5162
1775	0.5118
1784	0.4776
1793	0.4481
1802	0.4053
1811	0.3655
1820	0.3656
1829	0.3658
1838	0.3418
1847	0.3049
1856	0.3056
1865	0.3074
1874	0.2955
1883	0.2564
1892	0.1979
1901	0.1491
1910	0.1406
1919	0.1744
1928	0.243
1937	0.2938
1946	0.3031
1955	0.2984
1964	0.2858
1973	0.2778
1982	0.2772
1991	0.2785
2000	0.2794
2009	0.2788
2018	0.282
2027	0.3038
2036	0.3192
2045	0.3226
2054	0.3256
2063	0.3307
2072	0.3345
2081	0.3321
2090	0.3273
2099	0.3218
2108	0.3163
2117	0.3119
2126	0.3094
2135	0.3074
2144	0.3064
2153	0.3053
2162	0.3047
2171	0.3043
2180	0.3034
2189	0.2958
2198	0.2886
2207	0.2803
2216	0.2786
2225	0.2776
2234	0.2728
2243	0.26
2252	0.2476
2261	0.2395
2270	0.2343
2279	0.2302
2288	0.2225
2297	0.2062
2306	0.1902
2315	0.1789
2324	0.1687
2333	0.1601
2342	0.1527
2351	0.1453
2360	0.1383
2369	0.1314
2378	0.1246
2387	0.1178
2396	0.1113
2405	0.1037
2414	0.0949
2423	0.0816
2432	0.074
2441	0.0668
2450	0.0594
2459	0.0534
2468	0.0509
2477	0.0471
2486	0.0404
2495	0.0388
2504	0.0341
2513	0.0267
2522	0.0192
2531	0.0153
2540	0.0142
2549	0.0136
2558	0.0132
2567	0.0128
2576	0.0126
2585	0.0126
2594	0.0126
2603	0.0126
2612	0.0127
2621	0.013
2630	0.0133
2639	0.0135
2648	0.0138
2657	0.0142
2666	0.0146
2675	0.0164
2684	0.0196
2693	0.0229
2702	0.0258
2711	0.0285
2720	0.0291
2729	0.0293
2738	0.0296
2747	0.0298
2756	0.03
2765	0.0302
2774	0.0304
2783	0.0307
2792	0.0311
2801	0.0314
2810	0.0317
2819	0.0322
2828	0.0326
2837	0.0331
2846	0.0345
2855	0.0362
2864	0.0388
2873	0.0433
2882	0.0467
2891	0.0483
2900	0.0497
2909	0.0507
2918	0.0508
2927	0.0508
2936	0.0508
2945	0.0508
2954	0.0508
2963	0.0503
2972	0.0499
2981	0.0488
2990	0.0462
2999	0.0425
3008	0.0419
3017	0.045
3026	0.0615
3035	0.0802
3044	0.0961
3053	0.1142
3062	0.1347
3071	0.1524
3080	0.1617
3089	0.1675
3098	0.1696
3107	0.1698
3116	0.1694
3125	0.1688
3134	0.1672
3143	0.1653
3152	0.1627
3161	0.1592
3170	0.1548
3179	0.1494
3188	0.1419
3197	0.1368
3206	0.132
3215	0.1275
3224	0.1231
3233	0.1188
3242	0.1131
3251	0.1136
3260	0.1142
3269	0.112
3278	0.1087
3287	0.1051
3296	0.1016
3305	0.098
3314	0.0944
3323	0.0908
3332	0.0873
3341	0.0844
3350	0.0816
3359	0.0789
3368	0.0763
3377	0.0736
3386	0.072
3395	0.0708
3404	0.0703
3413	0.0701
3422	0.0706
3431	0.0713
3440	0.0722
3449	0.0731
3458	0.0752
3467	0.0777
3476	0.0808
3485	0.0841
3494	0.0883
3503	0.0932
3512	0.1
3521	0.1055
3530	0.1105
3539	0.1154
3548	0.1196
3557	0.1236
3566	0.1276
3575	0.1322
3584	0.1374
3593	0.1423
3602	0.1472
3611	0.152
3620	0.1563
3629	0.1605
3638	0.1632
3647	0.1646
3656	0.1646
3665	0.1644
3674	0.164
3683	0.1637
3692	0.1631
3701	0.1621
3710	0.161
3719	0.16
3728	0.1586
3737	0.1571
3746	0.1558
3755	0.1544
3764	0.1529
3773	0.1514
3782	0.1499
3791	0.1483
3800	0.1467
3809	0.1453
3818	0.144
3827	0.1427
3836	0.1414
3845	0.1401
3854	0.1389
3863	0.1376
3872	0.1364
3881	0.1352
3890	0.1339
3899	0.1327
3908	0.1315
3917	0.1302
3926	0.1293
3935	0.1284
3944	0.1276
3953	0.1267
3962	0.1256
3971	0.1244
3980	0.1231
3989	0.1217
3998	0.1204
