Infrared Spectrum: 2-BUTANOL, 3,3,4,4-TETRAFLUORO-
Formula: C4 H6 F4 O
CAS: 17425-25-1
State: LIQUID (NEAT)
Boiling point: 113 C AT 760 mmHg
Class: COBLENTZ III
Instrument: DOW KBr FOREPRISM-GRATING
Instrument parameters: BLAZED AT 3.5, 12.0, 20.0 MICRON AND CHANGED AT 5.0, 7.5, 14.9 MICRON
Sampling: TRANSMISSION
Path length: 0.0022 CM
Resolution: 2
Origin: DOW CHEMICAL COMPANY
1/CM	TRANSMITTANCE
380	0.4068
389	0.4064
398	0.4072
407	0.4097
416	0.4257
425	0.4375
434	0.4468
443	0.4507
452	0.4553
461	0.4831
470	0.5202
479	0.5129
488	0.4867
497	0.4516
506	0.3216
515	0.2273
524	0.3754
533	0.3836
542	0.3494
551	0.3947
560	0.2988
569	0.3716
578	0.3438
587	0.3023
596	0.3947
605	0.3126
614	0.4422
623	0.434
632	0.4227
641	0.4896
650	0.5167
659	0.5208
668	0.5158
677	0.4943
686	0.3144
695	0.1555
704	0.3644
713	0.1433
722	0.3791
731	0.4123
740	0.6083
749	0.608
758	0.5966
767	0.6861
776	0.6997
785	0.694
794	0.7008
803	0.6304
812	0.3158
821	0.0052
830	0.1531
839	0.5501
848	0.7048
857	0.753
866	0.7562
875	0.7065
884	0.6811
893	0.4618
902	0.0694
911	0.2016
920	0.4366
929	0.7343
938	0.7828
947	0.7921
956	0.7825
965	0.745
974	0.6289
983	0.3962
992	0.4427
1001	0.1631
1010	0.0119
1019	0.0654
1028	0.011
1037	0.0171
1046	0.0492
1055	0.1242
1064	0.0903
1073	0.0271
1082	0.0057
1091	0.0054
1100	0.0052
1109	0.0049
1118	0.0046
1127	0.0043
1136	0.0041
1145	0.0115
1154	0.1236
1163	0.246
1172	0.2697
1181	0.2222
1190	0.1045
1199	0.0248
1208	0.022
1217	0.0678
1226	0.1073
1235	0.0727
1244	0.0257
1253	0.0327
1262	0.1607
1271	0.2676
1280	0.2761
1289	0.32
1298	0.3487
1307	0.3705
1316	0.4412
1325	0.5395
1334	0.5232
1343	0.414
1352	0.3355
1361	0.39
1370	0.385
1379	0.3214
1388	0.2466
1397	0.2538
1406	0.1798
1415	0.2088
1424	0.326
1433	0.3909
1442	0.4264
1451	0.3498
1460	0.2058
1469	0.3344
1478	0.4952
1487	0.6678
1496	0.7617
1505	0.8097
1514	0.8255
1523	0.8414
1532	0.8554
1541	0.8663
1550	0.8725
1559	0.8731
1568	0.8686
1577	0.8584
1586	0.843
1595	0.8171
1604	0.7589
1613	0.6875
1622	0.6461
1631	0.6421
1640	0.6948
1649	0.7565
1658	0.7897
1667	0.8357
1676	0.8596
1685	0.8696
1694	0.8744
1703	0.8768
1712	0.8975
1721	0.9058
1730	0.9205
1739	0.9302
1748	0.9388
1757	0.9428
1766	0.9452
1775	0.9457
1784	0.9442
1793	0.9423
1802	0.9417
1811	0.9417
1820	0.9443
1829	0.9501
1838	0.9545
1847	0.958
1856	0.9607
1865	0.963
1874	0.9625
1883	0.9602
1892	0.9568
1901	0.9533
1910	0.9474
1919	0.9385
1928	0.9321
1937	0.9359
1946	0.9439
1955	0.9589
1964	0.9487
1973	0.9471
1982	0.9457
1991	0.9435
2000	0.9432
2009	0.9439
2018	0.9452
2027	0.9478
2036	0.9518
2045	0.9554
2054	0.9587
2063	0.9616
2072	0.9644
2081	0.9657
2090	0.9653
2099	0.9627
2108	0.9587
2117	0.9543
2126	0.9501
2135	0.9463
2144	0.9428
2153	0.9395
2162	0.9371
2171	0.9343
2180	0.9298
2189	0.9238
2198	0.9178
2207	0.9118
2216	0.9097
2225	0.91
2234	0.9137
2243	0.9192
2252	0.9255
2261	0.9307
2270	0.9321
2279	0.9297
2288	0.9316
2297	0.9402
2306	0.9492
2315	0.9546
2324	0.9587
2333	0.9601
2342	0.9578
2351	0.9518
2360	0.9431
2369	0.9406
2378	0.939
2387	0.9381
2396	0.9384
2405	0.9378
2414	0.937
2423	0.9358
2432	0.9344
2441	0.9325
2450	0.9296
2459	0.9258
2468	0.9216
2477	0.9156
2486	0.9084
2495	0.9005
2504	0.8958
2513	0.8949
2522	0.8951
2531	0.8956
2540	0.8963
2549	0.897
2558	0.8966
2567	0.8952
2576	0.8921
2585	0.8906
2594	0.8916
2603	0.8928
2612	0.8939
2621	0.8937
2630	0.8914
2639	0.8874
2648	0.88
2657	0.8717
2666	0.8633
2675	0.8548
2684	0.845
2693	0.8342
2702	0.8225
2711	0.8136
2720	0.8098
2729	0.8087
2738	0.8082
2747	0.808
2756	0.8083
2765	0.8088
2774	0.8095
2783	0.81
2792	0.8056
2801	0.7946
2810	0.7785
2819	0.761
2828	0.7439
2837	0.7297
2846	0.7175
2855	0.7075
2864	0.6904
2873	0.6639
2882	0.632
2891	0.6028
2900	0.5941
2909	0.5796
2918	0.5558
2927	0.5277
2936	0.4978
2945	0.4577
2954	0.3987
2963	0.5141
2972	0.5406
2981	0.4841
2990	0.3707
2999	0.2573
3008	0.2655
3017	0.4106
3026	0.5448
3035	0.641
3044	0.7006
3053	0.7031
3062	0.6931
3071	0.6825
3080	0.6721
3089	0.6589
3098	0.6391
3107	0.611
3116	0.5773
3125	0.5426
3134	0.5135
3143	0.4869
3152	0.4614
3161	0.4269
3170	0.3904
3179	0.3505
3188	0.3059
3197	0.2704
3206	0.245
3215	0.2193
3224	0.1925
3233	0.1709
3242	0.1534
3251	0.1382
3260	0.1229
3269	0.1069
3278	0.0921
3287	0.0787
3296	0.0663
3305	0.0547
3314	0.0469
3323	0.0398
3332	0.0337
3341	0.031
3350	0.0286
3359	0.027
3368	0.0259
3377	0.0255
3386	0.0266
3395	0.0297
3404	0.0318
3413	0.0339
3422	0.0366
3431	0.04
3440	0.0446
3449	0.0527
3458	0.0649
3467	0.0786
3476	0.0933
3485	0.1099
3494	0.1333
3503	0.166
3512	0.202
3521	0.2435
3530	0.2973
3539	0.3476
3548	0.3876
3557	0.4238
3566	0.4534
3575	0.4706
3584	0.4539
3593	0.408
3602	0.3516
3611	0.3371
3620	0.3441
3629	0.3662
3638	0.4101
3647	0.5119
3656	0.6117
3665	0.6127
3674	0.5855
3683	0.5689
3692	0.6611
3701	0.7739
3710	0.8258
3719	0.9246
3728	0.9481
3737	0.959
3746	0.9677
3755	0.9727
3764	0.9763
3773	0.9791
3782	0.9811
3791	0.9813
3800	0.9814
