Infrared Spectrum: Pentamethylbenzaldehyde
Formula: C 12 H 16 O
CAS: 17432-38-1
State: gas
Origin: EPA-IR VAPOR PHASE LIBRARY
1/CM	ABSORBANCE
549.8	0.004449
559.445	0.002759
569.09	0.001589
578.734	0.001879
588.379	0.001629
598.024	0.001699
607.669	0.001639
617.313	0.001195
626.958	0.0010617
636.603	0.002139
646.248	0.002249
655.893	0.002499
665.537	0.003699
675.182	0.006309
684.827	0.008239
694.472	0.005769
704.116	0.003869
713.761	0.002189
723.406	0.001789
733.051	0.001459
742.695	0.0011103
752.34	0.0011972
761.985	0.002019
771.63	0.004969
781.275	0.010779
790.919	0.012959
800.564	0.009489
810.209	0.008589
819.854	0.009489
829.498	0.014549
839.143	0.019869
848.788	0.015349
858.433	0.006719
868.078	0.003119
877.722	0.002859
887.367	0.002119
897.012	0.002409
906.657	0.001969
916.301	0.001699
925.946	0.002299
935.591	0.002019
945.236	0.002379
954.88	0.002619
964.525	0.003089
974.17	0.004069
983.815	0.004239
993.46	0.004609
1003.1	0.004109
1012.75	0.005589
1022.39	0.007439
1032.04	0.007889
1041.68	0.008499
1051.33	0.010949
1060.97	0.019389
1070.62	0.026849
1080.26	0.020329
1089.91	0.010599
1099.55	0.005959
1109.2	0.005669
1118.84	0.003409
1128.49	0.002349
1138.13	0.001989
1147.78	0.0012073
1157.42	0.0007987
1167.07	0.001769
1176.71	0.0008675
1186.36	0.002189
1196	0.0012834
1205.64	0
1215.29	0.0005075
1224.93	0.002179
1234.58	0.005769
1244.22	0.012939
1253.87	0.014819
1263.51	0.009889
1273.16	0.016949
1282.8	0.030629
1292.45	0.023569
1302.09	0.008159
1311.74	0.005719
1321.38	0.005709
1331.03	0.006049
1340.67	0.006529
1350.32	0.007349
1359.96	0.009149
1369.61	0.013329
1379.25	0.022209
1388.9	0.027439
1398.54	0.026879
1408.18	0.027859
1417.83	0.025829
1427.47	0.022939
1437.12	0.021349
1446.76	0.020979
1456.41	0.020599
1466.05	0.019799
1475.7	0.018229
1485.34	0.016849
1494.99	0.015309
1504.63	0.014299
1514.28	0.013589
1523.92	0.013609
1533.57	0.014599
1543.21	0.017009
1552.86	0.021349
1562.5	0.025889
1572.15	0.025249
1581.79	0.018609
1591.44	0.012459
1601.08	0.009739
1610.73	0.008799
1620.37	0.008639
1630.01	0.008839
1639.66	0.009699
1649.3	0.011639
1658.95	0.014339
1668.59	0.018419
1678.24	0.023849
1687.88	0.037519
1697.53	0.107749
1707.17	0.233149
1716.82	0.150869
1726.46	0.033529
1736.11	0.018019
1745.75	0.013969
1755.4	0.011069
1765.04	0.007349
1774.69	0.004869
1784.33	0.003909
1793.98	0.003399
1803.62	0.002899
1813.27	0.002609
1822.91	0.002299
1832.55	0.002069
1842.2	0.001969
1851.84	0.001869
1861.49	0.001829
1871.13	0.001519
1880.78	0.0014201
1890.42	0.0011779
1900.07	0.0011058
1909.71	0.001232
1919.36	0.0011407
1929	0.0011349
1938.65	0.0010391
1948.29	0.0011437
1957.94	0.0012907
1967.58	0.0012223
1977.23	0.0011973
1986.87	0.0011623
1996.52	0.0011032
2006.16	0.0009752
2015.81	0.0010006
2025.45	0.0010443
2035.1	0.0009233
2044.74	0.0011795
2054.38	0.0011302
2064.03	0.0010904
2073.67	0.0011468
2083.32	0.0012782
2092.96	0.0011764
2102.61	0.0013852
2112.25	0.0011516
2121.9	0.0012251
2131.54	0.0010981
2141.19	0.0010241
2150.83	0.0009072
2160.48	0.0008366
2170.12	0.000843
2179.77	0.0007916
2189.41	0.0008116
2199.06	0.0006341
2208.7	0.0009019
2218.35	0.0009324
2227.99	0.0009442
2237.64	0.0007753
2247.28	0.0007302
2256.92	0.0007871
2266.57	0.0009693
2276.21	0.0010674
2285.86	0.0007477
2295.5	0.0010925
2305.15	0.0007974
2314.79	0.0009901
2324.44	0.0008589
2334.08	0.0010011
2343.73	0.0011457
2353.37	0.0010476
2363.02	0.0010297
2372.66	0.0011283
2382.31	0.0009648
2391.95	0.0010521
2401.6	0.0012175
2411.24	0.0012258
2420.89	0.0013445
2430.53	0.0014389
2440.18	0.001479
2449.82	0.001479
2459.47	0.001609
2469.11	0.001519
2478.75	0.0014283
2488.4	0.001549
2498.04	0.001469
2507.69	0.001539
2517.33	0.001459
2526.98	0.0013909
2536.62	0.001509
2546.27	0.0013782
2555.91	0.0012822
2565.56	0.001459
2575.2	0.0012457
2584.85	0.001469
2594.49	0.001489
2604.14	0.001679
2613.78	0.002059
2623.43	0.002369
2633.07	0.003059
2642.72	0.003549
2652.36	0.004269
2662.01	0.005179
2671.65	0.005729
2681.29	0.006729
2690.94	0.007729
2700.58	0.008989
2710.23	0.011639
2719.87	0.016789
2729.52	0.025669
2739.16	0.030489
2748.81	0.025079
2758.45	0.018929
2768.1	0.016899
2777.74	0.016409
2787.39	0.017399
2797.03	0.018009
2806.68	0.018949
2816.32	0.019969
2825.97	0.021859
2835.61	0.023399
2845.26	0.025059
2854.9	0.027389
2864.55	0.032889
2874.19	0.040859
2883.84	0.046529
2893.48	0.047249
2903.12	0.047149
2912.77	0.050669
2922.41	0.057709
2932.06	0.068429
2941.7	0.074179
2951.35	0.067909
2960.99	0.054409
2970.64	0.042339
2980.28	0.034259
2989.93	0.030689
2999.57	0.029569
3009.22	0.029579
3018.86	0.028839
3028.51	0.028369
3038.15	0.026059
3047.8	0.022679
3057.44	0.019409
3067.09	0.016219
3076.73	0.012579
3086.38	0.010489
3096.02	0.008799
3105.67	0.007269
3115.31	0.006109
3124.95	0.004989
3134.6	0.004449
3144.24	0.003899
3153.89	0.002999
3163.53	0.002559
3173.18	0.002299
3182.82	0.002249
3192.47	0.001929
3202.11	0.001729
3211.76	0.001669
3221.4	0.001619
3231.05	0.0012514
3240.69	0.0012959
3250.34	0.001509
3259.98	0.0010416
3269.63	0.0014258
3279.27	0.0012059
3288.92	0.0011969
3298.56	0.001549
3308.21	0.0013781
3317.85	0.0013396
3327.49	0.0010047
3337.14	0.0013225
3346.78	0.001469
3356.43	0.001459
3366.07	0.001559
3375.72	0.002059
3385.36	0.003239
3395.01	0.003819
3404.65	0.003699
3414.3	0.002289
3423.94	0.001569
3433.59	0.001659
3443.23	0.001759
3452.88	0.001198
3462.52	0.0011056
3472.17	0.0010529
3481.81	0.0009063
3491.46	0.0009188
3501.1	0.0008508
3510.75	0.000999
3520.39	0.000687
3530.04	0.0008259
3539.68	0.0008917
3549.32	0.0008794
3558.97	0.0006344
3568.61	0.0009147
3578.26	0.0009755
3587.9	0.000994
3597.55	0.0008672
3607.19	0.0003928
3616.84	0.0008014
3626.48	0.0006337
3636.13	0.0008111
3645.77	0.0008106
3655.42	0.0007423
3665.06	0.000718
3674.71	0.0005643
3684.35	0.0009077
3694	0.0009747
3703.64	0.0007229
3713.29	0.0007807
3722.93	0.0005531
3732.58	0.0007662
3742.22	0.0009893
3751.86	0.0009033
3761.51	0.0008314
3771.15	0.0006922
3780.8	0.0010975
3790.44	0.0006631
3800.09	0.0006383
3809.73	0.0008752
3819.38	0.0003783
3829.02	0.0005872
3838.67	0.000807
3848.31	0.0006726
3857.96	0.0009045
3867.6	0.0010314
3877.25	0.0010834
3886.89	0.0008331
3896.54	0.001218
3906.18	0.001459
3915.83	0.0008892
3925.47	0.0011021
3935.12	0.001197
3944.76	0.0013338
3954.41	0.001469
3964.05	0.0009886
3973.69	0.0009341
3983.34	0.0009603
3992.98	0.0008362
