Infrared Spectrum: P-HYDROXYBENZYLIDENE MALONIC ACID
Formula: C10 H8 O5
CAS: 17449-03-5
State: SOLID (MINERAL OIL MULL)
Melting point: 211-212 C
Class: COBLENTZ
Instrument: Not specified, most likely a prism, grating, or hybrid spectrometer.
Sampling: TRANSMISSION
Resolution: 4
Origin: DOW CHEMICAL COMPANY
MICROMETERS	TRANSMITTANCE
2.034	0.801
2.07512	0.808
2.11623	0.817
2.15735	0.825
2.19846	0.83
2.23958	0.83
2.2807	0.83
2.32181	0.835
2.36293	0.847
2.40405	0.851
2.44516	0.859
2.48628	0.87
2.52739	0.871
2.56851	0.882
2.60963	0.885
2.65074	0.887
2.69186	0.895
2.73298	0.895
2.77409	0.895
2.81521	0.887
2.85632	0.83
2.89744	0.709
2.93856	0.581
2.97967	0.435
3.02079	0.386
3.06191	0.499
3.10302	0.504
3.14414	0.499
3.18525	0.482
3.22637	0.466
3.26749	0.49
3.3086	0.494
3.34972	0.295
3.39084	0.107
3.43195	0.213
3.47307	0.258
3.51418	0.533
3.5553	0.586
3.59642	0.629
3.63753	0.649
3.67865	0.654
3.71977	0.634
3.76088	0.622
3.802	0.641
3.84311	0.652
3.88423	0.659
3.92535	0.651
3.96646	0.676
4.00758	0.719
4.04869	0.748
4.08981	0.77
4.13093	0.782
4.17204	0.784
4.21316	0.788
4.25428	0.817
4.29539	0.854
4.33651	0.864
4.37762	0.873
4.41874	0.88
4.45986	0.885
4.50097	0.888
4.54209	0.89
4.58321	0.894
4.62432	0.897
4.66544	0.899
4.70655	0.899
4.74767	0.899
4.78879	0.897
4.8299	0.892
4.87102	0.897
4.91214	0.902
4.95325	0.907
4.99437	0.905
5.03548	0.912
5.0766	0.914
5.11772	0.912
5.15883	0.902
5.19995	0.899
5.24107	0.897
5.28218	0.897
5.3233	0.895
5.36441	0.895
5.40553	0.894
5.44665	0.887
5.48776	0.882
5.52888	0.873
5.57	0.864
5.61111	0.822
5.65223	0.721
5.69334	0.488
5.73446	0.251
5.77558	0.111
5.81669	0.196
5.85781	0.505
5.89893	0.487
5.94004	0.422
5.98116	0.345
6.02227	0.444
6.06339	0.736
6.10451	0.755
6.14562	0.639
6.18674	0.389
6.22785	0.323
6.26897	0.258
6.31009	0.487
6.3512	0.728
6.39232	0.791
6.43344	0.817
6.47455	0.835
6.51567	0.788
6.55678	0.623
6.5979	0.521
6.63902	0.803
6.68013	0.811
6.72125	0.784
6.76237	0.673
6.80348	0.547
6.8446	0.516
6.88571	0.476
6.92683	0.384
6.96795	0.382
7.00906	0.536
7.05018	0.588
7.0913	0.661
7.13241	0.729
7.17353	0.7
7.21464	0.6
7.25576	0.555
7.29688	0.62
7.33799	0.69
7.37911	0.697
7.42023	0.711
7.46134	0.707
7.50246	0.649
7.54357	0.509
7.58469	0.464
7.62581	0.502
7.66692	0.446
7.70804	0.406
7.74916	0.446
7.79027	0.497
7.83139	0.5
7.8725	0.441
7.91362	0.329
7.95474	0.22
7.99585	0.174
8.03697	0.176
8.07808	0.22
8.1192	0.232
8.16032	0.29
8.20143	0.328
8.24255	0.324
8.28367	0.488
8.32478	0.584
8.3659	0.492
8.40701	0.29
8.44813	0.278
8.48925	0.548
8.53036	0.639
8.57148	0.705
8.6126	0.731
8.65371	0.748
8.69483	0.755
8.73594	0.755
8.77706	0.753
8.81818	0.712
8.85929	0.692
8.90041	0.753
8.94153	0.782
8.98264	0.793
9.02376	0.803
9.06487	0.811
9.10599	0.827
9.14711	0.832
9.18822	0.837
9.22934	0.839
9.27046	0.835
9.31157	0.82
9.35269	0.791
9.3938	0.741
9.43492	0.704
9.47604	0.728
9.51715	0.813
9.55827	0.837
9.59939	0.844
9.6405	0.851
9.68162	0.868
9.72273	0.871
9.76385	0.871
9.80497	0.871
9.84608	0.873
9.8872	0.876
9.92832	0.878
9.96943	0.882
10.0105	0.878
10.0517	0.876
10.0928	0.875
10.1339	0.876
10.175	0.876
10.2161	0.873
10.2572	0.866
10.2984	0.844
10.3395	0.822
10.3806	0.82
10.4217	0.825
10.4628	0.835
10.5039	0.841
10.5451	0.835
10.5862	0.813
10.6273	0.786
10.6684	0.769
10.7095	0.757
10.7506	0.747
10.7918	0.74
10.8329	0.736
10.874	0.738
10.9151	0.757
10.9562	0.772
10.9973	0.786
11.0385	0.8
11.0796	0.81
11.1207	0.817
11.1618	0.817
11.2029	0.817
11.244	0.817
11.2852	0.815
11.3263	0.801
11.3674	0.786
11.4085	0.765
11.4496	0.755
11.4907	0.748
11.5318	0.736
11.573	0.717
11.6141	0.699
11.6552	0.687
11.6963	0.675
11.7374	0.663
11.7785	0.625
11.8197	0.488
11.8608	0.415
11.9019	0.514
11.943	0.647
11.9841	0.735
12.0252	0.777
12.0664	0.801
12.1075	0.82
12.1486	0.837
12.1897	0.839
12.2308	0.832
12.2719	0.82
12.3131	0.796
12.3542	0.719
12.3953	0.652
12.4364	0.627
12.4775	0.733
12.5186	0.782
12.5598	0.81
12.6009	0.827
12.642	0.834
12.6831	0.837
12.7242	0.83
12.7653	0.815
12.8065	0.796
12.8476	0.798
12.8887	0.827
12.9298	0.837
12.9709	0.837
13.012	0.83
13.0531	0.81
13.0943	0.784
13.1354	0.757
13.1765	0.753
13.2176	0.774
13.2587	0.788
13.2998	0.801
13.341	0.81
13.3821	0.81
13.4232	0.808
13.4643	0.805
13.5054	0.8
13.5465	0.801
13.5877	0.805
13.6288	0.805
13.6699	0.8
13.711	0.791
13.7521	0.779
13.7932	0.765
13.8344	0.76
13.8755	0.767
13.9166	0.774
13.9577	0.777
13.9988	0.779
14.0399	0.774
14.0811	0.772
14.1222	0.767
14.1633	0.765
14.2044	0.758
14.2455	0.752
14.2866	0.745
14.3278	0.74
14.3689	0.738
14.41	0.728
14.4511	0.723
14.4922	0.714
14.5333	0.705
14.5744	0.692
14.6156	0.676
14.6567	0.661
14.6978	0.647
14.7389	0.623
14.78	0.606
14.8211	0.588
14.8623	0.577
14.9034	0.572
14.9445	0.56
14.9856	0.558
15.0267	0.557
15.0678	0.552
15.109	0.552
15.1501	0.547
15.1912	0.538
15.2323	0.528
15.2734	0.519
15.3145	0.5
15.3557	0.492
15.3968	0.487
15.4379	0.482
15.479	0.48
15.5201	0.475
15.5612	0.47
15.6024	0.463
15.6435	0.452
15.6846	0.449
15.7257	0.442
15.7668	0.429
15.8079	0.422
15.8491	0.413
15.8902	0.411
15.9313	0.427
15.9724	0.435
