Infrared Spectrum: Malonic acid, furfurylidene, diethyl ester
Formula: C12 H14 O5
CAS: 17448-96-3
State: SOLUTION (2% CCl4 FOR 3800-1330, 2% CS2 FOR 1330-400 CM^-^1)
Class: COBLENTZ III
Instrument: DOW KBr FOREPRISM-GRATING
Instrument parameters: BLAZED AT 3.5, 12.0, 20.0 MICRON AND CHANGED AT 5.0, 7.5, 14.9 MICRON
Sampling: TRANSMISSION
Path length: 0.011 CM, 0.011 CM
Resolution: 2
Origin: DOW CHEMICAL COMPANY
1/CM	TRANSMITTANCE
3798	0.9137
3789	0.9134
3780	0.9116
3771	0.9097
3762	0.9097
3753	0.9063
3744	0.9029
3735	0.9105
3726	0.9132
3717	0.9142
3708	0.9167
3699	0.9167
3690	0.9151
3681	0.9139
3672	0.9151
3663	0.9153
3654	0.9081
3645	0.9148
3636	0.9188
3627	0.914
3618	0.9146
3609	0.9144
3600	0.9138
3591	0.9147
3582	0.9155
3573	0.9163
3564	0.9154
3555	0.9176
3546	0.9187
3537	0.9193
3528	0.9189
3519	0.9194
3510	0.9195
3501	0.9196
3492	0.9193
3483	0.9184
3474	0.9174
3465	0.9164
3456	0.9155
3447	0.9146
3438	0.9138
3429	0.9136
3420	0.9149
3411	0.9164
3402	0.9177
3393	0.919
3384	0.9204
3375	0.9217
3366	0.9231
3357	0.9245
3348	0.9258
3339	0.9269
3330	0.9279
3321	0.9288
3312	0.9309
3303	0.9296
3294	0.9299
3285	0.9295
3276	0.9296
3267	0.93
3258	0.9296
3249	0.9286
3240	0.9274
3231	0.9266
3222	0.9256
3213	0.9248
3204	0.9227
3195	0.9235
3186	0.9216
3177	0.9182
3168	0.9163
3159	0.9163
3150	0.9148
3141	0.9131
3132	0.9136
3123	0.913
3114	0.9155
3105	0.9192
3096	0.9258
3087	0.9245
3078	0.9245
3069	0.9253
3060	0.9239
3051	0.9235
3042	0.9277
3033	0.9205
3024	0.9059
3015	0.8613
3006	0.8115
2997	0.7757
2988	0.7125
2979	0.7108
2970	0.8103
2961	0.8336
2952	0.8603
2943	0.8414
2934	0.8402
2925	0.8763
2916	0.8856
2907	0.8624
2898	0.8697
2889	0.8864
2880	0.8966
2871	0.8939
2862	0.9075
2853	0.9127
2844	0.9153
2835	0.9142
2826	0.9157
2817	0.9139
2808	0.9143
2799	0.9159
2790	0.9165
2781	0.9167
2772	0.9178
2763	0.9188
2754	0.92
2745	0.9214
2736	0.9226
2727	0.9228
2718	0.9237
2709	0.9247
2700	0.9255
2691	0.9264
2682	0.9274
2673	0.9287
2664	0.9299
2655	0.9328
2646	0.9337
2637	0.9329
2628	0.9348
2619	0.9349
2610	0.9351
2601	0.935
2592	0.9349
2583	0.9348
2574	0.9344
2565	0.9339
2556	0.9333
2547	0.9327
2538	0.9323
2529	0.9318
2520	0.9315
2511	0.9309
2502	0.9306
2493	0.9304
2484	0.9302
2475	0.9315
2466	0.9314
2457	0.9305
2448	0.9313
2439	0.93
2430	0.9284
2421	0.9272
2412	0.9268
2403	0.928
2394	0.9281
2385	0.93
2376	0.9362
2367	0.9354
2358	0.937
2349	0.9364
2340	0.935
2331	0.9156
2322	0.9205
2313	0.9266
2304	0.928
2295	0.9302
2286	0.9302
2277	0.931
2268	0.9301
2259	0.93
2250	0.9279
2241	0.929
2232	0.93
2223	0.932
2214	0.9325
2205	0.9341
2196	0.9357
2187	0.9351
2178	0.937
2169	0.9375
2160	0.9362
2151	0.9361
2142	0.936
2133	0.9359
2124	0.9359
2115	0.9344
2106	0.9328
2097	0.9304
2088	0.9316
2079	0.931
2070	0.9318
2061	0.9327
2052	0.9347
2043	0.9349
2034	0.937
2025	0.9395
2016	0.9424
2007	0.9453
1998	0.9471
1989	0.9486
1980	0.9481
1971	0.9497
1962	0.9658
1953	0.9579
1944	0.9551
1935	0.9547
1926	0.9551
1917	0.9565
1908	0.9569
1899	0.9484
1890	0.9406
1881	0.9355
1872	0.9178
1863	0.9184
1854	0.9143
1845	0.903
1836	0.9062
1827	0.9046
1818	0.9055
1809	0.9023
1800	0.8966
1791	0.891
1782	0.8833
1773	0.8548
1764	0.8141
1755	0.6967
1746	0.4058
1737	0.2304
1728	0.2402
1719	0.3114
1710	0.4895
1701	0.6243
1692	0.8071
1683	0.8233
1674	0.8556
1665	0.8597
1656	0.829
1647	0.7042
1638	0.4382
1629	0.6319
1620	0.7816
1611	0.8456
1602	0.8415
1593	0.8297
1584	0.8514
1575	0.812
1566	0.7587
1557	0.6884
1548	0.7657
1539	0.9066
1530	0.8757
1521	0.8714
1512	0.8644
1503	0.886
1494	0.8564
1485	0.8218
1476	0.6817
1467	0.75
1458	0.8172
1449	0.8189
1440	0.8579
1431	0.8926
1422	0.884
1413	0.8839
1404	0.8036
1395	0.7496
1386	0.8351
1377	0.6836
1368	0.6548
1359	0.8432
1350	0.7391
1341	0.8161
1332	0.8603
1323	0.8698
1314	0.8579
1305	0.8181
1296	0.7635
1287	0.7583
1278	0.5794
1269	0.5019
1260	0.3287
1251	0.1679
1242	0.4592
1233	0.6483
1224	0.3437
1215	0.0872
1206	0.3308
1197	0.2707
1188	0.6346
1179	0.6272
1170	0.7533
1161	0.8107
1152	0.8058
1143	0.8401
1134	0.8709
1125	0.8739
1116	0.8452
1107	0.8328
1098	0.7299
1089	0.6479
1080	0.6327
1071	0.703
1062	0.4901
1053	0.6812
1044	0.8207
1035	0.8156
1026	0.6523
1017	0.5457
1008	0.7893
999	0.8419
990	0.8738
981	0.8906
972	0.8943
963	0.8944
954	0.8931
945	0.8308
936	0.8074
927	0.8517
918	0.8749
909	0.8896
900	0.8767
891	0.8535
882	0.7686
873	0.84
864	0.8111
855	0.8407
846	0.8804
837	0.8872
828	0.8829
819	0.8745
810	0.8653
801	0.877
792	0.8664
783	0.8752
774	0.8751
765	0.8212
756	0.7816
747	0.3021
738	0.8509
729	0.898
720	0.9149
711	0.9186
702	0.9139
693	0.856
684	0.9073
675	0.9386
666	0.9286
657	0.9363
648	0.9117
639	0.913
630	0.9312
621	0.9379
612	0.9385
603	0.9273
594	0.8793
585	0.906
576	0.9281
567	0.9341
558	0.9324
549	0.9277
540	0.9258
531	0.927
522	0.9303
513	0.9394
504	0.9451
495	0.9507
486	0.9552
477	0.9601
468	0.9631
459	0.9507
450	0.9395
441	0.9379
432	0.9352
423	0.8926
414	0.7803
405	0.6512
396	0.4183
387	0.3464
