Infrared Spectrum: 1-(3-Fluorophenyl)imidazoline-2-thione
Formula: C 9 H 7 F N 2 S
CAS: 17452-26-5
State: gas
Origin: EPA-IR VAPOR PHASE LIBRARY
1/CM	ABSORBANCE
549.8	0.00251
559.445	0.0012806
569.09	0.0009989
578.734	0.0005011
588.379	0.0002331
598.024	0.000831
607.669	0.0008603
617.313	0.0011439
626.958	0.0006894
636.603	0.0005869
646.248	0.0011739
655.893	0.00341
665.537	0.00442
675.182	0.00455
684.827	0.00642
694.472	0.0071
704.116	0.00406
713.761	0.0012574
723.406	0.0006903
733.051	0.0007024
742.695	0.0004439
752.34	0.0005823
761.985	0.001147
771.63	0.00289
781.275	0.00306
790.919	0.0011855
800.564	0.000626
810.209	0.0003068
819.854	0.0005113
829.498	0.0006151
839.143	0.0010677
848.788	0.00375
858.433	0.00893
868.078	0.00543
877.722	0.00143
887.367	0.0012765
897.012	0.0009582
906.657	0.00163
916.301	0.0012392
925.946	0.0003083
935.591	0.0004388
945.236	0.00042127
954.88	0.00040793
964.525	0.000287
974.17	0.0005815
983.815	0.0006991
993.46	0.00149
1003.1	0.0012339
1012.75	0.0007033
1022.39	0.0011265
1032.04	0.0005581
1041.68	0.0024
1051.33	0.00524
1060.97	0.00375
1070.62	0.00316
1080.26	0.00281
1089.91	0.00155
1099.55	0.00168
1109.2	0.0018
1118.84	0.0006506
1128.49	0.0009909
1138.13	0.00163
1147.78	0.00259
1157.42	0.00225
1167.07	0.0011273
1176.71	0.00138
1186.36	0.00333
1196	0.00698
1205.64	0.00845
1215.29	0.00766
1224.93	0.00674
1234.58	0.00788
1244.22	0.01094
1253.87	0.00839
1263.51	0.00435
1273.16	0.00309
1282.8	0.00255
1292.45	0.00258
1302.09	0.00425
1311.74	0.00671
1321.38	0.00563
1331.03	0.00257
1340.67	0.00138
1350.32	0.0011596
1359.96	0.0011231
1369.61	0.0010239
1379.25	0.00144
1388.9	0.0032
1398.54	0.00671
1408.18	0.00595
1417.83	0.00592
1427.47	0.01336
1437.12	0.0238
1446.76	0.02286
1456.41	0.01334
1466.05	0.00886
1475.7	0.00832
1485.34	0.00981
1494.99	0.01227
1504.63	0.00884
1514.28	0.00333
1523.92	0.00192
1533.57	0.00148
1543.21	0.00141
1552.86	0.00158
1562.5	0.00206
1572.15	0.0032
1581.79	0.00453
1591.44	0.00715
1601.08	0.01074
1610.73	0.01189
1620.37	0.00721
1630.01	0.00292
1639.66	0.00137
1649.3	0.0009039
1658.95	0.000652
1668.59	0.0004863
1678.24	0.00035475
1687.88	0.00038749
1697.53	0.000339214
1707.17	0.00036586
1716.82	0.000338554
1726.46	0.0004629
1736.11	0.00040715
1745.75	0.0002898
1755.4	0.00034612
1765.04	0.0004435
1774.69	0.00040724
1784.33	0.0002971
1793.98	0.0002996
1803.62	0.00039729
1813.27	0.0002378
1822.91	0.0002937
1832.55	0.00036009
1842.2	0.00036522
1851.84	0.00035352
1861.49	0.0003155
1871.13	0.0002568
1880.78	0.00019
1890.42	0.0002351
1900.07	0.0003054
1909.71	0.00039812
1919.36	0.00042733
1929	0.00037326
1938.65	0.00027
1948.29	0.0003032
1957.94	0.0002609
1967.58	0.000169
1977.23	0.00034934
1986.87	0.0003126
1996.52	0.000167
2006.16	0.0002708
2015.81	0.000206
2025.45	0.000217
2035.1	0.000153
2044.74	0.000209
2054.38	0.00033391
2064.03	0.0002476
2073.67	0.0003061
2083.32	0.0002313
2092.96	0.0002399
2102.61	0.000226
2112.25	0.000226
2121.9	0.00037132
2131.54	0.00037765
2141.19	0.000339843
2150.83	0.0002918
2160.48	0.0002452
2170.12	0.00037023
2179.77	0.0002778
2189.41	0.00037893
2199.06	0.0002564
2208.7	0.00037664
2218.35	0.0002894
2227.99	0.000165
2237.64	0.0002426
2247.28	0.0002705
2256.92	0.0002446
2266.57	0.0002645
2276.21	0.0002748
2285.86	0.0002923
2295.5	0.00040402
2305.15	0.00039903
2314.79	0.000282
2324.44	0.00038877
2334.08	0.0002973
2343.73	0.000314
2353.37	0.0003239
2363.02	0.00038431
2372.66	0.00032156
2382.31	0.000344
2391.95	0.0004492
2401.6	0.0003658
2411.24	0.000334294
2420.89	0.0004416
2430.53	0.00035779
2440.18	0.0004662
2449.82	0.0002917
2459.47	0.0004323
2469.11	0.00036106
2478.75	0.0004446
2488.4	0.000459
2498.04	0.0004329
2507.69	0.00036282
2517.33	0.0002514
2526.98	0.00037549
2536.62	0.000299
2546.27	0.00034635
2555.91	0.0003161
2565.56	0.0002896
2575.2	0.0003051
2584.85	0.00039004
2594.49	0.00037306
2604.14	0.00034763
2613.78	0.0002986
2623.43	0.0003031
2633.07	0.00039033
2642.72	0.00040872
2652.36	0.00037848
2662.01	0.0004995
2671.65	0.000329942
2681.29	0.0002889
2690.94	0.0002558
2700.58	0.0002998
2710.23	0.0002575
2719.87	0.0002691
2729.52	0.0002777
2739.16	0.00021
2748.81	0.0002863
2758.45	0.0003124
2768.1	0.000332997
2777.74	0.0003485
2787.39	0.000206
2797.03	0.0002905
2806.68	0.0002404
2816.32	0.00038891
2825.97	0.0003852
2835.61	0.00037647
2845.26	0.0002808
2854.9	0.000118
2864.55	0.0003027
2874.19	0.00034245
2883.84	0.000276
2893.48	0.000183
2903.12	0.0002723
2912.77	0.00037953
2922.41	0.000133
2932.06	0.00035839
2941.7	0.0002319
2951.35	0.00032626
2960.99	0.00034479
2970.64	0.00042099
2980.28	0.00034142
2989.93	0.000228
2999.57	0.000202
3009.22	0.00037339
3018.86	0.0002564
3028.51	0.00034545
3038.15	0.0006051
3047.8	0.0006547
3057.44	0.0006571
3067.09	0.0007367
3076.73	0.0007828
3086.38	0.0009321
3096.02	0.0005801
3105.67	0.000503
3115.31	0.0004399
3124.95	0.0002769
3134.6	0.00039531
3144.24	0.0005691
3153.89	0.0006576
3163.53	0.00038569
3173.18	0.00023
3182.82	0.00036108
3192.47	0.0004724
3202.11	0.0002948
3211.76	0.0002755
3221.4	0.000331238
3231.05	0.000214
3240.69	0.00017
3250.34	0.0002667
3259.98	0.000129
3269.63	0.000331248
3279.27	0.0002351
3288.92	0.0002715
3298.56	0.000132
3308.21	0.0003091
3317.85	0.0002503
3327.49	0.000194
3337.14	0.000216
3346.78	0.000292
3356.43	0.0002515
3366.07	0.00017
3375.72	0.000219
3385.36	0.000334684
3395.01	0.0002821
3404.65	0.000273
3414.3	0.00040072
3423.94	0.000207
3433.59	0.00037829
3443.23	0.00040504
3452.88	0.0003131
3462.52	0.0005447
3472.17	0.0010294
3481.81	0.00189
3491.46	0.0044
3501.1	0.00937
3510.75	0.00654
3520.39	0.0009361
3530.04	0.00022
3539.68	0.00039382
3549.32	0.0004345
3558.97	0.00034617
3568.61	0.0002981
3578.26	0.000209
3587.9	0.00036465
3597.55	0.0003044
3607.19	0.0002727
3616.84	0.00032707
3626.48	0.0002422
3636.13	0.000335937
3645.77	0.0002842
3655.42	0.000224
3665.06	0.000159
3674.71	0.000226
3684.35	0.0002726
3694	0.0005107
3703.64	0.0002842
3713.29	8.2e-05
3722.93	0.0004664
3732.58	0.00039159
3742.22	0.000195
3751.86	0.000113
3761.51	0.0002557
3771.15	0.000218
3780.8	0.000207
3790.44	0.000223
3800.09	0.0004837
3809.73	0.0002899
3819.38	0.000221
3829.02	0.000213
3838.67	0.0002484
3848.31	0.00040875
3857.96	0.000317
3867.6	0.0002817
3877.25	0.0002498
3886.89	0.000212
3896.54	0.00039313
3906.18	0.0002445
3915.83	0.0002533
3925.47	0.0003112
3935.12	0.0003192
3944.76	0.0004344
3954.41	0.0003185
3964.05	0.0004796
3973.69	0.0003109
3983.34	0.00035557
3992.98	0.000337829
