Infrared Spectrum: 1-(4-Methoxyphenyl)imidazoline-2-thione
Formula: C 10 H 10 N 2 O S
CAS: 17452-14-1
State: gas
Origin: EPA-IR VAPOR PHASE LIBRARY
1/CM	ABSORBANCE
549.8	0.005119
559.445	0.004929
569.09	0.006609
578.734	0.007489
588.379	0.004039
598.024	0.004599
607.669	0.004729
617.313	0.006619
626.958	0.003549
636.603	0.002869
646.248	0.003539
655.893	0.007599
665.537	0.009379
675.182	0.006159
684.827	0.005839
694.472	0.009609
704.116	0.007399
713.761	0.003349
723.406	0.002979
733.051	0.002549
742.695	0.002409
752.34	0.001989
761.985	0.002409
771.63	0.002389
781.275	0.002619
790.919	0.002929
800.564	0.003319
810.209	0.002959
819.854	0.004909
829.498	0.007549
839.143	0.006549
848.788	0.003619
858.433	0.002919
868.078	0.002989
877.722	0.001779
887.367	0.002299
897.012	0.003139
906.657	0.006349
916.301	0.002569
925.946	0.002099
935.591	0.002079
945.236	0.001959
954.88	0.001959
964.525	0.004909
974.17	0.004679
983.815	0.002449
993.46	0.002899
1003.1	0.002469
1012.75	0.003059
1022.39	0.004379
1032.04	0.006819
1041.68	0.011549
1051.33	0.018969
1060.97	0.011789
1070.62	0.004899
1080.26	0.002359
1089.91	0.002849
1099.55	0.004039
1109.2	0.005779
1118.84	0.003979
1128.49	0.003889
1138.13	0.007649
1147.78	0.012819
1157.42	0.008019
1167.07	0.009409
1176.71	0.010239
1186.36	0.008479
1196	0.006469
1205.64	0.011429
1215.29	0.015589
1224.93	0.018959
1234.58	0.027759
1244.22	0.046059
1253.87	0.045769
1263.51	0.024849
1273.16	0.014849
1282.8	0.014459
1292.45	0.016219
1302.09	0.016369
1311.74	0.013459
1321.38	0.008099
1331.03	0.004569
1340.67	0.003629
1350.32	0.003639
1359.96	0.003629
1369.61	0.003259
1379.25	0.003349
1388.9	0.004509
1398.54	0.008649
1408.18	0.011729
1417.83	0.009979
1427.47	0.015209
1437.12	0.030429
1446.76	0.045219
1456.41	0.034109
1466.05	0.018239
1475.7	0.010669
1485.34	0.008059
1494.99	0.012489
1504.63	0.032269
1514.28	0.064319
1523.92	0.027469
1533.57	0.006749
1543.21	0.004619
1552.86	0.003849
1562.5	0.003309
1572.15	0.003779
1581.79	0.004029
1591.44	0.004169
1601.08	0.004049
1610.73	0.005039
1620.37	0.003979
1630.01	0.002929
1639.66	0.002649
1649.3	0.002329
1658.95	0.002789
1668.59	0.002269
1678.24	0.002519
1687.88	0.002459
1697.53	0.002339
1707.17	0.002369
1716.82	0.002319
1726.46	0.002169
1736.11	0.002329
1745.75	0.002099
1755.4	0.002209
1765.04	0.002179
1774.69	0.002109
1784.33	0.002009
1793.98	0.002139
1803.62	0.002189
1813.27	0.002189
1822.91	0.002009
1832.55	0.002169
1842.2	0.002069
1851.84	0.002199
1861.49	0.002269
1871.13	0.002119
1880.78	0.002249
1890.42	0.001789
1900.07	0.001639
1909.71	0.0015162
1919.36	0.001779
1929	0.001809
1938.65	0.001769
1948.29	0.001759
1957.94	0.001639
1967.58	0.001809
1977.23	0.001629
1986.87	0.001629
1996.52	0.0014042
2006.16	0.0013093
2015.81	0.001639
2025.45	0.001859
2035.1	0.001939
2044.74	0.002269
2054.38	0.001949
2064.03	0.001659
2073.67	0.002089
2083.32	0.001589
2092.96	0.0014246
2102.61	0.0014974
2112.25	0.001569
2121.9	0.0013974
2131.54	0.0012136
2141.19	0.0014094
2150.83	0.0013321
2160.48	0.0011132
2170.12	0.0013937
2179.77	0.0009097
2189.41	0.0013816
2199.06	0.0012943
2208.7	0.0011423
2218.35	0.0011942
2227.99	0.0014166
2237.64	0.0014771
2247.28	0.0011948
2256.92	0.0012055
2266.57	0.001331
2276.21	0.0014936
2285.86	0.0014274
2295.5	0.0014601
2305.15	0.0014133
2314.79	0.0013194
2324.44	0.0011047
2334.08	0.0011265
2343.73	0.0013886
2353.37	0.0010316
2363.02	0.0009773
2372.66	0.001323
2382.31	0.0010557
2391.95	0.0012276
2401.6	0.0014217
2411.24	0.0012209
2420.89	0.0013165
2430.53	0.0013564
2440.18	0.0012977
2449.82	0.0009589
2459.47	0.0013019
2469.11	0.0014511
2478.75	0.0012247
2488.4	0.0013939
2498.04	0.0008859
2507.69	0.0012859
2517.33	0.001779
2526.98	0.0012305
2536.62	0.0012804
2546.27	0.0010963
2555.91	0.0009928
2565.56	0.0011955
2575.2	0.00063787
2584.85	0.0012409
2594.49	0.0008497
2604.14	0.0008645
2613.78	0.0008197
2623.43	0.0012452
2633.07	0.0007696
2642.72	0.0012828
2652.36	0.0011686
2662.01	0.0011727
2671.65	0.00057639
2681.29	0.0007183
2690.94	0.0011727
2700.58	0.000841
2710.23	0.000987
2719.87	0.0011176
2729.52	0.0007602
2739.16	0.0009094
2748.81	0.0012266
2758.45	0.0010361
2768.1	0.0011301
2777.74	0.0011541
2787.39	0.0010493
2797.03	0.0009824
2806.68	0.0012539
2816.32	0.001839
2825.97	0.001659
2835.61	0.002399
2845.26	0.004609
2854.9	0.002969
2864.55	0.001879
2874.19	0.001939
2883.84	0.002089
2893.48	0.001799
2903.12	0.002899
2912.77	0.003289
2922.41	0.003489
2932.06	0.003859
2941.7	0.004499
2951.35	0.005659
2960.99	0.004359
2970.64	0.003579
2980.28	0.002499
2989.93	0.002929
2999.57	0.003709
3009.22	0.005339
3018.86	0.003949
3028.51	0.002599
3038.15	0.002709
3047.8	0.002469
3057.44	0.002739
3067.09	0.002259
3076.73	0.002519
3086.38	0.001939
3096.02	0.002559
3105.67	0.0014154
3115.31	0.001649
3124.95	0.001719
3134.6	0.001282
3144.24	0.002259
3153.89	0.002369
3163.53	0.001569
3173.18	0.0012795
3182.82	0.0009228
3192.47	0.0009283
3202.11	0.0011686
3211.76	0.0007001
3221.4	0.0012758
3231.05	0.0015543
3240.69	0.000692
3250.34	0.0011737
3259.98	0.0012824
3269.63	0.0007789
3279.27	0.0008818
3288.92	0.0011937
3298.56	0.00061931
3308.21	0.0013592
3317.85	0.0011343
3327.49	0.001709
3337.14	0.001274
3346.78	0.0013094
3356.43	0.000393
3366.07	0.0013638
3375.72	0.0009307
3385.36	0.0010032
3395.01	0.0012804
3404.65	0.0015448
3414.3	0.0009638
3423.94	0.0011775
3433.59	0.0009434
3443.23	0.0010069
3452.88	0.0010497
3462.52	0.000977
3472.17	0.0014616
3481.81	0.003529
3491.46	0.007199
3501.1	0.015229
3510.75	0.013889
3520.39	0.001959
3530.04	0.0014981
3539.68	0.000993
3549.32	0.0004716
3558.97	0.0013196
3568.61	0.0011636
3578.26	0.0009664
3587.9	0.00093
3597.55	0.0010572
3607.19	0.0012175
3616.84	0.0011708
3626.48	0.0011356
3636.13	0.0014528
3645.77	0.0008346
3655.42	0.000393
3665.06	0.000969
3674.71	0.0004727
3684.35	0.00062419
3694	0.0009623
3703.64	0.0006256
3713.29	0.0007841
3722.93	0.0012838
3732.58	0.0009464
3742.22	0.00064454
3751.86	0.000289
3761.51	0.00059375
3771.15	0.0012483
3780.8	0.000227
3790.44	0.0010831
3800.09	0.0007354
3809.73	0.0006717
3819.38	0.000424
3829.02	0.0005251
3838.67	0.0009615
3848.31	0.0004762
3857.96	0.00034
3867.6	0.0010315
3877.25	0.001422
3886.89	0.0013118
3896.54	0.0006324
3906.18	0.0009448
3915.83	0.0006997
3925.47	0.000678
3935.12	0.001799
3944.76	0.0005142
3954.41	0.000422
3964.05	0.0010934
3973.69	0.000427
3983.34	0.0010919
3992.98	0.000745
