Infrared Spectrum: 1-(3-Trifluoromethylphenyl)imidazoline-2-thione
Formula: C 10 H 7 F 3 N 2 S
CAS: 17452-08-3
State: gas
Origin: EPA-IR VAPOR PHASE LIBRARY
1/CM	ABSORBANCE
549.8	0.009375
559.445	0.007985
569.09	0.004675
578.734	0.002675
588.379	0.002695
598.024	0.002875
607.669	0.002495
617.313	0.001835
626.958	0.001805
636.603	0.002745
646.248	0.006735
655.893	0.014545
665.537	0.020325
675.182	0.011855
684.827	0.018675
694.472	0.039205
704.116	0.033305
713.761	0.011585
723.406	0.002985
733.051	0.001955
742.695	0.001845
752.34	0.001645
761.985	0.001815
771.63	0.002625
781.275	0.003825
790.919	0.010545
800.564	0.016505
810.209	0.005815
819.854	0.002235
829.498	0.001675
839.143	0.001275
848.788	0.001265
858.433	0.001755
868.078	0.002265
877.722	0.002685
887.367	0.004915
897.012	0.008695
906.657	0.012125
916.301	0.004405
925.946	0.001575
935.591	0.0011701
945.236	0.0010134
954.88	0.001405
964.525	0.001755
974.17	0.003025
983.815	0.003895
993.46	0.003765
1003.1	0.002895
1012.75	0.002805
1022.39	0.003105
1032.04	0.004355
1041.68	0.010265
1051.33	0.035385
1060.97	0.040475
1070.62	0.030665
1080.26	0.021345
1089.91	0.019865
1099.55	0.015965
1109.2	0.011575
1118.84	0.013145
1128.49	0.022095
1138.13	0.055395
1147.78	0.120905
1157.42	0.077805
1167.07	0.046655
1176.71	0.069885
1186.36	0.065785
1196	0.023495
1205.64	0.017425
1215.29	0.023575
1224.93	0.027045
1234.58	0.039865
1244.22	0.040985
1253.87	0.021115
1263.51	0.019205
1273.16	0.030215
1282.8	0.032615
1292.45	0.032465
1302.09	0.029935
1311.74	0.029335
1321.38	0.059605
1331.03	0.139615
1340.67	0.069565
1350.32	0.015905
1359.96	0.008975
1369.61	0.006555
1379.25	0.006665
1388.9	0.012285
1398.54	0.027405
1408.18	0.020315
1417.83	0.020065
1427.47	0.041415
1437.12	0.076415
1446.76	0.092795
1456.41	0.080705
1466.05	0.059955
1475.7	0.035695
1485.34	0.022255
1494.99	0.029775
1504.63	0.026505
1514.28	0.009905
1523.92	0.004215
1533.57	0.003075
1543.21	0.002645
1552.86	0.002565
1562.5	0.003085
1572.15	0.005065
1581.79	0.006075
1591.44	0.008055
1601.08	0.009235
1610.73	0.008165
1620.37	0.007025
1630.01	0.003185
1639.66	0.001945
1649.3	0.001635
1658.95	0.001495
1668.59	0.001445
1678.24	0.001445
1687.88	0.001375
1697.53	0.001565
1707.17	0.001835
1716.82	0.001335
1726.46	0.0009868
1736.11	0.0008764
1745.75	0.0009137
1755.4	0.0010706
1765.04	0.001345
1774.69	0.001425
1784.33	0.001405
1793.98	0.0012242
1803.62	0.0011374
1813.27	0.0011455
1822.91	0.001051
1832.55	0.0008542
1842.2	0.0005951
1851.84	0.0005318
1861.49	0.000607
1871.13	0.0007269
1880.78	0.001109
1890.42	0.0009812
1900.07	0.0006359
1909.71	0.0005003
1919.36	0.0005039
1929	0.0006485
1938.65	0.0009983
1948.29	0.0011936
1957.94	0.0009574
1967.58	0.0006902
1977.23	0.0006996
1986.87	0.0005525
1996.52	0.0005522
2006.16	0.0004743
2015.81	0.0004328
2025.45	0.0003944
2035.1	0.0004722
2044.74	0.0004565
2054.38	0.0005147
2064.03	0.0003898
2073.67	0.0004689
2083.32	0.0005529
2092.96	0.0004872
2102.61	0.0004637
2112.25	0.0005728
2121.9	0.0006122
2131.54	0.0006848
2141.19	0.0007789
2150.83	0.0005802
2160.48	0.0004624
2170.12	0.0004909
2179.77	0.0004202
2189.41	0.0004433
2199.06	0.0005259
2208.7	0.0004714
2218.35	0.0004925
2227.99	0.0004696
2237.64	0.000493
2247.28	0.0005474
2256.92	0.0006531
2266.57	0.0007429
2276.21	0.0007447
2285.86	0.000851
2295.5	0.0007581
2305.15	0.0006347
2314.79	0.0005282
2324.44	0.000518
2334.08	0.0005875
2343.73	0.0006915
2353.37	0.0006829
2363.02	0.0005915
2372.66	0.0005456
2382.31	0.000572
2391.95	0.0004981
2401.6	0.0004599
2411.24	0.0005465
2420.89	0.0006595
2430.53	0.0006187
2440.18	0.0006053
2449.82	0.0007283
2459.47	0.0006931
2469.11	0.0006728
2478.75	0.0008518
2488.4	0.0006739
2498.04	0.0007176
2507.69	0.000612
2517.33	0.0004708
2526.98	0.0004218
2536.62	0.0003464
2546.27	0.0003504
2555.91	0.0004276
2565.56	0.0004165
2575.2	0.0004486
2584.85	0.0004921
2594.49	0.0005915
2604.14	0.0004274
2613.78	0.0005568
2623.43	0.000496
2633.07	0.0005694
2642.72	0.0005967
2652.36	0.0005645
2662.01	0.0006768
2671.65	0.0004317
2681.29	0.00024067
2690.94	0.00024931
2700.58	0.000234056
2710.23	0.0003669
2719.87	0.0003793
2729.52	0.00031396
2739.16	0.000199
2748.81	0.0001276
2758.45	3.3e-05
2768.1	0.0001612
2777.74	0.000144
2787.39	0.0001875
2797.03	0.00025047
2806.68	0.00025453
2816.32	0.00030588
2825.97	0.000166
2835.61	9.1e-05
2845.26	5.7e-05
2854.9	0.0001646
2864.55	0.00032178
2874.19	0.0003574
2883.84	0.0001252
2893.48	7.4e-05
2903.12	0.00023896
2912.77	0.000146
2922.41	0.00030228
2932.06	0.00029171
2941.7	0.00025894
2951.35	0.0003882
2960.99	0.0003961
2970.64	0.0004481
2980.28	0.0003726
2989.93	0.0003834
2999.57	0.000224903
3009.22	0.0003459
3018.86	0.0003738
3028.51	0.0003992
3038.15	0.0006963
3047.8	0.0010149
3057.44	0.001595
3067.09	0.001985
3076.73	0.002515
3086.38	0.002425
3096.02	0.001815
3105.67	0.0008373
3115.31	0.0007782
3124.95	0.0007376
3134.6	0.000578
3144.24	0.001395
3153.89	0.002335
3163.53	0.0007002
3173.18	0.0004355
3182.82	0.00028005
3192.47	0.00022172
3202.11	0.00027077
3211.76	0.0001749
3221.4	0.00025879
3231.05	0.000363
3240.69	0.00030043
3250.34	0.0001797
3259.98	0.00025443
3269.63	0.00025591
3279.27	0.00030212
3288.92	0.0002045
3298.56	9.4e-05
3308.21	0.0001646
3317.85	0.00021702
3327.49	0.00026599
3337.14	0.0003409
3346.78	0.0002086
3356.43	0.0004068
3366.07	0.00031818
3375.72	0.000205
3385.36	9.9e-05
3395.01	0.0003175
3404.65	0.0003455
3414.3	0.0004159
3423.94	0.0005312
3433.59	0.0005685
3443.23	0.0005659
3452.88	0.0008945
3462.52	0.001485
3472.17	0.003035
3481.81	0.006985
3491.46	0.016135
3501.1	0.038535
3510.75	0.023955
3520.39	0.002495
3530.04	0.0009739
3539.68	0.0008637
3549.32	0.0003985
3558.97	0.0006572
3568.61	0.0005905
3578.26	0.0007099
3587.9	0.0001941
3597.55	0.0004191
3607.19	0.000102
3616.84	0.00030591
3626.48	0.0004244
3636.13	0.0001791
3645.77	0.0001542
3655.42	0.0003937
3665.06	0.00029294
3674.71	0.0004362
3684.35	0.00027313
3694	0.0003652
3703.64	0.0003849
3713.29	0.0002143
3722.93	0.0004974
3732.58	0.00022179
3742.22	0.0001288
3751.86	0.0004965
3761.51	0.000198
3771.15	0.00022236
3780.8	0.0001563
3790.44	0.0003592
3800.09	0.00030832
3809.73	0.0001991
3819.38	0.00031948
3829.02	0.0004971
3838.67	0.0002725
3848.31	0.00027474
3857.96	0.0003693
3867.6	0.00031317
3877.25	0.0005051
3886.89	0.00031698
3896.54	0.000232303
3906.18	0.0001267
3915.83	0.0003377
3925.47	0.000418
3935.12	0.0001699
3944.76	0.00026207
3954.41	0.0003545
3964.05	0.000187
3973.69	0.00031435
3983.34	0.0001266
3992.98	0.000422
