Infrared Spectrum: 18-Crown-6
Formula: C 12 H 24 O 6
CAS: 17455-13-9
State: gas
Instrument: HP-GC/MS/IRD
Origin: NIST Mass Spectrometry Data Center
1/CM	ABSORBANCE
550	0.0014384
562	0.002108
574	0.0016244
586	0.000992
598	0.0006076
610	0.0004836
622	0.0003224
634	0.0001612
646	0.0001736
658	2.48e-05
670	0.0001116
682	3.72e-05
694	0.0001488
706	0.0001984
718	0.0001736
730	0.0002852
742	0.0003224
754	0.0004464
766	0.000682
778	0.0010788
790	0.0016864
802	0.0025792
814	0.0038564
826	0.005084
838	0.0057412
850	0.0061752
862	0.0063984
874	0.0055676
886	0.0049476
898	0.0055428
910	0.0071424
922	0.01023
934	0.0152768
946	0.0174344
958	0.0139376
970	0.0126604
982	0.0157604
994	0.0155992
1006	0.0115816
1018	0.0109864
1030	0.01302
1042	0.0158596
1054	0.0184884
1066	0.0212784
1078	0.0275156
1090	0.0400272
1102	0.0583172
1114	0.0877796
1126	0.119623
1138	0.119945
1150	0.0911276
1162	0.0513732
1174	0.0259036
1186	0.0146692
1198	0.0099944
1210	0.0083328
1222	0.0084816
1234	0.0103044
1246	0.0142724
1258	0.0154504
1270	0.0144832
1282	0.0164672
1294	0.0183644
1306	0.0132556
1318	0.008866
1330	0.0093868
1342	0.015376
1354	0.021762
1366	0.011842
1378	0.007192
1390	0.0046748
1402	0.0035836
1414	0.0030628
1426	0.0029884
1438	0.0047616
1450	0.0100564
1462	0.0104284
1474	0.007316
1486	0.004154
1498	0.0019592
1510	0.0010292
1522	0.0007316
1534	0.0006076
1546	0.0004588
1558	0.0003596
1570	0.0003968
1582	0.0003224
1594	0.0002604
1606	0.0002108
1618	0.0001612
1630	0.0001364
1642	0.0001116
1654	4.96e-05
1666	0.000124
1678	0.000124
1690	0.000124
1702	9.92e-05
1714	0.0001364
1726	0.0001736
1738	0.000124
1750	8.68e-05
1762	0.000124
1774	0.0001116
1786	8.68e-05
1798	7.44e-05
1810	7.44e-05
1822	6.2e-05
1834	6.2e-05
1846	1.24e-05
1858	9.92e-05
1870	0.0001612
1882	0.00031
1894	0.000434
1906	0.0006448
1918	0.0008928
1930	0.0011656
1942	0.001426
1954	0.0016244
1966	0.001674
1978	0.00155
1990	0.0013888
2002	0.0011036
2014	0.0008432
2026	0.0006572
2038	0.0005456
2050	0.0004836
2062	0.000496
2074	0.0005208
2086	0.0005456
2098	0.0005952
2110	0.0005828
2122	0.0005456
2134	0.0005208
2146	0.0005332
2158	0.0005208
2170	0.0004836
2182	0.0004092
2194	0.0003968
2206	0.000372
2218	0.0003472
2230	0.0002976
2242	0.0003348
2254	0.0003224
2266	0.0003348
2278	0.0002976
2290	0.0002604
2302	0.0002108
2314	0.0001116
2326	7.44e-05
2338	3.72e-05
2350	6.2e-05
2362	6.2e-05
2374	6.2e-05
2386	6.2e-05
2398	7.44e-05
2410	6.2e-05
2422	6.2e-05
2434	0
2446	3.72e-05
2458	2.48e-05
2470	4.96e-05
2482	8.68e-05
2494	0.0001736
2506	0.0001984
2518	0.0002108
2530	0.000248
2542	0.000248
2554	0.000248
2566	0.00031
2578	0.0004092
2590	0.000496
2602	0.0005704
2614	0.0006076
2626	0.0006696
2638	0.000744
2650	0.0009176
2662	0.0011904
2674	0.0016492
2686	0.0025916
2698	0.003534
2710	0.0042408
2722	0.0049476
2734	0.0053444
2746	0.005456
2758	0.0057164
2770	0.0066464
2782	0.007874
2794	0.009362
2806	0.0113708
2818	0.0143096
2830	0.0196416
2842	0.032364
2854	0.0581064
2866	0.0764088
2878	0.0692044
2890	0.0629672
2902	0.0578584
2914	0.0536796
2926	0.049848
2938	0.0503068
2950	0.0452724
2962	0.0333684
2974	0.0178684
2986	0.0081964
2998	0.0044888
3010	0.0028024
3022	0.0019344
3034	0.001426
3046	0.0010416
3058	0.0008804
3070	0.00062
3082	0.0005704
3094	0.0004464
3106	0.0004092
3118	0.0003224
3130	0.00031
3142	0.0003472
3154	0.0002852
3166	0.0002728
3178	0.00031
3190	0.0002356
3202	0.0002232
3214	0.0002108
3226	0.000186
3238	0.0002356
3250	0.0001736
3262	0.0001612
3274	9.92e-05
3286	0.000124
3298	0.0001364
3310	0.0001488
3322	0.0001488
3334	0.0001364
3346	7.44e-05
3358	9.92e-05
3370	0.0001116
3382	0.0001612
3394	8.68e-05
3406	0.0001364
3418	0.000186
3430	0.0001736
3442	0.0001488
3454	0.0001488
3466	6.2e-05
3478	9.92e-05
3490	7.44e-05
3502	7.44e-05
3514	0.0001116
3526	9.92e-05
3538	7.44e-05
3550	9.92e-05
3562	0
3574	9.92e-05
3586	0
3598	7.44e-05
3610	4.96e-05
3622	0.000124
3634	0.0001364
3646	0.0001612
3658	9.92e-05
3670	0.0002232
3682	0.0002604
3694	0.0002728
3706	0.0002728
3718	0.00031
3730	0.0002976
3742	0.00031
3754	0.0003348
3766	0.000372
3778	0.0003968
3790	0.000372
3802	0.0003596
3814	0.0004712
3826	0.000372
3838	0.0003596
