Infrared Spectrum: 1-(4-Bromophenyl)imidazoline-2-thione
Formula: C 9 H 7 Br N 2 S
CAS: 17452-23-2
State: gas
Origin: EPA-IR VAPOR PHASE LIBRARY
1/CM	ABSORBANCE
549.8	0.001868
559.445	0.001638
569.09	0.002428
578.734	0.002538
588.379	0.0011254
598.024	0.0006123
607.669	0.0007282
617.313	0.0005884
626.958	0.0003345
636.603	0.0005711
646.248	0.0010839
655.893	0.002868
665.537	0.003688
675.182	0.002008
684.827	0.002308
694.472	0.004898
704.116	0.004138
713.761	0.001268
723.406	0.0010814
733.051	0.0006203
742.695	0.0004923
752.34	0.0005228
761.985	0.000622
771.63	0.0005474
781.275	0.0006105
790.919	0.0005309
800.564	0.0007045
810.209	0.001278
819.854	0.002888
829.498	0.002688
839.143	0.0011421
848.788	0.0011454
858.433	0.0008602
868.078	0.0006676
877.722	0.0005259
887.367	0.0007776
897.012	0.001578
906.657	0.003738
916.301	0.0007481
925.946	0.0005621
935.591	0.0005062
945.236	0.0005518
954.88	0.001198
964.525	0.003538
974.17	0.001918
983.815	0.0009063
993.46	0.0005859
1003.1	0.0009544
1012.75	0.004088
1022.39	0.001658
1032.04	0.001248
1041.68	0.002948
1051.33	0.007108
1060.97	0.003988
1070.62	0.004228
1080.26	0.002758
1089.91	0.0009199
1099.55	0.001428
1109.2	0.001908
1118.84	0.0009267
1128.49	0.000837
1138.13	0.001258
1147.78	0.002648
1157.42	0.0009276
1167.07	0.0007114
1176.71	0.0007674
1186.36	0.001418
1196	0.001698
1205.64	0.002468
1215.29	0.004388
1224.93	0.004638
1234.58	0.006018
1244.22	0.005998
1253.87	0.003768
1263.51	0.002858
1273.16	0.002438
1282.8	0.002278
1292.45	0.004478
1302.09	0.009708
1311.74	0.006878
1321.38	0.002188
1331.03	0.0011475
1340.67	0.0011407
1350.32	0.001147
1359.96	0.0011402
1369.61	0.0010551
1379.25	0.001408
1388.9	0.003168
1398.54	0.007998
1408.18	0.007208
1417.83	0.004268
1427.47	0.006118
1437.12	0.012718
1446.76	0.020878
1456.41	0.017638
1466.05	0.008768
1475.7	0.006288
1485.34	0.013008
1494.99	0.017598
1504.63	0.008018
1514.28	0.003918
1523.92	0.002608
1533.57	0.001848
1543.21	0.001408
1552.86	0.000956
1562.5	0.0009145
1572.15	0.001198
1581.79	0.001268
1591.44	0.0010165
1601.08	0.0007905
1610.73	0.0007377
1620.37	0.0008841
1630.01	0.0008059
1639.66	0.000676
1649.3	0.0004895
1658.95	0.0004197
1668.59	0.0003427
1678.24	0.0002888
1687.88	0.00024089
1697.53	0.0003474
1707.17	0.0003525
1716.82	0.0003892
1726.46	0.0003129
1736.11	0.0003594
1745.75	0.0004443
1755.4	0.0004207
1765.04	0.0004765
1774.69	0.0003803
1784.33	0.0003368
1793.98	0.0003166
1803.62	0.000334
1813.27	0.0004005
1822.91	0.0003783
1832.55	0.0003666
1842.2	0.0002804
1851.84	0.0002644
1861.49	0.0003466
1871.13	0.0004291
1880.78	0.0005072
1890.42	0.0004761
1900.07	0.0003088
1909.71	0.0002326
1919.36	0.00027791
1929	0.00027608
1938.65	0.00018868
1948.29	0.00024429
1957.94	0.00028149
1967.58	0.0003055
1977.23	0.00027677
1986.87	0.00024101
1996.52	0.0002324
2006.16	0.00021558
2015.81	0.0002612
2025.45	0.00026695
2035.1	0.00028761
2044.74	0.0003193
2054.38	0.00023201
2064.03	0.00024915
2073.67	0.00023122
2083.32	0.00023218
2092.96	0.00026858
2102.61	0.00026571
2112.25	0.00025339
2121.9	0.00028505
2131.54	0.0003566
2141.19	0.0003365
2150.83	0.00024383
2160.48	0.0002669
2170.12	0.0003345
2179.77	0.0003022
2189.41	0.0003261
2199.06	0.00023166
2208.7	0.0003047
2218.35	0.00022943
2227.99	0.00020543
2237.64	0.00024163
2247.28	0.00024493
2256.92	0.00028629
2266.57	0.00025347
2276.21	0.0003077
2285.86	0.000395
2295.5	0.0004331
2305.15	0.0003299
2314.79	0.00026275
2324.44	0.0003178
2334.08	0.0001682
2343.73	0.00021287
2353.37	0.00027557
2363.02	0.0002902
2372.66	0.0003524
2382.31	0.0003787
2391.95	0.00026629
2401.6	0.00024107
2411.24	0.0003764
2420.89	0.0003132
2430.53	0.00028435
2440.18	0.000323
2449.82	0.00026256
2459.47	0.00022849
2469.11	0.0003665
2478.75	0.0003731
2488.4	0.0003465
2498.04	0.00026511
2507.69	0.0004175
2517.33	0.0003052
2526.98	0.0003106
2536.62	0.00028334
2546.27	0.0002943
2555.91	0.00025868
2565.56	0.000307
2575.2	0.0003556
2584.85	0.0003508
2594.49	0.0003433
2604.14	0.0003126
2613.78	0.0002984
2623.43	0.0002608
2633.07	0.0002941
2642.72	0.00020237
2652.36	0.0004559
2662.01	0.0004439
2671.65	0.0002926
2681.29	0.00022087
2690.94	0.00028345
2700.58	0.00027652
2710.23	0.0002958
2719.87	0.0003347
2729.52	0.00027045
2739.16	0.00021017
2748.81	0.00022334
2758.45	0.00020207
2768.1	0.0002577
2777.74	0.0001765
2787.39	0.00020915
2797.03	0.000187143
2806.68	0.0003166
2816.32	0.00023856
2825.97	0.0003278
2835.61	0.00021181
2845.26	0.0002669
2854.9	0.0003213
2864.55	0.0003429
2874.19	0.00021893
2883.84	0.0001755
2893.48	0.0001727
2903.12	0.00021144
2912.77	0.00020142
2922.41	0.0003196
2932.06	0.00020381
2941.7	0.00023603
2951.35	0.00025974
2960.99	0.00025466
2970.64	0.00021708
2980.28	0.0001127
2989.93	0.00027973
2999.57	0.0002922
3009.22	0.00023602
3018.86	0.0002707
3028.51	0.0003917
3038.15	0.0005514
3047.8	0.000518
3057.44	0.0003827
3067.09	0.0004417
3076.73	0.0004516
3086.38	0.0003842
3096.02	0.0005028
3105.67	0.0003449
3115.31	0.0004055
3124.95	0.0002904
3134.6	0.00023974
3144.24	0.0003672
3153.89	0.000811
3163.53	0.0003035
3173.18	0.0001708
3182.82	0.00027113
3192.47	6.6e-05
3202.11	0.000196555
3211.76	0.00027153
3221.4	0.00025601
3231.05	0.0002932
3240.69	0.00021464
3250.34	0.00025295
3259.98	0.00021716
3269.63	0.0001379
3279.27	0.0003737
3288.92	0.0001642
3298.56	0.00027815
3308.21	0.00022572
3317.85	0.00022093
3327.49	0.00021841
3337.14	0.0003351
3346.78	8.6e-05
3356.43	0.00021668
3366.07	0.0001674
3375.72	0.0002909
3385.36	0.00022027
3395.01	0.0003082
3404.65	0.0003202
3414.3	0.000339
3423.94	0.0003448
3433.59	0.00022398
3443.23	0.0003697
3452.88	0.00021029
3462.52	0.0006512
3472.17	0.0010209
3481.81	0.001608
3491.46	0.003838
3501.1	0.008988
3510.75	0.006398
3520.39	0.0006396
3530.04	0.00023585
3539.68	0.0003877
3549.32	0.0002899
3558.97	0.00020832
3568.61	0.0001735
3578.26	0.00021108
3587.9	0.00027271
3597.55	0.00023461
3607.19	0.00024217
3616.84	0.00019398
3626.48	0.0001587
3636.13	0.00027488
3645.77	0.00020209
3655.42	0.0002926
3665.06	7e-05
3674.71	0.00020842
3684.35	0.00024521
3694	0.0001308
3703.64	0.00028572
3713.29	0.0003572
3722.93	0.0001272
3732.58	0.000294
3742.22	0.00022137
3751.86	0.0003039
3761.51	0.0001342
3771.15	0.00026981
3780.8	0.0004344
3790.44	0.0004411
3800.09	7.6e-05
3809.73	0.0001348
3819.38	0.00025972
3829.02	0.0001752
3838.67	0.0003345
3848.31	0.0001191
3857.96	0.0001654
3867.6	0.0003593
3877.25	0.0003054
3886.89	0.00021051
3896.54	0.0001542
3906.18	0.0003446
3915.83	0.00027629
3925.47	0.0003804
3935.12	0.00021075
3944.76	0.0003311
3954.41	0.00027849
3964.05	0.00025232
3973.69	0.0003276
3983.34	0.00021518
3992.98	0.000187824
