Infrared Spectrum: 1-(4-Trifluoromethylphenyl)imidazoline-2-thione
Formula: C 10 H 7 F 3 N 2 S
CAS: 17452-18-5
State: gas
Origin: EPA-IR VAPOR PHASE LIBRARY
1/CM	ABSORBANCE
549.8	0.003439
559.445	0.002209
569.09	0.002129
578.734	0.002219
588.379	0.002059
598.024	0.003719
607.669	0.005339
617.313	0.003019
626.958	0.001479
636.603	0.001339
646.248	0.002029
655.893	0.005039
665.537	0.006169
675.182	0.003629
684.827	0.004659
694.472	0.011029
704.116	0.008279
713.761	0.001859
723.406	0.000947
733.051	0.0007903
742.695	0.0010574
752.34	0.0011297
761.985	0.0010172
771.63	0.0011694
781.275	0.001719
790.919	0.0007333
800.564	0.000838
810.209	0.0008561
819.854	0.001409
829.498	0.003169
839.143	0.007449
848.788	0.005479
858.433	0.002239
868.078	0.001749
877.722	0.0011303
887.367	0.0011987
897.012	0.003289
906.657	0.006439
916.301	0.0011588
925.946	0.000403
935.591	0.0005981
945.236	0.001449
954.88	0.002279
964.525	0.003649
974.17	0.004009
983.815	0.0012841
993.46	0.0009557
1003.1	0.0010379
1012.75	0.002889
1022.39	0.007669
1032.04	0.002979
1041.68	0.006669
1051.33	0.025119
1060.97	0.015369
1070.62	0.017609
1080.26	0.008249
1089.91	0.005759
1099.55	0.007379
1109.2	0.013289
1118.84	0.010409
1128.49	0.012409
1138.13	0.024819
1147.78	0.043349
1157.42	0.036899
1167.07	0.031669
1176.71	0.032589
1186.36	0.018639
1196	0.008699
1205.64	0.007119
1215.29	0.010029
1224.93	0.012809
1234.58	0.016559
1244.22	0.016359
1253.87	0.009319
1263.51	0.006059
1273.16	0.005179
1282.8	0.006289
1292.45	0.011479
1302.09	0.025429
1311.74	0.037319
1321.38	0.087539
1331.03	0.062269
1340.67	0.010989
1350.32	0.005939
1359.96	0.004319
1369.61	0.003339
1379.25	0.003489
1388.9	0.007419
1398.54	0.020349
1408.18	0.020599
1417.83	0.013419
1427.47	0.013509
1437.12	0.022539
1446.76	0.036499
1456.41	0.033439
1466.05	0.017849
1475.7	0.007959
1485.34	0.004209
1494.99	0.003739
1504.63	0.006499
1514.28	0.008069
1523.92	0.009649
1533.57	0.004659
1543.21	0.002419
1552.86	0.002159
1562.5	0.002209
1572.15	0.002789
1581.79	0.003099
1591.44	0.003419
1601.08	0.004879
1610.73	0.010079
1620.37	0.009769
1630.01	0.003769
1639.66	0.001779
1649.3	0.001399
1658.95	0.001359
1668.59	0.0011283
1678.24	0.0010495
1687.88	0.0006761
1697.53	0.0004342
1707.17	0.0004917
1716.82	0.0006262
1726.46	0.0007101
1736.11	0.0007793
1745.75	0.0008801
1755.4	0.0009201
1765.04	0.0009623
1774.69	0.0010942
1784.33	0.0010552
1793.98	0.0008188
1803.62	0.0007689
1813.27	0.000762
1822.91	0.0006945
1832.55	0.0005248
1842.2	0.000577
1851.84	0.0005936
1861.49	0.0005179
1871.13	0.0006523
1880.78	0.0007146
1890.42	0.00081
1900.07	0.0009969
1909.71	0.0009906
1919.36	0.0007899
1929	0.0006577
1938.65	0.0005977
1948.29	0.0006051
1957.94	0.0006242
1967.58	0.0006004
1977.23	0.0005152
1986.87	0.0006084
1996.52	0.0005456
2006.16	0.0006484
2015.81	0.0005857
2025.45	0.0005402
2035.1	0.0005409
2044.74	0.0005464
2054.38	0.000565
2064.03	0.0005452
2073.67	0.0004915
2083.32	0.000487
2092.96	0.0006389
2102.61	0.000686
2112.25	0.0006895
2121.9	0.000598
2131.54	0.0005852
2141.19	0.0005306
2150.83	0.0005239
2160.48	0.0005096
2170.12	0.0005128
2179.77	0.0005602
2189.41	0.0004759
2199.06	0.0005413
2208.7	0.0005767
2218.35	0.0005755
2227.99	0.0006314
2237.64	0.0005312
2247.28	0.0005803
2256.92	0.0006132
2266.57	0.0006853
2276.21	0.0006931
2285.86	0.000724
2295.5	0.0006773
2305.15	0.0007036
2314.79	0.0006547
2324.44	0.000594
2334.08	0.0006612
2343.73	0.0006511
2353.37	0.0005571
2363.02	0.0005173
2372.66	0.0006315
2382.31	0.0006639
2391.95	0.000605
2401.6	0.0006047
2411.24	0.0006249
2420.89	0.0006316
2430.53	0.0005496
2440.18	0.0005702
2449.82	0.0006736
2459.47	0.00067
2469.11	0.0006717
2478.75	0.0007019
2488.4	0.0006989
2498.04	0.0006644
2507.69	0.0006273
2517.33	0.0005149
2526.98	0.0004491
2536.62	0.0005081
2546.27	0.0005842
2555.91	0.0005044
2565.56	0.0005679
2575.2	0.0004951
2584.85	0.0005584
2594.49	0.0007247
2604.14	0.000658
2613.78	0.0006572
2623.43	0.0007202
2633.07	0.0007538
2642.72	0.0006706
2652.36	0.0007515
2662.01	0.0005993
2671.65	0.0005251
2681.29	0.0004926
2690.94	0.0005106
2700.58	0.000539
2710.23	0.0005606
2719.87	0.0005227
2729.52	0.00041688
2739.16	0.00040283
2748.81	0.0004721
2758.45	0.0004691
2768.1	0.000334713
2777.74	0.0003127
2787.39	0.00035987
2797.03	0.0004798
2806.68	0.0005464
2816.32	0.0004387
2825.97	0.0005166
2835.61	0.00039223
2845.26	0.00042873
2854.9	0.00035305
2864.55	0.0004848
2874.19	0.0002926
2883.84	0.0002773
2893.48	0.0005471
2903.12	0.0004524
2912.77	0.0004856
2922.41	0.0005891
2932.06	0.000478
2941.7	0.0004498
2951.35	0.00041953
2960.99	0.0003952
2970.64	0.0003164
2980.28	0.0004774
2989.93	0.0003185
2999.57	0.0004589
3009.22	0.0004421
3018.86	0.000564
3028.51	0.0005155
3038.15	0.0006915
3047.8	0.0006783
3057.44	0.0008703
3067.09	0.0008935
3076.73	0.0006366
3086.38	0.0007892
3096.02	0.000893
3105.67	0.0005826
3115.31	0.0004518
3124.95	0.0005756
3134.6	0.0006994
3144.24	0.0010192
3153.89	0.001549
3163.53	0.0006882
3173.18	0.0005783
3182.82	0.0004907
3192.47	0.0005207
3202.11	0.0004748
3211.76	0.0003076
3221.4	0.0002804
3231.05	0.000213
3240.69	0.0004754
3250.34	0.0002373
3259.98	0.00034675
3269.63	0.00035045
3279.27	0.00038673
3288.92	0.00038266
3298.56	0.00036894
3308.21	0.0003188
3317.85	0.00032762
3327.49	0.00036517
3337.14	0.000288
3346.78	0.000203
3356.43	0.0004629
3366.07	0.0002679
3375.72	0.0002707
3385.36	0.00039129
3395.01	0.0004081
3404.65	0.00038068
3414.3	0.0004487
3423.94	0.000328705
3433.59	0.0002698
3443.23	0.0005208
3452.88	0.0006836
3462.52	0.0008041
3472.17	0.001649
3481.81	0.003269
3491.46	0.007569
3501.1	0.018509
3510.75	0.010209
3520.39	0.0011636
3530.04	0.0007473
3539.68	0.0004711
3549.32	0.0005053
3558.97	0.0005861
3568.61	0.0004493
3578.26	0.00032008
3587.9	0.000241
3597.55	0.0004665
3607.19	0.00036129
3616.84	0.00037125
3626.48	0.0002473
3636.13	0.0002643
3645.77	0.00037036
3655.42	0.000268
3665.06	0.0003007
3674.71	0.00038941
3684.35	0.0002337
3694	0.00035289
3703.64	0.0005311
3713.29	0.00039511
3722.93	0.0002649
3732.58	0.000177
3742.22	0.00040639
3751.86	0.000162
3761.51	0.00036767
3771.15	0.00032343
3780.8	0.000232
3790.44	0.0004698
3800.09	0.00034744
3809.73	0.00040048
3819.38	0.000187
3829.02	0.0004634
3838.67	0.000155
3848.31	0.000134
3857.96	0.00041714
3867.6	0.00042098
3877.25	0.00038769
3886.89	0.000136
3896.54	0.00016
3906.18	0.000159
3915.83	0.000191
3925.47	0.0002401
3935.12	0.0002911
3944.76	0.00037856
3954.41	0.0002578
3964.05	0.00032501
3973.69	0.0002981
3983.34	0.0002331
3992.98	0.000186
