Infrared Spectrum: Monolinuron
Formula: C 9 H 11 Cl N 2 O 2
CAS: 1746-81-2
State: solid
Instrument: Bruker Tensor 37 FTIR
Resolution: 0.96450084
Origin: Pacific Northwest National Laboratory Under IARPA Contract
1/cm	Reflectance
7498.99	0.79105
7481.63	0.792787
7464.27	0.759139
7446.91	0.733839
7429.55	0.726
7412.19	0.710527
7394.84	0.698498
7377.48	0.709418
7360.12	0.709735
7342.76	0.710866
7325.4	0.702588
7308.04	0.711709
7290.68	0.737292
7273.32	0.749433
7255.96	0.751341
7238.6	0.75732
7221.24	0.753712
7203.88	0.764623
7186.52	0.748392
7169.16	0.759768
7151.8	0.778311
7134.44	0.780186
7117.08	0.782691
7099.72	0.770717
7082.36	0.733718
7065	0.67838
7047.64	0.61156
7030.28	0.55497
7012.92	0.52738
6995.56	0.54478
6978.2	0.61663
6960.84	0.62564
6943.48	0.66636
6926.12	0.67378
6908.76	0.68689
6891.4	0.71907
6874.04	0.72482
6856.68	0.72601
6839.32	0.68696
6821.96	0.65877
6804.6	0.63477
6787.24	0.52061
6769.88	0.48203
6752.52	0.41182
6735.16	0.45981
6717.8	0.51607
6700.44	0.43313
6683.08	0.52334
6665.72	0.55753
6648.36	0.54457
6631	0.57311
6613.64	0.56398
6596.28	0.61157
6578.92	0.64402
6561.56	0.66553
6544.2	0.63723
6526.85	0.64896
6509.49	0.64323
6492.13	0.65855
6474.77	0.66924
6457.41	0.67959
6440.05	0.665
6422.69	0.66686
6405.33	0.67331
6387.97	0.67356
6370.61	0.67721
6353.25	0.66852
6335.89	0.66601
6318.53	0.66157
6301.17	0.65126
6283.81	0.65272
6266.45	0.6101
6249.09	0.47703
6231.73	0.4966
6214.37	0.39601
6197.01	0.36897
6179.65	0.2785
6162.29	0.25607
6144.93	0.364
6127.57	0.37391
6110.21	0.31757
6092.85	0.26375
6075.49	0.27471
6058.13	0.31105
6040.77	0.2948
6023.41	0.25759
6006.05	0.28149
5988.69	0.26184
5971.33	0.18914
5953.97	0.15025
5936.61	0.21847
5919.25	0.25733
5901.89	0.24573
5884.53	0.26862
5867.17	0.25764
5849.81	0.18829
5832.45	0.23454
5815.09	0.28317
5797.73	0.25434
5780.37	0.19283
5763.01	0.23571
5745.65	0.23523
5728.29	0.28816
5710.93	0.26491
5693.57	0.2969
5676.21	0.36039
5658.86	0.3886
5641.5	0.32516
5624.14	0.30965
5606.78	0.3393
5589.42	0.2957
5572.06	0.39347
5554.7	0.37327
5537.34	0.34282
5519.98	0.32426
5502.62	0.29327
5485.26	0.23558
5467.9	0.19183
5450.54	0.10711
5433.18	0.05776
5415.82	0.0388
5398.46	0.05293
5381.1	0.06432
5363.74	0.08825
5346.38	0.10049
5329.02	0.11549
5311.66	0.09839
5294.3	0.0666
5276.94	0.07385
5259.58	0.05875
5242.22	0.06136
5224.86	0.06299
5207.5	0.05837
5190.14	0.06357
5172.78	0.08286
5155.42	0.08135
5138.06	0.1411
5120.7	0.15325
5103.34	0.16498
5085.98	0.1623
5068.62	0.12147
5051.26	0.15861
5033.9	0.1672
5016.54	0.14877
4999.18	0.17127
4981.82	0.22206
4964.46	0.19828
4947.1	0.19547
4929.74	0.2348
4912.38	0.21188
4895.02	0.17237
4877.66	0.20893
4860.3	0.22626
4842.94	0.20651
4825.58	0.20819
4808.22	0.1921
4790.86	0.21648
4773.51	0.19389
4756.15	0.16995
4738.79	0.18292
4721.43	0.12739
4704.07	0.10685
4686.71	0.15614
4669.35	0.1241
4651.99	0.09724
4634.63	0.08072
4617.27	0.06354
4599.91	0.03568
4582.55	0.09012
4565.19	0.05447
4547.83	0.03959
4530.47	0.04477
4513.11	0.035
4495.75	0.05196
4478.39	0.04344
4461.03	0.04339
4443.67	0.04529
4426.31	0.03926
4408.95	0.04515
4391.59	0.04889
4374.23	0.04534
4356.87	0.05105
4339.51	0.04267
4322.15	0.05714
4304.79	0.04301
4287.43	0.06261
4270.07	0.04526
4252.71	0.05928
4235.35	0.05228
4217.99	0.12432
4200.63	0.12178
4183.27	0.06991
4165.91	0.03389
4148.55	0.09574
4131.19	0.07015
4113.83	0.03999
4096.47	0.04318
4079.11	0.04945
4061.75	0.06441
4044.39	0.798332
4027.03	0.780275
4009.67	0.744505
3992.31	0.705243
3974.95	0.713027
3957.59	0.703563
3940.23	0.702003
3922.87	0.71005
3905.52	0.70569
3888.16	0.71099
3870.8	0.692152
3853.44	0.709897
3836.08	0.735671
3818.72	0.749578
3801.36	0.749884
3784	0.746678
3766.64	0.753586
3749.28	0.757456
3731.92	0.74183
3714.56	0.763162
3697.2	0.775566
3679.84	0.782595
3662.48	0.777257
3645.12	0.76067
3627.76	0.708731
3610.4	0.659472
3593.04	0.5837
3575.68	0.539259
3558.32	0.515093
3540.96	0.553275
3523.6	0.63215
3506.24	0.618396
3488.88	0.673806
3471.52	0.664214
3454.16	0.691099
3436.8	0.719809
3419.44	0.717154
3402.08	0.71214
3384.72	0.669316
3367.36	0.648821
3350	0.601966
3332.64	0.494828
3315.28	0.459083
3297.92	0.410141
3280.56	0.476257
3263.2	0.488405
3245.84	0.447732
3228.48	0.517147
3211.12	0.548075
3193.76	0.52687
3176.4	0.570437
3159.04	0.551931
3141.68	0.615829
3124.32	0.643905
3106.96	0.655146
3089.6	0.62943
3072.24	0.633406
3054.88	0.647685
3037.53	0.658456
3020.17	0.662739
3002.81	0.674679
2985.45	0.650154
2968.09	0.662728
2950.73	0.657528
2933.37	0.666333
2916.01	0.669753
2898.65	0.668573
2881.29	0.656752
2863.93	0.659014
2846.57	0.635908
2829.21	0.642343
2811.85	0.575157
2794.49	0.456887
2777.13	0.474563
2759.77	0.299694
2742.41	0.35637
2725.05	0.211412
2707.69	0.287742
2690.33	0.354863
2672.97	0.352995
2655.61	0.315392
2638.25	0.242493
2620.89	0.277418
2603.53	0.307723
2586.17	0.261742
2568.81	0.274381
2551.45	0.279811
2534.09	0.239565
2516.73	0.180987
2499.37	0.163355
2482.01	0.201908
2464.65	0.258169
2447.29	0.255668
2429.93	0.259972
2412.57	0.243782
2395.21	0.218251
2377.85	0.224445
2360.49	0.253264
2343.13	0.195834
2325.77	0.224281
2308.41	0.219409
2291.05	0.270875
2273.69	0.267357
2256.33	0.266286
2238.97	0.331703
2221.61	0.346156
2204.25	0.366465
2186.89	0.314551
2169.53	0.286595
2152.18	0.342136
2134.82	0.344648
2117.46	0.394639
2100.1	0.349138
2082.74	0.331626
2065.38	0.307068
2048.02	0.26964
2030.66	0.228127
2013.3	0.163683
1995.94	0.0840318
1978.58	0.0500345
1961.22	0.0474891
1943.86	0.0553439
1926.5	0.0669676
1909.14	0.0959505
1891.78	0.0960379
1874.42	0.109617
1857.06	0.0831687
1839.7	0.0777283
1822.34	0.0675794
1804.98	0.0710097
1787.62	0.0525581
1770.26	0.0506681
1752.9	0.0597246
1735.54	0.0593095
1718.18	0.092542
1700.82	0.109453
1683.46	0.138786
1666.1	0.164021
1648.74	0.167692
1631.38	0.154233
1614.02	0.141353
1596.66	0.162896
1579.3	0.175219
1561.94	0.15656
1544.58	0.184505
1527.22	0.232617
1509.86	0.205589
1492.5	0.200378
1475.14	0.23643
1457.78	0.180791
1440.42	0.203088
1423.06	0.224391
1405.7	0.231983
1388.34	0.198423
1370.98	0.223997
1353.62	0.187695
1336.26	0.199352
1318.9	0.178191
1301.54	0.167867
1284.19	0.171013
1266.83	0.134132
1249.47	0.099064
1232.11	0.157532
1214.75	0.122497
1197.39	0.0942572
1180.03	0.0733913
1162.67	0.0531043
1145.31	0.0330359
1127.95	0.0695677
1110.59	0.0557044
1093.23	0.0472378
1075.87	0.0397327
1058.51	0.0581952
1041.15	0.05069
1023.79	0.0459597
1006.43	0.0402133
989.068	0.0462218
971.709	0.0377335
954.349	0.0447252
936.989	0.0599103
919.629	0.0410655
902.269	0.0430865
884.91	0.0534539
867.55	0.0519682
850.19	0.0527875
832.83	0.0703433
815.47	0.0474454
798.111	0.0782745
780.751	0.0954917
763.391	0.136339
746.031	0.110174
728.671	0.0550817
711.312	0.0648045
693.952	0.100309
676.592	0.0515967
659.232	0.0333309
641.872	0.0440042
624.513	0.0567531
607.153	0.0610574
