Infrared Spectrum: p-t-Butylstyrene
Formula: C 12 H 16
CAS: 1746-23-2
State: gas
Instrument: HP-GC/MS/IRD
Origin: NIST Mass Spectrometry Data Center
1/CM	ABSORBANCE
550	0.0006578
562	0.000507
574	0.0003302
586	0.0002834
598	0.0002886
610	0.0002574
622	0.0002964
634	0.000325
646	0.0004472
658	0.000338
670	0.0001144
682	8.06e-05
694	0.0001248
706	0.0001196
718	0.0001742
730	9.1e-05
742	0.000104
754	0.0001482
766	8.32e-05
778	0.0001716
790	0.0002028
802	0.0005512
814	0.0014612
826	0.004186
838	0.006435
850	0.003484
862	0.0011778
874	0.0008684
886	0.0014924
898	0.0031642
910	0.004121
922	0.0025012
934	0.0012428
946	0.0008762
958	0.0009334
970	0.0013468
982	0.0021736
994	0.0022412
1006	0.002028
1018	0.002288
1030	0.0007878
1042	0.0004758
1054	0.000234
1066	0.0002262
1078	0.0003094
1090	0.0006396
1102	0.002197
1114	0.0021866
1126	0.0009542
1138	0.0004524
1150	0.0002444
1162	0.0001508
1174	0.0002392
1186	0.000559
1198	0.0009724
1210	0.000832
1222	0.0005304
1234	0.0005018
1246	0.0008918
1258	0.0028184
1270	0.0034112
1282	0.0015158
1294	0.0007514
1306	0.0004654
1318	0.0003146
1330	0.0004056
1342	0.0006526
1354	0.0015938
1366	0.0029666
1378	0.0026234
1390	0.0025324
1402	0.0025896
1414	0.0012844
1426	0.0008112
1438	0.0007904
1450	0.0013052
1462	0.0021086
1474	0.002756
1486	0.0026884
1498	0.0027612
1510	0.0054938
1522	0.0026052
1534	0.0006214
1546	0.0005824
1558	0.000637
1570	0.000429
1582	0.0003094
1594	0.000403
1606	0.000819
1618	0.0016536
1630	0.0031512
1642	0.001612
1654	0.0007514
1666	0.0005408
1678	0.000299
1690	0.0001794
1702	0.0001742
1714	0.0001456
1726	0.0001586
1738	0.000169
1750	0.0001664
1762	0.0002808
1774	0.0005096
1786	0.00039
1798	0.0003016
1810	0.0007826
1822	0.0009594
1834	0.0004498
1846	0.0002288
1858	0.0001482
1870	0.0001924
1882	0.0003042
1894	0.0004758
1906	0.0004212
1918	0.0002236
1930	0.0001066
1942	0.0001144
1954	0.0001716
1966	0.0001274
1978	7.8e-05
1990	4.94e-05
2002	5.72e-05
2014	5.72e-05
2026	5.72e-05
2038	5.72e-05
2050	3.38e-05
2062	3.64e-05
2074	5.72e-05
2086	3.9e-05
2098	3.64e-05
2110	3.38e-05
2122	1.04e-05
2134	3.38e-05
2146	4.16e-05
2158	5.2e-05
2170	2.86e-05
2182	1.82e-05
2194	2.86e-05
2206	7.28e-05
2218	3.38e-05
2230	1.82e-05
2242	1.82e-05
2254	3.64e-05
2266	3.38e-05
2278	5.46e-05
2290	5.46e-05
2302	5.2e-05
2314	8.32e-05
2326	5.2e-05
2338	8.58e-05
2350	5.46e-05
2362	4.68e-05
2374	4.68e-05
2386	0.0001014
2398	6.5e-05
2410	4.94e-05
2422	4.42e-05
2434	8.32e-05
2446	4.94e-05
2458	7.8e-05
2470	5.2e-05
2482	4.42e-05
2494	0.000104
2506	9.36e-05
2518	7.54e-05
2530	8.84e-05
2542	0.0001066
2554	0.000117
2566	0.0001248
2578	0.0001326
2590	0.0001222
2602	0.0001352
2614	0.0001248
2626	0.0001534
2638	0.0001222
2650	0.0001404
2662	0.000143
2674	0.0001794
2686	0.0001846
2698	0.0001742
2710	0.0002574
2722	0.0003172
2734	0.000299
2746	0.0002782
2758	0.0003198
2770	0.0002964
2782	0.0003692
2794	0.0003848
2806	0.0004914
2818	0.000585
2830	0.0006734
2842	0.0009802
2854	0.001547
2866	0.0033462
2878	0.0051688
2890	0.0051896
2902	0.0056316
2914	0.007033
2926	0.006799
2938	0.0071344
2950	0.0112528
2962	0.0227604
2974	0.0232388
2986	0.0095342
2998	0.0045188
3010	0.0046306
3022	0.004511
3034	0.0040742
3046	0.003354
3058	0.0028132
3070	0.0029588
3082	0.0038038
3094	0.0051922
3106	0.0025012
3118	0.0010608
3130	0.0007878
3142	0.000546
3154	0.0004108
3166	0.0004654
3178	0.000364
3190	0.0004264
3202	0.000416
3214	0.00039
3226	0.0003458
3238	0.000299
3250	0.0003562
3262	0.0003172
3274	0.0002548
3286	0.0002938
3298	0.0002522
3310	0.0002626
3322	0.0002288
3334	0.0001638
3346	0.0002028
3358	0.000156
3370	0.000156
3382	0.0002054
3394	0.0001326
3406	0.0001014
3418	0.0001404
3430	0.0001898
3442	0.000169
3454	0.0001066
3466	0.000117
3478	0.0001508
3490	0.0001872
3502	0.0001222
3514	3.38e-05
3526	0.0001066
3538	0.0001742
3550	0.000156
3562	0.0001144
3574	6.24e-05
3586	9.88e-05
3598	0.0001638
3610	0.0001508
3622	0.0001664
3634	0.000156
3646	0.0001664
3658	0.0001794
3670	0.0001898
3682	0.0001508
3694	0.0001664
3706	0.0001898
3718	0.000195
3730	0.0001898
3742	0.0002132
3754	0.0001534
3766	0.0001638
3778	0.000221
3790	0.0002444
3802	0.0002028
3814	0.000182
3826	0.000247
3838	0.0002626
