Infrared Spectrum: Allylphenyl ether
Formula: C 9 H 10 O
CAS: 1746-13-0
State: gas
Instrument: HP-GC/MS/IRD
Origin: NIST Mass Spectrometry Data Center
1/CM	ABSORBANCE
550	0.0009024
562	0.0005792
574	0.0002784
586	6.4e-05
598	2.56e-05
610	0.0001152
622	0.0002752
634	0.0004448
646	0.0005632
658	0.0009792
670	0.002192
682	0.0043968
694	0.0051456
706	0.0027424
718	0.0014048
730	0.0025184
742	0.0063232
754	0.008896
766	0.0055328
778	0.0028224
790	0.0016832
802	0.0012224
814	0.0014112
826	0.0017504
838	0.0009568
850	0.0004416
862	0.0006272
874	0.0011104
886	0.0014912
898	0.0018528
910	0.0031968
922	0.0060192
934	0.005648
946	0.0033728
958	0.0027712
970	0.0035296
982	0.005776
994	0.008192
1006	0.0090848
1018	0.010368
1030	0.0123744
1042	0.0095296
1054	0.0044032
1066	0.0031104
1078	0.002768
1090	0.0021472
1102	0.001792
1114	0.0014016
1126	0.0011008
1138	0.0012864
1150	0.002496
1162	0.0050656
1174	0.0054752
1186	0.0037504
1198	0.0070336
1210	0.0176448
1222	0.0271296
1234	0.0314176
1246	0.0275296
1258	0.012208
1270	0.008304
1282	0.0079072
1294	0.0077344
1306	0.0053184
1318	0.0025824
1330	0.0019744
1342	0.001696
1354	0.0019456
1366	0.0024832
1378	0.0018528
1390	0.00136
1402	0.0015008
1414	0.0027136
1426	0.00352
1438	0.0023296
1450	0.002784
1462	0.0047456
1474	0.0063008
1486	0.0171744
1498	0.0219776
1510	0.0062112
1522	0.00176
1534	0.0011584
1546	0.0012928
1558	0.0019264
1570	0.0039584
1582	0.0091296
1594	0.0175616
1606	0.012064
1618	0.0031168
1630	0.00144
1642	0.0013472
1654	0.001056
1666	0.0005664
1678	0.0003904
1690	0.0004096
1702	0.000288
1714	0.0001984
1726	0.0001312
1738	8.96e-05
1750	0.0001952
1762	0.0003968
1774	0.0003072
1786	0.0001984
1798	0.0001792
1810	0.0002272
1822	0.0003584
1834	0.0005408
1846	0.000768
1858	0.0007872
1870	0.0004192
1882	0.0002368
1894	0.000256
1906	0.0004192
1918	0.00056
1930	0.0006304
1942	0.0005344
1954	0.0003072
1966	0.000256
1978	0.0003008
1990	0.0004032
2002	0.0004512
2014	0.000368
2026	0.0003168
2038	0.0003392
2050	0.0003872
2062	0.0004128
2074	0.0003296
2086	0.0002016
2098	9.28e-05
2110	8.32e-05
2122	1.6e-05
2134	9.6e-06
2146	1.6e-05
2158	1.6e-05
2170	3.2e-05
2182	1.28e-05
2194	1.28e-05
2206	3.2e-05
2218	1.92e-05
2230	1.28e-05
2242	2.88e-05
2254	5.44e-05
2266	6.4e-05
2278	0.000112
2290	7.36e-05
2302	0.0001248
2314	0.00016
2326	0.0001632
2338	0.0001376
2350	0.0001184
2362	0.0001216
2374	0.000144
2386	0.0001376
2398	0.0001568
2410	0.000208
2422	0.0002368
2434	0.000224
2446	0.0002176
2458	0.0001984
2470	0.0002048
2482	0.0002048
2494	0.0001568
2506	0.0001472
2518	0.0001728
2530	0.0001856
2542	0.0002144
2554	0.0001664
2566	0.000144
2578	8.96e-05
2590	0.0001056
2602	9.6e-05
2614	9.28e-05
2626	7.68e-05
2638	5.76e-05
2650	0
2662	2.88e-05
2674	3.52e-05
2686	6.72e-05
2698	0.0001344
2710	0.0001472
2722	0.0002304
2734	0.0001888
2746	0.0002112
2758	0.0001728
2770	0.0002048
2782	0.000256
2794	0.0002912
2806	0.0003424
2818	0.0004704
2830	0.0006752
2842	0.0010336
2854	0.001632
2866	0.0024864
2878	0.0030816
2890	0.0030848
2902	0.002864
2914	0.0029184
2926	0.0030304
2938	0.0030528
2950	0.0027936
2962	0.0022592
2974	0.0017248
2986	0.0017888
2998	0.002064
3010	0.0024224
3022	0.0034336
3034	0.0044448
3046	0.0049856
3058	0.0046464
3070	0.005872
3082	0.00648
3094	0.0056064
3106	0.003856
3118	0.0016736
3130	0.0006208
3142	0.0003584
3154	0.0002944
3166	0.0002272
3178	0.0002144
3190	0.0001504
3202	0.0001376
3214	0.0001088
3226	8.96e-05
3238	0.0001056
3250	7.04e-05
3262	8.96e-05
3274	8.96e-05
3286	6.08e-05
3298	7.68e-05
3310	7.68e-05
3322	3.52e-05
3334	8.96e-05
3346	6.4e-05
3358	9.6e-05
3370	9.28e-05
3382	6.08e-05
3394	8.96e-05
3406	9.6e-05
3418	9.92e-05
3430	0.0001088
3442	7.04e-05
3454	0.0001184
3466	8.96e-05
3478	9.6e-05
3490	3.2e-05
3502	9.6e-05
3514	7.04e-05
3526	7.36e-05
3538	9.28e-05
3550	5.44e-05
3562	0.0001088
3574	0.000128
3586	6.08e-05
3598	2.24e-05
3610	6.08e-05
3622	9.6e-05
3634	8.32e-05
3646	5.76e-05
3658	0.000112
3670	8.64e-05
3682	0.0001312
3694	0.0001152
3706	0.0001408
3718	0.0001056
3730	5.76e-05
3742	6.08e-05
3754	1.28e-05
3766	6.08e-05
3778	9.92e-05
3790	9.92e-05
3802	8.64e-05
3814	7.68e-05
3826	9.92e-05
3838	7.04e-05
