Infrared Spectrum: PHOSPHONIC ACID, (1-HYDROXY)BUTYL-, DIETHYL ESTER
Formula: C8 H19 O4 P
CAS: 17477-67-7
Class: COBLENTZ
Instrument: Not specified, most likely a prism, grating, or hybrid spectrometer.
Sampling: TRANSMISSION
Path length: SMEAR
Resolution: 4
Origin: TENNESSEE EASTMAN COMPANY, RESEARCH LABORATORIES
MICROMETERS	TRANSMITTANCE
2.044	0.94
2.08299	0.941
2.12198	0.94
2.16097	0.938
2.19996	0.933
2.23894	0.92
2.27793	0.912
2.31692	0.912
2.35591	0.917
2.3949	0.92
2.43389	0.917
2.47288	0.914
2.51187	0.914
2.55085	0.92
2.58984	0.93
2.62883	0.925
2.66782	0.923
2.70681	0.922
2.7458	0.912
2.78479	0.875
2.82378	0.831
2.86277	0.76
2.90175	0.614
2.94074	0.483
2.97973	0.362
3.01872	0.294
3.05771	0.312
3.0967	0.427
3.13569	0.561
3.17468	0.673
3.21366	0.754
3.25265	0.786
3.29164	0.791
3.33063	0.414
3.36962	0.288
3.40861	0.377
3.4476	0.543
3.48659	0.681
3.52557	0.749
3.56456	0.809
3.60355	0.833
3.64254	0.847
3.68153	0.849
3.72052	0.86
3.75951	0.86
3.7985	0.862
3.83749	0.87
3.87647	0.881
3.91546	0.885
3.95445	0.886
3.99344	0.888
4.03243	0.888
4.07142	0.886
4.11041	0.885
4.1494	0.883
4.18838	0.885
4.22737	0.914
4.26636	0.932
4.30535	0.933
4.34434	0.919
4.38333	0.907
4.42232	0.909
4.46131	0.912
4.5003	0.914
4.53928	0.906
4.57827	0.907
4.61726	0.911
4.65625	0.909
4.69524	0.911
4.73423	0.911
4.77322	0.907
4.81221	0.911
4.85119	0.911
4.89018	0.909
4.92917	0.911
4.96816	0.911
5.00715	0.914
5.04614	0.909
5.08513	0.904
5.12412	0.902
5.1631	0.899
5.20209	0.901
5.24108	0.899
5.28007	0.901
5.31906	0.889
5.35805	0.881
5.39704	0.88
5.43603	0.88
5.47502	0.878
5.514	0.878
5.55299	0.88
5.59198	0.878
5.63097	0.88
5.66996	0.878
5.70895	0.88
5.74794	0.877
5.78693	0.87
5.82591	0.881
5.8649	0.88
5.90389	0.88
5.94288	0.885
5.98187	0.878
6.02086	0.872
6.05985	0.88
6.09884	0.875
6.13783	0.877
6.17681	0.881
6.2158	0.881
6.25479	0.886
6.29378	0.886
6.33277	0.889
6.37176	0.889
6.41075	0.885
6.44974	0.885
6.48872	0.877
6.52771	0.878
6.5667	0.868
6.60569	0.859
6.64468	0.836
6.68367	0.797
6.72266	0.703
6.76165	0.656
6.80063	0.59
6.83962	0.6
6.87861	0.588
6.9176	0.585
6.95659	0.668
6.99558	0.676
7.03457	0.668
7.07356	0.668
7.11255	0.621
7.15153	0.529
7.19052	0.543
7.22951	0.631
7.2685	0.658
7.30749	0.65
7.34648	0.736
7.38547	0.77
7.42446	0.781
7.46344	0.783
7.50243	0.786
7.54142	0.771
7.58041	0.736
7.6194	0.689
7.65839	0.665
7.69738	0.639
7.73637	0.601
7.77536	0.597
7.81434	0.6
7.85333	0.58
7.89232	0.504
7.93131	0.391
7.9703	0.262
8.00929	0.199
8.04828	0.19
8.08727	0.19
8.12625	0.166
8.16524	0.155
8.20423	0.182
8.24322	0.213
8.28221	0.213
8.3212	0.279
8.36019	0.36
8.39918	0.485
8.43817	0.548
8.47715	0.548
8.51614	0.495
8.55513	0.396
8.59412	0.433
8.63311	0.517
8.6721	0.563
8.71109	0.592
8.75008	0.588
8.78906	0.517
8.82805	0.449
8.86704	0.423
8.90603	0.428
8.94502	0.446
8.98401	0.446
9.023	0.377
9.06199	0.283
9.10097	0.254
9.13996	0.257
9.17895	0.271
9.21794	0.231
9.25693	0.181
9.29592	0.15
9.33491	0.118
9.3739	0.098
9.41289	0.08
9.45187	0.071
9.49086	0.069
9.52985	0.069
9.56884	0.067
9.60783	0.066
9.64682	0.055
9.68581	0.055
9.7248	0.051
9.76378	0.059
9.80277	0.097
9.84176	0.189
9.88075	0.281
9.91974	0.347
9.95873	0.411
9.99772	0.43
10.0367	0.419
10.0757	0.394
10.1147	0.322
10.1537	0.255
10.1927	0.202
10.2317	0.158
10.2706	0.132
10.3096	0.122
10.3486	0.119
10.3876	0.131
10.4266	0.137
10.4656	0.156
10.5046	0.177
10.5436	0.207
10.5825	0.226
10.6215	0.276
10.6605	0.325
10.6995	0.435
10.7385	0.503
10.7775	0.579
10.8165	0.656
10.8555	0.697
10.8945	0.741
10.9334	0.757
10.9724	0.77
11.0114	0.778
11.0504	0.783
11.0894	0.788
11.1284	0.788
11.1674	0.784
11.2064	0.784
11.2454	0.789
11.2843	0.797
11.3233	0.802
11.3623	0.805
11.4013	0.805
11.4403	0.805
11.4793	0.805
11.5183	0.802
11.5573	0.796
11.5963	0.773
11.6352	0.752
11.6742	0.745
11.7132	0.75
11.7522	0.763
11.7912	0.773
11.8302	0.765
11.8692	0.729
11.9082	0.686
11.9472	0.653
11.9861	0.632
12.0251	0.618
12.0641	0.614
12.1031	0.614
12.1421	0.626
12.1811	0.627
12.2201	0.621
12.2591	0.608
12.2981	0.598
12.337	0.588
12.376	0.584
12.415	0.571
12.454	0.542
12.493	0.519
12.532	0.493
12.571	0.466
12.61	0.457
12.649	0.454
12.6879	0.459
12.7269	0.478
12.7659	0.506
12.8049	0.545
12.8439	0.58
12.8829	0.608
12.9219	0.632
12.9609	0.64
12.9999	0.642
13.0388	0.647
13.0778	0.644
13.1168	0.627
13.1558	0.606
13.1948	0.598
13.2338	0.585
13.2728	0.579
13.3118	0.577
13.3508	0.577
13.3897	0.584
13.4287	0.598
13.4677	0.611
13.5067	0.629
13.5457	0.637
13.5847	0.652
13.6237	0.655
13.6627	0.658
13.7017	0.658
13.7406	0.656
13.7796	0.656
13.8186	0.653
13.8576	0.652
13.8966	0.653
13.9356	0.652
13.9746	0.647
14.0136	0.647
14.0526	0.648
14.0915	0.647
14.1305	0.645
14.1695	0.642
14.2085	0.64
14.2475	0.639
14.2865	0.637
14.3255	0.631
14.3645	0.629
14.4035	0.627
14.4424	0.627
14.4814	0.626
14.5204	0.622
14.5594	0.619
14.5984	0.616
14.6374	0.613
14.6764	0.61
14.7154	0.61
14.7544	0.605
14.7933	0.597
14.8323	0.592
14.8713	0.592
14.9103	0.588
14.9493	0.585
14.9883	0.585
15.0273	0.585
15.0663	0.582
15.1053	0.574
15.1442	0.563
15.1832	0.558
15.2222	0.556
15.2612	0.555
15.3002	0.553
15.3392	0.551
15.3782	0.55
15.4172	0.55
15.4562	0.55
15.4951	0.55
15.5341	0.55
15.5731	0.548
15.6121	0.548
15.6511	0.546
15.6901	0.546
15.7291	0.548
15.7681	0.548
15.8071	0.548
15.846	0.548
15.885	0.548
15.924	0.548
15.963	0.548
