Infrared Spectrum: 5-Amino-4-methoxybenzamide
Formula: C 8 H 10 N 2 O 2
CAS: 17481-27-5
State: gas
Instrument: HP-GC/MS/IRD
Origin: NIST Mass Spectrometry Data Center
1/CM	ABSORBANCE
550	0.0008112
562	0.0009396
574	0.0008208
586	0.0009732
598	0.0013944
610	0.0012864
622	0.00093
634	0.0008364
646	0.0008532
658	0.0008688
670	0.0009096
682	0.0009324
694	0.000876
706	0.0009456
718	0.0011904
730	0.0013896
742	0.0018276
754	0.0026772
766	0.0020796
778	0.0011268
790	0.0008808
802	0.000906
814	0.0008652
826	0.0006888
838	0.00054
850	0.0006264
862	0.0007008
874	0.0006708
886	0.000708
898	0.0005532
910	0.0003696
922	0.000336
934	0.0002184
946	3.36e-05
958	4.92e-05
970	0.0001536
982	0.0002148
994	0.000324
1006	0.0005652
1018	0.0011952
1030	0.0015144
1042	0.000972
1054	0.0005988
1066	0.0008676
1078	0.0010212
1090	0.0009648
1102	0.0008436
1114	0.000726
1126	0.000588
1138	0.0009264
1150	0.0015984
1162	0.0012996
1174	0.0014208
1186	0.0018228
1198	0.0018996
1210	0.0044124
1222	0.0086352
1234	0.0062172
1246	0.0020976
1258	0.0017364
1270	0.0031752
1282	0.003576
1294	0.0019548
1306	0.0016164
1318	0.00282
1330	0.005838
1342	0.0090828
1354	0.006846
1366	0.0023316
1378	0.0009792
1390	0.0006276
1402	0.0005892
1414	0.0009648
1426	0.0021144
1438	0.0032784
1450	0.0023784
1462	0.0013104
1474	0.0011076
1486	0.0011388
1498	0.0024408
1510	0.0052296
1522	0.0040404
1534	0.0014088
1546	0.0009048
1558	0.0012048
1570	0.0025896
1582	0.005844
1594	0.0063732
1606	0.0056448
1618	0.0052452
1630	0.0034308
1642	0.0015252
1654	0.0009624
1666	0.0011076
1678	0.0016764
1690	0.002214
1702	0.005088
1714	0.0118692
1726	0.0076572
1738	0.0021372
1750	0.0016056
1762	0.001002
1774	0.0004212
1786	0.0002028
1798	0.0001224
1810	9.72e-05
1822	4.92e-05
1834	4.8e-05
1846	4.8e-05
1858	5.28e-05
1870	3.36e-05
1882	2.88e-05
1894	3.72e-05
1906	3.12e-05
1918	3e-05
1930	3.6e-05
1942	3.24e-05
1954	3.48e-05
1966	4.8e-05
1978	5.52e-05
1990	4.68e-05
2002	6.48e-05
2014	8.76e-05
2026	0.000102
2038	9.72e-05
2050	6.72e-05
2062	5.88e-05
2074	5.04e-05
2086	3.12e-05
2098	2.04e-05
2110	2.28e-05
2122	1.8e-05
2134	4.8e-06
2146	3.36e-05
2158	1.32e-05
2170	1.92e-05
2182	3e-05
2194	4.8e-05
2206	3.72e-05
2218	5.16e-05
2230	3.24e-05
2242	3.84e-05
2254	5.52e-05
2266	7.68e-05
2278	6.84e-05
2290	2.52e-05
2302	7.2e-06
2314	0
2326	1.8e-05
2338	4.08e-05
2350	2.04e-05
2362	4.8e-05
2374	4.68e-05
2386	6e-06
2398	9.6e-06
2410	3.48e-05
2422	2.4e-05
2434	2.04e-05
2446	7.2e-06
2458	6e-06
2470	2.52e-05
2482	3.12e-05
2494	2.04e-05
2506	5.16e-05
2518	6e-05
2530	5.76e-05
2542	7.92e-05
2554	0.0001068
2566	9e-05
2578	5.88e-05
2590	4.68e-05
2602	6e-05
2614	5.4e-05
2626	4.56e-05
2638	7.32e-05
2650	8.76e-05
2662	8.88e-05
2674	6.48e-05
2686	7.92e-05
2698	4.68e-05
2710	2.76e-05
2722	6.12e-05
2734	4.92e-05
2746	1.44e-05
2758	6.24e-05
2770	7.92e-05
2782	0.0001104
2794	7.92e-05
2806	0.0001332
2818	0.0001608
2830	0.0003564
2842	0.000792
2854	0.00081
2866	0.0003948
2878	0.0002772
2890	0.0003012
2902	0.0004524
2914	0.0006948
2926	0.0008064
2938	0.0010524
2950	0.0014352
2962	0.0012384
2974	0.0007692
2986	0.0005532
2998	0.0008088
3010	0.0011448
3022	0.0006288
3034	0.000564
3046	0.0005556
3058	0.0005988
3070	0.0004716
3082	0.0003648
3094	0.0002712
3106	0.0002244
3118	0.00018
3130	9.96e-05
3142	0.0001224
3154	9.48e-05
3166	7.8e-05
3178	0.0001056
3190	9.36e-05
3202	0.0001032
3214	9.96e-05
3226	5.16e-05
3238	5.4e-05
3250	6.24e-05
3262	5.76e-05
3274	5.04e-05
3286	5.4e-05
3298	7.44e-05
3310	7.44e-05
3322	1.44e-05
3334	6.84e-05
3346	7.92e-05
3358	0.0001104
3370	0.0001344
3382	0.0002472
3394	0.0004788
3406	0.0010776
3418	0.0014112
3430	0.0014628
3442	0.00099
3454	0.0004476
3466	0.0003732
3478	0.000384
3490	0.0006048
3502	0.0009144
3514	0.0009228
3526	0.0006996
3538	0.0009072
3550	0.0010008
3562	0.0006192
3574	0.0003
3586	0.0002088
3598	0.0001236
3610	9.6e-05
3622	9.48e-05
3634	8.16e-05
3646	0.0001224
3658	0.0001032
3670	6.24e-05
3682	0.0001044
3694	9.96e-05
3706	0.0001212
3718	0.0001344
3730	6e-05
3742	0.0001128
3754	0.0001476
3766	7.44e-05
3778	9.24e-05
3790	9.96e-05
3802	6.96e-05
3814	0.0001368
3826	3.24e-05
3838	0.0001164
