Infrared Spectrum: (-)-N-Benzyl-.alpha.-phenethylamine
Formula: C 15 H 17 N
CAS: 17480-69-2
State: gas
Origin: EPA-IR VAPOR PHASE LIBRARY
1/CM	ABSORBANCE
549.8	0.009791
559.445	0.009311
569.09	0.009801
578.734	0.009061
588.379	0.008981
598.024	0.007871
607.669	0.008481
617.313	0.007281
626.958	0.006241
636.603	0.006551
646.248	0.007851
655.893	0.010811
665.537	0.015821
675.182	0.022251
684.827	0.034161
694.472	0.073251
704.116	0.069891
713.761	0.036801
723.406	0.030361
733.051	0.032981
742.695	0.033961
752.34	0.033501
761.985	0.033951
771.63	0.015481
781.275	0.008751
790.919	0.007341
800.564	0.006951
810.209	0.006281
819.854	0.005861
829.498	0.004471
839.143	0.003561
848.788	0.003751
858.433	0.003611
868.078	0.003971
877.722	0.003931
887.367	0.004791
897.012	0.005541
906.657	0.008031
916.301	0.005631
925.946	0.004251
935.591	0.003871
945.236	0.003311
954.88	0.002961
964.525	0.003671
974.17	0.005071
983.815	0.005981
993.46	0.005731
1003.1	0.007961
1012.75	0.009341
1022.39	0.016331
1032.04	0.013681
1041.68	0.008131
1051.33	0.008781
1060.97	0.011281
1070.62	0.011941
1080.26	0.009451
1089.91	0.011481
1099.55	0.013901
1109.2	0.020831
1118.84	0.030851
1128.49	0.033411
1138.13	0.017571
1147.78	0.011301
1157.42	0.008231
1167.07	0.007621
1176.71	0.009991
1186.36	0.010361
1196	0.014391
1205.64	0.014741
1215.29	0.010391
1224.93	0.008831
1234.58	0.007521
1244.22	0.006641
1253.87	0.006361
1263.51	0.007881
1273.16	0.009531
1282.8	0.010001
1292.45	0.012351
1302.09	0.013631
1311.74	0.012661
1321.38	0.014441
1331.03	0.012431
1340.67	0.012081
1350.32	0.014951
1359.96	0.015591
1369.61	0.017821
1379.25	0.015581
1388.9	0.007281
1398.54	0.005081
1408.18	0.004991
1417.83	0.006641
1427.47	0.010431
1437.12	0.019081
1446.76	0.031631
1456.41	0.035101
1466.05	0.027221
1475.7	0.016671
1485.34	0.017341
1494.99	0.023131
1504.63	0.009781
1514.28	0.004611
1523.92	0.003751
1533.57	0.003501
1543.21	0.002991
1552.86	0.002901
1562.5	0.002801
1572.15	0.003781
1581.79	0.005321
1591.44	0.008871
1601.08	0.011741
1610.73	0.007111
1620.37	0.003581
1630.01	0.002511
1639.66	0.002521
1649.3	0.002541
1658.95	0.002581
1668.59	0.002671
1678.24	0.002481
1687.88	0.001901
1697.53	0.002331
1707.17	0.001941
1716.82	0.002301
1726.46	0.002311
1736.11	0.002821
1745.75	0.002791
1755.4	0.002521
1765.04	0.002371
1774.69	0.002551
1784.33	0.003391
1793.98	0.005311
1803.62	0.004911
1813.27	0.003301
1822.91	0.002561
1832.55	0.002171
1842.2	0.002321
1851.84	0.002471
1861.49	0.003551
1871.13	0.004031
1880.78	0.003811
1890.42	0.002961
1900.07	0.002271
1909.71	0.001961
1919.36	0.002311
1929	0.003651
1938.65	0.004661
1948.29	0.004721
1957.94	0.003821
1967.58	0.001871
1977.23	0.0015595
1986.87	0.0011538
1996.52	0.0011972
2006.16	0.0012086
2015.81	0.0011177
2025.45	0.001221
2035.1	0.0013301
2044.74	0.0010252
2054.38	0.0010142
2064.03	0.0010948
2073.67	0.0010914
2083.32	0.0008801
2092.96	0.0012725
2102.61	0.0008602
2112.25	0.0010871
2121.9	0.0011318
2131.54	0.0009435
2141.19	0.0010504
2150.83	0.0009714
2160.48	0.0012118
2170.12	0.0010325
2179.77	0.0011456
2189.41	0.0011435
2199.06	0.0010038
2208.7	0.0011406
2218.35	0.0010017
2227.99	0.0010282
2237.64	0.0012456
2247.28	0.0010556
2256.92	0.0011148
2266.57	0.0011754
2276.21	0.00082011
2285.86	0.0009028
2295.5	0.0011259
2305.15	0.0013297
2314.79	0.0014471
2324.44	0.0014391
2334.08	0.0014521
2343.73	0.0015298
2353.37	0.0014464
2363.02	0.0012675
2372.66	0.0010984
2382.31	0.00074258
2391.95	0.0008811
2401.6	0.0011654
2411.24	0.0011684
2420.89	0.0010172
2430.53	0.0008663
2440.18	0.001223
2449.82	0.0012469
2459.47	0.0013382
2469.11	0.0011251
2478.75	0.0011845
2488.4	0.0010602
2498.04	0.0010177
2507.69	0.000937
2517.33	0.0014409
2526.98	0.0011877
2536.62	0.0011398
2546.27	0.0013535
2555.91	0.0013708
2565.56	0.001569
2575.2	0.0015945
2584.85	0.0016481
2594.49	0.001921
2604.14	0.001821
2613.78	0.001971
2623.43	0.001931
2633.07	0.002031
2642.72	0.001771
2652.36	0.002111
2662.01	0.001841
2671.65	0.002031
2681.29	0.002021
2690.94	0.002641
2700.58	0.002821
2710.23	0.002721
2719.87	0.002791
2729.52	0.003201
2739.16	0.002901
2748.81	0.003131
2758.45	0.003461
2768.1	0.004511
2777.74	0.006401
2787.39	0.008791
2797.03	0.011871
2806.68	0.014281
2816.32	0.016441
2825.97	0.018401
2835.61	0.018901
2845.26	0.018101
2854.9	0.016771
2864.55	0.016611
2874.19	0.018311
2883.84	0.018321
2893.48	0.017911
2903.12	0.017211
2912.77	0.017451
2922.41	0.021171
2932.06	0.024111
2941.7	0.018941
2951.35	0.014811
2960.99	0.022141
2970.64	0.036381
2980.28	0.034781
2989.93	0.017371
2999.57	0.010101
3009.22	0.013831
3018.86	0.023871
3028.51	0.042261
3038.15	0.037991
3047.8	0.025531
3057.44	0.029321
3067.09	0.050711
3076.73	0.043271
3086.38	0.028041
3096.02	0.018141
3105.67	0.012071
3115.31	0.007361
3124.95	0.003791
3134.6	0.002471
3144.24	0.002061
3153.89	0.001851
3163.53	0.002221
3173.18	0.0014865
3182.82	0.0016275
3192.47	0.0012704
3202.11	0.0015779
3211.76	0.0012982
3221.4	0.0009433
3231.05	0.0012778
3240.69	0.0016378
3250.34	0.00082609
3259.98	0.0010016
3269.63	0.0013263
3279.27	0.0012836
3288.92	0.0010716
3298.56	0.0010743
3308.21	0.0009949
3317.85	0.0008598
3327.49	0.0006473
3337.14	0.0007799
3346.78	0.0012256
3356.43	0.0010586
3366.07	0.0012624
3375.72	0.0010004
3385.36	0.000743196
3395.01	0.0007346
3404.65	0.0006593
3414.3	0.000979
3423.94	0.0009316
3433.59	0.00073245
3443.23	0.0010268
3452.88	0.0007062
3462.52	0.000631
3472.17	0.000612
3481.81	0.00065
3491.46	0.0012714
3501.1	0.000742658
3510.75	0.0009356
3520.39	0.00078179
3530.04	0.0012595
3539.68	0.0013019
3549.32	0.000155
3558.97	0.0009823
3568.61	0.000216
3578.26	0.0007054
3587.9	0.0010222
3597.55	0.000594
3607.19	0.0010372
3616.84	0.0013012
3626.48	0.00075329
3636.13	0.0008789
3645.77	0.0009793
3655.42	0.001881
3665.06	0.0014111
3674.71	0.0016517
3684.35	0.0013062
3694	0.0012959
3703.64	0.0008856
3713.29	0.0015359
3722.93	0.0012069
3732.58	0.001771
3742.22	0.0010058
3751.86	0.0011629
3761.51	0.000535
3771.15	0.0006756
3780.8	0.0007249
3790.44	0.0007093
3800.09	0.0011103
3809.73	0.000572
3819.38	0.000239
3829.02	0.0007039
3838.67	0.0013731
3848.31	0.000352
3857.96	0.0014572
3867.6	0.001841
3877.25	0.0013082
3886.89	0.0006813
3896.54	0.0008604
3906.18	0.0010863
3915.83	0.0017076
3925.47	0.0008633
3935.12	0.0009289
3944.76	0.000486
3954.41	0.0012246
3964.05	0.0012058
3973.69	0.0009775
3983.34	0.0011531
3992.98	0.0011161
