Infrared Spectrum: p-Dimethylaminobenzylidene p-anisole
Formula: C 16 H 18 N 2 O 3
CAS: 1749-04-8
State: gas
Origin: EPA-IR VAPOR PHASE LIBRARY
1/CM	ABSORBANCE
549.8	0.005941
559.445	0.003741
569.09	0.002521
578.734	0.001241
588.379	0.001241
598.024	0.0010326
607.669	0.0004861
617.313	0.0006361
626.958	0.0006117
636.603	0.0005388
646.248	0.0007599
655.893	0.0005044
665.537	0.0005301
675.182	0.0004321
684.827	0.000655
694.472	0.0006751
704.116	0.0009309
713.761	0.002491
723.406	0.002521
733.051	0.001691
742.695	0.001721
752.34	0.002421
761.985	0.008191
771.63	0.004801
781.275	0.002791
790.919	0.003671
800.564	0.005501
810.209	0.009161
819.854	0.014851
829.498	0.018011
839.143	0.013401
848.788	0.006931
858.433	0.003991
868.078	0.003641
877.722	0.005221
887.367	0.006731
897.012	0.003551
906.657	0.002271
916.301	0.002291
925.946	0.002821
935.591	0.006671
945.236	0.014431
954.88	0.005451
964.525	0.003921
974.17	0.003741
983.815	0.003201
993.46	0.003491
1003.1	0.004861
1012.75	0.005591
1022.39	0.007891
1032.04	0.014381
1041.68	0.018441
1051.33	0.012421
1060.97	0.007981
1070.62	0.006571
1080.26	0.005431
1089.91	0.005421
1099.55	0.006611
1109.2	0.008071
1118.84	0.008491
1128.49	0.010771
1138.13	0.014381
1147.78	0.023871
1157.42	0.043931
1167.07	0.064541
1176.71	0.065321
1186.36	0.021081
1196	0.013761
1205.64	0.012961
1215.29	0.016131
1224.93	0.024451
1234.58	0.052221
1244.22	0.066881
1253.87	0.029041
1263.51	0.018631
1273.16	0.019521
1282.8	0.021741
1292.45	0.018481
1302.09	0.015051
1311.74	0.014251
1321.38	0.014471
1331.03	0.017231
1340.67	0.028771
1350.32	0.043131
1359.96	0.031751
1369.61	0.016421
1379.25	0.009881
1388.9	0.007131
1398.54	0.006401
1408.18	0.007771
1417.83	0.010171
1427.47	0.012731
1437.12	0.012911
1446.76	0.017181
1456.41	0.012841
1466.05	0.016011
1475.7	0.017501
1485.34	0.020181
1494.99	0.042051
1504.63	0.084081
1514.28	0.062211
1523.92	0.062991
1533.57	0.030701
1543.21	0.017761
1552.86	0.018131
1562.5	0.024741
1572.15	0.015771
1581.79	0.020101
1591.44	0.037561
1601.08	0.073951
1610.73	0.089931
1620.37	0.045211
1630.01	0.041921
1639.66	0.018151
1649.3	0.010601
1658.95	0.006671
1668.59	0.004581
1678.24	0.003561
1687.88	0.002961
1697.53	0.002481
1707.17	0.002331
1716.82	0.002171
1726.46	0.002251
1736.11	0.002191
1745.75	0.002141
1755.4	0.001981
1765.04	0.001841
1774.69	0.001641
1784.33	0.001421
1793.98	0.001241
1803.62	0.001211
1813.27	0.001211
1822.91	0.001241
1832.55	0.001301
1842.2	0.001361
1851.84	0.001711
1861.49	0.001941
1871.13	0.002031
1880.78	0.002071
1890.42	0.001841
1900.07	0.001481
1909.71	0.001331
1919.36	0.001441
1929	0.001681
1938.65	0.001541
1948.29	0.001201
1957.94	0.001191
1967.58	0.0010247
1977.23	0.0009913
1986.87	0.0010829
1996.52	0.001311
2006.16	0.001611
2015.81	0.001581
2025.45	0.001261
2035.1	0.001461
2044.74	0.001661
2054.38	0.001961
2064.03	0.001971
2073.67	0.001891
2083.32	0.001531
2092.96	0.001261
2102.61	0.0009279
2112.25	0.0008128
2121.9	0.0007098
2131.54	0.0005749
2141.19	0.0005615
2150.83	0.000467
2160.48	0.0005574
2170.12	0.0005504
2179.77	0.0005237
2189.41	0.0005332
2199.06	0.0005116
2208.7	0.0005804
2218.35	0.0006461
2227.99	0.0007446
2237.64	0.0007008
2247.28	0.0006699
2256.92	0.0007607
2266.57	0.0008215
2276.21	0.0008016
2285.86	0.0008075
2295.5	0.0007475
2305.15	0.0007697
2314.79	0.0009017
2324.44	0.0008379
2334.08	0.00095
2343.73	0.0009714
2353.37	0.0010185
2363.02	0.0008557
2372.66	0.0008567
2382.31	0.0009072
2391.95	0.0008099
2401.6	0.0008239
2411.24	0.0008378
2420.89	0.0008936
2430.53	0.0008748
2440.18	0.0008972
2449.82	0.000943
2459.47	0.0009972
2469.11	0.001161
2478.75	0.001251
2488.4	0.001311
2498.04	0.001301
2507.69	0.001431
2517.33	0.001471
2526.98	0.001731
2536.62	0.001471
2546.27	0.001351
2555.91	0.001221
2565.56	0.001181
2575.2	0.001301
2584.85	0.001441
2594.49	0.001431
2604.14	0.001601
2613.78	0.001371
2623.43	0.001411
2633.07	0.001281
2642.72	0.001281
2652.36	0.001151
2662.01	0.001181
2671.65	0.001221
2681.29	0.001411
2690.94	0.001351
2700.58	0.001431
2710.23	0.001711
2719.87	0.001821
2729.52	0.001821
2739.16	0.001961
2748.81	0.002391
2758.45	0.002791
2768.1	0.003841
2777.74	0.005141
2787.39	0.007171
2797.03	0.010211
2806.68	0.013151
2816.32	0.012751
2825.97	0.012071
2835.61	0.015501
2845.26	0.020041
2854.9	0.018341
2864.55	0.016981
2874.19	0.015601
2883.84	0.014561
2893.48	0.013961
2903.12	0.014521
2912.77	0.015451
2922.41	0.015371
2932.06	0.016291
2941.7	0.019101
2951.35	0.019451
2960.99	0.016381
2970.64	0.013511
2980.28	0.012081
2989.93	0.012631
2999.57	0.014941
3009.22	0.013541
3018.86	0.008381
3028.51	0.008661
3038.15	0.009831
3047.8	0.007301
3057.44	0.005401
3067.09	0.006121
3076.73	0.007461
3086.38	0.007311
3096.02	0.006191
3105.67	0.004791
3115.31	0.003441
3124.95	0.002161
3134.6	0.001491
3144.24	0.0010467
3153.89	0.0008113
3163.53	0.0008712
3173.18	0.0006699
3182.82	0.0007175
3192.47	0.0007973
3202.11	0.0007804
3211.76	0.0009295
3221.4	0.0008678
3231.05	0.0007495
3240.69	0.0008745
3250.34	0.0008124
3259.98	0.0005372
3269.63	0.0005224
3279.27	0.0004381
3288.92	0.000368
3298.56	0.0003086
3308.21	0.00023718
3317.85	0.0002821
3327.49	0.0004267
3337.14	0.0002625
3346.78	0.00021648
3356.43	0.00020192
3366.07	0.0004029
3375.72	0.00020593
3385.36	0.00024463
3395.01	0.00019804
3404.65	0.00022509
3414.3	0.00019699
3423.94	9.89e-05
3433.59	0.0003092
3443.23	0.000157668
3452.88	0.0002898
3462.52	0.0003916
3472.17	0.00022369
3481.81	0.00024607
3491.46	0.0002738
3501.1	0.0003419
3510.75	0.0002987
3520.39	0.0003027
3530.04	0.000279
3539.68	0.0004083
3549.32	0.0003115
3558.97	0.00024651
3568.61	0.0002724
3578.26	0.0002961
3587.9	0.0002594
3597.55	0.0002601
3607.19	0.0003162
3616.84	0.0002582
3626.48	0.00023787
3636.13	0.0002891
3645.77	0.0003761
3655.42	0.0003217
3665.06	0.0003086
3674.71	0.0004396
3684.35	0.00020127
3694	0.00018349
3703.64	0.0003789
3713.29	0.0002781
3722.93	0.00019339
3732.58	0.0003994
3742.22	0.000387
3751.86	0.0003446
3761.51	0.000357
3771.15	0.0004485
3780.8	0.0003068
3790.44	0.00018318
3800.09	0.0003238
3809.73	0.0003837
3819.38	0.0004079
3829.02	0.0003732
3838.67	0.0003322
3848.31	0.0003543
3857.96	0.0003179
3867.6	0.0004133
3877.25	0.0003596
3886.89	0.0003676
3896.54	0.000293
3906.18	0.0002607
3915.83	0.0003268
3925.47	0.0003868
3935.12	0.0004398
3944.76	0.0003833
3954.41	0.0003332
3964.05	0.0005156
3973.69	0.0006804
3983.34	0.0004814
3992.98	0.0003161
