Infrared Spectrum: Thorium, tetrakis(2,4-pentanedionato)-
Formula: C20 H28 O8 Th
CAS: 17499-48-8
State: SOLID (SPLIT MULL), FLUOROLUBE FOR 3800-1330 CM^-^1, NUJOL FOR 1330-400 CM^-^1
Class: COBLENTZ III
Instrument: BECKMAN IR-9 (GRATING)
Instrument parameters: ORDER CHANGES: 670, 1200, 2000 CM^-^1
Sampling: TRANSMISSION
Resolution: 2
Origin: DOW CHEMICAL COMPANY
1/CM	TRANSMITTANCE
3800	0.7597
3791	0.76
3782	0.7605
3773	0.7608
3764	0.7615
3755	0.7624
3746	0.7632
3737	0.7641
3728	0.7649
3719	0.7657
3710	0.7665
3701	0.7672
3692	0.768
3683	0.7684
3674	0.7686
3665	0.7687
3656	0.7689
3647	0.7686
3638	0.7681
3629	0.7675
3620	0.7668
3611	0.7651
3602	0.7632
3593	0.7601
3584	0.7571
3575	0.7526
3566	0.749
3557	0.7465
3548	0.7451
3539	0.7436
3530	0.7421
3521	0.7411
3512	0.7407
3503	0.7401
3494	0.7396
3485	0.7391
3476	0.739
3467	0.739
3458	0.739
3449	0.7389
3440	0.7387
3431	0.7382
3422	0.7378
3413	0.7378
3404	0.7383
3395	0.7389
3386	0.7405
3377	0.7421
3368	0.744
3359	0.7457
3350	0.7475
3341	0.7493
3332	0.7511
3323	0.7528
3314	0.7535
3305	0.7536
3296	0.7538
3287	0.7539
3278	0.7541
3269	0.7543
3260	0.7546
3251	0.7548
3242	0.7554
3233	0.7564
3224	0.7574
3215	0.7582
3206	0.7586
3197	0.7599
3188	0.7615
3179	0.7632
3170	0.7651
3161	0.7671
3152	0.769
3143	0.7706
3134	0.7715
3125	0.7719
3116	0.7707
3107	0.7683
3098	0.7669
3089	0.7668
3080	0.7689
3071	0.7719
3062	0.7738
3053	0.7744
3044	0.7725
3035	0.7681
3026	0.7612
3017	0.7554
3008	0.7503
2999	0.7485
2990	0.7518
2981	0.7532
2972	0.7491
2963	0.746
2954	0.7496
2945	0.7514
2936	0.7378
2927	0.7246
2918	0.7333
2909	0.7628
2900	0.7795
2891	0.7874
2882	0.7921
2873	0.7934
2864	0.7938
2855	0.7953
2846	0.7976
2837	0.8006
2828	0.8037
2819	0.8078
2810	0.8096
2801	0.8108
2792	0.8134
2783	0.8157
2774	0.8178
2765	0.8198
2756	0.8214
2747	0.8224
2738	0.8235
2729	0.8246
2720	0.8257
2711	0.8267
2702	0.8278
2693	0.8289
2684	0.8301
2675	0.8313
2666	0.8325
2657	0.8336
2648	0.8347
2639	0.8358
2630	0.8368
2621	0.838
2612	0.8392
2603	0.8402
2594	0.841
2585	0.8417
2576	0.8425
2567	0.8433
2558	0.8442
2549	0.8449
2540	0.8424
2531	0.8398
2522	0.839
2513	0.8381
2504	0.8373
2495	0.8366
2486	0.8359
2477	0.8347
2468	0.8335
2459	0.8356
2450	0.8368
2441	0.8375
2432	0.8373
2423	0.8371
2414	0.8371
2405	0.8368
2396	0.8366
2387	0.8351
2378	0.8339
2369	0.8325
2360	0.8313
2351	0.8312
2342	0.8311
2333	0.8309
2324	0.8306
2315	0.8301
2306	0.8297
2297	0.8304
2288	0.8313
2279	0.8346
2270	0.8408
2261	0.8464
2252	0.8504
2243	0.8553
2234	0.8616
2225	0.8668
2216	0.8702
2207	0.8711
2198	0.8711
2189	0.8709
2180	0.8721
2171	0.8754
2162	0.8792
2153	0.8823
2144	0.8828
2135	0.8818
2126	0.8818
2117	0.8816
2108	0.8832
2099	0.886
2090	0.8887
2081	0.8908
2072	0.8928
2063	0.8951
2054	0.8973
2045	0.8989
2036	0.8994
2027	0.8997
2018	0.8997
2009	0.8982
2000	0.8913
1991	0.8945
1982	0.8955
1973	0.8948
1964	0.8924
1955	0.8903
1946	0.8898
1937	0.8901
1928	0.8914
1919	0.8928
1910	0.8954
1901	0.8975
1892	0.8984
1883	0.8981
1874	0.8977
1865	0.8968
1856	0.8984
1847	0.9002
1838	0.9021
1829	0.9041
1820	0.9047
1811	0.9032
1802	0.8993
1793	0.8973
1784	0.8961
1775	0.8961
1766	0.8963
1757	0.8968
1748	0.8983
1739	0.8973
1730	0.8908
1721	0.8814
1712	0.8878
1703	0.8861
1694	0.8844
1685	0.8633
1676	0.8405
1667	0.8312
1658	0.8282
1649	0.8087
1640	0.7856
1631	0.7371
1622	0.6396
1613	0.5082
1604	0.2399
1595	0.0887
1586	0.0469
1577	0.0598
1568	0.1716
1559	0.2895
1550	0.295
1541	0.2104
1532	0.0673
1523	0.0328
1514	0.1713
1505	0.4389
1496	0.5537
1487	0.6042
1478	0.604
1469	0.5578
1460	0.4606
1451	0.3445
1442	0.343
1433	0.3289
1424	0.291
1415	0.2242
1406	0.1681
1397	0.1541
1388	0.1795
1379	0.2374
1370	0.3027
1361	0.3394
1352	0.3932
1343	0.4638
1334	0.5237
1325	0.5482
1316	0.5717
1307	0.5912
1298	0.6073
1289	0.6143
1280	0.5866
1271	0.3185
1262	0.3234
1253	0.611
1244	0.6828
1235	0.7081
1226	0.7178
1217	0.7228
1208	0.7176
1199	0.6739
1190	0.6551
1181	0.7061
1172	0.7198
1163	0.728
1154	0.7328
1145	0.7372
1136	0.7407
1127	0.7421
1118	0.7424
1109	0.7401
1100	0.7378
1091	0.7341
1082	0.729
1073	0.7215
1064	0.7125
1055	0.7035
1046	0.6819
1037	0.6314
1028	0.4148
1019	0.2467
1010	0.4314
1001	0.623
992	0.6895
983	0.7164
974	0.7278
965	0.7297
956	0.7232
947	0.6546
938	0.6717
929	0.5004
920	0.3597
911	0.6686
902	0.716
893	0.734
884	0.7451
875	0.7511
866	0.7561
857	0.7581
848	0.7571
839	0.7562
830	0.7504
821	0.7351
812	0.7001
803	0.6674
794	0.6379
785	0.6742
776	0.6931
767	0.5525
758	0.7164
749	0.7401
740	0.7361
731	0.7211
722	0.7071
713	0.735
704	0.7574
695	0.7597
686	0.7528
677	0.7446
668	0.7211
659	0.5469
650	0.5492
641	0.6596
632	0.7341
623	0.7641
614	0.7749
605	0.7789
596	0.7798
587	0.7808
578	0.7808
569	0.7768
560	0.7683
551	0.7654
542	0.7601
533	0.7401
524	0.5592
515	0.7195
506	0.7408
497	0.7383
488	0.7325
479	0.7182
470	0.699
461	0.6738
452	0.6364
443	0.5887
434	0.5285
425	0.4778
416	0.3125
407	0.2708
