Infrared Spectrum: Spiro(cyclopropane-1,6'-b-norandrost(4')en)-3'-one, 17'b-hydroxy-17-methyl-
Formula: C21 H30 O2
CAS: 17506-52-4
State: SOLID (OIL MULL)
Class: COBLENTZ III
Instrument: PERKIN-ELMER 21 (GRATING)
Instrument parameters: NaCl PRISM
Sampling: TRANSMISSION
Resolution: 2
Origin: SMITH KLINE & FRENCH LABS.
1/CM	TRANSMITTANCE
664	0.7037
673	0.7329
682	0.6088
691	0.7953
700	0.8114
709	0.8192
718	0.8013
727	0.8182
736	0.8223
745	0.7377
754	0.8633
763	0.824
772	0.5798
781	0.7848
790	0.7278
799	0.8449
808	0.9015
817	0.8992
826	0.8665
835	0.8321
844	0.4549
853	0.3445
862	0.8075
871	0.7525
880	0.7565
889	0.7629
898	0.7435
907	0.7506
916	0.8142
925	0.7132
934	0.5765
943	0.6101
952	0.7237
961	0.5082
970	0.6085
979	0.6619
988	0.575
997	0.636
1006	0.3372
1015	0.7551
1024	0.7034
1033	0.691
1042	0.4629
1051	0.3925
1060	0.4959
1069	0.703
1078	0.7224
1087	0.4875
1096	0.5579
1105	0.72
1114	0.6318
1123	0.7167
1132	0.6807
1141	0.7128
1150	0.6153
1159	0.3721
1168	0.3453
1177	0.5058
1186	0.6958
1195	0.6492
1204	0.5046
1213	0.1532
1222	0.4454
1231	0.7015
1240	0.5151
1249	0.6256
1258	0.3452
1267	0.5969
1276	0.5611
1285	0.5909
1294	0.5791
1303	0.5601
1312	0.3453
1321	0.4953
1330	0.3831
1339	0.4382
1348	0.4742
1357	0.5611
1366	0.3434
1375	0.2388
1384	0.5307
1393	0.6461
1402	0.7161
1411	0.5538
1420	0.5168
1429	0.6479
1438	0.4243
1447	0.2681
1456	0.1548
1465	0.2307
1474	0.4646
1483	0.663
1492	0.8001
1501	0.8351
1510	0.8488
1519	0.8466
1528	0.8355
1537	0.835
1546	0.8397
1555	0.8276
1564	0.8055
1573	0.7562
1582	0.7284
1591	0.6787
1600	0.6374
1609	0.3611
1618	0.1054
1627	0.0906
1636	0.067
1645	0.0224
1654	0.1904
1663	0.4116
1672	0.5517
1681	0.6842
1690	0.7735
1699	0.8307
1708	0.8614
1717	0.8767
1726	0.8776
1735	0.8762
1744	0.901
1753	0.924
1762	0.9291
1771	0.9304
1780	0.9322
1789	0.9347
1798	0.9371
1807	0.9391
1816	0.9415
1825	0.9437
1834	0.9437
1843	0.9435
1852	0.9428
1861	0.9416
1870	0.94
1879	0.9402
1888	0.941
1897	0.943
1906	0.9467
1915	0.9482
1924	0.9479
1933	0.9473
1942	0.9465
1951	0.9457
1960	0.945
1969	0.9433
1978	0.941
1987	0.9409
1996	0.9444
2005	0.9461
2014	0.946
2023	0.9455
2032	0.9441
2041	0.9435
2050	0.9438
2059	0.9445
2068	0.9455
2077	0.9465
2086	0.9478
2095	0.9498
2104	0.953
2113	0.9532
2122	0.9532
2131	0.9529
2140	0.9524
2149	0.9519
2158	0.9513
2167	0.9508
2176	0.9502
2185	0.948
2194	0.9449
2203	0.9431
2212	0.943
2221	0.9429
2230	0.9426
2239	0.942
2248	0.9414
2257	0.9408
2266	0.9405
2275	0.9402
2284	0.94
2293	0.9397
2302	0.9394
2311	0.9391
2320	0.9388
2329	0.9385
2338	0.9382
2347	0.9375
2356	0.9367
2365	0.936
2374	0.9353
2383	0.9338
2392	0.9302
2401	0.9265
2410	0.9233
2419	0.9203
2428	0.9175
2437	0.9173
2446	0.9174
2455	0.9177
2464	0.9192
2473	0.9206
2482	0.9202
2491	0.9177
2500	0.9141
2509	0.9103
2518	0.9065
2527	0.902
2536	0.8973
2545	0.8926
2554	0.888
2563	0.8826
2572	0.8771
2581	0.8715
2590	0.8657
2599	0.8597
2608	0.8536
2617	0.8476
2626	0.8411
2635	0.8383
2644	0.8398
2653	0.8434
2662	0.8453
2671	0.8458
2680	0.8415
2689	0.8347
2698	0.829
2707	0.8296
2716	0.8348
2725	0.8386
2734	0.8372
2743	0.8271
2752	0.8006
2761	0.7738
2770	0.7366
2779	0.6512
2788	0.5111
2797	0.384
2806	0.2578
2815	0.1324
2824	0.0762
2833	0.0467
2842	0.0451
2851	0.0574
2860	0.0561
2869	0.0508
2878	0.0357
2887	0.0219
2896	0.0096
2905	0.0079
2914	0.0089
2923	0.0162
2932	0.0787
2941	0.1459
2950	0.2128
2959	0.2792
2968	0.3452
2977	0.4109
2986	0.4761
2995	0.541
3004	0.6054
3013	0.6695
3022	0.7332
3031	0.7924
3040	0.7962
3049	0.7946
3058	0.7869
3067	0.779
3076	0.7777
3085	0.7901
3094	0.8186
3103	0.8371
3112	0.8385
3121	0.8387
3130	0.8377
3139	0.8362
3148	0.8332
3157	0.83
3166	0.8255
3175	0.8209
3184	0.8156
3193	0.8093
3202	0.8028
3211	0.7961
3220	0.7892
3229	0.7785
3238	0.7672
3247	0.7507
3256	0.732
3265	0.7132
3274	0.694
3283	0.6771
3292	0.6487
3301	0.6265
3310	0.5982
3319	0.5645
3328	0.5304
3337	0.4981
3346	0.4375
3355	0.3717
3364	0.3063
3373	0.2412
3382	0.1764
3391	0.1197
3400	0.1102
3409	0.1096
3418	0.1226
3427	0.1755
3436	0.2314
3445	0.2872
3454	0.3426
3463	0.3979
3472	0.4527
3481	0.5073
3490	0.5616
3499	0.6157
3508	0.6694
3517	0.7229
3526	0.7713
3535	0.7945
3544	0.8131
3553	0.8392
3562	0.86
3571	0.8741
3580	0.8832
3589	0.8915
3598	0.8957
3607	0.8988
3616	0.9017
3625	0.9028
3634	0.9035
3643	0.9041
3652	0.9042
3661	0.9043
3670	0.9043
3679	0.9043
3688	0.9036
3697	0.9029
3706	0.9022
3715	0.9014
3724	0.8999
3733	0.8985
3742	0.897
3751	0.8956
3760	0.8941
3769	0.8926
3778	0.8911
3787	0.8892
3796	0.8871
3805	0.885
3814	0.8828
3823	0.8806
3832	0.8783
3841	0.8761
3850	0.8742
3859	0.8725
3868	0.8708
3877	0.8692
3886	0.8678
3895	0.8665
3904	0.8653
3913	0.8641
3922	0.8627
3931	0.8615
3940	0.8597
3949	0.8578
3958	0.8559
3967	0.8539
3976	0.852
3985	0.8501
3994	0.8482
