Infrared Spectrum: TETRAKIS(2,4-PENTANEDIONATO) ZIRCONIUM
Formula: C20 H28 O8 Zr
CAS: 17501-44-9
State: SOLID (KBr WAFER)
Melting point: 171-173 C
Class: COBLENTZ
Instrument: BECKMAN IR-4 (HYBRID PRISM-GRATING)
Sampling: TRANSMISSION
Resolution: 4
Origin: MAC KENZIE CHEMICAL WORKS, INC., LONG ISLAND, NEW YORK
MICROMETERS	TRANSMITTANCE
2.025	0.889
2.05999	0.891
2.09497	0.902
2.12996	0.901
2.16495	0.906
2.19993	0.916
2.23492	0.921
2.26991	0.929
2.30489	0.922
2.33988	0.929
2.37487	0.932
2.40985	0.937
2.44484	0.946
2.47982	0.948
2.51481	0.948
2.5498	0.948
2.58478	0.948
2.61977	0.945
2.65476	0.941
2.68974	0.931
2.72473	0.927
2.75972	0.921
2.7947	0.919
2.82969	0.911
2.86468	0.906
2.89966	0.902
2.93465	0.902
2.96964	0.909
3.00462	0.919
3.03961	0.919
3.0746	0.916
3.10958	0.919
3.14457	0.926
3.17956	0.925
3.21454	0.917
3.24953	0.921
3.28452	0.907
3.3195	0.897
3.35449	0.891
3.38948	0.892
3.42446	0.891
3.45945	0.909
3.49443	0.921
3.52942	0.933
3.56441	0.938
3.59939	0.927
3.63438	0.922
3.66937	0.927
3.70435	0.924
3.73934	0.921
3.77433	0.927
3.80931	0.929
3.8443	0.929
3.87929	0.929
3.91427	0.93
3.94926	0.927
3.98425	0.911
4.01923	0.906
4.05422	0.91
4.08921	0.911
4.12419	0.909
4.15918	0.906
4.19417	0.907
4.22915	0.91
4.26414	0.907
4.29913	0.906
4.33411	0.91
4.3691	0.909
4.40408	0.912
4.43907	0.917
4.47406	0.912
4.50904	0.91
4.54403	0.909
4.57902	0.912
4.614	0.917
4.64899	0.917
4.68398	0.917
4.71896	0.917
4.75395	0.919
4.78894	0.917
4.82392	0.917
4.85891	0.917
4.8939	0.92
4.92888	0.911
4.96387	0.904
4.99886	0.905
5.03384	0.901
5.06883	0.902
5.10382	0.907
5.1388	0.907
5.17379	0.906
5.20877	0.911
5.24376	0.909
5.27875	0.909
5.31373	0.914
5.34872	0.914
5.38371	0.902
5.41869	0.891
5.45368	0.891
5.48867	0.889
5.52365	0.889
5.55864	0.889
5.59363	0.885
5.62861	0.879
5.6636	0.874
5.69859	0.866
5.73357	0.856
5.76856	0.853
5.80355	0.849
5.83853	0.845
5.87352	0.845
5.90851	0.856
5.94349	0.843
5.97848	0.821
6.01347	0.809
6.04845	0.768
6.08344	0.728
6.11843	0.683
6.15341	0.617
6.1884	0.457
6.22338	0.341
6.25837	0.184
6.29336	0.17
6.32834	0.3
6.36333	0.521
6.39832	0.608
6.4333	0.618
6.46829	0.589
6.50328	0.272
6.53826	0.207
6.57325	0.424
6.60824	0.58
6.64322	0.769
6.67821	0.777
6.7132	0.8
6.74818	0.789
6.78317	0.744
6.81816	0.704
6.85314	0.683
6.88813	0.683
6.92312	0.671
6.9581	0.653
6.99309	0.63
7.02807	0.591
7.06306	0.581
7.09805	0.56
7.13303	0.576
7.16802	0.608
7.20301	0.621
7.23799	0.643
7.27298	0.653
7.30797	0.661
7.34295	0.673
7.37794	0.655
7.41293	0.753
7.44791	0.828
7.4829	0.869
7.51789	0.879
7.55287	0.884
7.58786	0.887
7.62285	0.89
7.65783	0.889
7.69282	0.882
7.72781	0.869
7.76279	0.79
7.79778	0.733
7.83277	0.702
7.86775	0.803
7.90274	0.882
7.93773	0.896
7.97271	0.922
8.0077	0.927
8.04268	0.927
8.07767	0.93
8.11266	0.932
8.14764	0.933
8.18263	0.933
8.21762	0.93
8.2526	0.927
8.28759	0.926
8.32258	0.927
8.35756	0.924
8.39255	0.902
8.42754	0.88
8.46252	0.892
8.49751	0.912
8.5325	0.927
8.56748	0.927
8.60247	0.925
8.63746	0.927
8.67244	0.924
8.70743	0.92
8.74242	0.922
8.7774	0.92
8.81239	0.919
8.84737	0.921
8.88236	0.924
8.91735	0.925
8.95233	0.927
8.98732	0.929
9.02231	0.921
9.05729	0.919
9.09228	0.919
9.12727	0.92
9.16225	0.921
9.19724	0.919
9.23223	0.922
9.26721	0.93
9.3022	0.925
9.33719	0.92
9.37217	0.917
9.40716	0.919
9.44215	0.917
9.47713	0.917
9.51212	0.91
9.54711	0.911
9.58209	0.9
9.61708	0.887
9.65207	0.87
9.68705	0.825
9.72204	0.769
9.75702	0.707
9.79201	0.713
9.827	0.749
9.86198	0.783
9.89697	0.818
9.93196	0.858
9.96694	0.879
10.0019	0.894
10.0369	0.92
10.0719	0.925
10.1069	0.927
10.1419	0.929
10.1769	0.929
10.2119	0.929
10.2468	0.929
10.2818	0.927
10.3168	0.927
10.3518	0.922
10.3868	0.921
10.4218	0.919
10.4568	0.912
10.4917	0.907
10.5267	0.901
10.5617	0.897
10.5967	0.892
10.6317	0.884
10.6667	0.871
10.7017	0.839
10.7366	0.774
10.7716	0.801
10.8066	0.849
10.8416	0.869
10.8766	0.889
10.9116	0.897
10.9466	0.906
10.9816	0.915
11.0165	0.919
11.0515	0.92
11.0865	0.92
11.1215	0.922
11.1565	0.924
11.1915	0.926
11.2265	0.927
11.2614	0.925
11.2964	0.919
11.3314	0.922
11.3664	0.921
11.4014	0.926
11.4364	0.919
11.4714	0.917
11.5064	0.922
11.5413	0.929
11.5763	0.929
11.6113	0.927
11.6463	0.929
11.6813	0.929
11.7163	0.929
11.7513	0.929
11.7862	0.93
11.8212	0.927
11.8562	0.929
11.8912	0.925
11.9262	0.927
11.9612	0.929
11.9962	0.931
12.0312	0.93
12.0661	0.927
12.1011	0.927
12.1361	0.93
12.1711	0.93
12.2061	0.924
12.2411	0.92
12.2761	0.925
12.311	0.927
12.346	0.929
12.381	0.926
12.416	0.927
12.451	0.925
12.486	0.919
12.521	0.917
12.5559	0.917
12.5909	0.917
12.6259	0.916
12.6609	0.916
12.6959	0.916
12.7309	0.914
12.7659	0.906
12.8009	0.902
12.8358	0.877
12.8708	0.864
12.9058	0.825
12.9408	0.803
12.9758	0.867
13.0108	0.891
13.0458	0.897
13.0807	0.899
13.1157	0.895
13.1507	0.884
13.1857	0.856
13.2207	0.844
13.2557	0.889
13.2907	0.919
13.3257	0.927
13.3606	0.945
13.3956	0.947
13.4306	0.947
13.4656	0.947
13.5006	0.948
13.5356	0.95
13.5706	0.946
13.6055	0.948
13.6405	0.946
13.6755	0.94
13.7105	0.945
13.7455	0.937
13.7805	0.935
13.8155	0.933
13.8505	0.935
13.8854	0.943
13.9204	0.94
13.9554	0.936
13.9904	0.931
14.0254	0.924
14.0604	0.921
14.0954	0.921
14.1303	0.924
14.1653	0.924
14.2003	0.925
14.2353	0.924
14.2703	0.926
14.3053	0.925
14.3403	0.922
14.3752	0.921
14.4102	0.921
14.4452	0.922
14.4802	0.926
14.5152	0.926
14.5502	0.927
14.5852	0.93
14.6202	0.927
14.6551	0.919
14.6901	0.916
14.7251	0.915
14.7601	0.916
14.7951	0.92
14.8301	0.917
14.8651	0.916
14.9	0.914
14.935	0.916
14.97	0.924
15.005	0.932
