Infrared Spectrum: 10,15-DIHYDRO-5H-DIINDENO-[2,1-a;1',2'-c]FLUORENE
Formula: C27 H18
CAS: 17509-71-6
State: SOLID (KBr PELLET)
Melting point: 223.5-224.5 C
Class: COBLENTZ
Instrument: Not specified, most likely a prism, grating, or hybrid spectrometer.
Sampling: TRANSMISSION
Resolution: 4
Origin: UNION CARBIDE CORPORATION (CARBON PRODUCTS DIVISION)
MICROMETERS	TRANSMITTANCE
2.027	0.452
2.06023	0.474
2.09346	0.482
2.12669	0.492
2.15992	0.492
2.19315	0.495
2.22638	0.503
2.25961	0.509
2.29285	0.513
2.32608	0.517
2.35931	0.52
2.39254	0.52
2.42577	0.521
2.459	0.521
2.49223	0.528
2.52546	0.532
2.55869	0.531
2.59192	0.533
2.62515	0.541
2.65838	0.544
2.69161	0.543
2.72484	0.544
2.75807	0.544
2.79131	0.547
2.82454	0.549
2.85777	0.545
2.891	0.547
2.92423	0.547
2.95746	0.551
2.99069	0.551
3.02392	0.551
3.05715	0.548
3.09038	0.551
3.12361	0.552
3.15684	0.552
3.19007	0.552
3.2233	0.552
3.25653	0.5
3.28977	0.435
3.323	0.392
3.35623	0.404
3.38946	0.444
3.42269	0.492
3.45592	0.495
3.48915	0.464
3.52238	0.474
3.55561	0.512
3.58884	0.521
3.62207	0.528
3.6553	0.537
3.68853	0.548
3.72176	0.557
3.75499	0.565
3.78823	0.568
3.82146	0.571
3.85469	0.572
3.88792	0.575
3.92115	0.577
3.95438	0.583
3.98761	0.585
4.02084	0.587
4.05407	0.591
4.0873	0.597
4.12053	0.603
4.15376	0.612
4.18699	0.612
4.22022	0.612
4.25345	0.612
4.28669	0.612
4.31992	0.612
4.35315	0.623
4.38638	0.623
4.41961	0.632
4.45284	0.632
4.48607	0.632
4.5193	0.635
4.55253	0.639
4.58576	0.641
4.61899	0.648
4.65222	0.656
4.68545	0.663
4.71868	0.667
4.75192	0.672
4.78515	0.675
4.81838	0.68
4.85161	0.683
4.88484	0.684
4.91807	0.687
4.9513	0.688
4.98453	0.688
5.01776	0.688
5.05099	0.692
5.08422	0.692
5.11745	0.692
5.15068	0.661
5.18391	0.652
5.21714	0.653
5.25038	0.664
5.28361	0.673
5.31684	0.672
5.35007	0.673
5.3833	0.683
5.41653	0.689
5.44976	0.683
5.48299	0.683
5.51622	0.681
5.54945	0.683
5.58268	0.683
5.61591	0.683
5.64914	0.683
5.68237	0.683
5.7156	0.683
5.74884	0.681
5.78207	0.633
5.8153	0.605
5.84853	0.557
5.88176	0.595
5.91499	0.612
5.94822	0.635
5.98145	0.663
6.01468	0.665
6.04791	0.668
6.08114	0.681
6.11437	0.676
6.1476	0.644
6.18083	0.584
6.21406	0.536
6.2473	0.591
6.28053	0.633
6.31376	0.613
6.34699	0.616
6.38022	0.66
6.41345	0.676
6.44668	0.697
6.47991	0.705
6.51314	0.713
6.54637	0.72
6.5796	0.725
6.61283	0.733
6.64606	0.743
6.67929	0.743
6.71252	0.743
6.74576	0.707
6.77899	0.414
6.81222	0.438
6.84545	0.442
6.87868	0.459
6.91191	0.633
6.94514	0.664
6.97837	0.681
7.0116	0.685
7.04483	0.584
7.07806	0.548
7.11129	0.521
7.14452	0.498
7.17775	0.286
7.21098	0.492
7.24422	0.541
7.27745	0.551
7.31068	0.621
7.34391	0.667
7.37714	0.687
7.41037	0.692
7.4436	0.692
7.47683	0.701
7.51006	0.708
7.54329	0.712
7.57652	0.632
7.60975	0.597
7.64298	0.675
7.67621	0.697
7.70944	0.701
7.74268	0.703
7.77591	0.703
7.80914	0.693
7.84237	0.693
7.8756	0.709
7.90883	0.72
7.94206	0.737
7.97529	0.748
8.00852	0.752
8.04175	0.752
8.07498	0.753
8.10821	0.753
8.14144	0.753
8.17467	0.676
8.2079	0.607
8.24114	0.663
8.27437	0.7
8.3076	0.703
8.34083	0.703
8.37406	0.708
8.40729	0.723
8.44052	0.74
8.47375	0.753
8.50698	0.753
8.54021	0.753
8.57344	0.703
8.60667	0.601
8.6399	0.664
8.67313	0.669
8.70636	0.699
8.7396	0.743
8.77283	0.753
8.80606	0.744
8.83929	0.721
8.87252	0.733
8.90575	0.76
8.93898	0.781
8.97221	0.788
9.00544	0.789
9.03867	0.788
9.0719	0.774
9.10513	0.739
9.13836	0.749
9.17159	0.772
9.20482	0.792
9.23806	0.798
9.27129	0.804
9.30452	0.808
9.33775	0.814
9.37098	0.822
9.40421	0.83
9.43744	0.832
9.47067	0.833
9.5039	0.833
9.53713	0.829
9.57036	0.822
9.60359	0.802
9.63682	0.802
9.67005	0.802
9.70328	0.792
9.73652	0.537
9.76975	0.687
9.80298	0.747
9.83621	0.773
9.86944	0.782
9.90267	0.773
9.9359	0.772
9.96913	0.78
10.0024	0.792
10.0356	0.778
10.0688	0.772
10.1021	0.785
10.1353	0.792
10.1685	0.792
10.2017	0.794
10.235	0.802
10.2682	0.808
10.3014	0.809
10.3347	0.809
10.3679	0.813
10.4011	0.825
10.4344	0.834
10.4676	0.836
10.5008	0.834
10.5341	0.801
10.5673	0.743
10.6005	0.668
10.6337	0.616
10.667	0.696
10.7002	0.768
10.7334	0.81
10.7667	0.824
10.7999	0.829
10.8331	0.832
10.8664	0.829
10.8996	0.801
10.9328	0.796
10.9661	0.801
10.9993	0.809
11.0325	0.821
11.0657	0.828
11.099	0.833
11.1322	0.837
11.1654	0.84
11.1987	0.841
11.2319	0.841
11.2651	0.841
11.2984	0.841
11.3316	0.841
11.3648	0.841
11.398	0.841
11.4313	0.841
11.4645	0.841
11.4977	0.838
11.531	0.836
11.5642	0.833
11.5974	0.828
11.6307	0.79
11.6639	0.761
11.6971	0.744
11.7304	0.727
11.7636	0.748
11.7968	0.765
11.83	0.788
11.8633	0.808
11.8965	0.826
11.9297	0.833
11.963	0.841
11.9962	0.841
12.0294	0.841
12.0627	0.841
12.0959	0.841
12.1291	0.845
12.1624	0.848
12.1956	0.85
12.2288	0.852
12.262	0.852
12.2953	0.852
12.3285	0.852
12.3617	0.852
12.395	0.852
12.4282	0.857
12.4614	0.86
12.4947	0.86
12.5279	0.86
12.5611	0.86
12.5944	0.857
12.6276	0.857
12.6608	0.854
12.694	0.849
12.7273	0.824
12.7605	0.809
12.7937	0.812
12.827	0.745
12.8602	0.576
12.8934	0.368
12.9267	0.435
12.9599	0.615
12.9931	0.601
13.0264	0.507
13.0596	0.462
13.0928	0.46
13.126	0.432
13.1593	0.33
13.1925	0.247
13.2257	0.23
13.259	0.282
13.2922	0.364
13.3254	0.422
13.3587	0.482
13.3919	0.503
13.4251	0.484
13.4584	0.37
13.4916	0.298
13.5248	0.153
13.558	0.067
13.5913	0.047
13.6245	0.039
13.6577	0.057
13.691	0.107
13.7242	0.227
13.7574	0.306
13.7907	0.35
13.8239	0.356
13.8571	0.314
13.8903	0.271
13.9236	0.266
13.9568	0.264
13.99	0.267
14.0233	0.275
14.0565	0.306
14.0897	0.394
14.123	0.507
14.1562	0.575
14.1894	0.621
14.2227	0.647
14.2559	0.659
14.2891	0.66
14.3223	0.672
14.3556	0.677
14.3888	0.677
14.422	0.673
14.4553	0.655
14.4885	0.651
14.5217	0.656
14.555	0.671
14.5882	0.68
14.6214	0.683
14.6547	0.685
14.6879	0.685
14.7211	0.685
14.7543	0.688
14.7876	0.688
14.8208	0.688
14.854	0.681
14.8873	0.681
14.9205	0.672
14.9537	0.66
14.987	0.612
