Infrared Spectrum: 3-[3,5-Bis(trifluoromethyl)phenyl]acrylonitrile
Formula: C 11 H 5 F 6 N
CAS: 175136-63-7
State: gas
Origin: EPA-IR VAPOR PHASE LIBRARY
1/CM	ABSORBANCE
549.8	0.001512
559.445	0.0007769
569.09	0.0011037
578.734	0.001302
588.379	0.0007436
598.024	0.001872
607.669	0.004372
617.313	0.003742
626.958	0.004252
636.603	0.007162
646.248	0.024332
655.893	0.016412
665.537	0.010062
675.182	0.023612
684.827	0.105602
694.472	0.033052
704.116	0.034632
713.761	0.007372
723.406	0.003552
733.051	0.008052
742.695	0.007462
752.34	0.002072
761.985	0.001412
771.63	0.001134
781.275	0.001562
790.919	0.002142
800.564	0.002252
810.209	0.004362
819.854	0.009292
829.498	0.015702
839.143	0.027452
848.788	0.032232
858.433	0.010232
868.078	0.005782
877.722	0.006962
887.367	0.013872
897.012	0.043402
906.657	0.029702
916.301	0.020442
925.946	0.013782
935.591	0.039102
945.236	0.032802
954.88	0.049372
964.525	0.050212
974.17	0.013372
983.815	0.008872
993.46	0.008972
1003.1	0.011262
1012.75	0.007332
1022.39	0.005212
1032.04	0.006582
1041.68	0.005582
1051.33	0.005372
1060.97	0.005652
1070.62	0.006732
1080.26	0.008812
1089.91	0.011062
1099.55	0.026882
1109.2	0.057272
1118.84	0.037012
1128.49	0.037942
1138.13	0.086752
1147.78	0.316052
1157.42	0.778812
1167.07	0.350092
1176.71	0.312172
1186.36	0.629622
1196	0.407732
1205.64	0.099112
1215.29	0.058872
1224.93	0.046132
1234.58	0.036852
1244.22	0.047442
1253.87	0.075072
1263.51	0.138872
1273.16	0.493462
1282.8	0.806302
1292.45	0.163052
1302.09	0.048052
1311.74	0.031602
1321.38	0.021902
1331.03	0.016462
1340.67	0.019972
1350.32	0.034842
1359.96	0.066842
1369.61	0.169812
1379.25	0.211252
1388.9	0.046862
1398.54	0.015062
1408.18	0.008152
1417.83	0.007552
1427.47	0.006742
1437.12	0.005552
1446.76	0.008032
1456.41	0.013162
1466.05	0.013862
1475.7	0.005372
1485.34	0.003132
1494.99	0.003042
1504.63	0.003332
1514.28	0.003422
1523.92	0.003152
1533.57	0.002462
1543.21	0.002222
1552.86	0.002632
1562.5	0.002932
1572.15	0.002592
1581.79	0.002402
1591.44	0.002642
1601.08	0.004342
1610.73	0.007082
1620.37	0.008602
1630.01	0.010972
1639.66	0.005322
1649.3	0.003832
1658.95	0.003122
1668.59	0.002062
1678.24	0.001682
1687.88	0.001672
1697.53	0.001602
1707.17	0.001552
1716.82	0.001792
1726.46	0.001962
1736.11	0.002452
1745.75	0.002752
1755.4	0.002422
1765.04	0.002752
1774.69	0.004032
1784.33	0.005502
1793.98	0.004302
1803.62	0.006682
1813.27	0.009442
1822.91	0.008082
1832.55	0.005692
1842.2	0.002132
1851.84	0.001512
1861.49	0.0012162
1871.13	0.0011748
1880.78	0.001302
1890.42	0.001712
1900.07	0.001462
1909.71	0.001332
1919.36	0.001572
1929	0.001422
1938.65	0.0010709
1948.29	0.0010287
1957.94	0.0009204
1967.58	0.0006771
1977.23	0.0007321
1986.87	0.0011237
1996.52	0.001422
2006.16	0.001422
2015.81	0.001722
2025.45	0.001542
2035.1	0.0012183
2044.74	0.0009524
2054.38	0.0009531
2064.03	0.0007115
2073.67	0.0007103
2083.32	0.0006608
2092.96	0.0009848
2102.61	0.0009428
2112.25	0.0011502
2121.9	0.001322
2131.54	0.0011264
2141.19	0.0008641
2150.83	0.0005801
2160.48	0.0006277
2170.12	0.000733
2179.77	0.0007029
2189.41	0.0007208
2199.06	0.0011053
2208.7	0.001632
2218.35	0.003952
2227.99	0.008502
2237.64	0.003062
2247.28	0.002072
2256.92	0.002422
2266.57	0.002202
2276.21	0.002232
2285.86	0.002972
2295.5	0.003202
2305.15	0.002832
2314.79	0.002322
2324.44	0.001812
2334.08	0.001962
2343.73	0.001962
2353.37	0.001822
2363.02	0.001992
2372.66	0.001782
2382.31	0.001932
2391.95	0.001742
2401.6	0.001352
2411.24	0.001302
2420.89	0.001282
2430.53	0.0011127
2440.18	0.0011303
2449.82	0.000897
2459.47	0.0011133
2469.11	0.000937
2478.75	0.0009242
2488.4	0.0008394
2498.04	0.0005865
2507.69	0.0008485
2517.33	0.0008028
2526.98	0.0009721
2536.62	0.0009009
2546.27	0.0010095
2555.91	0.0011857
2565.56	0.001242
2575.2	0.0008524
2584.85	0.0007443
2594.49	0.0007691
2604.14	0.0007934
2613.78	0.0007262
2623.43	0.0009146
2633.07	0.0008961
2642.72	0.001222
2652.36	0.001552
2662.01	0.0010659
2671.65	0.0006262
2681.29	0.0005209
2690.94	0.0004462
2700.58	0.0003767
2710.23	0.0006041
2719.87	0.0003676
2729.52	0.0004193
2739.16	0.0003444
2748.81	0.0005381
2758.45	0.00031688
2768.1	0.0004087
2777.74	0.0004947
2787.39	0.0004529
2797.03	0.00027237
2806.68	0.0004647
2816.32	0.000454
2825.97	0.0007238
2835.61	0.0005473
2845.26	0.0004467
2854.9	0.0005879
2864.55	0.0005499
2874.19	0.0004631
2883.84	0.0005745
2893.48	0.0006957
2903.12	0.0008458
2912.77	0.0008913
2922.41	0.0007212
2932.06	0.00028621
2941.7	0.000546
2951.35	0.0006416
2960.99	0.0006841
2970.64	0.001003
2980.28	0.0011187
2989.93	0.001242
2999.57	0.001252
3009.22	0.0010118
3018.86	0.0007945
3028.51	0.001882
3038.15	0.003312
3047.8	0.004202
3057.44	0.005882
3067.09	0.004432
3076.73	0.002692
3086.38	0.002442
3096.02	0.002522
3105.67	0.0010865
3115.31	0.000839
3124.95	0.0006349
3134.6	0.0004545
3144.24	0.0004884
3153.89	0.0006141
3163.53	0.0003585
3173.18	0.0006989
3182.82	0.0006468
3192.47	0.0005817
3202.11	0.0007761
3211.76	0.0005971
3221.4	0.0006219
3231.05	0.0007033
3240.69	0.000877
3250.34	0.0005801
3259.98	0.0005312
3269.63	0.00028936
3279.27	0.00041
3288.92	0.00021658
3298.56	0.0004645
3308.21	0.0003849
3317.85	0.0003563
3327.49	0.0004495
3337.14	0.00031646
3346.78	0.0003969
3356.43	0.0005491
3366.07	0.000662
3375.72	0.00023342
3385.36	0.0004153
3395.01	0.0003653
3404.65	0.0005682
3414.3	0.0005783
3423.94	0.0002362
3433.59	0.0005535
3443.23	0.00024251
3452.88	0.00031417
3462.52	0.0003446
3472.17	0.0003285
3481.81	0.0004768
3491.46	0.0003507
3501.1	0.0004532
3510.75	0.0003583
3520.39	0.0005011
3530.04	0.0004022
3539.68	0.0005111
3549.32	0.0007421
3558.97	0.0003583
3568.61	0.000105
3578.26	9.1e-05
3587.9	0.0001945
3597.55	0.0006868
3607.19	0.00021817
3616.84	0.00027867
3626.48	0.0003622
3636.13	0.0004144
3645.77	0.000221605
3655.42	0.00028199
3665.06	0.0003813
3674.71	0.0004142
3684.35	0.0004674
3694	0.0002065
3703.64	0.0003621
3713.29	0.0005936
3722.93	0.0004391
3732.58	0.0004796
3742.22	0.0004246
3751.86	0.0005925
3761.51	0.0005581
3771.15	0.000230926
3780.8	0.0005219
3790.44	0.0003455
3800.09	0.0005961
3809.73	0.0003796
3819.38	0.0001772
3829.02	0.0003828
3838.67	0.0004146
3848.31	0.0004446
3857.96	0.000589
3867.6	0.0005196
3877.25	0.0004349
3886.89	0.0004233
3896.54	0.0007613
3906.18	0.0004886
3915.83	0.0005615
3925.47	0.0006577
3935.12	0.0004713
3944.76	0.0004558
3954.41	0.0004451
3964.05	0.0004594
3973.69	0.0007674
3983.34	0.0005763
3992.98	0.00026365
