Infrared Spectrum: 2-(n-Propylthio)nicotinic acid
Formula: C 9 H 11 N O 2 S
CAS: 175135-22-5
State: gas
Origin: EPA-IR VAPOR PHASE LIBRARY
1/CM	ABSORBANCE
549.9	0.02298
559.547	0.02814
569.193	0.03385
578.84	0.02549
588.486	0.01566
598.133	0.01127
607.779	0.00822
617.426	0.00886
627.072	0.0169
636.719	0.01675
646.365	0.00819
656.012	0.00852
665.658	0.00904
675.305	0.02263
684.951	0.04429
694.598	0.02233
704.245	0.0084
713.891	0.00714
723.538	0.00774
733.184	0.00717
742.831	0.0113
752.477	0.03417
762.124	0.04897
771.77	0.0233
781.417	0.01401
791.063	0.01705
800.71	0.01894
810.356	0.01165
820.003	0.00662
829.649	0.00474
839.296	0.00362
848.943	0.00269
858.589	0.00225
868.236	0.00216
877.882	0.00249
887.529	0.00329
897.175	0.00324
906.822	0.00247
916.468	0.00228
926.115	0.00235
935.761	0.00213
945.408	0.0020752
955.054	0.00213
964.701	0.00266
974.347	0.00328
983.994	0.00333
993.64	0.00432
1003.29	0.00645
1012.93	0.00984
1022.58	0.02344
1032.23	0.061
1041.87	0.05381
1051.52	0.03617
1061.17	0.05641
1070.81	0.04477
1080.46	0.02341
1090.11	0.02585
1099.75	0.05058
1109.4	0.09189
1119.05	0.07837
1128.69	0.06062
1138.34	0.07771
1147.99	0.05094
1157.63	0.03772
1167.28	0.04919
1176.92	0.08254
1186.57	0.06655
1196.22	0.02712
1205.86	0.01805
1215.51	0.01453
1225.16	0.01593
1234.8	0.02029
1244.45	0.01644
1254.1	0.01387
1263.74	0.01519
1273.39	0.01893
1283.04	0.02616
1292.68	0.03224
1302.33	0.02973
1311.98	0.02699
1321.62	0.02869
1331.27	0.02885
1340.92	0.03032
1350.56	0.03388
1360.21	0.03054
1369.86	0.02728
1379.5	0.03843
1389.15	0.07733
1398.79	0.11625
1408.44	0.08047
1418.09	0.0266
1427.73	0.01446
1437.38	0.0153
1447.03	0.01349
1456.67	0.01174
1466.32	0.01069
1475.97	0.00798
1485.61	0.00626
1495.26	0.00542
1504.91	0.0052
1514.55	0.00605
1524.2	0.0074
1533.85	0.01298
1543.49	0.03321
1553.14	0.05225
1562.79	0.03542
1572.43	0.04712
1582.08	0.04895
1591.73	0.02193
1601.37	0.0096
1611.02	0.0062
1620.67	0.00426
1630.31	0.00356
1639.96	0.00305
1649.6	0.0028
1659.25	0.00286
1668.9	0.00319
1678.54	0.00352
1688.19	0.00463
1697.84	0.00708
1707.48	0.01147
1717.13	0.01733
1726.78	0.02833
1736.42	0.05139
1746.07	0.12594
1755.72	0.20277
1765.36	0.14507
1775.01	0.06538
1784.66	0.03473
1794.3	0.02155
1803.95	0.01168
1813.6	0.00748
1823.24	0.00501
1832.89	0.00326
1842.54	0.00238
1852.18	0.0019378
1861.83	0.0019394
1871.47	0.001649
1881.12	0.0014057
1890.77	0.0015249
1900.41	0.0020101
1910.06	0.0026
1919.71	0.0028
1929.35	0.00236
1939	0.00213
1948.65	0.0018295
1958.29	0.0011549
1967.94	0.00092
1977.59	0.000888
1987.23	0.000708
1996.88	0.00054
2006.53	0.000462
2016.17	0.000465
2025.82	0.000541
2035.47	0.000521
2045.11	0.000515
2054.76	0.000513
2064.41	0.00068
2074.05	0.000705
2083.7	0.00083
2093.35	0.000785
2102.99	0.00062
2112.64	0.000537
2122.28	0.000489
2131.93	0.000529
2141.58	0.000576
2151.22	0.000519
2160.87	0.000423
2170.52	0.000404
2180.16	0.000389
2189.81	0.000409
2199.46	0.000509
2209.1	0.000674
2218.75	0.000725
2228.4	0.000675
2238.04	0.000681
2247.69	0.000731
2257.34	0.00081
2266.98	0.000901
2276.63	0.0009
2286.28	0.000728
2295.92	0.000609
2305.57	0.000576
2315.22	0.000591
2324.86	0.000692
2334.51	0.000767
2344.16	0.000882
2353.8	0.0010379
2363.45	0.00107906
2373.09	0.000922
2382.74	0.000641
2392.39	0.00052
2402.03	0.000533
2411.68	0.00062
2421.33	0.000608
2430.97	0.00066
2440.62	0.000635
2450.27	0.00065
2459.91	0.000765
2469.56	0.000698
2479.21	0.000568
2488.85	0.000406
2498.5	0.000306
2508.15	0.000276
2517.79	0.000318
2527.44	0.000336
2537.09	0.000311
2546.73	0.000204
2556.38	0.000153
2566.03	0.00015
2575.67	0.00011
2585.32	0.000177
2594.96	0.000117
2604.61	0.000209
2614.26	0.000286
2623.9	0.000325
2633.55	0.000322
2643.2	0.000389
2652.84	0.000385
2662.49	0.000521
2672.14	0.000499
2681.78	0.000329
2691.43	0.000122
2701.08	1e-05
2710.72	6e-05
2720.37	8.2e-05
2730.02	0.0002
2739.66	0.000418
2749.31	0.000407
2758.96	0.000383
2768.6	0.000493
2778.25	0.000634
2787.9	0.000929
2797.54	0.0010592
2807.19	0.0011975
2816.84	0.0013089
2826.48	0.001592
2836.13	0.00217
2845.77	0.00304
2855.42	0.00496
2865.07	0.00924
2874.71	0.01434
2884.36	0.01756
2894.01	0.01378
2903.65	0.01255
2913.3	0.01754
2922.95	0.02519
2932.59	0.02975
2942.24	0.0319
2951.89	0.02703
2961.53	0.03217
2971.18	0.04867
2980.83	0.03585
2990.47	0.01421
3000.12	0.00793
3009.77	0.00589
3019.41	0.00496
3029.06	0.00557
3038.71	0.01105
3048.35	0.01496
3058	0.00921
3067.64	0.00665
3077.29	0.00531
3086.94	0.00356
3096.58	0.00366
3106.23	0.00451
3115.88	0.0038
3125.52	0.0019097
3135.17	0.0013775
3144.82	0.0013433
3154.46	0.0013559
3164.11	0.0013183
3173.76	0.0012284
3183.4	0.0012259
3193.05	0.0012782
3202.7	0.00114913
3212.34	0.00110648
3221.99	0.000896
3231.64	0.000941
3241.28	0.0009976
3250.93	0.000846
3260.58	0.0010146
3270.22	0.00101
3279.87	0.0012345
3289.52	0.0010332
3299.16	0.0012889
3308.81	0.0013164
3318.45	0.0013932
3328.1	0.0012076
3337.75	0.0013043
3347.39	0.0012554
3357.04	0.00116313
3366.69	0.0012393
3376.33	0.0013392
3385.98	0.0014715
3395.63	0.0012277
3405.27	0.0012672
3414.92	0.0013154
3424.57	0.00116623
3434.21	0.0012337
3443.86	0.0012886
3453.51	0.0013615
3463.15	0.0014794
3472.8	0.0017249
3482.45	0.0020185
3492.09	0.00219
3501.74	0.00209
3511.39	0.0017609
3521.03	0.0016237
3530.68	0.0016354
3540.33	0.00219
3549.97	0.00468
3559.62	0.01877
3569.26	0.04772
3578.91	0.06036
3588.56	0.03859
3598.2	0.00762
3607.85	0.00248
3617.5	0.0016506
3627.14	0.0015289
3636.79	0.00218
3646.44	0.00272
3656.08	0.0017222
3665.73	0.000782
3675.38	0.000534
3685.02	0.000694
3694.67	0.000537
3704.32	0.000517
3713.96	0.000435
3723.61	0.0005
3733.26	0.000392
3742.9	0.000428
3752.55	0.000443
3762.2	0.000343
3771.84	0.000375
3781.49	0.000522
3791.13	0.000405
3800.78	0.000358
3810.43	0.000469
3820.07	0.00038
3829.72	0.000326
3839.37	0.00049
3849.01	0.000567
3858.66	0.000387
3868.31	0.000453
3877.95	0.000427
3887.6	0.000264
3897.25	0.000329
3906.89	0.000423
3916.54	0.000426
3926.19	0.000381
3935.83	0.000244
3945.48	0.000391
3955.13	0.000253
3964.77	0.00035
3974.42	0.000351
3984.07	0.0004
3993.71	0.000442
