Infrared Spectrum: 3,3',5,5'-Tetrakis(trifluoromethyl)benzophenone
Formula: C 17 H 6 F 12 O
CAS: 175136-66-0
State: gas
Origin: EPA-IR VAPOR PHASE LIBRARY
1/CM	ABSORBANCE
549.8	0.0017192
559.445	0.002108
569.09	0.0014168
578.734	0.002228
588.379	0.002298
598.024	0.004188
607.669	0.004688
617.313	0.002228
626.958	0.001978
636.603	0.002938
646.248	0.003768
655.893	0.007208
665.537	0.012348
675.182	0.042188
684.827	0.144658
694.472	0.025858
704.116	0.043878
713.761	0.010478
723.406	0.005838
733.051	0.003188
742.695	0.002858
752.34	0.008618
761.985	0.020608
771.63	0.007728
781.275	0.002858
790.919	0.002158
800.564	0.0012539
810.209	0.001998
819.854	0.002278
829.498	0.003808
839.143	0.012518
848.788	0.022898
858.433	0.009738
868.078	0.003308
877.722	0.002818
887.367	0.003498
897.012	0.008418
906.657	0.039308
916.301	0.033548
925.946	0.009238
935.591	0.007698
945.236	0.003968
954.88	0.002648
964.525	0.002668
974.17	0.002298
983.815	0.002258
993.46	0.003428
1003.1	0.006168
1012.75	0.007088
1022.39	0.005068
1032.04	0.003808
1041.68	0.004088
1051.33	0.004958
1060.97	0.005168
1070.62	0.005888
1080.26	0.007318
1089.91	0.010308
1099.55	0.017538
1109.2	0.034388
1118.84	0.030778
1128.49	0.038208
1138.13	0.070068
1147.78	0.220598
1157.42	0.618118
1167.07	0.260698
1176.71	0.207788
1186.36	0.356318
1196	0.298198
1205.64	0.152108
1215.29	0.137908
1224.93	0.223228
1234.58	0.328598
1244.22	0.113978
1253.87	0.090448
1263.51	0.127598
1273.16	0.371398
1282.8	0.783818
1292.45	0.118428
1302.09	0.034118
1311.74	0.019388
1321.38	0.018008
1331.03	0.016028
1340.67	0.012588
1350.32	0.015738
1359.96	0.028828
1369.61	0.040978
1379.25	0.045468
1388.9	0.023948
1398.54	0.008068
1408.18	0.006348
1417.83	0.005748
1427.47	0.005368
1437.12	0.006808
1446.76	0.008788
1456.41	0.007508
1466.05	0.004278
1475.7	0.003428
1485.34	0.002898
1494.99	0.002578
1504.63	0.002408
1514.28	0.002738
1523.92	0.002878
1533.57	0.002628
1543.21	0.002448
1552.86	0.002818
1562.5	0.002768
1572.15	0.002938
1581.79	0.003948
1591.44	0.006358
1601.08	0.011278
1610.73	0.022078
1620.37	0.023238
1630.01	0.009658
1639.66	0.005788
1649.3	0.005058
1658.95	0.005968
1668.59	0.008778
1678.24	0.017638
1687.88	0.038848
1697.53	0.056728
1707.17	0.028488
1716.82	0.014088
1726.46	0.007548
1736.11	0.004168
1745.75	0.002948
1755.4	0.002618
1765.04	0.002558
1774.69	0.002298
1784.33	0.002318
1793.98	0.002258
1803.62	0.002068
1813.27	0.002538
1822.91	0.004338
1832.55	0.006168
1842.2	0.005548
1851.84	0.003948
1861.49	0.003518
1871.13	0.002518
1880.78	0.001898
1890.42	0.0013416
1900.07	0.001214
1909.71	0.0014334
1919.36	0.0010878
1929	0.001009
1938.65	0.0012363
1948.29	0.0014055
1957.94	0.0011987
1967.58	0.0009846
1977.23	0.0008899
1986.87	0.0012675
1996.52	0.0016043
2006.16	0.0016429
2015.81	0.0013282
2025.45	0.0015196
2035.1	0.0016753
2044.74	0.0012592
2054.38	0.0010198
2064.03	0.0009046
2073.67	0.0009459
2083.32	0.0009735
2092.96	0.0009107
2102.61	0.00081884
2112.25	0.0009506
2121.9	0.0013773
2131.54	0.0012383
2141.19	0.00081391
2150.83	0.0008955
2160.48	0.000761777
2170.12	0.00084247
2179.77	0.0009204
2189.41	0.0009152
2199.06	0.0012323
2208.7	0.0013063
2218.35	0.001868
2227.99	0.001958
2237.64	0.0016374
2247.28	0.0015781
2256.92	0.001868
2266.57	0.001808
2276.21	0.002018
2285.86	0.002408
2295.5	0.002728
2305.15	0.002568
2314.79	0.002058
2324.44	0.0017453
2334.08	0.0016603
2343.73	0.0017531
2353.37	0.001988
2363.02	0.001958
2372.66	0.002148
2382.31	0.002348
2391.95	0.0017142
2401.6	0.0013772
2411.24	0.0009377
2420.89	0.0011778
2430.53	0.0011574
2440.18	0.0009629
2449.82	0.0009224
2459.47	0.0008707
2469.11	0.0009236
2478.75	0.00084835
2488.4	0.0007061
2498.04	0.000767884
2507.69	0.00075222
2517.33	0.00081927
2526.98	0.0009259
2536.62	0.0010289
2546.27	0.0012427
2555.91	0.0013277
2565.56	0.0012007
2575.2	0.0006851
2584.85	0.0008983
2594.49	0.0008464
2604.14	0.00077211
2613.78	0.0009319
2623.43	0.00085497
2633.07	0.0009636
2642.72	0.00079084
2652.36	0.0009272
2662.01	0.00080149
2671.65	0.000622
2681.29	0.0006821
2690.94	0.00080751
2700.58	0.0006791
2710.23	0.000617
2719.87	0.000494
2729.52	0.00082777
2739.16	0.000408
2748.81	0.000615
2758.45	0.000582
2768.1	0.0007428
2777.74	0.000645
2787.39	0.000477
2797.03	0.000506
2806.68	0.000657
2816.32	0.000464
2825.97	0.00041
2835.61	0.0007097
2845.26	0.000636
2854.9	0.000463
2864.55	0.0006975
2874.19	0.000553
2883.84	0.000573
2893.48	0.000686
2903.12	0.000504
2912.77	0.0006643
2922.41	0.00048
2932.06	0.00054
2941.7	0.000398
2951.35	0.0007202
2960.99	0.00084489
2970.64	0.0009293
2980.28	0.0013073
2989.93	0.0009652
2999.57	0.0011479
3009.22	0.0008945
3018.86	0.000525
3028.51	0.000636
3038.15	0.0008983
3047.8	0.000901
3057.44	0.0010557
3067.09	0.0014759
3076.73	0.001978
3086.38	0.003408
3096.02	0.003108
3105.67	0.0011612
3115.31	0.00080088
3124.95	0.000479
3134.6	0.00081115
3144.24	0.0006584
3153.89	0.0007425
3163.53	0.000443
3173.18	0.000673
3182.82	0.0008678
3192.47	0.000222
3202.11	0.000652
3211.76	0.000636
3221.4	0.000615
3231.05	0.00042
3240.69	0.000461
3250.34	0.000578
3259.98	0.000449
3269.63	0.000703
3279.27	0.0006651
3288.92	0.000495
3298.56	0.0006611
3308.21	0.000615
3317.85	0.000614
3327.49	0.0009269
3337.14	0.00055
3346.78	0.00078176
3356.43	0.00084109
3366.07	0.0010844
3375.72	0.0011294
3385.36	0.0014417
3395.01	0.0009517
3404.65	0.0009247
3414.3	0.000759604
3423.94	0.000622
3433.59	0.000653
3443.23	0.0007125
3452.88	0.0006896
3462.52	0.000613
3472.17	0.000513
3481.81	0.000609
3491.46	0.0007028
3501.1	0.0007078
3510.75	0.000416
3520.39	0.0007493
3530.04	0.000545
3539.68	0.000577
3549.32	0.000547
3558.97	0.000644
3568.61	0.000553
3578.26	0.000696
3587.9	0.000469
3597.55	0.000336
3607.19	0.000404
3616.84	0.000576
3626.48	0.000514
3636.13	0.0006762
3645.77	0.000505
3655.42	0.000323
3665.06	0.000551
3674.71	0.000637
3684.35	0.000504
3694	0.000339
3703.64	0.000655
3713.29	0.000149
3722.93	0.000503
3732.58	0.000499
3742.22	0.0006638
3751.86	0.000377
3761.51	0.000613
3771.15	0.000862
3780.8	0.000765011
3790.44	0.000404
3800.09	0.000564
3809.73	0.000626
3819.38	0.000498
3829.02	0.000528
3838.67	0.0006955
3848.31	0.0007088
3857.96	0.000397
3867.6	0.0006746
3877.25	0.000685
3886.89	0.0006867
3896.54	0.000173
3906.18	0.000451
3915.83	0.000574
3925.47	0.0007279
3935.12	0.00079598
3944.76	0.000423
3954.41	0.0006973
3964.05	0.000357
3973.69	0.000584
3983.34	0.000583
3992.98	0.000431
