Infrared Spectrum: Choline, iodide benzoate
Formula: C12 H18 I N O2
CAS: 17518-43-3
State: SOLID (SPLIT MULL), FLUOROLUBE FOR 3800-1330 CM^-^1, NUJOL FOR 1330-400 CM^-^1
Melting point: 244-245 C
Class: COBLENTZ III
Instrument: BECKMAN IR-9 (GRATING)
Instrument parameters: ORDER CHANGES: 670, 1200, 2000 CM^-^1
Sampling: TRANSMISSION
Resolution: 2
Origin: DOW CHEMICAL COMPANY
1/CM	TRANSMITTANCE
403	0.5629
412	0.5242
421	0.5358
430	0.5625
439	0.6133
448	0.6346
457	0.6308
466	0.6728
475	0.6432
484	0.6937
493	0.7414
502	0.7694
511	0.7881
520	0.8039
529	0.8214
538	0.8245
547	0.7648
556	0.8268
565	0.8435
574	0.852
583	0.8521
592	0.8515
601	0.8517
610	0.8513
619	0.8506
628	0.8534
637	0.8559
646	0.8562
655	0.8523
664	0.8442
673	0.7684
682	0.7693
691	0.7268
700	0.7707
709	0.0614
718	0.3684
727	0.5434
736	0.704
745	0.7808
754	0.7968
763	0.7839
772	0.7437
781	0.7822
790	0.7636
799	0.8262
808	0.7854
817	0.7858
826	0.8354
835	0.8406
844	0.8412
853	0.8483
862	0.8517
871	0.8518
880	0.8515
889	0.8492
898	0.8389
907	0.8249
916	0.612
925	0.2441
934	0.6874
943	0.4543
952	0.6615
961	0.505
970	0.7235
979	0.7801
988	0.6351
997	0.786
1006	0.7875
1015	0.7851
1024	0.7233
1033	0.7257
1042	0.7493
1051	0.7208
1060	0.629
1069	0.346
1078	0.5435
1087	0.6525
1096	0.5977
1105	0.317
1114	0.0483
1123	0.4124
1132	0.6187
1141	0.6512
1150	0.685
1159	0.6033
1168	0.6451
1177	0.6839
1186	0.6768
1195	0.7397
1204	0.7478
1213	0.7436
1222	0.715
1231	0.7169
1240	0.6289
1249	0.467
1258	0.2964
1267	0.0815
1276	0.0384
1285	0.2367
1294	0.4312
1303	0.6448
1312	0.6125
1321	0.6186
1330	0.7701
1339	0.786
1348	0.7392
1357	0.5676
1366	0.6795
1375	0.7694
1384	0.771
1393	0.7083
1402	0.5049
1411	0.7469
1420	0.7424
1429	0.7803
1438	0.7074
1447	0.4268
1456	0.7672
1465	0.7883
1474	0.5782
1483	0.7087
1492	0.6775
1501	0.8613
1510	0.8638
1519	0.8597
1528	0.8565
1537	0.8561
1546	0.8571
1555	0.8564
1564	0.8537
1573	0.795
1582	0.7803
1591	0.7887
1600	0.688
1609	0.8381
1618	0.8225
1627	0.8262
1636	0.8214
1645	0.8048
1654	0.7833
1663	0.7597
1672	0.7089
1681	0.7308
1690	0.701
1699	0.6223
1708	0.2747
1717	0.0304
1726	0.6728
1735	0.8747
1744	0.8859
1753	0.8721
1762	0.8713
1771	0.8664
1780	0.8618
1789	0.8545
1798	0.8546
1807	0.8628
1816	0.8694
1825	0.8698
1834	0.8642
1843	0.8666
1852	0.8656
1861	0.8623
1870	0.8634
1879	0.8612
1888	0.8605
1897	0.8613
1906	0.8615
1915	0.8596
1924	0.8437
1933	0.8592
1942	0.8554
1951	0.855
1960	0.8593
1969	0.8551
1978	0.8523
1987	0.8449
1996	0.8446
2005	0.8496
2014	0.852
2023	0.8527
2032	0.8509
2041	0.8477
2050	0.8455
2059	0.843
2068	0.8395
2077	0.8361
2086	0.834
2095	0.8308
2104	0.8273
2113	0.8241
2122	0.8218
2131	0.8202
2140	0.8198
2149	0.8182
2158	0.8155
2167	0.8122
2176	0.8075
2185	0.8028
2194	0.7983
2203	0.7938
2212	0.789
2221	0.784
2230	0.7794
2239	0.7751
2248	0.7707
2257	0.7665
2266	0.7647
2275	0.7631
2284	0.7615
2293	0.7601
2302	0.7593
2311	0.7586
2320	0.7589
2329	0.7592
2338	0.7597
2347	0.7607
2356	0.7624
2365	0.7654
2374	0.7612
2383	0.7498
2392	0.7444
2401	0.7436
2410	0.7434
2419	0.7428
2428	0.7421
2437	0.7401
2446	0.738
2455	0.7343
2464	0.7321
2473	0.7346
2482	0.7365
2491	0.7334
2500	0.7301
2509	0.7285
2518	0.7271
2527	0.7275
2536	0.728
2545	0.7269
2554	0.7242
2563	0.7225
2572	0.7225
2581	0.7224
2590	0.7212
2599	0.7199
2608	0.7182
2617	0.7161
2626	0.7137
2635	0.711
2644	0.7086
2653	0.7062
2662	0.7045
2671	0.7026
2680	0.6978
2689	0.6934
2698	0.6915
2707	0.6896
2716	0.6876
2725	0.6857
2734	0.6832
2743	0.6799
2752	0.6758
2761	0.6712
2770	0.6646
2779	0.6568
2788	0.6618
2797	0.6651
2806	0.6628
2815	0.6592
2824	0.6555
2833	0.6525
2842	0.6484
2851	0.6421
2860	0.636
2869	0.6302
2878	0.6245
2887	0.6188
2896	0.6139
2905	0.6089
2914	0.604
2923	0.5987
2932	0.5934
2941	0.5887
2950	0.5867
2959	0.5856
2968	0.5808
2977	0.5631
2986	0.5293
2995	0.5077
3004	0.3638
3013	0.5453
3022	0.605
3031	0.6027
3040	0.6091
3049	0.6016
3058	0.5971
3067	0.6003
3076	0.6041
3085	0.6032
3094	0.596
3103	0.6026
3112	0.6058
3121	0.6066
3130	0.6065
3139	0.606
3148	0.6049
3157	0.6034
3166	0.6012
3175	0.599
3184	0.5964
3193	0.5938
3202	0.591
3211	0.5881
3220	0.5853
3229	0.5829
3238	0.5808
3247	0.5785
3256	0.5762
3265	0.574
3274	0.5716
3283	0.5693
3292	0.5669
3301	0.5644
3310	0.5617
3319	0.559
3328	0.5562
3337	0.5536
3346	0.5508
3355	0.548
3364	0.5452
3373	0.5424
3382	0.5397
3391	0.5372
3400	0.5347
3409	0.5323
3418	0.5305
3427	0.5337
3436	0.5353
3445	0.5344
3454	0.533
3463	0.5318
3472	0.5306
3481	0.5296
3490	0.5288
3499	0.5279
3508	0.5262
3517	0.5245
3526	0.5227
3535	0.521
3544	0.5194
3553	0.5178
3562	0.5162
3571	0.5146
3580	0.513
3589	0.5112
3598	0.5094
3607	0.5075
3616	0.5057
3625	0.5044
3634	0.5032
3643	0.5018
3652	0.5006
3661	0.4996
3670	0.4993
3679	0.4989
3688	0.4986
3697	0.4982
3706	0.4979
3715	0.4975
3724	0.4972
3733	0.4967
3742	0.4952
3751	0.4936
3760	0.4921
3769	0.4907
3778	0.4894
3787	0.489
3796	0.4887
