Infrared Spectrum: 2,6-Dibromo-4-cyclohexylaniline
Formula: C 12 H 15 Br 2 N
CAS: 175135-11-2
State: gas
Origin: EPA-IR VAPOR PHASE LIBRARY
1/CM	ABSORBANCE
549.9	0.00616
559.547	0.00633
569.193	0.00692
578.84	0.00775
588.486	0.00977
598.133	0.01211
607.779	0.01706
617.426	0.02072
627.072	0.01573
636.719	0.01151
646.365	0.01144
656.012	0.01428
665.658	0.01717
675.305	0.0169
684.951	0.0166
694.598	0.01845
704.245	0.02559
713.891	0.02832
723.538	0.05111
733.184	0.09232
742.831	0.04696
752.477	0.03068
762.124	0.02463
771.77	0.01923
781.417	0.01448
791.063	0.0129
800.71	0.01146
810.356	0.01007
820.003	0.00832
829.649	0.00845
839.296	0.00997
848.943	0.01512
858.589	0.03338
868.236	0.01462
877.882	0.0115
887.529	0.00995
897.175	0.00839
906.822	0.01281
916.468	0.01785
926.115	0.00844
935.761	0.0059
945.408	0.0053
955.054	0.00518
964.701	0.00536
974.347	0.00515
983.994	0.00518
993.64	0.00592
1003.29	0.00677
1012.93	0.00695
1022.58	0.00743
1032.23	0.00935
1041.87	0.01142
1051.52	0.02056
1061.17	0.02824
1070.81	0.02024
1080.46	0.02413
1090.11	0.03497
1099.75	0.02433
1109.4	0.01111
1119.05	0.00611
1128.69	0.00654
1138.34	0.00438
1147.99	0.0026
1157.63	0.00273
1167.28	0.00344
1176.92	0.00566
1186.57	0.01076
1196.22	0.01538
1205.86	0.01072
1215.51	0.01207
1225.16	0.01999
1234.8	0.01895
1244.45	0.01094
1254.1	0.00703
1263.74	0.01338
1273.39	0.01766
1283.04	0.02609
1292.68	0.02298
1302.33	0.01569
1311.98	0.01173
1321.62	0.00803
1331.27	0.00579
1340.92	0.00813
1350.56	0.01779
1360.21	0.01405
1369.86	0.00668
1379.5	0.00513
1389.15	0.0075
1398.79	0.01938
1408.44	0.02821
1418.09	0.01461
1427.73	0.01025
1437.38	0.01524
1447.03	0.03192
1456.67	0.06023
1466.32	0.1048
1475.97	0.13717
1485.61	0.09238
1495.26	0.03038
1504.91	0.01243
1514.55	0.00927
1524.2	0.01209
1533.85	0.02814
1543.49	0.04972
1553.14	0.02829
1562.79	0.01934
1572.43	0.03694
1582.08	0.05288
1591.73	0.03026
1601.37	0.02985
1611.02	0.05702
1620.67	0.07425
1630.31	0.04066
1639.96	0.01771
1649.6	0.00824
1659.25	0.00515
1668.9	0.00401
1678.54	0.00353
1688.19	0.00342
1697.84	0.00356
1707.48	0.00355
1717.13	0.00326
1726.78	0.00416
1736.42	0.00625
1746.07	0.00443
1755.72	0.0039
1765.36	0.00374
1775.01	0.0025567
1784.66	0.0020006
1794.3	0.00165119
1803.95	0.0015331
1813.6	0.001368
1823.24	0.001282
1832.89	0.001193
1842.54	0.001134
1852.18	0.001029
1861.83	0.00105
1871.47	0.001066
1881.12	0.001094
1890.77	0.001174
1900.41	0.001275
1910.06	0.001312
1919.71	0.001317
1929.35	0.001293
1939	0.001348
1948.65	0.001344
1958.29	0.00133
1967.94	0.00121
1977.59	0.001088
1987.23	0.001074
1996.88	0.001042
2006.53	0.001115
2016.17	0.001139
2025.82	0.001158
2035.47	0.001168
2045.11	0.001263
2054.76	0.001249
2064.41	0.001291
2074.05	0.001298
2083.7	0.001349
2093.35	0.001366
2102.99	0.001315
2112.64	0.001263
2122.28	0.001253
2131.93	0.001324
2141.58	0.001287
2151.22	0.001313
2160.87	0.001234
2170.52	0.001375
2180.16	0.001378
2189.81	0.00135
2199.46	0.001383
2209.1	0.00125
2218.75	0.001323
2228.4	0.001422
2238.04	0.0015271
2247.69	0.00136
2257.34	0.001234
2266.98	0.001247
2276.63	0.001233
2286.28	0.001274
2295.92	0.001305
2305.57	0.001212
2315.22	0.001258
2324.86	0.00124
2334.51	0.001322
2344.16	0.00139
2353.8	0.0014744
2363.45	0.0015557
2373.09	0.0015105
2382.74	0.0015013
2392.39	0.001424
2402.03	0.001255
2411.68	0.001114
2421.33	0.001069
2430.97	0.001062
2440.62	0.001014
2450.27	0.000963
2459.91	0.000892
2469.56	0.001077
2479.21	0.001366
2488.85	0.001305
2498.5	0.001229
2508.15	0.001299
2517.79	0.001381
2527.44	0.00156283
2537.09	0.001456
2546.73	0.001415
2556.38	0.00161143
2566.03	0.0018421
2575.67	0.0020346
2585.32	0.002417
2594.96	0.00272
2604.61	0.0024474
2614.26	0.0023746
2623.9	0.0024163
2633.55	0.0022295
2643.2	0.0024151
2652.84	0.00287
2662.49	0.00364
2672.14	0.00324
2681.78	0.00257
2691.43	0.0022425
2701.08	0.0021381
2710.72	0.001907
2720.37	0.001541
2730.02	0.001416
2739.66	0.0015028
2749.31	0.0017209
2758.96	0.0019034
2768.6	0.0023416
2778.25	0.003
2787.9	0.00355
2797.54	0.00449
2807.19	0.00424
2816.84	0.00473
2826.48	0.00597
2836.13	0.00969
2845.77	0.02193
2855.42	0.05953
2865.07	0.10416
2874.71	0.05444
2884.36	0.03203
2894.01	0.02572
2903.65	0.04033
2913.3	0.06827
2922.95	0.12621
2932.59	0.28234
2942.24	0.25917
2951.89	0.08711
2961.53	0.02656
2971.18	0.00951
2980.83	0.00516
2990.47	0.00419
3000.12	0.00463
3009.77	0.00329
3019.41	0.0023139
3029.06	0.0022037
3038.71	0.00275
3048.35	0.00284
3058	0.00313
3067.64	0.00321
3077.29	0.0023317
3086.94	0.0016935
3096.58	0.001263
3106.23	0.001083
3115.88	0.000813
3125.52	0.001073
3135.17	0.00113
3144.82	0.001586
3154.46	0.0017601
3164.11	0.001311
3173.76	0.00097
3183.4	0.000703
3193.05	0.000675
3202.7	0.00038
3212.34	0.00054
3221.99	0.00053
3231.64	0.000604
3241.28	0.00039
3250.93	0.00042
3260.58	0.00017
3270.22	3e-05
3279.87	0.00028
3289.52	0.00024
3299.16	0.00022
3308.81	0.00024
3318.45	0.00027
3328.1	0.00024
3337.75	0.00043
3347.39	0.000737
3357.04	0.000916
3366.69	0.0017328
3376.33	0.00375
3385.98	0.00849
3395.63	0.01986
3405.27	0.03346
3414.92	0.01395
3424.57	0.00521
3434.21	0.00278
3443.86	0.0025253
3453.51	0.00318
3463.15	0.00472
3472.8	0.00832
3482.45	0.01422
3492.09	0.02626
3501.74	0.04164
3511.39	0.02081
3521.03	0.00882
3530.68	0.00391
3540.33	0.0021342
3549.97	0.001397
3559.62	0.001116
3569.26	0.000869
3578.91	0.000745
3588.56	0.00053
3598.2	0.00052
3607.85	0.00043
3617.5	0.00047
3627.14	0.000607
3636.79	0.000619
3646.44	0.000583
3656.08	0.000669
3665.73	0.000584
3675.38	0.000795
3685.02	0.000923
3694.67	0.000852
3704.32	0.000753
3713.96	0.000756
3723.61	0.000814
3733.26	0.00075
3742.9	0.000907
3752.55	0.00101
3762.2	0.000922
3771.84	0.000971
3781.49	0.001093
3791.13	0.001075
3800.78	0.001183
3810.43	0.001276
3820.07	0.001378
3829.72	0.001329
3839.37	0.00161673
3849.01	0.001905
3858.66	0.0018716
3868.31	0.0016778
3877.95	0.00158852
3887.6	0.001401
3897.25	0.001358
3906.89	0.001197
3916.54	0.001186
3926.19	0.001353
3935.83	0.0017356
3945.48	0.0018708
3955.13	0.0017122
3964.77	0.00158873
3974.42	0.0014812
3984.07	0.00125
3993.71	0.001248
