Infrared Spectrum: 1-[3,5-Bis(trifluoromethyl)phenyl]pyrrole
Formula: C 12 H 7 F 6 N
CAS: 175136-60-4
State: gas
Origin: EPA-IR VAPOR PHASE LIBRARY
1/CM	ABSORBANCE
549.8	0.00093
559.445	0.001088
569.09	0.0022959
578.734	0.00319
588.379	0.00348
598.024	0.00891
607.669	0.00653
617.313	0.00458
626.958	0.00344
636.603	0.00283
646.248	0.00357
655.893	0.00413
665.537	0.00668
675.182	0.0206
684.827	0.08932
694.472	0.03897
704.116	0.08636
713.761	0.08703
723.406	0.08975
733.051	0.02067
742.695	0.01641
752.34	0.00958
761.985	0.0072
771.63	0.00525
781.275	0.01377
790.919	0.02493
800.564	0.00502
810.209	0.00329
819.854	0.00323
829.498	0.0053
839.143	0.01656
848.788	0.02554
858.433	0.00926
868.078	0.00861
877.722	0.01002
887.367	0.04435
897.012	0.04288
906.657	0.00822
916.301	0.00397
925.946	0.00398
935.591	0.00403
945.236	0.00552
954.88	0.00476
964.525	0.00303
974.17	0.00323
983.815	0.00365
993.46	0.00508
1003.1	0.00664
1012.75	0.00904
1022.39	0.01929
1032.04	0.07364
1041.68	0.02235
1051.33	0.01365
1060.97	0.05783
1070.62	0.17702
1080.26	0.04195
1089.91	0.0202
1099.55	0.03009
1109.2	0.03959
1118.84	0.02941
1128.49	0.04168
1138.13	0.08065
1147.78	0.30079
1157.42	0.51669
1167.07	0.17575
1176.71	0.19133
1186.36	0.32823
1196	0.22922
1205.64	0.07901
1215.29	0.04819
1224.93	0.03032
1234.58	0.02526
1244.22	0.03207
1253.87	0.03848
1263.51	0.09095
1273.16	0.37717
1282.8	0.59171
1292.45	0.09421
1302.09	0.03334
1311.74	0.02137
1321.38	0.01687
1331.03	0.01164
1340.67	0.01269
1350.32	0.01666
1359.96	0.0396
1369.61	0.10704
1379.25	0.23691
1388.9	0.21554
1398.54	0.07488
1408.18	0.08239
1417.83	0.03465
1427.47	0.0158
1437.12	0.01092
1446.76	0.01116
1456.41	0.01416
1466.05	0.02602
1475.7	0.05216
1485.34	0.17629
1494.99	0.20861
1504.63	0.06647
1514.28	0.02249
1523.92	0.01427
1533.57	0.01392
1543.21	0.029
1552.86	0.03343
1562.5	0.01367
1572.15	0.00883
1581.79	0.00836
1591.44	0.01105
1601.08	0.01833
1610.73	0.03052
1620.37	0.05025
1630.01	0.0426
1639.66	0.01203
1649.3	0.00616
1658.95	0.00529
1668.59	0.00563
1678.24	0.00507
1687.88	0.005
1697.53	0.00541
1707.17	0.00402
1716.82	0.00439
1726.46	0.00528
1736.11	0.00751
1745.75	0.00452
1755.4	0.00373
1765.04	0.00358
1774.69	0.00418
1784.33	0.00667
1793.98	0.00846
1803.62	0.00666
1813.27	0.00412
1822.91	0.00311
1832.55	0.00272
1842.2	0.0022843
1851.84	0.0018817
1861.49	0.0020762
1871.13	0.00213
1880.78	0.0018796
1890.42	0.0023756
1900.07	0.0025
1909.71	0.002156
1919.36	0.0022816
1929	0.001998
1938.65	0.0024398
1948.29	0.0023483
1957.94	0.0019241
1967.58	0.0020326
1977.23	0.0019584
1986.87	0.0022464
1996.52	0.0020906
2006.16	0.0019653
2015.81	0.0018243
2025.45	0.0017376
2035.1	0.0018051
2044.74	0.0017414
2054.38	0.0017441
2064.03	0.0021901
2073.67	0.0022937
2083.32	0.0023599
2092.96	0.0020524
2102.61	0.001665
2112.25	0.0017501
2121.9	0.0018251
2131.54	0.0021127
2141.19	0.0020758
2150.83	0.002097
2160.48	0.0017451
2170.12	0.0016525
2179.77	0.0018123
2189.41	0.0019881
2199.06	0.0021621
2208.7	0.0018926
2218.35	0.0021978
2227.99	0.0024015
2237.64	0.00287
2247.28	0.0032
2256.92	0.00278
2266.57	0.0028
2276.21	0.00273
2285.86	0.00281
2295.5	0.00289
2305.15	0.0027
2314.79	0.0021524
2324.44	0.0023451
2334.08	0.0024096
2343.73	0.0022278
2353.37	0.0023266
2363.02	0.00256
2372.66	0.0022195
2382.31	0.0022647
2391.95	0.0022991
2401.6	0.0020645
2411.24	0.0017985
2420.89	0.002253
2430.53	0.0023422
2440.18	0.00256
2449.82	0.0022704
2459.47	0.00175
2469.11	0.0024459
2478.75	0.0019718
2488.4	0.00253
2498.04	0.0019619
2507.69	0.0017005
2517.33	0.0015808
2526.98	0.0018122
2536.62	0.0017114
2546.27	0.0019725
2555.91	0.0024793
2565.56	0.00257
2575.2	0.0024403
2584.85	0.00253
2594.49	0.00253
2604.14	0.0025
2613.78	0.00271
2623.43	0.00256
2633.07	0.00253
2642.72	0.0021711
2652.36	0.0021689
2662.01	0.002121
2671.65	0.0020857
2681.29	0.0021145
2690.94	0.0017749
2700.58	0.00157933
2710.23	0.001316
2719.87	0.001636
2729.52	0.0017807
2739.16	0.001319
2748.81	0.00157706
2758.45	0.00147645
2768.1	0.0017281
2777.74	0.0023109
2787.39	0.0022351
2797.03	0.0023558
2806.68	0.0013986
2816.32	0.001651
2825.97	0.00152244
2835.61	0.0016321
2845.26	0.0018411
2854.9	0.002176
2864.55	0.0017609
2874.19	0.0022378
2883.84	0.0021721
2893.48	0.0016001
2903.12	0.0020961
2912.77	0.0019388
2922.41	0.0019822
2932.06	0.0016834
2941.7	0.0015865
2951.35	0.0020447
2960.99	0.001137
2970.64	0.0018188
2980.28	0.001441
2989.93	0.0016144
2999.57	0.00151593
3009.22	0.00152523
3018.86	0.0013882
3028.51	0.0014643
3038.15	0.0017688
3047.8	0.001363
3057.44	0.001772
3067.09	0.00309
3076.73	0.002371
3086.38	0.00263
3096.02	0.00274
3105.67	0.00294
3115.31	0.00483
3124.95	0.00449
3134.6	0.0021487
3144.24	0.0020616
3153.89	0.0016747
3163.53	0.00091
3173.18	0.001176
3182.82	0.000718
3192.47	0.000991
3202.11	0.001187
3211.76	0.0012
3221.4	0.000973
3231.05	0.001068
3240.69	0.001086
3250.34	0.001051
3259.98	0.00152465
3269.63	0.000956
3279.27	0.001203
3288.92	0.000992
3298.56	0.000843
3308.21	0.001025
3317.85	0.000829
3327.49	0.0015948
3337.14	0.001139
3346.78	0.000923
3356.43	0.0017767
3366.07	0.001084
3375.72	0.000981
3385.36	0.00083
3395.01	0.000712
3404.65	0.000861
3414.3	0.001256
3423.94	0.001026
3433.59	0.001001
3443.23	0.001717
3452.88	0.001028
3462.52	0.001011
3472.17	0.00151457
3481.81	0.000592
3491.46	0.001151
3501.1	0.001196
3510.75	0.000636
3520.39	0.00064
3530.04	0.0016009
3539.68	0.001255
3549.32	0.000681
3558.97	0.001129
3568.61	0.00124
3578.26	0.000673
3587.9	0.000744
3597.55	0.001028
3607.19	0.001073
3616.84	0.000885
3626.48	0.001262
3636.13	0.000503
3645.77	0.000643
3655.42	0.001002
3665.06	0.001207
3674.71	0.00151421
3684.35	0.001287
3694	0.000625
3703.64	0.0013954
3713.29	0.001108
3722.93	0.000975
3732.58	0.001286
3742.22	0.000738
3751.86	0.001026
3761.51	0.001049
3771.15	0.001284
3780.8	0.0015276
3790.44	0.00124
3800.09	0.001336
3809.73	0.001007
3819.38	0.001364
3829.02	0.000943
3838.67	0.000801
3848.31	0.000715
3857.96	0.000968
3867.6	0.000846
3877.25	0.001238
3886.89	0.001224
3896.54	0.00098
3906.18	0.001431
3915.83	0.00098
3925.47	0.000497
3935.12	0.00133
3944.76	0.001183
3954.41	0.001248
3964.05	0.001212
3973.69	0.001211
3983.34	0.0017375
3992.98	0.0017847
