Infrared Spectrum: n-Propanesulphonylacetonitrile
Formula: C 5 H 9 N O 2 S
CAS: 175137-61-8
State: gas
Origin: EPA-IR VAPOR PHASE LIBRARY
1/CM	ABSORBANCE
549.8	0.042824
559.445	0.033394
569.09	0.018994
578.734	0.009894
588.379	0.006364
598.024	0.005764
607.669	0.004444
617.313	0.004214
626.958	0.005594
636.603	0.007114
646.248	0.008004
655.893	0.007264
665.537	0.006544
675.182	0.007114
684.827	0.009254
694.472	0.011234
704.116	0.012314
713.761	0.013324
723.406	0.015434
733.051	0.023524
742.695	0.034804
752.34	0.038474
761.985	0.031364
771.63	0.023824
781.275	0.021134
790.919	0.019464
800.564	0.015694
810.209	0.012014
819.854	0.011544
829.498	0.014814
839.143	0.020124
848.788	0.028894
858.433	0.036894
868.078	0.037834
877.722	0.027994
887.367	0.015164
897.012	0.008314
906.657	0.005664
916.301	0.003384
925.946	0.001964
935.591	0.001524
945.236	0.002044
954.88	0.002264
964.525	0.002034
974.17	0.001374
983.815	0.001334
993.46	0.001434
1003.1	0.001594
1012.75	0.001604
1022.39	0.002634
1032.04	0.002874
1041.68	0.004064
1051.33	0.005644
1060.97	0.007954
1070.62	0.009964
1080.26	0.011554
1089.91	0.012964
1099.55	0.009754
1109.2	0.010404
1118.84	0.019264
1128.49	0.061864
1138.13	0.128364
1147.78	0.141204
1157.42	0.110514
1167.07	0.092764
1176.71	0.059474
1186.36	0.024994
1196	0.015844
1205.64	0.015914
1215.29	0.019214
1224.93	0.026124
1234.58	0.033864
1244.22	0.034744
1253.87	0.030974
1263.51	0.026224
1273.16	0.018154
1282.8	0.012764
1292.45	0.013204
1302.09	0.015674
1311.74	0.016894
1321.38	0.020744
1331.03	0.034764
1340.67	0.066604
1350.32	0.130744
1359.96	0.226534
1369.61	0.267464
1379.25	0.150594
1388.9	0.056164
1398.54	0.036594
1408.18	0.028864
1417.83	0.018334
1427.47	0.011704
1437.12	0.009174
1446.76	0.010824
1456.41	0.014034
1466.05	0.015424
1475.7	0.012374
1485.34	0.008084
1494.99	0.005354
1504.63	0.004004
1514.28	0.003214
1523.92	0.002884
1533.57	0.002274
1543.21	0.001834
1552.86	0.001524
1562.5	0.001344
1572.15	0.001484
1581.79	0.0011093
1591.44	0.001264
1601.08	0.001304
1610.73	0.001164
1620.37	0.0011055
1630.01	0.0010999
1639.66	0.0011038
1649.3	0.001154
1658.95	0.0009428
1668.59	0.0010115
1678.24	0.0010196
1687.88	0.0008725
1697.53	0.0009651
1707.17	0.0007933
1716.82	0.0007713
1726.46	0.0009874
1736.11	0.0009611
1745.75	0.001264
1755.4	0.001414
1765.04	0.001234
1774.69	0.0010098
1784.33	0.0007089
1793.98	0.0006365
1803.62	0.0005571
1813.27	0.0006071
1822.91	0.0005367
1832.55	0.0005405
1842.2	0.0005091
1851.84	0.0006023
1861.49	0.0005541
1871.13	0.0006117
1880.78	0.000783
1890.42	0.0009857
1900.07	0.0011355
1909.71	0.0010326
1919.36	0.0008615
1929	0.0008648
1938.65	0.0009633
1948.29	0.0009168
1957.94	0.0008392
1967.58	0.0006739
1977.23	0.0006958
1986.87	0.0005845
1996.52	0.0007456
2006.16	0.0009169
2015.81	0.0008349
2025.45	0.0009017
2035.1	0.0008783
2044.74	0.0008923
2054.38	0.0008418
2064.03	0.0006406
2073.67	0.0007315
2083.32	0.0007376
2092.96	0.0006142
2102.61	0.000713
2112.25	0.0009241
2121.9	0.0008667
2131.54	0.000841
2141.19	0.0006335
2150.83	0.000645
2160.48	0.000481
2170.12	0.0006121
2179.77	0.0006849
2189.41	0.0006938
2199.06	0.0008188
2208.7	0.0009168
2218.35	0.000795
2227.99	0.0008881
2237.64	0.001224
2247.28	0.002244
2256.92	0.002884
2266.57	0.002564
2276.21	0.001824
2285.86	0.001784
2295.5	0.001494
2305.15	0.001234
2314.79	0.001145
2324.44	0.0009945
2334.08	0.0010126
2343.73	0.0010081
2353.37	0.0011501
2363.02	0.0010876
2372.66	0.001164
2382.31	0.0009847
2391.95	0.0009437
2401.6	0.0009324
2411.24	0.0009762
2420.89	0.0011313
2430.53	0.0011112
2440.18	0.001334
2449.82	0.001534
2459.47	0.001544
2469.11	0.001774
2478.75	0.001814
2488.4	0.002024
2498.04	0.002314
2507.69	0.002144
2517.33	0.001494
2526.98	0.0009922
2536.62	0.000875
2546.27	0.0008955
2555.91	0.0004545
2565.56	0.0005135
2575.2	0.0005623
2584.85	0.0006269
2594.49	0.0008456
2604.14	0.0009473
2613.78	0.0007564
2623.43	0.0007821
2633.07	0.0008273
2642.72	0.0008315
2652.36	0.000715
2662.01	0.0009369
2671.65	0.0007624
2681.29	0.0006918
2690.94	0.0005385
2700.58	0.000707
2710.23	0.0006512
2719.87	0.0009086
2729.52	0.0009239
2739.16	0.0010071
2748.81	0.001164
2758.45	0.001344
2768.1	0.001404
2777.74	0.001354
2787.39	0.001564
2797.03	0.001694
2806.68	0.002004
2816.32	0.002124
2825.97	0.002294
2835.61	0.002594
2845.26	0.003294
2854.9	0.003944
2864.55	0.005534
2874.19	0.009504
2883.84	0.016994
2893.48	0.020684
2903.12	0.017874
2912.77	0.016024
2922.41	0.019274
2932.06	0.025854
2941.7	0.036004
2951.35	0.037104
2960.99	0.031104
2970.64	0.038994
2980.28	0.053824
2989.93	0.046874
2999.57	0.025344
3009.22	0.013084
3018.86	0.007754
3028.51	0.005724
3038.15	0.004684
3047.8	0.003734
3057.44	0.003104
3067.09	0.002314
3076.73	0.001824
3086.38	0.001684
3096.02	0.001674
3105.67	0.001644
3115.31	0.001454
3124.95	0.001274
3134.6	0.001324
3144.24	0.001214
3153.89	0.001114
3163.53	0.0009522
3173.18	0.0010257
3182.82	0.0009481
3192.47	0.001174
3202.11	0.001524
3211.76	0.001584
3221.4	0.001254
3231.05	0.0007518
3240.69	0.0006756
3250.34	0.0006807
3259.98	0.0005421
3269.63	0.0004155
3279.27	0.0004166
3288.92	0.000389
3298.56	0.0005048
3308.21	0.0002547
3317.85	0.000356
3327.49	0.0003363
3337.14	0.0006033
3346.78	0.00020745
3356.43	0.0004198
3366.07	0.0003243
3375.72	0.0005136
3385.36	0.0004641
3395.01	0.0003652
3404.65	0.00023787
3414.3	0.0003363
3423.94	0.0003347
3433.59	0.000289
3443.23	0.0003191
3452.88	2e-05
3462.52	0.0002587
3472.17	0.0005921
3481.81	0.000467
3491.46	0.0007515
3501.1	0.0004812
3510.75	0.0003728
3520.39	0.00025331
3530.04	0.0003022
3539.68	0.0006147
3549.32	0.0002017
3558.97	0.0004634
3568.61	0.00022479
3578.26	0.00023562
3587.9	0
3597.55	0.0004725
3607.19	8.81e-05
3616.84	0.0002732
3626.48	0.00023301
3636.13	0.0002997
3645.77	0.0005338
3655.42	1.8e-05
3665.06	0.0003466
3674.71	0.00024596
3684.35	0.0001136
3694	0.0004601
3703.64	0.00022481
3713.29	0.0001848
3722.93	0.0002915
3732.58	0.0003795
3742.22	0.0003215
3751.86	0.0006171
3761.51	0.000549
3771.15	0.0004527
3780.8	0.0006106
3790.44	0.0006578
3800.09	0.0005848
3809.73	0.0004653
3819.38	0.0006382
3829.02	0.0006401
3838.67	0.00017663
3848.31	0.0005752
3857.96	0.000593
3867.6	0.0004113
3877.25	0.0004847
3886.89	0.0003198
3896.54	0.0002635
3906.18	0.0003821
3915.83	0.0002959
3925.47	0.00022188
3935.12	0.0003808
3944.76	0.0004426
3954.41	0.000405
3964.05	0.0004595
3973.69	0.000538
3983.34	0.0005744
3992.98	0.0006121
