Infrared Spectrum: Thianaphthene-2-carboxylic hydrazide
Formula: C 9 H 8 N 2 O S
CAS: 175135-07-6
State: gas
Origin: EPA-IR VAPOR PHASE LIBRARY
1/CM	ABSORBANCE
549.8	0.0019006
559.445	0.0011182
569.09	0.0019005
578.734	0.002015
588.379	0.00104381
598.024	0.0016315
607.669	0.002305
617.313	0.0011647
626.958	0.0018531
636.603	0.0014022
646.248	0.0019127
655.893	0.0017854
665.537	0.0018316
675.182	0.0018901
684.827	0.002495
694.472	0.002045
704.116	0.002195
713.761	0.003375
723.406	0.004405
733.051	0.005305
742.695	0.006025
752.34	0.004865
761.985	0.002565
771.63	0.0017428
781.275	0.0013914
790.919	0.002225
800.564	0.002205
810.209	0.002365
819.854	0.002625
829.498	0.003065
839.143	0.002985
848.788	0.003105
858.433	0.002905
868.078	0.002905
877.722	0.003095
887.367	0.002825
897.012	0.004075
906.657	0.004185
916.301	0.005335
925.946	0.005565
935.591	0.004785
945.236	0.003075
954.88	0.001942
964.525	0.00103674
974.17	0.0011028
983.815	0.0012878
993.46	0.0014342
1003.1	0.0016625
1012.75	0.002195
1022.39	0.0014037
1032.04	0.000822
1041.68	0.0012445
1051.33	0.0017885
1060.97	0.002275
1070.62	0.002835
1080.26	0.0017096
1089.91	0.000662
1099.55	0.0015915
1109.2	0.002735
1118.84	0.002155
1128.49	0.003925
1138.13	0.003325
1147.78	0.003845
1157.42	0.004255
1167.07	0.002015
1176.71	0.003475
1186.36	0.005275
1196	0.004415
1205.64	0.004165
1215.29	0.003165
1224.93	0.004585
1234.58	0.004235
1244.22	0.006445
1253.87	0.008555
1263.51	0.010355
1273.16	0.008745
1282.8	0.006015
1292.45	0.002825
1302.09	0.002625
1311.74	0.002145
1321.38	0.002725
1331.03	0.002735
1340.67	0.002075
1350.32	0.002085
1359.96	0.0019012
1369.61	0.0019069
1379.25	0.0017576
1388.9	0.0019326
1398.54	0.002335
1408.18	0.002565
1417.83	0.003815
1427.47	0.006085
1437.12	0.008175
1446.76	0.010325
1456.41	0.010305
1466.05	0.008945
1475.7	0.006145
1485.34	0.004585
1494.99	0.003895
1504.63	0.003805
1514.28	0.005855
1523.92	0.009335
1533.57	0.008055
1543.21	0.003595
1552.86	0.003105
1562.5	0.004075
1572.15	0.003155
1581.79	0.002555
1591.44	0.002455
1601.08	0.002835
1610.73	0.002825
1620.37	0.003795
1630.01	0.005155
1639.66	0.005005
1649.3	0.003685
1658.95	0.003565
1668.59	0.004425
1678.24	0.006275
1687.88	0.012785
1697.53	0.021175
1707.17	0.013955
1716.82	0.005495
1726.46	0.003755
1736.11	0.002995
1745.75	0.002125
1755.4	0.0018084
1765.04	0.0015067
1774.69	0.0019917
1784.33	0.001667
1793.98	0.0014736
1803.62	0.0017165
1813.27	0.0013832
1822.91	0.0014225
1832.55	0.0012556
1842.2	0.001501
1851.84	0.0012283
1861.49	0.0010592
1871.13	0.0012735
1880.78	0.0011824
1890.42	0.0012308
1900.07	0.0013219
1909.71	0.0011877
1919.36	0.0010982
1929	0.0014488
1938.65	0.00109145
1948.29	0.0010956
1957.94	0.00106421
1967.58	0.00098952
1977.23	0.000855
1986.87	0.00107713
1996.52	0.0009538
2006.16	0.000978
2015.81	0.0009364
2025.45	0.00106304
2035.1	0.000788
2044.74	0.000739
2054.38	0.000659
2064.03	0.000844
2073.67	0.0009364
2083.32	0.00085
2092.96	0.000868
2102.61	0.000785
2112.25	0.0009443
2121.9	0.000762
2131.54	0.00089
2141.19	0.00084
2150.83	0.000834
2160.48	0.00102179
2170.12	0.000819
2179.77	0.00105474
2189.41	0.000792
2199.06	0.00107455
2208.7	0.000702
2218.35	0.00102387
2227.99	0.000723
2237.64	0.00108584
2247.28	0.000999743
2256.92	0.00101156
2266.57	0.000888
2276.21	0.00098561
2285.86	0.0009787
2295.5	0.000622
2305.15	0.00098898
2314.79	0.000845
2324.44	0.000762
2334.08	0.000735
2343.73	0.0009086
2353.37	0.00102802
2363.02	0.000765
2372.66	0.0009504
2382.31	0.000723
2391.95	0.000823
2401.6	0.0009338
2411.24	0.000502
2420.89	0.000567
2430.53	0.000642
2440.18	0.000596
2449.82	0.0009163
2459.47	0.00105532
2469.11	0.0011451
2478.75	0.0009315
2488.4	0.0011736
2498.04	0.000795
2507.69	0.000669
2517.33	0.00101412
2526.98	0.000885
2536.62	0.0009358
2546.27	0.000576
2555.91	0.000777
2565.56	0.000834
2575.2	0.000882
2584.85	0.000462
2594.49	0.000776
2604.14	0.000709
2613.78	0.0009478
2623.43	0.00107573
2633.07	0.000711
2642.72	0.0011019
2652.36	0.000861
2662.01	0.0011158
2671.65	0.0009267
2681.29	0.0012236
2690.94	0.0011084
2700.58	0.000798
2710.23	0.000608
2719.87	0.000807
2729.52	0.0012441
2739.16	0.000834
2748.81	0.00073
2758.45	0.000919
2768.1	0.0012791
2777.74	0.0012352
2787.39	0.0011841
2797.03	0.0013314
2806.68	0.000895
2816.32	0.0009347
2825.97	0.000998897
2835.61	0.0011238
2845.26	0.0009296
2854.9	0.000727
2864.55	0.000743
2874.19	0.00100655
2883.84	0.0014456
2893.48	0.00109231
2903.12	0.0009533
2912.77	0.00099018
2922.41	0.0011253
2932.06	0.000573
2941.7	0.00059
2951.35	0.000823
2960.99	0.00057
2970.64	0.0015683
2980.28	0.0009713
2989.93	0.000886
2999.57	0.00099252
3009.22	0.0011372
3018.86	0.00105077
3028.51	0.0013287
3038.15	0.0015946
3047.8	0.00107518
3057.44	0.002165
3067.09	0.003205
3076.73	0.003445
3086.38	0.002455
3096.02	0.0016352
3105.67	0.0014369
3115.31	0.00103051
3124.95	0.0013149
3134.6	0.0009486
3144.24	0.0011848
3153.89	0.000775
3163.53	0.0013605
3173.18	0.000617
3182.82	0.0012072
3192.47	0.00103743
3202.11	0.000802
3211.76	0.000861
3221.4	0.0016264
3231.05	0.000782
3240.69	0.00104105
3250.34	0.000706
3259.98	0.00027
3269.63	0.000776
3279.27	0.000894
3288.92	0.0011602
3298.56	0.0013508
3308.21	0.0011912
3317.85	0.0012133
3327.49	0.0010957
3337.14	0.00103824
3346.78	0.0011847
3356.43	0.00104589
3366.07	0.000817
3375.72	0.00103535
3385.36	0.0009657
3395.01	0.00100099
3404.65	0.000789
3414.3	0.0009192
3423.94	0.0015357
3433.59	0.002255
3443.23	0.002645
3452.88	0.003135
3462.52	0.002235
3472.17	0.002155
3481.81	0.002075
3491.46	0.0016392
3501.1	0.0013051
3510.75	0.0009506
3520.39	0.00104819
3530.04	0.00107159
3539.68	0.0011599
3549.32	0.0015344
3558.97	0.00099227
3568.61	0.0013687
3578.26	0.00103127
3587.9	0.0019204
3597.55	0.001264
3607.19	0.0009794
3616.84	0.0010113
3626.48	0.00054
3636.13	0.000628
3645.77	0
3655.42	0.00108049
3665.06	0.000965
3674.71	0.0009621
3684.35	0.000734
3694	0.0009294
3703.64	0.0013188
3713.29	0.00089
3722.93	0.000633
3732.58	0.000537
3742.22	0.000557
3751.86	0.0011684
3761.51	0.001262
3771.15	0.000679
3780.8	0.0011143
3790.44	0.0014119
3800.09	0.00071
3809.73	0.0012265
3819.38	0.000971
3829.02	0.000292
3838.67	0.000953
3848.31	0.000601
3857.96	0.000954
3867.6	0.002095
3877.25	0.0009129
3886.89	0.000997494
3896.54	0.00101042
3906.18	0.0013718
3915.83	0.0013655
3925.47	0.000999854
3935.12	0.0015861
3944.76	0.00044
3954.41	0.0009183
3964.05	0.0011669
3973.69	0.000594
3983.34	0.000879
3992.98	0.00056
