Infrared Spectrum: 3-Amino-5-cyclopropylpyrazole
Formula: C 6 H 9 N 3
CAS: 175137-46-9
State: gas
Origin: EPA-IR VAPOR PHASE LIBRARY
1/CM	ABSORBANCE
549.8	0.006677
559.445	0.005817
569.09	0.006287
578.734	0.006577
588.379	0.007237
598.024	0.007897
607.669	0.009217
617.313	0.008937
626.958	0.009607
636.603	0.008207
646.248	0.007837
655.893	0.008357
665.537	0.008677
675.182	0.009727
684.827	0.009337
694.472	0.008407
704.116	0.007007
713.761	0.005877
723.406	0.005297
733.051	0.006627
742.695	0.008427
752.34	0.011227
761.985	0.013477
771.63	0.012207
781.275	0.009767
790.919	0.007957
800.564	0.007247
810.209	0.007717
819.854	0.003837
829.498	0.007607
839.143	0.007657
848.788	0.007667
858.433	0.007847
868.078	0.008777
877.722	0.008877
887.367	0.008487
897.012	0.007527
906.657	0.007117
916.301	0.006607
925.946	0.005197
935.591	0.004767
945.236	0.004807
954.88	0.004677
964.525	0.006127
974.17	0.008927
983.815	0.008377
993.46	0.005137
1003.1	0.004247
1012.75	0.003997
1022.39	0.004437
1032.04	0.004967
1041.68	0.006237
1051.33	0.005967
1060.97	0.006737
1070.62	0.006667
1080.26	0.007007
1089.91	0.005917
1099.55	0.006637
1109.2	0.005627
1118.84	0.005587
1128.49	0.002397
1138.13	0.004907
1147.78	0.003467
1157.42	0.002537
1167.07	0.002447
1176.71	0.003167
1186.36	0.002497
1196	0.004327
1205.64	0.002497
1215.29	0.004277
1224.93	0.002347
1234.58	0.000563
1244.22	0.003237
1253.87	0.002627
1263.51	0.003037
1273.16	0.002877
1282.8	0.002467
1292.45	0.002757
1302.09	0.002507
1311.74	0.002757
1321.38	0.002517
1331.03	0.002967
1340.67	0.003527
1350.32	0.004237
1359.96	0.004767
1369.61	0.004477
1379.25	0.003837
1388.9	0.003677
1398.54	0.004387
1408.18	0.004807
1417.83	0.005507
1427.47	0.006087
1437.12	0.007957
1446.76	0.010627
1456.41	0.014207
1466.05	0.018427
1475.7	0.021777
1485.34	0.025367
1494.99	0.024907
1504.63	0.018287
1514.28	0.008987
1523.92	0.005447
1533.57	0.003997
1543.21	0.004297
1552.86	0.005337
1562.5	0.010407
1572.15	0.022747
1581.79	0.028607
1591.44	0.024027
1601.08	0.020247
1610.73	0.024487
1620.37	0.022137
1630.01	0.013057
1639.66	0.006757
1649.3	0.004197
1658.95	0.002797
1668.59	0.002287
1678.24	0.0018367
1687.88	0.0017753
1697.53	0.0015471
1707.17	0.0014591
1716.82	0.0014648
1726.46	0.0014007
1736.11	0.0014999
1745.75	0.0015409
1755.4	0.0016307
1765.04	0.0015477
1774.69	0.0017068
1784.33	0.0015673
1793.98	0.0015582
1803.62	0.0013565
1813.27	0.0014844
1822.91	0.0013572
1832.55	0.001477
1842.2	0.0014542
1851.84	0.0014
1861.49	0.0014177
1871.13	0.0014718
1880.78	0.0012868
1890.42	0.0013676
1900.07	0.0015876
1909.71	0.0015116
1919.36	0.0014993
1929	0.0014637
1938.65	0.0012986
1948.29	0.0010747
1957.94	0.0011601
1967.58	0.0013274
1977.23	0.00086502
1986.87	0.0011773
1996.52	0.0010783
2006.16	0.0010721
2015.81	0.0010468
2025.45	0.001155
2035.1	0.00093978
2044.74	0.0011946
2054.38	0.0013331
2064.03	0.0014331
2073.67	0.0015086
2083.32	0.0012344
2092.96	0.0011708
2102.61	0.0015107
2112.25	0.0012256
2121.9	0.0012114
2131.54	0.0011107
2141.19	0.0016069
2150.83	0.0012765
2160.48	0.0013087
2170.12	0.0011592
2179.77	0.0012672
2189.41	0.0012254
2199.06	0.0012682
2208.7	0.0012196
2218.35	0.0011439
2227.99	0.0012817
2237.64	0.0012214
2247.28	0.0010136
2256.92	0.0007511
2266.57	0.0010726
2276.21	0.0009606
2285.86	0.00086325
2295.5	0.0010314
2305.15	0.0011353
2314.79	0.0011554
2324.44	0.0010574
2334.08	0.0011116
2343.73	0.00093791
2353.37	0.00092253
2363.02	0.0009737
2372.66	0.0011999
2382.31	0.0011485
2391.95	0.00086898
2401.6	0.0009655
2411.24	0.00089827
2420.89	0.0007984
2430.53	0.0007731
2440.18	0.0007738
2449.82	0.0011703
2459.47	0.0008626
2469.11	0.001025
2478.75	0.0011369
2488.4	0.0011467
2498.04	0.0010615
2507.69	0.0011763
2517.33	0.0010428
2526.98	0.0009303
2536.62	0.000856512
2546.27	0.000786
2555.91	0.00088452
2565.56	0.000646
2575.2	0.000772
2584.85	0.0011513
2594.49	0.00093845
2604.14	0.00090539
2613.78	0.0010203
2623.43	0.0011616
2633.07	0.00091087
2642.72	0.0009796
2652.36	0.0007709
2662.01	0.0010238
2671.65	0.0010839
2681.29	0.0012671
2690.94	0.001102
2700.58	0.000693
2710.23	0.00087681
2719.87	0.0010619
2729.52	0.0008195
2739.16	0.00086993
2748.81	0.0008262
2758.45	0.0008148
2768.1	0.00087816
2777.74	0.000663
2787.39	0.00089789
2797.03	0.0008112
2806.68	0.0012013
2816.32	0.000436
2825.97	0.0011387
2835.61	0.0010355
2845.26	0.0009852
2854.9	0.0011763
2864.55	0.0011147
2874.19	0.0013069
2883.84	0.0010488
2893.48	0.0011476
2903.12	0.0008067
2912.77	0.000774
2922.41	0.0009814
2932.06	0.0010587
2941.7	0.000532
2951.35	0.000707
2960.99	0.0013004
2970.64	0.0012503
2980.28	0.0014672
2989.93	0.003067
2999.57	0.004257
3009.22	0.006127
3018.86	0.007947
3028.51	0.007267
3038.15	0.005027
3047.8	0.003167
3057.44	0.002437
3067.09	0.002657
3076.73	0.002307
3086.38	0.005687
3096.02	0.007027
3105.67	0.005177
3115.31	0.002037
3124.95	0.001957
3134.6	0.0016489
3144.24	0.0012376
3153.89	0.00091492
3163.53	0.0010553
3173.18	0.0012732
3182.82	0.00088963
3192.47	0.0009791
3202.11	0.0007659
3211.76	0.0014225
3221.4	0.000465
3231.05	0.0015027
3240.69	0.0013837
3250.34	0.0013954
3259.98	0.00089429
3269.63	0.000634
3279.27	0.000573
3288.92	0.0011426
3298.56	0.000852901
3308.21	0.000687
3317.85	0.00089636
3327.49	0.0010503
3337.14	0.0013827
3346.78	0.0011486
3356.43	0.000951
3366.07	0.0015901
3375.72	0.0018229
3385.36	0.003067
3395.01	0.003117
3404.65	0.002637
3414.3	0.0015147
3423.94	0.0014076
3433.59	0.001585
3443.23	0.002067
3452.88	0.002287
3462.52	0.003907
3472.17	0.006027
3481.81	0.007737
3491.46	0.011037
3501.1	0.014457
3510.75	0.014767
3520.39	0.012037
3530.04	0.007277
3539.68	0.003687
3549.32	0.002067
3558.97	0.0015573
3568.61	0.0009841
3578.26	0.0013671
3587.9	0.000959
3597.55	0.0011469
3607.19	0.0016528
3616.84	0.0011327
3626.48	0.001308
3636.13	0.0010318
3645.77	0.00093922
3655.42	0.000596
3665.06	0.0010564
3674.71	0.000669
3684.35	0.000555
3694	0.0015219
3703.64	0.000436
3713.29	0.000536
3722.93	0.00122
3732.58	0.000852941
3742.22	0.0010495
3751.86	0.0014279
3761.51	0.0009714
3771.15	0.000646
3780.8	0.001237
3790.44	0.0008053
3800.09	0.00091003
3809.73	0.000672
3819.38	0.000655
3829.02	0.00118
3838.67	0.00084216
3848.31	0.0007713
3857.96	0.000746
3867.6	0.0013034
3877.25	0.0013496
3886.89	0.00091107
3896.54	0.0012633
3906.18	0.000462
3915.83	0.0013477
3925.47	0.0011758
3935.12	0.0015061
3944.76	0.0014259
3954.41	0.0012969
3964.05	0.0013987
3973.69	0.00093093
3983.34	0.0014387
3992.98	0.000491
