Infrared Spectrum: 2-(Pentamethylbenzoyl)thiophene
Formula: C 16 H 18 O S
CAS: 175136-70-6
State: gas
Origin: EPA-IR VAPOR PHASE LIBRARY
1/CM	ABSORBANCE
549.8	0.002034
559.445	0.00077797
569.09	0.003364
578.734	0.002814
588.379	0.002844
598.024	0.006034
607.669	0.004844
617.313	0.003134
626.958	0.002504
636.603	0.002494
646.248	0.002134
655.893	0.003174
665.537	0.010514
675.182	0.005364
684.827	0.003274
694.472	0.005804
704.116	0.028854
713.761	0.070744
723.406	0.030244
733.051	0.010654
742.695	0.007944
752.34	0.008084
761.985	0.005734
771.63	0.003294
781.275	0.002884
790.919	0.003944
800.564	0.004854
810.209	0.006234
819.854	0.012054
829.498	0.038364
839.143	0.055734
848.788	0.016504
858.433	0.013034
868.078	0.015354
877.722	0.020474
887.367	0.006344
897.012	0.002924
906.657	0.002104
916.301	0.001964
925.946	0.001944
935.591	0.001824
945.236	0.002184
954.88	0.002944
964.525	0.003234
974.17	0.003394
983.815	0.003754
993.46	0.003734
1003.1	0.004244
1012.75	0.005604
1022.39	0.013194
1032.04	0.020394
1041.68	0.014734
1051.33	0.015294
1060.97	0.017514
1070.62	0.012284
1080.26	0.013934
1089.91	0.006044
1099.55	0.003724
1109.2	0.003544
1118.84	0.003214
1128.49	0.002124
1138.13	0.002484
1147.78	0.002544
1157.42	0.006424
1167.07	0.017944
1176.71	0.021974
1186.36	0.011844
1196	0.025054
1205.64	0.042574
1215.29	0.020984
1224.93	0.028594
1234.58	0.024584
1244.22	0.010144
1253.87	0.021484
1263.51	0.045624
1273.16	0.027584
1282.8	0.016854
1292.45	0.029204
1302.09	0.042754
1311.74	0.029134
1321.38	0.011874
1331.03	0.007374
1340.67	0.010244
1350.32	0.029044
1359.96	0.021644
1369.61	0.009904
1379.25	0.011374
1388.9	0.016764
1398.54	0.026554
1408.18	0.051034
1417.83	0.057244
1427.47	0.035554
1437.12	0.019604
1446.76	0.015804
1456.41	0.015204
1466.05	0.014134
1475.7	0.013014
1485.34	0.011524
1494.99	0.012854
1504.63	0.024684
1514.28	0.035024
1523.92	0.015034
1533.57	0.010124
1543.21	0.010214
1552.86	0.010084
1562.5	0.012044
1572.15	0.011014
1581.79	0.008774
1591.44	0.007154
1601.08	0.006864
1610.73	0.006924
1620.37	0.007884
1630.01	0.009524
1639.66	0.011364
1649.3	0.016324
1658.95	0.041814
1668.59	0.100274
1678.24	0.097134
1687.88	0.032854
1697.53	0.012624
1707.17	0.011444
1716.82	0.008314
1726.46	0.005154
1736.11	0.003824
1745.75	0.003504
1755.4	0.003674
1765.04	0.002754
1774.69	0.002694
1784.33	0.002314
1793.98	0.002584
1803.62	0.003274
1813.27	0.003314
1822.91	0.002734
1832.55	0.001954
1842.2	0.0016627
1851.84	0.0015334
1861.49	0.0015955
1871.13	0.0014369
1880.78	0.0017008
1890.42	0.0016579
1900.07	0.0015751
1909.71	0.0017034
1919.36	0.0016631
1929	0.0014171
1938.65	0.0013681
1948.29	0.0014298
1957.94	0.0015095
1967.58	0.0016293
1977.23	0.0015261
1986.87	0.0015757
1996.52	0.0013464
2006.16	0.0015542
2015.81	0.0015286
2025.45	0.001333
2035.1	0.0015103
2044.74	0.0014463
2054.38	0.0014389
2064.03	0.0013876
2073.67	0.0014751
2083.32	0.0013295
2092.96	0.0014991
2102.61	0.0016196
2112.25	0.0016349
2121.9	0.0016663
2131.54	0.0017723
2141.19	0.001591
2150.83	0.0015629
2160.48	0.0014138
2170.12	0.0015832
2179.77	0.0014786
2189.41	0.0011981
2199.06	0.0013382
2208.7	0.0016119
2218.35	0.0013317
2227.99	0.0011493
2237.64	0.0012445
2247.28	0.0014471
2256.92	0.0016194
2266.57	0.0014602
2276.21	0.0013613
2285.86	0.0014339
2295.5	0.0014318
2305.15	0.0015358
2314.79	0.0011715
2324.44	0.0012832
2334.08	0.0010814
2343.73	0.0016445
2353.37	0.0013014
2363.02	0.0016946
2372.66	0.0016514
2382.31	0.0015921
2391.95	0.0017034
2401.6	0.001794
2411.24	0.001864
2420.89	0.001794
2430.53	0.001944
2440.18	0.002044
2449.82	0.002284
2459.47	0.002024
2469.11	0.0017111
2478.75	0.001763
2488.4	0.0017443
2498.04	0.0013881
2507.69	0.0016709
2517.33	0.001854
2526.98	0.0016308
2536.62	0.0015078
2546.27	0.0015961
2555.91	0.0014527
2565.56	0.0017254
2575.2	0.0015034
2584.85	0.0014745
2594.49	0.001994
2604.14	0.002054
2613.78	0.002014
2623.43	0.001924
2633.07	0.0017768
2642.72	0.0015203
2652.36	0.001834
2662.01	0.001854
2671.65	0.0012701
2681.29	0.002014
2690.94	0.001854
2700.58	0.002024
2710.23	0.002404
2719.87	0.002604
2729.52	0.002754
2739.16	0.003634
2748.81	0.003704
2758.45	0.003054
2768.1	0.003354
2777.74	0.003144
2787.39	0.003424
2797.03	0.003804
2806.68	0.004024
2816.32	0.004724
2825.97	0.005174
2835.61	0.006384
2845.26	0.008654
2854.9	0.011694
2864.55	0.016624
2874.19	0.024314
2883.84	0.026844
2893.48	0.026964
2903.12	0.028104
2912.77	0.031424
2922.41	0.037054
2932.06	0.044684
2941.7	0.047104
2951.35	0.040574
2960.99	0.030554
2970.64	0.023214
2980.28	0.020244
2989.93	0.020044
2999.57	0.020274
3009.22	0.019134
3018.86	0.018394
3028.51	0.017344
3038.15	0.015794
3047.8	0.014064
3057.44	0.011724
3067.09	0.010214
3076.73	0.010824
3086.38	0.010654
3096.02	0.008564
3105.67	0.006344
3115.31	0.005564
3124.95	0.003644
3134.6	0.003064
3144.24	0.002534
3153.89	0.002034
3163.53	0.002034
3173.18	0.0015047
3182.82	0.0016483
3192.47	0.0012196
3202.11	0.001732
3211.76	0.002124
3221.4	0.0013818
3231.05	0.0015325
3240.69	0.0014074
3250.34	0.0009343
3259.98	0.0016701
3269.63	0.001924
3279.27	0.0014342
3288.92	0.0015549
3298.56	0.0014223
3308.21	0.002034
3317.85	0.002464
3327.49	0.002044
3337.14	0.002214
3346.78	0.0014657
3356.43	0.0017418
3366.07	0.0012317
3375.72	0.001359
3385.36	0.00078282
3395.01	0.0016555
3404.65	0.000619
3414.3	0.0009831
3423.94	0.0012974
3433.59	0.0013701
3443.23	0.0014844
3452.88	0.0012723
3462.52	0.0012636
3472.17	0.0013784
3481.81	0.0012783
3491.46	0.001117
3501.1	0.00087359
3510.75	0.0007016
3520.39	0.000972
3530.04	0.0014145
3539.68	0.0010362
3549.32	0.00086459
3558.97	0.0013763
3568.61	0.0011094
3578.26	0.001551
3587.9	0.000733
3597.55	0.0017004
3607.19	0.001563
3616.84	0.000672
3626.48	0.00087679
3636.13	0.000574
3645.77	0.00118
3655.42	0.000787559
3665.06	0.00052
3674.71	0
3684.35	0.001542
3694	0.0013263
3703.64	0.001199
3713.29	0.000665
3722.93	0.0007981
3732.58	0.000631
3742.22	0.0015427
3751.86	0.001159
3761.51	0.00080921
3771.15	0.0011649
3780.8	0.0008929
3790.44	0.0007313
3800.09	0.0010991
3809.73	0.0010803
3819.38	0.00068
3829.02	0.0015385
3838.67	0.0009672
3848.31	0.0013067
3857.96	0.0014546
3867.6	0.001518
3877.25	0.0012542
3886.89	0.00082991
3896.54	0.000567
3906.18	0.000675
3915.83	0.0015366
3925.47	0.000999
3935.12	0.0012638
3944.76	0.001824
3954.41	0.001609
3964.05	0.0015842
3973.69	0.0016094
3983.34	0.0012604
3992.98	0.0011467
