Infrared Spectrum: RHODANINE, 5-(P-CHLOROBENZYLIDENE)-3-(P-CHLOROBENZYLIDENEAMINO)-
Formula: C17 H10 Cl2 N2 O S2
CAS: 17521-25-4
State: SOLID (KBr PELLET)
Melting point: 180-183 C
Class: COBLENTZ
Instrument: Not specified, most likely a prism, grating, or hybrid spectrometer.
Sampling: TRANSMISSION
Resolution: 4
Origin: TENNESSEE EASTMAN COMPANY, RESEARCH LABORATORIES
MICROMETERS	TRANSMITTANCE
2	0.688
2.04086	0.692
2.08172	0.702
2.12258	0.714
2.16344	0.724
2.20429	0.729
2.24515	0.736
2.28601	0.74
2.32687	0.747
2.36773	0.755
2.40859	0.755
2.44945	0.76
2.49031	0.767
2.53117	0.77
2.57202	0.77
2.61288	0.772
2.65374	0.779
2.6946	0.777
2.73546	0.764
2.77632	0.721
2.81718	0.7
2.85804	0.675
2.89889	0.656
2.93975	0.659
2.98061	0.712
3.02147	0.75
3.06233	0.769
3.10319	0.789
3.14405	0.8
3.18491	0.805
3.22577	0.818
3.26662	0.818
3.30748	0.822
3.34834	0.839
3.3892	0.842
3.43006	0.854
3.47092	0.858
3.51178	0.859
3.55264	0.868
3.5935	0.87
3.63435	0.873
3.67521	0.88
3.71607	0.883
3.75693	0.883
3.79779	0.885
3.83865	0.892
3.87951	0.894
3.92037	0.895
3.96123	0.897
4.00208	0.9
4.04294	0.9
4.0838	0.907
4.12466	0.909
4.16552	0.909
4.20638	0.912
4.24724	0.911
4.2881	0.909
4.32895	0.907
4.36981	0.916
4.41067	0.923
4.45153	0.926
4.49239	0.929
4.53325	0.931
4.57411	0.931
4.61497	0.931
4.65583	0.933
4.69668	0.935
4.73754	0.936
4.7784	0.938
4.81926	0.941
4.86012	0.941
4.90098	0.941
4.94184	0.941
4.9827	0.948
5.02356	0.952
5.06441	0.952
5.10527	0.95
5.14613	0.95
5.18699	0.943
5.22785	0.938
5.26871	0.94
5.30957	0.943
5.35043	0.948
5.39129	0.95
5.43214	0.952
5.473	0.952
5.51386	0.941
5.55472	0.929
5.59558	0.933
5.63644	0.935
5.6773	0.933
5.71816	0.89
5.75901	0.731
5.79987	0.569
5.84073	0.425
5.88159	0.312
5.92245	0.758
5.96331	0.827
6.00417	0.847
6.04503	0.852
6.08589	0.852
6.12674	0.835
6.1676	0.748
6.20846	0.447
6.24932	0.401
6.29018	0.388
6.33104	0.805
6.3719	0.67
6.41276	0.885
6.45362	0.904
6.49447	0.917
6.53533	0.916
6.57619	0.904
6.61705	0.868
6.65791	0.61
6.69877	0.613
6.73963	0.87
6.78049	0.89
6.82135	0.911
6.8622	0.923
6.90306	0.94
6.94392	0.941
6.98478	0.941
7.02564	0.929
7.0665	0.729
7.10736	0.728
7.14822	0.844
7.18907	0.813
7.22993	0.683
7.27079	0.755
7.31165	0.832
7.35251	0.851
7.39337	0.859
7.43423	0.858
7.47509	0.829
7.51595	0.779
7.5568	0.69
7.59766	0.564
7.63852	0.389
7.67938	0.548
7.72024	0.55
7.7611	0.478
7.80196	0.362
7.84282	0.205
7.88368	0.193
7.92453	0.338
7.96539	0.295
8.00625	0.251
8.04711	0.319
8.08797	0.521
8.12883	0.629
8.16969	0.642
8.21055	0.625
8.25141	0.459
8.29226	0.533
8.33312	0.69
8.37398	0.758
8.41484	0.726
8.4557	0.774
8.49656	0.74
8.53742	0.788
8.57828	0.846
8.61913	0.868
8.65999	0.873
8.70085	0.88
8.74171	0.887
8.78257	0.89
8.82343	0.873
8.86429	0.736
8.90515	0.757
8.94601	0.803
8.98686	0.719
9.02772	0.61
9.06858	0.555
9.10944	0.47
9.1503	0.251
9.19116	0.454
9.23202	0.652
9.27288	0.745
9.31374	0.769
9.35459	0.788
9.39545	0.784
9.43631	0.77
9.47717	0.786
9.51803	0.798
9.55889	0.803
9.59975	0.822
9.64061	0.832
9.68147	0.832
9.72232	0.832
9.76318	0.822
9.80404	0.736
9.8449	0.61
9.88576	0.709
9.92662	0.823
9.96748	0.861
10.0083	0.882
10.0492	0.888
10.0901	0.897
10.1309	0.902
10.1718	0.902
10.2126	0.897
10.2535	0.87
10.2943	0.847
10.3352	0.847
10.3761	0.815
10.4169	0.793
10.4578	0.803
10.4986	0.823
10.5395	0.841
10.5804	0.854
10.6212	0.87
10.6621	0.885
10.7029	0.909
10.7438	0.921
10.7847	0.931
10.8255	0.935
10.8664	0.935
10.9072	0.935
10.9481	0.935
10.9889	0.905
11.0298	0.841
11.0707	0.745
11.1115	0.839
11.1524	0.871
11.1932	0.885
11.2341	0.888
11.275	0.89
11.3158	0.899
11.3567	0.902
11.3975	0.902
11.4384	0.9
11.4793	0.909
11.5201	0.911
11.561	0.9
11.6018	0.847
11.6427	0.786
11.6835	0.782
11.7244	0.8
11.7653	0.835
11.8061	0.849
11.847	0.832
11.8878	0.782
11.9287	0.786
11.9696	0.788
12.0104	0.711
12.0513	0.545
12.0921	0.529
12.133	0.577
12.1739	0.487
12.2147	0.437
12.2556	0.615
12.2964	0.76
12.3373	0.817
12.3781	0.852
12.419	0.883
12.4599	0.911
12.5007	0.929
12.5416	0.943
12.5824	0.948
12.6233	0.952
12.6642	0.95
12.705	0.952
12.7459	0.947
12.7867	0.926
12.8276	0.892
12.8685	0.887
12.9093	0.919
12.9502	0.94
12.991	0.948
13.0319	0.952
13.0728	0.957
13.1136	0.962
13.1545	0.965
13.1953	0.965
13.2362	0.967
13.277	0.969
13.3179	0.969
13.3588	0.969
13.3996	0.969
13.4405	0.969
13.4813	0.969
13.5222	0.969
13.5631	0.96
13.6039	0.945
13.6448	0.904
13.6856	0.82
13.7265	0.782
13.7674	0.813
13.8082	0.83
13.8491	0.834
13.8899	0.873
13.9308	0.917
13.9716	0.945
14.0125	0.952
14.0534	0.95
14.0942	0.94
14.1351	0.924
14.1759	0.895
14.2168	0.832
14.2577	0.81
14.2985	0.839
14.3394	0.912
14.3802	0.962
14.4211	0.981
14.462	0.993
14.5028	0.996
14.5437	0.996
14.5845	0.996
14.6254	0.991
14.6662	0.984
14.7071	0.984
14.748	0.986
14.7888	0.988
14.8297	0.991
14.8705	0.994
14.9114	0.994
14.9523	0.989
14.9931	0.97
15.034	0.96
15.0748	0.958
15.1157	0.957
15.1566	0.933
15.1974	0.905
15.2383	0.9
15.2791	0.897
15.32	0.899
15.3608	0.899
15.4017	0.897
15.4426	0.895
15.4834	0.895
15.5243	0.894
15.5651	0.89
15.606	0.88
15.6469	0.875
15.6877	0.859
15.7286	0.849
15.7694	0.839
15.8103	0.822
15.8512	0.803
15.892	0.784
15.9329	0.781
