Infrared Spectrum: RHODANINE, 5-M-NITROBENZYLIDENE-3-M-NITROBENZYLIDENEAMINO-
Formula: C17 H10 N4 O5 S2
CAS: 17521-29-8
Melting point: 265-266 C DECOMPOSES
Class: COBLENTZ
Instrument: Not specified, most likely a prism, grating, or hybrid spectrometer.
Sampling: TRANSMISSION
Resolution: 4
Origin: TENNESSEE EASTMAN COMPANY, RESEARCH LABORATORIES
MICROMETERS	TRANSMITTANCE
2.014	0.301
2.05505	0.301
2.09609	0.301
2.13714	0.303
2.17819	0.308
2.21924	0.319
2.26028	0.331
2.30133	0.343
2.34238	0.353
2.38342	0.368
2.42447	0.382
2.46552	0.394
2.50657	0.401
2.54761	0.406
2.58866	0.413
2.62971	0.43
2.67076	0.447
2.7118	0.449
2.75285	0.415
2.7939	0.367
2.83494	0.325
2.87599	0.277
2.91704	0.267
2.95809	0.271
2.99913	0.322
3.04018	0.389
3.08123	0.418
3.12227	0.456
3.16332	0.499
3.20437	0.528
3.24542	0.531
3.28646	0.557
3.32751	0.572
3.36856	0.608
3.40961	0.612
3.45065	0.631
3.4917	0.641
3.53275	0.665
3.57379	0.679
3.61484	0.694
3.65589	0.701
3.69694	0.708
3.73798	0.713
3.77903	0.72
3.82008	0.727
3.86112	0.737
3.90217	0.747
3.94322	0.754
3.98427	0.763
4.02531	0.77
4.06636	0.78
4.10741	0.785
4.14846	0.789
4.1895	0.795
4.23055	0.799
4.2716	0.802
4.31264	0.807
4.35369	0.813
4.39474	0.825
4.43579	0.83
4.47683	0.833
4.51788	0.837
4.55893	0.838
4.59997	0.843
4.64102	0.85
4.68207	0.852
4.72312	0.854
4.76416	0.855
4.80521	0.862
4.84626	0.866
4.8873	0.867
4.92835	0.871
4.9694	0.873
5.01045	0.883
5.05149	0.883
5.09254	0.885
5.13359	0.888
5.17464	0.89
5.21568	0.895
5.25673	0.9
5.29778	0.905
5.33882	0.91
5.37987	0.91
5.42092	0.91
5.46197	0.91
5.50301	0.91
5.54406	0.91
5.58511	0.91
5.62615	0.905
5.6672	0.855
5.70825	0.789
5.7493	0.668
5.79034	0.387
5.83139	0.481
5.87244	0.723
5.91349	0.792
5.95453	0.797
5.99558	0.797
6.03663	0.785
6.07767	0.747
6.11872	0.713
6.15977	0.655
6.20082	0.55
6.24186	0.579
6.28291	0.794
6.32396	0.802
6.365	0.797
6.40605	0.804
6.4471	0.668
6.48815	0.262
6.52919	0.204
6.57024	0.662
6.61129	0.801
6.65234	0.847
6.69338	0.843
6.73443	0.789
6.77548	0.852
6.81652	0.878
6.85757	0.883
6.89862	0.852
6.93967	0.842
6.98071	0.871
7.02176	0.891
7.06281	0.898
7.10385	0.898
7.1449	0.89
7.18595	0.797
7.227	0.68
7.26804	0.725
7.30909	0.711
7.35014	0.408
7.39119	0.13
7.43223	0.404
7.47328	0.583
7.51433	0.614
7.55537	0.675
7.59642	0.655
7.63747	0.511
7.67852	0.518
7.71956	0.598
7.76061	0.734
7.80166	0.73
7.8427	0.722
7.88375	0.742
7.9248	0.701
7.96585	0.555
8.00689	0.325
8.04794	0.159
8.08899	0.116
8.13003	0.252
8.17108	0.457
8.21213	0.452
8.25318	0.236
8.29422	0.421
8.33527	0.638
8.37632	0.746
8.41737	0.799
8.45841	0.811
8.49946	0.819
8.54051	0.823
8.58155	0.837
8.6226	0.849
8.66365	0.862
8.7047	0.874
8.74574	0.879
8.78679	0.883
8.82784	0.885
8.86888	0.886
8.90993	0.886
8.95098	0.871
8.99203	0.807
9.03307	0.756
9.07412	0.725
9.11517	0.679
9.15622	0.686
9.19726	0.742
9.23831	0.754
9.27936	0.804
9.3204	0.845
9.36145	0.861
9.4025	0.866
9.44355	0.852
9.48459	0.811
9.52564	0.821
9.56669	0.857
9.60773	0.876
9.64878	0.883
9.68983	0.89
9.73088	0.895
9.77192	0.897
9.81297	0.902
9.85402	0.905
9.89507	0.915
9.93611	0.915
9.97716	0.917
10.0182	0.919
10.0593	0.921
10.1003	0.922
10.1413	0.924
10.1824	0.922
10.2234	0.905
10.2645	0.903
10.3055	0.897
10.3466	0.85
10.3876	0.849
10.4287	0.876
10.4697	0.898
10.5108	0.903
10.5518	0.919
10.5929	0.924
10.6339	0.929
10.675	0.929
10.716	0.929
10.7571	0.924
10.7981	0.862
10.8392	0.811
10.8802	0.794
10.9212	0.804
10.9623	0.79
11.0033	0.837
11.0444	0.898
11.0854	0.927
11.1265	0.943
11.1675	0.951
11.2086	0.962
11.2496	0.96
11.2907	0.962
11.3317	0.963
11.3728	0.97
11.4138	0.974
11.4549	0.977
11.4959	0.981
11.537	0.984
11.578	0.986
11.619	0.989
11.6601	0.989
11.7011	0.989
11.7422	0.97
11.7832	0.939
11.8243	0.902
11.8653	0.864
11.9064	0.854
11.9474	0.835
11.9885	0.859
12.0295	0.914
12.0706	0.936
12.1116	0.945
12.1527	0.941
12.1937	0.915
12.2348	0.85
12.2758	0.821
12.3169	0.814
12.3579	0.811
12.3989	0.813
12.44	0.869
12.481	0.927
12.5221	0.951
12.5631	0.963
12.6042	0.972
12.6452	0.972
12.6863	0.955
12.7273	0.919
12.7684	0.917
12.8094	0.936
12.8505	0.951
12.8915	0.967
12.9326	0.974
12.9736	0.979
13.0147	0.979
13.0557	0.982
13.0967	0.982
13.1378	0.986
13.1788	0.989
13.2199	0.989
13.2609	0.989
13.302	0.989
13.343	0.979
13.3841	0.922
13.4251	0.744
13.4662	0.61
13.5072	0.542
13.5483	0.631
13.5893	0.806
13.6304	0.886
13.6714	0.921
13.7125	0.927
13.7535	0.929
13.7946	0.929
13.8356	0.924
13.8766	0.926
13.9177	0.931
13.9587	0.941
13.9998	0.941
14.0408	0.909
14.0819	0.862
14.1229	0.85
14.164	0.881
14.205	0.924
14.2461	0.933
14.2871	0.936
14.3282	0.939
14.3692	0.951
14.4103	0.972
14.4513	0.987
14.4924	1.001
14.5334	1.001
14.5744	1.001
14.6155	1.001
14.6565	1.003
14.6976	0.994
14.7386	0.975
14.7797	0.938
14.8207	0.903
14.8618	0.873
14.9028	0.855
14.9439	0.838
14.9849	0.814
15.026	0.804
15.067	0.816
15.1081	0.854
15.1491	0.89
15.1902	0.922
15.2312	0.934
15.2723	0.943
15.3133	0.948
15.3543	0.95
15.3954	0.95
15.4364	0.95
15.4775	0.943
15.5185	0.926
15.5596	0.909
15.6006	0.891
15.6417	0.879
15.6827	0.878
15.7238	0.879
15.7648	0.879
15.8059	0.879
15.8469	0.878
15.888	0.876
15.929	0.871
15.9701	0.862
16.0111	0.857
