Infrared Spectrum: 2-Bromo-4,6-difluoroiodobenzene
Formula: C 6 H 2 Br F 2 I
CAS: 175278-11-2
State: gas
Origin: EPA-IR VAPOR PHASE LIBRARY
1/CM	ABSORBANCE
549.8	0.002704
559.445	0.003904
569.09	0.006664
578.734	0.024544
588.379	0.024244
598.024	0.008914
607.669	0.007344
617.313	0.003694
626.958	0.001764
636.603	0.000716
646.248	0.0012273
655.893	0.0012621
665.537	0.0015061
675.182	0.003304
684.827	0.005504
694.472	0.002484
704.116	0.000521
713.761	0.0008746
723.406	0.0014345
733.051	0.0007268
742.695	0.003034
752.34	0.001984
761.985	0.0014789
771.63	0.001727
781.275	0.001984
790.919	0.0016302
800.564	0.0017359
810.209	0.003524
819.854	0.011924
829.498	0.049304
839.143	0.086564
848.788	0.076874
858.433	0.036774
868.078	0.005114
877.722	0.002654
887.367	0.002014
897.012	0.001964
906.657	0.002914
916.301	0.002414
925.946	0.0015343
935.591	0.001884
945.236	0.001964
954.88	0.0014509
964.525	0.002004
974.17	0.004324
983.815	0.008394
993.46	0.047604
1003.1	0.044514
1012.75	0.006634
1022.39	0.002564
1032.04	0.002714
1041.68	0.001774
1051.33	0.002454
1060.97	0.002204
1070.62	0.0011195
1080.26	0.0013163
1089.91	0.002994
1099.55	0.004554
1109.2	0.015364
1118.84	0.086534
1128.49	0.062764
1138.13	0.008084
1147.78	0.009894
1157.42	0.027634
1167.07	0.035824
1176.71	0.011594
1186.36	0.003134
1196	0.002764
1205.64	0.003534
1215.29	0.003964
1224.93	0.004724
1234.58	0.006464
1244.22	0.016284
1253.87	0.019694
1263.51	0.008074
1273.16	0.009684
1282.8	0.028914
1292.45	0.041534
1302.09	0.015624
1311.74	0.003184
1321.38	0.002604
1331.03	0.002604
1340.67	0.002434
1350.32	0.002574
1359.96	0.004394
1369.61	0.008144
1379.25	0.016844
1388.9	0.028204
1398.54	0.052814
1408.18	0.096594
1417.83	0.080534
1427.47	0.102684
1437.12	0.107244
1446.76	0.018194
1456.41	0.012174
1466.05	0.005434
1475.7	0.002674
1485.34	0.002584
1494.99	0.003374
1504.63	0.005934
1514.28	0.010254
1523.92	0.011734
1533.57	0.008274
1543.21	0.011134
1552.86	0.021234
1562.5	0.033904
1572.15	0.070704
1581.79	0.178834
1591.44	0.173884
1601.08	0.067684
1610.73	0.029094
1620.37	0.013434
1630.01	0.006554
1639.66	0.004794
1649.3	0.004744
1658.95	0.004314
1668.59	0.004664
1678.24	0.005774
1687.88	0.006954
1697.53	0.004874
1707.17	0.002874
1716.82	0.0016533
1726.46	0.0012054
1736.11	0.0011192
1745.75	0.0013489
1755.4	0.0013039
1765.04	0.0007763
1774.69	0.00078662
1784.33	0.0007244
1793.98	0.00078183
1803.62	0.0009173
1813.27	0.0011292
1822.91	0.00085135
1832.55	0.00082116
1842.2	0.0011282
1851.84	0.0011477
1861.49	0.0012022
1871.13	0.0013038
1880.78	0.00083208
1890.42	0.000905
1900.07	0.00083845
1909.71	0.000587
1919.36	0.0010101
1929	0.00078812
1938.65	0.0010499
1948.29	0.0011226
1957.94	0.0016129
1967.58	0.0015303
1977.23	0.0011221
1986.87	0.0010387
1996.52	0.0010101
2006.16	0.00083032
2015.81	0.0009553
2025.45	0.000761393
2035.1	0.0006971
2044.74	0.0009981
2054.38	0.00087
2064.03	0.0011078
2073.67	0.0010157
2083.32	0.0008959
2092.96	0.0011144
2102.61	0.001551
2112.25	0.001924
2121.9	0.002014
2131.54	0.0013403
2141.19	0.0010903
2150.83	0.001013
2160.48	0.0009897
2170.12	0.0011001
2179.77	0.000633
2189.41	0.0008938
2199.06	0.0009782
2208.7	0.0010193
2218.35	0.000632
2227.99	0.0008668
2237.64	0.0013881
2247.28	0.0014438
2256.92	0.0012267
2266.57	0.0012644
2276.21	0.0014342
2285.86	0.0016299
2295.5	0.0010771
2305.15	0.0007205
2314.79	0.00084046
2324.44	0.001192
2334.08	0.000558
2343.73	0.000895
2353.37	0.0009514
2363.02	0.0009602
2372.66	0.0010746
2382.31	0.0009722
2391.95	0.0013445
2401.6	0.002104
2411.24	0.002474
2420.89	0.002374
2430.53	0.001874
2440.18	0.0015007
2449.82	0.001844
2459.47	0.0017256
2469.11	0.0009229
2478.75	0.0008806
2488.4	0.00062
2498.04	0.000754734
2507.69	0.0010494
2517.33	0.0012092
2526.98	0.0011944
2536.62	0.0015051
2546.27	0.0012339
2555.91	0.0013803
2565.56	0.0012223
2575.2	0.0016373
2584.85	0.0014423
2594.49	0.0011404
2604.14	0.0009087
2613.78	0.0008793
2623.43	0.0009958
2633.07	0.00081633
2642.72	0.0009875
2652.36	0.0011604
2662.01	0.0011929
2671.65	0.0013086
2681.29	0.0015015
2690.94	0.0011822
2700.58	0.001458
2710.23	0.0015622
2719.87	0.0013868
2729.52	0.000719
2739.16	0.000854
2748.81	0.0008989
2758.45	0.0009274
2768.1	0.000531
2777.74	0.0006
2787.39	0.000647
2797.03	0.000542
2806.68	0.0007008
2816.32	0.0006662
2825.97	0.0011344
2835.61	0.0011479
2845.26	0.0006935
2854.9	0.0010018
2864.55	0.0006969
2874.19	0.000511
2883.84	0.0007134
2893.48	0.0011331
2903.12	0.000578
2912.77	0.000233
2922.41	0.0010585
2932.06	0.0008789
2941.7	0.0009046
2951.35	0.000553
2960.99	0.000412
2970.64	0.00046
2980.28	0.000551
2989.93	0.000271
2999.57	0.0011606
3009.22	0.000556
3018.86	0.0007357
3028.51	0.000541
3038.15	0.00082638
3047.8	0.000494
3057.44	0.000631
3067.09	0.0006876
3076.73	0.0012044
3086.38	0.002224
3096.02	0.004954
3105.67	0.002244
3115.31	0.0013719
3124.95	0.000461
3134.6	0.001109
3144.24	0.0012594
3153.89	0.0011733
3163.53	0.0012639
3173.18	0.0016328
3182.82	0.0014834
3192.47	0.0009239
3202.11	0.000942
3211.76	0.000171
3221.4	0.0007151
3231.05	0.0007413
3240.69	0.000399
3250.34	0.000615
3259.98	2.4e-05
3269.63	0.0007185
3279.27	0.0013041
3288.92	0.0007222
3298.56	0.000494
3308.21	0.0008786
3317.85	0.0010075
3327.49	0.0012433
3337.14	0.000162
3346.78	0.000321
3356.43	0.000365
3366.07	0.00076731
3375.72	0.000627
3385.36	0.0011471
3395.01	0.0006799
3404.65	0.000391
3414.3	0.0011332
3423.94	0.000639
3433.59	0.0009279
3443.23	0.000632
3452.88	0.00079716
3462.52	0.0007045
3472.17	0.000493
3481.81	4.9e-05
3491.46	0.000419
3501.1	0.000433
3510.75	0.0009454
3520.39	0.001442
3530.04	0.00081532
3539.68	0.0010163
3549.32	0.000571
3558.97	0.00084619
3568.61	0.000472
3578.26	0.0006677
3587.9	0.000176
3597.55	8.1e-05
3607.19	0.000617
3616.84	0.0008574
3626.48	0.0010296
3636.13	0.0010039
3645.77	0.000229
3655.42	0.0008846
3665.06	0.0010804
3674.71	0.0014452
3684.35	0.0007486
3694	0.00079685
3703.64	0.000443
3713.29	0.000326
3722.93	0.0011202
3732.58	0.0007439
3742.22	0.000319
3751.86	0.000648
3761.51	0.0010473
3771.15	0.000652
3780.8	0.0007309
3790.44	0.00081438
3800.09	0.0008598
3809.73	0.001132
3819.38	0.000626
3829.02	0.000762922
3838.67	0.000162
3848.31	0.00079413
3857.96	0.00074884
3867.6	0.0012988
3877.25	0.000468
3886.89	0.0006627
3896.54	0.000611
3906.18	0.0007253
3915.83	0.0013728
3925.47	0.00078264
3935.12	0.0006739
3944.76	0.0009828
3954.41	0.000118
3964.05	0.0010123
3973.69	0.0007128
3983.34	0.0003
3992.98	0.000368
