Infrared Spectrum: 2-Chloro-4-fluorothiophenol
Formula: C 6 H 4 Cl F S
CAS: 175277-99-3
State: gas
Origin: EPA-IR VAPOR PHASE LIBRARY
1/CM	ABSORBANCE
549.8	0.003317
559.445	0.003877
569.09	0.008817
578.734	0.006547
588.379	0.004507
598.024	0.0018441
607.669	0.002557
617.313	0.008117
626.958	0.028097
636.603	0.032357
646.248	0.009197
655.893	0.003347
665.537	0.003847
675.182	0.006827
684.827	0.011407
694.472	0.009457
704.116	0.003997
713.761	0.0016915
723.406	0.0015835
733.051	0.0017928
742.695	0.002147
752.34	0.003367
761.985	0.003217
771.63	0.003587
781.275	0.008897
790.919	0.019077
800.564	0.030737
810.209	0.025927
819.854	0.014377
829.498	0.006317
839.143	0.007057
848.788	0.022427
858.433	0.050167
868.078	0.042627
877.722	0.033587
887.367	0.041127
897.012	0.060407
906.657	0.048757
916.301	0.018627
925.946	0.010397
935.591	0.009467
945.236	0.007157
954.88	0.005327
964.525	0.003057
974.17	0.002387
983.815	0.003267
993.46	0.003647
1003.1	0.004377
1012.75	0.005447
1022.39	0.012867
1032.04	0.019727
1041.68	0.018367
1051.33	0.005527
1060.97	0.003637
1070.62	0.002087
1080.26	0.002017
1089.91	0.003297
1099.55	0.013397
1109.2	0.035967
1118.84	0.039767
1128.49	0.018567
1138.13	0.008387
1147.78	0.006557
1157.42	0.004587
1167.07	0.004007
1176.71	0.003837
1186.36	0.005247
1196	0.012297
1205.64	0.044967
1215.29	0.058277
1224.93	0.026967
1234.58	0.013247
1244.22	0.029637
1253.87	0.063167
1263.51	0.091467
1273.16	0.075037
1282.8	0.031537
1292.45	0.006887
1302.09	0.004237
1311.74	0.004377
1321.38	0.004677
1331.03	0.004347
1340.67	0.003817
1350.32	0.004507
1359.96	0.009207
1369.61	0.015007
1379.25	0.018297
1388.9	0.017427
1398.54	0.012657
1408.18	0.006267
1417.83	0.008507
1427.47	0.022277
1437.12	0.025607
1446.76	0.022147
1456.41	0.070627
1466.05	0.181747
1475.7	0.166257
1485.34	0.047697
1494.99	0.016067
1504.63	0.014557
1514.28	0.013367
1523.92	0.009817
1533.57	0.007597
1543.21	0.007617
1552.86	0.010967
1562.5	0.023537
1572.15	0.042997
1581.79	0.077047
1591.44	0.099657
1601.08	0.060957
1610.73	0.017337
1620.37	0.008127
1630.01	0.005757
1639.66	0.004427
1649.3	0.004367
1658.95	0.004347
1668.59	0.003537
1678.24	0.003067
1687.88	0.002997
1697.53	0.003427
1707.17	0.004297
1716.82	0.005797
1726.46	0.005347
1736.11	0.003907
1745.75	0.003047
1755.4	0.002747
1765.04	0.002087
1774.69	0.0018351
1784.33	0.002197
1793.98	0.002377
1803.62	0.002377
1813.27	0.002407
1822.91	0.002187
1832.55	0.002487
1842.2	0.003157
1851.84	0.003637
1861.49	0.004237
1871.13	0.004557
1880.78	0.003857
1890.42	0.002847
1900.07	0.002447
1909.71	0.002317
1919.36	0.0019455
1929	0.001854
1938.65	0.0018911
1948.29	0.0017913
1957.94	0.0016238
1967.58	0.0017468
1977.23	0.0015092
1986.87	0.0015702
1996.52	0.0015399
2006.16	0.0018333
2015.81	0.0017462
2025.45	0.0016022
2035.1	0.0015495
2044.74	0.0015553
2054.38	0.0015309
2064.03	0.0016807
2073.67	0.0017158
2083.32	0.0017576
2092.96	0.0017742
2102.61	0.002277
2112.25	0.002417
2121.9	0.001987
2131.54	0.0017261
2141.19	0.002017
2150.83	0.002247
2160.48	0.002377
2170.12	0.0017761
2179.77	0.001875
2189.41	0.0012983
2199.06	0.0017711
2208.7	0.0013822
2218.35	0.0017198
2227.99	0.0017344
2237.64	0.0015569
2247.28	0.0013642
2256.92	0.001555
2266.57	0.0018189
2276.21	0.0016677
2285.86	0.0015727
2295.5	0.0013771
2305.15	0.0015592
2314.79	0.0012508
2324.44	0.0017027
2334.08	0.0015443
2343.73	0.0016991
2353.37	0.0017557
2363.02	0.002147
2372.66	0.001997
2382.31	0.002077
2391.95	0.00186
2401.6	0.0018571
2411.24	0.0017081
2420.89	0.0017684
2430.53	0.002007
2440.18	0.0015533
2449.82	0.0019159
2459.47	0.002087
2469.11	0.002397
2478.75	0.002637
2488.4	0.002417
2498.04	0.002097
2507.69	0.0017042
2517.33	0.0016527
2526.98	0.002047
2536.62	0.002017
2546.27	0.0017271
2555.91	0.0017086
2565.56	0.0016705
2575.2	0.002207
2584.85	0.003427
2594.49	0.003787
2604.14	0.003447
2613.78	0.002497
2623.43	0.002007
2633.07	0.0015276
2642.72	0.0014268
2652.36	0.0013117
2662.01	0.001388
2671.65	0.0016659
2681.29	0.0016393
2690.94	0.0016646
2700.58	0.0017835
2710.23	0.0015964
2719.87	0.0018262
2729.52	0.0015905
2739.16	0.0015491
2748.81	0.0014095
2758.45	0.0011633
2768.1	0.0011591
2777.74	0.0012092
2787.39	0.0016158
2797.03	0.002077
2806.68	0.0019281
2816.32	0.0019063
2825.97	0.002347
2835.61	0.0016896
2845.26	0.0017047
2854.9	0.0015028
2864.55	0.0009419
2874.19	0.0011362
2883.84	0.0012558
2893.48	0.0013105
2903.12	0.0014969
2912.77	0.0009364
2922.41	0.001636
2932.06	0.00084
2941.7	0.0009846
2951.35	0.0010995
2960.99	0.0013482
2970.64	0.0014931
2980.28	0.0013118
2989.93	0.0011117
2999.57	0.000681
3009.22	0.0015957
3018.86	0.0013438
3028.51	0.0019133
3038.15	0.001997
3047.8	0.002067
3057.44	0.002857
3067.09	0.003757
3076.73	0.005117
3086.38	0.004807
3096.02	0.002747
3105.67	0.002187
3115.31	0.00096075
3124.95	0.0017619
3134.6	0.0013025
3144.24	0.0019284
3153.89	0.0019123
3163.53	0.0012215
3173.18	0.0011808
3182.82	0.0011541
3192.47	0.0013167
3202.11	0.001297
3211.76	0.00101132
3221.4	0.0013315
3231.05	0.001558
3240.69	0.0015657
3250.34	0.0013507
3259.98	0.0011421
3269.63	0.0011459
3279.27	0.0012275
3288.92	0.00103792
3298.56	0.0012716
3308.21	0.0013254
3317.85	0.00102996
3327.49	0.00126
3337.14	0.00075
3346.78	0.000749
3356.43	0.0013406
3366.07	0.000793
3375.72	0.000514
3385.36	0.0013903
3395.01	0.0011759
3404.65	0.0008699
3414.3	0.0015842
3423.94	0.0012491
3433.59	0.000968585
3443.23	0.0015602
3452.88	0.00104377
3462.52	0.001384
3472.17	0.0013206
3481.81	0.0018229
3491.46	0.0015471
3501.1	0.001706
3510.75	0.0016423
3520.39	0.0016834
3530.04	0.0013503
3539.68	0.0015336
3549.32	0.0012863
3558.97	0.0015349
3568.61	0.0016496
3578.26	0.00106176
3587.9	0.0013288
3597.55	0.0012433
3607.19	0.0011675
3616.84	0.000786
3626.48	0.0011128
3636.13	0.000815
3645.77	0.001202
3655.42	0.0009453
3665.06	0.0012739
3674.71	0.000786
3684.35	0.00102543
3694	0.0009402
3703.64	0.0014711
3713.29	0.00104542
3722.93	0.0013827
3732.58	0.0013446
3742.22	0.0017276
3751.86	0.0019427
3761.51	0.0010689
3771.15	0.0012415
3780.8	0.00098016
3790.44	0.0009064
3800.09	0.000741
3809.73	0.000781
3819.38	0.0012843
3829.02	0.0012102
3838.67	0.000832
3848.31	0.0011094
3857.96	0.0014542
3867.6	0.0011238
3877.25	0.00102851
3886.89	0.000121
3896.54	0.00096492
3906.18	0.0013445
3915.83	0.000702
3925.47	0.0011109
3935.12	0.0009391
3944.76	0.000897
3954.41	0.0011853
3964.05	0.000592
3973.69	0.0016293
3983.34	0.0011323
3992.98	1e-06
