Infrared Spectrum: 5-Fluoro-2-methylphenyl isothiocyanate
Formula: C 8 H 6 F N S
CAS: 175205-39-7
State: gas
Origin: EPA-IR VAPOR PHASE LIBRARY
1/CM	ABSORBANCE
549.8	0.020518
559.445	0.019248
569.09	0.016498
578.734	0.014308
588.379	0.016518
598.024	0.016678
607.669	0.008688
617.313	0.004208
626.958	0.004398
636.603	0.008528
646.248	0.009448
655.893	0.005158
665.537	0.003478
675.182	0.007908
684.827	0.013248
694.472	0.009158
704.116	0.003498
713.761	0.003548
723.406	0.005458
733.051	0.013328
742.695	0.034488
752.34	0.026608
761.985	0.005668
771.63	0.004438
781.275	0.006118
790.919	0.013388
800.564	0.032658
810.209	0.043708
819.854	0.037368
829.498	0.055428
839.143	0.090348
848.788	0.082018
858.433	0.071748
868.078	0.046178
877.722	0.016618
887.367	0.009038
897.012	0.011918
906.657	0.016808
916.301	0.014928
925.946	0.010868
935.591	0.007458
945.236	0.005818
954.88	0.006288
964.525	0.009498
974.17	0.015048
983.815	0.016348
993.46	0.013488
1003.1	0.014338
1012.75	0.010488
1022.39	0.005258
1032.04	0.003528
1041.68	0.003338
1051.33	0.003058
1060.97	0.002068
1070.62	0.002048
1080.26	0.002018
1089.91	0.002318
1099.55	0.006028
1109.2	0.021338
1118.84	0.019768
1128.49	0.006168
1138.13	0.008958
1147.78	0.021648
1157.42	0.067298
1167.07	0.073908
1176.71	0.022198
1186.36	0.012668
1196	0.012098
1205.64	0.007548
1215.29	0.004788
1224.93	0.004038
1234.58	0.004878
1244.22	0.009238
1253.87	0.025048
1263.51	0.050188
1273.16	0.056758
1282.8	0.055868
1292.45	0.043988
1302.09	0.022968
1311.74	0.009748
1321.38	0.005668
1331.03	0.003958
1340.67	0.002968
1350.32	0.002588
1359.96	0.002908
1369.61	0.003698
1379.25	0.006548
1388.9	0.010398
1398.54	0.010538
1408.18	0.011298
1417.83	0.012668
1427.47	0.011228
1437.12	0.013158
1446.76	0.024418
1456.41	0.032848
1466.05	0.023278
1475.7	0.020708
1485.34	0.054588
1494.99	0.159258
1504.63	0.176328
1514.28	0.056498
1523.92	0.024188
1533.57	0.021608
1543.21	0.017638
1552.86	0.016718
1562.5	0.019688
1572.15	0.031058
1581.79	0.059208
1591.44	0.101918
1601.08	0.143408
1610.73	0.152738
1620.37	0.105478
1630.01	0.045008
1639.66	0.016948
1649.3	0.008808
1658.95	0.006518
1668.59	0.005498
1678.24	0.004498
1687.88	0.003688
1697.53	0.003668
1707.17	0.004368
1716.82	0.005778
1726.46	0.006368
1736.11	0.006078
1745.75	0.005058
1755.4	0.004088
1765.04	0.003878
1774.69	0.004068
1784.33	0.004448
1793.98	0.004928
1803.62	0.005348
1813.27	0.005898
1822.91	0.006368
1832.55	0.006828
1842.2	0.007588
1851.84	0.008188
1861.49	0.010048
1871.13	0.010858
1880.78	0.008768
1890.42	0.008218
1900.07	0.009998
1909.71	0.013508
1919.36	0.018368
1929	0.026148
1938.65	0.037888
1948.29	0.053558
1957.94	0.073128
1967.58	0.096158
1977.23	0.125008
1986.87	0.161158
1996.52	0.203268
2006.16	0.250458
2015.81	0.310818
2025.45	0.387408
2035.1	0.484708
2044.74	0.592018
2054.38	0.614878
2064.03	0.591308
2073.67	0.572098
2083.32	0.512208
2092.96	0.432298
2102.61	0.337978
2112.25	0.249088
2121.9	0.200108
2131.54	0.185388
2141.19	0.186598
2150.83	0.167908
2160.48	0.116808
2170.12	0.072018
2179.77	0.043108
2189.41	0.028568
2199.06	0.021118
2208.7	0.015838
2218.35	0.013758
2227.99	0.012318
2237.64	0.010148
2247.28	0.008868
2256.92	0.008888
2266.57	0.009428
2276.21	0.009118
2285.86	0.007518
2295.5	0.006168
2305.15	0.005178
2314.79	0.005158
2324.44	0.005688
2334.08	0.005338
2343.73	0.005898
2353.37	0.006538
2363.02	0.005738
2372.66	0.005498
2382.31	0.005538
2391.95	0.005078
2401.6	0.004368
2411.24	0.004438
2420.89	0.005768
2430.53	0.007398
2440.18	0.008128
2449.82	0.007358
2459.47	0.005898
2469.11	0.005168
2478.75	0.004888
2488.4	0.004738
2498.04	0.004818
2507.69	0.005338
2517.33	0.005888
2526.98	0.006818
2536.62	0.007418
2546.27	0.007668
2555.91	0.008078
2565.56	0.008658
2575.2	0.009008
2584.85	0.008738
2594.49	0.007438
2604.14	0.006328
2613.78	0.005588
2623.43	0.004818
2633.07	0.004018
2642.72	0.003008
2652.36	0.002488
2662.01	0.002318
2671.65	0.002228
2681.29	0.002188
2690.94	0.002268
2700.58	0.002488
2710.23	0.002828
2719.87	0.003128
2729.52	0.003658
2739.16	0.004188
2748.81	0.004518
2758.45	0.004438
2768.1	0.003738
2777.74	0.003168
2787.39	0.002958
2797.03	0.002588
2806.68	0.002298
2816.32	0.002468
2825.97	0.002638
2835.61	0.003278
2845.26	0.003968
2854.9	0.005228
2864.55	0.007008
2874.19	0.009058
2883.84	0.009588
2893.48	0.009438
2903.12	0.009148
2912.77	0.009378
2922.41	0.010998
2932.06	0.016888
2941.7	0.018438
2951.35	0.014278
2960.99	0.012808
2970.64	0.012458
2980.28	0.013258
2989.93	0.013638
2999.57	0.010278
3009.22	0.006948
3018.86	0.006288
3028.51	0.007978
3038.15	0.011928
3047.8	0.013198
3057.44	0.009458
3067.09	0.006758
3076.73	0.007048
3086.38	0.005678
3096.02	0.003868
3105.67	0.002558
3115.31	0.001798
3124.95	0.001456
3134.6	0.000945
3144.24	0.0009308
3153.89	0.0006267
3163.53	0.0006251
3173.18	0.000353
3182.82	0.000357
3192.47	0.000374
3202.11	0.000345
3211.76	0.000319
3221.4	0.000276
3231.05	0.0004413
3240.69	0.000176
3250.34	0.000105
3259.98	0.000349
3269.63	0.000348
3279.27	0
3288.92	0.000281
3298.56	0.00018
3308.21	0.000141
3317.85	0.00025
3327.49	0.000248
3337.14	0.000175
3346.78	0.000143
3356.43	0.000257
3366.07	0.000178
3375.72	0.000195
3385.36	0.000218
3395.01	0.0004061
3404.65	0.000495988
3414.3	0.00031
3423.94	0.000313
3433.59	0.000371
3443.23	0.000233
3452.88	0.000232
3462.52	0.000366
3472.17	0.0004688
3481.81	0.000364
3491.46	0.00055321
3501.1	0.00049705
3510.75	0.0003942
3520.39	0.000373
3530.04	0.000490386
3539.68	0.000272
3549.32	0.0004722
3558.97	0.0005924
3568.61	0.0006249
3578.26	0.00050669
3587.9	0.00058339
3597.55	0.00057292
3607.19	0.0003954
3616.84	0.000495717
3626.48	0.0004475
3636.13	0.0004389
3645.77	0.000346
3655.42	0.000496406
3665.06	0.00051696
3674.71	0.0005608
3684.35	0.0004587
3694	0.00058309
3703.64	0.000491738
3713.29	0.0006629
3722.93	0.0008705
3732.58	0.0007913
3742.22	0.0007078
3751.86	0.0006869
3761.51	0.0007197
3771.15	0.0007031
3780.8	0.0008483
3790.44	0.0009004
3800.09	0.0006566
3809.73	0.0006468
3819.38	0.0009745
3829.02	0.0010138
3838.67	0.0010306
3848.31	0.0008087
3857.96	0.0009004
3867.6	0.0010266
3877.25	0.0009571
3886.89	0.0009889
3896.54	0.0013647
3906.18	0.000955
3915.83	0.0012955
3925.47	0.0014515
3935.12	0.001808
3944.76	0.001698
3954.41	0.001828
3964.05	0.001858
3973.69	0.002118
3983.34	0.001988
3992.98	0.002228
