Infrared Spectrum: 7-Amino-4-(methoxymethyl)coumarin
Formula: C 11 H 11 N O 3
CAS: 175205-10-4
State: gas
Origin: EPA-IR VAPOR PHASE LIBRARY
1/CM	ABSORBANCE
549.8	0.004575
559.445	0.005335
569.09	0.003565
578.734	0.005235
588.379	0.004765
598.024	0.004855
607.669	0.004745
617.313	0.005605
626.958	0.005235
636.603	0.004905
646.248	0.006145
655.893	0.010375
665.537	0.012215
675.182	0.012685
684.827	0.008885
694.472	0.008915
704.116	0.007945
713.761	0.007245
723.406	0.007075
733.051	0.006365
742.695	0.006865
752.34	0.005835
761.985	0.005255
771.63	0.004115
781.275	0.004925
790.919	0.005825
800.564	0.007965
810.209	0.007475
819.854	0.006035
829.498	0.005745
839.143	0.011695
848.788	0.017985
858.433	0.018895
868.078	0.016105
877.722	0.011415
887.367	0.006135
897.012	0.004395
906.657	0.005045
916.301	0.006315
925.946	0.005715
935.591	0.004715
945.236	0.004215
954.88	0.005055
964.525	0.005505
974.17	0.009735
983.815	0.013005
993.46	0.010225
1003.1	0.009005
1012.75	0.009155
1022.39	0.004345
1032.04	0.005185
1041.68	0.008335
1051.33	0.008395
1060.97	0.006365
1070.62	0.006355
1080.26	0.008565
1089.91	0.010325
1099.55	0.020405
1109.2	0.032165
1118.84	0.034605
1128.49	0.031375
1138.13	0.026445
1147.78	0.034615
1157.42	0.040545
1167.07	0.019605
1176.71	0.009955
1186.36	0.013435
1196	0.017605
1205.64	0.016105
1215.29	0.008655
1224.93	0.003305
1234.58	0.004245
1244.22	0.004965
1253.87	0.007105
1263.51	0.011905
1273.16	0.008555
1282.8	0.005325
1292.45	0.006225
1302.09	0.013755
1311.74	0.021705
1321.38	0.014335
1331.03	0.015125
1340.67	0.014575
1350.32	0.009305
1359.96	0.007575
1369.61	0.009675
1379.25	0.015965
1388.9	0.019295
1398.54	0.012275
1408.18	0.007405
1417.83	0.005605
1427.47	0.006425
1437.12	0.009065
1446.76	0.008555
1456.41	0.006855
1466.05	0.006115
1475.7	0.004545
1485.34	0.003375
1494.99	0.003235
1504.63	0.004575
1514.28	0.006385
1523.92	0.004775
1533.57	0.004945
1543.21	0.007275
1552.86	0.014435
1562.5	0.022605
1572.15	0.017885
1581.79	0.014055
1591.44	0.017635
1601.08	0.028605
1610.73	0.049135
1620.37	0.077405
1630.01	0.095735
1639.66	0.064435
1649.3	0.025855
1658.95	0.012315
1668.59	0.007895
1678.24	0.006495
1687.88	0.006585
1697.53	0.006635
1707.17	0.008055
1716.82	0.009915
1726.46	0.012735
1736.11	0.015865
1745.75	0.022075
1755.4	0.044365
1765.04	0.128845
1774.69	0.165035
1784.33	0.060795
1793.98	0.016835
1803.62	0.007765
1813.27	0.004765
1822.91	0.003495
1832.55	0.002915
1842.2	0.003215
1851.84	0.003405
1861.49	0.003485
1871.13	0.002845
1880.78	0.002095
1890.42	0.001795
1900.07	0.0015707
1909.71	0.0013087
1919.36	0.0013788
1929	0.0015028
1938.65	0.001765
1948.29	0.001795
1957.94	0.0015957
1967.58	0.0014854
1977.23	0.0015956
1986.87	0.0016203
1996.52	0.0016513
2006.16	0.001985
2015.81	0.002025
2025.45	0.001985
2035.1	0.001705
2044.74	0.001529
2054.38	0.001675
2064.03	0.0013738
2073.67	0.0016182
2083.32	0.001725
2092.96	0.0015508
2102.61	0.0012625
2112.25	0.0010471
2121.9	0.0013298
2131.54	0.0015433
2141.19	0.0014502
2150.83	0.0011736
2160.48	0.0011271
2170.12	0.0012907
2179.77	0.0009981
2189.41	0.0013614
2199.06	0.0011057
2208.7	0.0010874
2218.35	0.0012942
2227.99	0.0014097
2237.64	0.0011375
2247.28	0.0013712
2256.92	0.0013538
2266.57	0.0012563
2276.21	0.001725
2285.86	0.001915
2295.5	0.001945
2305.15	0.001765
2314.79	0.0015377
2324.44	0.0014113
2334.08	0.0013273
2343.73	0.001655
2353.37	0.0014908
2363.02	0.0015162
2372.66	0.0009822
2382.31	0.0013304
2391.95	0.001213
2401.6	0.0011855
2411.24	0.001439
2420.89	0.001471
2430.53	0.001187
2440.18	0.0014243
2449.82	0.0009949
2459.47	0.0009809
2469.11	0.0011865
2478.75	0.0009207
2488.4	0.0011626
2498.04	0.0012135
2507.69	0.0010049
2517.33	0.0011861
2526.98	0.0008356
2536.62	0.0008096
2546.27	0.0008594
2555.91	0.0010916
2565.56	0.0008239
2575.2	0.0011018
2584.85	0.0010509
2594.49	0.0014564
2604.14	0.001231
2613.78	0.0011584
2623.43	0.0013793
2633.07	0.001845
2642.72	0.001675
2652.36	0.001785
2662.01	0.0016322
2671.65	0.0013362
2681.29	0.001835
2690.94	0.0013916
2700.58	0.0013336
2710.23	0.0013373
2719.87	0.0015946
2729.52	0.0012402
2739.16	0.0016346
2748.81	0.001925
2758.45	0.001915
2768.1	0.002345
2777.74	0.002365
2787.39	0.002515
2797.03	0.002695
2806.68	0.003185
2816.32	0.005725
2825.97	0.008785
2835.61	0.009065
2845.26	0.006655
2854.9	0.006645
2864.55	0.007845
2874.19	0.007695
2883.84	0.007965
2893.48	0.009135
2903.12	0.008875
2912.77	0.009125
2922.41	0.009485
2932.06	0.010945
2941.7	0.009755
2951.35	0.006995
2960.99	0.004365
2970.64	0.004025
2980.28	0.003515
2989.93	0.005465
2999.57	0.007045
3009.22	0.004965
3018.86	0.003025
3028.51	0.003185
3038.15	0.004535
3047.8	0.005085
3057.44	0.003825
3067.09	0.002795
3076.73	0.003195
3086.38	0.002885
3096.02	0.002395
3105.67	0.002165
3115.31	0.0013262
3124.95	0.001514
3134.6	0.0009041
3144.24	0.0011362
3153.89	0.0011151
3163.53	0.0010992
3173.18	0.0009671
3182.82	0.0009137
3192.47	0.001374
3202.11	0.001685
3211.76	0.001805
3221.4	0.0015681
3231.05	0.0015873
3240.69	0.001705
3250.34	0.0009839
3259.98	0.0014355
3269.63	0.0010475
3279.27	0.0009594
3288.92	0.0012769
3298.56	0.0008612
3308.21	0.001464
3317.85	0.0006167
3327.49	0.000374
3337.14	0.000525
3346.78	0.000865
3356.43	0.0013554
3366.07	0.0010767
3375.72	0.0011755
3385.36	0.001685
3395.01	0.003165
3404.65	0.003855
3414.3	0.007295
3423.94	0.007275
3433.59	0.006905
3443.23	0.004325
3452.88	0.0016355
3462.52	0.001725
3472.17	0.0012742
3481.81	0.002265
3491.46	0.002675
3501.1	0.003895
3510.75	0.004115
3520.39	0.003955
3530.04	0.004225
3539.68	0.002955
3549.32	0.002135
3558.97	0.00070985
3568.61	0.0010613
3578.26	0.000504
3587.9	0.000425
3597.55	0.000459
3607.19	0.0009505
3616.84	0
3626.48	0.000527
3636.13	0.0009709
3645.77	0.00038
3655.42	0.0007699
3665.06	0.000519
3674.71	0.0008418
3684.35	0.0009308
3694	0.0009654
3703.64	0.00065068
3713.29	0.0009462
3722.93	0.000302
3732.58	0.0005961
3742.22	0.0011107
3751.86	0.0009224
3761.51	0.00067445
3771.15	0.0008828
3780.8	0.0010332
3790.44	0.0011517
3800.09	0.0008109
3809.73	0.0011407
3819.38	0.0008292
3829.02	0.0010491
3838.67	0.0013694
3848.31	0.0009141
3857.96	0.0013921
3867.6	0.00072003
3877.25	0.00070543
3886.89	0.0008485
3896.54	0.0014334
3906.18	0.0007869
3915.83	0.0016306
3925.47	0.0006381
3935.12	0.00074991
3944.76	0.0013012
3954.41	0.0014173
3964.05	0.0012652
3973.69	0.0009504
3983.34	0.0011375
3992.98	0.0011956
