Infrared Spectrum: 1,3-Diacetylindole
Formula: C 12 H 11 N O 2
CAS: 17537-64-3
State: gas
Origin: EPA-IR VAPOR PHASE LIBRARY
1/CM	ABSORBANCE
549.8	0.007039
559.445	0.010879
569.09	0.008039
578.734	0.010209
588.379	0.010089
598.024	0.007789
607.669	0.006499
617.313	0.005109
626.958	0.008119
636.603	0.016479
646.248	0.019129
655.893	0.006819
665.537	0.002399
675.182	0.0015101
684.827	0.001769
694.472	0.002019
704.116	0.002149
713.761	0.003059
723.406	0.005199
733.051	0.014199
742.695	0.034399
752.34	0.036689
761.985	0.015439
771.63	0.008049
781.275	0.002659
790.919	0.002649
800.564	0.002989
810.209	0.002079
819.854	0.001829
829.498	0.002769
839.143	0.002999
848.788	0.003059
858.433	0.002159
868.078	0.001879
877.722	0.001699
887.367	0.002089
897.012	0.002639
906.657	0.005569
916.301	0.012759
925.946	0.012809
935.591	0.013369
945.236	0.010979
954.88	0.005169
964.525	0.006559
974.17	0.009339
983.815	0.015839
993.46	0.018779
1003.1	0.016439
1012.75	0.013769
1022.39	0.014619
1032.04	0.011299
1041.68	0.008359
1051.33	0.006519
1060.97	0.005399
1070.62	0.004089
1080.26	0.004329
1089.91	0.004459
1099.55	0.005759
1109.2	0.008439
1118.84	0.007619
1128.49	0.011199
1138.13	0.019149
1147.78	0.030009
1157.42	0.026439
1167.07	0.024569
1176.71	0.030919
1186.36	0.078009
1196	0.085249
1205.64	0.062019
1215.29	0.123859
1224.93	0.086509
1234.58	0.019069
1244.22	0.014369
1253.87	0.026509
1263.51	0.033809
1273.16	0.019469
1282.8	0.011569
1292.45	0.020009
1302.09	0.030969
1311.74	0.036159
1321.38	0.047669
1331.03	0.035759
1340.67	0.044689
1350.32	0.038789
1359.96	0.031279
1369.61	0.059739
1379.25	0.085079
1388.9	0.050689
1398.54	0.019309
1408.18	0.013319
1417.83	0.012129
1427.47	0.015819
1437.12	0.030329
1446.76	0.060559
1456.41	0.046659
1466.05	0.017989
1475.7	0.017519
1485.34	0.012699
1494.99	0.005819
1504.63	0.005389
1514.28	0.007219
1523.92	0.013219
1533.57	0.029929
1543.21	0.056359
1552.86	0.054809
1562.5	0.029249
1572.15	0.015359
1581.79	0.012919
1591.44	0.012789
1601.08	0.012599
1610.73	0.008509
1620.37	0.005039
1630.01	0.004869
1639.66	0.006029
1649.3	0.007409
1658.95	0.008469
1668.59	0.011599
1678.24	0.029609
1687.88	0.081689
1697.53	0.071209
1707.17	0.022929
1716.82	0.019889
1726.46	0.049009
1736.11	0.114659
1745.75	0.074279
1755.4	0.016059
1765.04	0.008949
1774.69	0.008029
1784.33	0.006979
1793.98	0.005919
1803.62	0.005339
1813.27	0.004409
1822.91	0.003829
1832.55	0.002999
1842.2	0.002369
1851.84	0.002159
1861.49	0.002059
1871.13	0.002129
1880.78	0.002089
1890.42	0.001969
1900.07	0.002219
1909.71	0.002529
1919.36	0.002469
1929	0.002039
1938.65	0.002009
1948.29	0.002219
1957.94	0.0015333
1967.58	0.0014112
1977.23	0.0011349
1986.87	0.0012152
1996.52	0.0011714
2006.16	0.0010693
2015.81	0.0012053
2025.45	0.0011332
2035.1	0.0011546
2044.74	0.0011177
2054.38	0.0012194
2064.03	0.0011392
2073.67	0.0011494
2083.32	0.0013258
2092.96	0.0012505
2102.61	0.0013004
2112.25	0.0012923
2121.9	0.0012062
2131.54	0.0010646
2141.19	0.0009958
2150.83	0.0008427
2160.48	0.0010227
2170.12	0.0009621
2179.77	0.0009711
2189.41	0.0008171
2199.06	0.0008885
2208.7	0.0010574
2218.35	0.0010061
2227.99	0.0011044
2237.64	0.0011244
2247.28	0.0009739
2256.92	0.0009496
2266.57	0.0010094
2276.21	0.0012208
2285.86	0.0011744
2295.5	0.0013649
2305.15	0.0013434
2314.79	0.0011727
2324.44	0.0013748
2334.08	0.0012351
2343.73	0.0012985
2353.37	0.001143
2363.02	0.0011543
2372.66	0.0011329
2382.31	0.0011041
2391.95	0.0011284
2401.6	0.0010316
2411.24	0.0011857
2420.89	0.0012337
2430.53	0.0012268
2440.18	0.0011136
2449.82	0.0012045
2459.47	0.0012209
2469.11	0.0012341
2478.75	0.0014768
2488.4	0.0014892
2498.04	0.001342
2507.69	0.0010892
2517.33	0.0012858
2526.98	0.0012903
2536.62	0.0014792
2546.27	0.0014178
2555.91	0.0012371
2565.56	0.0011313
2575.2	0.0012408
2584.85	0.0013625
2594.49	0.0013831
2604.14	0.0013719
2613.78	0.0014885
2623.43	0.0014468
2633.07	0.0012822
2642.72	0.0012137
2652.36	0.0012576
2662.01	0.0014201
2671.65	0.0012589
2681.29	0.0010234
2690.94	0.0012896
2700.58	0.0010101
2710.23	0.0009232
2719.87	0.0009342
2729.52	0.0010474
2739.16	0.0011838
2748.81	0.0007391
2758.45	0.0009014
2768.1	0.0011588
2777.74	0.0010023
2787.39	0.0009977
2797.03	0.0010093
2806.68	0.0011324
2816.32	0.0010976
2825.97	0.0010404
2835.61	0.0012849
2845.26	0.0015791
2854.9	0.0013927
2864.55	0.0015669
2874.19	0.001669
2883.84	0.001669
2893.48	0.001809
2903.12	0.002209
2912.77	0.002219
2922.41	0.002639
2932.06	0.003289
2941.7	0.003209
2951.35	0.002579
2960.99	0.002369
2970.64	0.003009
2980.28	0.003279
2989.93	0.003099
2999.57	0.003549
3009.22	0.004489
3018.86	0.005119
3028.51	0.004499
3038.15	0.004019
3047.8	0.004709
3057.44	0.008439
3067.09	0.008909
3076.73	0.007269
3086.38	0.007029
3096.02	0.005149
3105.67	0.003059
3115.31	0.002559
3124.95	0.002149
3134.6	0.001729
3144.24	0.002019
3153.89	0.002469
3163.53	0.001839
3173.18	0.0012314
3182.82	0.0008404
3192.47	0.0008176
3202.11	0.00072827
3211.76	0.0009896
3221.4	0.0007811
3231.05	0.0008062
3240.69	0.0005577
3250.34	0.0008087
3259.98	0.0009513
3269.63	0.0005983
3279.27	0.0006188
3288.92	0.00072389
3298.56	0.00063122
3308.21	0.00065267
3317.85	0.0009767
3327.49	0.0007453
3337.14	0.0008005
3346.78	0.00072472
3356.43	0.0013994
3366.07	0.001563
3375.72	0.0011455
3385.36	0.00065435
3395.01	0.00069372
3404.65	0.000863
3414.3	0.0010758
3423.94	0.0008374
3433.59	0.0010406
3443.23	0.0013277
3452.88	0.001659
3462.52	0.001859
3472.17	0.001137
3481.81	0.0009926
3491.46	0.00062953
3501.1	0.0009629
3510.75	0.00071623
3520.39	0.00066577
3530.04	0.00072099
3539.68	0.0005496
3549.32	0.000478
3558.97	0.0005634
3568.61	0.0006652
3578.26	0.00068269
3587.9	0.000425
3597.55	0.0006004
3607.19	0.0007601
3616.84	0.0006226
3626.48	0.000313
3636.13	0.0007717
3645.77	0.0006772
3655.42	0.000421
3665.06	0.000463
3674.71	0.000324
3684.35	0.000304
3694	0.000291
3703.64	0.000359
3713.29	0.000494
3722.93	0.000457
3732.58	0.000517
3742.22	6e-06
3751.86	0.000284
3761.51	0.000266
3771.15	0.000185
3780.8	0.000385
3790.44	0.000452
3800.09	0.000389
3809.73	0.00069527
3819.38	0.000468
3829.02	0.000397
3838.67	0.000183
3848.31	0.000522
3857.96	0.000519
3867.6	0.0006084
3877.25	0.00072573
3886.89	0.0009603
3896.54	0.00065953
3906.18	0.000536
3915.83	0.00032
3925.47	0.0007667
3935.12	0.000406
3944.76	0.00064994
3954.41	0.00072254
3964.05	0.0008552
3973.69	0.000379
3983.34	0.00067513
3992.98	0.000882
