Infrared Spectrum: 1,2-Benzenedithiol
Formula: C 6 H 6 S 2
CAS: 17534-15-5
State: gas
Origin: EPA-IR VAPOR PHASE LIBRARY
1/CM	ABSORBANCE
549.8	0.001722
559.445	0.002542
569.09	0.0015064
578.734	0.000895
588.379	0.0010086
598.024	0.0012699
607.669	0.00156
617.313	0.001912
626.958	0.002152
636.603	0.002022
646.248	0.003092
655.893	0.005582
665.537	0.005632
675.182	0.002882
684.827	0.001982
694.472	0.002612
704.116	0.003422
713.761	0.007292
723.406	0.026262
733.051	0.053782
742.695	0.074782
752.34	0.034912
761.985	0.009992
771.63	0.003292
781.275	0.002402
790.919	0.001912
800.564	0.001762
810.209	0.002272
819.854	0.002402
829.498	0.003122
839.143	0.002292
848.788	0.001792
858.433	0.001802
868.078	0.001932
877.722	0.002112
887.367	0.002752
897.012	0.002542
906.657	0.003002
916.301	0.003932
925.946	0.004152
935.591	0.004762
945.236	0.003932
954.88	0.003072
964.525	0.002722
974.17	0.003062
983.815	0.003372
993.46	0.003522
1003.1	0.003082
1012.75	0.003142
1022.39	0.005222
1032.04	0.012702
1041.68	0.017382
1051.33	0.014372
1060.97	0.006572
1070.62	0.003542
1080.26	0.002732
1089.91	0.004782
1099.55	0.007382
1109.2	0.011732
1118.84	0.012272
1128.49	0.007852
1138.13	0.006222
1147.78	0.004852
1157.42	0.004452
1167.07	0.002732
1176.71	0.002162
1186.36	0.003302
1196	0.001862
1205.64	0.001622
1215.29	0.002642
1224.93	0.002682
1234.58	0.003202
1244.22	0.004122
1253.87	0.008872
1263.51	0.009982
1273.16	0.008862
1282.8	0.003702
1292.45	0.002122
1302.09	0.001952
1311.74	0.001792
1321.38	0.001672
1331.03	0.002012
1340.67	0.002612
1350.32	0.002692
1359.96	0.002352
1369.61	0.002012
1379.25	0.002602
1388.9	0.003042
1398.54	0.003442
1408.18	0.004892
1417.83	0.012282
1427.47	0.019382
1437.12	0.025922
1446.76	0.033712
1456.41	0.033592
1466.05	0.021352
1475.7	0.010242
1485.34	0.004612
1494.99	0.002622
1504.63	0.001852
1514.28	0.001752
1523.92	0.001732
1533.57	0.001782
1543.21	0.002222
1552.86	0.004952
1562.5	0.006852
1572.15	0.007882
1581.79	0.007542
1591.44	0.005532
1601.08	0.003552
1610.73	0.002112
1620.37	0.0015824
1630.01	0.001487
1639.66	0.001642
1649.3	0.001732
1658.95	0.001932
1668.59	0.002512
1678.24	0.002372
1687.88	0.002052
1697.53	0.001852
1707.17	0.001842
1716.82	0.0016101
1726.46	0.0012585
1736.11	0.0013194
1745.75	0.0012646
1755.4	0.0013033
1765.04	0.001722
1774.69	0.002192
1784.33	0.002542
1793.98	0.002122
1803.62	0.002172
1813.27	0.002232
1822.91	0.002192
1832.55	0.001574
1842.2	0.0013433
1851.84	0.0014928
1861.49	0.0015166
1871.13	0.001782
1880.78	0.001842
1890.42	0.002452
1900.07	0.002872
1909.71	0.002742
1919.36	0.002442
1929	0.002552
1938.65	0.002512
1948.29	0.0014982
1957.94	0.0009716
1967.58	0.0009419
1977.23	0.0007359
1986.87	0.0007466
1996.52	0.0009185
2006.16	0.00065265
2015.81	0.0008528
2025.45	0.0008706
2035.1	0.00067676
2044.74	0.0007589
2054.38	0.0005803
2064.03	0.0007953
2073.67	0.00069131
2083.32	0.0007658
2092.96	0.0008553
2102.61	0.0007149
2112.25	0.0007809
2121.9	0.000837
2131.54	0.00068379
2141.19	0.0007604
2150.83	0.0009597
2160.48	0.0008411
2170.12	0.0007451
2179.77	0.00063493
2189.41	0.0009346
2199.06	0.0005405
2208.7	0.0007558
2218.35	0.0007802
2227.99	0.00063987
2237.64	0.00071118
2247.28	0.0008162
2256.92	0.0009604
2266.57	0.0007573
2276.21	0.0008308
2285.86	0.000866
2295.5	0.000771
2305.15	0.0010428
2314.79	0.0010223
2324.44	0.000896
2334.08	0.0008437
2343.73	0.0009618
2353.37	0.0009203
2363.02	0.0010747
2372.66	0.0012855
2382.31	0.0010333
2391.95	0.0011232
2401.6	0.0009709
2411.24	0.0010717
2420.89	0.0008731
2430.53	0.0012271
2440.18	0.0013512
2449.82	0.0012626
2459.47	0.00071054
2469.11	0.0011468
2478.75	0.0012668
2488.4	0.0012361
2498.04	0.0012331
2507.69	0.0012369
2517.33	0.0010628
2526.98	0.0014806
2536.62	0.0015565
2546.27	0.001922
2555.91	0.003052
2565.56	0.004702
2575.2	0.005122
2584.85	0.003772
2594.49	0.002312
2604.14	0.001622
2613.78	0.0015285
2623.43	0.0013634
2633.07	0.0011696
2642.72	0.0012987
2652.36	0.0011405
2662.01	0.0007287
2671.65	0.0007549
2681.29	0.0007749
2690.94	0.0007926
2700.58	0.0007877
2710.23	0.0009767
2719.87	0.0009619
2729.52	0.00062377
2739.16	0.00068482
2748.81	0.000284
2758.45	0.0008571
2768.1	0.00083
2777.74	0.00069473
2787.39	0.001094
2797.03	0.0009788
2806.68	0.0008043
2816.32	0.0006892
2825.97	0.0010627
2835.61	0.00066691
2845.26	0.0008679
2854.9	0.000611589
2864.55	0.000588
2874.19	0.000614006
2883.84	0.000497
2893.48	0.0005723
2903.12	0.00064798
2912.77	0.000419
2922.41	0.0007285
2932.06	0.0011474
2941.7	0.0010206
2951.35	0.0010064
2960.99	0.0012177
2970.64	0.0010104
2980.28	0.001662
2989.93	0.002312
2999.57	0.002452
3009.22	0.002652
3018.86	0.002342
3028.51	0.002312
3038.15	0.002242
3047.8	0.006122
3057.44	0.017122
3067.09	0.025802
3076.73	0.022412
3086.38	0.009292
3096.02	0.003262
3105.67	0.002702
3115.31	0.002652
3124.95	0.003432
3134.6	0.002212
3144.24	0.0009716
3153.89	0.00068946
3163.53	0.0005627
3173.18	0.0011753
3182.82	0.0009453
3192.47	0.00063094
3202.11	0.0007184
3211.76	0.0010095
3221.4	0.0007997
3231.05	0.0013716
3240.69	0.000612708
3250.34	0.0008241
3259.98	0.0011415
3269.63	0.000596
3279.27	0.0005785
3288.92	0.0009118
3298.56	0.0008434
3308.21	0.0008311
3317.85	0.00046
3327.49	0.0011061
3337.14	0.00064461
3346.78	0.0009617
3356.43	0.000349
3366.07	0.0008137
3375.72	0.0009487
3385.36	0.00125
3395.01	0.0014907
3404.65	0.0009847
3414.3	0.0007807
3423.94	0.001518
3433.59	0.0011563
3443.23	0.0012615
3452.88	0.001772
3462.52	0.0013268
3472.17	0.001822
3481.81	0.001642
3491.46	0.0015657
3501.1	0.001672
3510.75	0.0012058
3520.39	0.0010925
3530.04	0.000831
3539.68	0.00066456
3549.32	0.001209
3558.97	0.0011869
3568.61	0.0011634
3578.26	0.0009313
3587.9	0.0005318
3597.55	0.00067832
3607.19	0.0011309
3616.84	0.0011012
3626.48	0.0009301
3636.13	0.0009416
3645.77	0.00064019
3655.42	0.0012743
3665.06	0.001622
3674.71	0.000805
3684.35	0.0010891
3694	0.0011022
3703.64	0.0008665
3713.29	0.0009634
3722.93	0.0008072
3732.58	0.0009167
3742.22	0.00063208
3751.86	0.00069656
3761.51	0.000475
3771.15	0.0010271
3780.8	0.0008672
3790.44	0.0009679
3800.09	0.00088
3809.73	0.0009874
3819.38	0.0008728
3829.02	0.00069043
3838.67	0.0007742
3848.31	0.0005222
3857.96	0.00068568
3867.6	0.00066571
3877.25	0.000509
3886.89	0.000935
3896.54	0.0012026
3906.18	0.0009366
3915.83	0.000823
3925.47	0.0011412
3935.12	0.000473
3944.76	0.0008026
3954.41	0.0008909
3964.05	0.0005291
3973.69	0.00063094
3983.34	0.0009061
3992.98	0.00065864
