Infrared Spectrum: 3-Chloro-5,5-dimethyl-2-cyclohexene-1-one
Formula: C 8 H 11 Cl O
CAS: 17530-69-7
State: gas
Origin: EPA-IR VAPOR PHASE LIBRARY
1/CM	ABSORBANCE
549.8	0.00424
559.445	0.0023
569.09	0.00227
578.734	0.0014439
588.379	0.00193
598.024	0.0013927
607.669	0.0014556
617.313	0.000592
626.958	0.000551
636.603	0.0012509
646.248	0.000654
655.893	0.00088478
665.537	0.0014662
675.182	0.0013308
684.827	0.0011471
694.472	0.0011577
704.116	0.0012982
713.761	0.00222
723.406	0.00257
733.051	0.00311
742.695	0.00439
752.34	0.00855
761.985	0.02423
771.63	0.04194
781.275	0.03154
790.919	0.0105
800.564	0.00648
810.209	0.00871
819.854	0.01871
829.498	0.0392
839.143	0.05979
848.788	0.06394
858.433	0.05797
868.078	0.04429
877.722	0.02301
887.367	0.02173
897.012	0.03628
906.657	0.03311
916.301	0.01914
925.946	0.01543
935.591	0.01637
945.236	0.01221
954.88	0.00705
964.525	0.00544
974.17	0.00642
983.815	0.01135
993.46	0.02805
1003.1	0.07081
1012.75	0.09691
1022.39	0.06147
1032.04	0.02107
1041.68	0.0093
1051.33	0.008
1060.97	0.00648
1070.62	0.00651
1080.26	0.00677
1089.91	0.00756
1099.55	0.01178
1109.2	0.01796
1118.84	0.02185
1128.49	0.03081
1138.13	0.04577
1147.78	0.03585
1157.42	0.01593
1167.07	0.01535
1176.71	0.01763
1186.36	0.01629
1196	0.01577
1205.64	0.01918
1215.29	0.04092
1224.93	0.08844
1234.58	0.09272
1244.22	0.05437
1253.87	0.0812
1263.51	0.15179
1273.16	0.14456
1282.8	0.10353
1292.45	0.11465
1302.09	0.08215
1311.74	0.03704
1321.38	0.04402
1331.03	0.0888
1340.67	0.12937
1350.32	0.10356
1359.96	0.05607
1369.61	0.04753
1379.25	0.04295
1388.9	0.03401
1398.54	0.02812
1408.18	0.02492
1417.83	0.03255
1427.47	0.03471
1437.12	0.02842
1446.76	0.0259
1456.41	0.03048
1466.05	0.03498
1475.7	0.02948
1485.34	0.01649
1494.99	0.00865
1504.63	0.00651
1514.28	0.00495
1523.92	0.00426
1533.57	0.00482
1543.21	0.00557
1552.86	0.00635
1562.5	0.00777
1572.15	0.00992
1581.79	0.01635
1591.44	0.03355
1601.08	0.08542
1610.73	0.1748
1620.37	0.18537
1630.01	0.08864
1639.66	0.03696
1649.3	0.03275
1658.95	0.04643
1668.59	0.07312
1678.24	0.12776
1687.88	0.25083
1697.53	0.44462
1707.17	0.49091
1716.82	0.29767
1726.46	0.11505
1736.11	0.05381
1745.75	0.02806
1755.4	0.01945
1765.04	0.01576
1774.69	0.0126
1784.33	0.01055
1793.98	0.00849
1803.62	0.00669
1813.27	0.00558
1822.91	0.0048
1832.55	0.00381
1842.2	0.0032
1851.84	0.00273
1861.49	0.00248
1871.13	0.00225
1880.78	0.0022
1890.42	0.00197
1900.07	0.00188
1909.71	0.0016911
1919.36	0.00187
1929	0.00195
1938.65	0.00214
1948.29	0.00216
1957.94	0.00207
1967.58	0.00186
1977.23	0.0017786
1986.87	0.0021
1996.52	0.00205
2006.16	0.00214
2015.81	0.0021
2025.45	0.00188
2035.1	0.00192
2044.74	0.00181
2054.38	0.00189
2064.03	0.00199
2073.67	0.00211
2083.32	0.00249
2092.96	0.00285
2102.61	0.0027
2112.25	0.00273
2121.9	0.00254
2131.54	0.00243
2141.19	0.00223
2150.83	0.00226
2160.48	0.00216
2170.12	0.00194
2179.77	0.00189
2189.41	0.0017191
2199.06	0.00183
2208.7	0.00189
2218.35	0.0017566
2227.99	0.00187
2237.64	0.0015643
2247.28	0.00181
2256.92	0.0017277
2266.57	0.0018
2276.21	0.00183
2285.86	0.00187
2295.5	0.00198
2305.15	0.00191
2314.79	0.00192
2324.44	0.00199
2334.08	0.00184
2343.73	0.0016916
2353.37	0.0017048
2363.02	0.0017946
2372.66	0.0017142
2382.31	0.00194
2391.95	0.00182
2401.6	0.00194
2411.24	0.00197
2420.89	0.0017248
2430.53	0.0017961
2440.18	0.0016654
2449.82	0.0016392
2459.47	0.0019
2469.11	0.00181
2478.75	0.00199
2488.4	0.0017283
2498.04	0.00185
2507.69	0.00202
2517.33	0.00241
2526.98	0.00214
2536.62	0.00213
2546.27	0.00211
2555.91	0.00188
2565.56	0.00195
2575.2	0.00188
2584.85	0.0017739
2594.49	0.00198
2604.14	0.00208
2613.78	0.0021
2623.43	0.00218
2633.07	0.00228
2642.72	0.0017483
2652.36	0.00193
2662.01	0.001764
2671.65	0.00219
2681.29	0.00218
2690.94	0.0021
2700.58	0.0027
2710.23	0.00308
2719.87	0.00308
2729.52	0.00325
2739.16	0.00401
2748.81	0.00419
2758.45	0.00378
2768.1	0.00352
2777.74	0.00416
2787.39	0.0043
2797.03	0.00535
2806.68	0.00765
2816.32	0.01138
2825.97	0.01574
2835.61	0.01778
2845.26	0.01661
2854.9	0.019
2864.55	0.0302
2874.19	0.05394
2883.84	0.0802
2893.48	0.09746
2903.12	0.09009
2912.77	0.06114
2922.41	0.05512
2932.06	0.08449
2941.7	0.10344
2951.35	0.12825
2960.99	0.21756
2970.64	0.2313
2980.28	0.11384
2989.93	0.02583
2999.57	0.01108
3009.22	0.00742
3018.86	0.00604
3028.51	0.00508
3038.15	0.00533
3047.8	0.00479
3057.44	0.00396
3067.09	0.00367
3076.73	0.00356
3086.38	0.0036
3096.02	0.00324
3105.67	0.00343
3115.31	0.00307
3124.95	0.00297
3134.6	0.00293
3144.24	0.00324
3153.89	0.00318
3163.53	0.00386
3173.18	0.0039
3182.82	0.00398
3192.47	0.00368
3202.11	0.00376
3211.76	0.00444
3221.4	0.00477
3231.05	0.00355
3240.69	0.00287
3250.34	0.00237
3259.98	0.00184
3269.63	0.00183
3279.27	0.0017742
3288.92	0.00194
3298.56	0.0021
3308.21	0.00203
3317.85	0.00213
3327.49	0.00237
3337.14	0.0029
3346.78	0.00407
3356.43	0.00551
3366.07	0.00739
3375.72	0.00857
3385.36	0.00849
3395.01	0.00727
3404.65	0.00537
3414.3	0.00405
3423.94	0.00289
3433.59	0.00237
3443.23	0.00186
3452.88	0.00188
3462.52	0.00184
3472.17	0.0014862
3481.81	0.001669
3491.46	0.0014653
3501.1	0.0010801
3510.75	0.0010103
3520.39	0.0009122
3530.04	0.0007467
3539.68	0.00089343
3549.32	0.0009303
3558.97	0.0011331
3568.61	0.0009997
3578.26	0.0008963
3587.9	0.000671
3597.55	0.0011092
3607.19	0.00081539
3616.84	0.0009276
3626.48	0.0007819
3636.13	0.00079811
3645.77	0.000674
3655.42	0.0007623
3665.06	0.0010491
3674.71	0.00085366
3684.35	0.0008723
3694	0.0007505
3703.64	0.0009272
3713.29	0.00087593
3722.93	0.0011479
3732.58	0.0012805
3742.22	0.0014728
3751.86	0.0011964
3761.51	0.0014412
3771.15	0.0012949
3780.8	0.0016197
3790.44	0.0011136
3800.09	0.0015547
3809.73	0.0012333
3819.38	0.0016535
3829.02	0.0016642
3838.67	0.0016435
3848.31	0.0017262
3857.96	0.001404
3867.6	0.0012315
3877.25	0.00193
3886.89	0.00199
3896.54	0.0017425
3906.18	0.00205
3915.83	0.001623
3925.47	0.0019
3935.12	0.0017767
3944.76	0.00187
3954.41	0.0015347
3964.05	0.0012894
3973.69	0.0014786
3983.34	0.0011811
3992.98	0.0015291
