Infrared Spectrum: Ethyl 2,4,6-trimethylbenzoate
Formula: C 12 H 16 O 2
CAS: 1754-55-8
State: gas
Origin: EPA-IR VAPOR PHASE LIBRARY
1/CM	ABSORBANCE
549.9	0.0016043
559.547	0.0018966
569.193	0.0021443
578.84	0.0023249
588.486	0.002215
598.133	0.00363
607.779	0.0031
617.426	0.0013501
627.072	0.001012
636.719	0.000999
646.365	0.001072
656.012	0.001166
665.658	0.001254
675.305	0.001243
684.951	0.0013391
694.598	0.0017361
704.245	0.00258
713.891	0.00398
723.538	0.00445
733.184	0.00344
742.831	0.00267
752.477	0.00275
762.124	0.00349
771.77	0.00563
781.417	0.00705
791.063	0.00553
800.71	0.00424
810.356	0.0038
820.003	0.0043
829.649	0.00679
839.296	0.01428
848.943	0.02004
858.589	0.00933
868.236	0.00519
877.882	0.00335
887.529	0.0021167
897.175	0.0019212
906.822	0.0019521
916.468	0.0018952
926.115	0.0020675
935.761	0.0023888
945.408	0.00264
955.054	0.00267
964.701	0.00248
974.347	0.0027
983.994	0.00347
993.64	0.00489
1003.29	0.00695
1012.93	0.00942
1022.58	0.01133
1032.23	0.01087
1041.87	0.01154
1051.52	0.01666
1061.17	0.03443
1070.81	0.09994
1080.46	0.17634
1090.11	0.1178
1099.75	0.05294
1109.4	0.02429
1119.05	0.01466
1128.69	0.0122
1138.34	0.01213
1147.99	0.01669
1157.63	0.0401
1167.28	0.07515
1176.92	0.04617
1186.57	0.01547
1196.22	0.00964
1205.86	0.00964
1215.51	0.01185
1225.16	0.01701
1234.8	0.03198
1244.45	0.08131
1254.1	0.17303
1263.74	0.16163
1273.39	0.0689
1283.04	0.02928
1292.68	0.0196
1302.33	0.01577
1311.98	0.01178
1321.62	0.00836
1331.27	0.00645
1340.92	0.00594
1350.56	0.0065
1360.21	0.0096
1369.86	0.01276
1379.5	0.01234
1389.15	0.01275
1398.79	0.01046
1408.44	0.01035
1418.09	0.01303
1427.73	0.01769
1437.38	0.02118
1447.03	0.02141
1456.67	0.0201
1466.32	0.01987
1475.97	0.01771
1485.61	0.01318
1495.26	0.0102
1504.91	0.00893
1514.55	0.00876
1524.2	0.00886
1533.85	0.00862
1543.49	0.00871
1553.14	0.0091
1562.79	0.00975
1572.43	0.01081
1582.08	0.01095
1591.73	0.01116
1601.37	0.0192
1611.02	0.0299
1620.67	0.01482
1630.31	0.00486
1639.96	0.00353
1649.6	0.0035
1659.25	0.00393
1668.9	0.00453
1678.54	0.00572
1688.19	0.00792
1697.84	0.01209
1707.48	0.01803
1717.13	0.02756
1726.78	0.05578
1736.42	0.12758
1746.07	0.12472
1755.72	0.04636
1765.36	0.01741
1775.01	0.00993
1784.66	0.00667
1794.3	0.00513
1803.95	0.00377
1813.6	0.00277
1823.24	0.0022505
1832.89	0.0019221
1842.54	0.0018997
1852.18	0.0018733
1861.83	0.0019131
1871.47	0.0018328
1881.12	0.001866
1890.77	0.0017906
1900.41	0.0017632
1910.06	0.0017839
1919.71	0.0017866
1929.35	0.0017452
1939	0.0019151
1948.65	0.001977
1958.29	0.0016909
1967.94	0.0013266
1977.59	0.001041
1987.23	0.000991
1996.88	0.001012
2006.53	0.001082
2016.17	0.001076
2025.82	0.001131
2035.47	0.001168
2045.11	0.001087
2054.76	0.001044
2064.41	0.00109
2074.05	0.001192
2083.7	0.001276
2093.35	0.0013637
2102.99	0.001255
2112.64	0.001147
2122.28	0.001081
2131.93	0.001014
2141.58	0.00099
2151.22	0.000894
2160.87	0.000883
2170.52	0.000919
2180.16	0.000879
2189.81	0.00081
2199.46	0.000848
2209.1	0.000832
2218.75	0.000906
2228.4	0.000944
2238.04	0.000972
2247.69	0.000931
2257.34	0.000887
2266.98	0.000866
2276.63	0.000826
2286.28	0.000764
2295.92	0.000815
2305.57	0.0009
2315.22	0.000972
2324.86	0.001181
2334.51	0.001279
2344.16	0.00117
2353.8	0.000978
2363.45	0.000958
2373.09	0.000946
2382.74	0.001065
2392.39	0.001089
2402.03	0.001167
2411.68	0.001208
2421.33	0.001146
2430.97	0.001036
2440.62	0.000941
2450.27	0.000974
2459.91	0.000947
2469.56	0.000946
2479.21	0.000886
2488.85	0.000875
2498.5	0.000856
2508.15	0.000925
2517.79	0.000922
2527.44	0.000792
2537.09	0.000829
2546.73	0.000755
2556.38	0.000725
2566.03	0.000661
2575.67	0.000618
2585.32	0.000655
2594.96	0.000571
2604.61	0.000595
2614.26	0.00067
2623.9	0.000598
2633.55	0.000549
2643.2	0.0006
2652.84	0.000656
2662.49	0.000717
2672.14	0.000795
2681.78	0.00081
2691.43	0.000797
2701.08	0.000957
2710.72	0.00099
2720.37	0.00124
2730.02	0.001628
2739.66	0.0023659
2749.31	0.00244
2758.96	0.0018498
2768.6	0.0016234
2778.25	0.00147924
2787.9	0.0016298
2797.54	0.0018453
2807.19	0.0022794
2816.84	0.00277
2826.48	0.00342
2836.13	0.00429
2845.77	0.00592
2855.42	0.00931
2865.07	0.01498
2874.71	0.01892
2884.36	0.01855
2894.01	0.01786
2903.65	0.01987
2913.3	0.02482
2922.95	0.03452
2932.59	0.04583
2942.24	0.04474
2951.89	0.03386
2961.53	0.03045
2971.18	0.03481
2980.83	0.04483
2990.47	0.04344
3000.12	0.03315
3009.77	0.02821
3019.41	0.02581
3029.06	0.02224
3038.71	0.01781
3048.35	0.0136
3058	0.00945
3067.64	0.00659
3077.29	0.0052
3086.94	0.00423
3096.58	0.00323
3106.23	0.0024022
3115.88	0.0019229
3125.52	0.0015486
3135.17	0.001176
3144.82	0.001093
3154.46	0.000881
3164.11	0.000972
3173.76	0.000748
3183.4	0.000651
3193.05	0.000603
3202.7	0.00033
3212.34	0.000467
3221.99	0.000445
3231.64	0.00018
3241.28	0.00024
3250.93	0.00018
3260.58	0.00016
3270.22	0.00014
3279.87	0.00028
3289.52	0.00017
3299.16	0.00011
3308.81	8e-05
3318.45	0.00035
3328.1	0.000433
3337.75	0.00033
3347.39	0.00017
3357.04	0.00021
3366.69	0.00025
3376.33	0.00032
3385.98	0.00039
3395.63	0.000427
3405.27	0.000477
3414.92	0.000459
3424.57	0.000751
3434.21	0.000768
3443.86	0.001063
3453.51	0.0013528
3463.15	0.0015659
3472.8	0.001081
3482.45	0.00072
3492.09	0.000774
3501.74	0.000513
3511.39	0.000532
3521.03	0.000517
3530.68	0.000534
3540.33	0.000444
3549.97	0.000495
3559.62	0.000494
3569.26	0.00041
3578.91	0.00033
3588.56	0.000514
3598.2	0.00039
3607.85	0.000545
3617.5	0.000514
3627.14	0.00031
3636.79	0.000483
3646.44	0.000432
3656.08	0.000481
3665.73	0.000531
3675.38	0.000551
3685.02	0.000437
3694.67	0.000474
3704.32	0.000524
3713.96	0.000439
3723.61	0.000536
3733.26	0.000635
3742.9	0.000643
3752.55	0.000644
3762.2	0.000576
3771.84	0.000571
3781.49	0.000673
3791.13	0.000585
3800.78	0.000628
3810.43	0.000684
3820.07	0.000692
3829.72	0.000621
3839.37	0.000716
3849.01	0.000665
3858.66	0.000783
3868.31	0.000787
3877.95	0.000732
3887.6	0.000724
3897.25	0.000895
3906.89	0.00081
3916.54	0.000943
3926.19	0.0009
3935.83	0.000977
3945.48	0.000974
3955.13	0.000964
3964.77	0.001148
3974.42	0.001047
3984.07	0.001027
3993.71	0.001042
