Infrared Spectrum: PHOSPHONIC ACID, PHENYL-, DIETHYL ESTER
Formula: C10 H15 O3 P
CAS: 1754-49-0
State: LIQUID
Class: COBLENTZ
Instrument: PERKIN-ELMER
Sampling: TRANSMISSION
Path length: 0.0015 CM
Resolution: 4
Origin: STANDARD OIL OF OHIO
MICROMETERS	TRANSMITTANCE
2.014	0.986
2.04777	0.986
2.08153	0.986
2.1153	0.984
2.14906	0.976
2.18283	0.976
2.21659	0.977
2.25036	0.954
2.28412	0.947
2.31789	0.952
2.35165	0.959
2.38542	0.957
2.41918	0.95
2.45295	0.936
2.48671	0.947
2.52048	0.964
2.55424	0.969
2.58801	0.972
2.62177	0.976
2.65554	0.971
2.6893	0.971
2.72307	0.952
2.75683	0.931
2.7906	0.872
2.82436	0.819
2.85813	0.826
2.89189	0.862
2.92566	0.911
2.95942	0.935
2.99319	0.947
3.02695	0.95
3.06072	0.948
3.09448	0.947
3.12825	0.94
3.16202	0.919
3.19578	0.855
3.22955	0.696
3.26331	0.706
3.29708	0.359
3.33084	0.233
3.36461	0.424
3.39837	0.451
3.43214	0.57
3.4659	0.77
3.49967	0.868
3.53343	0.902
3.5672	0.93
3.60096	0.931
3.63473	0.931
3.66849	0.935
3.70226	0.955
3.73602	0.962
3.76979	0.965
3.80355	0.96
3.83732	0.959
3.87108	0.96
3.90485	0.96
3.93861	0.96
3.97238	0.96
4.00614	0.957
4.03991	0.955
4.07367	0.954
4.10744	0.954
4.1412	0.952
4.17497	0.952
4.20873	0.95
4.2425	0.95
4.27627	0.95
4.31003	0.952
4.3438	0.952
4.37756	0.948
4.41133	0.935
4.44509	0.942
4.47886	0.952
4.51262	0.954
4.54639	0.95
4.58015	0.95
4.61392	0.95
4.64768	0.95
4.68145	0.948
4.71521	0.945
4.74898	0.943
4.78274	0.943
4.81651	0.943
4.85027	0.945
4.88404	0.945
4.9178	0.94
4.95157	0.928
4.98533	0.914
5.0191	0.899
5.05286	0.899
5.08663	0.909
5.12039	0.916
5.15416	0.909
5.18792	0.892
5.22169	0.884
5.25545	0.892
5.28922	0.906
5.32298	0.89
5.35675	0.862
5.39052	0.846
5.42428	0.833
5.45805	0.834
5.49181	0.855
5.52558	0.867
5.55934	0.872
5.59311	0.868
5.62687	0.877
5.66064	0.88
5.6944	0.885
5.72817	0.887
5.76193	0.89
5.7957	0.897
5.82946	0.902
5.86323	0.902
5.89699	0.899
5.93076	0.897
5.96452	0.896
5.99829	0.892
6.03205	0.89
6.06582	0.887
6.09958	0.889
6.13335	0.887
6.16711	0.882
6.20088	0.862
6.23464	0.727
6.26841	0.747
6.30217	0.868
6.33594	0.897
6.3697	0.901
6.40347	0.906
6.43723	0.909
6.471	0.911
6.50477	0.918
6.53853	0.914
6.5723	0.908
6.60606	0.899
6.63983	0.862
6.67359	0.805
6.70736	0.584
6.74112	0.56
6.77489	0.645
6.80865	0.678
6.84242	0.655
6.87618	0.522
6.90995	0.189
6.94371	0.245
6.97748	0.635
7.01124	0.717
7.04501	0.741
7.07877	0.713
7.11254	0.599
7.1463	0.398
7.18007	0.31
7.21383	0.577
7.2476	0.66
7.28136	0.592
7.31513	0.698
7.34889	0.807
7.38266	0.838
7.41642	0.839
7.45019	0.827
7.48395	0.804
7.51772	0.797
7.55148	0.78
7.58525	0.715
7.61902	0.655
7.65278	0.603
7.68655	0.534
7.72031	0.47
7.75408	0.429
7.78784	0.354
7.82161	0.291
7.85537	0.177
7.88914	0.074
7.9229	0.011
7.95667	0.005
7.99043	0.003
8.0242	0.006
8.05796	0.071
8.09173	0.216
8.12549	0.362
8.15926	0.541
8.19302	0.623
8.22679	0.676
8.26055	0.713
8.29432	0.727
8.32808	0.73
8.36185	0.722
8.39561	0.691
8.42938	0.616
8.46314	0.553
8.49691	0.468
8.53067	0.313
8.56444	0.172
8.5982	0.173
8.63197	0.248
8.66573	0.323
8.6995	0.356
8.73327	0.316
8.76703	0.151
8.8008	0.022
8.83456	0.013
8.86833	0.078
8.90209	0.262
8.93586	0.396
8.96962	0.407
9.00339	0.35
9.03715	0.269
9.07092	0.18
9.10468	0.153
9.13845	0.201
9.17221	0.248
9.20598	0.25
9.23974	0.212
9.27351	0.132
9.30727	0.083
9.34104	0.032
9.3748	0.013
9.40857	0.008
9.44233	0.005
9.4761	0.005
9.50986	0.003
9.54363	0.003
9.57739	0.003
9.61116	0.003
9.64492	0.001
9.67869	0.001
9.71245	0.001
9.74622	0.001
9.77998	0.001
9.81375	0.003
9.84752	0.006
9.88128	0.025
9.91505	0.105
9.94881	0.163
9.98258	0.19
10.0163	0.214
10.0501	0.262
10.0839	0.275
10.1176	0.245
10.1514	0.18
10.1852	0.115
10.2189	0.047
10.2527	0.015
10.2865	0.003
10.3202	0.001
10.354	0
10.3878	0
10.4215	0
10.4553	0.003
10.4891	0.005
10.5228	0.006
10.5566	0.013
10.5903	0.018
10.6241	0.025
10.6579	0.052
10.6916	0.095
10.7254	0.148
10.7592	0.238
10.7929	0.327
10.8267	0.417
10.8605	0.526
10.8942	0.596
10.928	0.642
10.9618	0.676
10.9955	0.715
11.0293	0.739
11.0631	0.759
11.0968	0.776
11.1306	0.795
11.1644	0.805
11.1981	0.812
11.2319	0.819
11.2657	0.826
11.2994	0.833
11.3332	0.836
11.3669	0.841
11.4007	0.844
11.4345	0.846
11.4682	0.848
11.502	0.846
11.5358	0.843
11.5695	0.839
11.6033	0.834
11.6371	0.829
11.6708	0.826
11.7046	0.824
11.7384	0.824
11.7721	0.826
11.8059	0.827
11.8397	0.829
11.8734	0.819
11.9072	0.809
11.941	0.798
11.9747	0.785
12.0085	0.766
12.0422	0.739
12.076	0.701
12.1098	0.645
12.1435	0.572
12.1773	0.499
12.2111	0.403
12.2448	0.325
12.2786	0.286
12.3124	0.262
12.3461	0.248
12.3799	0.226
12.4137	0.201
12.4474	0.177
12.4812	0.156
12.515	0.144
12.5487	0.139
12.5825	0.143
12.6163	0.148
12.65	0.16
12.6838	0.175
12.7176	0.183
12.7513	0.185
12.7851	0.183
12.8188	0.172
12.8526	0.158
12.8864	0.148
12.9201	0.136
12.9539	0.129
12.9877	0.126
13.0214	0.124
13.0552	0.126
13.089	0.127
13.1227	0.129
13.1565	0.122
13.1903	0.11
13.224	0.08
13.2578	0.059
13.2916	0.04
13.3253	0.034
13.3591	0.034
13.3929	0.064
13.4266	0.149
13.4604	0.267
13.4942	0.381
13.5279	0.495
13.5617	0.582
13.5954	0.626
13.6292	0.659
13.663	0.686
13.6967	0.7
13.7305	0.706
13.7643	0.712
13.798	0.712
13.8318	0.708
13.8656	0.693
13.8993	0.664
13.9331	0.62
13.9669	0.567
14.0006	0.492
14.0344	0.412
14.0682	0.323
14.1019	0.272
14.1357	0.231
14.1695	0.201
14.2032	0.173
14.237	0.143
14.2707	0.11
14.3045	0.081
14.3383	0.059
14.372	0.071
14.4058	0.153
14.4396	0.255
14.4733	0.393
14.5071	0.555
14.5409	0.618
14.5746	0.662
14.6084	0.696
14.6422	0.712
14.6759	0.724
14.7097	0.727
14.7435	0.729
14.7772	0.729
14.811	0.729
14.8448	0.729
14.8785	0.73
14.9123	0.732
14.9461	0.739
14.9798	0.751
15.0136	0.77
15.0473	0.776
15.0811	0.781
15.1149	0.785
15.1486	0.788
15.1824	0.79
15.2162	0.79
15.2499	0.79
15.2837	0.788
15.3175	0.788
15.3512	0.788
15.385	0.788
