Infrared Spectrum: Di-n-octyl phenylphosphonate
Formula: C 22 H 39 O 3 P
CAS: 1754-47-8
State: gas
Origin: EPA-IR VAPOR PHASE LIBRARY
1/CM	ABSORBANCE
549.9	0.02341
559.547	0.03179
569.193	0.03322
578.84	0.01669
588.486	0.00719
598.133	0.004
607.779	0.0029547
617.426	0.0024961
627.072	0.0022043
636.719	0.0021891
646.365	0.0023055
656.012	0.0029569
665.658	0.00435
675.305	0.00622
684.951	0.00882
694.598	0.02321
704.245	0.01792
713.891	0.01572
723.538	0.01612
733.184	0.01915
742.831	0.02619
752.477	0.01803
762.124	0.0157
771.77	0.01416
781.417	0.01359
791.063	0.01539
800.71	0.01619
810.356	0.016
820.003	0.01618
829.649	0.01685
839.296	0.01711
848.943	0.0164
858.589	0.01465
868.236	0.01284
877.882	0.0112
887.529	0.01038
897.175	0.01089
906.822	0.01299
916.468	0.01612
926.115	0.01831
935.761	0.01879
945.408	0.0215
955.054	0.0289
964.701	0.04283
974.347	0.05968
983.994	0.07106
993.64	0.08883
1003.29	0.09832
1012.93	0.09974
1022.58	0.10012
1032.23	0.08953
1041.87	0.08098
1051.52	0.07534
1061.17	0.07024
1070.81	0.06221
1080.46	0.04568
1090.11	0.03002
1099.75	0.02018
1109.4	0.01733
1119.05	0.02644
1128.69	0.05727
1138.34	0.02845
1147.99	0.01242
1157.63	0.00839
1167.28	0.0068
1176.92	0.00678
1186.57	0.00721
1196.22	0.00659
1205.86	0.0066
1215.51	0.00696
1225.16	0.00743
1234.8	0.00928
1244.45	0.01336
1254.1	0.02364
1263.74	0.04456
1273.39	0.05377
1283.04	0.03668
1292.68	0.02216
1302.33	0.01312
1311.98	0.00872
1321.62	0.00646
1331.27	0.00582
1340.92	0.00573
1350.56	0.00604
1360.21	0.00607
1369.86	0.00633
1379.5	0.00883
1389.15	0.01086
1398.79	0.00663
1408.44	0.00488
1418.09	0.00518
1427.73	0.00708
1437.38	0.01396
1447.03	0.01333
1456.67	0.01488
1466.32	0.0155
1475.97	0.01183
1485.61	0.0073
1495.26	0.00465
1504.91	0.00315
1514.55	0.0025708
1524.2	0.0022305
1533.85	0.0020221
1543.49	0.001878
1553.14	0.001819
1562.79	0.001719
1572.43	0.001782
1582.08	0.0022265
1591.73	0.0028752
1601.37	0.0022883
1611.02	0.001685
1620.67	0.001533
1630.31	0.001405
1639.96	0.001356
1649.6	0.001427
1659.25	0.001624
1668.9	0.001854
1678.54	0.001676
1688.19	0.001525
1697.84	0.001501
1707.48	0.001509
1717.13	0.001584
1726.78	0.00155
1736.42	0.001683
1746.07	0.001698
1755.72	0.00185
1765.36	0.0020304
1775.01	0.00215494
1784.66	0.002011
1794.3	0.001937
1803.95	0.0023285
1813.6	0.0028849
1823.24	0.0025631
1832.89	0.0023075
1842.54	0.00212603
1852.18	0.001996
1861.83	0.001906
1871.47	0.001878
1881.12	0.0019688
1890.77	0.0021859
1900.41	0.0022108
1910.06	0.0019955
1919.71	0.001539
1929.35	0.001412
1939	0.001367
1948.65	0.001561
1958.29	0.001882
1967.94	0.00173
1977.59	0.001287
1987.23	0.00105
1996.88	0.001
2006.53	0.00103
2016.17	0.00099
2025.82	0.001105
2035.47	0.001071
2045.11	0.001112
2054.76	0.00104
2064.41	0.00103
2074.05	0.00097
2083.7	0.00096
2093.35	0.00094
2102.99	0.00091
2112.64	0.00097
2122.28	0.00093
2131.93	0.00095
2141.58	0.00095
2151.22	0.00099
2160.87	0.00103
2170.52	0.00102
2180.16	0.00098
2189.81	0.00104
2199.46	0.00098
2209.1	0.00103
2218.75	0.00101
2228.4	0.00101
2238.04	0.00106
2247.69	0.001103
2257.34	0.001193
2266.98	0.001096
2276.63	0.001098
2286.28	0.001082
2295.92	0.001084
2305.57	0.001153
2315.22	0.001216
2324.86	0.001179
2334.51	0.001114
2344.16	0.001162
2353.8	0.001069
2363.45	0.00103
2373.09	0.00105
2382.74	0.001062
2392.39	0.001111
2402.03	0.001072
2411.68	0.001111
2421.33	0.001117
2430.97	0.00104
2440.62	0.001
2450.27	0.00105
2459.91	0.00099
2469.56	0.00095
2479.21	0.001
2488.85	0.00102
2498.5	0.001084
2508.15	0.001127
2517.79	0.001138
2527.44	0.001216
2537.09	0.001225
2546.73	0.001224
2556.38	0.001248
2566.03	0.001312
2575.67	0.001367
2585.32	0.001369
2594.96	0.001431
2604.61	0.001485
2614.26	0.001577
2623.9	0.001607
2633.55	0.001685
2643.2	0.001725
2652.84	0.001837
2662.49	0.0019767
2672.14	0.00209886
2681.78	0.0022442
2691.43	0.0022614
2701.08	0.0022363
2710.72	0.0022438
2720.37	0.0023402
2730.02	0.0025704
2739.66	0.0028372
2749.31	0.003043
2758.96	0.00307
2768.6	0.0031
2778.25	0.00325
2787.9	0.00361
2797.54	0.00426
2807.19	0.0052
2816.84	0.00647
2826.48	0.00847
2836.13	0.01216
2845.77	0.02057
2855.42	0.03958
2865.07	0.05573
2874.71	0.04889
2884.36	0.04403
2894.01	0.044
2903.65	0.05614
2913.3	0.07622
2922.95	0.10969
2932.59	0.14465
2942.24	0.12628
2951.89	0.09553
2961.53	0.0935
2971.18	0.0801
2980.83	0.03909
2990.47	0.0202
3000.12	0.01281
3009.77	0.00941
3019.41	0.00813
3029.06	0.00718
3038.71	0.00616
3048.35	0.00613
3058	0.00946
3067.64	0.01432
3077.29	0.00888
3086.94	0.00775
3096.58	0.00436
3106.23	0.0028972
3115.88	0.001938
3125.52	0.001511
3135.17	0.001383
3144.82	0.001483
3154.46	0.001414
3164.11	0.00106
3173.76	0.00081
3183.4	0.00074
3193.05	0.00064
3202.7	0.00061
3212.34	0.00053
3221.99	0.0004
3231.64	0.00042
3241.28	0.00013
3250.93	0.00011
3260.58	0.00026
3270.22	0.00013
3279.87	0.00025
3289.52	0.00011
3299.16	0.00032
3308.81	0.00028
3318.45	0.00034
3328.1	0.00031
3337.75	0.00023
3347.39	0.00023
3357.04	0.0004
3366.69	0.00024
3376.33	0.00035
3385.98	0.00031
3395.63	0.00043
3405.27	0.00046
3414.92	0.00033
3424.57	0.00035
3434.21	0.00029
3443.86	0.00048
3453.51	0.00051
3463.15	0.0005
3472.8	0.00043
3482.45	0.0004
3492.09	0.00037
3501.74	0.00043
3511.39	0.00024
3521.03	0.00035
3530.68	0.00051
3540.33	0.00039
3549.97	0.00037
3559.62	0.00039
3569.26	0.00048
3578.91	0.00051
3588.56	0.00046
3598.2	0.00066
3607.85	0.0006
3617.5	0.00065
3627.14	0.00071
3636.79	0.00079
3646.44	0.00075
3656.08	0.00075
3665.73	0.00079
3675.38	0.00082
3685.02	0.00063
3694.67	0.00093
3704.32	0.00103
3713.96	0.00084
3723.61	0.00083
3733.26	0.00096
3742.9	0.00091
3752.55	0.00089
3762.2	0.00095
3771.84	0.00097
3781.49	0.00086
3791.13	0.00093
3800.78	0.00083
3810.43	0.00096
3820.07	0.00098
3829.72	0.00101
3839.37	0.00086
3849.01	0.00106
3858.66	0.00097
3868.31	0.00093
3877.95	0.00092
3887.6	0.001075
3897.25	0.00104
3906.89	0.00096
3916.54	0.001234
3926.19	0.001098
3935.83	0.001141
3945.48	0.001152
3955.13	0.001122
3964.77	0.001173
3974.42	0.001097
3984.07	0.001319
3993.71	0.001278
