Infrared Spectrum: 17Alpha-ETHYL-3-METHOXYESTRA-1,3,5(10)-TRIEN-17Beta-OL
Formula: C21 H30 O2
CAS: 17550-03-7
State: SOLUTION (CS2) VS. SOLVENT
Class: COBLENTZ III
Instrument: BECKMAN IR-7
Sampling: TRANSMISSION
Resolution: 4
Origin: THE WORCESTER FOUNDATION FOR EXPERIMENTAL BIOLOGY
1/CM	TRANSMITTANCE
597.153	0.31
605.694	0.303
614.235	0.288
622.776	0.233
631.317	0.3169
639.858	0.409
648.399	0.399
656.939	0.323
665.48	0.001
674.021	0.479
682.562	0.677
691.103	0.75
699.644	0.761
708.185	0.765
716.726	0.821
725.267	0.781
733.808	0.822
742.349	0.868
750.89	0.873
759.431	0.872
767.972	0.874
776.512	0.785
785.053	0.732
793.594	0.859
802.135	0.87
810.676	0.769
819.217	0.8009
827.758	0.913
836.299	0.8601
844.84	0.796
853.381	0.859
861.922	0.809
870.463	0.734
879.004	0.884
887.545	0.915
896.085	0.856
904.626	0.905
913.167	0.939
921.708	0.861
930.249	0.929
938.79	0.911
947.331	0.849
955.872	0.874
964.413	0.784
972.954	0.5541
981.495	0.777
990.036	0.754
998.577	0.821
1007.12	0.948
1015.66	0.957
1024.2	0.953
1032.74	0.851
1041.28	0.5161
1049.82	0.9129
1058.36	1.012
1066.9	0.98
1075.44	0.986
1083.99	0.932
1092.53	0.885
1101.07	0.866
1109.61	0.915
1118.15	0.861
1126.69	0.92
1135.23	0.857
1143.77	0.662
1152.31	0.618
1160.85	0.68
1169.4	0.77
1177.94	0.769
1186.48	0.819
1195.02	0.866
1203.56	0.832
1212.1	0.823
1220.64	0.776
1229.18	0.5252
1237.72	0.271
1246.26	0.433
1254.8	0.036
1263.35	0.656
1271.89	0.5891
1280.43	0.45
1288.97	0.58
1297.51	0.701
1306.05	0.679
1314.59	0.594
1323.13	0.769
1331.67	0.732
1340.21	0.774
1348.75	0.723
1357.3	0.781
1365.84	0.802
1374.38	0.626
1382.92	0.795
1391.46	0.844
1400	0.867
1408.54	0.822
1417.08	0.726
1425.62	0.59
1434.16	0.517
1442.7	0.478
1451.25	0.573
1459.79	0.538
1468.33	0.631
1476.87	0.7679
1485.41	0.926
1493.95	0.957
1502.49	0.999
1511.03	1.001
1519.57	1.001
1528.11	1.001
1536.66	1.001
1545.2	1.001
1553.74	1.001
1562.28	1.001
1570.82	1.001
1579.36	0.677
1587.9	0.682
1596.44	0.659
1604.98	0.308
1613.52	0.61
1622.06	0.817
1630.61	0.868
1639.15	0.89
1647.69	0.9
1656.23	0.903
1664.77	0.908
1673.31	0.91
1681.85	0.875
1690.39	0.907
1698.93	0.919
1707.47	0.934
1716.01	0.927
1724.56	0.901
1733.1	0.903
1741.64	0.907
1750.18	0.911
1758.72	0.911
1767.26	0.906
1775.8	0.902
1784.34	0.905
1792.88	0.907
1801.42	0.907
1809.96	0.905
1818.51	0.901
1827.05	0.898
1835.59	0.896
1844.13	0.896
1852.67	0.899
1861.21	0.898
1869.75	0.895
1878.29	0.896
1886.83	0.9
1895.37	0.902
1903.91	0.901
1912.46	0.898
1921	0.898
1929.54	0.898
1938.08	0.896
1946.62	0.896
1955.16	0.898
1963.7	0.9
1972.24	0.901
1980.78	0.9
1989.32	0.899
1997.87	0.899
2006.41	0.899
2014.95	0.899
2023.49	0.898
2032.03	0.898
2040.57	0.898
2049.11	0.8975
2057.65	0.896
2066.19	0.895
2074.73	0.8933
2083.27	0.893
2091.82	0.8922
2100.36	0.891
2108.9	0.89
2117.44	0.888
2125.98	0.886
2134.52	0.8839
2143.06	0.881
2151.6	0.881
2160.14	0.88
2168.68	0.8787
2177.22	0.8776
2185.77	0.876
2194.31	0.875
2202.85	0.873
2211.39	0.8714
2219.93	0.8694
2228.47	0.867
2237.01	0.8653
2245.55	0.864
2254.09	0.8612
2262.63	0.859
2271.17	0.8561
2279.72	0.856
2288.26	0.86
2296.8	0.8642
2305.34	0.8683
2313.88	0.8732
2322.42	0.8785
2330.96	0.8839
2339.5	0.8884
2348.04	0.8924
2356.58	0.8959
2365.12	0.8975
2373.67	0.8954
2382.21	0.893
2390.75	0.8893
2399.29	0.8863
2407.83	0.8834
2416.37	0.8812
2424.91	0.8801
2433.45	0.878
2441.99	0.877
2450.53	0.876
2459.08	0.875
2467.62	0.8742
2476.16	0.875
2484.7	0.875
2493.24	0.875
2501.78	0.875
2510.32	0.875
2518.86	0.875
2527.4	0.8745
2535.94	0.874
2544.48	0.873
2553.03	0.8723
2561.57	0.8702
2570.11	0.868
2578.65	0.866
2587.19	0.8641
2595.73	0.863
2604.27	0.863
2612.81	0.862
2621.35	0.862
2629.89	0.862
2638.43	0.861
2646.98	0.86
2655.52	0.859
2664.06	0.8576
2672.6	0.856
2681.14	0.8555
2689.68	0.854
2698.22	0.852
2706.76	0.851
2715.3	0.849
2723.84	0.848
2732.38	0.847
2740.93	0.8443
2749.47	0.8402
2758.01	0.837
2766.55	0.834
2775.09	0.83
2783.63	0.8225
2792.17	0.7555
2800.71	0.6602
2809.25	0.5668
2817.79	0.5319
2826.34	0.569
2834.88	0.4471
2843.42	0.3235
2851.96	0.2458
2860.5	0.2328
2869.04	0.3438
2877.58	0.3334
2886.12	0.2195
2894.66	0.0012
2903.2	0.001
2911.74	0.001
2920.29	0.001
2928.83	0.001
2937.37	0.0039
2945.91	0.0821
2954.45	0.2333
2962.99	0.3389
2971.53	0.43
2980.07	0.5149
2988.61	0.5793
2997.15	0.6617
3005.69	0.763
3014.24	0.7994
3022.78	0.7898
3031.32	0.7697
3039.86	0.806
3048.4	0.8148
3056.94	0.825
3065.48	0.827
3074.02	0.83
3082.56	0.834
3091.1	0.8392
3099.64	0.8472
3108.19	0.8555
3116.73	0.8644
3125.27	0.8683
3133.81	0.87
3142.35	0.8714
3150.89	0.8724
3159.43	0.8755
3167.97	0.8801
3176.51	0.8846
3185.05	0.8893
3193.59	0.891
3202.14	0.8928
3210.68	0.8948
3219.22	0.895
3227.76	0.8979
3236.3	0.899
3244.84	0.9
3253.38	0.9
3261.92	0.9
3270.46	0.9
3279	0.899
3287.55	0.898
3296.09	0.8977
3304.63	0.896
3313.17	0.895
3321.71	0.894
3330.25	0.893
3338.79	0.893
3347.33	0.8937
3355.87	0.8957
3364.41	0.898
3372.95	0.898
3381.5	0.8961
3390.04	0.8931
3398.58	0.883
3407.12	0.877
3415.66	0.8739
3424.2	0.8729
3432.74	0.871
3441.28	0.8697
3449.82	0.8687
3458.36	0.867
3466.9	0.866
3475.45	0.8631
3483.99	0.8574
3492.53	0.8493
3501.07	0.8401
3509.61	0.8306
3518.15	0.8208
3526.69	0.8142
3535.23	0.8055
3543.77	0.7879
3552.31	0.4291
3560.85	0.05
3569.4	0.5084
3577.94	0.642
3586.48	0.7183
3595.02	0.72
3603.56	0.6949
3612.1	0.7149
3620.64	0.7432
3629.18	0.7733
3637.72	0.8219
3646.26	0.8399
3654.81	0.836
3663.35	0.8188
3671.89	0.8029
3680.43	0.8103
3688.97	0.8194
3697.51	0.8286
3706.05	0.8339
3714.59	0.8321
3723.13	0.824
3731.67	0.8149
3740.21	0.81
3748.76	0.8223
3757.3	0.8284
3765.84	0.8333
3774.38	0.8273
3782.92	0.8226
3791.46	0.8187
3800	0.8135
3808.54	0.81
3817.08	0.8138
3825.62	0.8213
3834.16	0.8284
3842.71	0.8292
3851.25	0.8234
3859.79	0.8211
3868.33	0.821
3876.87	0.822
3885.41	0.825
3893.95	0.827
3902.49	0.8259
3911.03	0.8238
3919.57	0.822
3928.11	0.822
3936.66	0.822
3945.2	0.822
3953.74	0.821
3962.28	0.82
3970.82	0.82
3979.36	0.819
3987.9	0.819
3996.44	0.819
4004.98	0.819
