Infrared Spectrum: CYCLOHEXANE-1,3-DIONE, 2-ACETYL-5,5-DIMETHYL-
Formula: C10 H14 O3
CAS: 1755-15-3
State: LIQUID (NEAT)
Class: COBLENTZ III
Instrument: PERKIN-ELMER 21 (GRATING)
Instrument parameters: NaCl PRISM, FILTER CHANGE AT 1075 CM^-^1
Sampling: TRANSMISSION
Path length: CAPILLARY
Resolution: 2
Origin: SOUTHERN RESEARCH INSTITUTE (W.C. COBURN, JR.)
1/CM	TRANSMITTANCE
644.156	0.823
653.174	0.8299
662.191	0.8408
671.209	0.8778
680.227	0.878
689.245	0.873
698.262	0.865
707.28	0.8804
716.298	0.906
725.315	0.906
734.333	0.906
743.351	0.906
752.369	0.895
761.386	0.889
770.404	0.889
779.422	0.8868
788.44	0.882
797.457	0.879
806.475	0.869
815.493	0.861
824.51	0.8686
833.528	0.87
842.546	0.87
851.564	0.87
860.581	0.864
869.599	0.8628
878.617	0.8565
887.634	0.8455
896.652	0.842
905.67	0.8272
914.688	0.7799
923.705	0.7065
932.723	0.731
941.741	0.6919
950.758	0.6115
959.776	0.804
968.794	0.792
977.812	0.7978
986.829	0.801
995.847	0.7788
1004.86	0.7378
1013.88	0.6804
1022.9	0.5858
1031.92	0.546
1040.94	0.5104
1049.95	0.5014
1058.97	0.5946
1067.99	0.6357
1077.01	0.6516
1086.02	0.6874
1095.04	0.7222
1104.06	0.7401
1113.08	0.742
1122.1	0.731
1131.11	0.7409
1140.13	0.7207
1149.15	0.679
1158.17	0.7619
1167.18	0.7827
1176.2	0.802
1185.22	0.8014
1194.24	0.7924
1203.25	0.7615
1212.27	0.7318
1221.29	0.6991
1230.31	0.636
1239.33	0.6313
1248.34	0.6618
1257.36	0.6872
1266.38	0.6951
1275.4	0.6999
1284.41	0.679
1293.43	0.6441
1302.45	0.6206
1311.47	0.5676
1320.48	0.528
1329.5	0.4965
1338.52	0.5371
1347.54	0.5534
1356.56	0.4723
1365.57	0.3906
1374.59	0.4219
1383.61	0.4398
1392.63	0.3394
1401.64	0.2654
1410.66	0.225
1419.68	0.199
1428.7	0.1955
1437.72	0.143
1446.73	0.14
1455.75	0.2058
1464.77	0.2525
1473.79	0.3289
1482.8	0.338
1491.82	0.3253
1500.84	0.2789
1509.86	0.2413
1518.87	0.1879
1527.89	0.1636
1536.91	0.1272
1545.93	0.116
1554.95	0.116
1563.96	0.1252
1572.98	0.137
1582	0.1607
1591.02	0.1904
1600.03	0.2312
1609.05	0.2668
1618.07	0.2997
1627.09	0.314
1636.11	0.3
1645.12	0.1854
1654.14	0.0786
1663.16	0.0896
1672.18	0.1559
1681.19	0.4207
1690.21	0.5289
1699.23	0.6006
1708.25	0.6273
1717.26	0.638
1726.28	0.6737
1735.3	0.6885
1744.32	0.7
1753.34	0.7061
1762.35	0.719
1771.37	0.7319
1780.39	0.7409
1789.41	0.7508
1798.42	0.7588
1807.44	0.7624
1816.46	0.765
1825.48	0.7686
1834.49	0.7709
1843.51	0.778
1852.53	0.7864
1861.55	0.787
1870.57	0.792
1879.58	0.796
1888.6	0.796
1897.62	0.796
1906.64	0.7982
1915.65	0.805
1924.67	0.804
1933.69	0.804
1942.71	0.804
1951.73	0.806
1960.74	0.8012
1969.76	0.801
1978.78	0.801
1987.8	0.801
1996.81	0.7989
2005.83	0.801
2014.85	0.805
2023.87	0.808
2032.88	0.81
2041.9	0.8095
2050.92	0.814
2059.94	0.814
2068.96	0.815
2077.97	0.815
2086.99	0.8155
2096.01	0.8225
2105.03	0.824
2114.04	0.822
2123.06	0.823
2132.08	0.825
2141.1	0.825
2150.12	0.825
2159.13	0.8245
2168.15	0.828
2177.17	0.8295
2186.19	0.8285
2195.2	0.829
2204.22	0.832
2213.24	0.833
2222.26	0.833
2231.27	0.8325
2240.29	0.8325
2249.31	0.8325
2258.33	0.832
2267.35	0.832
2276.36	0.8295
2285.38	0.832
2294.4	0.833
2303.42	0.834
2312.43	0.836
2321.45	0.836
2330.47	0.837
2339.49	0.8375
2348.5	0.8379
2357.52	0.834
2366.54	0.833
2375.56	0.8335
2384.58	0.84
2393.59	0.839
2402.61	0.839
2411.63	0.839
2420.65	0.839
2429.66	0.8375
2438.68	0.834
2447.7	0.834
2456.72	0.8375
2465.74	0.8401
2474.75	0.841
2483.77	0.8375
2492.79	0.836
2501.81	0.836
2510.82	0.834
2519.84	0.836
2528.86	0.83
2537.88	0.829
2546.89	0.829
2555.91	0.83
2564.93	0.832
2573.95	0.834
2582.97	0.8295
2591.98	0.829
2601	0.83
2610.02	0.83
2619.04	0.83
2628.05	0.83
2637.07	0.833
2646.09	0.837
2655.11	0.8375
2664.13	0.837
2673.14	0.837
2682.16	0.837
2691.18	0.837
2700.2	0.837
2709.21	0.837
2718.23	0.833
2727.25	0.8295
2736.27	0.827
2745.28	0.8245
2754.3	0.821
2763.32	0.8074
2772.34	0.7994
2781.36	0.792
2790.37	0.791
2799.39	0.7865
2808.41	0.773
2817.43	0.7534
2826.44	0.7283
2835.46	0.6984
2844.48	0.652
2853.5	0.6445
2862.51	0.642
2871.53	0.641
2880.55	0.638
2889.57	0.6325
2898.59	0.6195
2907.6	0.5613
2916.62	0.5279
2925.64	0.5045
2934.66	0.504
2943.67	0.5507
2952.69	0.6279
2961.71	0.7487
2970.73	0.7931
2979.75	0.8145
2988.76	0.8275
2997.78	0.838
3006.8	0.8491
3015.82	0.858
3024.83	0.8695
3033.85	0.8735
3042.87	0.872
3051.89	0.8705
3060.9	0.869
3069.92	0.87
3078.94	0.874
3087.96	0.874
3096.98	0.874
3105.99	0.873
3115.01	0.873
3124.03	0.875
3133.05	0.875
3142.06	0.875
3151.08	0.875
3160.1	0.8745
3169.12	0.874
3178.14	0.874
3187.15	0.8759
3196.17	0.877
3205.19	0.878
3214.21	0.88
3223.22	0.88
3232.24	0.88
3241.26	0.8841
3250.28	0.888
3259.29	0.888
3268.31	0.884
3277.33	0.884
3286.35	0.8825
3295.37	0.882
3304.38	0.883
3313.4	0.8835
3322.42	0.883
3331.44	0.885
3340.45	0.888
3349.47	0.889
3358.49	0.891
3367.51	0.892
3376.52	0.8975
3385.54	0.898
3394.56	0.898
3403.58	0.897
3412.6	0.8904
3421.61	0.888
3430.63	0.893
3439.65	0.893
3448.67	0.893
3457.68	0.893
3466.7	0.893
3475.72	0.8915
3484.74	0.892
3493.76	0.892
3502.77	0.892
3511.79	0.891
3520.81	0.892
3529.83	0.892
3538.84	0.893
3547.86	0.893
3556.88	0.8965
3565.9	0.9
3574.91	0.9126
3583.93	0.917
3592.95	0.916
3601.97	0.9195
3610.99	0.921
3620	0.919
3629.02	0.918
3638.04	0.9185
3647.06	0.919
3656.07	0.919
3665.09	0.919
3674.11	0.92
3683.13	0.923
3692.15	0.923
3701.16	0.923
3710.18	0.921
3719.2	0.921
3728.22	0.921
3737.23	0.92
3746.25	0.919
3755.27	0.919
3764.29	0.9235
3773.3	0.927
3782.32	0.927
3791.34	0.928
3800.36	0.928
3809.38	0.928
3818.39	0.9275
3827.41	0.928
3836.43	0.9275
3845.45	0.928
3854.46	0.928
3863.48	0.928
3872.5	0.928
3881.52	0.928
3890.53	0.928
3899.55	0.9285
3908.57	0.928
3917.59	0.9285
3926.61	0.928
3935.62	0.932
3944.64	0.9465
3953.66	0.9605
3962.68	0.9801
3971.69	0.9996
3980.71	1.001
3989.73	1.001
3998.75	1.001
4007.77	1.001
