Infrared Spectrum: ETHISTERONE
Formula: C21 H28 O2
CAS: 17554-63-1
State: SOLID (1 mg / 200 mg KBr DISC)
Melting point: 269-275 C
Class: COBLENTZ III
Instrument: PERKIN-ELMER 21 (GRATING)
Instrument parameters: FILTER CHANGE AT 10 MICRONS
Sampling: TRANSMISSION
Path length: 0.055 CM
Resolution: 2
MICROMETERS	TRANSMITTANCE
2.004	0.713
2.03736	0.714
2.07072	0.721
2.10408	0.727
2.13744	0.728
2.17079	0.732
2.20415	0.736
2.23751	0.741
2.27087	0.742
2.30423	0.742
2.33759	0.744
2.37095	0.745
2.40431	0.748
2.43767	0.753
2.47103	0.757
2.50438	0.761
2.53774	0.764
2.5711	0.766
2.60446	0.769
2.63782	0.77
2.67118	0.771
2.70454	0.776
2.7379	0.78
2.77126	0.782
2.80462	0.761
2.83797	0.716
2.87133	0.635
2.90469	0.519
2.93805	0.339
2.97141	0.322
3.00477	0.469
3.03813	0.557
3.07149	0.294
3.10485	0.494
3.13821	0.651
3.17156	0.709
3.20492	0.745
3.23828	0.754
3.27164	0.765
3.305	0.771
3.33836	0.713
3.37172	0.466
3.40508	0.341
3.43844	0.273
3.47179	0.371
3.50515	0.43
3.53851	0.516
3.57187	0.622
3.60523	0.698
3.63859	0.716
3.67195	0.725
3.70531	0.738
3.73867	0.748
3.77203	0.76
3.80538	0.764
3.83874	0.771
3.8721	0.777
3.90546	0.785
3.93882	0.79
3.97218	0.796
4.00554	0.801
4.0389	0.805
4.07226	0.809
4.10562	0.81
4.13897	0.81
4.17233	0.81
4.20569	0.816
4.23905	0.81
4.27241	0.813
4.30577	0.814
4.33913	0.819
4.37249	0.82
4.40585	0.83
4.43921	0.827
4.47256	0.829
4.50592	0.829
4.53928	0.833
4.57264	0.832
4.606	0.839
4.63936	0.84
4.67272	0.839
4.70608	0.839
4.73944	0.83
4.77279	0.82
4.80615	0.839
4.83951	0.844
4.87287	0.842
4.90623	0.841
4.93959	0.844
4.97295	0.845
5.00631	0.848
5.03967	0.851
5.07303	0.853
5.10638	0.853
5.13974	0.854
5.1731	0.859
5.20646	0.86
5.23982	0.861
5.27318	0.86
5.30654	0.86
5.3399	0.861
5.37326	0.864
5.40662	0.867
5.43997	0.869
5.47333	0.863
5.50669	0.865
5.54005	0.86
5.57341	0.859
5.60677	0.861
5.64013	0.863
5.67349	0.854
5.70685	0.846
5.74021	0.829
5.77356	0.817
5.80692	0.819
5.84028	0.805
5.87364	0.76
5.907	0.719
5.94036	0.616
5.97372	0.394
6.00708	0.066
6.04044	0.048
6.07379	0.103
6.10715	0.325
6.14051	0.497
6.17387	0.503
6.20723	0.434
6.24059	0.602
6.27395	0.689
6.30731	0.728
6.34067	0.747
6.37403	0.751
6.40738	0.752
6.44074	0.777
6.4741	0.794
6.50746	0.796
6.54082	0.801
6.57418	0.803
6.60754	0.807
6.6409	0.811
6.67426	0.814
6.70762	0.804
6.74097	0.789
6.77433	0.685
6.80769	0.613
6.84105	0.651
6.87441	0.616
6.90777	0.576
6.94113	0.605
6.97449	0.58
7.00785	0.555
7.04121	0.561
7.07456	0.602
7.10792	0.68
7.14128	0.688
7.17464	0.633
7.208	0.457
7.24136	0.41
7.27472	0.442
7.30808	0.551
7.34144	0.52
7.37479	0.523
7.40815	0.578
7.44151	0.66
7.47487	0.669
7.50823	0.542
7.54159	0.559
7.57495	0.69
7.60831	0.736
7.64167	0.753
7.67503	0.741
7.70838	0.592
7.74174	0.59
7.7751	0.526
7.80846	0.57
7.84182	0.654
7.87518	0.658
7.90854	0.734
7.9419	0.759
7.97526	0.758
8.00862	0.71
8.04197	0.7
8.07533	0.569
8.10869	0.451
8.14205	0.377
8.17541	0.588
8.20877	0.672
8.24213	0.707
8.27549	0.74
8.30885	0.744
8.34221	0.739
8.37556	0.678
8.40892	0.47
8.44228	0.509
8.47564	0.591
8.509	0.67
8.54236	0.728
8.57572	0.745
8.60908	0.736
8.64244	0.691
8.67579	0.672
8.70915	0.615
8.74251	0.678
8.77587	0.7
8.80923	0.659
8.84259	0.625
8.87595	0.534
8.90931	0.41
8.94267	0.565
8.97603	0.678
9.00938	0.695
9.04274	0.694
9.0761	0.678
9.10946	0.719
9.14282	0.74
9.17618	0.742
9.20954	0.728
9.2429	0.661
9.27626	0.592
9.30962	0.601
9.34297	0.467
9.37633	0.309
9.40969	0.346
9.44305	0.208
9.47641	0.269
9.50977	0.43
9.54313	0.57
9.57649	0.635
9.60985	0.667
9.64321	0.702
9.67656	0.708
9.70992	0.672
9.74328	0.617
9.77664	0.6
9.81	0.594
9.84336	0.632
9.87672	0.703
9.91008	0.733
9.94344	0.75
9.97679	0.751
10.0102	0.734
10.0435	0.753
10.0769	0.747
10.1102	0.73
10.1436	0.76
10.1769	0.784
10.2103	0.792
10.2437	0.791
10.277	0.777
10.3104	0.726
10.3437	0.685
10.3771	0.726
10.4105	0.729
10.4438	0.691
10.4772	0.714
10.5105	0.711
10.5439	0.614
10.5773	0.634
10.6106	0.711
10.644	0.769
10.6773	0.797
10.7107	0.803
10.7441	0.798
10.7774	0.775
10.8108	0.775
10.8441	0.734
10.8775	0.695
10.9108	0.723
10.9442	0.75
10.9776	0.792
11.0109	0.821
11.0443	0.828
11.0776	0.836
11.111	0.839
11.1444	0.84
11.1777	0.841
11.2111	0.841
11.2444	0.841
11.2778	0.838
11.3112	0.832
11.3445	0.82
11.3779	0.77
11.4112	0.713
11.4446	0.713
11.4779	0.723
11.5113	0.554
11.5447	0.515
11.578	0.654
11.6114	0.702
11.6447	0.767
11.6781	0.81
11.7115	0.825
11.7448	0.829
11.7782	0.834
11.8115	0.838
11.8449	0.832
11.8783	0.805
11.9116	0.794
11.945	0.802
11.9783	0.778
12.0117	0.767
12.0451	0.805
12.0784	0.83
12.1118	0.839
12.1451	0.845
12.1785	0.846
12.2118	0.847
12.2452	0.853
12.2786	0.854
12.3119	0.851
12.3453	0.851
12.3786	0.851
12.412	0.855
12.4454	0.855
12.4787	0.855
12.5121	0.855
12.5454	0.854
12.5788	0.853
12.6122	0.852
12.6455	0.847
12.6789	0.833
12.7122	0.819
12.7456	0.775
12.7789	0.734
12.8123	0.748
12.8457	0.785
12.879	0.811
12.9124	0.822
12.9457	0.828
12.9791	0.835
13.0125	0.84
13.0458	0.84
13.0792	0.839
13.1125	0.836
13.1459	0.834
13.1793	0.834
13.2126	0.83
13.246	0.826
13.2793	0.819
13.3127	0.803
13.3461	0.789
13.3794	0.788
13.4128	0.797
13.4461	0.802
13.4795	0.8
13.5128	0.791
13.5462	0.779
13.5796	0.766
13.6129	0.74
13.6463	0.71
13.6796	0.667
13.713	0.605
13.7464	0.538
13.7797	0.466
13.8131	0.416
13.8464	0.397
13.8798	0.404
13.9132	0.45
13.9465	0.507
13.9799	0.559
14.0132	0.603
14.0466	0.633
14.0799	0.653
14.1133	0.655
14.1467	0.648
14.18	0.639
14.2134	0.632
14.2467	0.611
14.2801	0.585
14.3135	0.535
14.3468	0.511
14.3802	0.491
14.4135	0.498
14.4469	0.519
14.4803	0.536
14.5136	0.56
14.547	0.58
14.5803	0.604
14.6137	0.629
14.6471	0.639
14.6804	0.642
14.7138	0.635
14.7471	0.617
14.7805	0.622
14.8138	0.639
14.8472	0.654
14.8806	0.679
14.9139	0.686
14.9473	0.691
14.9806	0.692
15.014	0.689
