Infrared Spectrum: N-Chloromethylphthalimide
Formula: C 9 H 6 Cl N O 2
CAS: 17564-64-6
State: gas
Origin: EPA-IR VAPOR PHASE LIBRARY
1/CM	ABSORBANCE
549.8	0.002535
559.445	0.0015062
569.09	0.0009105
578.735	0.0011684
588.38	0.003135
598.025	0.007915
607.67	0.009865
617.315	0.002805
626.96	0.0016432
636.605	0.002015
646.251	0.001212
655.896	0.00122
665.541	0.0013088
675.186	0.001965
684.831	0.005085
694.476	0.011505
704.121	0.009685
713.766	0.014945
723.411	0.043755
733.056	0.049075
742.701	0.016675
752.346	0.006005
761.991	0.003065
771.636	0.002835
781.281	0.003265
790.926	0.002275
800.571	0.0011641
810.216	0.00080422
819.861	0.0007062
829.507	0.0010107
839.152	0.0013926
848.797	0.0014728
858.442	0.000882
868.087	0.0011114
877.732	0.000878
887.377	0.0008864
897.022	0.0011588
906.667	0.002415
916.312	0.008145
925.957	0.022515
935.602	0.025685
945.247	0.010275
954.892	0.003215
964.537	0.002265
974.182	0.002415
983.827	0.002015
993.472	0.0011546
1003.12	0.0011644
1012.76	0.0016896
1022.41	0.0014667
1032.05	0.0016885
1041.7	0.001775
1051.34	0.002325
1060.99	0.004545
1070.63	0.008625
1080.28	0.015745
1089.92	0.018565
1099.57	0.010965
1109.21	0.003565
1118.86	0.0017133
1128.5	0.0015676
1138.15	0.0016289
1147.79	0.002055
1157.44	0.002725
1167.08	0.002935
1176.73	0.003405
1186.37	0.003855
1196.02	0.003925
1205.66	0.002675
1215.31	0.002295
1224.95	0.002355
1234.6	0.002955
1244.24	0.003875
1253.89	0.004915
1263.53	0.004535
1273.18	0.006845
1282.82	0.018745
1292.47	0.059505
1302.11	0.092415
1311.76	0.042655
1321.4	0.010735
1331.05	0.006715
1340.69	0.010785
1350.34	0.022795
1359.98	0.043845
1369.63	0.085625
1379.27	0.102475
1388.92	0.050995
1398.56	0.022295
1408.21	0.013455
1417.85	0.010615
1427.5	0.022335
1437.14	0.019165
1446.79	0.007525
1456.43	0.006455
1466.08	0.007355
1475.73	0.005935
1485.37	0.002985
1495.02	0.002085
1504.66	0.001895
1514.31	0.001935
1523.95	0.001855
1533.6	0.0015427
1543.24	0.0013531
1552.89	0.0014396
1562.53	0.0015506
1572.18	0.002015
1581.82	0.002845
1591.47	0.002985
1601.11	0.002895
1610.76	0.003675
1620.4	0.003735
1630.05	0.002345
1639.69	0.0016114
1649.34	0.0016663
1658.98	0.001955
1668.63	0.002565
1678.27	0.003115
1687.92	0.003505
1697.56	0.003815
1707.21	0.004915
1716.85	0.008885
1726.5	0.016605
1736.14	0.060835
1745.79	0.186965
1755.43	0.188715
1765.08	0.049585
1774.72	0.018885
1784.37	0.018665
1794.01	0.031215
1803.66	0.023315
1813.3	0.007485
1822.95	0.004305
1832.59	0.002955
1842.24	0.002715
1851.88	0.002355
1861.53	0.001865
1871.17	0.001975
1880.82	0.002145
1890.46	0.002315
1900.11	0.002355
1909.75	0.002505
1919.4	0.002125
1929.04	0.0016593
1938.69	0.001755
1948.33	0.0016979
1957.98	0.0013692
1967.62	0.0013984
1977.27	0.0013501
1986.91	0.0010011
1996.56	0.0009209
2006.2	0.0008602
2015.85	0.0008484
2025.49	0.0008474
2035.14	0.0006936
2044.78	0.000579
2054.43	0.00073938
2064.07	0.00079842
2073.72	0.00074489
2083.36	0.00078326
2093.01	0.0008017
2102.65	0.00075961
2112.3	0.0006441
2121.94	0.00062
2131.59	0.0006793
2141.23	0.00081567
2150.88	0.00077242
2160.52	0.0008954
2170.17	0.000931
2179.81	0.0008879
2189.46	0.0007095
2199.1	0.000667
2208.75	0.00072039
2218.39	0.00081885
2228.04	0.00080324
2237.68	0.00077644
2247.33	0.0006595
2256.97	0.0007083
2266.62	0.0008306
2276.26	0.0008254
2285.91	0.0009402
2295.55	0.0009651
2305.2	0.0009342
2314.84	0.0010595
2324.49	0.0009656
2334.13	0.0009464
2343.78	0.0011201
2353.42	0.0012289
2363.07	0.0011392
2372.72	0.0008393
2382.36	0.0006801
2392.01	0.0006941
2401.65	0.0006339
2411.3	0.000569
2420.94	0.000542
2430.59	0.000604
2440.23	0.000730025
2449.88	0.0008456
2459.52	0.0009576
2469.17	0.00075976
2478.81	0.000624
2488.46	0.000513
2498.1	0.000458
2507.75	0.000533
2517.39	0.000492
2527.04	0.000504
2536.68	0.000425
2546.33	0.00046
2555.97	0.000398
2565.62	0.0004
2575.26	0.000334
2584.91	0.00034
2594.55	0.000336
2604.2	0.000297
2613.84	0.000348
2623.49	0.000319
2633.13	0.000505
2642.78	0.000349
2652.42	0.00047
2662.07	0.0006288
2671.71	0.00065
2681.36	0.0006511
2691	0.0006514
2700.65	0.000595
2710.29	0.000459
2719.94	0.000344
2729.58	0.000307
2739.23	0.000242
2748.87	8.1e-05
2758.52	0.000129
2768.16	0.000168
2777.81	0.000303
2787.45	0.000348
2797.1	0.000288
2806.74	0.000354
2816.39	0.00025
2826.03	0.000204
2835.68	0.000219
2845.32	0.000173
2854.97	0.000172
2864.61	0.000225
2874.26	0.000167
2883.9	0.000171
2893.55	0.000192
2903.19	0.00032
2912.84	0.000318
2922.48	0.000522
2932.13	0.00044
2941.77	0.000249
2951.42	0.000377
2961.06	0.000372
2970.71	0.00079757
2980.35	0.002325
2990	0.003275
2999.64	0.0012552
3009.29	0.000333
3018.93	0.000212
3028.58	0.0006658
3038.22	0.0009945
3047.87	0.0016026
3057.51	0.002355
3067.16	0.002455
3076.8	0.002925
3086.45	0.004335
3096.09	0.002955
3105.74	0.0010995
3115.38	0.000422
3125.03	0.000265
3134.67	0.000164
3144.32	0.000195
3153.96	0.000291
3163.61	0.000308
3173.25	0.00023
3182.9	0.000373
3192.54	0.000333
3202.19	0.000202
3211.83	0.000438
3221.48	0.000382
3231.12	0.000421
3240.77	0.000398
3250.41	0.000329
3260.06	0.000467
3269.7	0.00028
3279.35	0.000267
3289	0.000397
3298.64	0.00034
3308.29	0.00031
3317.93	0.000293
3327.58	0.000264
3337.22	0.000421
3346.87	0.00039
3356.51	0.000334
3366.16	0.000326
3375.8	0.000523
3385.45	0.00051
3395.09	0.00037
3404.74	0.000388
3414.38	0.000289
3424.03	0.000546
3433.67	0.000615
3443.32	0.00046
3452.96	0.000613
3462.61	0.000598
3472.25	0.0006374
3481.9	0.00071628
3491.54	0.0008521
3501.19	0.0010476
3510.83	0.0015798
3520.48	0.002255
3530.12	0.002795
3539.77	0.001965
3549.41	0.0010817
3559.06	0.00074864
3568.7	0.0006602
3578.35	0.00071839
3587.99	0.00081665
3597.64	0.000368
3607.28	0.000527
3616.93	0.000522
3626.57	0.000623
3636.22	0.00074155
3645.86	0.000608
3655.51	0.0006869
3665.15	0.000466
3674.8	0.0007084
3684.44	0.000573
3694.09	0.000596
3703.73	0.000558
3713.38	0.0006936
3723.02	0.000496
3732.67	0.0006469
3742.31	0.000431
3751.96	0.000516
3761.6	0.000574
3771.25	0.000622
3780.89	0.0006727
3790.54	0.000624
3800.18	0.00075081
3809.83	0.000468
3819.47	0.0007143
3829.12	0.00075334
3838.76	0.0006689
3848.41	0.000543
3858.05	0.00064
3867.7	0.000551
3877.34	0.000532
3886.99	0.000565
3896.63	0.000453
3906.28	0.000574
3915.92	0.000631
3925.57	0.000602
3935.21	0.000542
3944.86	0.000528
3954.5	0.000488
3964.15	0.000483
3973.79	0.000484
3983.44	0.000453
3993.08	0.000554
