Infrared Spectrum: 3-Methoxythiophene
Formula: C 5 H 6 O S
CAS: 17573-92-1
State: gas
Origin: EPA-IR VAPOR PHASE LIBRARY
1/CM	ABSORBANCE
549.8	0.00411
559.445	0.00431
569.09	0.00429
578.734	0.00323
588.379	0.00348
598.024	0.00591
607.669	0.00919
617.313	0.01325
626.958	0.01533
636.603	0.01694
646.248	0.01707
655.893	0.01794
665.537	0.01354
675.182	0.0079
684.827	0.00422
694.472	0.00299
704.116	0.00321
713.761	0.00468
723.406	0.01097
733.051	0.02384
742.695	0.03831
752.34	0.06491
761.985	0.05098
771.63	0.03806
781.275	0.02052
790.919	0.01039
800.564	0.00552
810.209	0.00444
819.854	0.00864
829.498	0.0105
839.143	0.01031
848.788	0.00774
858.433	0.01111
868.078	0.01348
877.722	0.01241
887.367	0.00626
897.012	0.004
906.657	0.00435
916.301	0.00766
925.946	0.01319
935.591	0.01358
945.236	0.00966
954.88	0.00416
964.525	0.00388
974.17	0.00416
983.815	0.00425
993.46	0.00528
1003.1	0.00758
1012.75	0.01429
1022.39	0.03079
1032.04	0.04487
1041.68	0.04664
1051.33	0.03518
1060.97	0.02075
1070.62	0.02211
1080.26	0.01968
1089.91	0.01176
1099.55	0.00628
1109.2	0.00416
1118.84	0.00285
1128.49	0.00526
1138.13	0.01044
1147.78	0.02901
1157.42	0.0453
1167.07	0.0502
1176.71	0.02979
1186.36	0.0193
1196	0.02743
1205.64	0.02837
1215.29	0.02565
1224.93	0.03613
1234.58	0.0583
1244.22	0.05973
1253.87	0.0391
1263.51	0.01625
1273.16	0.01146
1282.8	0.00767
1292.45	0.00656
1302.09	0.00518
1311.74	0.00513
1321.38	0.00414
1331.03	0.00367
1340.67	0.00304
1350.32	0.00434
1359.96	0.00901
1369.61	0.0231
1379.25	0.05819
1388.9	0.09378
1398.54	0.09625
1408.18	0.06292
1417.83	0.02552
1427.47	0.01642
1437.12	0.01197
1446.76	0.0142
1456.41	0.01846
1466.05	0.01738
1475.7	0.01372
1485.34	0.0106
1494.99	0.00984
1504.63	0.01442
1514.28	0.02102
1523.92	0.03771
1533.57	0.08375
1543.21	0.12742
1552.86	0.1152
1562.5	0.05168
1572.15	0.00851
1581.79	0.00426
1591.44	0.00374
1601.08	0.00367
1610.73	0.00353
1620.37	0.00344
1630.01	0.00316
1639.66	0.00289
1649.3	0.00268
1658.95	0.00277
1668.59	0.00253
1678.24	0.0021
1687.88	0.00221
1697.53	0.00216
1707.17	0.00236
1716.82	0.00314
1726.46	0.00331
1736.11	0.00339
1745.75	0.00275
1755.4	0.0020293
1765.04	0.0017719
1774.69	0.0015401
1784.33	0.0017035
1793.98	0.0017202
1803.62	0.0017405
1813.27	0.0017592
1822.91	0.0016496
1832.55	0.0015113
1842.2	0.0015068
1851.84	0.0014506
1861.49	0.0016443
1871.13	0.0016602
1880.78	0.0015652
1890.42	0.0018606
1900.07	0.0016169
1909.71	0.0013566
1919.36	0.001396
1929	0.0015985
1938.65	0.0016707
1948.29	0.0016975
1957.94	0.0015691
1967.58	0.0015613
1977.23	0.0016964
1986.87	0.0016809
1996.52	0.0017812
2006.16	0.0017901
2015.81	0.00213
2025.45	0.00213
2035.1	0.00255
2044.74	0.00276
2054.38	0.00323
2064.03	0.00369
2073.67	0.00369
2083.32	0.00348
2092.96	0.00268
2102.61	0.00232
2112.25	0.001819
2121.9	0.0015332
2131.54	0.0018736
2141.19	0.0014496
2150.83	0.0016332
2160.48	0.0014774
2170.12	0.0016594
2179.77	0.0016902
2189.41	0.0016416
2199.06	0.0019394
2208.7	0.00206
2218.35	0.0015396
2227.99	0.001499
2237.64	0.0014506
2247.28	0.0012722
2256.92	0.0013354
2266.57	0.00109218
2276.21	0.0011795
2285.86	0.0016186
2295.5	0.0014244
2305.15	0.0014333
2314.79	0.0017677
2324.44	0.0017119
2334.08	0.0016427
2343.73	0.0014712
2353.37	0.0015007
2363.02	0.0014601
2372.66	0.0013742
2382.31	0.0015424
2391.95	0.0016598
2401.6	0.0017181
2411.24	0.0009847
2420.89	0.0011706
2430.53	0.0013707
2440.18	0.00114848
2449.82	0.0016684
2459.47	0.0018983
2469.11	0.0019216
2478.75	0.00192
2488.4	0.0018707
2498.04	0.0012704
2507.69	0.0012375
2517.33	0.000875
2526.98	0.00108118
2536.62	0.0010029
2546.27	0.00109592
2555.91	0.0010355
2565.56	0.0013809
2575.2	0.0013713
2584.85	0.00105774
2594.49	0.0013428
2604.14	0.0017675
2613.78	0.0019764
2623.43	0.0016406
2633.07	0.0020072
2642.72	0.0017143
2652.36	0.0017909
2662.01	0.0013549
2671.65	0.00115189
2681.29	0.00115391
2690.94	0.0012143
2700.58	0.0014941
2710.23	0.0013371
2719.87	0.0012291
2729.52	0.0020204
2739.16	0.0013072
2748.81	0.0014352
2758.45	0.00213
2768.1	0.0021
2777.74	0.00299
2787.39	0.00317
2797.03	0.00369
2806.68	0.00503
2816.32	0.00749
2825.97	0.00984
2835.61	0.01116
2845.26	0.0119
2854.9	0.0137
2864.55	0.01447
2874.19	0.01299
2883.84	0.01146
2893.48	0.01091
2903.12	0.01382
2912.77	0.01842
2922.41	0.02082
2932.06	0.02599
2941.7	0.03147
2951.35	0.03219
2960.99	0.02593
2970.64	0.01743
2980.28	0.01367
2989.93	0.01421
2999.57	0.02134
3009.22	0.02339
3018.86	0.01874
3028.51	0.00849
3038.15	0.00454
3047.8	0.00379
3057.44	0.00377
3067.09	0.0042
3076.73	0.00414
3086.38	0.00388
3096.02	0.00386
3105.67	0.00387
3115.31	0.00431
3124.95	0.0051
3134.6	0.00417
3144.24	0.00301
3153.89	0.001394
3163.53	0.0018265
3173.18	0.0018013
3182.82	0.0009833
3192.47	0.00112977
3202.11	0.00112745
3211.76	0.0012024
3221.4	0.0012793
3231.05	0.0010305
3240.69	0.0012542
3250.34	0.000786
3259.98	0.0012963
3269.63	0.00069
3279.27	0.000749
3288.92	0.00111266
3298.56	0.00106409
3308.21	0.0011882
3317.85	0.000385
3327.49	0.000926
3337.14	0.0009904
3346.78	0.00106491
3356.43	0.00057
3366.07	0.0012928
3375.72	0.0013009
3385.36	0.0009775
3395.01	0.0012388
3404.65	0.000857
3414.3	0.0010226
3423.94	0.000847
3433.59	0.0011967
3443.23	0.00114398
3452.88	0.0010069
3462.52	0.000733
3472.17	0.000483
3481.81	0.001645
3491.46	0.00115399
3501.1	0.0014907
3510.75	0.0016554
3520.39	0.00042
3530.04	0.000267
3539.68	0.0014161
3549.32	0.000379
3558.97	0.000946
3568.61	0.00108129
3578.26	0.000759
3587.9	0.0011992
3597.55	0.000712
3607.19	0.000707
3616.84	0.000951
3626.48	0.000791
3636.13	0.0012938
3645.77	0.0011646
3655.42	0.0016101
3665.06	0.00108706
3674.71	0.000933
3684.35	0.000769
3694	0.0013441
3703.64	0.0012736
3713.29	0.0010371
3722.93	0.0019782
3732.58	0.000701
3742.22	0.0012941
3751.86	0.0015608
3761.51	0.0012963
3771.15	0.0013752
3780.8	0.000554
3790.44	0.00113893
3800.09	0.0012197
3809.73	0.0012851
3819.38	0.0009881
3829.02	0.000712
3838.67	0.0016918
3848.31	0.0015261
3857.96	0.0010318
3867.6	0.0014582
3877.25	0.001345
3886.89	0.0012911
3896.54	0.000628
3906.18	0.000318
3915.83	0.0013162
3925.47	0.0011932
3935.12	0.000563
3944.76	0.0015862
3954.41	0.0015293
3964.05	0.00211
3973.69	0.0010162
3983.34	0.0017484
3992.98	0.001704
