Infrared Spectrum: 3-Methylcyclopentanone
Formula: C 6 H 10 O
CAS: 1757-42-2
State: gas
Instrument: HP-GC/MS/IRD
Origin: NIST Mass Spectrometry Data Center
1/CM	ABSORBANCE
550	0.0002784
562	0.000108
574	0.0002112
586	0.0002856
598	0.0001512
610	4.8e-05
622	3.12e-05
634	6.24e-05
646	7.44e-05
658	6e-05
670	8.4e-05
682	8.16e-05
694	4.8e-06
706	9.84e-05
718	0.0001608
730	0.0002328
742	0.0002232
754	0.0001392
766	0.0001152
778	0.0001632
790	0.0003312
802	0.000336
814	0.0002784
826	0.000144
838	9.6e-05
850	0.0001464
862	0.0002616
874	0.0003672
886	0.0003408
898	0.0002496
910	0.0001872
922	0.000252
934	0.0002472
946	0.0002136
958	0.000168
970	0.000216
982	0.0002976
994	0.0003816
1006	0.0003096
1018	0.0003528
1030	0.0003384
1042	0.0004272
1054	0.0006144
1066	0.0007344
1078	0.0006336
1090	0.000468
1102	0.0005232
1114	0.0009384
1126	0.0020064
1138	0.0041976
1150	0.0052416
1162	0.004248
1174	0.0019584
1186	0.0009528
1198	0.0006408
1210	0.0005352
1222	0.0007032
1234	0.0009144
1246	0.0009648
1258	0.0006912
1270	0.0006456
1282	0.00072
1294	0.0007488
1306	0.0007176
1318	0.0005496
1330	0.0005112
1342	0.0006192
1354	0.000564
1366	0.0005304
1378	0.0008184
1390	0.0012192
1402	0.0017328
1414	0.0019536
1426	0.0017496
1438	0.0011088
1450	0.001092
1462	0.0012624
1474	0.0010032
1486	0.0006048
1498	0.0002904
1510	0.0001728
1522	0.00012
1534	9.6e-05
1546	0.0001032
1558	0.0001008
1570	0.0001152
1582	0.0001536
1594	0.000168
1606	0.0001944
1618	0.0002112
1630	0.000204
1642	0.000216
1654	0.0002904
1666	0.0004176
1678	0.0006048
1690	0.0007608
1702	0.0009696
1714	0.0014184
1726	0.0025272
1738	0.0065112
1750	0.0170616
1762	0.024
1774	0.0196008
1786	0.0058848
1798	0.0018408
1810	0.0009672
1822	0.0007152
1834	0.0005232
1846	0.0004032
1858	0.0002952
1870	0.0002208
1882	0.0001848
1894	0.0001368
1906	0.0001032
1918	6e-05
1930	5.52e-05
1942	6.72e-05
1954	7.2e-05
1966	7.44e-05
1978	6.48e-05
1990	6e-05
2002	6.24e-05
2014	5.76e-05
2026	8.16e-05
2038	7.68e-05
2050	3.84e-05
2062	2.88e-05
2074	2.16e-05
2086	2.16e-05
2098	2.16e-05
2110	0
2122	3.12e-05
2134	3.36e-05
2146	4.8e-05
2158	3.84e-05
2170	3.36e-05
2182	3.36e-05
2194	6e-05
2206	6.48e-05
2218	6.24e-05
2230	2.88e-05
2242	9.6e-06
2254	1.92e-05
2266	3.36e-05
2278	4.56e-05
2290	5.52e-05
2302	3.12e-05
2314	1.92e-05
2326	1.2e-05
2338	3.6e-05
2350	3.6e-05
2362	4.08e-05
2374	3.6e-05
2386	1.2e-05
2398	3.84e-05
2410	3.84e-05
2422	2.64e-05
2434	2.64e-05
2446	3.6e-05
2458	4.8e-05
2470	2.88e-05
2482	2.88e-05
2494	2.16e-05
2506	1.44e-05
2518	2.4e-06
2530	0
2542	1.44e-05
2554	2.16e-05
2566	3.84e-05
2578	6e-05
2590	5.04e-05
2602	4.32e-05
2614	5.76e-05
2626	5.76e-05
2638	6.96e-05
2650	6.72e-05
2662	6e-05
2674	2.64e-05
2686	7.2e-05
2698	7.44e-05
2710	4.8e-05
2722	0.0001032
2734	0.0001392
2746	0.0001848
2758	0.0001776
2770	0.000144
2782	0.000144
2794	0.0001992
2806	0.0003408
2818	0.0004464
2830	0.0004752
2842	0.000588
2854	0.00102
2866	0.0022992
2878	0.0037848
2890	0.0044184
2902	0.0044064
2914	0.0045696
2926	0.0053616
2938	0.0065952
2950	0.0094728
2962	0.0125304
2974	0.0109848
2986	0.004968
2998	0.0015888
3010	0.0006288
3022	0.0004128
3034	0.0003864
3046	0.0003528
3058	0.0002952
3070	0.0002472
3082	0.0002088
3094	0.0001512
3106	0.0001248
3118	0.0001248
3130	9.36e-05
3142	0.000108
3154	7.44e-05
3166	9.6e-05
3178	0.000108
3190	7.92e-05
3202	7.44e-05
3214	4.32e-05
3226	1.68e-05
3238	1.2e-05
3250	1.44e-05
3262	3.36e-05
3274	3.84e-05
3286	7.2e-06
3298	5.28e-05
3310	4.8e-06
3322	9.6e-06
3334	1.68e-05
3346	2.88e-05
3358	2.4e-05
3370	3.12e-05
3382	3.6e-05
3394	9.12e-05
3406	5.04e-05
3418	4.56e-05
3430	8.64e-05
3442	9.36e-05
3454	4.08e-05
3466	0.0001224
3478	0.0001944
3490	0.0003456
3502	0.0005088
3514	0.0004824
3526	0.000312
3538	0.0001656
3550	0.0001224
3562	9.36e-05
3574	5.76e-05
3586	5.52e-05
3598	3.84e-05
3610	7.92e-05
3622	5.76e-05
3634	5.28e-05
3646	4.32e-05
3658	3.6e-05
3670	4.08e-05
3682	4.08e-05
3694	4.56e-05
3706	3.84e-05
3718	4.8e-05
3730	2.88e-05
3742	4.32e-05
3754	8.64e-05
3766	5.28e-05
3778	5.76e-05
3790	3.12e-05
3802	1.44e-05
3814	6.72e-05
3826	5.76e-05
3838	5.52e-05
