Infrared Spectrum: 1,3,3-TRIMETHOXY-2-PROPENE
Formula: C6 H12 O3
CAS: 17576-35-1
State: SOLUTION (2% CCl4 FOR 2-7.5, 2% CS2 FOR 7.5-16.0 MICRON) VS SOLVENT
Class: COBLENTZ III
Instrument: BAIRD (PRISM)
Instrument parameters: NaCl PRISM
Sampling: TRANSMISSION
Path length: 0.013 CM, 0.013 CM
Resolution: 2
Origin: DOW CHEMICAL COMPANY
MICROMETERS	TRANSMITTANCE
1.98	0.901
2.01904	0.901
2.05808	0.903
2.09712	0.903
2.13616	0.899
2.1752	0.897
2.21424	0.889
2.25328	0.889
2.29232	0.894
2.33136	0.898
2.3704	0.897
2.40944	0.89
2.44848	0.894
2.48752	0.899
2.52656	0.899
2.5656	0.894
2.60464	0.894
2.64368	0.898
2.68272	0.898
2.72176	0.893
2.7608	0.89
2.79984	0.892
2.83888	0.898
2.87792	0.898
2.91696	0.898
2.956	0.894
2.99504	0.894
3.03408	0.895
3.07312	0.893
3.11216	0.888
3.1512	0.879
3.19024	0.87
3.22928	0.85
3.26832	0.828
3.30736	0.708
3.3464	0.609
3.38544	0.573
3.42448	0.655
3.46352	0.737
3.50256	0.685
3.5416	0.855
3.58064	0.865
3.61968	0.87
3.65872	0.875
3.69776	0.877
3.73681	0.875
3.77585	0.877
3.81489	0.877
3.85393	0.879
3.89297	0.879
3.93201	0.881
3.97105	0.881
4.01009	0.881
4.04913	0.881
4.08817	0.878
4.12721	0.882
4.16625	0.888
4.20529	0.881
4.24433	0.875
4.28337	0.871
4.32241	0.875
4.36145	0.878
4.40049	0.878
4.43953	0.879
4.47857	0.878
4.51761	0.878
4.55665	0.872
4.59569	0.871
4.63473	0.866
4.67377	0.865
4.71281	0.865
4.75185	0.868
4.79089	0.868
4.82993	0.866
4.86897	0.865
4.90801	0.865
4.94705	0.867
4.98609	0.868
5.02513	0.868
5.06417	0.872
5.10321	0.87
5.14225	0.871
5.18129	0.872
5.22033	0.872
5.25937	0.872
5.29841	0.871
5.33745	0.872
5.37649	0.871
5.41553	0.871
5.45457	0.863
5.49361	0.868
5.53265	0.87
5.57169	0.867
5.61073	0.863
5.64977	0.857
5.68881	0.85
5.72785	0.848
5.76689	0.851
5.80593	0.859
5.84497	0.852
5.88401	0.819
5.92305	0.746
5.96209	0.628
6.00113	0.535
6.04017	0.616
6.07921	0.791
6.11825	0.801
6.15729	0.833
6.19633	0.849
6.23537	0.849
6.27441	0.851
6.31345	0.851
6.35249	0.849
6.39153	0.846
6.43057	0.843
6.46961	0.838
6.50865	0.832
6.54769	0.802
6.58673	0.806
6.62577	0.829
6.66481	0.839
6.70385	0.81
6.74289	0.763
6.78193	0.688
6.82097	0.676
6.86001	0.677
6.89905	0.699
6.93809	0.761
6.97713	0.807
7.01617	0.828
7.05521	0.805
7.09425	0.794
7.13329	0.78
7.17233	0.77
7.21138	0.785
7.25042	0.802
7.28946	0.784
7.3285	0.752
7.36754	0.769
7.40658	0.799
7.44562	0.768
7.48466	0.73
7.5237	0.752
7.56274	0.754
7.60178	0.754
7.64082	0.779
7.67986	0.791
7.7189	0.786
7.75794	0.786
7.79698	0.785
7.83602	0.772
7.87506	0.738
7.9141	0.712
7.95314	0.702
7.99218	0.689
8.03122	0.661
8.07026	0.62
8.1093	0.577
8.14834	0.511
8.18738	0.443
8.22642	0.542
8.26546	0.573
8.3045	0.542
8.34354	0.515
8.38258	0.562
8.42162	0.628
8.46066	0.664
8.4997	0.62
8.53874	0.522
8.57778	0.484
8.61682	0.515
8.65586	0.552
8.6949	0.537
8.73394	0.479
8.77298	0.422
8.81202	0.375
8.85106	0.329
8.8901	0.311
8.92914	0.294
8.96818	0.283
9.00722	0.343
9.04626	0.401
9.0853	0.443
9.12434	0.438
9.16338	0.384
9.20242	0.363
9.24146	0.354
9.2805	0.341
9.31954	0.37
9.35858	0.399
9.39762	0.346
9.43666	0.287
9.4757	0.258
9.51474	0.235
9.55378	0.297
9.59282	0.416
9.63186	0.536
9.6709	0.621
9.70994	0.688
9.74898	0.72
9.78802	0.734
9.82706	0.741
9.8661	0.729
9.90514	0.693
9.94418	0.66
9.98322	0.672
10.0223	0.709
10.0613	0.718
10.1003	0.703
10.1394	0.705
10.1784	0.72
10.2175	0.724
10.2565	0.712
10.2955	0.689
10.3346	0.666
10.3736	0.665
10.4127	0.665
10.4517	0.64
10.4907	0.604
10.5298	0.602
10.5688	0.602
10.6079	0.571
10.6469	0.533
10.6859	0.513
10.725	0.509
10.764	0.513
10.8031	0.518
10.8421	0.552
10.8811	0.626
10.9202	0.678
10.9592	0.708
10.9983	0.723
11.0373	0.705
11.0763	0.662
11.1154	0.639
11.1544	0.655
11.1935	0.708
11.2325	0.752
11.2715	0.789
11.3106	0.808
11.3496	0.825
11.3887	0.83
11.4277	0.843
11.4667	0.85
11.5058	0.851
11.5448	0.851
11.5839	0.851
11.6229	0.854
11.6619	0.855
11.701	0.855
11.74	0.854
11.7791	0.854
11.8181	0.855
11.8571	0.86
11.8962	0.862
11.9352	0.861
11.9743	0.86
12.0133	0.85
12.0523	0.837
12.0914	0.827
12.1304	0.822
12.1695	0.822
12.2085	0.829
12.2475	0.838
12.2866	0.841
12.3256	0.843
12.3647	0.841
12.4037	0.834
12.4428	0.827
12.4818	0.822
12.5208	0.827
12.5599	0.834
12.5989	0.84
12.638	0.838
12.677	0.832
12.716	0.83
12.7551	0.828
12.7941	0.83
12.8332	0.832
12.8722	0.841
12.9112	0.841
12.9503	0.84
12.9893	0.841
13.0284	0.841
13.0674	0.841
13.1064	0.838
13.1455	0.834
13.1845	0.833
13.2236	0.83
13.2626	0.828
13.3016	0.832
13.3407	0.832
13.3797	0.837
13.4188	0.837
13.4578	0.835
13.4968	0.832
13.5359	0.83
13.5749	0.819
13.614	0.813
13.653	0.812
13.692	0.813
13.7311	0.821
13.7701	0.825
13.8092	0.83
13.8482	0.829
13.8872	0.832
13.9263	0.834
13.9653	0.839
14.0044	0.833
14.0434	0.83
14.0824	0.828
14.1215	0.828
14.1605	0.828
14.1996	0.822
14.2386	0.821
14.2776	0.823
14.3167	0.823
14.3557	0.823
14.3948	0.819
14.4338	0.818
14.4728	0.812
14.5119	0.812
14.5509	0.812
14.59	0.808
14.629	0.803
14.668	0.803
14.7071	0.802
14.7461	0.802
14.7852	0.802
14.8242	0.8
14.8632	0.792
14.9023	0.791
14.9413	0.786
14.9804	0.781
15.0194	0.772
15.0584	0.77
15.0975	0.77
15.1365	0.769
15.1756	0.762
15.2146	0.758
15.2536	0.758
15.2927	0.757
15.3317	0.754
15.3708	0.754
15.4098	0.752
15.4488	0.752
15.4879	0.752
15.5269	0.752
15.566	0.748
15.605	0.748
15.644	0.75
15.6831	0.75
15.7221	0.75
15.7612	0.75
15.8002	0.75
15.8392	0.75
15.8783	0.75
15.9173	0.75
