Infrared Spectrum: 2-Phenoxyethylamine
Formula: C 8 H 11 N O
CAS: 1758-46-9
State: gas
Origin: EPA-IR VAPOR PHASE LIBRARY
1/CM	ABSORBANCE
549.8	0.003267
559.445	0.002587
569.09	0.002867
578.734	0.003437
588.379	0.004067
598.024	0.003787
607.669	0.003297
617.313	0.002997
626.958	0.003007
636.603	0.003327
646.248	0.003667
655.893	0.004467
665.537	0.006577
675.182	0.009467
684.827	0.014047
694.472	0.015487
704.116	0.011957
713.761	0.009737
723.406	0.010307
733.051	0.016797
742.695	0.023177
752.34	0.029707
761.985	0.026577
771.63	0.022507
781.275	0.019347
790.919	0.017947
800.564	0.015787
810.209	0.011617
819.854	0.009837
829.498	0.006507
839.143	0.005977
848.788	0.005577
858.433	0.006777
868.078	0.008467
877.722	0.010147
887.367	0.009407
897.012	0.007727
906.657	0.006327
916.301	0.005207
925.946	0.004517
935.591	0.004247
945.236	0.004117
954.88	0.003687
964.525	0.004537
974.17	0.004747
983.815	0.006577
993.46	0.008487
1003.1	0.010677
1012.75	0.013627
1022.39	0.019007
1032.04	0.022717
1041.68	0.020997
1051.33	0.015097
1060.97	0.010597
1070.62	0.008677
1080.26	0.008517
1089.91	0.009207
1099.55	0.006027
1109.2	0.005967
1118.84	0.004697
1128.49	0.002957
1138.13	0.002787
1147.78	0.004047
1157.42	0.008647
1167.07	0.013847
1176.71	0.012197
1186.36	0.007857
1196	0.011717
1205.64	0.018317
1215.29	0.030877
1224.93	0.045327
1234.58	0.068077
1244.22	0.076927
1253.87	0.048157
1263.51	0.022067
1273.16	0.016607
1282.8	0.016217
1292.45	0.015977
1302.09	0.013257
1311.74	0.008517
1321.38	0.006517
1331.03	0.006077
1340.67	0.005877
1350.32	0.005357
1359.96	0.006067
1369.61	0.006337
1379.25	0.005847
1388.9	0.004277
1398.54	0.003587
1408.18	0.003167
1417.83	0.002997
1427.47	0.002817
1437.12	0.003817
1446.76	0.005847
1456.41	0.011777
1466.05	0.015717
1475.7	0.016757
1485.34	0.032127
1494.99	0.047897
1504.63	0.029827
1514.28	0.008047
1523.92	0.005037
1533.57	0.004437
1543.21	0.004227
1552.86	0.004527
1562.5	0.006457
1572.15	0.010837
1581.79	0.020407
1591.44	0.034987
1601.08	0.036057
1610.73	0.019447
1620.37	0.009317
1630.01	0.007337
1639.66	0.005447
1649.3	0.004057
1658.95	0.003517
1668.59	0.002897
1678.24	0.002527
1687.88	0.002577
1697.53	0.002587
1707.17	0.002177
1716.82	0.001667
1726.46	0.001887
1736.11	0.001707
1745.75	0.001807
1755.4	0.002267
1765.04	0.002117
1774.69	0.001717
1784.33	0.001667
1793.98	0.001787
1803.62	0.001757
1813.27	0.001687
1822.91	0.001917
1832.55	0.002077
1842.2	0.002147
1851.84	0.002087
1861.49	0.001867
1871.13	0.0016168
1880.78	0.0013116
1890.42	0.001677
1900.07	0.001757
1909.71	0.002107
1919.36	0.002217
1929	0.002467
1938.65	0.002257
1948.29	0.002247
1957.94	0.001747
1967.58	0.0013116
1977.23	0.001727
1986.87	0.0015605
1996.52	0.001657
2006.16	0.0015133
2015.81	0.001787
2025.45	0.001737
2035.1	0.001907
2044.74	0.001817
2054.38	0.0015533
2064.03	0.001807
2073.67	0.001621
2083.32	0.0015444
2092.96	0.001425
2102.61	0.0011386
2112.25	0.0012773
2121.9	0.0012919
2131.54	0.0011305
2141.19	0.0012235
2150.83	0.001094
2160.48	0.0009731
2170.12	0.0009014
2179.77	0.0013751
2189.41	0.0010944
2199.06	0.0013556
2208.7	0.001027
2218.35	0.0012027
2227.99	0.0011382
2237.64	0.0012205
2247.28	0.0012593
2256.92	0.0011823
2266.57	0.0011268
2276.21	0.0010947
2285.86	0.001468
2295.5	0.0011046
2305.15	0.0012358
2314.79	0.0011313
2324.44	0.0012438
2334.08	0.001067
2343.73	0.001128
2353.37	0.0013823
2363.02	0.0011704
2372.66	0.0010977
2382.31	0.0010459
2391.95	0.001449
2401.6	0.0014289
2411.24	0.0013078
2420.89	0.0011029
2430.53	0.0012892
2440.18	0.0014705
2449.82	0.0013123
2459.47	0.0015457
2469.11	0.0013336
2478.75	0.0013294
2488.4	0.0013477
2498.04	0.0016004
2507.69	0.0014172
2517.33	0.0013696
2526.98	0.0013392
2536.62	0.001475
2546.27	0.0014957
2555.91	0.0014266
2565.56	0.0015685
2575.2	0.0015267
2584.85	0.001303
2594.49	0.0010596
2604.14	0.001667
2613.78	0.0012229
2623.43	0.0011504
2633.07	0.0011193
2642.72	0.0016205
2652.36	0.0013972
2662.01	0.0012823
2671.65	0.0009688
2681.29	0.0016231
2690.94	0.0011004
2700.58	0.0012185
2710.23	0.0015117
2719.87	0.0015736
2729.52	0.001977
2739.16	0.002037
2748.81	0.002017
2758.45	0.002177
2768.1	0.001827
2777.74	0.001837
2787.39	0.002047
2797.03	0.001747
2806.68	0.002197
2816.32	0.002597
2825.97	0.003467
2835.61	0.003607
2845.26	0.005127
2854.9	0.007527
2864.55	0.010297
2874.19	0.011927
2883.84	0.012027
2893.48	0.011487
2903.12	0.012057
2912.77	0.013017
2922.41	0.014727
2932.06	0.017647
2941.7	0.018297
2951.35	0.016697
2960.99	0.013007
2970.64	0.009647
2980.28	0.006567
2989.93	0.004377
2999.57	0.003597
3009.22	0.003357
3018.86	0.004247
3028.51	0.005967
3038.15	0.008657
3047.8	0.009297
3057.44	0.008117
3067.09	0.010307
3076.73	0.011407
3086.38	0.009447
3096.02	0.006717
3105.67	0.004917
3115.31	0.003127
3124.95	0.002567
3134.6	0.001189
3144.24	0.0009694
3153.89	0.00065872
3163.53	0.0012348
3173.18	0.001061
3182.82	0.000627558
3192.47	0.0010276
3202.11	0.0010673
3211.76	0.001717
3221.4	0.0015591
3231.05	0.00072424
3240.69	0.0008587
3250.34	0.00068788
3259.98	0.0007998
3269.63	0.0005711
3279.27	0.0011568
3288.92	0.0009591
3298.56	0.0012971
3308.21	0.000325
3317.85	0.0010679
3327.49	0.0015323
3337.14	0.0009599
3346.78	0.0012545
3356.43	0.001017
3366.07	0.0012876
3375.72	0.001817
3385.36	0.0009494
3395.01	0.0012927
3404.65	0.0011431
3414.3	0.001597
3423.94	0.001737
3433.59	0.0010188
3443.23	0.0013854
3452.88	0.0014944
3462.52	0.000522
3472.17	0.0009893
3481.81	0.0013204
3491.46	0.000453
3501.1	0.0013315
3510.75	0.00052
3520.39	0.0011318
3530.04	0.0012812
3539.68	0.00067663
3549.32	0.0005557
3558.97	0.0010093
3568.61	0.00069327
3578.26	0.000512
3587.9	0.0009668
3597.55	0.0011742
3607.19	0.00091
3616.84	0.0010041
3626.48	0.0009066
3636.13	0.0009376
3645.77	0.00115
3655.42	0.001757
3665.06	0.0008436
3674.71	0.0009488
3684.35	0.0011068
3694	0.000171
3703.64	0.0009509
3713.29	0
3722.93	0.001697
3732.58	0.0014073
3742.22	0.0007903
3751.86	0.000329
3761.51	0.00067563
3771.15	0.0012262
3780.8	0.0005766
3790.44	0.0008372
3800.09	0.0009142
3809.73	0.001987
3819.38	0.0008177
3829.02	0.0014166
3838.67	0.0008708
3848.31	0.0011221
3857.96	0.001767
3867.6	0.00062412
3877.25	0.0010882
3886.89	0.0011775
3896.54	0.00065025
3906.18	0.0014398
3915.83	0.0005378
3925.47	0.0013889
3935.12	0.0011767
3944.76	0.0012256
3954.41	0.00066785
3964.05	0.0009354
3973.69	0.0005456
3983.34	0.0010886
3992.98	0.0014727
