Infrared Spectrum: 1,3-Diethyl-4-methylbenzene
Formula: C 11 H 16
CAS: 1758-85-6
State: gas
Instrument: HP-GC/MS/IRD
Origin: NIST Mass Spectrometry Data Center
1/CM	ABSORBANCE
550	0.0001288
562	8.96e-05
574	1.12e-05
586	0.0001792
598	0.0001624
610	0.000322
622	0.0002912
634	0.000112
646	0.0001176
658	3.64e-05
670	6.72e-05
682	7.56e-05
694	8.96e-05
706	0.0002576
718	0.000546
730	0.000742
742	0.0005404
754	0.0004144
766	0.0004396
778	0.0005236
790	0.0010388
802	0.0026488
814	0.0044716
826	0.0027664
838	0.00091
850	0.0004088
862	0.0005656
874	0.0016184
886	0.0026908
898	0.0011144
910	0.0003052
922	0.000196
934	0.0002548
946	0.0002996
958	0.0004396
970	0.0006636
982	0.0006972
994	0.0005824
1006	0.0006048
1018	0.0005712
1030	0.0007056
1042	0.0009604
1054	0.0013104
1066	0.0012712
1078	0.0006692
1090	0.0003612
1102	0.000308
1114	0.0004144
1126	0.0006412
1138	0.0005292
1150	0.0006748
1162	0.000728
1174	0.000378
1186	0.0002828
1198	0.0002884
1210	0.00035
1222	0.0004116
1234	0.0004872
1246	0.0005376
1258	0.0004928
1270	0.0004984
1282	0.00063
1294	0.0008316
1306	0.001358
1318	0.00196
1330	0.0013916
1342	0.0008484
1354	0.0007
1366	0.0009576
1378	0.0015428
1390	0.0014616
1402	0.0012348
1414	0.0016492
1426	0.0020916
1438	0.0026124
1450	0.0038528
1462	0.00469
1474	0.0039396
1486	0.0038444
1498	0.0054908
1510	0.0037352
1522	0.001442
1534	0.0007728
1546	0.0005712
1558	0.0006552
1570	0.0008232
1582	0.0008568
1594	0.0008484
1606	0.0012852
1618	0.0013916
1630	0.000714
1642	0.0004088
1654	0.0002968
1666	0.0001988
1678	0.000168
1690	0.0001484
1702	0.000168
1714	0.000168
1726	0.0001456
1738	0.000266
1750	0.000392
1762	0.0004452
1774	0.0003164
1786	0.0001456
1798	8.12e-05
1810	8.12e-05
1822	0.000112
1834	0.0001316
1846	0.0001344
1858	0.000154
1870	0.000336
1882	0.0004648
1894	0.0002436
1906	8.12e-05
1918	6.72e-05
1930	5.88e-05
1942	6.44e-05
1954	6.44e-05
1966	6.16e-05
1978	4.48e-05
1990	2.24e-05
2002	2.8e-05
2014	5.32e-05
2026	5.88e-05
2038	6.44e-05
2050	4.76e-05
2062	3.64e-05
2074	2.8e-05
2086	2.24e-05
2098	1.4e-05
2110	3.92e-05
2122	3.08e-05
2134	1.12e-05
2146	2.8e-06
2158	2.8e-05
2170	2.8e-05
2182	0
2194	3.08e-05
2206	3.36e-05
2218	2.24e-05
2230	3.64e-05
2242	4.76e-05
2254	4.48e-05
2266	6.16e-05
2278	5.04e-05
2290	4.2e-05
2302	5.6e-05
2314	6.72e-05
2326	0.0001036
2338	0.0001148
2350	9.8e-05
2362	0.0001176
2374	7e-05
2386	4.48e-05
2398	6.16e-05
2410	7.84e-05
2422	9.8e-05
2434	9.8e-05
2446	9.52e-05
2458	7.56e-05
2470	5.6e-05
2482	8.68e-05
2494	8.12e-05
2506	9.24e-05
2518	7.84e-05
2530	8.4e-05
2542	0.0001008
2554	5.88e-05
2566	8.4e-05
2578	9.24e-05
2590	0.0001176
2602	0.00014
2614	0.0001596
2626	0.0001932
2638	0.0001876
2650	0.000182
2662	0.0001708
2674	0.000182
2686	0.0002072
2698	0.0002464
2710	0.00028
2722	0.0003696
2734	0.0005348
2746	0.0006328
2758	0.0005768
2770	0.0006104
2782	0.000686
2794	0.0007672
2806	0.0009268
2818	0.0012292
2830	0.0017528
2842	0.0025844
2854	0.0040628
2866	0.0073948
2878	0.0113876
2890	0.0119336
2902	0.0103124
2914	0.0104552
2926	0.0137368
2938	0.019432
2950	0.0181188
2962	0.0211792
2974	0.0279188
2986	0.0146132
2998	0.009366
3010	0.0088956
3022	0.0071876
3034	0.0053704
3046	0.0050148
3058	0.0042392
3070	0.0027748
3082	0.0018844
3094	0.0014028
3106	0.00126
3118	0.0011368
3130	0.0009044
3142	0.0006804
3154	0.0006188
3166	0.000546
3178	0.0004228
3190	0.0003164
3202	0.0002828
3214	0.0002324
3226	0.000154
3238	0.0001372
3250	0.0001428
3262	0.0001316
3274	0.00014
3286	9.8e-05
3298	8.96e-05
3310	0.0001036
3322	7.84e-05
3334	0.0001092
3346	8.68e-05
3358	9.52e-05
3370	6.16e-05
3382	0.0001064
3394	6.72e-05
3406	6.72e-05
3418	9.8e-05
3430	8.12e-05
3442	7.56e-05
3454	5.88e-05
3466	6.44e-05
3478	7e-05
3490	8.12e-05
3502	4.2e-05
3514	6.16e-05
3526	4.2e-05
3538	4.76e-05
3550	3.64e-05
3562	6.16e-05
3574	0.0001148
3586	7e-05
3598	5.32e-05
3610	7.84e-05
3622	0.0001008
3634	8.12e-05
3646	8.68e-05
3658	8.4e-05
3670	9.8e-05
3682	7.84e-05
3694	8.68e-05
3706	0.0001344
3718	0.0001568
3730	0.000112
3742	0.0001344
3754	8.96e-05
3766	0.0001036
3778	8.12e-05
3790	6.72e-05
3802	0.0001064
3814	8.96e-05
3826	0.0001092
3838	0.0001008
