Infrared Spectrum: BUTANE, 2,3-EPOXY, TRANS-
Formula: C4 H8 O
CAS: 1758-32-3
State: GAS (100 mmHg, N2 ADDED, TOTAL PRESSURE 600 mmHg)
Class: COBLENTZ
Instrument: DOW KBr FOREPRISM-GRATING
Instrument parameters: GRATING CHANGED AT 5.0, 7.5, 15.0 MICRON
Sampling: TRANSMISSION
Path length: 5 CM
Resolution: 2
Origin: DOW CHEMICAL COMPANY
1/CM	TRANSMITTANCE
456.875	0.505
465.313	0.4491
473.75	0.421
482.188	0.427
490.625	0.5
499.063	0.78
507.5	0.881
515.938	0.908
524.375	0.92
532.813	0.917
541.25	0.919
549.688	0.919
558.125	0.923
566.563	0.929
575	0.933
583.438	0.936
591.875	0.937
600.313	0.94
608.75	0.94
617.188	0.939
625.626	0.939
634.063	0.943
642.501	0.942
650.938	0.936
659.376	0.939
667.813	0.936
676.251	0.934
684.688	0.936
693.126	0.919
701.563	0.911
710.001	0.878
718.438	0.8121
726.876	0.6221
735.313	0.433
743.751	0.4559
752.188	0.4139
760.626	0.7469
769.063	0.874
777.501	0.895
785.938	0.825
794.376	0.65
802.814	0.4201
811.251	0.296
819.689	0.3671
828.126	0.3929
836.564	0.5799
845.001	0.755
853.439	0.829
861.876	0.807
870.314	0.686
878.751	0.479
887.189	0.2901
895.626	0.3942
904.064	0.326
912.501	0.5369
920.939	0.731
929.376	0.855
937.814	0.887
946.251	0.848
954.689	0.817
963.127	0.757
971.564	0.776
980.002	0.806
988.439	0.7681
996.877	0.676
1005.31	0.482
1013.75	0.16
1022.19	0.154
1030.63	0.16
1039.06	0.466
1047.5	0.71
1055.94	0.8449
1064.38	0.898
1072.81	0.9
1081.25	0.867
1089.69	0.747
1098.13	0.489
1106.56	0.27
1115	0.264
1123.44	0.31
1131.88	0.592
1140.31	0.713
1148.75	0.773
1157.19	0.796
1165.63	0.868
1174.06	0.911
1182.5	0.933
1190.94	0.939
1199.38	0.943
1207.81	0.942
1216.25	0.939
1224.69	0.936
1233.13	0.921
1241.56	0.897
1250	0.861
1258.44	0.845
1266.88	0.833
1275.31	0.851
1283.75	0.867
1292.19	0.878
1300.63	0.884
1309.07	0.884
1317.5	0.852
1325.94	0.5282
1334.38	0.475
1342.82	0.618
1351.25	0.495
1359.69	0.767
1368.13	0.705
1376.57	0.32
1385	0.303
1393.44	0.2471
1401.88	0.254
1410.32	0.6429
1418.75	0.663
1427.19	0.573
1435.63	0.445
1444.07	0.302
1452.5	0.263
1460.94	0.254
1469.38	0.286
1477.82	0.362
1486.25	0.419
1494.69	0.462
1503.13	0.497
1511.57	0.604
1520	0.77
1528.44	0.884
1536.88	0.926
1545.32	0.933
1553.75	0.933
1562.19	0.929
1570.63	0.927
1579.07	0.923
1587.5	0.923
1595.94	0.914
1604.38	0.904
1612.82	0.897
1621.25	0.894
1629.69	0.9
1638.13	0.906
1646.57	0.913
1655	0.923
1663.44	0.932
1671.88	0.937
1680.32	0.937
1688.75	0.94
1697.19	0.933
1705.63	0.927
1714.07	0.91
1722.5	0.904
1730.94	0.898
1739.38	0.893
1747.82	0.9
1756.25	0.907
1764.69	0.92
1773.13	0.933
1781.57	0.942
1790	0.943
1798.44	0.947
1806.88	0.953
1815.32	0.956
1823.75	0.949
1832.19	0.946
1840.63	0.942
1849.07	0.943
1857.5	0.952
1865.94	0.952
1874.38	0.963
1882.82	0.965
1891.25	0.965
1899.69	0.962
1908.13	0.965
1916.57	0.968
1925	0.968
1933.44	0.968
1941.88	0.966
1950.32	0.963
1958.75	0.962
1967.19	0.962
1975.63	0.962
1984.07	0.96
1992.5	0.959
2000.94	0.963
2009.38	0.968
2017.82	0.972
2026.25	0.9749
2034.69	0.9755
2043.13	0.973
2051.57	0.9701
2060	0.969
2068.44	0.9686
2076.88	0.968
2085.32	0.966
2093.75	0.969
2102.19	0.969
2110.63	0.966
2119.07	0.9596
2127.51	0.9503
2135.94	0.946
2144.38	0.947
2152.82	0.945
2161.26	0.9338
2169.69	0.9254
2178.13	0.926
2186.57	0.9308
2195.01	0.9428
2203.44	0.9508
2211.88	0.9557
2220.32	0.958
2228.76	0.955
2237.19	0.9514
2245.63	0.949
2254.07	0.946
2262.51	0.9484
2270.94	0.949
2279.38	0.949
2287.82	0.9522
2296.26	0.9573
2304.69	0.958
2313.13	0.958
2321.57	0.958
2330.01	0.955
2338.44	0.9562
2346.88	0.9626
2355.32	0.966
2363.76	0.966
2372.19	0.966
2380.63	0.9639
2389.07	0.959
2397.51	0.9539
2405.94	0.956
2414.38	0.9635
2422.82	0.969
2431.26	0.972
2439.69	0.971
2448.13	0.9685
2456.57	0.966
2465.01	0.963
2473.44	0.959
2481.88	0.9507
2490.32	0.9451
2498.76	0.9478
2507.19	0.9578
2515.63	0.9654
2524.07	0.969
2532.51	0.971
2540.94	0.972
2549.38	0.972
2557.82	0.971
2566.26	0.969
2574.69	0.971
2583.13	0.973
2591.57	0.973
2600.01	0.973
2608.44	0.973
2616.88	0.972
2625.32	0.9712
2633.76	0.9705
2642.19	0.969
2650.63	0.971
2659.07	0.9717
2667.51	0.972
2675.94	0.972
2684.38	0.971
2692.82	0.969
2701.26	0.9647
2709.69	0.9584
2718.13	0.9529
2726.57	0.9457
2735.01	0.9204
2743.44	0.8973
2751.88	0.8808
2760.32	0.8746
2768.76	0.8941
2777.19	0.9021
2785.63	0.8928
2794.07	0.8809
2802.51	0.8557
2810.94	0.8257
2819.38	0.8089
2827.82	0.7995
2836.26	0.813
2844.69	0.819
2853.13	0.8002
2861.57	0.6631
2870.01	0.5349
2878.44	0.4467
2886.88	0.4132
2895.32	0.4071
2903.76	0.395
2912.19	0.3929
2920.63	0.2839
2929.07	0.1441
2937.51	0.0951
2945.94	0.0837
2954.38	0.091
2962.82	0.0422
2971.26	0.0136
2979.7	0
2988.13	0
2996.57	0
3005.01	0.014
3013.45	0.0515
3021.88	0.1287
3030.32	0.3892
3038.76	0.7118
3047.2	0.81
3055.63	0.8512
3064.07	0.8826
3072.51	0.9045
3080.95	0.9174
3089.38	0.92
3097.82	0.921
3106.26	0.921
3114.7	0.919
3123.13	0.9097
3131.57	0.9008
3140.01	0.8868
3148.45	0.878
3156.88	0.877
3165.32	0.8826
3173.76	0.9042
3182.2	0.9322
3190.63	0.9517
3199.07	0.959
3207.51	0.953
3215.95	0.953
3224.38	0.955
3232.82	0.9631
3241.26	0.968
3249.7	0.966
3258.13	0.96
3266.57	0.962
3275.01	0.968
3283.45	0.976
3291.88	0.9815
3300.32	0.984
3308.76	0.985
3317.2	0.986
3325.63	0.986
3334.07	0.986
3342.51	0.986
3350.95	0.986
3359.38	0.988
3367.82	0.988
3376.26	0.988
3384.7	0.986
3393.13	0.9847
3401.57	0.9812
3410.01	0.9804
3418.45	0.978
3426.88	0.9727
3435.32	0.966
3443.76	0.966
3452.2	0.9725
3460.63	0.979
3469.07	0.9835
3477.51	0.986
3485.95	0.986
3494.38	0.986
3502.82	0.986
3511.26	0.989
3519.7	0.991
3528.13	0.991
3536.57	0.989
3545.01	0.989
3553.45	0.989
3561.88	0.989
3570.32	0.989
3578.76	0.9878
3587.2	0.986
3595.63	0.985
3604.07	0.982
3612.51	0.984
3620.95	0.985
3629.38	0.9849
3637.82	0.9831
3646.26	0.9839
3654.7	0.9785
3663.13	0.979
3671.57	0.978
3680.01	0.972
3688.45	0.97
3696.88	0.966
3705.32	0.965
3713.76	0.966
3722.2	0.971
3730.63	0.975
3739.07	0.9784
3747.51	0.979
3755.95	0.986
3764.38	0.986
3772.82	0.986
3781.26	0.985
