Infrared Spectrum: Acetic acid, 2,5-DimethoxyPhenyl-
Formula: C10 H12 O4
CAS: 1758-25-4
State: SOLID (1 mg / 650 mg KBr DISC)
Class: COBLENTZ III
Instrument: PERKIN-ELMER 521 (GRATING)
Instrument parameters: FILTERS AT 3130, 2475, 2000, 1150, 700, 410. GRATING CHANGES: 2000, 620 CM^-^1
Sampling: TRANSMISSION
Resolution: 2
Origin: SOUTHERN RESEARCH INSTITUTE
1/CM	TRANSMITTANCE
261	0.4108
271.032	0.441
281.064	0.4813
291.096	0.5231
301.128	0.5724
311.16	0.6117
321.193	0.6347
331.225	0.6568
341.257	0.6845
351.289	0.7119
361.321	0.7281
371.353	0.743
381.385	0.77
391.417	0.7472
401.449	0.7416
411.481	0.7006
421.514	0.7525
431.546	0.7823
441.578	0.7777
451.61	0.7379
461.642	0.8031
471.674	0.8103
481.706	0.8088
491.738	0.796
501.77	0.7748
511.802	0.7891
521.834	0.7902
531.867	0.8178
541.899	0.8237
551.931	0.8207
561.963	0.8094
571.995	0.7666
582.027	0.7356
592.059	0.807
602.091	0.8145
612.123	0.785
622.155	0.6375
632.187	0.8383
642.22	0.8492
652.252	0.8462
662.284	0.8271
672.316	0.7986
682.348	0.6825
692.38	0.8145
702.412	0.7926
712.444	0.5623
722.476	0.7987
732.508	0.6698
742.541	0.8559
752.573	0.8508
762.605	0.8375
772.637	0.8183
782.669	0.793
792.701	0.7421
802.733	0.4486
812.765	0.6367
822.797	0.8188
832.829	0.8169
842.861	0.8042
852.894	0.7719
862.926	0.5986
872.958	0.7366
882.99	0.7267
893.022	0.6909
903.054	0.6629
913.086	0.6338
923.118	0.5815
933.15	0.5427
943.182	0.691
953.214	0.7469
963.247	0.7692
973.279	0.7698
983.311	0.7612
993.343	0.7378
1003.37	0.6506
1013.41	0.4326
1023.44	0.5044
1033.47	0.4718
1043.5	0.3582
1053.54	0.7937
1063.57	0.8193
1073.6	0.8166
1083.63	0.8077
1093.66	0.7888
1103.7	0.7448
1113.73	0.6134
1123.76	0.5237
1133.79	0.6905
1143.82	0.5978
1153.86	0.5204
1163.89	0.634
1173.92	0.4803
1183.95	0.6119
1193.98	0.6035
1204.02	0.4241
1214.05	0.1894
1224.08	0.1211
1234.11	0.3132
1244.15	0.6102
1254.18	0.5909
1264.21	0.6103
1274.24	0.3925
1284.27	0.3835
1294.31	0.465
1304.34	0.5204
1314.37	0.6087
1324.4	0.6427
1334.43	0.5788
1344.47	0.7363
1354.5	0.7851
1364.53	0.7708
1374.56	0.7416
1384.59	0.6902
1394.63	0.4898
1404.66	0.5493
1414.69	0.5485
1424.72	0.5253
1434.76	0.5371
1444.79	0.6263
1454.82	0.5238
1464.85	0.5995
1474.88	0.6704
1484.92	0.4634
1494.95	0.1984
1504.98	0.4354
1515.01	0.6433
1525.04	0.7344
1535.08	0.801
1545.11	0.8238
1555.14	0.8288
1565.17	0.823
1575.2	0.7799
1585.24	0.6612
1595.27	0.7948
1605.3	0.7593
1615.33	0.7751
1625.36	0.7907
1635.4	0.7897
1645.43	0.779
1655.46	0.7442
1665.49	0.6744
1675.53	0.5545
1685.56	0.2425
1695.59	0.2119
1705.62	0.2675
1715.65	0.2252
1725.69	0.4445
1735.72	0.6353
1745.75	0.668
1755.78	0.7073
1765.81	0.749
1775.85	0.772
1785.88	0.7878
1795.91	0.7996
1805.94	0.8077
1815.97	0.8136
1826.01	0.8193
1836.04	0.8249
1846.07	0.8318
1856.1	0.8378
1866.14	0.8444
1876.17	0.8504
1886.2	0.8527
1896.23	0.8542
1906.26	0.8548
1916.3	0.8546
1926.33	0.8539
1936.36	0.8531
1946.39	0.8524
1956.42	0.8517
1966.46	0.8509
1976.49	0.8501
1986.52	0.8493
1996.55	0.8485
2006.58	0.8477
2016.62	0.847
2026.65	0.8462
2036.68	0.8455
2046.71	0.8448
2056.74	0.8446
2066.78	0.8459
2076.81	0.8506
2086.84	0.8575
2096.87	0.8596
2106.91	0.8592
2116.94	0.8581
2126.97	0.857
2137	0.8558
2147.03	0.854
2157.07	0.8522
2167.1	0.8504
2177.13	0.8489
2187.16	0.8474
2197.19	0.8461
2207.23	0.845
2217.26	0.8438
2227.29	0.8417
2237.32	0.8396
2247.35	0.8376
2257.39	0.8354
2267.42	0.8329
2277.45	0.8302
2287.48	0.827
2297.52	0.824
2307.55	0.8209
2317.58	0.8168
2327.61	0.8127
2337.64	0.8085
2347.68	0.8071
2357.71	0.8073
2367.74	0.8075
2377.77	0.807
2387.8	0.8048
2397.84	0.7996
2407.87	0.7911
2417.9	0.7822
2427.93	0.7718
2437.96	0.7669
2448	0.7627
2458.03	0.7529
2468.06	0.7424
2478.09	0.7318
2488.12	0.721
2498.16	0.7102
2508.19	0.6981
2518.22	0.6837
2528.25	0.6703
2538.29	0.6612
2548.32	0.6609
2558.35	0.6648
2568.38	0.6689
2578.41	0.6684
2588.45	0.6626
2598.48	0.6546
2608.51	0.6466
2618.54	0.638
2628.57	0.6285
2638.61	0.6193
2648.64	0.6135
2658.67	0.6268
2668.7	0.643
2678.73	0.6481
2688.77	0.6471
2698.8	0.6447
2708.83	0.643
2718.86	0.6418
2728.9	0.6426
2738.93	0.6464
2748.96	0.646
2758.99	0.6416
2769.02	0.6374
2779.06	0.637
2789.09	0.6356
2799.12	0.6299
2809.15	0.6177
2819.18	0.5951
2829.22	0.5449
2839.25	0.5091
2849.28	0.5618
2859.31	0.5727
2869.34	0.5686
2879.38	0.556
2889.41	0.5396
2899.44	0.5139
2909.47	0.4914
2919.5	0.4903
2929.54	0.489
2939.57	0.4784
2949.6	0.4693
2959.63	0.4763
2969.67	0.5134
2979.7	0.524
2989.73	0.5169
2999.76	0.4973
3009.79	0.4885
3019.83	0.5254
3029.86	0.552
3039.89	0.5594
3049.92	0.5617
3059.95	0.5617
3069.99	0.5624
3080.02	0.5658
3090.05	0.5751
3100.08	0.5852
3110.11	0.5973
3120.15	0.6094
3130.18	0.6227
3140.21	0.6367
3150.24	0.647
3160.28	0.6567
3170.31	0.6647
3180.34	0.6728
3190.37	0.681
3200.4	0.6892
3210.44	0.6974
3220.47	0.7062
3230.5	0.715
3240.53	0.7238
3250.56	0.7313
3260.6	0.7385
3270.63	0.7444
3280.66	0.7503
3290.69	0.7549
3300.72	0.758
3310.76	0.7574
3320.79	0.7568
3330.82	0.7564
3340.85	0.7562
3350.88	0.7571
3360.92	0.758
3370.95	0.7589
3380.98	0.76
3391.01	0.7617
3401.05	0.7634
3411.08	0.7651
3421.11	0.767
3431.14	0.7695
3441.17	0.7719
3451.21	0.7747
3461.24	0.7779
3471.27	0.7811
3481.3	0.7844
3491.33	0.7886
3501.37	0.7927
3511.4	0.7969
3521.43	0.8027
3531.46	0.8085
3541.49	0.8144
3551.53	0.8211
3561.56	0.8275
3571.59	0.834
3581.62	0.8399
3591.66	0.8445
3601.69	0.8491
3611.72	0.8535
3621.75	0.8568
3631.78	0.8601
3641.82	0.8624
3651.85	0.8634
3661.88	0.8645
3671.91	0.8653
3681.94	0.866
3691.98	0.8666
3702.01	0.8672
3712.04	0.8678
3722.07	0.8684
3732.1	0.869
3742.14	0.8697
3752.17	0.8703
3762.2	0.8709
3772.23	0.8715
3782.27	0.8719
3792.3	0.8722
3802.33	0.8725
3812.36	0.8727
3822.39	0.873
3832.43	0.8733
3842.46	0.8736
3852.49	0.874
3862.52	0.8745
3872.55	0.8749
3882.59	0.8753
3892.62	0.8758
3902.65	0.8759
3912.68	0.876
3922.71	0.876
3932.75	0.8761
3942.78	0.8764
3952.81	0.8767
3962.84	0.8765
3972.87	0.8755
3982.91	0.8745
3992.94	0.8735
4002.97	0.8725
