Infrared Spectrum: 1,4-Dimethyl-2-ethylbenzene
Formula: C 10 H 14
CAS: 1758-88-9
State: gas
Instrument: HP-GC/MS/IRD
Origin: NIST Mass Spectrometry Data Center
1/CM	ABSORBANCE
550	0.0005983
562	0.0001457
574	0.0003131
586	0.0003193
598	0.0003131
610	0.0002077
622	0.0001736
634	4.96e-05
646	4.03e-05
658	0.0001488
670	0.0001333
682	0.0001643
694	0.0001984
706	0.0004743
718	0.0007688
730	0.0006696
742	0.0005115
754	0.0002914
766	0.0004092
778	0.0010478
790	0.0049104
802	0.0119753
814	0.0070122
826	0.0021979
838	0.0007967
850	0.0006045
862	0.0010385
874	0.0021142
886	0.001953
898	0.0013082
910	0.0006851
922	0.0005239
934	0.0005146
946	0.0007502
958	0.0010633
970	0.0010664
982	0.00093
994	0.0010912
1006	0.0011625
1018	0.0009672
1030	0.0011563
1042	0.0017887
1054	0.0021669
1066	0.0016213
1078	0.0008649
1090	0.0005456
1102	0.0003441
1114	0.0005425
1126	0.0006975
1138	0.0007533
1150	0.0012183
1162	0.0012865
1174	0.000496
1186	0.0003255
1198	0.0003658
1210	0.0005456
1222	0.0005611
1234	0.000744
1246	0.0008525
1258	0.0007068
1270	0.0006541
1282	0.000651
1294	0.0007378
1306	0.001023
1318	0.0015531
1330	0.0016182
1342	0.00124
1354	0.0011842
1366	0.0015841
1378	0.0025668
1390	0.0025513
1402	0.002046
1414	0.0024893
1426	0.0031341
1438	0.0040393
1450	0.0057133
1462	0.0069719
1474	0.0064573
1486	0.0064945
1498	0.0105462
1510	0.0093093
1522	0.0035805
1534	0.0020925
1546	0.0017205
1558	0.0015841
1570	0.0015872
1582	0.001581
1594	0.0018879
1606	0.0027807
1618	0.0026505
1630	0.0011873
1642	0.0004836
1654	0.00031
1666	0.0003038
1678	0.0002945
1690	0.0001705
1702	0.0001178
1714	0.0001736
1726	0.0003565
1738	0.0006975
1750	0.0007502
1762	0.000465
1774	0.0001519
1786	8.68e-05
1798	0.000124
1810	0.0002387
1822	0.0002914
1834	0.0002666
1846	0.0002325
1858	0.0003069
1870	0.0006293
1882	0.0007998
1894	0.0003844
1906	0.0001767
1918	0.0001147
1930	0.0001209
1942	8.06e-05
1954	7.75e-05
1966	8.06e-05
1978	6.82e-05
1990	3.72e-05
2002	2.79e-05
2014	1.86e-05
2026	2.79e-05
2038	7.44e-05
2050	4.34e-05
2062	1.86e-05
2074	2.79e-05
2086	5.58e-05
2098	5.89e-05
2110	4.34e-05
2122	4.03e-05
2134	1.55e-05
2146	3.1e-06
2158	4.34e-05
2170	4.65e-05
2182	4.65e-05
2194	2.17e-05
2206	1.55e-05
2218	2.17e-05
2230	6.2e-05
2242	8.06e-05
2254	0.0001209
2266	0.0001147
2278	0.0001829
2290	0.0001612
2302	0.0001643
2314	0.0001643
2326	0.0001891
2338	0.0001922
2350	0.0001984
2362	0.0001767
2374	0.0002015
2386	0.0002356
2398	0.000248
2410	0.000248
2422	0.0002542
2434	0.0003007
2446	0.0003162
2458	0.0002976
2470	0.0002945
2482	0.0003038
2494	0.0003069
2506	0.0003596
2518	0.0003162
2530	0.0003348
2542	0.0003689
2554	0.0003286
2566	0.0003317
2578	0.0003627
2590	0.0004061
2602	0.0004278
2614	0.0004495
2626	0.0005022
2638	0.0004433
2650	0.0004557
2662	0.0005053
2674	0.0004712
2686	0.0005146
2698	0.000589
2710	0.0006913
2722	0.000837
2734	0.0013795
2746	0.0015438
2758	0.0011532
2770	0.0011253
2782	0.0012431
2794	0.001457
2806	0.0017639
2818	0.0022475
2830	0.0028923
2842	0.0041044
2854	0.0066278
2866	0.0119288
2878	0.0180513
2890	0.0185008
2902	0.0162316
2914	0.0177816
2926	0.0248744
2938	0.0295306
2950	0.025203
2962	0.0261144
2974	0.031
2986	0.0213125
2998	0.0168237
3010	0.0173538
3022	0.0146444
3034	0.0118358
3046	0.0115382
3058	0.0093341
3070	0.0055118
3082	0.0036084
3094	0.002666
3106	0.0022971
3118	0.0020863
3130	0.0017267
3142	0.0012679
3154	0.0009982
3166	0.0008091
3178	0.0006107
3190	0.0005239
3202	0.0004991
3214	0.0004278
3226	0.0003658
3238	0.0004185
3250	0.0003999
3262	0.0003503
3274	0.0003007
3286	0.0003317
3298	0.0002821
3310	0.0002697
3322	0.0002976
3334	0.0001953
3346	0.0002418
3358	0.0002604
3370	0.000186
3382	0.000186
3394	0.0001457
3406	0.0002201
3418	0.0001767
3430	0.0001953
3442	0.0001147
3454	0.0001984
3466	8.37e-05
3478	0.0001519
3490	0.0001457
3502	0.0001178
3514	7.44e-05
3526	9.3e-05
3538	8.99e-05
3550	8.99e-05
3562	4.34e-05
3574	6.82e-05
3586	6.51e-05
3598	0.0001023
3610	5.58e-05
3622	7.13e-05
3634	1.24e-05
3646	5.27e-05
3658	4.96e-05
3670	5.58e-05
3682	7.75e-05
3694	0.0001085
3706	0.0001426
3718	0.0001457
3730	0.0001426
3742	0.0002015
3754	0.0001302
3766	0.0001891
3778	0.0001767
3790	0.0001457
3802	0.000124
3814	0.0001457
3826	0.0001643
3838	0.0001705
