Infrared Spectrum: 2-Methoxybenzyl isothiocyanate
Formula: C 9 H 9 N O S
CAS: 17608-09-2
State: gas
Origin: EPA-IR VAPOR PHASE LIBRARY
1/CM	ABSORBANCE
549.8	0.005529
559.445	0.005529
569.09	0.004929
578.734	0.004169
588.379	0.004099
598.024	0.003889
607.669	0.003839
617.313	0.002949
626.958	0.002649
636.603	0.002099
646.248	0.001979
655.893	0.002039
665.537	0.002649
675.182	0.004989
684.827	0.007749
694.472	0.008039
704.116	0.006189
713.761	0.005079
723.406	0.004499
733.051	0.006589
742.695	0.014369
752.34	0.021709
761.985	0.012779
771.63	0.004809
781.275	0.002439
790.919	0.001289
800.564	0.001659
810.209	0.002119
819.854	0.003669
829.498	0.004609
839.143	0.003029
848.788	0.002559
858.433	0.002509
868.078	0.001779
877.722	0.001309
887.367	0.001279
897.012	0.0010992
906.657	0.001389
916.301	0.001619
925.946	0.001839
935.591	0.001879
945.236	0.001799
954.88	0.001639
964.525	0.001719
974.17	0.002079
983.815	0.001999
993.46	0.002719
1003.1	0.003679
1012.75	0.006729
1022.39	0.011679
1032.04	0.015029
1041.68	0.012749
1051.33	0.009269
1060.97	0.005259
1070.62	0.003209
1080.26	0.003359
1089.91	0.003879
1099.55	0.003539
1109.2	0.006409
1118.84	0.009409
1128.49	0.007859
1138.13	0.003999
1147.78	0.003129
1157.42	0.005609
1167.07	0.007269
1176.71	0.007409
1186.36	0.005259
1196	0.004419
1205.64	0.004229
1215.29	0.005689
1224.93	0.011479
1234.58	0.024679
1244.22	0.042629
1253.87	0.040349
1263.51	0.021589
1273.16	0.014629
1282.8	0.015799
1292.45	0.015549
1302.09	0.012459
1311.74	0.011189
1321.38	0.011769
1331.03	0.014769
1340.67	0.021799
1350.32	0.017279
1359.96	0.007649
1369.61	0.004779
1379.25	0.003579
1388.9	0.002759
1398.54	0.002429
1408.18	0.002489
1417.83	0.003369
1427.47	0.005489
1437.12	0.011039
1446.76	0.016899
1456.41	0.017929
1466.05	0.016699
1475.7	0.015679
1485.34	0.021789
1494.99	0.027739
1504.63	0.017459
1514.28	0.006359
1523.92	0.003109
1533.57	0.002149
1543.21	0.001799
1552.86	0.001859
1562.5	0.002339
1572.15	0.003949
1581.79	0.007719
1591.44	0.012819
1601.08	0.013209
1610.73	0.008319
1620.37	0.003709
1630.01	0.001899
1639.66	0.001259
1649.3	0.001038
1658.95	0.0010967
1668.59	0.0010379
1678.24	0.0012151
1687.88	0.0011582
1697.53	0.0009738
1707.17	0.000938
1716.82	0.0009485
1726.46	0.0009756
1736.11	0.0009181
1745.75	0.0010749
1755.4	0.0010951
1765.04	0.0011163
1774.69	0.0011741
1784.33	0.0010989
1793.98	0.0011143
1803.62	0.0011315
1813.27	0.001115
1822.91	0.0010784
1832.55	0.0011338
1842.2	0.0011823
1851.84	0.001379
1861.49	0.001589
1871.13	0.001869
1880.78	0.002399
1890.42	0.003089
1900.07	0.003139
1909.71	0.003479
1919.36	0.004059
1929	0.005099
1938.65	0.006099
1948.29	0.007239
1957.94	0.009119
1967.58	0.012079
1977.23	0.016289
1986.87	0.022359
1996.52	0.030859
2006.16	0.042419
2015.81	0.057619
2025.45	0.076179
2035.1	0.095969
2044.74	0.115959
2054.38	0.127369
2064.03	0.119009
2073.67	0.100169
2083.32	0.078169
2092.96	0.058789
2102.61	0.044989
2112.25	0.034289
2121.9	0.026889
2131.54	0.022359
2141.19	0.020659
2150.83	0.021169
2160.48	0.022959
2170.12	0.024309
2179.77	0.023079
2189.41	0.018899
2199.06	0.014589
2208.7	0.011989
2218.35	0.009859
2227.99	0.007649
2237.64	0.005859
2247.28	0.004899
2256.92	0.004119
2266.57	0.003489
2276.21	0.002999
2285.86	0.002559
2295.5	0.002199
2305.15	0.001879
2314.79	0.001599
2324.44	0.001499
2334.08	0.001339
2343.73	0.0011892
2353.37	0.0011384
2363.02	0.001055
2372.66	0.0009801
2382.31	0.0009582
2391.95	0.0008536
2401.6	0.000836
2411.24	0.0007654
2420.89	0.0008037
2430.53	0.0007771
2440.18	0.0006768
2449.82	0.0007287
2459.47	0.0008022
2469.11	0.0008094
2478.75	0.0008864
2488.4	0.001035
2498.04	0.0009773
2507.69	0.0009259
2517.33	0.0010026
2526.98	0.0011376
2536.62	0.0010759
2546.27	0.0011341
2555.91	0.001036
2565.56	0.0010336
2575.2	0.0009811
2584.85	0.001021
2594.49	0.0010092
2604.14	0.0009956
2613.78	0.0009328
2623.43	0.0009053
2633.07	0.0010077
2642.72	0.0008136
2652.36	0.0009255
2662.01	0.0007391
2671.65	0.0007716
2681.29	0.0008416
2690.94	0.0009924
2700.58	0.000905
2710.23	0.0011669
2719.87	0.001339
2729.52	0.001519
2739.16	0.001669
2748.81	0.001619
2758.45	0.001549
2768.1	0.001539
2777.74	0.001659
2787.39	0.001789
2797.03	0.001769
2806.68	0.001889
2816.32	0.002129
2825.97	0.002599
2835.61	0.004149
2845.26	0.006699
2854.9	0.006139
2864.55	0.003869
2874.19	0.003859
2883.84	0.004039
2893.48	0.004219
2903.12	0.004729
2912.77	0.005419
2922.41	0.006519
2932.06	0.008649
2941.7	0.012369
2951.35	0.013429
2960.99	0.010919
2970.64	0.008239
2980.28	0.005479
2989.93	0.004079
2999.57	0.004969
3009.22	0.006659
3018.86	0.005819
3028.51	0.004979
3038.15	0.005239
3047.8	0.004659
3057.44	0.004429
3067.09	0.005419
3076.73	0.006309
3086.38	0.005859
3096.02	0.003599
3105.67	0.002179
3115.31	0.001689
3124.95	0.0011711
3134.6	0.0007344
3144.24	0.000569
3153.89	0.000596
3163.53	0.000586
3173.18	0.0005896
3182.82	0.0004406
3192.47	0.0003678
3202.11	0.0005318
3211.76	0.0004485
3221.4	0.00028342
3231.05	0.0004614
3240.69	0.00028133
3250.34	0.0003731
3259.98	0.0001804
3269.63	0.00030528
3279.27	0.0001827
3288.92	0.00031736
3298.56	0.0003142
3308.21	0.0004152
3317.85	0.00026916
3327.49	0.0001528
3337.14	0.0003551
3346.78	0.0003648
3356.43	0.0002132
3366.07	0.00030299
3375.72	0.00032546
3385.36	0.00027245
3395.01	0.00032304
3404.65	0.0003902
3414.3	0.0004207
3423.94	0.00028638
3433.59	0.000492
3443.23	0.000291
3452.88	0.0002956
3462.52	0.0004004
3472.17	0.0003575
3481.81	0.00032024
3491.46	0.0005111
3501.1	0.00024658
3510.75	0.0004794
3520.39	0.00032488
3530.04	0.0003682
3539.68	0.0002279
3549.32	0.0003666
3558.97	0.0002178
3568.61	0.0003586
3578.26	0.00033519
3587.9	0.000255182
3597.55	0.0004964
3607.19	0.0005385
3616.84	0.0006249
3626.48	0.000201
3636.13	0.0005637
3645.77	0.0004193
3655.42	0.0002621
3665.06	0.0002201
3674.71	0.0004938
3684.35	0.0002236
3694	0.00034401
3703.64	0.00047
3713.29	0.0004749
3722.93	0.00031687
3732.58	0.0003972
3742.22	0.000237
3751.86	0.0004139
3761.51	0.0005454
3771.15	0.0006373
3780.8	0.0004963
3790.44	0.0003938
3800.09	0.00032692
3809.73	0.000526
3819.38	0.0005517
3829.02	0.000493
3838.67	0.0004639
3848.31	0.0004177
3857.96	0.0005981
3867.6	0.0005699
3877.25	0.0006072
3886.89	0.0005133
3896.54	0.0006901
3906.18	0.0006659
3915.83	0.000427
3925.47	0.0007745
3935.12	0.0005383
3944.76	0.0006419
3954.41	0.0006844
3964.05	0.000895
3973.69	0.0006827
3983.34	0.0007854
3992.98	0.0008695
