Infrared Spectrum: 2-(4-Chlorophenethyl) isothicyanate
Formula: C 9 H 8 Cl N S
CAS: 17608-10-5
State: gas
Origin: EPA-IR VAPOR PHASE LIBRARY
1/CM	ABSORBANCE
549.8	0.013703
559.445	0.011143
569.09	0.010053
578.734	0.008613
588.379	0.007433
598.024	0.005623
607.669	0.004653
617.313	0.005863
626.958	0.011173
636.603	0.007323
646.248	0.005193
655.893	0.005543
665.537	0.005483
675.182	0.005263
684.827	0.006013
694.472	0.007833
704.116	0.006243
713.761	0.007693
723.406	0.010423
733.051	0.011603
742.695	0.007003
752.34	0.004803
761.985	0.005363
771.63	0.010643
781.275	0.012563
790.919	0.010293
800.564	0.016073
810.209	0.030513
819.854	0.028993
829.498	0.015033
839.143	0.009213
848.788	0.005553
858.433	0.003483
868.078	0.002763
877.722	0.003393
887.367	0.005423
897.012	0.007803
906.657	0.007743
916.301	0.005733
925.946	0.004693
935.591	0.004663
945.236	0.004573
954.88	0.003663
964.525	0.003303
974.17	0.003403
983.815	0.003473
993.46	0.004383
1003.1	0.008313
1012.75	0.034203
1022.39	0.026553
1032.04	0.006833
1041.68	0.004723
1051.33	0.005033
1060.97	0.006373
1070.62	0.009913
1080.26	0.016493
1089.91	0.048843
1099.55	0.076673
1109.2	0.024733
1118.84	0.011683
1128.49	0.007083
1138.13	0.005053
1147.78	0.004683
1157.42	0.004323
1167.07	0.004543
1176.71	0.005723
1186.36	0.007253
1196	0.008123
1205.64	0.006893
1215.29	0.005833
1224.93	0.007423
1234.58	0.006293
1244.22	0.006193
1253.87	0.006553
1263.51	0.006243
1273.16	0.006913
1282.8	0.010293
1292.45	0.009663
1302.09	0.009493
1311.74	0.010943
1321.38	0.014053
1331.03	0.023873
1340.67	0.049453
1350.32	0.071383
1359.96	0.045413
1369.61	0.019773
1379.25	0.010893
1388.9	0.008163
1398.54	0.008693
1408.18	0.009893
1417.83	0.008113
1427.47	0.007953
1437.12	0.013163
1446.76	0.022573
1456.41	0.028893
1466.05	0.029223
1475.7	0.021793
1485.34	0.047043
1494.99	0.083693
1504.63	0.028893
1514.28	0.008483
1523.92	0.004693
1533.57	0.003013
1543.21	0.002383
1552.86	0.002083
1562.5	0.002353
1572.15	0.002613
1581.79	0.003453
1591.44	0.006103
1601.08	0.007583
1610.73	0.004463
1620.37	0.003453
1630.01	0.003683
1639.66	0.003253
1649.3	0.002373
1658.95	0.001823
1668.59	0.0014925
1678.24	0.0011203
1687.88	0.0010574
1697.53	0.0011611
1707.17	0.0014064
1716.82	0.001653
1726.46	0.001833
1736.11	0.001893
1745.75	0.002103
1755.4	0.002253
1765.04	0.002793
1774.69	0.003503
1784.33	0.001983
1793.98	0.0015636
1803.62	0.001643
1813.27	0.001643
1822.91	0.001883
1832.55	0.002173
1842.2	0.002573
1851.84	0.003133
1861.49	0.003933
1871.13	0.005273
1880.78	0.007323
1890.42	0.009163
1900.07	0.009733
1909.71	0.010423
1919.36	0.012263
1929	0.015083
1938.65	0.019143
1948.29	0.024493
1957.94	0.031733
1967.58	0.042003
1977.23	0.056543
1986.87	0.076583
1996.52	0.103123
2006.16	0.138653
2015.81	0.188353
2025.45	0.254553
2035.1	0.327423
2044.74	0.384143
2054.38	0.406693
2064.03	0.385453
2073.67	0.317673
2083.32	0.235993
2092.96	0.174593
2102.61	0.131663
2112.25	0.099183
2121.9	0.081473
2131.54	0.074213
2141.19	0.067823
2150.83	0.058953
2160.48	0.050623
2170.12	0.046303
2179.77	0.046273
2189.41	0.048963
2199.06	0.050393
2208.7	0.046223
2218.35	0.036123
2227.99	0.025143
2237.64	0.018033
2247.28	0.013783
2256.92	0.010753
2266.57	0.008843
2276.21	0.007763
2285.86	0.007183
2295.5	0.006333
2305.15	0.005223
2314.79	0.004133
2324.44	0.003493
2334.08	0.002973
2343.73	0.002673
2353.37	0.002413
2363.02	0.002133
2372.66	0.001873
2382.31	0.001823
2391.95	0.001573
2401.6	0.0014188
2411.24	0.0013363
2420.89	0.0013071
2430.53	0.0013504
2440.18	0.0011772
2449.82	0.0012611
2459.47	0.0013214
2469.11	0.0013542
2478.75	0.0013134
2488.4	0.0013403
2498.04	0.0014193
2507.69	0.001643
2517.33	0.001673
2526.98	0.001863
2536.62	0.001993
2546.27	0.002163
2555.91	0.002213
2565.56	0.002213
2575.2	0.002133
2584.85	0.001953
2594.49	0.001683
2604.14	0.0015621
2613.78	0.0014398
2623.43	0.0014675
2633.07	0.0014268
2642.72	0.0014799
2652.36	0.001583
2662.01	0.001873
2671.65	0.002403
2681.29	0.003073
2690.94	0.003913
2700.58	0.004653
2710.23	0.005463
2719.87	0.006433
2729.52	0.007443
2739.16	0.007203
2748.81	0.006253
2758.45	0.004793
2768.1	0.003683
2777.74	0.003513
2787.39	0.003113
2797.03	0.002943
2806.68	0.002963
2816.32	0.002903
2825.97	0.002703
2835.61	0.002963
2845.26	0.004063
2854.9	0.005493
2864.55	0.007453
2874.19	0.009903
2883.84	0.015693
2893.48	0.015353
2903.12	0.010143
2912.77	0.010043
2922.41	0.015183
2932.06	0.021973
2941.7	0.029843
2951.35	0.041023
2960.99	0.039243
2970.64	0.021403
2980.28	0.011173
2989.93	0.007193
2999.57	0.005273
3009.22	0.004693
3018.86	0.006173
3028.51	0.011373
3038.15	0.012553
3047.8	0.008903
3057.44	0.006243
3067.09	0.004343
3076.73	0.004723
3086.38	0.006173
3096.02	0.005943
3105.67	0.004203
3115.31	0.002343
3124.95	0.0012176
3134.6	0.0009063
3144.24	0.0008789
3153.89	0.000434
3163.53	0.00058756
3173.18	0.0004912
3182.82	0.000351
3192.47	0.000349
3202.11	0.00021
3211.76	0.000265
3221.4	0.000171
3231.05	0.000291
3240.69	0.000145
3250.34	0.000316
3259.98	0.000167
3269.63	0.000141
3279.27	0.000176
3288.92	7.8e-05
3298.56	0.000251
3308.21	0.000299
3317.85	7.9e-05
3327.49	0.000359
3337.14	5.2e-05
3346.78	7.6e-05
3356.43	0.000194
3366.07	0.000348
3375.72	0.0002
3385.36	0.000256
3395.01	0.000152
3404.65	0.000281
3414.3	0.000213
3423.94	0.000308
3433.59	0.000209
3443.23	9e-05
3452.88	0.000296
3462.52	0.000241
3472.17	0.000175
3481.81	0.0005237
3491.46	0.000212
3501.1	0.0002
3510.75	0.000207
3520.39	0.000201
3530.04	0.000165
3539.68	0.0004973
3549.32	0.000201
3558.97	0.000335
3568.61	0.000194
3578.26	0.0004796
3587.9	0.000244
3597.55	0.000317
3607.19	0.000364
3616.84	0.000285
3626.48	0.000384
3636.13	0.000313
3645.77	0.0005104
3655.42	0.0004794
3665.06	0.000403
3674.71	0.0005327
3684.35	0.000413
3694	0.00065825
3703.64	0.00061837
3713.29	0.0006845
3722.93	0.00061357
3732.58	0.000463
3742.22	0.000375
3751.86	0.000395
3761.51	0.000298
3771.15	0.00028
3780.8	0.0005107
3790.44	0.0004894
3800.09	0.0005012
3809.73	0.000468
3819.38	0.00061762
3829.02	0.00061041
3838.67	0.00065538
3848.31	0.0007113
3857.96	0.000466
3867.6	0.0007121
3877.25	0.0008053
3886.89	0.0007711
3896.54	0.0008882
3906.18	0.0008421
3915.83	0.0010008
3925.47	0.00064472
3935.12	0.0010739
3944.76	0.0009592
3954.41	0.0009339
3964.05	0.0012343
3973.69	0.0013273
3983.34	0.001593
3992.98	0.0015549
