Infrared Spectrum: 2-Methyl-1-octen-3-yne
Formula: C 9 H 14
CAS: 17603-76-8
State: gas
Origin: EPA-IR VAPOR PHASE LIBRARY
1/CM	ABSORBANCE
549.8	0.0023047
559.445	0.0019114
569.09	0.0024921
578.734	0.00315
588.379	0.0024763
598.024	0.0023344
607.669	0.0026545
617.313	0.00381
626.958	0.0024239
636.603	0.00288
646.248	0.00273
655.893	0.0024283
665.537	0.0026153
675.182	0.00336
684.827	0.0026223
694.472	0.0018784
704.116	0.0025589
713.761	0.00301
723.406	0.00326
733.051	0.002614
742.695	0.00283
752.34	0.0025518
761.985	0.0024497
771.63	0.00306
781.275	0.0022262
790.919	0.0027106
800.564	0.0018641
810.209	0.0023915
819.854	0.001551
829.498	0.002236
839.143	0.002195
848.788	0.00274
858.433	0.003
868.078	0.0043
877.722	0.00487
887.367	0.00609
897.012	0.00636
906.657	0.00538
916.301	0.00433
925.946	0.00313
935.591	0.0026876
945.236	0.001411
954.88	0.0024469
964.525	0.0018253
974.17	0.001559
983.815	0.001435
993.46	0.001906
1003.1	0.00273
1012.75	0.0025595
1022.39	0.0019965
1032.04	0.0021788
1041.68	0.000839
1051.33	0.0005
1060.97	0.00054
1070.62	0.0021014
1080.26	0.0017088
1089.91	0.001018
1099.55	0.00286
1109.2	0.00058
1118.84	0.00178874
1128.49	0.00285
1138.13	0.00272
1147.78	0.00301
1157.42	0.00421
1167.07	0.00383
1176.71	0.00362
1186.36	0.00336
1196	0.00359
1205.64	0.00535
1215.29	0.0021396
1224.93	0.00349
1234.58	0.00323
1244.22	0.00459
1253.87	0.00451
1263.51	0.00596
1273.16	0.00564
1282.8	0.00646
1292.45	0.00644
1302.09	0.00556
1311.74	0.00481
1321.38	0.0055
1331.03	0.00551
1340.67	0.00463
1350.32	0.00435
1359.96	0.0045
1369.61	0.00464
1379.25	0.00464
1388.9	0.00391
1398.54	0.00357
1408.18	0.00358
1417.83	0.00315
1427.47	0.00388
1437.12	0.00449
1446.76	0.00472
1456.41	0.00503
1466.05	0.00494
1475.7	0.00402
1485.34	0.00298
1494.99	0.0024097
1504.63	0.0020656
1514.28	0.0024537
1523.92	0.002546
1533.57	0.0025389
1543.21	0.0024342
1552.86	0.0021959
1562.5	0.00291
1572.15	0.00274
1581.79	0.00333
1591.44	0.00385
1601.08	0.0046
1610.73	0.00521
1620.37	0.00507
1630.01	0.00414
1639.66	0.00314
1649.3	0.00311
1658.95	0.00305
1668.59	0.00278
1678.24	0.0026874
1687.88	0.00312
1697.53	0.0022935
1707.17	0.00284
1716.82	0.0026611
1726.46	0.00276
1736.11	0.00302
1745.75	0.0029
1755.4	0.002557
1765.04	0.00301
1774.69	0.00304
1784.33	0.00346
1793.98	0.00324
1803.62	0.00295
1813.27	0.0025951
1822.91	0.00288
1832.55	0.002405
1842.2	0.002385
1851.84	0.0024257
1861.49	0.0024481
1871.13	0.0025071
1880.78	0.0026482
1890.42	0.0021761
1900.07	0.0026463
1909.71	0.00235
1919.36	0.0024564
1929	0.0022372
1938.65	0.0024549
1948.29	0.0023246
1957.94	0.0021411
1967.58	0.002165
1977.23	0.0022938
1986.87	0.0021926
1996.52	0.0022326
2006.16	0.0024335
2015.81	0.0025029
2025.45	0.0021316
2035.1	0.0022026
2044.74	0.0024168
2054.38	0.0021254
2064.03	0.0024048
2073.67	0.0021971
2083.32	0.0022116
2092.96	0.0020895
2102.61	0.0023388
2112.25	0.0024068
2121.9	0.002314
2131.54	0.0023806
2141.19	0.0023042
2150.83	0.0022847
2160.48	0.0021423
2170.12	0.0024054
2179.77	0.0024255
2189.41	0.0027041
2199.06	0.00287
2208.7	0.0026087
2218.35	0.00333
2227.99	0.00326
2237.64	0.0021163
2247.28	0.0026178
2256.92	0.0021777
2266.57	0.0020673
2276.21	0.0018598
2285.86	0.002086
2295.5	0.002261
2305.15	0.002254
2314.79	0.002281
2324.44	0.0019977
2334.08	0.0020191
2343.73	0.0022065
2353.37	0.0018765
2363.02	0.0020696
2372.66	0.0026139
2382.31	0.0022551
2391.95	0.002606
2401.6	0.0022929
2411.24	0.0024747
2420.89	0.0023874
2430.53	0.002335
2440.18	0.0022648
2449.82	0.0021841
2459.47	0.0020737
2469.11	0.0024577
2478.75	0.0021596
2488.4	0.0025205
2498.04	0.0020473
2507.69	0.0020804
2517.33	0.0020698
2526.98	0.0021183
2536.62	0.0022301
2546.27	0.0023775
2555.91	0.0022035
2565.56	0.0024145
2575.2	0.0021403
2584.85	0.002045
2594.49	0.0024578
2604.14	0.0026555
2613.78	0.0022525
2623.43	0.0021015
2633.07	0.0023969
2642.72	0.0024928
2652.36	0.0025233
2662.01	0.0020994
2671.65	0.002529
2681.29	0.00273
2690.94	0.0021446
2700.58	0.0019892
2710.23	0.0020468
2719.87	0.0022074
2729.52	0.002267
2739.16	0.0023068
2748.81	0.00293
2758.45	0.0026482
2768.1	0.0026653
2777.74	0.0026257
2787.39	0.00297
2797.03	0.00303
2806.68	0.0024938
2816.32	0.00295
2825.97	0.00357
2835.61	0.00408
2845.26	0.00433
2854.9	0.00547
2864.55	0.00674
2874.19	0.00855
2883.84	0.0084
2893.48	0.00828
2903.12	0.00815
2912.77	0.01016
2922.41	0.01286
2932.06	0.01705
2941.7	0.0187
2951.35	0.01586
2960.99	0.01567
2970.64	0.01568
2980.28	0.01238
2989.93	0.00839
2999.57	0.0061
3009.22	0.00485
3018.86	0.00411
3028.51	0.0048
3038.15	0.00371
3047.8	0.00361
3057.44	0.0035
3067.09	0.0026211
3076.73	0.00282
3086.38	0.00339
3096.02	0.00493
3105.67	0.00462
3115.31	0.00329
3124.95	0.00361
3134.6	0.0024766
3144.24	0.00286
3153.89	0.0027134
3163.53	0.0025308
3173.18	0.00283
3182.82	0.00297
3192.47	0.002045
3202.11	0.00324
3211.76	0.0025535
3221.4	0.002258
3231.05	0.0022325
3240.69	0.0025096
3250.34	0.0022143
3259.98	0.0021104
3269.63	0.00299
3279.27	0.0027118
3288.92	0.0023985
3298.56	0.0020494
3308.21	0.0024491
3317.85	0.002377
3327.49	0.00281
3337.14	0.00283
3346.78	0.00282
3356.43	0.002296
3366.07	0.00306
3375.72	0.00341
3385.36	0.00298
3395.01	0.0026639
3404.65	0.00273
3414.3	0.00326
3423.94	0.0024658
3433.59	0.0026409
3443.23	0.0026879
3452.88	0.0022738
3462.52	0.00283
3472.17	0.00275
3481.81	0.00311
3491.46	0.0022548
3501.1	0.0022376
3510.75	0.00299
3520.39	0.00287
3530.04	0.0024349
3539.68	0.00295
3549.32	0.0028
3558.97	0.00304
3568.61	0.0021704
3578.26	0.0025742
3587.9	0.0026518
3597.55	0.00302
3607.19	0.0022752
3616.84	0.0025402
3626.48	0.0026669
3636.13	0.0024319
3645.77	0.0034
3655.42	0.0018581
3665.06	0.002208
3674.71	0.001579
3684.35	0.0026741
3694	0.00311
3703.64	0.0021474
3713.29	0.00177913
3722.93	0.00282
3732.58	0.00180859
3742.22	0.00291
3751.86	0.00281
3761.51	0.0023575
3771.15	0.0024085
3780.8	0.00288
3790.44	0.0025486
3800.09	0.0016415
3809.73	0.0022842
3819.38	0.0025762
3829.02	0.0023166
3838.67	0.0022012
3848.31	0.00188
3857.96	0.00308
3867.6	0.0018345
3877.25	0.00175186
3886.89	0.00279
3896.54	0.002631
3906.18	0.00303
3915.83	0.0024093
3925.47	0.00336
3935.12	0.0024099
3944.76	0.0028
3954.41	0.0024388
3964.05	0.0025535
3973.69	0.00309
3983.34	0.0016532
3992.98	0.0025975
