Infrared Spectrum: N-[3-(TRIMETHOXYSILYL)PROPYL]ETHYLENEDIAMINE
Formula: C8 H22 N2 O3 Si
CAS: 1760-24-3
State: LIQUID (NEAT)
Boiling point: 146 C AT 15 mmHg
Class: COBLENTZ
Instrument: BECKMAN IR-4 (HYBRID PRISM-GRATING)
Sampling: TRANSMISSION
Path length: CAPILLARY CELL
Resolution: 4
Origin: ALDRICH CHEMICAL COMPANY, MILWAUKEE, WIS.
MICROMETERS	TRANSMITTANCE
2.01	0.953
2.04493	0.957
2.07985	0.959
2.11478	0.956
2.14971	0.953
2.18464	0.941
2.21956	0.938
2.25449	0.953
2.28942	0.954
2.32435	0.956
2.35927	0.958
2.3942	0.952
2.42913	0.953
2.46405	0.961
2.49898	0.957
2.53391	0.954
2.56884	0.959
2.60376	0.957
2.63869	0.946
2.67362	0.942
2.70854	0.928
2.74347	0.899
2.7784	0.861
2.81333	0.813
2.84825	0.727
2.88318	0.666
2.91811	0.604
2.95304	0.525
2.98796	0.504
3.02289	0.474
3.05782	0.486
3.09274	0.5
3.12767	0.518
3.1626	0.545
3.19753	0.567
3.23245	0.59
3.26738	0.597
3.30231	0.564
3.33723	0.485
3.37216	0.308
3.40709	0.254
3.44202	0.313
3.47694	0.331
3.51187	0.313
3.5468	0.383
3.58173	0.529
3.61665	0.626
3.65158	0.68
3.68651	0.726
3.72143	0.747
3.75636	0.767
3.79129	0.774
3.82622	0.781
3.86114	0.795
3.89607	0.81
3.931	0.839
3.96593	0.86
4.00085	0.875
4.03578	0.882
4.07071	0.893
4.10563	0.899
4.14056	0.91
4.17549	0.922
4.21042	0.927
4.24534	0.922
4.28027	0.92
4.3152	0.915
4.35012	0.914
4.38505	0.919
4.41998	0.917
4.45491	0.917
4.48983	0.915
4.52476	0.915
4.55969	0.915
4.59462	0.914
4.62954	0.91
4.66447	0.908
4.6994	0.907
4.73432	0.908
4.76925	0.899
4.80418	0.898
4.83911	0.903
4.87403	0.909
4.90896	0.907
4.94389	0.903
4.97881	0.903
5.01374	0.91
5.04867	0.914
5.0836	0.909
5.11852	0.904
5.15345	0.898
5.18838	0.889
5.22331	0.888
5.25823	0.89
5.29316	0.895
5.32809	0.898
5.36301	0.9
5.39794	0.903
5.43287	0.908
5.4678	0.907
5.50272	0.904
5.53765	0.903
5.57258	0.9
5.60751	0.909
5.64243	0.902
5.67736	0.898
5.71229	0.898
5.74721	0.912
5.78214	0.889
5.81707	0.893
5.852	0.878
5.88692	0.872
5.92185	0.84
5.95678	0.826
5.9917	0.821
6.02663	0.816
6.06156	0.815
6.09649	0.795
6.13141	0.757
6.16634	0.737
6.20127	0.677
6.2362	0.657
6.27112	0.662
6.30605	0.696
6.34098	0.742
6.3759	0.754
6.41083	0.777
6.44576	0.787
6.48069	0.8
6.51561	0.791
6.55054	0.782
6.58547	0.767
6.62039	0.756
6.65532	0.712
6.69025	0.672
6.72518	0.654
6.7601	0.601
6.79503	0.573
6.82996	0.584
6.86489	0.593
6.89981	0.609
6.93474	0.671
6.96967	0.727
7.00459	0.736
7.03952	0.73
7.07445	0.726
7.10938	0.766
7.1443	0.81
7.17923	0.804
7.21416	0.804
7.24909	0.803
7.28401	0.792
7.31894	0.786
7.35387	0.785
7.38879	0.769
7.42372	0.764
7.45865	0.801
7.49358	0.814
7.5285	0.8
7.56343	0.766
7.59836	0.731
7.63328	0.723
7.66821	0.74
7.70314	0.769
7.73807	0.78
7.77299	0.785
7.80792	0.787
7.84285	0.801
7.87778	0.81
7.9127	0.8
7.94763	0.797
7.98256	0.789
8.01748	0.781
8.05241	0.754
8.08734	0.731
8.12227	0.716
8.15719	0.672
8.19212	0.652
8.22705	0.606
8.26197	0.537
8.2969	0.469
8.33183	0.411
8.36676	0.382
8.40168	0.393
8.43661	0.421
8.47154	0.465
8.50647	0.501
8.54139	0.514
8.57632	0.513
8.61125	0.49
8.64617	0.46
8.6811	0.429
8.71603	0.382
8.75096	0.328
8.78588	0.292
8.82081	0.242
8.85574	0.212
8.89067	0.185
8.92559	0.171
8.96052	0.156
8.99545	0.15
9.03037	0.146
9.0653	0.134
9.10023	0.121
9.13516	0.112
9.17008	0.109
9.20501	0.107
9.23994	0.107
9.27486	0.111
9.30979	0.119
9.34472	0.127
9.37965	0.134
9.41457	0.136
9.4495	0.145
9.48443	0.15
9.51936	0.146
9.55428	0.138
9.58921	0.13
9.62414	0.129
9.65906	0.138
9.69399	0.153
9.72892	0.193
9.76385	0.24
9.79877	0.287
9.8337	0.313
9.86863	0.358
9.90355	0.393
9.93848	0.436
9.97341	0.48
10.0083	0.52
10.0433	0.553
10.0782	0.585
10.1131	0.603
10.148	0.621
10.183	0.634
10.2179	0.642
10.2528	0.651
10.2878	0.654
10.3227	0.657
10.3576	0.661
10.3925	0.661
10.4275	0.654
10.4624	0.648
10.4973	0.643
10.5322	0.637
10.5672	0.617
10.6021	0.607
10.637	0.603
10.672	0.598
10.7069	0.594
10.7418	0.593
10.7767	0.592
10.8117	0.595
10.8466	0.598
10.8815	0.603
10.9164	0.611
10.9514	0.618
10.9863	0.628
11.0212	0.634
11.0562	0.636
11.0911	0.637
11.126	0.638
11.1609	0.641
11.1959	0.641
11.2308	0.642
11.2657	0.643
11.3006	0.642
11.3356	0.641
11.3705	0.642
11.4054	0.642
11.4404	0.646
11.4753	0.651
11.5102	0.649
11.5451	0.646
11.5801	0.643
11.615	0.646
11.6499	0.646
11.6848	0.643
11.7198	0.634
11.7547	0.621
11.7896	0.614
11.8246	0.603
11.8595	0.578
11.8944	0.554
11.9293	0.513
11.9643	0.483
11.9992	0.444
12.0341	0.411
12.069	0.377
12.104	0.353
12.1389	0.336
12.1738	0.326
12.2088	0.322
12.2437	0.324
12.2786	0.332
12.3135	0.343
12.3485	0.352
12.3834	0.362
12.4183	0.371
12.4532	0.377
12.4882	0.381
12.5231	0.382
12.558	0.385
12.593	0.383
12.6279	0.385
12.6628	0.381
12.6977	0.383
12.7327	0.382
12.7676	0.386
12.8025	0.391
12.8374	0.398
12.8724	0.409
12.9073	0.421
12.9422	0.431
12.9772	0.442
13.0121	0.452
13.047	0.464
13.0819	0.476
13.1169	0.484
13.1518	0.488
13.1867	0.503
13.2216	0.509
13.2566	0.513
13.2915	0.521
13.3264	0.538
13.3614	0.548
13.3963	0.559
13.4312	0.568
13.4661	0.588
13.5011	0.594
13.536	0.603
13.5709	0.612
13.6058	0.617
13.6408	0.623
13.6757	0.621
13.7106	0.619
13.7456	0.618
13.7805	0.613
13.8154	0.607
13.8503	0.603
13.8853	0.598
13.9202	0.592
13.9551	0.587
13.99	0.578
14.025	0.57
14.0599	0.563
14.0948	0.554
14.1298	0.545
14.1647	0.537
14.1996	0.53
14.2345	0.525
14.2695	0.514
14.3044	0.509
14.3393	0.499
14.3742	0.499
14.4092	0.494
14.4441	0.499
14.479	0.489
14.5139	0.495
14.5489	0.494
14.5838	0.49
14.6187	0.498
14.6537	0.498
14.6886	0.488
14.7235	0.493
14.7584	0.496
14.7934	0.498
14.8283	0.49
14.8632	0.481
14.8981	0.464
14.9331	0.476
14.968	0.48
15.0029	0.484
