Infrared Spectrum: 4-Methyl-1,3-heptadiene (c,t)
Formula: C 8 H 14
CAS: 17603-57-5
State: gas
Instrument: HP-GC/MS/IRD
Origin: NIST Mass Spectrometry Data Center
1/CM	ABSORBANCE
550	0.0003825
562	0.0004275
574	0.0002295
586	0.000297
598	0.000198
610	0.0001215
622	0.000117
634	0.0001035
646	0
658	3.6e-05
670	4.5e-05
682	0.0001935
694	0.0002475
706	0.0001125
718	0.0003555
730	0.0003915
742	0.000711
754	0.0012645
766	0.001521
778	0.001125
790	0.0009045
802	0.0008055
814	0.0014265
826	0.0026505
838	0.0047565
850	0.0047025
862	0.002934
874	0.001764
886	0.001782
898	0.002727
910	0.0030195
922	0.0024975
934	0.0039105
946	0.009459
958	0.0161055
970	0.010143
982	0.0044325
994	0.0029655
1006	0.002475
1018	0.001917
1030	0.0025335
1042	0.0032085
1054	0.002736
1066	0.0020385
1078	0.0016425
1090	0.001476
1102	0.001323
1114	0.001557
1126	0.0013815
1138	0.000909
1150	0.000828
1162	0.000873
1174	0.000936
1186	0.001197
1198	0.0013995
1210	0.0017505
1222	0.001809
1234	0.0016065
1246	0.001404
1258	0.001422
1270	0.001557
1282	0.0018135
1294	0.0024165
1306	0.0027315
1318	0.0024525
1330	0.0019665
1342	0.0016245
1354	0.0020295
1366	0.003267
1378	0.00567
1390	0.0055665
1402	0.0030465
1414	0.0028125
1426	0.0041355
1438	0.0066195
1450	0.0088605
1462	0.0085365
1474	0.0056835
1486	0.003204
1498	0.001953
1510	0.001467
1522	0.0012555
1534	0.001098
1546	0.0010575
1558	0.000954
1570	0.0008775
1582	0.0009225
1594	0.0010395
1606	0.001224
1618	0.0013815
1630	0.001395
1642	0.001494
1654	0.001413
1666	0.001206
1678	0.00117
1690	0.001134
1702	0.000963
1714	0.0007965
1726	0.0006795
1738	0.000918
1750	0.001089
1762	0.0007605
1774	0.0005175
1786	0.000459
1798	0.0005175
1810	0.000549
1822	0.0005985
1834	0.0005265
1846	0.000423
1858	0.0003375
1870	0.00036
1882	0.000396
1894	0.0003285
1906	0.0003285
1918	0.000252
1930	0.000171
1942	0.0001395
1954	0.000117
1966	0.000108
1978	0.0001665
1990	0.000315
2002	0.000234
2014	9.9e-05
2026	5.85e-05
2038	6.3e-05
2050	6.3e-05
2062	8.55e-05
2074	7.65e-05
2086	6.75e-05
2098	4.05e-05
2110	9.9e-05
2122	7.2e-05
2134	4.5e-06
2146	5.85e-05
2158	2.7e-05
2170	3.6e-05
2182	4.05e-05
2194	3.6e-05
2206	4.95e-05
2218	6.3e-05
2230	3.6e-05
2242	3.15e-05
2254	4.95e-05
2266	5.85e-05
2278	0.0001305
2290	0.000126
2302	9e-05
2314	9e-05
2326	0.000108
2338	7.2e-05
2350	0.0001215
2362	0.000126
2374	0.0001395
2386	0.0001305
2398	0.0001665
2410	0.0001575
2422	0.000216
2434	0.00018
2446	0.00018
2458	0.000135
2470	0.000216
2482	0.000162
2494	0.0001575
2506	0.0001035
2518	0.0001125
2530	0.0001485
2542	0.000153
2554	0.0002565
2566	0.000252
2578	0.0002475
2590	0.0002475
2602	0.000225
2614	0.000252
2626	0.000225
2638	0.0001935
2650	0.0001935
2662	0.000171
2674	0.000198
2686	0.0003015
2698	0.000387
2710	0.0005085
2722	0.0009315
2734	0.0016335
2746	0.001791
2758	0.001233
2770	0.0011835
2782	0.0012645
2794	0.0015615
2806	0.0021645
2818	0.002925
2830	0.004041
2842	0.0059625
2854	0.010692
2866	0.018081
2878	0.02403
2890	0.0249075
2902	0.022653
2914	0.025578
2926	0.03348
2938	0.036774
2950	0.035163
2962	0.039627
2974	0.044721
2986	0.0318645
2998	0.018423
3010	0.0139005
3022	0.013041
3034	0.0134415
3046	0.0111645
3058	0.0065835
3070	0.0039465
3082	0.003114
3094	0.002754
3106	0.002448
3118	0.0021915
3130	0.0018855
3142	0.0014625
3154	0.001197
3166	0.000855
3178	0.0007785
3190	0.0005625
3202	0.000423
3214	0.0003645
3226	0.0002925
3238	0.00018
3250	0.000162
3262	0.0001395
3274	0.000162
3286	0.0001575
3298	0.000153
3310	4.5e-06
3322	0.0002025
3334	0.0001845
3346	0.000117
3358	0.000171
3370	5.4e-05
3382	6.75e-05
3394	0.0001215
3406	9e-05
3418	9.45e-05
3430	0.0001305
3442	0.000189
3454	0.0002025
3466	0.0001305
3478	0.000189
3490	0.0001575
3502	6.3e-05
3514	1.35e-05
3526	0.0001125
3538	8.55e-05
3550	8.55e-05
3562	0.000126
3574	8.1e-05
3586	0.000153
3598	9.45e-05
3610	0.000144
3622	4.05e-05
3634	6.75e-05
3646	2.25e-05
3658	8.55e-05
3670	0.000108
3682	0.000126
3694	0.000117
3706	0.000207
3718	0.0001305
3730	7.65e-05
3742	0.0001305
3754	0.0001305
3766	8.55e-05
3778	0.0001575
3790	0.000261
3802	0.000243
3814	0.000225
3826	0.0002205
3838	0.000234
