Infrared Spectrum: 4,4'-Diaminodicyclohexylmethane
Formula: C 13 H 26 N 2
CAS: 1761-71-3
State: gas
Origin: EPA-IR VAPOR PHASE LIBRARY
1/CM	ABSORBANCE
501.5	0.002154
513.074	0.001604
524.648	0.001714
536.222	0.001664
547.796	0.001814
559.37	0.002074
570.944	0.002314
582.518	0.002794
594.092	0.002834
605.666	0.002824
617.24	0.003124
628.814	0.003564
640.388	0.003304
651.962	0.003684
663.536	0.003874
675.11	0.003984
686.684	0.004164
698.258	0.004534
709.832	0.005294
721.406	0.006634
732.98	0.008634
744.554	0.011714
756.128	0.015704
767.702	0.019424
779.276	0.021404
790.85	0.021814
802.423	0.015664
813.997	0.010444
825.571	0.007804
837.145	0.005624
848.719	0.004514
860.293	0.003894
871.867	0.003534
883.441	0.003784
895.015	0.004764
906.589	0.004594
918.163	0.003414
929.737	0.002904
941.311	0.002724
952.885	0.004174
964.459	0.004744
976.033	0.003554
987.607	0.003174
999.181	0.002924
1010.76	0.002914
1022.33	0.002874
1033.9	0.003214
1045.48	0.003294
1057.05	0.004204
1068.63	0.008034
1080.2	0.009684
1091.77	0.007644
1103.35	0.007954
1114.92	0.006244
1126.49	0.003924
1138.07	0.002694
1149.64	0.002154
1161.22	0.002104
1172.79	0.002044
1184.36	0.001914
1195.94	0.001904
1207.51	0.001974
1219.09	0.001874
1230.66	0.001814
1242.23	0.001844
1253.81	0.001584
1265.38	0.0012423
1276.96	0.0011535
1288.53	0.0012096
1300.1	0.001644
1311.68	0.002294
1323.25	0.002134
1334.83	0.002534
1346.4	0.003424
1357.97	0.004374
1369.55	0.005614
1381.12	0.005024
1392.7	0.002994
1404.27	0.002194
1415.84	0.002264
1427.42	0.002884
1438.99	0.006314
1450.57	0.012334
1462.14	0.007824
1473.71	0.003194
1485.29	0.002154
1496.86	0.001814
1508.44	0.001554
1520.01	0.001474
1531.58	0.001464
1543.16	0.001564
1554.73	0.001714
1566.31	0.001954
1577.88	0.002414
1589.45	0.003304
1601.03	0.005344
1612.6	0.009334
1624.18	0.009254
1635.75	0.004474
1647.32	0.002284
1658.9	0.001434
1670.47	0.0010338
1682.05	0.0007909
1693.62	0.0006623
1705.19	0.0006268
1716.77	0.0006174
1728.34	0.0005945
1739.92	0.0005773
1751.49	0.0005586
1763.06	0.0005595
1774.64	0.0005407
1786.21	0.0005588
1797.79	0.0005439
1809.36	0.0005609
1820.93	0.0005634
1832.51	0.0005671
1844.08	0.0005355
1855.66	0.0005255
1867.23	0.0005
1878.8	0.000465
1890.38	0.00045904
1901.95	0.00039048
1913.53	0.000372793
1925.1	0.0003505
1936.67	0.00035797
1948.25	0.0003132
1959.82	0.0002831
1971.4	0.000273
1982.97	0.000249
1994.54	0.000248
2006.12	0.0002826
2017.69	0.000243
2029.27	0.000235
2040.84	0.000254
2052.41	0.0002666
2063.99	0.0002771
2075.56	0.000283
2087.14	0.0002886
2098.71	0.0002955
2110.28	0.0002901
2121.86	0.000308
2133.43	0.0003034
2145.01	0.0002854
2156.58	0.0003179
2168.15	0.0003336
2179.73	0.0003049
2191.3	0.0003528
2202.88	0.000364955
2214.45	0.0003482
2226.02	0.00038377
2237.6	0.000372624
2249.17	0.00042374
2260.74	0.0005062
2272.32	0.00046323
2283.89	0.00038969
2295.47	0.0003537
2307.04	0.0003397
2318.61	0.000363678
2330.19	0.00038332
2341.76	0.00035687
2353.34	0.0003856
2364.91	0.00039845
2376.48	0.00040625
2388.06	0.00039331
2399.63	0.0004342
2411.21	0.0004164
2422.78	0.00039599
2434.35	0.000373386
2445.93	0.00039935
2457.5	0.00042603
2469.08	0.00046303
2480.65	0.0004259
2492.22	0.0004687
2503.8	0.000503
2515.37	0.0005617
2526.95	0.0005306
2538.52	0.0005527
2550.09	0.0006128
2561.67	0.0006759
2573.24	0.0007437
2584.82	0.000882
2596.39	0.0010697
2607.96	0.0012992
2619.54	0.001434
2631.11	0.001504
2642.69	0.001494
2654.26	0.001614
2665.83	0.001774
2677.41	0.001884
2688.98	0.001864
2700.56	0.001884
2712.13	0.001964
2723.7	0.001944
2735.28	0.002004
2746.85	0.001964
2758.43	0.001844
2770	0.001904
2781.57	0.002284
2793.15	0.003024
2804.72	0.004324
2816.3	0.006244
2827.87	0.009684
2839.44	0.019714
2851.02	0.042594
2862.59	0.044024
2874.17	0.027664
2885.74	0.025444
2897.31	0.040584
2908.89	0.063954
2920.46	0.114994
2932.04	0.113704
2943.61	0.053544
2955.18	0.018294
2966.76	0.007294
2978.33	0.003724
2989.91	0.002134
3001.48	0.0013554
3013.05	0.0009481
3024.63	0.0006434
3036.2	0.0005507
3047.78	0.00045813
3059.35	0.00043158
3070.92	0.00042313
3082.5	0.00038969
3094.07	0.00037723
3105.65	0.0003221
3117.22	0.00037121
3128.79	0.0004644
3140.37	0.0004962
3151.94	0.0004948
3163.52	0.00041698
3175.09	0.00039412
3186.66	0.0002752
3198.24	0.000207
3209.81	0.000207
3221.39	0.000142
3232.96	0.000164
3244.53	0.000171
3256.11	0.000179
3267.68	0.000174
3279.26	0.00017
3290.83	0.000201
3302.4	0.000236
3313.98	0.00041358
3325.55	0.0009037
3337.13	0.0012709
3348.7	0.000624
3360.27	0.0003208
3371.85	0.000206
3383.42	0.00021
3395	0.000183
3406.57	0.000134
3418.14	0.000109
3429.72	8.4e-05
3441.29	2.9e-05
3452.86	5.4e-05
3464.44	0
3476.01	1.6e-05
3487.59	8.2e-05
3499.16	3.5e-05
3510.73	6.9e-05
3522.31	0.000109
3533.88	7e-05
3545.46	9.6e-05
3557.03	0.0001
3568.6	2e-05
3580.18	5.2e-05
3591.75	7.9e-05
3603.33	3.8e-05
3614.9	0.000108
3626.47	0.000126
3638.05	0.000107
3649.62	0.00011
3661.2	9.2e-05
3672.77	0.000183
3684.34	0.000147
3695.92	9.8e-05
3707.49	0.000129
3719.07	0.0002
3730.64	0.000149
3742.21	0.000181
3753.79	0.000128
3765.36	0.000169
3776.94	0.000133
3788.51	9.7e-05
3800.08	0.000247
3811.66	0.000143
3823.23	0.000246
3834.81	0.000152
3846.38	0.000172
3857.95	0.000114
3869.53	0.000213
3881.1	0.000114
3892.68	0.000151
3904.25	8.5e-05
3915.82	0.000161
3927.4	0.000194
3938.97	0.000228
3950.55	0.000153
3962.12	0.000248
3973.69	0.0002809
3985.27	0.00028
3996.84	0.000181
