Infrared Spectrum: 4-Methyl-2-nitrophenyl isothiocyanate
Formula: C 8 H 6 N 2 O 2 S
CAS: 17614-74-3
State: gas
Origin: EPA-IR VAPOR PHASE LIBRARY
1/CM	ABSORBANCE
549.8	0.002531
559.445	0.001541
569.09	0.001601
578.734	0.001881
588.379	0.001871
598.024	0.001641
607.669	0.001481
617.313	0.001641
626.958	0.001501
636.603	0.0013381
646.248	0.0012912
655.893	0.0010837
665.537	0.001621
675.182	0.001841
684.827	0.001621
694.472	0.0012319
704.116	0.0009889
713.761	0.0006881
723.406	0.0008344
733.051	0.0009016
742.695	0.0008914
752.34	0.001601
761.985	0.001601
771.63	0.0012134
781.275	0.001571
790.919	0.003861
800.564	0.007501
810.209	0.008461
819.854	0.010171
829.498	0.004541
839.143	0.0012019
848.788	0.001196
858.433	0.0012776
868.078	0.0013036
877.722	0.002041
887.367	0.003151
897.012	0.003561
906.657	0.002701
916.301	0.002041
925.946	0.001651
935.591	0.002951
945.236	0.006231
954.88	0.007251
964.525	0.004291
974.17	0.002201
983.815	0.0013714
993.46	0.0011474
1003.1	0.0009015
1012.75	0.0008407
1022.39	0.0007647
1032.04	0.0008142
1041.68	0.0011823
1051.33	0.0009596
1060.97	0.0006997
1070.62	0.0006771
1080.26	0.0006497
1089.91	0.00050052
1099.55	0.0013211
1109.2	0.00048699
1118.84	0.000342
1128.49	0.00050727
1138.13	0.001801
1147.78	0.002821
1157.42	0.001511
1167.07	0.0009594
1176.71	0.0008615
1186.36	0.0004206
1196	0.0005903
1205.64	0.0009354
1215.29	0.0012204
1224.93	0.0010595
1234.58	0.0010346
1244.22	0.002141
1253.87	0.004401
1263.51	0.005541
1273.16	0.004431
1282.8	0.003011
1292.45	0.002541
1302.09	0.002851
1311.74	0.003351
1321.38	0.004681
1331.03	0.007251
1340.67	0.011781
1350.32	0.015131
1359.96	0.012481
1369.61	0.006981
1379.25	0.003961
1388.9	0.002941
1398.54	0.002571
1408.18	0.002501
1417.83	0.002101
1427.47	0.001751
1437.12	0.001641
1446.76	0.001721
1456.41	0.001901
1466.05	0.002271
1475.7	0.003191
1485.34	0.006141
1494.99	0.012351
1504.63	0.012321
1514.28	0.010111
1523.92	0.012941
1533.57	0.019091
1543.21	0.027401
1552.86	0.029521
1562.5	0.023941
1572.15	0.018831
1581.79	0.011321
1591.44	0.006531
1601.08	0.005211
1610.73	0.007121
1620.37	0.007651
1630.01	0.003621
1639.66	0.001951
1649.3	0.0013039
1658.95	0.0010521
1668.59	0.0010016
1678.24	0.0008864
1687.88	0.0008745
1697.53	0.0008556
1707.17	0.0008695
1716.82	0.0007433
1726.46	0.0007515
1736.11	0.0007973
1745.75	0.0008856
1755.4	0.0008467
1765.04	0.0010641
1774.69	0.001761
1784.33	0.001591
1793.98	0.001321
1803.62	0.0013021
1813.27	0.0012221
1822.91	0.0011199
1832.55	0.0012932
1842.2	0.001541
1851.84	0.001581
1861.49	0.001481
1871.13	0.001641
1880.78	0.001991
1890.42	0.002461
1900.07	0.003181
1909.71	0.003821
1919.36	0.004281
1929	0.005141
1938.65	0.006401
1948.29	0.008521
1957.94	0.011391
1967.58	0.015251
1977.23	0.020251
1986.87	0.026881
1996.52	0.036071
2006.16	0.047831
2015.81	0.061771
2025.45	0.078231
2035.1	0.096491
2044.74	0.108691
2054.38	0.099571
2064.03	0.077991
2073.67	0.063571
2083.32	0.060851
2092.96	0.060251
2102.61	0.051241
2112.25	0.037151
2121.9	0.027441
2131.54	0.023311
2141.19	0.020841
2150.83	0.017451
2160.48	0.013071
2170.12	0.009311
2179.77	0.007121
2189.41	0.005881
2199.06	0.005321
2208.7	0.005101
2218.35	0.004661
2227.99	0.004421
2237.64	0.004421
2247.28	0.004871
2256.92	0.005011
2266.57	0.004891
2276.21	0.004211
2285.86	0.003281
2295.5	0.002521
2305.15	0.002081
2314.79	0.001991
2324.44	0.002061
2334.08	0.001991
2343.73	0.001921
2353.37	0.002061
2363.02	0.002391
2372.66	0.002171
2382.31	0.001631
2391.95	0.0012358
2401.6	0.0012613
2411.24	0.001169
2420.89	0.0011205
2430.53	0.0011792
2440.18	0.0010817
2449.82	0.0010541
2459.47	0.0010105
2469.11	0.0010093
2478.75	0.0009375
2488.4	0.0010421
2498.04	0.001069
2507.69	0.0012049
2517.33	0.0013445
2526.98	0.0014349
2536.62	0.001601
2546.27	0.001631
2555.91	0.001601
2565.56	0.0013792
2575.2	0.0012035
2584.85	0.00108
2594.49	0.0008901
2604.14	0.0007151
2613.78	0.0007135
2623.43	0.0008296
2633.07	0.0006594
2642.72	0.0009527
2652.36	0.00093
2662.01	0.0011063
2671.65	0.0011528
2681.29	0.0014592
2690.94	0.001571
2700.58	0.001841
2710.23	0.001751
2719.87	0.0013792
2729.52	0.0012663
2739.16	0.0011131
2748.81	0.0011452
2758.45	0.0011604
2768.1	0.0008174
2777.74	0.0006968
2787.39	0.0006482
2797.03	0.0006365
2806.68	0.0007388
2816.32	0.0006855
2825.97	0.0007147
2835.61	0.0008018
2845.26	0.000889
2854.9	0.0011058
2864.55	0.001701
2874.19	0.002001
2883.84	0.002161
2893.48	0.001851
2903.12	0.001771
2912.77	0.001751
2922.41	0.002131
2932.06	0.003501
2941.7	0.003871
2951.35	0.002151
2960.99	0.001641
2970.64	0.001511
2980.28	0.001491
2989.93	0.0014572
2999.57	0.001571
3009.22	0.001771
3018.86	0.001771
3028.51	0.001781
3038.15	0.002231
3047.8	0.002401
3057.44	0.001921
3067.09	0.001521
3076.73	0.0014289
3086.38	0.0008313
3096.02	0.0008445
3105.67	0.0005771
3115.31	0.0004165
3124.95	0.000305
3134.6	0.000288
3144.24	0.000367
3153.89	0.000381
3163.53	0.000327
3173.18	0.000268
3182.82	0.0004903
3192.47	0.000312
3202.11	0.000183
3211.76	0.000254
3221.4	0.000152
3231.05	0.000325
3240.69	0.000319
3250.34	0.0004055
3259.98	0.000269
3269.63	0.000231
3279.27	0.000124
3288.92	0.000259
3298.56	0.000185
3308.21	0.000318
3317.85	0.000154
3327.49	0.000336
3337.14	0.000307
3346.78	0.000192
3356.43	0.00032
3366.07	0.000327
3375.72	0.000213
3385.36	0.0003789
3395.01	0.000342
3404.65	0.00036
3414.3	0.000292
3423.94	0.0003781
3433.59	0.000221
3443.23	0.000249
3452.88	0.0003743
3462.52	0.000335
3472.17	0.000253
3481.81	0.000229
3491.46	0.00027
3501.1	0.000332
3510.75	0.0002
3520.39	0.000185
3530.04	0.000186
3539.68	0.0003723
3549.32	0.000354
3558.97	0.000346
3568.61	0.000354
3578.26	0.0003861
3587.9	0.000228
3597.55	0.0004574
3607.19	0.000215
3616.84	0.000343
3626.48	0.00037
3636.13	0.000271
3645.77	0.000366
3655.42	0.000471258
3665.06	0.000321
3674.71	0.00051828
3684.35	0.0003776
3694	0.0004349
3703.64	0.000419
3713.29	0.000357
3722.93	0.000359
3732.58	0.00054316
3742.22	0.000198
3751.86	0.000159
3761.51	0.00052638
3771.15	0.00046556
3780.8	0.0004244
3790.44	0.0004297
3800.09	0.0004179
3809.73	0.0004295
3819.38	0.0003748
3829.02	0.000271
3838.67	0.00052097
3848.31	0.00049282
3857.96	0.000266
3867.6	0.000472238
3877.25	0.00050619
3886.89	0.00049568
3896.54	0.0005963
3906.18	0.00053397
3915.83	0.0003783
3925.47	0.0006211
3935.12	0.0005741
3944.76	0.0005876
3954.41	0.000698
3964.05	0.0006471
3973.69	0.0006625
3983.34	0.0006508
3992.98	0.0008333
