Infrared Spectrum: Salicylidene o-aminophenol
Formula: C 13 H 11 N O 2
CAS: 1761-56-4
State: gas
Origin: EPA-IR VAPOR PHASE LIBRARY
1/CM	ABSORBANCE
549.8	0.00137
559.445	0.0006307
569.09	0.00113
578.734	0.00207
588.379	0.00133
598.024	0.0008549
607.669	0.0008918
617.313	0.00114
626.958	0.0009578
636.603	0.00106
646.248	0.00165
655.893	0.00118
665.537	0.00128
675.182	0.00121
684.827	0.00151
694.472	0.00157
704.116	0.00202
713.761	0.00307
723.406	0.0038
733.051	0.00762
742.695	0.01625
752.34	0.0167
761.985	0.00836
771.63	0.00369
781.275	0.00209
790.919	0.00212
800.564	0.00348
810.209	0.00456
819.854	0.00238
829.498	0.00143
839.143	0.00116
848.788	0.00131
858.433	0.00176
868.078	0.0014
877.722	0.00124
887.367	0.00103
897.012	0.00216
906.657	0.00739
916.301	0.00259
925.946	0.00159
935.591	0.000791
945.236	0.0005625
954.88	0.0007098
964.525	0.0007804
974.17	0.0012
983.815	0.00113
993.46	0.000536
1003.1	0.0004799
1012.75	0.0008646
1022.39	0.00191
1032.04	0.00307
1041.68	0.00142
1051.33	0.0007286
1060.97	0.0005545
1070.62	0.0003226
1080.26	0.0008417
1089.91	0.00124
1099.55	0.00227
1109.2	0.00263
1118.84	0.00301
1128.49	0.00168
1138.13	0.00306
1147.78	0.00937
1157.42	0.00734
1167.07	0.00816
1176.71	0.01037
1186.36	0.00909
1196	0.01026
1205.64	0.00954
1215.29	0.00849
1224.93	0.01017
1234.58	0.00895
1244.22	0.00767
1253.87	0.00885
1263.51	0.00856
1273.16	0.01235
1282.8	0.01484
1292.45	0.00882
1302.09	0.00449
1311.74	0.00335
1321.38	0.00288
1331.03	0.00245
1340.67	0.00255
1350.32	0.00239
1359.96	0.00366
1369.61	0.00522
1379.25	0.004
1388.9	0.00295
1398.54	0.0027
1408.18	0.00275
1417.83	0.00249
1427.47	0.00221
1437.12	0.00217
1446.76	0.0029
1456.41	0.00438
1466.05	0.00694
1475.7	0.01252
1485.34	0.01879
1494.99	0.01324
1504.63	0.00599
1514.28	0.00342
1523.92	0.00259
1533.57	0.00224
1543.21	0.00242
1552.86	0.00323
1562.5	0.00605
1572.15	0.01141
1581.79	0.01335
1591.44	0.01149
1601.08	0.01465
1610.73	0.02012
1620.37	0.03003
1630.01	0.01925
1639.66	0.00612
1649.3	0.00284
1658.95	0.00203
1668.59	0.00185
1678.24	0.00163
1687.88	0.00127
1697.53	0.000967
1707.17	0.000992
1716.82	0.0008573
1726.46	0.000834
1736.11	0.0005895
1745.75	0.0005264
1755.4	0.0003529
1765.04	0.0007176
1774.69	0.0007888
1784.33	0.000834
1793.98	0.0006085
1803.62	0.0006859
1813.27	0.0007533
1822.91	0.0006969
1832.55	0.0006048
1842.2	0.0005369
1851.84	0.0005752
1861.49	0.0006053
1871.13	0.00064
1880.78	0.000644
1890.42	0.000735
1900.07	0.000684
1909.71	0.0006582
1919.36	0.0008104
1929	0.0008288
1938.65	0.0009668
1948.29	0.0006763
1957.94	0.0005219
1967.58	0.0003476
1977.23	0.0003072
1986.87	0.0003475
1996.52	0.0003278
2006.16	0.0002558
2015.81	0.0003415
2025.45	0.0003208
2035.1	0.0002863
2044.74	0.0003446
2054.38	0.0003703
2064.03	0.0004514
2073.67	0.0003493
2083.32	0.0003991
2092.96	0.0003426
2102.61	0.0003117
2112.25	0.0003262
2121.9	0.0003273
2131.54	0.0002713
2141.19	0.0002742
2150.83	0.000257
2160.48	0.000291
2170.12	0.0001873
2179.77	0.0002973
2189.41	0.0003999
2199.06	0.0003717
2208.7	0.0003929
2218.35	0.0003531
2227.99	0.0003859
2237.64	0.0003095
2247.28	0.0003654
2256.92	0.000405
2266.57	0.000398
2276.21	0.0003928
2285.86	0.0002528
2295.5	0.0003012
2305.15	0.0004249
2314.79	0.0004652
2324.44	0.0004844
2334.08	0.0005546
2343.73	0.0005322
2353.37	0.0006053
2363.02	0.0004566
2372.66	0.000439
2382.31	0.0004617
2391.95	0.000627
2401.6	0.0006085
2411.24	0.0005935
2420.89	0.0005438
2430.53	0.0006516
2440.18	0.0005768
2449.82	0.0006228
2459.47	0.0007055
2469.11	0.000745
2478.75	0.0006724
2488.4	0.0006998
2498.04	0.000734
2507.69	0.0008632
2517.33	0.0007079
2526.98	0.0008127
2536.62	0.0008478
2546.27	0.0009029
2555.91	0.0008647
2565.56	0.0008313
2575.2	0.0008868
2584.85	0.0008925
2594.49	0.0009511
2604.14	0.001
2613.78	0.00105
2623.43	0.00115
2633.07	0.00119
2642.72	0.00113
2652.36	0.00111
2662.01	0.0012
2671.65	0.00113
2681.29	0.00111
2690.94	0.00106
2700.58	0.0013
2710.23	0.00129
2719.87	0.0014
2729.52	0.00148
2739.16	0.00155
2748.81	0.00152
2758.45	0.00151
2768.1	0.00164
2777.74	0.00156
2787.39	0.00149
2797.03	0.00139
2806.68	0.00148
2816.32	0.00156
2825.97	0.00163
2835.61	0.00178
2845.26	0.00177
2854.9	0.00205
2864.55	0.0021
2874.19	0.00242
2883.84	0.00282
2893.48	0.00302
2903.12	0.00271
2912.77	0.00232
2922.41	0.00213
2932.06	0.00204
2941.7	0.00212
2951.35	0.00218
2960.99	0.00212
2970.64	0.00239
2980.28	0.00265
2989.93	0.00299
2999.57	0.00273
3009.22	0.00292
3018.86	0.00303
3028.51	0.00358
3038.15	0.00439
3047.8	0.00525
3057.44	0.00545
3067.09	0.00619
3076.73	0.00751
3086.38	0.00594
3096.02	0.00448
3105.67	0.00362
3115.31	0.00306
3124.95	0.00273
3134.6	0.00265
3144.24	0.00259
3153.89	0.00266
3163.53	0.00294
3173.18	0.00286
3182.82	0.00275
3192.47	0.00275
3202.11	0.0028
3211.76	0.00268
3221.4	0.00277
3231.05	0.00281
3240.69	0.00256
3250.34	0.00266
3259.98	0.00248
3269.63	0.00236
3279.27	0.00231
3288.92	0.00236
3298.56	0.0022
3308.21	0.00216
3317.85	0.00193
3327.49	0.00182
3337.14	0.00176
3346.78	0.00175
3356.43	0.00155
3366.07	0.00156
3375.72	0.00132
3385.36	0.00149
3395.01	0.00126
3404.65	0.00106
3414.3	0.00103
3423.94	0.00107
3433.59	0.0009191
3443.23	0.0007178
3452.88	0.000662
3462.52	0.00088
3472.17	0.0006217
3481.81	0.0008258
3491.46	0.0006615
3501.1	0.0009111
3510.75	0.0008132
3520.39	0.0005949
3530.04	0.000912
3539.68	0.0008307
3549.32	0.0013
3558.97	0.002
3568.61	0.00574
3578.26	0.00934
3587.9	0.00514
3597.55	0.00234
3607.19	0.00159
3616.84	0.001
3626.48	0.0008902
3636.13	0.0008209
3645.77	0.00155
3655.42	0.00122
3665.06	0.0007066
3674.71	0.000321
3684.35	0.0001276
3694	0.000329
3703.64	0.0003189
3713.29	0.0003958
3722.93	0.0003373
3732.58	0.0004476
3742.22	0.0001041
3751.86	0.0002837
3761.51	0.0002674
3771.15	0.0002726
3780.8	0.0002472
3790.44	0.0002583
3800.09	7.279e-05
3809.73	7.043e-05
3819.38	0.0002681
3829.02	0.000185
3838.67	0.0004052
3848.31	0.0001614
3857.96	0.0003865
3867.6	4.144e-05
3877.25	0.0005056
3886.89	0.0004046
3896.54	0.0002591
3906.18	0.0003658
3915.83	0.0001462
3925.47	0.0004973
3935.12	0.0002975
3944.76	0.0003785
3954.41	0.0002447
3964.05	0.0002986
3973.69	0.0003354
3983.34	0.0004412
3992.98	0.0003303
