Infrared Spectrum: 2-AMINOETHYL THIOLACETATE HYDROCHLORIDE
Formula: C4 H9 N S O  * H Cl
CAS: 17612-91-8
State: SOLID(MINERAL OIL MULL)
Melting point: 137-140 C
Class: COBLENTZ
Instrument: Not specified, most likely a prism, grating, or hybrid spectrometer.
Sampling: TRANSMISSION
Resolution: 4
Origin: ARTHUR D. LITTLE, INC.
MICROMETERS	TRANSMITTANCE
2.008	0.433
2.0428	0.441
2.0776	0.45
2.1124	0.46
2.1472	0.468
2.182	0.476
2.2168	0.479
2.2516	0.489
2.2864	0.502
2.3212	0.513
2.356	0.51
2.3908	0.511
2.4256	0.517
2.4604	0.526
2.4952	0.531
2.53	0.549
2.5648	0.572
2.5996	0.578
2.6344	0.601
2.6692	0.61
2.704	0.619
2.7388	0.638
2.7736	0.648
2.8084	0.652
2.8432	0.658
2.878	0.661
2.9128	0.675
2.9476	0.688
2.9824	0.696
3.0172	0.694
3.052	0.71
3.0868	0.732
3.1216	0.716
3.1564	0.614
3.1912	0.513
3.226	0.405
3.2608	0.284
3.2956	0.194
3.3304	0.14
3.3652	0.114
3.4	0.068
3.4348	0.053
3.4696	0.029
3.5044	0.026
3.5392	0.031
3.574	0.142
3.6088	0.234
3.6436	0.261
3.6784	0.356
3.7132	0.367
3.748	0.36
3.7828	0.382
3.8176	0.443
3.8524	0.415
3.8872	0.425
3.922	0.513
3.9568	0.521
3.9916	0.534
4.0264	0.562
4.0612	0.579
4.096	0.588
4.1308	0.622
4.1656	0.63
4.2004	0.662
4.2352	0.686
4.27	0.691
4.3048	0.702
4.3396	0.713
4.3744	0.742
4.4092	0.747
4.444	0.75
4.4788	0.765
4.5136	0.773
4.5484	0.768
4.5832	0.765
4.618	0.783
4.6528	0.797
4.6876	0.802
4.7224	0.803
4.7572	0.806
4.792	0.803
4.8268	0.796
4.8616	0.793
4.8964	0.783
4.9312	0.761
4.966	0.726
5.0008	0.687
5.0356	0.675
5.0704	0.72
5.1052	0.783
5.14	0.813
5.1748	0.831
5.2096	0.838
5.2444	0.844
5.2792	0.848
5.314	0.853
5.3488	0.859
5.3836	0.882
5.4184	0.896
5.4532	0.898
5.488	0.899
5.5228	0.898
5.5576	0.888
5.5924	0.863
5.6272	0.828
5.662	0.821
5.6968	0.825
5.7316	0.811
5.7664	0.77
5.8012	0.699
5.836	0.616
5.8708	0.437
5.9056	0.199
5.9404	0.12
5.9752	0.18
6.01	0.408
6.0448	0.513
6.0796	0.572
6.1144	0.661
6.1492	0.691
6.184	0.635
6.2188	0.383
6.2536	0.287
6.2884	0.186
6.3232	0.234
6.358	0.305
6.3928	0.37
6.4276	0.462
6.4624	0.52
6.4972	0.434
6.532	0.255
6.5668	0.251
6.6016	0.36
6.6364	0.454
6.6712	0.523
6.706	0.537
6.7408	0.536
6.7756	0.42
6.8104	0.244
6.8452	0.289
6.88	0.363
6.9148	0.446
6.9496	0.497
6.9844	0.542
7.0192	0.523
7.054	0.415
7.0888	0.318
7.1236	0.415
7.1584	0.521
7.1932	0.536
7.228	0.316
7.2628	0.375
7.2976	0.53
7.3324	0.563
7.3672	0.524
7.402	0.356
7.4368	0.406
7.4716	0.575
7.5064	0.646
7.5412	0.603
7.576	0.638
7.6108	0.706
7.6456	0.734
7.6804	0.744
7.7152	0.768
7.75	0.783
7.7848	0.789
7.8196	0.731
7.8544	0.67
7.8892	0.686
7.924	0.735
7.9588	0.582
7.9936	0.668
8.0284	0.797
8.0632	0.825
8.098	0.841
8.1328	0.845
8.1676	0.848
8.2024	0.856
8.2372	0.857
8.272	0.848
8.3068	0.84
8.3416	0.834
8.3764	0.832
8.4112	0.825
8.446	0.812
8.4808	0.779
8.5156	0.706
8.5504	0.675
8.5852	0.67
8.62	0.606
8.6548	0.489
8.6896	0.363
8.7244	0.244
8.7592	0.21
8.794	0.22
8.8288	0.322
8.8636	0.427
8.8984	0.481
8.9332	0.5
8.968	0.427
9.0028	0.319
9.0376	0.268
9.0724	0.332
9.1072	0.329
9.142	0.421
9.1768	0.571
9.2116	0.633
9.2464	0.678
9.2812	0.709
9.316	0.731
9.3508	0.754
9.3856	0.768
9.4204	0.776
9.4552	0.779
9.49	0.773
9.5248	0.709
9.5596	0.569
9.5944	0.59
9.6292	0.678
9.664	0.728
9.6988	0.75
9.7336	0.758
9.7684	0.761
9.8032	0.763
9.838	0.76
9.8728	0.748
9.9076	0.712
9.9424	0.678
9.9772	0.694
10.012	0.719
10.0468	0.751
10.0816	0.758
10.1164	0.75
10.1512	0.735
10.186	0.68
10.2208	0.597
10.2556	0.492
10.2904	0.37
10.3252	0.276
10.36	0.258
10.3948	0.313
10.4296	0.395
10.4644	0.481
10.4992	0.556
10.534	0.6
10.5688	0.626
10.6036	0.622
10.6384	0.617
10.6732	0.651
10.708	0.702
10.7428	0.732
10.7776	0.768
10.8124	0.793
10.8472	0.808
10.882	0.813
10.9168	0.827
10.9516	0.828
10.9864	0.828
11.0212	0.821
11.056	0.79
11.0908	0.745
11.1256	0.649
11.1604	0.591
11.1952	0.625
11.23	0.71
11.2648	0.777
11.2996	0.811
11.3344	0.838
11.3692	0.848
11.404	0.867
11.4388	0.875
11.4736	0.88
11.5084	0.892
11.5432	0.895
11.578	0.896
11.6128	0.896
11.6476	0.899
11.6824	0.899
11.7172	0.899
11.752	0.899
11.7868	0.899
11.8216	0.896
11.8564	0.895
11.8912	0.896
11.926	0.901
11.9608	0.904
11.9956	0.905
12.0304	0.911
12.0652	0.912
12.1	0.915
12.1348	0.918
12.1696	0.917
12.2044	0.912
12.2392	0.909
12.274	0.902
12.3088	0.885
12.3436	0.829
12.3784	0.725
12.4132	0.712
12.448	0.751
12.4828	0.809
12.5176	0.835
12.5524	0.851
12.5872	0.867
12.622	0.88
12.6568	0.889
12.6916	0.893
12.7264	0.898
12.7612	0.902
12.796	0.899
12.8308	0.899
12.8656	0.899
12.9004	0.896
12.9352	0.895
12.97	0.895
13.0048	0.896
13.0396	0.898
13.0744	0.898
13.1092	0.899
13.144	0.899
13.1788	0.898
13.2136	0.896
13.2484	0.893
13.2832	0.893
13.318	0.896
13.3528	0.893
13.3876	0.889
13.4224	0.885
13.4572	0.882
13.492	0.88
13.5268	0.873
13.5616	0.866
13.5964	0.859
13.6312	0.857
13.666	0.848
13.7008	0.843
13.7356	0.838
13.7704	0.831
13.8052	0.827
13.84	0.825
13.8748	0.819
13.9096	0.815
13.9444	0.815
13.9792	0.825
14.014	0.828
14.0488	0.828
14.0836	0.828
14.1184	0.828
14.1532	0.828
14.188	0.827
14.2228	0.828
14.2576	0.827
14.2924	0.822
14.3272	0.821
14.362	0.819
14.3968	0.812
14.4316	0.808
14.4664	0.8
14.5012	0.792
14.536	0.773
14.5708	0.765
14.6056	0.729
14.6404	0.691
14.6752	0.574
14.71	0.449
14.7448	0.405
14.7796	0.444
14.8144	0.545
14.8492	0.591
14.884	0.632
14.9188	0.659
14.9536	0.665
14.9884	0.671
15.0232	0.675
15.058	0.681
15.0928	0.675
15.1276	0.671
15.1624	0.67
15.1972	0.664
15.232	0.659
15.2668	0.643
