Infrared Spectrum: AMMONIUM THIOCYANATE
Formula: N H4 S C N
CAS: 1762-95-4
State: SOLID (NUJOL AND FLUOROLUBE MULLS)
Class: COBLENTZ
Instrument: Not specified, most likely a prism, grating, or hybrid spectrometer.
Sampling: TRANSMISSION
Resolution: 4
Origin: MELLON INSTITUTE
MICROMETERS	TRANSMITTANCE
2.047	0.771
2.08812	0.78
2.12924	0.786
2.17037	0.792
2.21149	0.795
2.25261	0.8
2.29373	0.807
2.33485	0.812
2.37598	0.819
2.4171	0.826
2.45822	0.833
2.49934	0.838
2.54046	0.845
2.58159	0.85
2.62271	0.853
2.66383	0.864
2.70495	0.872
2.74608	0.867
2.7872	0.862
2.82832	0.857
2.86944	0.857
2.91056	0.859
2.95169	0.864
2.99281	0.864
3.03393	0.81
3.07505	0.737
3.11617	0.664
3.1573	0.601
3.19842	0.584
3.23954	0.608
3.28066	0.58
3.32178	0.621
3.36291	0.659
3.40403	0.707
3.44515	0.718
3.48627	0.719
3.52739	0.714
3.56852	0.754
3.60964	0.792
3.65076	0.814
3.69188	0.833
3.73301	0.843
3.77413	0.855
3.81525	0.867
3.85637	0.878
3.89749	0.884
3.93862	0.89
3.97974	0.896
4.02086	0.9
4.06198	0.903
4.1031	0.908
4.14423	0.914
4.18535	0.907
4.22647	0.896
4.26759	0.886
4.30871	0.888
4.34984	0.902
4.39096	0.92
4.43208	0.927
4.4732	0.931
4.51432	0.936
4.55545	0.941
4.59657	0.946
4.63769	0.95
4.67881	0.953
4.71994	0.96
4.76106	0.96
4.80218	0.893
4.8433	0.603
4.88442	0.573
4.92555	0.659
4.96667	0.759
5.00779	0.793
5.04891	0.831
5.09003	0.853
5.13116	0.876
5.17228	0.896
5.2134	0.903
5.25452	0.908
5.29564	0.914
5.33677	0.919
5.37789	0.924
5.41901	0.926
5.46013	0.926
5.50125	0.926
5.54238	0.929
5.5835	0.931
5.62462	0.932
5.66574	0.934
5.70687	0.934
5.74799	0.934
5.78911	0.938
5.83023	0.939
5.87135	0.941
5.91248	0.945
5.9536	0.941
5.99472	0.912
6.03584	0.891
6.07696	0.908
6.11809	0.939
6.15921	0.95
6.20033	0.963
6.24145	0.979
6.28257	0.987
6.3237	0.984
6.36482	0.981
6.40594	0.982
6.44706	0.987
6.48818	0.994
6.52931	0.996
6.57043	0.994
6.61155	0.994
6.65267	0.998
6.6938	1.006
6.73492	1.005
6.77604	1.001
6.81716	0.986
6.85828	0.958
6.89941	0.91
6.94053	0.776
6.98165	0.709
7.02277	0.678
7.06389	0.644
7.10502	0.673
7.14614	0.742
7.18726	0.819
7.22838	0.853
7.2695	0.884
7.31063	0.902
7.35175	0.902
7.39287	0.903
7.43399	0.903
7.47511	0.903
7.51624	0.903
7.55736	0.903
7.59848	0.903
7.6396	0.903
7.68073	0.903
7.72185	0.903
7.76297	0.907
7.80409	0.908
7.84521	0.91
7.88634	0.912
7.92746	0.912
7.96858	0.914
8.0097	0.915
8.05082	0.919
8.09195	0.922
8.13307	0.924
8.17419	0.92
8.21531	0.924
8.25643	0.929
8.29756	0.929
8.33868	0.931
8.3798	0.931
8.42092	0.929
8.46204	0.927
8.50317	0.927
8.54429	0.927
8.58541	0.927
8.62653	0.927
8.66765	0.927
8.70878	0.926
8.7499	0.926
8.79102	0.926
8.83214	0.924
8.87327	0.922
8.91439	0.92
8.95551	0.92
8.99663	0.92
9.03775	0.92
9.07888	0.92
9.12	0.922
9.16112	0.924
9.20224	0.924
9.24336	0.924
9.28449	0.924
9.32561	0.927
9.36673	0.929
9.40785	0.929
9.44897	0.929
9.4901	0.929
9.53122	0.929
9.57234	0.931
9.61346	0.932
9.65458	0.936
9.69571	0.938
9.73683	0.939
9.77795	0.943
9.81907	0.948
9.8602	0.95
9.90132	0.948
9.94244	0.945
9.98356	0.95
10.0247	0.948
10.0658	0.945
10.1069	0.948
10.148	0.946
10.1892	0.946
10.2303	0.945
10.2714	0.95
10.3125	0.951
10.3537	0.95
10.3948	0.948
10.4359	0.948
10.477	0.946
10.5181	0.943
10.5593	0.945
10.6004	0.941
10.6415	0.941
10.6826	0.939
10.7238	0.941
10.7649	0.943
10.806	0.946
10.8471	0.955
10.8882	0.96
10.9294	0.962
10.9705	0.965
11.0116	0.965
11.0527	0.965
11.0939	0.967
11.135	0.969
11.1761	0.969
11.2172	0.97
11.2583	0.97
11.2995	0.97
11.3406	0.972
11.3817	0.975
11.4228	0.977
11.464	0.979
11.5051	0.979
11.5462	0.979
11.5873	0.979
11.6284	0.979
11.6696	0.979
11.7107	0.979
11.7518	0.979
11.7929	0.981
11.8341	0.981
11.8752	0.981
11.9163	0.981
11.9574	0.981
11.9985	0.981
12.0397	0.981
12.0808	0.982
12.1219	0.984
12.163	0.986
12.2042	0.986
12.2453	0.987
12.2864	0.987
12.3275	0.987
12.3686	0.986
12.4098	0.986
12.4509	0.984
12.492	0.984
12.5331	0.982
12.5743	0.982
12.6154	0.981
12.6565	0.979
12.6976	0.977
12.7387	0.975
12.7799	0.975
12.821	0.975
12.8621	0.974
12.9032	0.969
12.9444	0.967
12.9855	0.967
13.0266	0.965
13.0677	0.965
13.1088	0.958
13.15	0.951
13.1911	0.939
13.2322	0.931
13.2733	0.931
13.3145	0.929
13.3556	0.927
13.3967	0.927
13.4378	0.926
13.4789	0.926
13.5201	0.924
13.5612	0.922
13.6023	0.915
13.6434	0.91
13.6845	0.905
13.7257	0.898
13.7668	0.891
13.8079	0.89
13.849	0.888
13.8902	0.886
13.9313	0.883
13.9724	0.883
14.0135	0.879
14.0546	0.876
14.0958	0.874
14.1369	0.862
14.178	0.859
14.2191	0.853
14.2603	0.848
14.3014	0.841
14.3425	0.836
14.3836	0.831
14.4247	0.828
14.4659	0.823
14.507	0.817
14.5481	0.81
14.5892	0.807
14.6304	0.802
14.6715	0.798
14.7126	0.793
14.7537	0.783
14.7948	0.778
14.836	0.771
14.8771	0.768
14.9182	0.762
14.9593	0.757
15.0005	0.752
15.0416	0.747
15.0827	0.743
15.1238	0.737
15.1649	0.731
15.2061	0.726
15.2472	0.721
15.2883	0.714
15.3294	0.709
15.3706	0.704
15.4117	0.699
15.4528	0.695
15.4939	0.694
15.535	0.69
15.5762	0.689
15.6173	0.687
15.6584	0.683
15.6995	0.678
15.7407	0.678
15.7818	0.678
15.8229	0.678
15.864	0.678
15.9051	0.678
15.9463	0.678
15.9874	0.678
