Infrared Spectrum: p-Aminobenzaldehyde
Formula: C 13 H 12 N 2 O
CAS: 17625-83-1
State: gas
Instrument: HP-GC/MS/IRD
Origin: NIST Mass Spectrometry Data Center
1/CM	ABSORBANCE
550	0.0005973
562	0.0007414
574	0.0012441
586	0.0004554
598	0.0002134
610	0.0003223
622	0.0005577
634	0.0005236
646	0.0004048
658	0.0006248
670	0.0010395
682	0.0013321
694	0.0014179
706	0.0009141
718	0.00066
730	0.0007568
742	0.0013618
754	0.001661
766	0.0010648
778	0.0005258
790	0.0004169
802	0.0003806
814	0.0003817
826	0.0005951
838	0.0007502
850	0.0004697
862	0.0002904
874	0.0002486
886	0.0003058
898	0.0002178
910	0.0001243
922	4.95e-05
934	2.2e-05
946	6.93e-05
958	8.36e-05
970	9.02e-05
982	5.94e-05
994	6.27e-05
1006	0.000121
1018	0.0001078
1030	0.0001397
1042	0.0001408
1054	0.0002156
1066	0.0004565
1078	0.0005599
1090	0.0007447
1102	0.0006325
1114	0.0003828
1126	0.0005005
1138	0.0003465
1150	0.0002684
1162	0.0004059
1174	0.0020218
1186	0.0022286
1198	0.0006457
1210	0.0007854
1222	0.0019162
1234	0.0046211
1246	0.0038159
1258	0.0019481
1270	0.0021747
1282	0.0036718
1294	0.002772
1306	0.0035123
1318	0.0027423
1330	0.0012529
1342	0.0004796
1354	0.0002651
1366	0.0002607
1378	0.0002706
1390	0.0002783
1402	0.0004169
1414	0.0009944
1426	0.0034122
1438	0.0051568
1450	0.0015191
1462	0.0009922
1474	0.0015708
1486	0.0026565
1498	0.0076637
1510	0.0095359
1522	0.0040953
1534	0.002343
1546	0.0012364
1558	0.0009207
1570	0.0009977
1582	0.0014586
1594	0.0034298
1606	0.004433
1618	0.003773
1630	0.0042988
1642	0.0014619
1654	0.0007887
1666	0.0007722
1678	0.0010934
1690	0.0023001
1702	0.0042658
1714	0.0033143
1726	0.0011154
1738	0.0005478
1750	0.0003102
1762	0.0002299
1774	0.0002167
1786	0.0001265
1798	0.0001012
1810	6.6e-05
1822	6.82e-05
1834	6.82e-05
1846	9.35e-05
1858	0.0001089
1870	0.0001078
1882	8.25e-05
1894	7.04e-05
1906	8.8e-05
1918	9.46e-05
1930	0.0001023
1942	8.36e-05
1954	6.93e-05
1966	5.06e-05
1978	3.08e-05
1990	3.19e-05
2002	4.29e-05
2014	4.18e-05
2026	5.39e-05
2038	4.84e-05
2050	4.29e-05
2062	4.29e-05
2074	4.73e-05
2086	5.28e-05
2098	3.52e-05
2110	2.31e-05
2122	2.86e-05
2134	3.3e-05
2146	2.31e-05
2158	3.63e-05
2170	3.08e-05
2182	3.08e-05
2194	3.3e-05
2206	2.09e-05
2218	2.31e-05
2230	1.87e-05
2242	7.7e-06
2254	2.53e-05
2266	2.64e-05
2278	2.2e-05
2290	2.64e-05
2302	3.3e-05
2314	1.76e-05
2326	2.2e-06
2338	2.2e-06
2350	2.2e-06
2362	2.2e-06
2374	0
2386	5.06e-05
2398	3.41e-05
2410	4.84e-05
2422	4.51e-05
2434	5.5e-05
2446	4.51e-05
2458	5.17e-05
2470	4.07e-05
2482	4.29e-05
2494	4.95e-05
2506	5.17e-05
2518	6.16e-05
2530	6.93e-05
2542	6.6e-05
2554	4.84e-05
2566	4.73e-05
2578	5.5e-05
2590	5.83e-05
2602	7.04e-05
2614	8.69e-05
2626	7.7e-05
2638	6.71e-05
2650	5.5e-05
2662	6.05e-05
2674	3.85e-05
2686	4.73e-05
2698	2.86e-05
2710	2.64e-05
2722	4.62e-05
2734	3.96e-05
2746	2.53e-05
2758	4.29e-05
2770	4.4e-05
2782	4.29e-05
2794	3.52e-05
2806	5.5e-06
2818	2.31e-05
2830	2.97e-05
2842	4.18e-05
2854	3.19e-05
2866	4.18e-05
2878	2.97e-05
2890	4.62e-05
2902	3.96e-05
2914	6.71e-05
2926	4.95e-05
2938	2.86e-05
2950	2.97e-05
2962	3.63e-05
2974	5.83e-05
2986	0.0001045
2998	0.0002431
3010	0.0003872
3022	0.0006853
3034	0.0011891
3046	0.0008118
3058	0.0008415
3070	0.0010241
3082	0.0006039
3094	0.0005038
3106	0.0003619
3118	0.0002024
3130	0.0001507
3142	0.0001166
3154	7.37e-05
3166	7.81e-05
3178	6.49e-05
3190	5.61e-05
3202	0.0001155
3214	0.0001188
3226	0.000121
3238	7.59e-05
3250	9.9e-05
3262	8.69e-05
3274	3.41e-05
3286	7.7e-05
3298	7.15e-05
3310	9.02e-05
3322	5.17e-05
3334	6.49e-05
3346	8.36e-05
3358	0.0001298
3370	0.0001122
3382	0.0001551
3394	0.0002772
3406	0.000407
3418	0.0006281
3430	0.0005247
3442	0.0002816
3454	0.0003355
3466	0.0004488
3478	0.0003124
3490	0.0002475
3502	0.000264
3514	0.000264
3526	0.000187
3538	0.0001375
3550	4.62e-05
3562	7.04e-05
3574	6.82e-05
3586	4.95e-05
3598	5.5e-05
3610	2.75e-05
3622	4.07e-05
3634	7.15e-05
3646	5.94e-05
3658	7.15e-05
3670	7.26e-05
3682	3.96e-05
3694	6.49e-05
3706	3.19e-05
3718	7.7e-05
3730	4.07e-05
3742	4.73e-05
3754	8.8e-05
3766	6.82e-05
3778	4.73e-05
3790	7.7e-05
3802	6.82e-05
3814	5.06e-05
3826	3.52e-05
3838	0.0001012
