Infrared Spectrum: Benzoic acid, 6-Furfurylamino-3-sulfamoyl-4-trifluoromethyl-
Formula: C13 H11 F3 N2 O5 S
CAS: 17642-12-5
State: SOLID (OIL MULL)
Class: COBLENTZ III
Instrument: PERKIN-ELMER 21 (GRATING)
Instrument parameters: NaCl PRISM
Sampling: TRANSMISSION
Resolution: 2
Origin: SMITH KLINE & FRENCH LABS.
1/CM	TRANSMITTANCE
647	0.5683
656	0.5749
665	0.6184
674	0.6287
683	0.6064
692	0.6782
701	0.6068
710	0.62
719	0.6702
728	0.6884
737	0.5665
746	0.3146
755	0.6827
764	0.7513
773	0.7578
782	0.7453
791	0.6218
800	0.7215
809	0.7018
818	0.7365
827	0.7418
836	0.7529
845	0.746
854	0.735
863	0.6118
872	0.5907
881	0.638
890	0.6506
899	0.5699
908	0.5279
917	0.4852
926	0.6253
935	0.6106
944	0.5096
953	0.6288
962	0.6973
971	0.6286
980	0.6926
989	0.7369
998	0.7387
1007	0.7072
1016	0.6624
1025	0.7219
1034	0.6679
1043	0.5841
1052	0.6287
1061	0.6359
1070	0.5182
1079	0.6212
1088	0.6149
1097	0.5606
1106	0.5021
1115	0.3058
1124	0.0937
1133	0.0539
1142	0.0723
1151	0.2729
1160	0.4741
1169	0.1265
1178	0.3898
1187	0.6105
1196	0.5885
1205	0.5384
1214	0.5074
1223	0.5021
1232	0.3688
1241	0.249
1250	0.3463
1259	0.2812
1268	0.3521
1277	0.4558
1286	0.3571
1295	0.2199
1304	0.5038
1313	0.4542
1322	0.2458
1331	0.2506
1340	0.4984
1349	0.5557
1358	0.5295
1367	0.5461
1376	0.5371
1385	0.7068
1394	0.7117
1403	0.6378
1412	0.6307
1421	0.6258
1430	0.3814
1439	0.3436
1448	0.3339
1457	0.2884
1466	0.2829
1475	0.5389
1484	0.6998
1493	0.6657
1502	0.6627
1511	0.7651
1520	0.7744
1529	0.7546
1538	0.707
1547	0.6441
1556	0.5088
1565	0.3231
1574	0.36
1583	0.6122
1592	0.679
1601	0.6483
1610	0.6049
1619	0.6827
1628	0.6939
1637	0.6689
1646	0.5338
1655	0.4077
1664	0.1861
1673	0.1563
1682	0.3791
1691	0.5618
1700	0.7215
1709	0.8153
1718	0.8367
1727	0.8483
1736	0.8617
1745	0.8627
1754	0.871
1763	0.8747
1772	0.8736
1781	0.8749
1790	0.8757
1799	0.8755
1808	0.8754
1817	0.8767
1826	0.8786
1835	0.8836
1844	0.887
1853	0.8893
1862	0.8902
1871	0.8908
1880	0.8915
1889	0.8921
1898	0.8922
1907	0.8924
1916	0.8929
1925	0.8936
1934	0.8943
1943	0.8944
1952	0.8944
1961	0.8942
1970	0.8886
1979	0.8887
1988	0.8922
1997	0.8907
2006	0.8856
2015	0.8857
2024	0.8831
2033	0.8816
2042	0.8816
2051	0.8816
2060	0.8817
2069	0.882
2078	0.882
2087	0.8819
2096	0.8818
2105	0.8817
2114	0.8816
2123	0.8817
2132	0.8817
2141	0.8817
2150	0.8818
2159	0.8811
2168	0.8804
2177	0.8766
2186	0.8741
2195	0.8724
2204	0.8725
2213	0.8749
2222	0.8754
2231	0.871
2240	0.8647
2249	0.8618
2258	0.8615
2267	0.8614
2276	0.8612
2285	0.8588
2294	0.8511
2303	0.8446
2312	0.8414
2321	0.8398
2330	0.8389
2339	0.8383
2348	0.8376
2357	0.8368
2366	0.8351
2375	0.8289
2384	0.8124
2393	0.7991
2402	0.7885
2411	0.7789
2420	0.7719
2429	0.7696
2438	0.7694
2447	0.7685
2456	0.7636
2465	0.7586
2474	0.757
2483	0.7492
2492	0.7453
2501	0.7391
2510	0.7309
2519	0.7274
2528	0.7268
2537	0.725
2546	0.7182
2555	0.7122
2564	0.7076
2573	0.7036
2582	0.7019
2591	0.7016
2600	0.7017
2609	0.7021
2618	0.7028
2627	0.7042
2636	0.7065
2645	0.7082
2654	0.7065
2663	0.7013
2672	0.6944
2681	0.6849
2690	0.6774
2699	0.6734
2708	0.6709
2717	0.6686
2726	0.6652
2735	0.6559
2744	0.6416
2753	0.6247
2762	0.6069
2771	0.5869
2780	0.4881
2789	0.3835
2798	0.2701
2807	0.1575
2816	0.0967
2825	0.095
2834	0.103
2843	0.1021
2852	0.0851
2861	0.0703
2870	0.0557
2879	0.0501
2888	0.0508
2897	0.0519
2906	0.0541
2915	0.085
2924	0.1703
2933	0.2549
2942	0.339
2951	0.4227
2960	0.5122
2969	0.5492
2978	0.5686
2987	0.5868
2996	0.5933
3005	0.5998
3014	0.6052
3023	0.6088
3032	0.6134
3041	0.6287
3050	0.6323
3059	0.6328
3068	0.6329
3077	0.6323
3086	0.6328
3095	0.6387
3104	0.6524
3113	0.6649
3122	0.6735
3131	0.6815
3140	0.6873
3149	0.6896
3158	0.6893
3167	0.6871
3176	0.6831
3185	0.6764
3194	0.6692
3203	0.6583
3212	0.6146
3221	0.5631
3230	0.5125
3239	0.5137
3248	0.5387
3257	0.5655
3266	0.5921
3275	0.6041
3284	0.5645
3293	0.5058
3302	0.4475
3311	0.3896
3320	0.3357
3329	0.3372
3338	0.3748
3347	0.4353
3356	0.4956
3365	0.5555
3374	0.615
3383	0.6743
3392	0.7135
3401	0.7529
3410	0.7725
3419	0.7856
3428	0.7961
3437	0.8011
3446	0.8048
3455	0.8085
3464	0.8118
3473	0.8136
3482	0.8153
3491	0.8171
3500	0.819
3509	0.8206
3518	0.8218
3527	0.8226
3536	0.8225
3545	0.8223
3554	0.8221
3563	0.8219
3572	0.8217
3581	0.8216
3590	0.8214
3599	0.8212
3608	0.821
3617	0.8208
3626	0.8204
3635	0.8199
3644	0.8195
3653	0.819
3662	0.8184
3671	0.8178
3680	0.8172
3689	0.8166
3698	0.8158
3707	0.8149
3716	0.8138
3725	0.8119
3734	0.81
3743	0.8081
3752	0.8062
3761	0.8046
3770	0.8034
3779	0.8023
3788	0.8014
3797	0.8009
3806	0.8003
3815	0.7998
3824	0.7993
3833	0.7987
3842	0.7981
3851	0.7975
3860	0.7969
3869	0.7963
3878	0.7954
3887	0.794
3896	0.792
3905	0.7883
3914	0.7855
3923	0.7829
3932	0.7806
3941	0.779
3950	0.7774
3959	0.7758
3968	0.7741
3977	0.7726
3986	0.7714
3995	0.7703
