Infrared Spectrum: Benzylamine, 4,4'-oxybis(N,N-diethyl-
Formula: C22 H32 N2 O
CAS: 17688-82-3
State: SOLUTION (5% CCl4 FOR 3800-1330, 5% CS2 FOR 1330-400)
Class: COBLENTZ III
Instrument: BECKMAN IR-9 (GRATING)
Instrument parameters: ORDER CHANGES: 670, 1200, 2000 CM^-^1
Sampling: TRANSMISSION
Path length: 0.021 CM, 0.021 CM
Resolution: 2
Origin: DOW CHEMICAL COMPANY
1/CM	TRANSMITTANCE
403	0.147
412	0.1216
421	0.1831
430	0.3956
439	0.5082
448	0.5943
457	0.6585
466	0.707
475	0.728
484	0.7046
493	0.663
502	0.673
511	0.7095
520	0.757
529	0.7849
538	0.7977
547	0.8397
556	0.8622
565	0.8737
574	0.8688
583	0.8428
592	0.85
601	0.8623
610	0.8541
619	0.8474
628	0.8475
637	0.8452
646	0.8004
655	0.7776
664	0.7909
673	0.8474
682	0.848
691	0.7757
700	0.8024
709	0.7717
718	0.7714
727	0.8127
736	0.8224
745	0.7004
754	0.6382
763	0.7108
772	0.6157
781	0.584
790	0.6406
799	0.6469
808	0.6044
817	0.5622
826	0.5859
835	0.4722
844	0.4565
853	0.4144
862	0.42
871	0.4833
880	0.4178
889	0.6729
898	0.7499
907	0.7574
916	0.7681
925	0.8361
934	0.841
943	0.82
952	0.8475
961	0.8218
970	0.7471
979	0.7348
988	0.7085
997	0.6752
1006	0.7615
1015	0.6553
1024	0.7855
1033	0.7634
1042	0.6251
1051	0.6564
1060	0.4186
1069	0.4306
1078	0.5246
1087	0.5241
1096	0.4552
1105	0.4738
1114	0.5691
1123	0.5299
1132	0.68
1141	0.7283
1150	0.7167
1159	0.517
1168	0.2613
1177	0.5433
1186	0.628
1195	0.4295
1204	0.2918
1213	0.3669
1222	0.3272
1231	0.103
1240	0.0117
1249	0.0899
1258	0.2932
1267	0.4517
1276	0.4757
1285	0.4982
1294	0.4425
1303	0.5316
1312	0.5629
1321	0.6398
1330	0.6482
1339	0.5638
1348	0.4839
1357	0.4187
1366	0.3708
1375	0.2897
1384	0.2084
1393	0.5482
1402	0.6982
1411	0.7276
1420	0.6744
1429	0.7047
1438	0.5586
1447	0.332
1456	0.2449
1465	0.3477
1474	0.2953
1483	0.1096
1492	0.0613
1501	0.0018
1510	0.1453
1519	0.3428
1528	0.3698
1537	0.3024
1546	0.2196
1555	0.2077
1564	0.2742
1573	0.3432
1582	0.2924
1591	0.2564
1600	0.2846
1609	0.4531
1618	0.6542
1627	0.7606
1636	0.7878
1645	0.8022
1654	0.8063
1663	0.8243
1672	0.83
1681	0.8316
1690	0.8444
1699	0.8489
1708	0.8478
1717	0.8624
1726	0.8701
1735	0.8726
1744	0.872
1753	0.872
1762	0.8684
1771	0.8616
1780	0.8596
1789	0.8692
1798	0.8719
1807	0.87
1816	0.8688
1825	0.8671
1834	0.8648
1843	0.8613
1852	0.8601
1861	0.8572
1870	0.8544
1879	0.8456
1888	0.8211
1897	0.8199
1906	0.8494
1915	0.8635
1924	0.8682
1933	0.8669
1942	0.8617
1951	0.8601
1960	0.863
1969	0.8626
1978	0.853
1987	0.8501
1996	0.8326
2005	0.8567
2014	0.8636
2023	0.8683
2032	0.8711
2041	0.8734
2050	0.8764
2059	0.878
2068	0.8717
2077	0.8692
2086	0.875
2095	0.8816
2104	0.8881
2113	0.8923
2122	0.8967
2131	0.9003
2140	0.9015
2149	0.9018
2158	0.9017
2167	0.9015
2176	0.9009
2185	0.9003
2194	0.8996
2203	0.8992
2212	0.8989
2221	0.8984
2230	0.8966
2239	0.8913
2248	0.8834
2257	0.8721
2266	0.8631
2275	0.8552
2284	0.8501
2293	0.8491
2302	0.8492
2311	0.8499
2320	0.8509
2329	0.852
2338	0.854
2347	0.8574
2356	0.8606
2365	0.8618
2374	0.8628
2383	0.8656
2392	0.8691
2401	0.8682
2410	0.8672
2419	0.8633
2428	0.8557
2437	0.8519
2446	0.8571
2455	0.8681
2464	0.8774
2473	0.8833
2482	0.8856
2491	0.8854
2500	0.8849
2509	0.8835
2518	0.882
2527	0.8803
2536	0.8769
2545	0.8722
2554	0.8662
2563	0.8579
2572	0.8502
2581	0.8477
2590	0.849
2599	0.8518
2608	0.8501
2617	0.8445
2626	0.8366
2635	0.8246
2644	0.8111
2653	0.8007
2662	0.7934
2671	0.7813
2680	0.7681
2689	0.7534
2698	0.7134
2707	0.6497
2716	0.6198
2725	0.5992
2734	0.617
2743	0.613
2752	0.5179
2761	0.498
2770	0.464
2779	0.3805
2788	0.2793
2797	0.1425
2806	0.1275
2815	0.1364
2824	0.1944
2833	0.2817
2842	0.369
2851	0.4563
2860	0.5036
2869	0.3693
2878	0.2972
2887	0.4068
2896	0.3791
2905	0.3672
2914	0.3688
2923	0.2824
2932	0.1917
2941	0.1902
2950	0.2821
2959	0.1011
2968	0.0222
2977	0.0168
2986	0.243
2995	0.4363
3004	0.571
3013	0.6792
3022	0.6867
3031	0.6542
3040	0.6194
3049	0.7007
3058	0.7155
3067	0.7092
3076	0.7374
3085	0.775
3094	0.7972
3103	0.8161
3112	0.8325
3121	0.8453
3130	0.8554
3139	0.8605
3148	0.8635
3157	0.8648
3166	0.8652
3175	0.8638
3184	0.8642
3193	0.8654
3202	0.8686
3211	0.8718
3220	0.8757
3229	0.8797
3238	0.8847
3247	0.8881
3256	0.8891
3265	0.89
3274	0.8901
3283	0.8901
3292	0.8901
3301	0.8901
3310	0.8902
3319	0.8902
3328	0.8903
3337	0.8904
3346	0.8905
3355	0.8906
3364	0.8906
3373	0.8904
3382	0.8902
3391	0.8899
3400	0.8894
3409	0.8888
3418	0.8883
3427	0.8877
3436	0.8873
3445	0.8876
3454	0.8878
3463	0.8882
3472	0.8891
3481	0.89
3490	0.891
3499	0.8919
3508	0.8933
3517	0.895
3526	0.8967
3535	0.8974
3544	0.8982
3553	0.8987
3562	0.8988
3571	0.897
3580	0.8933
3589	0.8779
3598	0.8888
3607	0.8972
3616	0.8986
3625	0.8988
3634	0.899
3643	0.899
3652	0.8985
3661	0.8977
3670	0.8953
3679	0.8907
3688	0.8888
3697	0.8902
3706	0.8917
3715	0.8936
3724	0.8943
3733	0.8946
3742	0.8949
3751	0.8948
3760	0.8946
3769	0.8949
3778	0.8953
3787	0.8953
3796	0.8952
