Infrared Spectrum: Alpha-Cubebene
Formula: C15 H24
CAS: 17699-14-8
State: SOLUTION (20% CCl4 FOR 4000-1300, 20% CS2 FOR 1300-480 CM^-^1) VS SOLVENT
Class: COBLENTZ III
Instrument: CARY 90 (GRATING)
Instrument parameters: GRATING CHANGES: 3000, 2000, 1200 CM^-^1
Sampling: TRANSMISSION
Path length: 0.010 CM, AND 0.010 CM
Resolution: 2
Origin: WESTERN REGIONAL RES. USDA
1/CM	TRANSMITTANCE
481	0.819
490	0.8028
499	0.7909
508	0.8473
517	0.8713
526	0.8768
535	0.8535
544	0.8764
553	0.8975
562	0.8913
571	0.9094
580	0.8827
589	0.8951
598	0.8756
607	0.8432
616	0.8615
625	0.9004
634	0.8985
643	0.9077
652	0.9211
661	0.9183
670	0.9184
679	0.9196
688	0.9207
697	0.9215
706	0.9213
715	0.917
724	0.9062
733	0.7707
742	0.8707
751	0.9061
760	0.8781
769	0.7891
778	0.1774
787	0.5987
796	0.8562
805	0.8124
814	0.8307
823	0.4539
832	0.7925
841	0.798
850	0.9205
859	0.913
868	0.908
877	0.8592
886	0.9089
895	0.9172
904	0.8424
913	0.8375
922	0.7832
931	0.4154
940	0.815
949	0.8498
958	0.8521
967	0.8212
976	0.7119
985	0.7759
994	0.7703
1003	0.7371
1012	0.7232
1021	0.6155
1030	0.5811
1039	0.6874
1048	0.7325
1057	0.8057
1066	0.7515
1075	0.8621
1084	0.8208
1093	0.7541
1102	0.7423
1111	0.8343
1120	0.7864
1129	0.8543
1138	0.8317
1147	0.7638
1156	0.6694
1165	0.6779
1174	0.7206
1183	0.7283
1192	0.8522
1201	0.7287
1210	0.7259
1219	0.8008
1228	0.7758
1237	0.8089
1246	0.8071
1255	0.7405
1264	0.7525
1273	0.712
1282	0.7518
1291	0.6513
1300	0.6735
1309	0.5829
1318	0.4594
1327	0.5957
1336	0.6512
1345	0.717
1354	0.6843
1363	0.4752
1372	0.2768
1381	0.4396
1390	0.5787
1399	0.6854
1408	0.7354
1417	0.7267
1426	0.6858
1435	0.3703
1444	0.2027
1453	0.2238
1462	0.2169
1471	0.4505
1480	0.6499
1489	0.7589
1498	0.7835
1507	0.7924
1516	0.7953
1525	0.7967
1534	0.797
1543	0.7868
1552	0.7717
1561	0.7924
1570	0.7985
1579	0.7989
1588	0.8084
1597	0.8067
1606	0.7975
1615	0.7974
1624	0.7942
1633	0.767
1642	0.5597
1651	0.7797
1660	0.8056
1669	0.8082
1678	0.8093
1687	0.8093
1696	0.8094
1705	0.8077
1714	0.8047
1723	0.8118
1732	0.819
1741	0.821
1750	0.8198
1759	0.8196
1768	0.822
1777	0.8231
1786	0.8229
1795	0.8235
1804	0.8246
1813	0.8272
1822	0.8298
1831	0.8315
1840	0.8323
1849	0.8315
1858	0.8301
1867	0.8305
1876	0.8311
1885	0.8319
1894	0.833
1903	0.8341
1912	0.8338
1921	0.8332
1930	0.8319
1939	0.8307
1948	0.8307
1957	0.8326
1966	0.8353
1975	0.8375
1984	0.8399
1993	0.8445
2002	0.8218
2011	0.8226
2020	0.8227
2029	0.823
2038	0.8242
2047	0.8254
2056	0.8268
2065	0.8278
2074	0.8287
2083	0.8298
2092	0.8308
2101	0.8317
2110	0.8326
2119	0.8332
2128	0.8333
2137	0.8334
2146	0.8332
2155	0.8328
2164	0.8326
2173	0.8327
2182	0.8333
2191	0.8339
2200	0.8345
2209	0.8348
2218	0.8351
2227	0.8354
2236	0.8359
2245	0.8361
2254	0.8359
2263	0.8358
2272	0.8358
2281	0.8357
2290	0.8364
2299	0.8369
2308	0.837
2317	0.837
2326	0.8368
2335	0.8366
2344	0.8367
2353	0.8367
2362	0.8363
2371	0.8358
2380	0.8363
2389	0.8375
2398	0.8387
2407	0.8408
2416	0.842
2425	0.8426
2434	0.8432
2443	0.8429
2452	0.8418
2461	0.8408
2470	0.8409
2479	0.8412
2488	0.8444
2497	0.8453
2506	0.8457
2515	0.8452
2524	0.8447
2533	0.8442
2542	0.8434
2551	0.8419
2560	0.8397
2569	0.8317
2578	0.815
2587	0.811
2596	0.8141
2605	0.8216
2614	0.8216
2623	0.8207
2632	0.8199
2641	0.818
2650	0.8166
2659	0.8157
2668	0.8147
2677	0.8137
2686	0.8133
2695	0.813
2704	0.8121
2713	0.8066
2722	0.7804
2731	0.758
2740	0.7716
2749	0.8148
2758	0.8152
2767	0.8006
2776	0.7909
2785	0.7792
2794	0.7605
2803	0.7132
2812	0.6259
2821	0.5551
2830	0.377
2839	0.1442
2848	0.0485
2857	0.044
2866	0.0543
2875	0.0282
2884	0.0479
2893	0.0602
2902	0.0489
2911	0.021
2920	0.0137
2929	0.0116
2938	0.0295
2947	0.0343
2956	0.0072
2965	0.0082
2974	0.1153
2983	0.2313
2992	0.3327
3001	0.2778
3010	0.4007
3019	0.581
3028	0.665
3037	0.5582
3046	0.4607
3055	0.5642
3064	0.7335
3073	0.7932
3082	0.8112
3091	0.8229
3100	0.8303
3109	0.8361
3118	0.8393
3127	0.8409
3136	0.842
3145	0.843
3154	0.844
3163	0.8447
3172	0.8456
3181	0.8468
3190	0.8494
3199	0.8548
3208	0.8611
3217	0.8674
3226	0.8719
3235	0.8765
3244	0.8798
3253	0.8827
3262	0.8834
3271	0.8841
3280	0.8848
3289	0.8853
3298	0.8859
3307	0.8872
3316	0.8885
3325	0.8898
3334	0.8912
3343	0.8922
3352	0.8929
3361	0.8934
3370	0.8941
3379	0.8947
3388	0.8953
3397	0.8958
3406	0.8964
3415	0.8968
3424	0.8974
3433	0.8978
3442	0.8983
3451	0.8987
3460	0.8992
3469	0.8996
3478	0.9
3487	0.9004
3496	0.9009
3505	0.901
3514	0.901
3523	0.901
3532	0.901
3541	0.901
3550	0.901
3559	0.901
3568	0.9007
3577	0.9003
3586	0.9001
3595	0.8997
3604	0.8994
3613	0.8991
3622	0.8987
3631	0.8983
3640	0.8979
3649	0.8975
3658	0.8972
3667	0.8967
3676	0.8964
3685	0.8962
3694	0.8963
3703	0.8964
3712	0.8965
3721	0.8966
3730	0.8967
3739	0.8968
3748	0.8968
3757	0.8966
3766	0.8965
3775	0.8964
3784	0.8962
3793	0.8961
3802	0.896
3811	0.8958
3820	0.8957
3829	0.8954
3838	0.8949
3847	0.8944
3856	0.894
3865	0.8934
3874	0.893
3883	0.8925
3892	0.8922
3901	0.8919
3910	0.8916
3919	0.8913
3928	0.8911
3937	0.891
3946	0.8913
3955	0.8914
3964	0.8915
3973	0.8913
3982	0.8911
3991	0.8908
4000	0.8906
