Infrared Spectrum: N,N-Dimethylcyclopropanecarboxamide
Formula: C 6 H 11 N O
CAS: 17696-23-0
State: gas
Origin: EPA-IR VAPOR PHASE LIBRARY
1/CM	ABSORBANCE
549.8	0.0003312
559.445	0.0009354
569.09	0.0005099
578.734	0.001387
588.379	0.001597
598.024	0.002057
607.669	0.001417
617.313	0.0007139
626.958	0.0007097
636.603	0.0003453
646.248	0.0003232
655.893	0.0001645
665.537	0.0002943
675.182	0.0003131
684.827	0.0002972
694.472	0.0005449
704.116	0.0008921
713.761	0.001267
723.406	0.001787
733.051	0.002497
742.695	0.002287
752.34	0.001617
761.985	0.001507
771.63	0.003117
781.275	0.005427
790.919	0.005327
800.564	0.003447
810.209	0.002877
819.854	0.003007
829.498	0.002987
839.143	0.002057
848.788	0.001457
858.433	0.001607
868.078	0.002067
877.722	0.002167
887.367	0.002467
897.012	0.002237
906.657	0.003317
916.301	0.006917
925.946	0.010507
935.591	0.009447
945.236	0.006527
954.88	0.003637
964.525	0.002227
974.17	0.001817
983.815	0.001557
993.46	0.001677
1003.1	0.002017
1012.75	0.002607
1022.39	0.003677
1032.04	0.004107
1041.68	0.003887
1051.33	0.005217
1060.97	0.008327
1070.62	0.011647
1080.26	0.012807
1089.91	0.014707
1099.55	0.014877
1109.2	0.015297
1118.84	0.025737
1128.49	0.040437
1138.13	0.036337
1147.78	0.016127
1157.42	0.006247
1167.07	0.004597
1176.71	0.004667
1186.36	0.005917
1196	0.008837
1205.64	0.011497
1215.29	0.015177
1224.93	0.020547
1234.58	0.028367
1244.22	0.050807
1253.87	0.059707
1263.51	0.035877
1273.16	0.013557
1282.8	0.007687
1292.45	0.006977
1302.09	0.008637
1311.74	0.008447
1321.38	0.006727
1331.03	0.006877
1340.67	0.010457
1350.32	0.015737
1359.96	0.020707
1369.61	0.023017
1379.25	0.025977
1388.9	0.025127
1398.54	0.021067
1408.18	0.028597
1417.83	0.049777
1427.47	0.064637
1437.12	0.052227
1446.76	0.035747
1456.41	0.034317
1466.05	0.031837
1475.7	0.028817
1485.34	0.022847
1494.99	0.012567
1504.63	0.007677
1514.28	0.006087
1523.92	0.005197
1533.57	0.004217
1543.21	0.003377
1552.86	0.002927
1562.5	0.002847
1572.15	0.002767
1581.79	0.003127
1591.44	0.003667
1601.08	0.004457
1610.73	0.005537
1620.37	0.007387
1630.01	0.010037
1639.66	0.014797
1649.3	0.031017
1658.95	0.079917
1668.59	0.117377
1678.24	0.086857
1687.88	0.024537
1697.53	0.008267
1707.17	0.005297
1716.82	0.004077
1726.46	0.003487
1736.11	0.003417
1745.75	0.002937
1755.4	0.002307
1765.04	0.001857
1774.69	0.001667
1784.33	0.001587
1793.98	0.001457
1803.62	0.001327
1813.27	0.0011328
1822.91	0.0011325
1832.55	0.0011436
1842.2	0.001277
1851.84	0.001207
1861.49	0.0010811
1871.13	0.0009928
1880.78	0.0010385
1890.42	0.0010311
1900.07	0.0009427
1909.71	0.0009175
1919.36	0.0009943
1929	0.0009427
1938.65	0.0008514
1948.29	0.0008806
1957.94	0.0009219
1967.58	0.0007575
1977.23	0.0007537
1986.87	0.0006457
1996.52	0.0006121
2006.16	0.0006079
2015.81	0.0005438
2025.45	0.0005708
2035.1	0.0005525
2044.74	0.0005272
2054.38	0.0006265
2064.03	0.0007544
2073.67	0.0008969
2083.32	0.0010286
2092.96	0.0009792
2102.61	0.0008676
2112.25	0.0007295
2121.9	0.0007714
2131.54	0.0008147
2141.19	0.0007877
2150.83	0.0006274
2160.48	0.0007161
2170.12	0.0006596
2179.77	0.0007256
2189.41	0.0006508
2199.06	0.0005758
2208.7	0.0005781
2218.35	0.0005645
2227.99	0.0006405
2237.64	0.0007059
2247.28	0.0005824
2256.92	0.0005458
2266.57	0.0004838
2276.21	0.0005614
2285.86	0.0003866
2295.5	0.0004702
2305.15	0.0004906
2314.79	0.0005444
2324.44	0.0004233
2334.08	0.0004645
2343.73	0.0003763
2353.37	0.0005676
2363.02	0.0008043
2372.66	0.0006456
2382.31	0.0007509
2391.95	0.0006963
2401.6	0.0007703
2411.24	0.0005941
2420.89	0.0005572
2430.53	0.0005308
2440.18	0.0006689
2449.82	0.0008174
2459.47	0.0006849
2469.11	0.0008913
2478.75	0.000852
2488.4	0.0007494
2498.04	0.000739
2507.69	0.0006894
2517.33	0.0006083
2526.98	0.00059
2536.62	0.0005246
2546.27	0.0005266
2555.91	0.0004492
2565.56	0.0004937
2575.2	0.000556
2584.85	0.0004945
2594.49	0.0004895
2604.14	0.0005519
2613.78	0.0005702
2623.43	0.000419
2633.07	0.0005033
2642.72	0.0006272
2652.36	0.0006248
2662.01	0.0006561
2671.65	0.0007541
2681.29	0.0009108
2690.94	0.0009937
2700.58	0.000938
2710.23	0.000964
2719.87	0.0009597
2729.52	0.001009
2739.16	0.0011602
2748.81	0.0011685
2758.45	0.0011474
2768.1	0.001181
2777.74	0.001091
2787.39	0.001577
2797.03	0.001757
2806.68	0.001937
2816.32	0.002377
2825.97	0.002777
2835.61	0.003337
2845.26	0.004007
2854.9	0.005257
2864.55	0.007527
2874.19	0.011547
2883.84	0.015457
2893.48	0.016207
2903.12	0.016117
2912.77	0.016207
2922.41	0.018547
2932.06	0.024707
2941.7	0.028567
2951.35	0.024497
2960.99	0.023257
2970.64	0.032387
2980.28	0.041737
2989.93	0.036347
2999.57	0.023617
3009.22	0.018707
3018.86	0.019387
3028.51	0.013967
3038.15	0.007617
3047.8	0.005907
3057.44	0.005507
3067.09	0.004977
3076.73	0.004607
3086.38	0.004737
3096.02	0.005967
3105.67	0.005337
3115.31	0.003017
3124.95	0.002097
3134.6	0.001737
3144.24	0.001447
3153.89	0.001197
3163.53	0.0010667
3173.18	0.0009433
3182.82	0.0007612
3192.47	0.0008386
3202.11	0.000604
3211.76	0.0006025
3221.4	0.000433
3231.05	0.0003999
3240.69	0.0004967
3250.34	0.0001022
3259.98	0.0003909
3269.63	0.0005775
3279.27	0.0005479
3288.92	0.0005685
3298.56	0.000605
3308.21	0.0011511
3317.85	0.001217
3327.49	0.001307
3337.14	0.0010139
3346.78	0.0007018
3356.43	0.0006291
3366.07	0.000511
3375.72	0.0003498
3385.36	0.0005383
3395.01	0.0003424
3404.65	0.0003943
3414.3	0.000467
3423.94	0.00022146
3433.59	0.00023289
3443.23	7.7e-05
3452.88	0.0003369
3462.52	0.00022962
3472.17	0.0004582
3481.81	0.00023499
3491.46	0.000276
3501.1	0.0003497
3510.75	0.0004251
3520.39	0.0001635
3530.04	0.0003819
3539.68	0.0001031
3549.32	0.00022688
3558.97	0.000192896
3568.61	0.000168
3578.26	0.0001269
3587.9	0.000188044
3597.55	0.00021942
3607.19	0.00027976
3616.84	0.0003042
3626.48	0.000188409
3636.13	0.00017914
3645.77	0.0002925
3655.42	0.0004269
3665.06	0.000394
3674.71	0.0003996
3684.35	0.00018409
3694	0.000186881
3703.64	0.0004241
3713.29	0.0003097
3722.93	0.0001585
3732.58	0.0001506
3742.22	0.0003637
3751.86	0.0003148
3761.51	0.0003232
3771.15	0.00028221
3780.8	0.0003546
3790.44	0.00022592
3800.09	0.0004313
3809.73	0.0003359
3819.38	0.0003646
3829.02	0.00024873
3838.67	0.00024072
3848.31	0.000192634
3857.96	0.0005151
3867.6	0.00024426
3877.25	8.96e-05
3886.89	0.0004218
3896.54	0.0001443
3906.18	0.0003193
3915.83	0.0004335
3925.47	0.000544
3935.12	6.3e-05
3944.76	0.0001607
3954.41	0.0001759
3964.05	0.0007015
3973.69	0.00025807
3983.34	0.0003303
3992.98	0.0003266
