Infrared Spectrum: 1,4,5,8-DIMETHANOANTHRACENE-9,10-DIOL-1,4,5,8-TETRAHYDRO
Formula: C16 H14 O2
CAS: 17694-16-5
State: SOLID (NUJOL MULL)
Class: COBLENTZ
Instrument: Not specified, most likely a prism, grating, or hybrid spectrometer.
Sampling: TRANSMISSION
Resolution: 4
Origin: TENNESSEE EASTMAN COMPANY, RESEARCH LABORATORIES
MICROMETERS	TRANSMITTANCE
2.064	0.733
2.10384	0.736
2.14368	0.743
2.18352	0.748
2.22336	0.748
2.2632	0.75
2.30304	0.748
2.34288	0.75
2.38272	0.75
2.42256	0.751
2.4624	0.758
2.50224	0.77
2.54208	0.778
2.58192	0.791
2.62176	0.783
2.6616	0.781
2.70144	0.786
2.74128	0.8
2.78112	0.791
2.82096	0.788
2.8608	0.773
2.90064	0.685
2.94048	0.603
2.98032	0.493
3.02016	0.401
3.06	0.383
3.09984	0.425
3.13968	0.521
3.17952	0.596
3.21936	0.658
3.2592	0.671
3.29904	0.698
3.33888	0.41
3.37872	0.131
3.41856	0.091
3.4584	0.27
3.49824	0.283
3.53808	0.68
3.57792	0.745
3.61776	0.77
3.6576	0.77
3.69744	0.77
3.73728	0.776
3.77712	0.78
3.81695	0.78
3.85679	0.781
3.89663	0.781
3.93647	0.781
3.97631	0.788
4.01615	0.79
4.05599	0.8
4.09583	0.798
4.13567	0.805
4.17551	0.81
4.21535	0.808
4.25519	0.81
4.29503	0.81
4.33487	0.81
4.37471	0.806
4.41455	0.815
4.45439	0.818
4.49423	0.818
4.53407	0.821
4.57391	0.821
4.61375	0.823
4.65359	0.826
4.69343	0.828
4.73327	0.826
4.77311	0.828
4.81295	0.831
4.85279	0.83
4.89263	0.825
4.93247	0.826
4.97231	0.825
5.01215	0.835
5.05199	0.831
5.09183	0.831
5.13167	0.831
5.17151	0.828
5.21135	0.833
5.25119	0.83
5.29103	0.83
5.33087	0.838
5.37071	0.826
5.41055	0.835
5.45039	0.833
5.49023	0.826
5.53007	0.833
5.56991	0.835
5.60975	0.833
5.64959	0.833
5.68943	0.831
5.72927	0.83
5.76911	0.82
5.80895	0.846
5.84879	0.83
5.88863	0.828
5.92847	0.83
5.96831	0.825
6.00815	0.81
6.04799	0.831
6.08783	0.81
6.12767	0.811
6.16751	0.816
6.20735	0.813
6.24719	0.815
6.28703	0.818
6.32687	0.83
6.36671	0.783
6.40655	0.766
6.44639	0.821
6.48623	0.8
6.52607	0.808
6.56591	0.791
6.60575	0.778
6.64559	0.675
6.68543	0.511
6.72527	0.52
6.76511	0.52
6.80495	0.45
6.84479	0.421
6.88463	0.391
6.92447	0.396
6.96431	0.346
7.00415	0.456
7.04399	0.57
7.08383	0.68
7.12367	0.701
7.16351	0.711
7.20335	0.663
7.24319	0.6
7.28303	0.62
7.32286	0.67
7.3627	0.713
7.40254	0.728
7.44238	0.726
7.48222	0.651
7.52206	0.713
7.5619	0.738
7.60174	0.738
7.64158	0.506
7.68142	0.336
7.72126	0.596
7.7611	0.67
7.80094	0.681
7.84078	0.675
7.88062	0.631
7.92046	0.53
7.9603	0.385
8.00014	0.255
8.03998	0.278
8.07982	0.261
8.11966	0.418
8.1595	0.45
8.19934	0.56
8.23918	0.623
8.27902	0.665
8.31886	0.638
8.3587	0.431
8.39854	0.311
8.43838	0.485
8.47822	0.635
8.51806	0.661
8.5579	0.696
8.59774	0.728
8.63758	0.735
8.67742	0.745
8.71726	0.741
8.7571	0.695
8.79694	0.706
8.83678	0.74
8.87662	0.748
8.91646	0.728
8.9563	0.7
8.99614	0.641
9.03598	0.716
9.07582	0.755
9.11566	0.766
9.1555	0.743
9.19534	0.75
9.23518	0.768
9.27502	0.781
9.31486	0.786
9.3547	0.793
9.39454	0.795
9.43438	0.793
9.47422	0.793
9.51406	0.795
9.5539	0.793
9.59374	0.795
9.63358	0.8
9.67342	0.801
9.71326	0.8
9.7531	0.8
9.79294	0.771
9.83278	0.756
9.87262	0.765
9.91246	0.79
9.9523	0.801
9.99214	0.801
10.032	0.805
10.0718	0.801
10.1117	0.803
10.1515	0.805
10.1913	0.805
10.2312	0.803
10.271	0.795
10.3109	0.795
10.3507	0.8
10.3905	0.793
10.4304	0.775
10.4702	0.696
10.5101	0.596
10.5499	0.656
10.5897	0.685
10.6296	0.66
10.6694	0.666
10.7093	0.731
10.7491	0.756
10.7889	0.793
10.8288	0.805
10.8686	0.815
10.9085	0.815
10.9483	0.815
10.9881	0.813
11.028	0.798
11.0678	0.75
11.1077	0.686
11.1475	0.686
11.1873	0.731
11.2272	0.763
11.267	0.783
11.3069	0.773
11.3467	0.751
11.3865	0.745
11.4264	0.703
11.4662	0.645
11.5061	0.653
11.5459	0.693
11.5857	0.755
11.6256	0.786
11.6654	0.801
11.7053	0.806
11.7451	0.813
11.7849	0.813
11.8248	0.818
11.8646	0.818
11.9045	0.818
11.9443	0.815
11.9841	0.813
12.024	0.815
12.0638	0.813
12.1037	0.813
12.1435	0.806
12.1833	0.796
12.2232	0.766
12.263	0.703
12.3029	0.72
12.3427	0.756
12.3825	0.783
12.4224	0.771
12.4622	0.688
12.5021	0.603
12.5419	0.641
12.5817	0.738
12.6216	0.77
12.6614	0.79
12.7012	0.79
12.7411	0.793
12.7809	0.795
12.8208	0.793
12.8606	0.788
12.9004	0.791
12.9403	0.791
12.9801	0.791
13.02	0.79
13.0598	0.776
13.0996	0.751
13.1395	0.725
13.1793	0.731
13.2192	0.758
13.259	0.765
13.2988	0.771
13.3387	0.77
13.3785	0.765
13.4184	0.751
13.4582	0.743
13.498	0.74
13.5379	0.725
13.5777	0.705
13.6176	0.691
13.6574	0.681
13.6972	0.678
13.7371	0.668
13.7769	0.653
13.8168	0.626
13.8566	0.583
13.8964	0.561
13.9363	0.516
13.9761	0.5
14.016	0.486
14.0558	0.476
14.0956	0.473
14.1355	0.471
14.1753	0.478
14.2152	0.498
14.255	0.531
14.2948	0.581
14.3347	0.626
14.3745	0.673
14.4144	0.693
14.4542	0.736
14.494	0.745
14.5339	0.755
14.5737	0.761
14.6136	0.766
14.6534	0.765
14.6932	0.766
14.7331	0.771
14.7729	0.771
14.8128	0.771
14.8526	0.771
14.8924	0.77
14.9323	0.77
14.9721	0.771
15.012	0.771
15.0518	0.77
15.0916	0.77
15.1315	0.765
15.1713	0.763
15.2112	0.76
15.251	0.756
15.2908	0.755
15.3307	0.753
15.3705	0.75
15.4104	0.751
15.4502	0.751
15.49	0.75
15.5299	0.75
15.5697	0.746
15.6096	0.748
15.6494	0.748
15.6892	0.748
15.7291	0.745
15.7689	0.743
15.8088	0.746
15.8486	0.745
15.8884	0.745
15.9283	0.746
15.9681	0.745
16.008	0.746
