Infrared Spectrum: N-VANILLYLIDENE ANILINE
Formula: C14 H13 N O2
CAS: 17696-53-6
State: SOLID (MINERAL OIL MULL)
Class: COBLENTZ
Instrument: Not specified, most likely a prism, grating, or hybrid spectrometer.
Sampling: TRANSMISSION
Resolution: 4
Origin: DOW CHEMICAL COMPANY
MICROMETERS	TRANSMITTANCE
2.027	0.502
2.0677	0.502
2.10839	0.512
2.14909	0.522
2.18979	0.532
2.23049	0.541
2.27118	0.543
2.31188	0.553
2.35258	0.568
2.39327	0.58
2.43397	0.59
2.47467	0.602
2.51537	0.613
2.55606	0.62
2.59676	0.632
2.63746	0.649
2.67815	0.654
2.71885	0.664
2.75955	0.666
2.80025	0.662
2.84094	0.661
2.88164	0.652
2.92234	0.632
2.96303	0.602
3.00373	0.571
3.04443	0.551
3.08512	0.531
3.12582	0.51
3.16652	0.5
3.20722	0.49
3.24791	0.48
3.28861	0.477
3.32931	0.397
3.37	0.097
3.4107	0.064
3.4514	0.151
3.4921	0.259
3.53279	0.591
3.57349	0.652
3.61419	0.671
3.65488	0.674
3.69558	0.693
3.73628	0.701
3.77698	0.718
3.81767	0.738
3.85837	0.748
3.89907	0.76
3.93976	0.77
3.98046	0.787
4.02116	0.795
4.06186	0.801
4.10255	0.811
4.14325	0.819
4.18395	0.817
4.22464	0.824
4.26534	0.829
4.30604	0.843
4.34674	0.853
4.38743	0.861
4.42813	0.863
4.46883	0.87
4.50952	0.87
4.55022	0.871
4.59092	0.873
4.63161	0.876
4.67231	0.878
4.71301	0.878
4.75371	0.88
4.7944	0.88
4.8351	0.885
4.8758	0.887
4.91649	0.892
4.95719	0.898
4.99789	0.9
5.03859	0.902
5.07928	0.9
5.11998	0.897
5.16068	0.9
5.20137	0.907
5.24207	0.91
5.28277	0.912
5.32347	0.907
5.36416	0.898
5.40486	0.91
5.44556	0.92
5.48625	0.92
5.52695	0.92
5.56765	0.92
5.60835	0.924
5.64904	0.924
5.68974	0.915
5.73044	0.908
5.77113	0.919
5.81183	0.913
5.85253	0.907
5.89323	0.9
5.93392	0.888
5.97462	0.86
6.01532	0.849
6.05601	0.885
6.09671	0.821
6.13741	0.64
6.17811	0.669
6.2188	0.51
6.2595	0.259
6.3002	0.29
6.34089	0.689
6.38159	0.779
6.42229	0.819
6.46298	0.817
6.50368	0.789
6.54438	0.5
6.58508	0.197
6.62577	0.554
6.66647	0.618
6.70717	0.629
6.74786	0.607
6.78856	0.33
6.82926	0.283
6.86996	0.477
6.91065	0.51
6.95135	0.332
6.99205	0.43
7.03274	0.741
7.07344	0.763
7.11414	0.752
7.15484	0.661
7.19553	0.591
7.23623	0.573
7.27693	0.681
7.31762	0.699
7.35832	0.699
7.39902	0.762
7.43972	0.775
7.48041	0.78
7.52111	0.799
7.56181	0.779
7.6025	0.701
7.6432	0.436
7.6839	0.3
7.7246	0.22
7.76529	0.21
7.80599	0.413
7.84669	0.546
7.88738	0.526
7.92808	0.49
7.96878	0.635
8.00948	0.72
8.05017	0.77
8.09087	0.76
8.13157	0.721
8.17226	0.622
8.21296	0.5
8.25366	0.48
8.29435	0.563
8.33505	0.6
8.37575	0.564
8.41645	0.424
8.45714	0.355
8.49784	0.252
8.53854	0.219
8.57923	0.197
8.61993	0.284
8.66063	0.404
8.70133	0.529
8.74202	0.61
8.78272	0.65
8.82342	0.669
8.86411	0.65
8.90481	0.6
8.94551	0.63
8.98621	0.716
9.0269	0.76
9.0676	0.774
9.1083	0.79
9.14899	0.799
9.18969	0.799
9.23039	0.772
9.27109	0.77
9.31178	0.799
9.35248	0.809
9.39318	0.821
9.43387	0.826
9.47457	0.829
9.51527	0.831
9.55597	0.831
9.59666	0.79
9.63736	0.618
9.67806	0.543
9.71875	0.644
9.75945	0.758
9.80015	0.811
9.84084	0.841
9.88154	0.861
9.92224	0.871
9.96294	0.871
10.0036	0.878
10.0443	0.888
10.085	0.892
10.1257	0.878
10.1664	0.833
10.2071	0.812
10.2478	0.821
10.2885	0.797
10.3292	0.829
10.3699	0.875
10.4106	0.892
10.4513	0.9
10.492	0.908
10.5327	0.913
10.5734	0.915
10.6141	0.908
10.6548	0.902
10.6955	0.888
10.7362	0.866
10.7769	0.88
10.8176	0.893
10.8583	0.892
10.899	0.881
10.9397	0.868
10.9804	0.841
11.0211	0.801
11.0618	0.814
11.1025	0.843
11.1432	0.848
11.1838	0.831
11.2245	0.804
11.2652	0.758
11.3059	0.671
11.3466	0.553
11.3873	0.504
11.428	0.593
11.4687	0.723
11.5094	0.757
11.5501	0.743
11.5908	0.721
11.6315	0.731
11.6722	0.772
11.7129	0.802
11.7536	0.824
11.7943	0.833
11.835	0.836
11.8757	0.834
11.9164	0.822
11.9571	0.811
11.9978	0.801
12.0385	0.802
12.0792	0.807
12.1199	0.77
12.1606	0.713
12.2013	0.655
12.242	0.642
12.2827	0.649
12.3234	0.645
12.3641	0.686
12.4048	0.718
12.4455	0.741
12.4862	0.752
12.5269	0.758
12.5676	0.76
12.6082	0.762
12.6489	0.762
12.6896	0.758
12.7303	0.752
12.771	0.747
12.8117	0.721
12.8524	0.677
12.8931	0.583
12.9338	0.468
12.9745	0.413
13.0152	0.502
13.0559	0.6
13.0966	0.662
13.1373	0.691
13.178	0.708
13.2187	0.713
13.2594	0.709
13.3001	0.693
13.3408	0.652
13.3815	0.598
13.4222	0.541
13.4629	0.532
13.5036	0.581
13.5443	0.639
13.585	0.664
13.6257	0.661
13.6664	0.635
13.7071	0.625
13.7478	0.639
13.7885	0.654
13.8292	0.669
13.8699	0.681
13.9106	0.691
13.9513	0.699
13.992	0.703
14.0326	0.704
14.0733	0.701
14.114	0.693
14.1547	0.672
14.1954	0.629
14.2361	0.546
14.2768	0.445
14.3175	0.345
14.3582	0.332
14.3989	0.43
14.4396	0.526
14.4803	0.588
14.521	0.618
14.5617	0.632
14.6024	0.64
14.6431	0.644
14.6838	0.64
14.7245	0.639
14.7652	0.632
14.8059	0.627
14.8466	0.62
14.8873	0.61
14.928	0.608
14.9687	0.603
15.0094	0.6
15.0501	0.593
15.0908	0.581
15.1315	0.578
15.1722	0.578
15.2129	0.571
15.2536	0.563
15.2943	0.558
15.335	0.551
15.3757	0.546
15.4163	0.537
15.457	0.527
15.4977	0.514
15.5384	0.502
15.5791	0.497
15.6198	0.489
15.6605	0.48
15.7012	0.477
15.7419	0.467
15.7826	0.456
15.8233	0.451
15.864	0.456
