Infrared Spectrum: 5,8-DIHYDRO-5,8-ETHANO-2-PHENYL-1,4-NAPHTHO-HYDROQUINONE
Formula: C18 H16 O2
CAS: 17694-11-0
State: SOLID (KBr PRESSING)
Melting point: 172-172.5 C
Class: COBLENTZ
Instrument: Not specified, most likely a prism, grating, or hybrid spectrometer.
Sampling: TRANSMISSION
Resolution: 4
Origin: EASTMAN KODAK COMPANY, RESEARCH LABORATORIES, ROCHESTER, N.Y.
MICROMETERS	TRANSMITTANCE
2.007	0.658
2.04687	0.663
2.08673	0.663
2.1266	0.666
2.16646	0.671
2.20633	0.678
2.24619	0.681
2.28606	0.681
2.32593	0.684
2.36579	0.688
2.40566	0.691
2.44552	0.692
2.48539	0.692
2.52525	0.697
2.56512	0.697
2.60498	0.699
2.64485	0.702
2.68472	0.709
2.72458	0.714
2.76445	0.715
2.80431	0.625
2.84418	0.308
2.88404	0.372
2.92391	0.302
2.96378	0.218
3.00364	0.302
3.04351	0.374
3.08337	0.441
3.12324	0.484
3.1631	0.543
3.20297	0.584
3.24284	0.61
3.2827	0.536
3.32257	0.54
3.36243	0.528
3.4023	0.422
3.44216	0.525
3.48203	0.604
3.52189	0.638
3.56176	0.704
3.60163	0.724
3.64149	0.73
3.68136	0.737
3.72122	0.745
3.76109	0.748
3.80095	0.75
3.84082	0.753
3.88069	0.756
3.92055	0.761
3.96042	0.768
4.00028	0.771
4.04015	0.778
4.08001	0.786
4.11988	0.791
4.15975	0.796
4.19961	0.799
4.23948	0.801
4.27934	0.802
4.31921	0.809
4.35907	0.827
4.39894	0.829
4.4388	0.829
4.47867	0.83
4.51854	0.842
4.5584	0.844
4.59827	0.844
4.63813	0.845
4.678	0.845
4.71786	0.847
4.75773	0.848
4.7976	0.85
4.83746	0.852
4.87733	0.852
4.91719	0.855
4.95706	0.857
4.99692	0.86
5.03679	0.863
5.07666	0.86
5.11652	0.842
5.15639	0.858
5.19625	0.87
5.23612	0.87
5.27598	0.865
5.31585	0.866
5.35571	0.875
5.39558	0.88
5.43545	0.88
5.47531	0.88
5.51518	0.878
5.55504	0.88
5.59491	0.885
5.63477	0.885
5.67464	0.876
5.71451	0.876
5.75437	0.876
5.79424	0.871
5.8341	0.858
5.87397	0.858
5.91383	0.855
5.9537	0.852
5.99357	0.855
6.03343	0.85
6.0733	0.839
6.11316	0.809
6.15303	0.778
6.19289	0.766
6.23276	0.668
6.27262	0.597
6.31249	0.771
6.35236	0.773
6.39222	0.696
6.43209	0.799
6.47195	0.858
6.51182	0.862
6.55168	0.876
6.59155	0.878
6.63142	0.835
6.67128	0.568
6.71115	0.671
6.75101	0.43
6.79088	0.305
6.83074	0.252
6.87061	0.325
6.91048	0.52
6.95034	0.587
6.99021	0.238
7.03007	0.325
7.06994	0.479
7.1098	0.651
7.14967	0.727
7.18953	0.737
7.2294	0.75
7.26927	0.743
7.30913	0.724
7.349	0.697
7.38886	0.558
7.42873	0.259
7.46859	0.33
7.50846	0.367
7.54833	0.423
7.58819	0.39
7.62806	0.459
7.66792	0.561
7.70779	0.489
7.74765	0.543
7.78752	0.413
7.82739	0.256
7.86725	0.224
7.90712	0.257
7.94698	0.269
7.98685	0.412
8.02671	0.553
8.06658	0.589
8.10644	0.412
8.14631	0.389
8.18618	0.18
8.22604	0.172
8.26591	0.33
8.30577	0.397
8.34564	0.418
8.3855	0.438
8.42537	0.446
8.46524	0.5
8.5051	0.538
8.54497	0.589
8.58483	0.62
8.6247	0.612
8.66456	0.597
8.70443	0.612
8.7443	0.525
8.78416	0.525
8.82403	0.648
8.86389	0.699
8.90376	0.738
8.94362	0.755
8.98349	0.76
9.02335	0.75
9.06322	0.756
9.10309	0.791
9.14295	0.799
9.18282	0.802
9.22268	0.802
9.26255	0.725
9.30241	0.359
9.34228	0.236
9.38215	0.451
9.42201	0.648
9.46188	0.712
9.50174	0.742
9.54161	0.768
9.58147	0.771
9.62134	0.771
9.66121	0.665
9.70107	0.486
9.74094	0.543
9.7808	0.679
9.82067	0.702
9.86053	0.696
9.9004	0.738
9.94026	0.768
9.98013	0.76
10.02	0.747
10.0599	0.752
10.0997	0.778
10.1396	0.802
10.1795	0.809
10.2193	0.816
10.2592	0.829
10.2991	0.832
10.3389	0.835
10.3788	0.839
10.4187	0.839
10.4585	0.824
10.4984	0.825
10.5382	0.835
10.5781	0.852
10.618	0.865
10.6578	0.868
10.6977	0.84
10.7376	0.839
10.7774	0.848
10.8173	0.858
10.8572	0.832
10.897	0.735
10.9369	0.802
10.9768	0.855
11.0166	0.865
11.0565	0.88
11.0964	0.881
11.1362	0.883
11.1761	0.883
11.216	0.858
11.2558	0.776
11.2957	0.752
11.3356	0.848
11.3754	0.855
11.4153	0.858
11.4552	0.852
11.495	0.839
11.5349	0.819
11.5748	0.799
11.6146	0.76
11.6545	0.701
11.6944	0.6
11.7342	0.571
11.7741	0.632
11.814	0.666
11.8538	0.497
11.8937	0.481
11.9335	0.512
11.9734	0.477
12.0133	0.65
12.0531	0.752
12.093	0.763
12.1329	0.738
12.1727	0.658
12.2126	0.663
12.2525	0.671
12.2923	0.619
12.3322	0.481
12.3721	0.399
12.4119	0.4
12.4518	0.54
12.4917	0.671
12.5315	0.727
12.5714	0.696
12.6113	0.6
12.6511	0.599
12.691	0.765
12.7309	0.789
12.7707	0.794
12.8106	0.791
12.8505	0.699
12.8903	0.461
12.9302	0.221
12.9701	0.221
13.0099	0.308
13.0498	0.379
13.0897	0.476
13.1295	0.592
13.1694	0.681
13.2092	0.729
13.2491	0.758
13.289	0.77
13.3288	0.784
13.3687	0.794
13.4086	0.791
13.4484	0.779
13.4883	0.722
13.5282	0.566
13.568	0.397
13.6079	0.38
13.6478	0.486
13.6876	0.637
13.7275	0.702
13.7674	0.738
13.8072	0.756
13.8471	0.758
13.887	0.763
13.9268	0.771
13.9667	0.766
14.0066	0.74
14.0464	0.681
14.0863	0.602
14.1262	0.5
14.166	0.371
14.2059	0.221
14.2458	0.187
14.2856	0.261
14.3255	0.346
14.3654	0.38
14.4052	0.4
14.4451	0.415
14.4849	0.42
14.5248	0.418
14.5647	0.405
14.6045	0.422
14.6444	0.486
14.6843	0.532
14.7241	0.551
14.764	0.576
14.8039	0.582
14.8437	0.581
14.8836	0.551
14.9235	0.49
14.9633	0.471
15.0032	0.509
15.0431	0.522
15.0829	0.527
15.1228	0.545
15.1627	0.573
15.2025	0.576
15.2424	0.579
15.2823	0.579
15.3221	0.581
15.362	0.581
15.4019	0.581
15.4417	0.581
15.4816	0.581
15.5215	0.581
15.5613	0.581
15.6012	0.577
15.6411	0.569
15.6809	0.559
15.7208	0.55
15.7607	0.54
15.8005	0.532
15.8404	0.532
15.8802	0.53
15.9201	0.53
15.96	0.53
