Infrared Spectrum: t-Octyl isothiocyanate
Formula: C 9 H 17 N S
CAS: 17701-76-7
State: gas
Origin: EPA-IR VAPOR PHASE LIBRARY
1/CM	ABSORBANCE
549.8	0.01712
559.445	0.01642
569.09	0.01992
578.734	0.0212
588.379	0.01709
598.024	0.01399
607.669	0.01152
617.313	0.00806
626.958	0.00602
636.603	0.00477
646.248	0.00378
655.893	0.00407
665.537	0.0043
675.182	0.00432
684.827	0.00389
694.472	0.0032
704.116	0.00317
713.761	0.00288
723.406	0.00268
733.051	0.00299
742.695	0.00332
752.34	0.0033
761.985	0.00278
771.63	0.00289
781.275	0.00314
790.919	0.00384
800.564	0.00559
810.209	0.00725
819.854	0.00745
829.498	0.00493
839.143	0.00391
848.788	0.00425
858.433	0.00663
868.078	0.00777
877.722	0.00559
887.367	0.00599
897.012	0.00888
906.657	0.00961
916.301	0.00799
925.946	0.00678
935.591	0.00613
945.236	0.00602
954.88	0.00675
964.525	0.00951
974.17	0.01317
983.815	0.01326
993.46	0.01521
1003.1	0.02062
1012.75	0.01823
1022.39	0.01033
1032.04	0.00721
1041.68	0.006
1051.33	0.00508
1060.97	0.00503
1070.62	0.00456
1080.26	0.00477
1089.91	0.00498
1099.55	0.00553
1109.2	0.0076
1118.84	0.01368
1128.49	0.02285
1138.13	0.02964
1147.78	0.02677
1157.42	0.0178
1167.07	0.01313
1176.71	0.01406
1186.36	0.02013
1196	0.03693
1205.64	0.07149
1215.29	0.10152
1224.93	0.0814
1234.58	0.04804
1244.22	0.0315
1253.87	0.01945
1263.51	0.01188
1273.16	0.00822
1282.8	0.00675
1292.45	0.00621
1302.09	0.00711
1311.74	0.0108
1321.38	0.01341
1331.03	0.01146
1340.67	0.01403
1350.32	0.02067
1359.96	0.02555
1369.61	0.04097
1379.25	0.03491
1388.9	0.0241
1398.54	0.02542
1408.18	0.01756
1417.83	0.00945
1427.47	0.00967
1437.12	0.012
1446.76	0.01692
1456.41	0.02316
1466.05	0.03005
1475.7	0.03495
1485.34	0.02775
1494.99	0.01426
1504.63	0.00769
1514.28	0.00568
1523.92	0.00461
1533.57	0.00395
1543.21	0.00354
1552.86	0.00332
1562.5	0.00312
1572.15	0.00309
1581.79	0.0031
1591.44	0.00317
1601.08	0.00313
1610.73	0.00322
1620.37	0.00325
1630.01	0.00337
1639.66	0.00339
1649.3	0.0035
1658.95	0.00342
1668.59	0.00353
1678.24	0.0035
1687.88	0.00356
1697.53	0.00356
1707.17	0.0036
1716.82	0.00374
1726.46	0.00376
1736.11	0.00378
1745.75	0.00383
1755.4	0.00388
1765.04	0.00403
1774.69	0.00423
1784.33	0.00432
1793.98	0.00446
1803.62	0.00447
1813.27	0.00473
1822.91	0.00503
1832.55	0.00512
1842.2	0.00548
1851.84	0.00598
1861.49	0.00656
1871.13	0.0073
1880.78	0.00848
1890.42	0.0103
1900.07	0.01302
1909.71	0.01642
1919.36	0.02077
1929	0.02728
1938.65	0.03682
1948.29	0.04947
1957.94	0.06515
1967.58	0.08394
1977.23	0.10674
1986.87	0.13371
1996.52	0.15889
2006.16	0.17383
2015.81	0.18558
2025.45	0.21295
2035.1	0.26167
2044.74	0.32926
2054.38	0.40132
2064.03	0.44386
2073.67	0.4202
2083.32	0.32694
2092.96	0.23093
2102.61	0.18689
2112.25	0.16202
2121.9	0.14059
2131.54	0.12762
2141.19	0.12091
2150.83	0.1129
2160.48	0.09464
2170.12	0.06842
2179.77	0.04672
2189.41	0.03325
2199.06	0.02527
2208.7	0.02036
2218.35	0.01718
2227.99	0.0142
2237.64	0.01124
2247.28	0.00892
2256.92	0.00732
2266.57	0.00619
2276.21	0.00518
2285.86	0.00452
2295.5	0.00408
2305.15	0.00382
2314.79	0.00357
2324.44	0.00341
2334.08	0.00335
2343.73	0.00318
2353.37	0.003
2363.02	0.00294
2372.66	0.00286
2382.31	0.00287
2391.95	0.00294
2401.6	0.00302
2411.24	0.00317
2420.89	0.00323
2430.53	0.00311
2440.18	0.00303
2449.82	0.00288
2459.47	0.0027
2469.11	0.00275
2478.75	0.0027
2488.4	0.00277
2498.04	0.00275
2507.69	0.00286
2517.33	0.00293
2526.98	0.0029
2536.62	0.00283
2546.27	0.00294
2555.91	0.00295
2565.56	0.00304
2575.2	0.00307
2584.85	0.00316
2594.49	0.00323
2604.14	0.00336
2613.78	0.00348
2623.43	0.00356
2633.07	0.00376
2642.72	0.00397
2652.36	0.00446
2662.01	0.0052
2671.65	0.00605
2681.29	0.00706
2690.94	0.00833
2700.58	0.00914
2710.23	0.00889
2719.87	0.00766
2729.52	0.00662
2739.16	0.00574
2748.81	0.00514
2758.45	0.00485
2768.1	0.00481
2777.74	0.00481
2787.39	0.00503
2797.03	0.00561
2806.68	0.00641
2816.32	0.00748
2825.97	0.00855
2835.61	0.01034
2845.26	0.01335
2854.9	0.01739
2864.55	0.02701
2874.19	0.0437
2883.84	0.0539
2893.48	0.05735
2903.12	0.06788
2912.77	0.08359
2922.41	0.09146
2932.06	0.08773
2941.7	0.09528
2951.35	0.12462
2960.99	0.16675
2970.64	0.15492
2980.28	0.15393
2989.93	0.12645
2999.57	0.05176
3009.22	0.03471
3018.86	0.02323
3028.51	0.0123
3038.15	0.0079
3047.8	0.00637
3057.44	0.00569
3067.09	0.00529
3076.73	0.0049
3086.38	0.00487
3096.02	0.00447
3105.67	0.00423
3115.31	0.0039
3124.95	0.00372
3134.6	0.00356
3144.24	0.00347
3153.89	0.0034
3163.53	0.00325
3173.18	0.00328
3182.82	0.00338
3192.47	0.00339
3202.11	0.00343
3211.76	0.00339
3221.4	0.00338
3231.05	0.00314
3240.69	0.003
3250.34	0.00276
3259.98	0.00268
3269.63	0.00242
3279.27	0.00225
3288.92	0.00213
3298.56	0.00191
3308.21	0.00185
3317.85	0.0018
3327.49	0.00201
3337.14	0.0019
3346.78	0.00186
3356.43	0.00196
3366.07	0.00179
3375.72	0.00173
3385.36	0.00172
3395.01	0.00165
3404.65	0.00169
3414.3	0.00166
3423.94	0.0016
3433.59	0.00162
3443.23	0.00149
3452.88	0.00169
3462.52	0.00172
3472.17	0.00173
3481.81	0.00181
3491.46	0.00177
3501.1	0.00166
3510.75	0.00169
3520.39	0.00181
3530.04	0.00168
3539.68	0.00166
3549.32	0.00174
3558.97	0.00148
3568.61	0.00148
3578.26	0.0014
3587.9	0.00131
3597.55	0.00114
3607.19	0.00128
3616.84	0.00127
3626.48	0.00129
3636.13	0.00131
3645.77	0.00118
3655.42	0.00137
3665.06	0.00136
3674.71	0.00141
3684.35	0.00145
3694	0.00141
3703.64	0.00126
3713.29	0.00129
3722.93	0.00133
3732.58	0.00136
3742.22	0.00142
3751.86	0.00137
3761.51	0.0016
3771.15	0.0015
3780.8	0.00143
3790.44	0.00149
3800.09	0.00178
3809.73	0.00144
3819.38	0.00169
3829.02	0.00167
3838.67	0.00163
3848.31	0.00181
3857.96	0.00178
3867.6	0.00182
3877.25	0.00203
3886.89	0.00214
3896.54	0.00225
3906.18	0.00234
3915.83	0.00242
3925.47	0.00224
3935.12	0.00269
3944.76	0.00265
3954.41	0.00256
3964.05	0.00286
3973.69	0.00282
3983.34	0.00289
3992.98	0.00301
