Infrared Spectrum: N,N-Dimethyl phenyl(thioacetamide)
Formula: C 10 H 13 N S
CAS: 17709-95-4
State: gas
Origin: EPA-IR VAPOR PHASE LIBRARY
1/CM	ABSORBANCE
549.8	0.0010476
559.445	0.0008961
569.09	0.0011788
578.734	0.0005929
588.379	0.0002393
598.024	0.0018188
607.669	0.0029988
617.313	0.0037088
626.958	0.0046788
636.603	0.0044588
646.248	0.0026888
655.893	0.0037788
665.537	0.0067388
675.182	0.0118488
684.827	0.0227688
694.472	0.0398488
704.116	0.0609088
713.761	0.0627588
723.406	0.0345588
733.051	0.0207488
742.695	0.0195688
752.34	0.0217688
761.985	0.0157288
771.63	0.0063888
781.275	0.0040288
790.919	0.0025488
800.564	0.0023188
810.209	0.0021588
819.854	0.0018588
829.498	0.0022888
839.143	0.0035788
848.788	0.0072588
858.433	0.0114988
868.078	0.0095188
877.722	0.0053588
887.367	0.0040988
897.012	0.0052588
906.657	0.0062688
916.301	0.0044088
925.946	0.0041888
935.591	0.0050788
945.236	0.0077588
954.88	0.0142388
964.525	0.0153988
974.17	0.0084988
983.815	0.0045088
993.46	0.0043888
1003.1	0.0056388
1012.75	0.0066588
1022.39	0.0137388
1032.04	0.0213488
1041.68	0.0181988
1051.33	0.0201088
1060.97	0.0230288
1070.62	0.0267088
1080.26	0.0319488
1089.91	0.0485888
1099.55	0.0765788
1109.2	0.0998588
1118.84	0.0898088
1128.49	0.0562688
1138.13	0.0413688
1147.78	0.0349388
1157.42	0.0268788
1167.07	0.0216088
1176.71	0.0214988
1186.36	0.0207988
1196	0.0144788
1205.64	0.0133488
1215.29	0.0142788
1224.93	0.0153788
1234.58	0.0173788
1244.22	0.0244988
1253.87	0.0341488
1263.51	0.0394888
1273.16	0.0436688
1282.8	0.0500088
1292.45	0.0620288
1302.09	0.0664388
1311.74	0.0426188
1321.38	0.0260188
1331.03	0.0237088
1340.67	0.0274788
1350.32	0.0329888
1359.96	0.0476688
1369.61	0.0794588
1379.25	0.129309
1388.9	0.158109
1398.54	0.120669
1408.18	0.0745588
1417.83	0.0548788
1427.47	0.0454588
1437.12	0.0537988
1446.76	0.0589288
1456.41	0.0564788
1466.05	0.0660388
1475.7	0.0936688
1485.34	0.123189
1494.99	0.141419
1504.63	0.111889
1514.28	0.0796888
1523.92	0.0617588
1533.57	0.0473688
1543.21	0.0368388
1552.86	0.0286388
1562.5	0.0220988
1572.15	0.0176888
1581.79	0.0160188
1591.44	0.0186988
1601.08	0.0243088
1610.73	0.0153088
1620.37	0.0065588
1630.01	0.0047388
1639.66	0.0042388
1649.3	0.0033888
1658.95	0.0033088
1668.59	0.0027788
1678.24	0.0024288
1687.88	0.0022188
1697.53	0.0022788
1707.17	0.0026188
1716.82	0.0027788
1726.46	0.0030488
1736.11	0.0029688
1745.75	0.0027988
1755.4	0.0021788
1765.04	0.0020188
1774.69	0.0023788
1784.33	0.0030888
1793.98	0.0041388
1803.62	0.0046188
1813.27	0.0034988
1822.91	0.0023888
1832.55	0.0019188
1842.2	0.0018788
1851.84	0.0023588
1861.49	0.0029488
1871.13	0.0033088
1880.78	0.0031888
1890.42	0.0022288
1900.07	0.0016288
1909.71	0.0016888
1919.36	0.0021488
1929	0.0028888
1938.65	0.0041088
1948.29	0.0045088
1957.94	0.0032188
1967.58	0.0019088
1977.23	0.0017088
1986.87	0.0015388
1996.52	0.0015488
2006.16	0.0014988
2015.81	0.0012988
2025.45	0.0011688
2035.1	0.001043
2044.74	0.0010298
2054.38	0.0009632
2064.03	0.0011288
2073.67	0.0011588
2083.32	0.0012388
2092.96	0.0011488
2102.61	0.0012988
2112.25	0.0012188
2121.9	0.0011488
2131.54	0.0011988
2141.19	0.0010806
2150.83	0.0010003
2160.48	0.0012288
2170.12	0.0012388
2179.77	0.0013088
2189.41	0.0011588
2199.06	0.0011388
2208.7	0.0012988
2218.35	0.0013588
2227.99	0.0012988
2237.64	0.0013988
2247.28	0.0012988
2256.92	0.0011488
2266.57	0.0010469
2276.21	0.0011288
2285.86	0.0010149
2295.5	0.0008772
2305.15	0.0012788
2314.79	0.0012288
2324.44	0.0012488
2334.08	0.0012288
2343.73	0.0011788
2353.37	0.0011088
2363.02	0.0011088
2372.66	0.0009565
2382.31	0.0009892
2391.95	0.0009066
2401.6	0.0009071
2411.24	0.0009385
2420.89	0.0009739
2430.53	0.001071
2440.18	0.000783
2449.82	0.0008139
2459.47	0.0008183
2469.11	0.000625
2478.75	0.0007652
2488.4	0.0009125
2498.04	0.0009391
2507.69	0.0008546
2517.33	0.0010253
2526.98	0.0010621
2536.62	0.0010861
2546.27	0.0009618
2555.91	0.0012988
2565.56	0.0013288
2575.2	0.0013988
2584.85	0.0012988
2594.49	0.0014088
2604.14	0.0014588
2613.78	0.0013688
2623.43	0.0014388
2633.07	0.0014188
2642.72	0.0014088
2652.36	0.0015488
2662.01	0.0013988
2671.65	0.0013688
2681.29	0.0016088
2690.94	0.0017488
2700.58	0.0017688
2710.23	0.0019788
2719.87	0.0019788
2729.52	0.0019388
2739.16	0.0025388
2748.81	0.0027188
2758.45	0.0035388
2768.1	0.0041888
2777.74	0.0051188
2787.39	0.0059388
2797.03	0.0071988
2806.68	0.0096688
2816.32	0.0101088
2825.97	0.0091688
2835.61	0.0110588
2845.26	0.0153188
2854.9	0.0205788
2864.55	0.0248188
2874.19	0.0271888
2883.84	0.0295488
2893.48	0.0331388
2903.12	0.0383388
2912.77	0.0474388
2922.41	0.0627288
2932.06	0.0744188
2941.7	0.0706288
2951.35	0.0564788
2960.99	0.0427088
2970.64	0.0323888
2980.28	0.0241188
2989.93	0.0195488
2999.57	0.0188888
3009.22	0.0206188
3018.86	0.0282988
3028.51	0.0415388
3038.15	0.0389288
3047.8	0.0265888
3057.44	0.0308488
3067.09	0.0486688
3076.73	0.0420488
3086.38	0.0250588
3096.02	0.0172188
3105.67	0.0110788
3115.31	0.0072688
3124.95	0.0039488
3134.6	0.0023788
3144.24	0.0020488
3153.89	0.0020188
3163.53	0.0020588
3173.18	0.0016988
3182.82	0.0013988
3192.47	0.0011588
3202.11	0.0006965
3211.76	0.0008859
3221.4	0.000716
3231.05	0.0010544
3240.69	0.0008662
3250.34	0.0008097
3259.98	0.0007781
3269.63	0.0008114
3279.27	0.0007369
3288.92	0.0006168
3298.56	0.0003295
3308.21	0.0006413
3317.85	0.0004672
3327.49	0.0003873
3337.14	0.0004127
3346.78	0.0005639
3356.43	0.0006821
3366.07	0.0004447
3375.72	0.000738
3385.36	0.0005798
3395.01	0.0006891
3404.65	0.0005512
3414.3	0.0004127
3423.94	0.0006709
3433.59	0.0006385
3443.23	0.0006032
3452.88	0.0005416
3462.52	0.0006855
3472.17	0.000318
3481.81	0.0007309
3491.46	0.0008021
3501.1	0.000451
3510.75	0.0009207
3520.39	0.0003526
3530.04	0.000512
3539.68	0.0004839
3549.32	0.0004778
3558.97	0.0005441
3568.61	0.0007739
3578.26	0.0003454
3587.9	0.0004787
3597.55	0.0004477
3607.19	0.000367
3616.84	0.0004193
3626.48	0.0003376
3636.13	0.0003859
3645.77	0.0007009
3655.42	0.0006005
3665.06	0.0004902
3674.71	0.0004786
3684.35	0.0010169
3694	0.0006217
3703.64	0.00061
3713.29	0.0007429
3722.93	0.0002507
3732.58	0.0005968
3742.22	0.000522
3751.86	0.0006975
3761.51	0.0007071
3771.15	0.0007509
3780.8	0.0007848
3790.44	0.0007173
3800.09	0.00013064
3809.73	0.0004198
3819.38	0.000423
3829.02	0.0009019
3838.67	0.0005467
3848.31	0.0008399
3857.96	0.0007947
3867.6	0.0010706
3877.25	0.0009309
3886.89	0.0011288
3896.54	0.0006675
3906.18	0.0004223
3915.83	0.0008029
3925.47	0.0008041
3935.12	0.0007465
3944.76	0.0008331
3954.41	0.0004195
3964.05	0.0007774
3973.69	0.0010988
3983.34	0.0011288
3992.98	0.0008417
