Infrared Spectrum: N-(8-Bromooctyl)phthalimide
Formula: C 16 H 20 Br N O 2
CAS: 17702-83-9
State: gas
Origin: EPA-IR VAPOR PHASE LIBRARY
1/CM	ABSORBANCE
549.8	0.006244
559.445	0.004494
569.09	0.004564
578.734	0.002804
588.379	0.002054
598.024	0.001844
607.669	0.002974
617.313	0.005414
626.958	0.003014
636.603	0.003154
646.248	0.005084
655.893	0.004674
665.537	0.002054
675.182	0.001884
684.827	0.003254
694.472	0.007384
704.116	0.016264
713.761	0.062864
723.406	0.042064
733.051	0.012994
742.695	0.007314
752.34	0.005654
761.985	0.004594
771.63	0.004304
781.275	0.005224
790.919	0.005364
800.564	0.002924
810.209	0.002304
819.854	0.002034
829.498	0.002254
839.143	0.002164
848.788	0.002794
858.433	0.003844
868.078	0.005764
877.722	0.006484
887.367	0.006544
897.012	0.005954
906.657	0.005924
916.301	0.006854
925.946	0.007474
935.591	0.006984
945.236	0.006594
954.88	0.006934
964.525	0.006724
974.17	0.006604
983.815	0.007934
993.46	0.010464
1003.1	0.012074
1012.75	0.011314
1022.39	0.010114
1032.04	0.011514
1041.68	0.016594
1051.33	0.022664
1060.97	0.019814
1070.62	0.014314
1080.26	0.011074
1089.91	0.010134
1099.55	0.007934
1109.2	0.008514
1118.84	0.007554
1128.49	0.006124
1138.13	0.005054
1147.78	0.004704
1157.42	0.007024
1167.07	0.007394
1176.71	0.010704
1186.36	0.012704
1196	0.008284
1205.64	0.007884
1215.29	0.009964
1224.93	0.011754
1234.58	0.012264
1244.22	0.012374
1253.87	0.013964
1263.51	0.013834
1273.16	0.012844
1282.8	0.013644
1292.45	0.016644
1302.09	0.019194
1311.74	0.022714
1321.38	0.030114
1331.03	0.035854
1340.67	0.048524
1350.32	0.079374
1359.96	0.108084
1369.61	0.099084
1379.25	0.069064
1388.9	0.100644
1398.54	0.075674
1408.18	0.037314
1417.83	0.020314
1427.47	0.016814
1437.12	0.026554
1446.76	0.033674
1456.41	0.024034
1466.05	0.021654
1475.7	0.011824
1485.34	0.005494
1494.99	0.003894
1504.63	0.003364
1514.28	0.003364
1523.92	0.003364
1533.57	0.002954
1543.21	0.002654
1552.86	0.002544
1562.5	0.002564
1572.15	0.003094
1581.79	0.003784
1591.44	0.004834
1601.08	0.005274
1610.73	0.006794
1620.37	0.004984
1630.01	0.003104
1639.66	0.002714
1649.3	0.002794
1658.95	0.003384
1668.59	0.004684
1678.24	0.006624
1687.88	0.010804
1697.53	0.020794
1707.17	0.037994
1716.82	0.087244
1726.46	0.277774
1736.11	0.304704
1745.75	0.086354
1755.4	0.033954
1765.04	0.024754
1774.69	0.032644
1784.33	0.048314
1793.98	0.020114
1803.62	0.008544
1813.27	0.005514
1822.91	0.004384
1832.55	0.004184
1842.2	0.003914
1851.84	0.002974
1861.49	0.002634
1871.13	0.002844
1880.78	0.002274
1890.42	0.002034
1900.07	0.002084
1909.71	0.002234
1919.36	0.001974
1929	0.002034
1938.65	0.002434
1948.29	0.001764
1957.94	0.001404
1967.58	0.001994
1977.23	0.001604
1986.87	0.0010178
1996.52	0.0009425
2006.16	0.000831
2015.81	0.0009667
2025.45	0.0008335
2035.1	0.000854
2044.74	0.0008956
2054.38	0.0009201
2064.03	0.0008578
2073.67	0.0008548
2083.32	0.0008269
2092.96	0.0008472
2102.61	0.0008125
2112.25	0.0007922
2121.9	0.000806
2131.54	0.0007661
2141.19	0.0008111
2150.83	0.0008763
2160.48	0.0008657
2170.12	0.0008925
2179.77	0.0008487
2189.41	0.0007087
2199.06	0.0006637
2208.7	0.000671
2218.35	0.0007207
2227.99	0.0007106
2237.64	0.0009317
2247.28	0.001007
2256.92	0.0009366
2266.57	0.0008874
2276.21	0.0008679
2285.86	0.0008978
2295.5	0.0009347
2305.15	0.0009869
2314.79	0.0011723
2324.44	0.0011901
2334.08	0.0011405
2343.73	0.001082
2353.37	0.000968
2363.02	0.0009384
2372.66	0.0010343
2382.31	0.0009949
2391.95	0.0008775
2401.6	0.000935
2411.24	0.0009111
2420.89	0.0009655
2430.53	0.0011311
2440.18	0.001177
2449.82	0.0010869
2459.47	0.0009861
2469.11	0.0008286
2478.75	0.0009333
2488.4	0.0007107
2498.04	0.0007319
2507.69	0.0007019
2517.33	0.0007586
2526.98	0.0007296
2536.62	0.0006945
2546.27	0.0006654
2555.91	0.0005934
2565.56	0.0006853
2575.2	0.000704
2584.85	0.0006162
2594.49	0.0006703
2604.14	0.0006569
2613.78	0.000791
2623.43	0.0009766
2633.07	0.0010707
2642.72	0.001088
2652.36	0.001187
2662.01	0.001274
2671.65	0.001404
2681.29	0.001504
2690.94	0.001694
2700.58	0.001624
2710.23	0.001404
2719.87	0.001344
2729.52	0.001204
2739.16	0.0011924
2748.81	0.001264
2758.45	0.001364
2768.1	0.001614
2777.74	0.002004
2787.39	0.002134
2797.03	0.002394
2806.68	0.002614
2816.32	0.003334
2825.97	0.004194
2835.61	0.005974
2845.26	0.009504
2854.9	0.018264
2864.55	0.033684
2874.19	0.027564
2883.84	0.018054
2893.48	0.016894
2903.12	0.020954
2912.77	0.030714
2922.41	0.049754
2932.06	0.078204
2941.7	0.087124
2951.35	0.061384
2960.99	0.031544
2970.64	0.023164
2980.28	0.015904
2989.93	0.008574
2999.57	0.006024
3009.22	0.006784
3018.86	0.005654
3028.51	0.003374
3038.15	0.003344
3047.8	0.004054
3057.44	0.005654
3067.09	0.006284
3076.73	0.006444
3086.38	0.009284
3096.02	0.005214
3105.67	0.001884
3115.31	0.0010593
3124.95	0.0007467
3134.6	0.0005556
3144.24	0.0005894
3153.89	0.00046
3163.53	0.0005457
3173.18	0.0004934
3182.82	0.0003223
3192.47	0.0005918
3202.11	0.0005149
3211.76	0.0006003
3221.4	0.0005149
3231.05	0.0005058
3240.69	0.0003527
3250.34	0.0004673
3259.98	0.0003596
3269.63	0.000381
3279.27	0.0001844
3288.92	0.00028803
3298.56	0.00027261
3308.21	0.00020156
3317.85	0.00026644
3327.49	0.00028363
3337.14	0.00025074
3346.78	0
3356.43	0.00025375
3366.07	0.0001459
3375.72	0.0001485
3385.36	0.0001556
3395.01	0.00026152
3404.65	0.0003114
3414.3	0.00025485
3423.94	0.0003993
3433.59	0.0006867
3443.23	0.0008567
3452.88	0.0011585
3462.52	0.001384
3472.17	0.001664
3481.81	0.001984
3491.46	0.003414
3501.1	0.003474
3510.75	0.002024
3520.39	0.0009727
3530.04	0.0007187
3539.68	0.0005235
3549.32	0.0005206
3558.97	0.0004827
3568.61	0.0003505
3578.26	0.0004481
3587.9	0.0003353
3597.55	0.0003422
3607.19	0.0003221
3616.84	0.00020008
3626.48	0.0003162
3636.13	0.0001334
3645.77	0.0003371
3655.42	0.00024364
3665.06	0.0003875
3674.71	0.0003198
3684.35	0.00021677
3694	0.0001242
3703.64	0.0004069
3713.29	0.0003866
3722.93	0.00029582
3732.58	0.0004545
3742.22	0.0005027
3751.86	0.0004031
3761.51	0.0004994
3771.15	0.0004178
3780.8	0.0005168
3790.44	0.0004668
3800.09	0.0003295
3809.73	0.0003197
3819.38	0.0003601
3829.02	0.00025743
3838.67	0.0003483
3848.31	0.0003379
3857.96	0.0003506
3867.6	0.0003153
3877.25	0.0004034
3886.89	0.0005556
3896.54	0.0005135
3906.18	0.0003904
3915.83	0.0005897
3925.47	0.00026624
3935.12	0.000210314
3944.76	0.0004618
3954.41	0.0004414
3964.05	0.0003913
3973.69	0.00028448
3983.34	0.00022091
3992.98	0.0005204
