Infrared Spectrum: 3-Methoxypropyl isothiocyanate
Formula: C 5 H 9 N O S
CAS: 17702-11-3
State: gas
Origin: EPA-IR VAPOR PHASE LIBRARY
1/CM	ABSORBANCE
549.8	0.008989
559.445	0.008419
569.09	0.007999
578.734	0.007239
588.379	0.005569
598.024	0.004279
607.669	0.003889
617.313	0.003049
626.958	0.002679
636.603	0.002969
646.248	0.002799
655.893	0.003669
665.537	0.004189
675.182	0.003719
684.827	0.003259
694.472	0.003689
704.116	0.004509
713.761	0.003919
723.406	0.002609
733.051	0.001639
742.695	0.0013408
752.34	0.0014772
761.985	0.001849
771.63	0.002429
781.275	0.003259
790.919	0.003359
800.564	0.002869
810.209	0.001759
819.854	0.001589
829.498	0.001649
839.143	0.001829
848.788	0.002359
858.433	0.003559
868.078	0.004199
877.722	0.004379
887.367	0.004579
897.012	0.005939
906.657	0.006879
916.301	0.007009
925.946	0.005909
935.591	0.005099
945.236	0.004399
954.88	0.004599
964.525	0.004959
974.17	0.005819
983.815	0.006899
993.46	0.007979
1003.1	0.008579
1012.75	0.009139
1022.39	0.008269
1032.04	0.008259
1041.68	0.009569
1051.33	0.011649
1060.97	0.014239
1070.62	0.017789
1080.26	0.023609
1089.91	0.030479
1099.55	0.041899
1109.2	0.062099
1118.84	0.089839
1128.49	0.099509
1138.13	0.074389
1147.78	0.042749
1157.42	0.028849
1167.07	0.023649
1176.71	0.023689
1186.36	0.027079
1196	0.025839
1205.64	0.018719
1215.29	0.014079
1224.93	0.013169
1234.58	0.012969
1244.22	0.009809
1253.87	0.008649
1263.51	0.008059
1273.16	0.007329
1282.8	0.008279
1292.45	0.009979
1302.09	0.013659
1311.74	0.017259
1321.38	0.018779
1331.03	0.027309
1340.67	0.044699
1350.32	0.046379
1359.96	0.031859
1369.61	0.024299
1379.25	0.021879
1388.9	0.022079
1398.54	0.017039
1408.18	0.010759
1417.83	0.008289
1427.47	0.009759
1437.12	0.013089
1446.76	0.018299
1456.41	0.030159
1466.05	0.031629
1475.7	0.016299
1485.34	0.009169
1494.99	0.005759
1504.63	0.003769
1514.28	0.002889
1523.92	0.002379
1533.57	0.002119
1543.21	0.001959
1552.86	0.001779
1562.5	0.001689
1572.15	0.001599
1581.79	0.0014992
1591.44	0.0013102
1601.08	0.0012917
1610.73	0.0012986
1620.37	0.0012067
1630.01	0.001119
1639.66	0.0011807
1649.3	0.0011712
1658.95	0.001124
1668.59	0.0010599
1678.24	0.0009411
1687.88	0.000967
1697.53	0.0010085
1707.17	0.0010081
1716.82	0.0010259
1726.46	0.0010015
1736.11	0.0009848
1745.75	0.0010879
1755.4	0.0010889
1765.04	0.0011326
1774.69	0.0011862
1784.33	0.001197
1793.98	0.0011866
1803.62	0.0012027
1813.27	0.0013813
1822.91	0.0014959
1832.55	0.001649
1842.2	0.001879
1851.84	0.002169
1861.49	0.002649
1871.13	0.003369
1880.78	0.004019
1890.42	0.005119
1900.07	0.006299
1909.71	0.007969
1919.36	0.009919
1929	0.012479
1938.65	0.015669
1948.29	0.019589
1957.94	0.024849
1967.58	0.031599
1977.23	0.040589
1986.87	0.053459
1996.52	0.071999
2006.16	0.098219
2015.81	0.133899
2025.45	0.181229
2035.1	0.242699
2044.74	0.311389
2054.38	0.362009
2064.03	0.368559
2073.67	0.330379
2083.32	0.260389
2092.96	0.186609
2102.61	0.138529
2112.25	0.115279
2121.9	0.101749
2131.54	0.088999
2141.19	0.076259
2150.83	0.066609
2160.48	0.060049
2170.12	0.055389
2179.77	0.050869
2189.41	0.046719
2199.06	0.043669
2208.7	0.040119
2218.35	0.034749
2227.99	0.027269
2237.64	0.020529
2247.28	0.015279
2256.92	0.011729
2266.57	0.009219
2276.21	0.007319
2285.86	0.005989
2295.5	0.005099
2305.15	0.004309
2314.79	0.003749
2324.44	0.003279
2334.08	0.002839
2343.73	0.002449
2353.37	0.002289
2363.02	0.002089
2372.66	0.001969
2382.31	0.001899
2391.95	0.001719
2401.6	0.001579
2411.24	0.001559
2420.89	0.0014172
2430.53	0.0013813
2440.18	0.0013872
2449.82	0.0013927
2459.47	0.0013672
2469.11	0.0013625
2478.75	0.0014801
2488.4	0.001569
2498.04	0.001649
2507.69	0.001639
2517.33	0.001709
2526.98	0.001779
2536.62	0.001809
2546.27	0.002029
2555.91	0.002149
2565.56	0.002189
2575.2	0.002309
2584.85	0.002469
2594.49	0.002549
2604.14	0.002629
2613.78	0.002579
2623.43	0.002439
2633.07	0.002339
2642.72	0.002209
2652.36	0.002269
2662.01	0.002529
2671.65	0.002949
2681.29	0.003489
2690.94	0.004129
2700.58	0.004829
2710.23	0.006049
2719.87	0.007429
2729.52	0.008649
2739.16	0.009249
2748.81	0.009139
2758.45	0.009029
2768.1	0.008769
2777.74	0.008619
2787.39	0.009309
2797.03	0.011389
2806.68	0.015849
2816.32	0.023789
2825.97	0.030849
2835.61	0.034529
2845.26	0.034119
2854.9	0.034039
2864.55	0.039289
2874.19	0.048259
2883.84	0.056059
2893.48	0.054619
2903.12	0.045889
2912.77	0.041729
2922.41	0.044419
2932.06	0.053059
2941.7	0.056529
2951.35	0.058599
2960.99	0.057579
2970.64	0.046739
2980.28	0.033869
2989.93	0.028329
2999.57	0.023529
3009.22	0.015179
3018.86	0.009309
3028.51	0.006329
3038.15	0.005189
3047.8	0.004219
3057.44	0.003609
3067.09	0.003459
3076.73	0.002869
3086.38	0.002569
3096.02	0.002389
3105.67	0.002139
3115.31	0.001789
3124.95	0.0014917
3134.6	0.0013864
3144.24	0.0010322
3153.89	0.0007852
3163.53	0.0010575
3173.18	0.0008241
3182.82	0.0008166
3192.47	0.00055821
3202.11	0.00057722
3211.76	0.0006423
3221.4	0.0004477
3231.05	0.00055043
3240.69	0.000334
3250.34	0.00026
3259.98	0.000303
3269.63	0.00042
3279.27	0.000225
3288.92	0.0004784
3298.56	0.00022
3308.21	0.000356
3317.85	0.000306
3327.49	0.000169
3337.14	0.00027
3346.78	0.000378
3356.43	0.000328
3366.07	0.000233
3375.72	0.00037
3385.36	0.000364
3395.01	0.000257
3404.65	0.000265
3414.3	0.000252
3423.94	0.000252
3433.59	0.000311
3443.23	0.000378
3452.88	0.000304
3462.52	0.000359
3472.17	0.000352
3481.81	0.00045
3491.46	0.000136
3501.1	0.00029
3510.75	0.000231
3520.39	0.000288
3530.04	0.000364
3539.68	8.6e-05
3549.32	0.000279
3558.97	0.000168
3568.61	0.000235
3578.26	0.000322
3587.9	0.000435
3597.55	0.000187
3607.19	0.000179
3616.84	0.000283
3626.48	0.000327
3636.13	0.000376
3645.77	0.000218
3655.42	0.000285
3665.06	0.0004678
3674.71	0.000183
3684.35	0.00034
3694	0.000276
3703.64	0.000334
3713.29	0.00036
3722.93	0.000248
3732.58	0.000408
3742.22	0.000387
3751.86	0.00057561
3761.51	0.0004551
3771.15	0.0004482
3780.8	0.000364
3790.44	0.000407
3800.09	0.0006952
3809.73	0.0004448
3819.38	0.0004659
3829.02	0.0004808
3838.67	0.0006245
3848.31	0.000428
3857.96	0.00058012
3867.6	0.00055252
3877.25	0.0006835
3886.89	0.0007277
3896.54	0.0006694
3906.18	0.000708
3915.83	0.0007965
3925.47	0.0011408
3935.12	0.0011897
3944.76	0.0011481
3954.41	0.0011577
3964.05	0.0013376
3973.69	0.0014313
3983.34	0.001599
3992.98	0.001899
