Infrared Spectrum: Diallylethanolamine
Formula: C 8 H 15 N O
CAS: 17719-79-8
State: gas
Origin: EPA-IR VAPOR PHASE LIBRARY
1/CM	ABSORBANCE
501.5	0.00345
513.074	0.00342
524.648	0.00378
536.222	0.00411
547.796	0.00429
559.37	0.00382
570.944	0.00301
582.518	0.00277
594.092	0.00298
605.666	0.0031
617.24	0.00299
628.814	0.00259
640.388	0.00259
651.962	0.0027
663.536	0.00247
675.11	0.00209
686.684	0.00168
698.258	0.00136
709.832	0.00123
721.406	0.00118
732.98	0.0011
744.554	0.00115
756.128	0.00133
767.702	0.00182
779.276	0.00267
790.85	0.00367
802.423	0.00402
813.997	0.00352
825.571	0.00304
837.145	0.0037
848.719	0.00492
860.293	0.00675
871.867	0.00735
883.441	0.00733
895.015	0.0102
906.589	0.02066
918.163	0.04176
929.737	0.03637
941.311	0.01902
952.885	0.01509
964.459	0.01525
976.033	0.01716
987.607	0.02411
999.181	0.02649
1010.76	0.02296
1022.33	0.02664
1033.9	0.03464
1045.48	0.04047
1057.05	0.0434
1068.63	0.03806
1080.2	0.02476
1091.77	0.01749
1103.35	0.01446
1114.92	0.01375
1126.49	0.01366
1138.07	0.01446
1149.64	0.01634
1161.22	0.0159
1172.79	0.01243
1184.36	0.00953
1195.94	0.00951
1207.51	0.00991
1219.09	0.00839
1230.66	0.00732
1242.23	0.0076
1253.81	0.00958
1265.38	0.01166
1276.96	0.01178
1288.53	0.01116
1300.1	0.01056
1311.68	0.01131
1323.25	0.01442
1334.83	0.01712
1346.4	0.01747
1357.97	0.01655
1369.55	0.01374
1381.12	0.01148
1392.7	0.01299
1404.27	0.01573
1415.84	0.01697
1427.42	0.01446
1438.99	0.01195
1450.57	0.01237
1462.14	0.0094
1473.71	0.00593
1485.29	0.00385
1496.86	0.00233
1508.44	0.00174
1520.01	0.00148
1531.58	0.00134
1543.16	0.00123
1554.73	0.00114
1566.31	0.00106
1577.88	0.00102
1589.45	0.00109
1601.03	0.00124
1612.6	0.00164
1624.18	0.0032
1635.75	0.00661
1647.32	0.00635
1658.9	0.00227
1670.47	0.0009915
1682.05	0.0006758
1693.62	0.0005663
1705.19	0.000532
1716.77	0.0004818
1728.34	0.0004463
1739.92	0.0004423
1751.49	0.0004307
1763.06	0.0004476
1774.64	0.000446
1786.21	0.0004761
1797.79	0.0005446
1809.36	0.0006794
1820.93	0.00116
1832.51	0.00242
1844.08	0.0038
1855.66	0.00304
1867.23	0.00145
1878.8	0.0008548
1890.38	0.00067
1901.95	0.0006429
1913.53	0.0006536
1925.1	0.0006522
1936.67	0.0006184
1948.25	0.0005819
1959.82	0.0006105
1971.4	0.0006942
1982.97	0.000721
1994.54	0.0005105
2006.12	0.0003649
2017.69	0.0003285
2029.27	0.0003397
2040.84	0.0003456
2052.41	0.0004121
2063.99	0.0004179
2075.56	0.0004346
2087.14	0.0003735
2098.71	0.0003905
2110.28	0.0003885
2121.86	0.0003902
2133.43	0.0003892
2145.01	0.000311
2156.58	0.000274
2168.15	0.0002912
2179.73	0.0002838
2191.3	0.0003045
2202.88	0.000329
2214.45	0.000329
2226.02	0.000299
2237.6	0.0003167
2249.17	0.0003472
2260.74	0.0003166
2272.32	0.0003666
2283.89	0.0003446
2295.47	0.0003615
2307.04	0.0003982
2318.61	0.0004031
2330.19	0.0004135
2341.76	0.0004014
2353.34	0.0003923
2364.91	0.0004667
2376.48	0.000457
2388.06	0.0004469
2399.63	0.0004935
2411.21	0.0004675
2422.78	0.0004492
2434.35	0.0004333
2445.93	0.0003853
2457.5	0.0004019
2469.08	0.0003825
2480.65	0.0003853
2492.22	0.0003836
2503.8	0.0004098
2515.37	0.000496
2526.95	0.0005168
2538.52	0.0005855
2550.09	0.0006054
2561.67	0.0007039
2573.24	0.0007918
2584.82	0.0008549
2596.39	0.0009873
2607.96	0.00109
2619.54	0.00126
2631.11	0.00145
2642.69	0.00168
2654.26	0.00195
2665.83	0.00236
2677.41	0.00293
2688.98	0.00356
2700.56	0.00428
2712.13	0.00478
2723.7	0.00507
2735.28	0.00548
2746.85	0.00651
2758.43	0.00833
2770	0.01128
2781.57	0.01567
2793.15	0.02335
2804.72	0.03192
2816.3	0.03547
2827.87	0.03175
2839.44	0.02488
2851.02	0.01958
2862.59	0.0196
2874.17	0.02426
2885.74	0.02727
2897.31	0.02635
2908.89	0.02637
2920.46	0.03088
2932.04	0.03579
2943.61	0.03511
2955.18	0.03009
2966.76	0.02337
2978.33	0.01948
2989.91	0.01691
3001.48	0.01212
3013.05	0.01136
3024.63	0.00852
3036.2	0.00517
3047.78	0.00497
3059.35	0.00674
3070.92	0.01131
3082.5	0.01873
3094.07	0.01476
3105.65	0.00515
3117.22	0.00209
3128.79	0.00139
3140.37	0.00116
3151.94	0.0009878
3163.52	0.0008141
3175.09	0.0006514
3186.66	0.0006116
3198.24	0.0005527
3209.81	0.0004917
3221.39	0.000416
3232.96	0.000367
3244.53	0.0003916
3256.11	0.0004441
3267.68	0.000433
3279.26	0.000422
3290.83	0.0003917
3302.4	0.0004468
3313.98	0.0004249
3325.55	0.000463
3337.13	0.0004691
3348.7	0.0005425
3360.27	0.0005714
3371.85	0.0005685
3383.42	0.0006416
3395	0.0007456
3406.57	0.0009092
3418.14	0.00108
3429.72	0.00126
3441.29	0.00132
3452.86	0.00137
3464.44	0.0013
3476.01	0.00131
3487.59	0.00141
3499.16	0.00141
3510.73	0.00156
3522.31	0.00214
3533.88	0.00344
3545.46	0.00444
3557.03	0.00444
3568.6	0.00395
3580.18	0.00345
3591.75	0.00299
3603.33	0.00269
3614.9	0.00233
3626.47	0.00199
3638.05	0.00205
3649.62	0.00274
3661.2	0.00391
3672.77	0.00386
3684.34	0.00256
3695.92	0.00129
3707.49	0.0008086
3719.07	0.0006116
3730.64	0.0005099
3742.21	0.0003895
3753.79	0.0003128
3765.36	0.0002195
3776.94	0.0002609
3788.51	0.0002473
3800.08	0.000334
3811.66	0.0002042
3823.23	0.0002235
3834.81	0.0002542
3846.38	0.0001967
3857.95	0.0003267
3869.53	0.0002672
3881.1	0.000293
3892.68	0.0003486
3904.25	0.0003192
3915.82	0.0002927
3927.4	0.0004
3938.97	0.0003521
3950.55	0.0003519
3962.12	0.0002815
3973.69	0.0003036
3985.27	0.0003596
3996.84	0.0003487
