Infrared Spectrum: 3-Cyclohexyl-1-propyne
Formula: C 9 H 14
CAS: 17715-00-3
State: gas
Origin: EPA-IR VAPOR PHASE LIBRARY
1/CM	ABSORBANCE
549.8	0.00292
559.445	0.00275
569.09	0.00388
578.734	0.00363
588.379	0.00442
598.024	0.0048
607.669	0.01017
617.313	0.02459
626.958	0.06465
636.603	0.07284
646.248	0.034
655.893	0.01283
665.537	0.00509
675.182	0.003
684.827	0.0021274
694.472	0.0021218
704.116	0.0021867
713.761	0.0016713
723.406	0.0020612
733.051	0.0018128
742.695	0.00146471
752.34	0.0018576
761.985	0.0017702
771.63	0.00138116
781.275	0.0021112
790.919	0.0017149
800.564	0.00146822
810.209	0.0016046
819.854	0.0021688
829.498	0.00263
839.143	0.00283
848.788	0.00274
858.433	0.0017434
868.078	0.0023605
877.722	0.00268
887.367	0.00322
897.012	0.00308
906.657	0.00266
916.301	0.00268
925.946	0.00264
935.591	0.0021733
945.236	0.0016558
954.88	0.0016974
964.525	0.0025
974.17	0.002356
983.815	0.0020511
993.46	0.0021222
1003.1	0.00141816
1012.75	0.000715
1022.39	0.0020034
1032.04	0.0016555
1041.68	0.0013026
1051.33	0.00321
1060.97	0.0017122
1070.62	0.00296
1080.26	0.00329
1089.91	0.00445
1099.55	0.00018
1109.2	0.0022163
1118.84	0.00362
1128.49	0.00319
1138.13	0.00496
1147.78	0.0048
1157.42	0.00281
1167.07	0.0019228
1176.71	0.00282
1186.36	0.00369
1196	0.00503
1205.64	0.00404
1215.29	0.00603
1224.93	0.00688
1234.58	0.01793
1244.22	0.02442
1253.87	0.02032
1263.51	0.01206
1273.16	0.00859
1282.8	0.00628
1292.45	0.00469
1302.09	0.00397
1311.74	0.00451
1321.38	0.00534
1331.03	0.00529
1340.67	0.0048
1350.32	0.00443
1359.96	0.00423
1369.61	0.00364
1379.25	0.00294
1388.9	0.0023699
1398.54	0.0022798
1408.18	0.00282
1417.83	0.00396
1427.47	0.007
1437.12	0.01135
1446.76	0.01648
1456.41	0.01882
1466.05	0.01125
1475.7	0.00526
1485.34	0.00263
1494.99	0.0020924
1504.63	0.0013565
1514.28	0.0015986
1523.92	0.0013776
1533.57	0.00141433
1543.21	0.0013099
1552.86	0.001225
1562.5	0.0013478
1572.15	0.0013619
1581.79	0.00140882
1591.44	0.0018873
1601.08	0.0017614
1610.73	0.0017013
1620.37	0.0020339
1630.01	0.0017516
1639.66	0.001654
1649.3	0.0017235
1658.95	0.0020202
1668.59	0.0018176
1678.24	0.0017552
1687.88	0.0017986
1697.53	0.0017177
1707.17	0.0017704
1716.82	0.0016759
1726.46	0.0016585
1736.11	0.0016426
1745.75	0.0016039
1755.4	0.0015529
1765.04	0.001733
1774.69	0.0015136
1784.33	0.0016216
1793.98	0.0014962
1803.62	0.00143265
1813.27	0.0015086
1822.91	0.00139686
1832.55	0.001215
1842.2	0.00142589
1851.84	0.00148701
1861.49	0.0013571
1871.13	0.00141149
1880.78	0.0013751
1890.42	0.0016096
1900.07	0.00144943
1909.71	0.0015054
1919.36	0.0013235
1929	0.001272
1938.65	0.0013399
1948.29	0.001159
1957.94	0.001098
1967.58	0.001193
1977.23	0.001186
1986.87	0.0013455
1996.52	0.001159
2006.16	0.001138
2015.81	0.001275
2025.45	0.0013031
2035.1	0.00141297
2044.74	0.00121
2054.38	0.00124
2064.03	0.0013223
2073.67	0.00146298
2083.32	0.0016471
2092.96	0.00265
2102.61	0.00443
2112.25	0.00583
2121.9	0.00542
2131.54	0.00316
2141.19	0.0015927
2150.83	0.00144426
2160.48	0.0012921
2170.12	0.0012939
2179.77	0.0018527
2189.41	0.0013397
2199.06	0.0015346
2208.7	0.0015176
2218.35	0.0013149
2227.99	0.00148108
2237.64	0.0014981
2247.28	0.001517
2256.92	0.00148065
2266.57	0.001368
2276.21	0.0017119
2285.86	0.001147
2295.5	0.00146297
2305.15	0.001194
2314.79	0.0013653
2324.44	0.001123
2334.08	0.001177
2343.73	0.001204
2353.37	0.001282
2363.02	0.0013675
2372.66	0.0012974
2382.31	0.00141453
2391.95	0.0017955
2401.6	0.0015143
2411.24	0.00147547
2420.89	0.0013617
2430.53	0.001134
2440.18	0.001043
2449.82	0.001164
2459.47	0.001035
2469.11	0.000894
2478.75	0.00148113
2488.4	0.0015042
2498.04	0.00140176
2507.69	0.001092
2517.33	0.0012939
2526.98	0.0015959
2536.62	0.0013148
2546.27	0.001221
2555.91	0.0015004
2565.56	0.00147259
2575.2	0.0017436
2584.85	0.0018021
2594.49	0.0021945
2604.14	0.0023188
2613.78	0.0020176
2623.43	0.0018358
2633.07	0.0023724
2642.72	0.00295
2652.36	0.0029
2662.01	0.0031
2671.65	0.00367
2681.29	0.00302
2690.94	0.00293
2700.58	0.00295
2710.23	0.0023415
2719.87	0.0021079
2729.52	0.0015767
2739.16	0.00139126
2748.81	0.001663
2758.45	0.0019053
2768.1	0.002125
2777.74	0.00295
2787.39	0.00384
2797.03	0.00389
2806.68	0.00447
2816.32	0.00479
2825.97	0.00705
2835.61	0.01303
2845.26	0.02835
2854.9	0.05417
2864.55	0.06259
2874.19	0.04601
2883.84	0.02931
2893.48	0.03006
2903.12	0.05001
2912.77	0.09041
2922.41	0.14843
2932.06	0.20734
2941.7	0.17179
2951.35	0.0888
2960.99	0.02451
2970.64	0.00866
2980.28	0.00455
2989.93	0.00373
2999.57	0.00287
3009.22	0.00299
3018.86	0.0022531
3028.51	0.0019869
3038.15	0.0017985
3047.8	0.0018768
3057.44	0.00148081
3067.09	0.0018799
3076.73	0.0015305
3086.38	0.0019485
3096.02	0.0015639
3105.67	0.001054
3115.31	0.0014969
3124.95	0.00162
3134.6	0.0015626
3144.24	0.00140537
3153.89	0.0018376
3163.53	0.001001
3173.18	0.0013445
3182.82	0.0013288
3192.47	0.0016577
3202.11	0.0013106
3211.76	0.0016594
3221.4	0.001044
3231.05	0.0018023
3240.69	0.0021101
3250.34	0.0021824
3259.98	0.0021426
3269.63	0.00315
3279.27	0.00393
3288.92	0.00595
3298.56	0.01067
3308.21	0.0152
3317.85	0.0267
3327.49	0.03253
3337.14	0.02241
3346.78	0.0075
3356.43	0.00536
3366.07	0.003
3375.72	0.0019181
3385.36	0.0019057
3395.01	0.0015068
3404.65	0.00038
3414.3	0.0017781
3423.94	0.00146861
3433.59	0.00143758
3443.23	0.00117
3452.88	0.0017496
3462.52	0.0015397
3472.17	0.0014268
3481.81	0.0017834
3491.46	0.001041
3501.1	0.0011
3510.75	0.00036
3520.39	0.001023
3530.04	0.001249
3539.68	0.00139367
3549.32	0.001236
3558.97	0.001072
3568.61	0.000578
3578.26	0.0013623
3587.9	0.0018548
3597.55	0.0020078
3607.19	0.00139064
3616.84	0.001224
3626.48	0.0013244
3636.13	0.000994
3645.77	0.0015647
3655.42	0.000822
3665.06	0.001146
3674.71	0.000998
3684.35	0.001672
3694	0.0013124
3703.64	0.001195
3713.29	0.0015287
3722.93	0.00146264
3732.58	0.001083
3742.22	0.0015566
3751.86	0.000728
3761.51	0.001276
3771.15	0.001195
3780.8	0.001021
3790.44	0.00145414
3800.09	0.000983
3809.73	0.001163
3819.38	0.001207
3829.02	0.00147447
3838.67	0.001053
3848.31	0.001024
3857.96	0.001279
3867.6	0.0013056
3877.25	0.00147174
3886.89	0.0016453
3896.54	0.001021
3906.18	0.00140422
3915.83	0.0020325
3925.47	0.0016625
3935.12	0.0023009
3944.76	0.0018513
3954.41	0.0015969
3964.05	0.001868
3973.69	0.0016092
3983.34	0.001067
3992.98	0.0013349
