Infrared Spectrum: 3-Methoxyphenothiazine
Formula: C 13 H 11 N O S
CAS: 1771-19-3
State: gas
Origin: EPA-IR VAPOR PHASE LIBRARY
1/CM	ABSORBANCE
549.8	0.0026281
559.445	0.0025281
569.09	0.0021381
578.734	0.0025881
588.379	0.0043581
598.024	0.0036181
607.669	0.0028581
617.313	0.0049581
626.958	0.0067981
636.603	0.0046581
646.248	0.0023681
655.893	0.0019881
665.537	0.0019981
675.182	0.0024181
684.827	0.0032881
694.472	0.0030981
704.116	0.0041881
713.761	0.0066381
723.406	0.0086081
733.051	0.0255381
742.695	0.0310381
752.34	0.0098781
761.985	0.0043681
771.63	0.0043581
781.275	0.0058681
790.919	0.0053581
800.564	0.0044681
810.209	0.0048881
819.854	0.0072981
829.498	0.0089081
839.143	0.0111581
848.788	0.0063981
858.433	0.0028281
868.078	0.0018981
877.722	0.0014081
887.367	0.0013681
897.012	0.0012581
906.657	0.0013281
916.301	0.0021581
925.946	0.0021181
935.591	0.0017381
945.236	0.0032181
954.88	0.0053581
964.525	0.0045381
974.17	0.0024181
983.815	0.0024581
993.46	0.0027981
1003.1	0.0032681
1012.75	0.0050681
1022.39	0.0114981
1032.04	0.0215181
1041.68	0.0141581
1051.33	0.0068681
1060.97	0.0064481
1070.62	0.0074581
1080.26	0.0109981
1089.91	0.0089481
1099.55	0.0066081
1109.2	0.0065381
1118.84	0.0140781
1128.49	0.0206081
1138.13	0.0122281
1147.78	0.0142881
1157.42	0.0298781
1167.07	0.0489581
1176.71	0.0269381
1186.36	0.0191081
1196	0.0224381
1205.64	0.0156181
1215.29	0.0082381
1224.93	0.0087881
1234.58	0.0136081
1244.22	0.0284181
1253.87	0.0501681
1263.51	0.0497781
1273.16	0.0488181
1282.8	0.0513981
1292.45	0.0351881
1302.09	0.0313881
1311.74	0.0177881
1321.38	0.0105181
1331.03	0.0063181
1340.67	0.0041081
1350.32	0.0038381
1359.96	0.0056381
1369.61	0.0117681
1379.25	0.0188881
1388.9	0.0146081
1398.54	0.0089081
1408.18	0.0094981
1417.83	0.0131181
1427.47	0.0229481
1437.12	0.0328381
1446.76	0.0503981
1456.41	0.107058
1466.05	0.137628
1475.7	0.0581981
1485.34	0.0305581
1494.99	0.0251581
1504.63	0.0272981
1514.28	0.0185381
1523.92	0.0089681
1533.57	0.0079581
1543.21	0.0095281
1552.86	0.0129281
1562.5	0.0225481
1572.15	0.0358381
1581.79	0.0348781
1591.44	0.0400181
1601.08	0.0429681
1610.73	0.0301081
1620.37	0.0132481
1630.01	0.0064581
1639.66	0.0041381
1649.3	0.0033981
1658.95	0.0032981
1668.59	0.0028781
1678.24	0.0024881
1687.88	0.0018181
1697.53	0.0015581
1707.17	0.0014181
1716.82	0.0014581
1726.46	0.0013681
1736.11	0.0013881
1745.75	0.0016881
1755.4	0.0020181
1765.04	0.0016781
1774.69	0.0013181
1784.33	0.0014081
1793.98	0.0016181
1803.62	0.0015081
1813.27	0.0013881
1822.91	0.0016081
1832.55	0.0018981
1842.2	0.0019881
1851.84	0.0014781
1861.49	0.0015181
1871.13	0.0018981
1880.78	0.0018781
1890.42	0.0013381
1900.07	0.0015281
1909.71	0.0021981
1919.36	0.0020881
1929	0.0014081
1938.65	0.0011981
1948.29	0.0010275
1957.94	0.0008903
1967.58	0.0009145
1977.23	0.0009854
1986.87	0.0009532
1996.52	0.0008356
2006.16	0.000842
2015.81	0.000852
2025.45	0.0009505
2035.1	0.0009601
2044.74	0.0009973
2054.38	0.0010567
2064.03	0.0010205
2073.67	0.0010384
2083.32	0.0009173
2092.96	0.0008354
2102.61	0.0008809
2112.25	0.0008993
2121.9	0.0007569
2131.54	0.0007605
2141.19	0.0007828
2150.83	0.0007779
2160.48	0.000704
2170.12	0.0007994
2179.77	0.0007131
2189.41	0.0007696
2199.06	0.0007725
2208.7	0.0008509
2218.35	0.0009031
2227.99	0.0008614
2237.64	0.0008663
2247.28	0.0007826
2256.92	0.000721
2266.57	0.0007175
2276.21	0.00076
2285.86	0.0007316
2295.5	0.0006173
2305.15	0.0007074
2314.79	0.0008092
2324.44	0.0007243
2334.08	0.0006168
2343.73	0.0007357
2353.37	0.0006975
2363.02	0.0007172
2372.66	0.0007268
2382.31	0.0008091
2391.95	0.0008295
2401.6	0.000732
2411.24	0.0007523
2420.89	0.0008483
2430.53	0.0010154
2440.18	0.0009915
2449.82	0.0010548
2459.47	0.0010881
2469.11	0.0009264
2478.75	0.000926
2488.4	0.0008625
2498.04	0.0008764
2507.69	0.0011281
2517.33	0.0012481
2526.98	0.0014381
2536.62	0.0013081
2546.27	0.0011481
2555.91	0.0010511
2565.56	0.0009553
2575.2	0.0011081
2584.85	0.0010012
2594.49	0.0007667
2604.14	0.0007092
2613.78	0.0007023
2623.43	0.0006839
2633.07	0.0006266
2642.72	0.0006337
2652.36	0.0005613
2662.01	0.0006161
2671.65	0.0007042
2681.29	0.0008164
2690.94	0.0005468
2700.58	0.0007046
2710.23	0.0007188
2719.87	0.0007411
2729.52	0.0007695
2739.16	0.0007296
2748.81	0.0009169
2758.45	0.0007814
2768.1	0.0008326
2777.74	0.0009323
2787.39	0.0009729
2797.03	0.0012581
2806.68	0.0014181
2816.32	0.0018481
2825.97	0.0027081
2835.61	0.0049981
2845.26	0.0086881
2854.9	0.0060281
2864.55	0.0034781
2874.19	0.0030581
2883.84	0.0030881
2893.48	0.0033881
2903.12	0.0044981
2912.77	0.0058181
2922.41	0.0065881
2932.06	0.0071381
2941.7	0.0108781
2951.35	0.0112281
2960.99	0.0091381
2970.64	0.0061181
2980.28	0.0044181
2989.93	0.0049481
2999.57	0.0085581
3009.22	0.0132481
3018.86	0.0088381
3028.51	0.0063481
3038.15	0.0057581
3047.8	0.0060181
3057.44	0.0078081
3067.09	0.0113481
3076.73	0.0119581
3086.38	0.0085081
3096.02	0.0050381
3105.67	0.0030581
3115.31	0.0016381
3124.95	0.0011381
3134.6	0.0007347
3144.24	0.0008238
3153.89	0.0006921
3163.53	0.0006819
3173.18	0.0006991
3182.82	0.0005167
3192.47	0.0004979
3202.11	0.0003894
3211.76	0.0003598
3221.4	0.0002767
3231.05	0.0001855
3240.69	0.00013044
3250.34	0.0002405
3259.98	0.0003288
3269.63	0.00014146
3279.27	0.00015214
3288.92	0.00016059
3298.56	0.0003027
3308.21	8.4486e-05
3317.85	5.92e-05
3327.49	0.0002624
3337.14	0.00015013
3346.78	0.0003944
3356.43	0.0002717
3366.07	0.00015421
3375.72	0.0002705
3385.36	0.0003585
3395.01	0.0003978
3404.65	0.0006622
3414.3	0.0008022
3423.94	0.0018381
3433.59	0.0054881
3443.23	0.0047681
3452.88	0.0011281
3462.52	0.0005857
3472.17	0.0007324
3481.81	0.0008189
3491.46	0.000717
3501.1	0.0003645
3510.75	0.0003236
3520.39	0.0003823
3530.04	0.0005097
3539.68	9.121e-05
3549.32	0.000352
3558.97	0.0003757
3568.61	0.0001877
3578.26	7.9432e-05
3587.9	0.0002572
3597.55	0.00016127
3607.19	0.0002715
3616.84	4.89e-05
3626.48	0.0004474
3636.13	0.0002332
3645.77	0.0002031
3655.42	0.0001832
3665.06	0.0003847
3674.71	0.0003634
3684.35	0.0003599
3694	0.0003979
3703.64	0.0005525
3713.29	0.00016077
3722.93	0.0004418
3732.58	0.000458
3742.22	0.0005005
3751.86	0.0002499
3761.51	0.0004854
3771.15	0.0002695
3780.8	0.0004261
3790.44	0.000318
3800.09	0.0004713
3809.73	0.0002835
3819.38	0.0002764
3829.02	0.0002593
3838.67	0.000289
3848.31	0.0005329
3857.96	0.0003358
3867.6	0.0001957
3877.25	0.0003451
3886.89	0.0003646
3896.54	0.0004651
3906.18	0.0004145
3915.83	0.0005033
3925.47	0.0002685
3935.12	0.0002226
3944.76	0.000391
3954.41	0.0006686
3964.05	0.000697
3973.69	0.0003748
3983.34	0.0002012
3992.98	0.00017561
