Infrared Spectrum: 2,4,4-TRIMETHYL-Delta^2-OXAZOLINE
Formula: C6 H11 N O
CAS: 1772-43-6
State: LIQUID
Boiling point: 112-113 C
Class: COBLENTZ
Instrument: Not specified, most likely a prism, grating, or hybrid spectrometer.
Sampling: TRANSMISSION
Resolution: 4
Origin: ARTHUR D. LITTLE, INC.
MICROMETERS	TRANSMITTANCE
2.521	1.002
2.5565	1.009
2.592	1.01
2.62751	1
2.66301	0.976
2.69851	0.957
2.73401	0.94
2.76952	0.916
2.80502	0.893
2.84052	0.861
2.87602	0.87
2.91153	0.85
2.94703	0.891
2.98253	0.9
3.01803	0.904
3.05353	0.906
3.08904	0.909
3.12454	0.924
3.16004	0.918
3.19554	0.832
3.23105	0.683
3.26655	0.459
3.30205	0.251
3.33755	0.097
3.37305	0.04
3.40856	0.074
3.44406	0.408
3.47956	0.753
3.51506	0.944
3.55057	0.939
3.58607	0.92
3.62157	0.931
3.65707	0.959
3.69257	0.965
3.72808	0.977
3.76358	0.985
3.79908	0.994
3.83458	1.002
3.87009	1.008
3.90559	1.014
3.94109	1.009
3.97659	1.002
4.0121	0.992
4.0476	0.988
4.0831	0.989
4.1186	0.996
4.1541	0.998
4.18961	1.001
4.22511	1.001
4.26061	0.998
4.29611	0.992
4.33162	0.976
4.36712	1.005
4.40262	1.025
4.43812	1.015
4.47363	0.987
4.50913	0.995
4.54463	1.002
4.58013	1.004
4.61563	1.001
4.65114	0.998
4.68664	1.002
4.72214	1.002
4.75764	0.987
4.79315	0.976
4.82865	0.977
4.86415	1.012
4.89965	1.017
4.93515	1.004
4.97066	0.985
5.00616	0.976
5.04166	0.977
5.07716	0.992
5.11267	0.998
5.14817	0.977
5.18367	0.94
5.21917	0.965
5.25467	0.991
5.29018	0.975
5.32568	0.959
5.36118	0.965
5.39668	0.955
5.43219	0.971
5.46769	0.968
5.50319	0.922
5.53869	0.92
5.5742	0.93
5.6097	0.922
5.6452	0.834
5.6807	0.702
5.7162	0.641
5.75171	0.652
5.78721	0.577
5.82271	0.388
5.85821	0.224
5.89372	0.061
5.92922	0.018
5.96472	0.014
6.00022	0.014
6.03572	0.179
6.07123	0.323
6.10673	0.523
6.14223	0.736
6.17773	0.855
6.21324	0.876
6.24874	0.881
6.28424	0.886
6.31974	0.887
6.35525	0.89
6.39075	0.89
6.42625	0.89
6.46175	0.89
6.49725	0.887
6.53276	0.883
6.56826	0.859
6.60376	0.833
6.63926	0.792
6.67477	0.688
6.71027	0.553
6.74577	0.396
6.78127	0.25
6.81677	0.109
6.85228	0.07
6.88778	0.125
6.92328	0.2
6.95878	0.131
6.99429	0.166
7.02979	0.574
7.06529	0.59
7.10079	0.554
7.1363	0.365
7.1718	0.166
7.2073	0
7.2428	0
7.2783	0.087
7.31381	0.129
7.34931	0.21
7.38481	0.271
7.42031	0.188
7.45582	0.573
7.49132	0.687
7.52682	0.703
7.56232	0.695
7.59782	0.656
7.63333	0.615
7.66883	0.492
7.70433	0.344
7.73983	0.203
7.77534	0.076
7.81084	0
7.84634	0
7.88184	0.003
7.91735	0.048
7.95285	0.114
7.98835	0.139
8.02385	0.162
8.05935	0.26
8.09486	0.4
8.13036	0.414
8.16586	0.41
8.20136	0.323
8.23687	0.213
8.27237	0.105
8.30787	0.02
8.34337	0
8.37888	0
8.41438	0.043
8.44988	0.064
8.48538	0.075
8.52088	0.223
8.55639	0.383
8.59189	0.583
8.62739	0.684
8.66289	0.761
8.6984	0.781
8.7339	0.809
8.7694	0.827
8.8049	0.846
8.8404	0.867
8.87591	0.877
8.91141	0.886
8.94691	0.892
8.98241	0.896
9.01792	0.9
9.05342	0.903
9.08892	0.902
9.12442	0.9
9.15992	0.897
9.19543	0.892
9.23093	0.87
9.26643	0.863
9.30193	0.851
9.33744	0.831
9.37294	0.82
9.40844	0.767
9.44394	0.708
9.47945	0.621
9.51495	0.478
9.55045	0.345
9.58595	0.223
9.62145	0.18
9.65696	0.337
9.69246	0.513
9.72796	0.527
9.76346	0.519
9.79897	0.454
9.83447	0.39
9.86997	0.334
9.90547	0.262
9.94097	0.173
9.97648	0.089
10.012	0.029
10.0475	0.021
10.083	0
10.1185	0
10.154	0.022
10.1895	0.064
10.225	0.125
10.2605	0.145
10.296	0.149
10.3315	0.154
10.367	0.187
10.4025	0.24
10.438	0.304
10.4735	0.361
10.509	0.465
10.5445	0.558
10.58	0.569
10.6155	0.577
10.651	0.547
10.6865	0.454
10.722	0.343
10.7575	0.232
10.793	0.122
10.8285	0.033
10.864	0.021
10.8995	0.159
10.935	0.335
10.9705	0.499
11.006	0.625
11.0415	0.682
11.077	0.695
11.1125	0.704
11.1481	0.701
11.1836	0.665
11.2191	0.603
11.2546	0.52
11.2901	0.388
11.3256	0.257
11.3611	0.125
11.3966	0.03
11.4321	0.024
11.4676	0.057
11.5031	0.231
11.5386	0.425
11.5741	0.56
11.6096	0.659
11.6451	0.752
11.6806	0.772
11.7161	0.817
11.7516	0.842
11.7871	0.85
11.8226	0.867
11.8581	0.879
11.8936	0.887
11.9291	0.889
11.9646	0.889
12.0001	0.876
12.0356	0.809
12.0711	0.752
12.1066	0.632
12.1421	0.5
12.1776	0.362
12.2131	0.283
12.2486	0.402
12.2841	0.593
12.3196	0.775
12.3551	0.838
12.3906	0.873
12.4261	0.918
12.4616	0.93
12.4971	0.935
12.5326	0.953
12.5681	0.961
12.6036	0.962
12.6391	0.963
12.6746	0.968
12.7102	0.972
12.7457	0.974
12.7812	0.974
12.8167	0.974
12.8522	0.974
12.8877	0.975
12.9232	0.975
12.9587	0.975
12.9942	0.975
13.0297	0.974
13.0652	0.971
13.1007	0.966
13.1362	0.958
13.1717	0.952
13.2072	0.95
13.2427	0.942
13.2782	0.935
13.3137	0.931
13.3492	0.927
13.3847	0.92
13.4202	0.902
13.4557	0.893
13.4912	0.89
13.5267	0.886
13.5622	0.879
13.5977	0.876
13.6332	0.87
13.6687	0.864
13.7042	0.861
13.7397	0.861
13.7752	0.861
13.8107	0.86
13.8462	0.859
13.8817	0.857
13.9172	0.855
13.9527	0.855
13.9882	0.859
14.0237	0.865
14.0592	0.872
14.0947	0.881
14.1302	0.887
14.1657	0.891
14.2012	0.894
14.2368	0.894
14.2723	0.893
14.3078	0.892
14.3433	0.892
14.3788	0.892
14.4143	0.89
14.4498	0.889
14.4853	0.886
14.5208	0.876
14.5563	0.859
14.5918	0.855
14.6273	0.85
14.6628	0.844
14.6983	0.835
14.7338	0.821
14.7693	0.814
14.8048	0.802
14.8403	0.783
14.8758	0.763
14.9113	0.749
14.9468	0.737
14.9823	0.687
15.0178	0.6
