Infrared Spectrum: 2-Amino-4-(4-chloro-3-methyl)phenylthiazole
Formula: C 10 H 9 Cl N 2 S
CAS: 177356-72-8
State: gas
Origin: EPA-IR VAPOR PHASE LIBRARY
1/CM	ABSORBANCE
549.8	0.00742
559.445	0.00995
569.09	0.01098
578.734	0.01114
588.379	0.00942
598.024	0.00849
607.669	0.00988
617.313	0.01043
626.958	0.01015
636.603	0.01139
646.248	0.0109
655.893	0.00981
665.537	0.00912
675.182	0.01132
684.827	0.01591
694.472	0.01959
704.116	0.01761
713.761	0.01911
723.406	0.02654
733.051	0.02256
742.695	0.01647
752.34	0.01374
761.985	0.0112
771.63	0.01043
781.275	0.01067
790.919	0.01375
800.564	0.01946
810.209	0.01412
819.854	0.01552
829.498	0.01151
839.143	0.00782
848.788	0.00665
858.433	0.00696
868.078	0.00934
877.722	0.00839
887.367	0.00801
897.012	0.0073
906.657	0.00562
916.301	0.00476
925.946	0.00542
935.591	0.00682
945.236	0.00831
954.88	0.00446
964.525	0.00396
974.17	0.00378
983.815	0.00396
993.46	0.00461
1003.1	0.00533
1012.75	0.00612
1022.39	0.00749
1032.04	0.01709
1041.68	0.03555
1051.33	0.0456
1060.97	0.02907
1070.62	0.01062
1080.26	0.00627
1089.91	0.0053
1099.55	0.00494
1109.2	0.00802
1118.84	0.00719
1128.49	0.006
1138.13	0.00516
1147.78	0.00565
1157.42	0.00425
1167.07	0.00591
1176.71	0.00573
1186.36	0.00398
1196	0.00568
1205.64	0.00428
1215.29	0.00446
1224.93	0.00354
1234.58	0.0062
1244.22	0.00729
1253.87	0.01065
1263.51	0.01705
1273.16	0.01711
1282.8	0.01795
1292.45	0.02044
1302.09	0.02325
1311.74	0.03247
1321.38	0.0423
1331.03	0.03352
1340.67	0.01872
1350.32	0.01309
1359.96	0.01243
1369.61	0.01324
1379.25	0.01457
1388.9	0.01702
1398.54	0.01592
1408.18	0.01212
1417.83	0.0083
1427.47	0.00684
1437.12	0.0078
1446.76	0.01133
1456.41	0.01836
1466.05	0.02912
1475.7	0.02716
1485.34	0.0158
1494.99	0.01378
1504.63	0.01885
1514.28	0.04206
1523.92	0.10733
1533.57	0.10953
1543.21	0.02685
1552.86	0.01488
1562.5	0.01316
1572.15	0.01378
1581.79	0.01755
1591.44	0.02965
1601.08	0.06015
1610.73	0.06648
1620.37	0.0324
1630.01	0.01525
1639.66	0.00842
1649.3	0.00575
1658.95	0.00431
1668.59	0.00322
1678.24	0.00283
1687.88	0.00247
1697.53	0.00222
1707.17	0.00222
1716.82	0.00182
1726.46	0.00196
1736.11	0.00208
1745.75	0.00221
1755.4	0.00233
1765.04	0.00221
1774.69	0.00217
1784.33	0.00196
1793.98	0.00193
1803.62	0.00159
1813.27	0.0013556
1822.91	0.0013105
1832.55	0.001253
1842.2	0.0012184
1851.84	0.0013694
1861.49	0.0012945
1871.13	0.00147
1880.78	0.0017
1890.42	0.00177
1900.07	0.00161
1909.71	0.00163
1919.36	0.0012082
1929	0.001082
1938.65	0.0012414
1948.29	0.0009918
1957.94	0.0011146
1967.58	0.0013551
1977.23	0.0011978
1986.87	0.0012368
1996.52	0.0012196
2006.16	0.0011636
2015.81	0.0010357
2025.45	0.0011992
2035.1	0.001074
2044.74	0.0009672
2054.38	0.0010321
2064.03	0.0010617
2073.67	0.001215
2083.32	0.0010178
2092.96	0.0008936
2102.61	0.0007664
2112.25	0.000906
2121.9	0.0009563
2131.54	0.0008171
2141.19	0.0009768
2150.83	0.0010953
2160.48	0.0009871
2170.12	0.0010234
2179.77	0.0009042
2189.41	0.0010966
2199.06	0.0010857
2208.7	0.0008211
2218.35	0.0009831
2227.99	0.0007187
2237.64	0.0009106
2247.28	0.0006474
2256.92	0.00073
2266.57	0.0010133
2276.21	0.0010614
2285.86	0.0009313
2295.5	0.0008314
2305.15	0.0007674
2314.79	0.0007775
2324.44	0.0008342
2334.08	0.0004123
2343.73	0.0005847
2353.37	0.0006126
2363.02	0.0008218
2372.66	0.0008594
2382.31	0.00049657
2391.95	0.000917
2401.6	0.0008969
2411.24	0.0005899
2420.89	0.0007422
2430.53	0.0008864
2440.18	0.0005772
2449.82	0.0006917
2459.47	0.0005494
2469.11	0.0006494
2478.75	0.00048719
2488.4	0.00049526
2498.04	0.0005393
2507.69	0.0007971
2517.33	0.0006546
2526.98	0.0006344
2536.62	0.0006552
2546.27	0.0005086
2555.91	0.0007625
2565.56	0.0007567
2575.2	0.000825
2584.85	0.00053482
2594.49	0.00079
2604.14	0.0006143
2613.78	0.001006
2623.43	0.0009503
2633.07	0.001116
2642.72	0.00165
2652.36	0.0012066
2662.01	0.0012042
2671.65	0.00114
2681.29	0.0009319
2690.94	0.000752
2700.58	0.0006904
2710.23	0.0011335
2719.87	0.0010148
2729.52	0.0009744
2739.16	0.0011043
2748.81	0.0012422
2758.45	0.001049
2768.1	0.000969
2777.74	0.0011955
2787.39	0.0010445
2797.03	0.0010912
2806.68	0.0014193
2816.32	0.00164
2825.97	0.00147
2835.61	0.0013119
2845.26	0.00147
2854.9	0.00186
2864.55	0.00315
2874.19	0.0035
2883.84	0.00317
2893.48	0.00296
2903.12	0.00374
2912.77	0.0041
2922.41	0.00559
2932.06	0.00957
2941.7	0.00876
2951.35	0.0054
2960.99	0.00501
2970.64	0.00498
2980.28	0.00501
2989.93	0.00522
2999.57	0.00379
3009.22	0.00328
3018.86	0.00383
3028.51	0.00508
3038.15	0.00474
3047.8	0.00427
3057.44	0.00507
3067.09	0.00416
3076.73	0.00377
3086.38	0.00339
3096.02	0.00247
3105.67	0.00202
3115.31	0.00213
3124.95	0.00308
3134.6	0.00157
3144.24	0.0010496
3153.89	0.0012213
3163.53	0.000898
3173.18	0.0005646
3182.82	0.0007031
3192.47	0.0010806
3202.11	0.0007391
3211.76	0.0009742
3221.4	0.0005544
3231.05	0.0011179
3240.69	0.0006085
3250.34	0.0011208
3259.98	0.0007786
3269.63	0.0008438
3279.27	0.0008246
3288.92	0.0009605
3298.56	0.000334
3308.21	0.0007818
3317.85	0.000328
3327.49	0.0008318
3337.14	0.0003854
3346.78	0.0010756
3356.43	0.0005518
3366.07	0.0013292
3375.72	0.00182
3385.36	0.004
3395.01	0.00763
3404.65	0.01648
3414.3	0.01819
3423.94	0.00975
3433.59	0.00424
3443.23	0.00234
3452.88	0.00174
3462.52	0.0017
3472.17	0.00165
3481.81	0.00315
3491.46	0.00611
3501.1	0.01235
3510.75	0.0106
3520.39	0.00641
3530.04	0.00384
3539.68	0.0012937
3549.32	0.0009963
3558.97	0.000833
3568.61	0.0006897
3578.26	0.0012266
3587.9	0.0009947
3597.55	0.000289
3607.19	0.00013
3616.84	0.000268
3626.48	0.000262
3636.13	0.0008925
3645.77	0.0003765
3655.42	0.000912
3665.06	0.0005661
3674.71	0.0005635
3684.35	0.0007696
3694	0.0008581
3703.64	0.000315
3713.29	0.0005698
3722.93	0.000206
3732.58	0.0006559
3742.22	0.0004004
3751.86	0.00050933
3761.51	0.0004071
3771.15	0.0005756
3780.8	0.0004052
3790.44	0.00043742
3800.09	0.0004363
3809.73	7.6e-05
3819.38	0.000107
3829.02	0.0007549
3838.67	0.0003402
3848.31	0.0009286
3857.96	0.0014143
3867.6	0.0005742
3877.25	0.0010878
3886.89	0.0004177
3896.54	0.000121
3906.18	0.0005716
3915.83	0.0007029
3925.47	0.0005415
3935.12	0.0003981
3944.76	0.0005633
3954.41	0.0008953
3964.05	0.0006824
3973.69	0.000147
3983.34	0.000297
3992.98	0.0006662
