Infrared Spectrum: O-TOLUALDEHYDE 2,4-DINITRO-PHENYLHYDRAZONE
Formula: C14 H12 N4 O4
CAS: 1773-44-0
State: SOLID (MINERAL OIL MULL)
Class: COBLENTZ
Instrument: PERKIN-ELMER
Sampling: TRANSMISSION
Resolution: 4
Origin: STANDARD OIL OF OHIO
MICROMETERS	TRANSMITTANCE
2.027	0.141
2.06087	0.149
2.09475	0.156
2.12862	0.161
2.16249	0.172
2.19637	0.182
2.23024	0.189
2.26411	0.194
2.29799	0.197
2.33186	0.201
2.36573	0.211
2.3996	0.224
2.43348	0.233
2.46735	0.245
2.50122	0.253
2.5351	0.267
2.56897	0.274
2.60284	0.284
2.63672	0.291
2.67059	0.301
2.70446	0.308
2.73834	0.318
2.77221	0.327
2.80608	0.335
2.83996	0.349
2.87383	0.357
2.9077	0.367
2.94158	0.374
2.97545	0.378
3.00932	0.332
3.04319	0.231
3.07707	0.347
3.11094	0.359
3.14481	0.364
3.17869	0.356
3.21256	0.31
3.24643	0.294
3.28031	0.265
3.31418	0.19
3.34805	0.045
3.38193	0.003
3.4158	0.003
3.44967	0.005
3.48355	0.006
3.51742	0.129
3.55129	0.362
3.58517	0.451
3.61904	0.488
3.65291	0.487
3.68678	0.488
3.72066	0.499
3.75453	0.5
3.7884	0.509
3.82228	0.522
3.85615	0.538
3.89002	0.555
3.9239	0.565
3.95777	0.58
3.99164	0.596
4.02552	0.608
4.05939	0.609
4.09326	0.606
4.12714	0.608
4.16101	0.614
4.19488	0.623
4.22876	0.632
4.26263	0.637
4.2965	0.64
4.33037	0.654
4.36425	0.664
4.39812	0.669
4.43199	0.671
4.46587	0.681
4.49974	0.689
4.53361	0.698
4.56749	0.703
4.60136	0.71
4.63523	0.717
4.66911	0.722
4.70298	0.73
4.73685	0.735
4.77073	0.742
4.8046	0.751
4.83847	0.749
4.87235	0.754
4.90622	0.763
4.94009	0.77
4.97396	0.776
5.00784	0.781
5.04171	0.78
5.07558	0.778
5.10946	0.776
5.14333	0.78
5.1772	0.781
5.21108	0.79
5.24495	0.8
5.27882	0.809
5.3127	0.817
5.34657	0.822
5.38044	0.827
5.41432	0.833
5.44819	0.834
5.48206	0.838
5.51594	0.85
5.54981	0.858
5.58368	0.863
5.61756	0.877
5.65143	0.887
5.6853	0.889
5.71917	0.894
5.75305	0.894
5.78692	0.885
5.82079	0.875
5.85467	0.875
5.88854	0.865
5.92241	0.855
5.95629	0.853
5.99016	0.833
6.02403	0.773
6.05791	0.741
6.09178	0.66
6.12565	0.235
6.15953	0.02
6.1934	0.04
6.22727	0.124
6.26115	0.105
6.29502	0.09
6.32889	0.289
6.36276	0.466
6.39664	0.551
6.43051	0.642
6.46438	0.621
6.49826	0.555
6.53213	0.502
6.566	0.119
6.59988	0.059
6.63375	0.071
6.66762	0.158
6.7015	0.197
6.73537	0.248
6.76924	0.241
6.80312	0.08
6.83699	0.042
6.87086	0.078
6.90474	0.151
6.93861	0.189
6.97248	0.279
7.00635	0.252
7.04023	0.211
7.0741	0.436
7.10797	0.603
7.14185	0.652
7.17572	0.606
7.20959	0.318
7.24347	0.209
7.27734	0.32
7.31121	0.359
7.34509	0.408
7.37896	0.339
7.41283	0.109
7.44671	0.02
7.48058	0.001
7.51445	0.003
7.54833	0.054
7.5822	0.12
7.61607	0.049
7.64994	0.074
7.68382	0.139
7.71769	0.166
7.75156	0.192
7.78544	0.19
7.81931	0.192
7.85318	0.168
7.88706	0.163
7.92093	0.238
7.9548	0.318
7.98868	0.395
8.02255	0.488
8.05642	0.553
8.0903	0.568
8.12417	0.522
8.15804	0.347
8.19192	0.301
8.22579	0.356
8.25966	0.473
8.29353	0.509
8.32741	0.509
8.36128	0.546
8.39515	0.579
8.42903	0.609
8.4629	0.63
8.49677	0.645
8.53065	0.659
8.56452	0.671
8.59839	0.671
8.63227	0.672
8.66614	0.713
8.70001	0.652
8.73389	0.485
8.76776	0.124
8.80163	0.093
8.83551	0.144
8.86938	0.245
8.90325	0.335
8.93712	0.402
8.971	0.436
9.00487	0.502
9.03874	0.531
9.07262	0.543
9.10649	0.538
9.14036	0.502
9.17424	0.429
9.20811	0.321
9.24198	0.258
9.27586	0.274
9.30973	0.424
9.3436	0.534
9.37748	0.606
9.41135	0.608
9.44522	0.533
9.4791	0.522
9.51297	0.548
9.54684	0.514
9.58071	0.543
9.61459	0.604
9.64846	0.623
9.68233	0.65
9.71621	0.671
9.75008	0.695
9.78395	0.712
9.81783	0.73
9.8517	0.751
9.88557	0.761
9.91945	0.776
9.95332	0.785
9.98719	0.788
10.0211	0.778
10.0549	0.761
10.0888	0.746
10.1227	0.724
10.1566	0.71
10.1904	0.706
10.2243	0.703
10.2582	0.683
10.2921	0.625
10.3259	0.591
10.3598	0.614
10.3937	0.652
10.4275	0.678
10.4614	0.695
10.4953	0.713
10.5292	0.718
10.563	0.71
10.5969	0.698
10.6308	0.684
10.6647	0.66
10.6985	0.64
10.7324	0.625
10.7663	0.625
10.8001	0.66
10.834	0.689
10.8679	0.676
10.9018	0.609
10.9356	0.592
10.9695	0.589
11.0034	0.618
11.0373	0.664
11.0711	0.715
11.105	0.741
11.1389	0.758
11.1728	0.776
11.2066	0.797
11.2405	0.812
11.2744	0.831
11.3082	0.85
11.3421	0.856
11.376	0.86
11.4099	0.863
11.4437	0.868
11.4776	0.868
11.5115	0.87
11.5454	0.877
11.5792	0.884
11.6131	0.892
11.647	0.901
11.6809	0.902
11.7147	0.902
11.7486	0.901
11.7825	0.884
11.8163	0.821
11.8502	0.759
11.8841	0.751
11.918	0.746
11.9518	0.659
11.9857	0.584
12.0196	0.601
12.0535	0.64
12.0873	0.662
12.1212	0.662
12.1551	0.746
12.1889	0.851
12.2228	0.901
12.2567	0.921
12.2906	0.938
12.3244	0.95
12.3583	0.952
12.3922	0.954
12.4261	0.95
12.4599	0.94
12.4938	0.921
12.5277	0.899
12.5616	0.879
12.5954	0.873
12.6293	0.879
12.6632	0.882
12.697	0.87
12.7309	0.86
12.7648	0.863
12.7987	0.872
12.8325	0.872
12.8664	0.841
12.9003	0.787
12.9342	0.715
12.968	0.621
13.0019	0.509
13.0358	0.425
13.0697	0.361
13.1035	0.335
13.1374	0.332
13.1713	0.32
13.2051	0.284
13.239	0.282
13.2729	0.32
13.3068	0.413
13.3406	0.453
13.3745	0.451
13.4084	0.347
13.4423	0.291
13.4761	0.281
13.51	0.313
13.5439	0.403
13.5777	0.522
13.6116	0.599
13.6455	0.628
13.6794	0.635
13.7132	0.626
13.7471	0.609
13.781	0.579
13.8149	0.528
13.8487	0.431
13.8826	0.398
13.9165	0.386
13.9504	0.402
13.9842	0.483
14.0181	0.579
14.052	0.676
14.0858	0.735
14.1197	0.785
14.1536	0.812
14.1875	0.833
14.2213	0.848
14.2552	0.856
14.2891	0.86
14.323	0.867
14.3568	0.867
14.3907	0.867
14.4246	0.86
14.4585	0.858
14.4923	0.855
14.5262	0.841
14.5601	0.822
14.5939	0.804
14.6278	0.788
14.6617	0.788
14.6956	0.8
14.7294	0.809
14.7633	0.819
14.7972	0.821
14.8311	0.819
14.8649	0.814
14.8988	0.805
14.9327	0.8
14.9665	0.798
15.0004	0.798
15.0343	0.809
15.0682	0.817
15.102	0.819
15.1359	0.817
15.1698	0.812
15.2037	0.805
15.2375	0.792
15.2714	0.77
15.3053	0.744
15.3392	0.696
15.373	0.65
