Infrared Spectrum: p-TOLYL SULFOXIDE
Formula: C14 H14 O S
CAS: 1774-35-2
State: SOLUTION (10% CCl4 FOR 3800-1330, 10% CS2 FOR 1330-400 CM^-^1)
Class: COBLENTZ III
Instrument: BECKMAN IR-9 (GRATING)
Instrument parameters: ORDER CHANGES: 670, 1200, 2000 CM^-^1
Path length: 0.011 CM, 0.010 CM
Resolution: 2
Origin: DOW CHEMICAL COMPANY
1/CM	TRANSMITTANCE
414.912	0.396
423.684	0.592
432.456	0.64
441.228	0.606
450	0.534
458.772	0.689
467.544	0.711
476.316	0.659
485.088	0.621
493.86	0.659
502.632	0.635
511.404	0.609
520.175	0.715
528.947	0.2769
537.719	0.26
546.491	0.8
555.263	0.877
564.035	0.892
572.807	0.9
581.579	0.907
590.351	0.911
599.123	0.903
607.895	0.867
616.667	0.446
625.439	0.386
634.211	0.745
642.983	0.796
651.755	0.848
660.527	0.872
669.299	0.918
678.071	0.918
686.843	0.918
695.615	0.918
704.387	0.797
713.159	0.87
721.93	0.993
730.702	0.994
739.474	0.986
748.246	0.978
757.018	0.928
765.79	0.957
774.562	0.95
783.334	0.913
792.106	0.762
800.878	0.2
809.65	0.178
818.422	0.525
827.194	0.804
835.966	0.75
844.738	0.792
853.51	0.785
862.282	0.786
871.054	0.816
879.826	0.853
888.598	0.892
897.37	0.92
906.142	0.935
914.914	0.942
923.685	0.942
932.457	0.935
941.229	0.908
950.001	0.904
958.773	0.912
967.545	0.885
976.317	0.903
985.089	0.901
993.861	0.893
1002.63	0.889
1011.41	0.803
1020.18	0.4543
1028.95	0.752
1037.72	0.5509
1046.49	0.1469
1055.26	0.024
1064.04	0.467
1072.81	0.493
1081.58	0.48
1090.35	0.103
1099.12	0.3901
1107.9	0.692
1116.67	0.726
1125.44	0.874
1134.21	0.874
1142.98	0.894
1151.76	0.898
1160.53	0.89
1169.3	0.878
1178.07	0.5661
1186.84	0.812
1195.62	0.842
1204.39	0.84
1213.16	0.807
1221.93	0.871
1230.7	0.886
1239.48	0.883
1248.25	0.896
1257.02	0.912
1265.79	0.92
1274.56	0.92
1283.34	0.912
1292.11	0.882
1300.88	0.8248
1309.65	0.863
1318.42	0.9
1327.2	0.898
1335.97	0.887
1344.74	0.886
1353.51	0.882
1362.28	0.877
1371.06	0.852
1379.83	0.699
1388.6	0.796
1397.37	0.6309
1406.14	0.6511
1414.92	0.747
1423.69	0.763
1432.46	0.739
1441.23	0.67
1450	0.602
1458.77	0.607
1467.55	0.683
1476.32	0.704
1485.09	0.669
1493.86	0.1841
1502.63	0.65
1511.41	0.676
1520.18	0.659
1528.95	0.624
1537.72	0.554
1546.49	0.482
1555.27	0.479
1564.04	0.543
1572.81	0.598
1581.58	0.606
1590.35	0.609
1599.13	0.441
1607.9	0.751
1616.67	0.814
1625.44	0.834
1634.21	0.841
1642.99	0.836
1651.76	0.84
1660.53	0.863
1669.3	0.892
1678.07	0.897
1686.85	0.903
1695.62	0.912
1704.39	0.918
1713.16	0.919
1721.93	0.919
1730.71	0.919
1739.48	0.916
1748.25	0.904
1757.02	0.905
1765.79	0.915
1774.57	0.92
1783.34	0.919
1792.11	0.908
1800.88	0.868
1809.65	0.893
1818.43	0.911
1827.2	0.918
1835.97	0.92
1844.74	0.916
1853.51	0.913
1862.28	0.915
1871.06	0.912
1879.83	0.903
1888.6	0.893
1897.37	0.89
1906.14	0.815
1914.92	0.855
1923.69	0.9
1932.46	0.903
1941.23	0.912
1950	0.919
1958.78	0.919
1967.55	0.916
1976.32	0.92
1985.09	0.92
1993.86	0.919
2002.64	0.915
2011.41	0.9125
2020.18	0.915
2028.95	0.916
2037.72	0.916
2046.5	0.916
2055.27	0.916
2064.04	0.915
2072.81	0.9124
2081.58	0.909
2090.36	0.8987
2099.13	0.8953
2107.9	0.899
2116.67	0.9083
2125.44	0.913
2134.22	0.9099
2142.99	0.9016
2151.76	0.9047
2160.53	0.912
2169.3	0.9113
2178.08	0.912
2186.85	0.913
2195.62	0.915
2204.39	0.916
2213.16	0.918
2221.94	0.918
2230.71	0.9163
2239.48	0.915
2248.25	0.912
2257.02	0.909
2265.79	0.9031
2274.57	0.8943
2283.34	0.886
2292.11	0.8741
2300.88	0.8867
2309.65	0.8939
2318.43	0.896
2327.2	0.897
2335.97	0.9
2344.74	0.905
2353.51	0.908
2362.29	0.911
2371.06	0.912
2379.83	0.905
2388.6	0.901
2397.37	0.9
2406.15	0.901
2414.92	0.903
2423.69	0.905
2432.46	0.905
2441.23	0.9053
2450.01	0.907
2458.78	0.907
2467.55	0.9072
2476.32	0.909
2485.09	0.909
2493.87	0.909
2502.64	0.9088
2511.41	0.9048
2520.18	0.9072
2528.95	0.911
2537.73	0.911
2546.5	0.908
2555.27	0.9047
2564.04	0.9
2572.81	0.894
2581.59	0.892
2590.36	0.893
2599.13	0.8987
2607.9	0.897
2616.67	0.8981
2625.45	0.904
2634.22	0.904
2642.99	0.904
2651.76	0.9036
2660.53	0.9
2669.3	0.896
2678.08	0.8975
2686.85	0.897
2695.62	0.8975
2704.39	0.9
2713.16	0.9
2721.94	0.8954
2730.71	0.8788
2739.48	0.873
2748.25	0.8936
2757.02	0.897
2765.8	0.8952
2774.57	0.897
2783.34	0.8924
2792.11	0.887
2800.88	0.887
2809.66	0.887
2818.43	0.8837
2827.2	0.8776
2835.97	0.8666
2844.74	0.8475
2853.52	0.804
2862.29	0.7297
2871.06	0.6917
2879.83	0.7313
2888.6	0.758
2897.38	0.765
2906.15	0.752
2914.92	0.6368
2923.69	0.5192
2932.46	0.6235
2941.24	0.678
2950.01	0.6691
2958.78	0.673
2967.55	0.678
2976.32	0.6635
2985.1	0.6657
2993.87	0.7103
3002.64	0.7359
3011.41	0.6846
3020.18	0.6243
3028.96	0.643
3037.73	0.613
3046.5	0.5991
3055.27	0.6421
3064.04	0.7431
3072.81	0.756
3081.59	0.7721
3090.36	0.8301
3099.13	0.8375
3107.9	0.8642
3116.67	0.8701
3125.45	0.874
3134.22	0.874
3142.99	0.874
3151.76	0.875
3160.53	0.877
3169.31	0.877
3178.08	0.879
3186.85	0.883
3195.62	0.886
3204.39	0.887
3213.17	0.887
3221.94	0.887
3230.71	0.887
3239.48	0.887
3248.25	0.887
3257.03	0.887
3265.8	0.887
3274.57	0.887
3283.34	0.885
3292.11	0.882
3300.89	0.881
3309.66	0.8786
3318.43	0.8762
3327.2	0.874
3335.97	0.871
3344.75	0.868
3353.52	0.868
3362.29	0.868
3371.06	0.867
3379.83	0.867
3388.61	0.866
3397.38	0.866
3406.15	0.864
3414.92	0.864
3423.69	0.864
3432.47	0.8635
3441.24	0.863
3450.01	0.8624
3458.78	0.8626
3467.55	0.864
3476.32	0.864
3485.1	0.864
3493.87	0.866
3502.64	0.867
3511.41	0.8693
3520.18	0.872
3528.96	0.8764
3537.73	0.879
3546.5	0.883
3555.27	0.885
3564.04	0.885
3572.82	0.885
3581.59	0.885
3590.36	0.8885
3599.13	0.892
3607.9	0.892
3616.68	0.893
3625.45	0.896
3634.22	0.897
3642.99	0.897
3651.76	0.896
3660.54	0.893
3669.31	0.893
3678.08	0.892
3686.85	0.892
3695.62	0.8958
3704.4	0.9
3713.17	0.9009
3721.94	0.901
3730.71	0.903
3739.48	0.905
3748.26	0.907
3757.03	0.908
3765.8	0.908
3774.57	0.907
3783.34	0.9069
3792.12	0.9049
