Infrared Spectrum: PENTADECANOYL CHLORIDE
Formula: C15 H29 Cl O
CAS: 17746-08-6
State: SOLUTION (10% CCl4 FOR 3800-1330, 10% CS2 FOR 1330-400 CM^-^1)
Class: COBLENTZ III
Instrument: BECKMAN IR-9 (GRATING)
Instrument parameters: ORDER CHANGES: 670, 1200, 2000 CM^-^1
Sampling: TRANSMISSION
Path length: 0.011 CM, 0.011 CM
Resolution: 2
Origin: DOW CHEMICAL COMPANY
1/CM	TRANSMITTANCE
3800	0.8937
3791	0.8941
3782	0.8913
3773	0.8931
3764	0.8948
3755	0.8952
3746	0.8957
3737	0.8973
3728	0.8974
3719	0.8959
3710	0.8978
3701	0.8985
3692	0.8968
3683	0.8945
3674	0.8937
3665	0.8929
3656	0.8919
3647	0.891
3638	0.8899
3629	0.8884
3620	0.8887
3611	0.8861
3602	0.8816
3593	0.8785
3584	0.8755
3575	0.8738
3566	0.8754
3557	0.8781
3548	0.8852
3539	0.889
3530	0.8936
3521	0.8946
3512	0.8959
3503	0.896
3494	0.8961
3485	0.8955
3476	0.895
3467	0.8944
3458	0.8934
3449	0.8924
3440	0.8912
3431	0.8903
3422	0.8901
3413	0.8899
3404	0.8897
3395	0.8894
3386	0.8893
3377	0.8893
3368	0.8897
3359	0.89
3350	0.8904
3341	0.8908
3332	0.8909
3323	0.891
3314	0.8912
3305	0.8928
3296	0.8915
3287	0.8915
3278	0.8927
3269	0.8931
3260	0.8927
3251	0.8923
3242	0.8908
3233	0.8884
3224	0.8863
3215	0.8844
3206	0.8815
3197	0.8816
3188	0.8809
3179	0.878
3170	0.877
3161	0.8765
3152	0.8762
3143	0.8737
3134	0.874
3125	0.8727
3116	0.8707
3107	0.8679
3098	0.8664
3089	0.8638
3080	0.8575
3071	0.8552
3062	0.8458
3053	0.8362
3044	0.8296
3035	0.8192
3026	0.799
3017	0.7824
3008	0.7547
2999	0.7133
2990	0.6265
2981	0.5162
2972	0.2457
2963	0.0827
2954	0.065
2945	0.0192
2936	0.0046
2927	0.0095
2918	0.0294
2909	0.1006
2900	0.1674
2891	0.2662
2882	0.3038
2873	0.1908
2864	0.0303
2855	0.0307
2846	0.219
2837	0.6373
2828	0.6899
2819	0.733
2810	0.7604
2801	0.7824
2792	0.8
2783	0.8141
2774	0.8257
2765	0.8291
2756	0.8295
2747	0.8291
2738	0.8291
2729	0.8304
2720	0.8358
2711	0.8379
2702	0.8355
2693	0.8322
2684	0.8301
2675	0.832
2666	0.8357
2657	0.8409
2648	0.8444
2639	0.8487
2630	0.8538
2621	0.8596
2612	0.8638
2603	0.868
2594	0.872
2585	0.8759
2576	0.8796
2567	0.8833
2558	0.8853
2549	0.8859
2540	0.8859
2531	0.8859
2522	0.8883
2513	0.8907
2504	0.8934
2495	0.8959
2486	0.8973
2477	0.9
2468	0.9002
2459	0.9004
2450	0.8992
2441	0.8997
2432	0.8991
2423	0.8985
2414	0.8979
2405	0.8985
2396	0.8977
2387	0.8985
2378	0.9017
2369	0.902
2360	0.9015
2351	0.9037
2342	0.9029
2333	0.9013
2324	0.9044
2315	0.9035
2306	0.9024
2297	0.9032
2288	0.9027
2279	0.9037
2270	0.9012
2261	0.898
2252	0.895
2243	0.8923
2234	0.8939
2225	0.9013
2216	0.9042
2207	0.9074
2198	0.9083
2189	0.9075
2180	0.9083
2171	0.9103
2162	0.9094
2153	0.9099
2144	0.9101
2135	0.9102
2126	0.9102
2117	0.9095
2108	0.9092
2099	0.9085
2090	0.9072
2081	0.9058
2072	0.9047
2063	0.9038
2054	0.9043
2045	0.9016
2036	0.9005
2027	0.8998
2018	0.8991
2009	0.8967
2000	0.8839
1991	0.8868
1982	0.8889
1973	0.8863
1964	0.885
1955	0.8846
1946	0.8793
1937	0.8754
1928	0.871
1919	0.8667
1910	0.8615
1901	0.8532
1892	0.8431
1883	0.8326
1874	0.8214
1865	0.8006
1856	0.775
1847	0.7412
1838	0.6861
1829	0.5879
1820	0.3113
1811	0.083
1802	0.0311
1793	0.0936
1784	0.3931
1775	0.6336
1766	0.6987
1757	0.7415
1748	0.7614
1739	0.745
1730	0.7964
1721	0.7895
1712	0.7102
1703	0.8039
1694	0.8648
1685	0.8818
1676	0.8901
1667	0.8948
1658	0.8952
1649	0.8951
1640	0.8951
1631	0.8982
1622	0.8996
1613	0.9012
1604	0.8957
1595	0.8854
1586	0.8529
1577	0.8473
1568	0.8219
1559	0.8158
1550	0.8392
1541	0.8749
1532	0.8594
1523	0.8661
1514	0.8818
1505	0.8821
1496	0.863
1487	0.8375
1478	0.807
1469	0.283
1460	0.3799
1451	0.5235
1442	0.6515
1433	0.7461
1424	0.7734
1415	0.7552
1406	0.5799
1397	0.801
1388	0.8197
1379	0.6826
1370	0.7489
1361	0.773
1352	0.7669
1343	0.7626
1334	0.8079
1325	0.8116
1316	0.7941
1307	0.7772
1298	0.7864
1289	0.8005
1280	0.8148
1271	0.8356
1262	0.8457
1253	0.8532
1244	0.8605
1235	0.8694
1226	0.8745
1217	0.8725
1208	0.8643
1199	0.852
1190	0.8471
1181	0.8434
1172	0.8455
1163	0.8468
1154	0.8473
1145	0.8387
1136	0.7841
1127	0.7314
1118	0.7873
1109	0.8393
1100	0.8363
1091	0.8255
1082	0.8255
1073	0.8184
1064	0.8138
1055	0.7873
1046	0.7474
1037	0.716
1028	0.7053
1019	0.6893
1010	0.6688
1001	0.624
992	0.6045
983	0.6107
974	0.6102
965	0.552
956	0.4824
947	0.528
938	0.5795
929	0.6073
920	0.6664
911	0.708
902	0.748
893	0.7837
884	0.8161
875	0.8208
866	0.8212
857	0.8477
848	0.9475
839	0.9194
830	0.8914
821	0.8807
812	0.8941
803	0.9027
794	0.8892
785	0.8707
776	0.8437
767	0.8137
758	0.7774
749	0.7276
740	0.629
731	0.4695
722	0.4304
713	0.5885
704	0.8021
695	0.8449
686	0.6493
677	0.6954
668	0.9086
659	0.9063
650	0.9238
641	0.9393
632	0.942
623	0.937
614	0.9086
605	0.8296
596	0.7406
587	0.7566
578	0.7467
569	0.6725
560	0.8349
551	0.8876
542	0.9106
533	0.9207
524	0.9215
515	0.9048
506	0.883
497	0.8765
488	0.8722
479	0.8597
470	0.8236
461	0.7634
452	0.6809
443	0.5473
434	0.4958
425	0.475
416	0.4572
407	0.547
