Infrared Spectrum: 2-Bromo-1-indanone
Formula: C 9 H 7 Br O
CAS: 1775-27-5
State: gas
Origin: EPA-IR VAPOR PHASE LIBRARY
1/CM	ABSORBANCE
549.8	0.00248
559.445	0.0021033
569.09	0.001177
578.734	0.0015766
588.379	0.00283
598.024	0.00718
607.669	0.00718
617.313	0.00297
626.958	0.0027
636.603	0.0022444
646.248	0.001995
655.893	0.00299
665.537	0.00634
675.182	0.00973
684.827	0.00702
694.472	0.00333
704.116	0.00254
713.761	0.00266
723.406	0.00506
733.051	0.01308
742.695	0.01863
752.34	0.01091
761.985	0.00388
771.63	0.00331
781.275	0.00355
790.919	0.00292
800.564	0.00251
810.209	0.0022763
819.854	0.0020067
829.498	0.00494
839.143	0.00493
848.788	0.00278
858.433	0.0023151
868.078	0.00140854
877.722	0.00112
887.367	0.0016726
897.012	0.0017932
906.657	0.0019098
916.301	0.001257
925.946	0.0020553
935.591	0.0033
945.236	0.0021455
954.88	0.00281
964.525	0.00322
974.17	0.00336
983.815	0.00374
993.46	0.00382
1003.1	0.00515
1012.75	0.00772
1022.39	0.00788
1032.04	0.00431
1041.68	0.0018496
1051.33	0.00248
1060.97	0.00246
1070.62	0.0021316
1080.26	0.00519
1089.91	0.00736
1099.55	0.00419
1109.2	0.0022496
1118.84	0.00362
1128.49	0.00267
1138.13	0.00268
1147.78	0.0057
1157.42	0.00473
1167.07	0.00621
1176.71	0.00787
1186.36	0.00733
1196	0.00748
1205.64	0.0081
1215.29	0.00417
1224.93	0.00283
1234.58	0.0036
1244.22	0.0033
1253.87	0.00485
1263.51	0.0115
1273.16	0.01364
1282.8	0.00646
1292.45	0.00819
1302.09	0.00835
1311.74	0.00711
1321.38	0.00623
1331.03	0.00427
1340.67	0.0032
1350.32	0.0022589
1359.96	0.0015721
1369.61	0.0015432
1379.25	0.00125
1388.9	0.001348
1398.54	0.0015605
1408.18	0.0016052
1417.83	0.00238
1427.47	0.00314
1437.12	0.00415
1446.76	0.00413
1456.41	0.00533
1466.05	0.00893
1475.7	0.00677
1485.34	0.00306
1494.99	0.0022227
1504.63	0.001693
1514.28	0.0016718
1523.92	0.00138494
1533.57	0.0017238
1543.21	0.0017121
1552.86	0.0018311
1562.5	0.0019824
1572.15	0.00252
1581.79	0.00422
1591.44	0.00635
1601.08	0.01115
1610.73	0.01467
1620.37	0.00864
1630.01	0.00299
1639.66	0.0019236
1649.3	0.0019624
1658.95	0.0017311
1668.59	0.0021578
1678.24	0.0022859
1687.88	0.00312
1697.53	0.00397
1707.17	0.00474
1716.82	0.00635
1726.46	0.01293
1736.11	0.03545
1745.75	0.07111
1755.4	0.06027
1765.04	0.01811
1774.69	0.00606
1784.33	0.00333
1793.98	0.00249
1803.62	0.002112
1813.27	0.0023087
1822.91	0.00243
1832.55	0.0020114
1842.2	0.0019796
1851.84	0.0017732
1861.49	0.0015126
1871.13	0.001235
1880.78	0.00142842
1890.42	0.0015356
1900.07	0.0015184
1909.71	0.0015678
1919.36	0.00174
1929	0.0015867
1938.65	0.0017399
1948.29	0.001688
1957.94	0.0018855
1967.58	0.0017882
1977.23	0.001166
1986.87	0.0013151
1996.52	0.001228
2006.16	0.0012674
2015.81	0.001235
2025.45	0.00143616
2035.1	0.001249
2044.74	0.0013842
2054.38	0.001064
2064.03	0.001201
2073.67	0.001009
2083.32	0.000921
2092.96	0.000867
2102.61	0.00135109
2112.25	0.001032
2121.9	0.000863
2131.54	0.00085
2141.19	0.001006
2150.83	0.001251
2160.48	0.00088
2170.12	0.001346
2179.77	0.001032
2189.41	0.000967
2199.06	0.001035
2208.7	0.001149
2218.35	0.001113
2227.99	0.001146
2237.64	0.000931
2247.28	0.001003
2256.92	0.001152
2266.57	0.001042
2276.21	0.000972
2285.86	0.00139565
2295.5	0.001045
2305.15	0.0015569
2314.79	0.001245
2324.44	0.0015059
2334.08	0.001149
2343.73	0.0012664
2353.37	0.0013253
2363.02	0.0015237
2372.66	0.0012883
2382.31	0.000927
2391.95	0.000962
2401.6	0.000804
2411.24	0.001125
2420.89	0.001125
2430.53	0.00103
2440.18	0.000985
2449.82	0.000831
2459.47	0.000714
2469.11	0.000908
2478.75	0.001005
2488.4	0.001041
2498.04	0.001034
2507.69	0.000945
2517.33	0.0013077
2526.98	0.000881
2536.62	0.001141
2546.27	0.001087
2555.91	0.000809
2565.56	0.000801
2575.2	0.001247
2584.85	0.001195
2594.49	0.00139202
2604.14	0.001104
2613.78	0.0012955
2623.43	0.000799
2633.07	0.001011
2642.72	0.00109
2652.36	0.0015178
2662.01	0.001193
2671.65	0.0012895
2681.29	0.001116
2690.94	0.001084
2700.58	0.001055
2710.23	0.00097
2719.87	0.000987
2729.52	0.000819
2739.16	0.00103
2748.81	0.00111
2758.45	0.000856
2768.1	0.001297
2777.74	0.001045
2787.39	0.001255
2797.03	0.001019
2806.68	0.001205
2816.32	0.000739
2825.97	0.0015946
2835.61	0.000889
2845.26	0.0016499
2854.9	0.0019769
2864.55	0.0020822
2874.19	0.0016413
2883.84	0.0012764
2893.48	0.0019574
2903.12	0.0021268
2912.77	0.00302
2922.41	0.00318
2932.06	0.00329
2941.7	0.00336
2951.35	0.00336
2960.99	0.00332
2970.64	0.0021134
2980.28	0.00139912
2989.93	0.0016152
2999.57	0.0019975
3009.22	0.001669
3018.86	0.0021703
3028.51	0.00281
3038.15	0.00409
3047.8	0.00452
3057.44	0.00432
3067.09	0.00544
3076.73	0.00762
3086.38	0.00646
3096.02	0.0035
3105.67	0.0015162
3115.31	0.00105
3124.95	0.001067
3134.6	0.0008
3144.24	0.000952
3153.89	0.001052
3163.53	0.001198
3173.18	0.000899
3182.82	0.000636
3192.47	0.000991
3202.11	0.001238
3211.76	0.0013636
3221.4	0.000886
3231.05	0.000712
3240.69	0.000691
3250.34	0.000841
3259.98	0.000976
3269.63	0.000936
3279.27	0.000831
3288.92	0.000721
3298.56	0.00135995
3308.21	0.001028
3317.85	0.0013447
3327.49	0.0016138
3337.14	0.000995
3346.78	0.001199
3356.43	0.000881
3366.07	0.000964
3375.72	0.00019
3385.36	0.000983
3395.01	0.00122
3404.65	0.001052
3414.3	0.0012685
3423.94	0.00141353
3433.59	0.001147
3443.23	0.0013157
3452.88	0.0015226
3462.52	0.0017511
3472.17	0.00261
3481.81	0.0020045
3491.46	0.0017748
3501.1	0.001154
3510.75	0.0014719
3520.39	0.000931
3530.04	0.000786
3539.68	0.000422
3549.32	0.000936
3558.97	0.0015155
3568.61	0.0012934
3578.26	0.000745
3587.9	0.0013325
3597.55	0.000795
3607.19	0.001233
3616.84	0.0013296
3626.48	0.000696
3636.13	0.0015037
3645.77	0.000533
3655.42	0.001054
3665.06	0.000904
3674.71	0.000428
3684.35	0.000542
3694	0.0012857
3703.64	0.000621
3713.29	0.00142579
3722.93	0.000934
3732.58	0.000399
3742.22	0.0015239
3751.86	0.000783
3761.51	0.00138259
3771.15	0.000935
3780.8	0.00138993
3790.44	0.001244
3800.09	0.00137774
3809.73	0.000838
3819.38	0.000987
3829.02	0.00086
3838.67	0.001141
3848.31	0.001018
3857.96	0.001163
3867.6	0
3877.25	0.000909
3886.89	0.0015101
3896.54	0.00109
3906.18	0.001066
3915.83	0.001096
3925.47	0.00145179
3935.12	0.000579
3944.76	0.000613
3954.41	0.001028
3964.05	0.00113
3973.69	0.00108
3983.34	0.000486
3992.98	0.00105
