Infrared Spectrum: P-PHENYLENEDIAMINE, N,N'-DIMETHYL-N,N'-DIPHENYL-
Formula: C20 H20 N2
CAS: 17754-68-6
State: SOLID (KBr PELLET)
Class: COBLENTZ
Instrument: Not specified, most likely a prism, grating, or hybrid spectrometer.
Sampling: TRANSMISSION
Resolution: 4
Origin: TENNESSEE EASTMAN COMPANY, RESEARCH LABORATORIES
MICROMETERS	TRANSMITTANCE
2.041	0.716
2.08203	0.726
2.12306	0.733
2.16409	0.74
2.20512	0.752
2.24615	0.759
2.28718	0.767
2.32821	0.773
2.36925	0.779
2.41028	0.784
2.45131	0.786
2.49234	0.798
2.53337	0.803
2.5744	0.807
2.61543	0.81
2.65646	0.82
2.69749	0.82
2.73852	0.817
2.77955	0.808
2.82058	0.796
2.86161	0.783
2.90264	0.779
2.94368	0.795
2.98471	0.813
3.02574	0.836
3.06677	0.841
3.1078	0.851
3.14883	0.861
3.18986	0.861
3.23089	0.834
3.27192	0.757
3.31295	0.8
3.35398	0.803
3.39501	0.771
3.43604	0.761
3.47707	0.832
3.51811	0.793
3.55914	0.875
3.60017	0.902
3.6412	0.912
3.68223	0.919
3.72326	0.921
3.76429	0.919
3.80532	0.919
3.84635	0.918
3.88738	0.907
3.92841	0.923
3.96944	0.93
4.01047	0.933
4.0515	0.94
4.09254	0.94
4.13357	0.941
4.1746	0.945
4.21563	0.948
4.25666	0.947
4.29769	0.947
4.33872	0.947
4.37975	0.952
4.42078	0.955
4.46181	0.96
4.50284	0.964
4.54387	0.965
4.5849	0.965
4.62593	0.965
4.66696	0.965
4.708	0.964
4.74903	0.964
4.79006	0.965
4.83109	0.965
4.87212	0.967
4.91315	0.969
4.95418	0.969
4.99521	0.979
5.03624	0.974
5.07727	0.967
5.1183	0.959
5.15933	0.924
5.20036	0.933
5.24139	0.952
5.28243	0.96
5.32346	0.969
5.36449	0.959
5.40552	0.953
5.44655	0.945
5.48758	0.955
5.52861	0.96
5.56964	0.952
5.61067	0.952
5.6517	0.948
5.69273	0.953
5.73376	0.945
5.77479	0.947
5.81582	0.94
5.85686	0.936
5.89789	0.899
5.93892	0.907
5.97995	0.904
6.02098	0.909
6.06201	0.899
6.10304	0.885
6.14407	0.839
6.1851	0.769
6.22613	0.179
6.26716	0.401
6.30819	0.619
6.34922	0.682
6.39025	0.848
6.43129	0.839
6.47232	0.824
6.51335	0.742
6.55438	0.22
6.59541	0.063
6.63644	0.04
6.67747	0.186
6.7185	0.6
6.75953	0.645
6.80056	0.738
6.84159	0.732
6.88262	0.808
6.92365	0.863
6.96468	0.878
7.00571	0.827
7.04675	0.822
7.08778	0.895
7.12881	0.909
7.16984	0.902
7.21087	0.902
7.2519	0.86
7.29293	0.827
7.33396	0.774
7.37499	0.566
7.41602	0.25
7.45705	0.235
7.49808	0.378
7.53911	0.457
7.58014	0.639
7.62118	0.715
7.66221	0.732
7.70324	0.786
7.74427	0.824
7.7853	0.839
7.82633	0.829
7.86736	0.738
7.90839	0.395
7.94942	0.44
7.99045	0.443
8.03148	0.641
8.07251	0.802
8.11354	0.849
8.15457	0.88
8.19561	0.89
8.23664	0.889
8.27767	0.926
8.3187	0.848
8.35973	0.752
8.40076	0.597
8.44179	0.747
8.48282	0.841
8.52385	0.849
8.56488	0.849
8.60591	0.849
8.64694	0.846
8.68797	0.831
8.729	0.752
8.77004	0.51
8.81107	0.399
8.8521	0.697
8.89313	0.725
8.93416	0.691
8.97519	0.689
9.01622	0.791
9.05725	0.841
9.09828	0.773
9.13931	0.569
9.18034	0.643
9.22137	0.825
9.2624	0.834
9.30343	0.725
9.34446	0.829
9.3855	0.88
9.42653	0.907
9.46756	0.921
9.50859	0.921
9.54962	0.921
9.59065	0.921
9.63168	0.885
9.67271	0.725
9.71374	0.832
9.75477	0.882
9.7958	0.901
9.83683	0.904
9.87786	0.909
9.91889	0.924
9.95993	0.924
10.001	0.817
10.042	0.655
10.083	0.807
10.124	0.899
10.1651	0.916
10.2061	0.923
10.2471	0.928
10.2882	0.931
10.3292	0.933
10.3702	0.924
10.4113	0.901
10.4523	0.931
10.4933	0.938
10.5344	0.941
10.5754	0.945
10.6164	0.948
10.6574	0.95
10.6985	0.95
10.7395	0.952
10.7805	0.957
10.8216	0.957
10.8626	0.957
10.9036	0.957
10.9447	0.957
10.9857	0.957
11.0267	0.957
11.0678	0.957
11.1088	0.957
11.1498	0.957
11.1908	0.957
11.2319	0.952
11.2729	0.938
11.3139	0.902
11.355	0.793
11.396	0.725
11.437	0.728
11.4781	0.506
11.5191	0.482
11.5601	0.709
11.6012	0.844
11.6422	0.878
11.6832	0.901
11.7242	0.895
11.7653	0.805
11.8063	0.605
11.8473	0.558
11.8884	0.773
11.9294	0.86
11.9704	0.902
12.0115	0.921
12.0525	0.926
12.0935	0.931
12.1346	0.933
12.1756	0.93
12.2166	0.935
12.2576	0.941
12.2987	0.947
12.3397	0.953
12.3807	0.964
12.4218	0.967
12.4628	0.97
12.5038	0.972
12.5449	0.972
12.5859	0.974
12.6269	0.972
12.668	0.972
12.709	0.974
12.75	0.974
12.791	0.972
12.8321	0.974
12.8731	0.972
12.9141	0.964
12.9552	0.952
12.9962	0.914
13.0372	0.822
13.0783	0.779
13.1193	0.761
13.1603	0.655
13.2014	0.348
13.2424	0.124
13.2834	0.146
13.3244	0.462
13.3655	0.74
13.4065	0.851
13.4475	0.907
13.4886	0.933
13.5296	0.948
13.5706	0.96
13.6117	0.972
13.6527	0.979
13.6937	0.986
13.7347	0.991
13.7758	0.996
13.8168	1
13.8578	1
13.8989	1
13.9399	1
13.9809	1
14.022	1
14.063	0.993
14.104	0.979
14.1451	0.948
14.1861	0.894
14.2271	0.766
14.2681	0.616
14.3092	0.431
14.3502	0.315
14.3912	0.382
14.4323	0.583
14.4733	0.781
14.5143	0.883
14.5554	0.943
14.5964	0.974
14.6374	0.988
14.6785	0.994
14.7195	0.998
14.7605	1.001
14.8015	1.001
14.8426	1.001
14.8836	1.001
14.9246	1
14.9657	1
15.0067	1.001
15.0477	1.001
15.0888	1.001
15.1298	1
15.1708	1
15.2119	0.996
15.2529	0.994
15.2939	0.993
15.3349	0.988
15.376	0.979
15.417	0.969
15.458	0.96
15.4991	0.95
15.5401	0.941
15.5811	0.93
15.6222	0.918
15.6632	0.904
15.7042	0.895
15.7453	0.882
15.7863	0.866
15.8273	0.851
15.8683	0.841
15.9094	0.827
15.9504	0.819
