Infrared Spectrum: CARBAMIC ACID, n-BUTYL-, 2-(BENZYLMETHYLAMINO)ETHYL ESTER HYDROCHLORIDE
Formula: C15 H25 Cl N2 O2
CAS: 17750-91-3
State: SOLID (OIL MULL)
Class: COBLENTZ III
Instrument: PERKIN-ELMER 21 (GRATING)
Instrument parameters: NaCl PRISM
Sampling: TRANSMISSION
Resolution: 2
Origin: SMITH KLINE & FRENCH LABS.
MICROMETERS	TRANSMITTANCE
1.995	0.798
2.02931	0.799
2.06363	0.804
2.09794	0.798
2.13225	0.795
2.16657	0.797
2.20088	0.809
2.23519	0.795
2.26951	0.799
2.30382	0.786
2.33813	0.784
2.37245	0.779
2.40676	0.772
2.44107	0.778
2.47539	0.781
2.5097	0.8
2.54401	0.823
2.57833	0.81
2.61264	0.825
2.64695	0.816
2.68127	0.819
2.71558	0.823
2.74989	0.836
2.78421	0.836
2.81852	0.861
2.85283	0.85
2.88715	0.849
2.92146	0.847
2.95577	0.839
2.99009	0.804
3.0244	0.655
3.05871	0.424
3.09303	0.227
3.12734	0.255
3.16165	0.322
3.19597	0.44
3.23028	0.515
3.26459	0.533
3.29891	0.415
3.33322	0.371
3.36753	0.26
3.40185	0.167
3.43616	0.1
3.47047	0.079
3.50479	0.068
3.5391	0.073
3.57341	0.234
3.60773	0.301
3.64204	0.32
3.67635	0.27
3.71066	0.239
3.74498	0.22
3.77929	0.168
3.8136	0.1
3.84792	0.101
3.88223	0.107
3.91654	0.132
3.95086	0.165
3.98517	0.18
4.01948	0.213
4.0538	0.268
4.08811	0.382
4.12242	0.509
4.15674	0.525
4.19105	0.539
4.22536	0.568
4.25968	0.585
4.29399	0.619
4.3283	0.7
4.36262	0.755
4.39693	0.82
4.43124	0.826
4.46556	0.839
4.49987	0.866
4.53418	0.877
4.5685	0.87
4.60281	0.88
4.63712	0.887
4.67144	0.889
4.70575	0.9
4.74006	0.911
4.77438	0.918
4.80869	0.913
4.843	0.919
4.87732	0.916
4.91163	0.915
4.94594	0.918
4.98026	0.924
5.01457	0.925
5.04888	0.918
5.0832	0.907
5.11751	0.881
5.15182	0.921
5.18614	0.933
5.22045	0.915
5.25476	0.905
5.28908	0.902
5.32339	0.924
5.3577	0.925
5.39202	0.915
5.42633	0.914
5.46064	0.882
5.49496	0.85
5.52927	0.864
5.56358	0.87
5.5979	0.854
5.63221	0.834
5.66652	0.779
5.70084	0.694
5.73515	0.501
5.76946	0.244
5.80378	0.085
5.83809	0.073
5.8724	0.102
5.90672	0.402
5.94103	0.541
5.97534	0.594
6.00966	0.69
6.04397	0.748
6.07828	0.773
6.1126	0.793
6.14691	0.783
6.18122	0.79
6.21554	0.765
6.24985	0.748
6.28416	0.721
6.31848	0.7
6.35279	0.629
6.3871	0.482
6.42142	0.282
6.45573	0.113
6.49004	0.105
6.52436	0.102
6.55867	0.171
6.59298	0.371
6.6273	0.48
6.66161	0.42
6.69592	0.484
6.73024	0.35
6.76455	0.221
6.79886	0.122
6.83318	0.089
6.86749	0.091
6.9018	0.09
6.93611	0.13
6.97043	0.195
7.00474	0.283
7.03905	0.255
7.07337	0.38
7.10768	0.355
7.14199	0.484
7.17631	0.53
7.21062	0.444
7.24493	0.264
7.27925	0.22
7.31356	0.301
7.34787	0.344
7.38219	0.348
7.4165	0.345
7.45081	0.358
7.48513	0.399
7.51944	0.462
7.55375	0.507
7.58807	0.482
7.62238	0.436
7.65669	0.392
7.69101	0.409
7.72532	0.383
7.75963	0.389
7.79395	0.355
7.82826	0.257
7.86257	0.264
7.89689	0.279
7.9312	0.233
7.96551	0.157
7.99983	0.101
8.03414	0.079
8.06845	0.078
8.10277	0.094
8.13708	0.152
8.17139	0.2
8.20571	0.264
8.24002	0.341
8.27433	0.498
8.30865	0.591
8.34296	0.633
8.37727	0.66
8.41159	0.68
8.4459	0.673
8.48021	0.652
8.51453	0.475
8.54884	0.338
8.58315	0.413
8.61747	0.502
8.65178	0.386
8.68609	0.29
8.72041	0.256
8.75472	0.267
8.78903	0.293
8.82335	0.299
8.85766	0.299
8.89197	0.35
8.92629	0.333
8.9606	0.386
8.99491	0.488
9.02923	0.591
9.06354	0.652
9.09785	0.65
9.13217	0.589
9.16648	0.58
9.20079	0.611
9.23511	0.647
9.26942	0.621
9.30373	0.553
9.33805	0.564
9.37236	0.529
9.40667	0.432
9.44099	0.272
9.4753	0.273
9.50961	0.334
9.54393	0.427
9.57824	0.517
9.61255	0.599
9.64687	0.643
9.68118	0.574
9.71549	0.578
9.74981	0.649
9.78412	0.698
9.81843	0.72
9.85275	0.69
9.88706	0.639
9.92137	0.563
9.95569	0.497
9.99	0.469
10.0243	0.52
10.0586	0.559
10.0929	0.551
10.1273	0.566
10.1616	0.578
10.1959	0.551
10.2302	0.533
10.2645	0.546
10.2988	0.599
10.3331	0.652
10.3674	0.69
10.4018	0.71
10.4361	0.712
10.4704	0.706
10.5047	0.685
10.539	0.646
10.5733	0.607
10.6076	0.585
10.642	0.583
10.6763	0.592
10.7106	0.603
10.7449	0.649
10.7792	0.668
10.8135	0.667
10.8478	0.685
10.8821	0.716
10.9165	0.745
10.9508	0.72
10.9851	0.667
11.0194	0.546
11.0537	0.513
11.088	0.509
11.1223	0.553
11.1567	0.601
11.191	0.705
11.2253	0.751
11.2596	0.801
11.2939	0.81
11.3282	0.821
11.3625	0.82
11.3968	0.81
11.4312	0.808
11.4655	0.805
11.4998	0.804
11.5341	0.809
11.5684	0.837
11.6027	0.847
11.637	0.861
11.6714	0.866
11.7057	0.869
11.74	0.849
11.7743	0.849
11.8086	0.848
11.8429	0.852
11.8772	0.86
11.9115	0.867
11.9459	0.863
11.9802	0.834
12.0145	0.806
12.0488	0.809
12.0831	0.823
12.1174	0.848
12.1517	0.855
12.186	0.86
12.2204	0.861
12.2547	0.863
12.289	0.86
12.3233	0.855
12.3576	0.85
12.3919	0.844
12.4262	0.838
12.4606	0.816
12.4949	0.811
12.5292	0.817
12.5635	0.825
12.5978	0.842
12.6321	0.859
12.6664	0.869
12.7007	0.865
12.7351	0.847
12.7694	0.816
12.8037	0.746
12.838	0.6
12.8723	0.469
12.9066	0.481
12.9409	0.591
12.9753	0.688
13.0096	0.751
13.0439	0.777
13.0782	0.787
13.1125	0.795
13.1468	0.787
13.1811	0.781
13.2154	0.771
13.2498	0.716
13.2841	0.674
13.3184	0.602
13.3527	0.479
13.387	0.308
13.4213	0.222
13.4556	0.16
13.49	0.155
13.5243	0.195
13.5586	0.265
13.5929	0.345
13.6272	0.429
13.6615	0.503
13.6958	0.569
13.7301	0.597
13.7645	0.617
13.7988	0.634
13.8331	0.641
13.8674	0.654
13.9017	0.656
13.936	0.66
13.9703	0.667
14.0047	0.676
14.039	0.671
14.0733	0.666
14.1076	0.652
14.1419	0.612
14.1762	0.552
14.2105	0.473
14.2448	0.341
14.2792	0.26
14.3135	0.213
14.3478	0.21
14.3821	0.26
14.4164	0.374
14.4507	0.465
14.485	0.52
14.5194	0.58
14.5537	0.6
14.588	0.611
14.6223	0.618
14.6566	0.614
14.6909	0.612
14.7252	0.61
14.7595	0.608
14.7939	0.606
14.8282	0.605
14.8625	0.602
14.8968	0.601
