Infrared Spectrum: Bis(2-Chlorophenyl)phosphorochloridate
Formula: C 12 H 8 Cl 3 O 3 P
CAS: 17776-78-2
State: gas
Origin: EPA-IR VAPOR PHASE LIBRARY
1/CM	ABSORBANCE
549.9	0.03762
559.547	0.05833
569.193	0.05998
578.84	0.06098
588.486	0.06677
598.133	0.06279
607.779	0.06302
617.426	0.06936
627.072	0.0523
636.719	0.03036
646.365	0.01778
656.012	0.01486
665.658	0.02459
675.305	0.05258
684.951	0.03613
694.598	0.0181
704.245	0.0176
713.891	0.01998
723.538	0.0173
733.184	0.03061
742.831	0.08614
752.477	0.14837
762.124	0.11036
771.77	0.0825
781.417	0.05204
791.063	0.02372
800.71	0.01364
810.356	0.01042
820.003	0.00937
829.649	0.00924
839.296	0.00981
848.943	0.01181
858.589	0.01296
868.236	0.01264
877.882	0.01464
887.529	0.01738
897.175	0.0193
906.822	0.02412
916.468	0.0375
926.115	0.07724
935.761	0.15515
945.408	0.21398
955.054	0.32419
964.701	0.45748
974.347	0.30573
983.994	0.11763
993.64	0.05424
1003.29	0.03279
1012.93	0.02514
1022.58	0.03178
1032.23	0.07219
1041.87	0.05502
1051.52	0.06836
1061.17	0.16247
1070.81	0.08724
1080.46	0.03048
1090.11	0.01637
1099.75	0.01191
1109.4	0.01029
1119.05	0.01184
1128.69	0.02074
1138.34	0.02124
1147.99	0.01327
1157.63	0.02184
1167.28	0.01846
1176.92	0.02401
1186.57	0.04233
1196.22	0.1008
1205.86	0.32865
1215.51	0.43966
1225.16	0.18735
1234.8	0.13941
1244.45	0.07277
1254.1	0.0483
1263.74	0.07781
1273.39	0.05071
1283.04	0.03011
1292.68	0.02648
1302.33	0.03371
1311.98	0.0671
1321.62	0.12327
1331.27	0.12162
1340.92	0.08258
1350.56	0.03169
1360.21	0.016
1369.86	0.01203
1379.5	0.01242
1389.15	0.01193
1398.79	0.0105
1408.44	0.01194
1418.09	0.01381
1427.73	0.0155
1437.38	0.03534
1447.03	0.08063
1456.67	0.0443
1466.32	0.08814
1475.97	0.28862
1485.61	0.19576
1495.26	0.06065
1504.91	0.03635
1514.55	0.02007
1524.2	0.01345
1533.85	0.01059
1543.49	0.0095
1553.14	0.01097
1562.79	0.01651
1572.43	0.03456
1582.08	0.05897
1591.73	0.02776
1601.37	0.0122
1611.02	0.00828
1620.67	0.00673
1630.31	0.00631
1639.96	0.00619
1649.6	0.0058573
1659.25	0.0056212
1668.9	0.0059311
1678.54	0.00711
1688.19	0.00755
1697.84	0.00727
1707.48	0.00776
1717.13	0.00798
1726.78	0.00774
1736.42	0.00712
1746.07	0.00605
1755.72	0.005297
1765.36	0.0052238
1775.01	0.00644
1784.66	0.00866
1794.3	0.00752
1803.95	0.0059434
1813.6	0.00612
1823.24	0.00678
1832.89	0.0057535
1842.54	0.0049955
1852.18	0.00453
1861.83	0.004783
1871.47	0.0056258
1881.12	0.00598
1890.77	0.00674
1900.41	0.00893
1910.06	0.00959
1919.71	0.00687
1929.35	0.00651
1939	0.00816
1948.65	0.00666
1958.29	0.00496549
1967.94	0.00500401
1977.59	0.0053733
1987.23	0.0052862
1996.88	0.0051088
2006.53	0.0052734
2016.17	0.0049287
2025.82	0.004329
2035.47	0.004287
2045.11	0.004097
2054.76	0.00358
2064.41	0.00334
2074.05	0.00311
2083.7	0.00305
2093.35	0.00303
2102.99	0.00294
2112.64	0.00297
2122.28	0.00295
2131.93	0.00301
2141.58	0.00324
2151.22	0.0036
2160.87	0.00346
2170.52	0.00312
2180.16	0.00303
2189.81	0.00313
2199.46	0.00317
2209.1	0.00314
2218.75	0.00323
2228.4	0.00331
2238.04	0.00332
2247.69	0.00351
2257.34	0.00368
2266.98	0.00357
2276.63	0.00352
2286.28	0.00359
2295.92	0.00356
2305.57	0.00334
2315.22	0.0036
2324.86	0.00367
2334.51	0.00324
2344.16	0.00298
2353.8	0.00299
2363.45	0.00295
2373.09	0.0029
2382.74	0.00291
2392.39	0.00299
2402.03	0.00308
2411.68	0.00326
2421.33	0.00355
2430.97	0.003976
2440.62	0.004172
2450.27	0.0038
2459.91	0.00341
2469.56	0.00318
2479.21	0.00323
2488.85	0.0031
2498.5	0.00303
2508.15	0.00303
2517.79	0.00308
2527.44	0.00325
2537.09	0.00362
2546.73	0.00393
2556.38	0.00373
2566.03	0.00303
2575.67	0.00256
2585.32	0.00231
2594.96	0.00223
2604.61	0.00223
2614.26	0.00222
2623.9	0.00226
2633.55	0.00218
2643.2	0.00228
2652.84	0.00225
2662.49	0.00217
2672.14	0.00189
2681.78	0.00196
2691.43	0.00197
2701.08	0.00185
2710.72	0.00182
2720.37	0.00193
2730.02	0.00184
2739.66	0.00197
2749.31	0.00188
2758.96	0.00168
2768.6	0.00154
2778.25	0.00143
2787.9	0.00134
2797.54	0.00152
2807.19	0.00129
2816.84	0.00115
2826.48	0.00126
2836.13	0.00122
2845.77	0.00116
2855.42	0.00113
2865.07	0.00107
2874.71	0.00077
2884.36	0.00079
2894.01	0.00081
2903.65	0.00072
2913.3	0.00062
2922.95	0.00065
2932.59	0.00043
2942.24	0.00045
2951.89	0.00049
2961.53	0.00045
2971.18	0.00048
2980.83	0.00075
2990.47	0.00099
3000.12	0.00139
3009.77	0.00214
3019.41	0.00277
3029.06	0.00264
3038.71	0.00269
3048.35	0.003998
3058	0.00683
3067.64	0.01283
3077.29	0.02945
3086.94	0.02651
3096.58	0.00614
3106.23	0.00229
3115.88	0.00125
3125.52	0.00082
3135.17	0.00077
3144.82	0.00079
3154.46	0.00075
3164.11	0.00114
3173.76	0.00067
3183.4	0.00042
3193.05	7e-05
3202.7	0.00014
3212.34	0
3221.99	0.00023
3231.64	0.00033
3241.28	0.00022
3250.93	0.00024
3260.58	0.00032
3270.22	0.00035
3279.87	0.00032
3289.52	0.00041
3299.16	0.0004
3308.81	0.00027
3318.45	0.0004
3328.1	0.00058
3337.75	0.00051
3347.39	0.00053
3357.04	0.00051
3366.69	0.00059
3376.33	0.00068
3385.98	0.00076
3395.63	0.00057
3405.27	0.00068
3414.92	0.00082
3424.57	0.00086
3434.21	0.00069
3443.86	0.00099
3453.51	0.00116
3463.15	0.00126
3472.8	0.00138
3482.45	0.0012
3492.09	0.00126
3501.74	0.0013
3511.39	0.00161
3521.03	0.00146
3530.68	0.00145
3540.33	0.00157
3549.97	0.00167
3559.62	0.0018
3569.26	0.00171
3578.91	0.00173
3588.56	0.00172
3598.2	0.00177
3607.85	0.00201
3617.5	0.00187
3627.14	0.00211
3636.79	0.00202
3646.44	0.0021
3656.08	0.00218
3665.73	0.00214
3675.38	0.00223
3685.02	0.00213
3694.67	0.00223
3704.32	0.00236
3713.96	0.0022
3723.61	0.00228
3733.26	0.00221
3742.9	0.00242
3752.55	0.00248
3762.2	0.00248
3771.84	0.00264
3781.49	0.0026
3791.13	0.00245
3800.78	0.0023
3810.43	0.00251
3820.07	0.00264
3829.72	0.00267
3839.37	0.00271
3849.01	0.00265
3858.66	0.00274
3868.31	0.00252
3877.95	0.00227
3887.6	0.00244
3897.25	0.00244
3906.89	0.00239
3916.54	0.00231
3926.19	0.00245
3935.83	0.0023
3945.48	0.0024
3955.13	0.00231
3964.77	0.00232
3974.42	0.00239
3984.07	0.0024
3993.71	0.00237
