Infrared Spectrum: 3Beta-ACETOXYPREGN-5-EN-20-ONE
Formula: C23 H34 O3
CAS: 1778-02-5
State: SOLID (KBr DISC)
Class: COBLENTZ III
Instrument: BECKMAN IR-7
Sampling: TRANSMISSION
Resolution: 4
Origin: THE WORCESTER FOUNDATION FOR EXPERIMENTAL BIOLOGY
1/CM	TRANSMITTANCE
600.711	0.574
609.239	0.766
617.767	0.859
626.295	0.918
634.823	0.965
643.351	0.914
651.879	0.877
660.406	0.779
668.934	0.726
677.462	0.794
685.99	0.791
694.518	0.761
703.046	0.71
711.574	0.711
720.102	0.704
728.63	0.711
737.158	0.607
745.686	0.642
754.214	0.707
762.742	0.707
771.27	0.703
779.797	0.696
788.325	0.683
796.853	0.613
805.381	0.44
813.909	0.589
822.437	0.539
830.965	0.569
839.493	0.554
848.021	0.619
856.549	0.541
865.077	0.622
873.605	0.559
882.133	0.552
890.661	0.56
899.188	0.409
907.716	0.479
916.244	0.51
924.772	0.496
933.3	0.516
941.828	0.426
950.356	0.35
958.884	0.342
967.412	0.472
975.94	0.39
984.468	0.363
992.996	0.337
1001.52	0.318
1010.05	0.21
1018.58	0.115
1027.11	0.088
1035.64	0.133
1044.16	0.271
1052.69	0.321
1061.22	0.399
1069.75	0.391
1078.27	0.414
1086.8	0.343
1095.33	0.443
1103.86	0.428
1112.39	0.388
1120.91	0.412
1129.44	0.338
1137.97	0.299
1146.5	0.338
1155.03	0.251
1163.55	0.341
1172.08	0.217
1180.61	0.304
1189.14	0.238
1197.67	0.202
1206.19	0.261
1214.72	0.192
1223.25	0.079
1231.78	0.036
1240.31	0.047
1248.83	0.081
1257.36	0.183
1265.89	0.301
1274.42	0.331
1282.95	0.401
1291.47	0.317
1300	0.473
1308.53	0.474
1317.06	0.482
1325.58	0.447
1334.11	0.355
1342.64	0.253
1351.17	0.162
1359.7	0.092
1368.22	0.212
1376.75	0.265
1385.28	0.275
1393.81	0.353
1402.34	0.411
1410.86	0.392
1419.39	0.353
1427.92	0.296
1436.45	0.216
1444.98	0.308
1453.5	0.268
1462.03	0.32
1470.56	0.278
1479.09	0.491
1487.62	0.536
1496.14	0.556
1504.67	0.561
1513.2	0.563
1521.73	0.562
1530.26	0.571
1538.78	0.576
1547.31	0.582
1555.84	0.586
1564.37	0.577
1572.89	0.588
1581.42	0.595
1589.95	0.59
1598.48	0.583
1607.01	0.575
1615.53	0.562
1624.06	0.548
1632.59	0.53
1641.12	0.509
1649.65	0.484
1658.17	0.423
1666.7	0.398
1675.23	0.398
1683.76	0.36
1692.29	0.202
1700.81	0.048
1709.34	0.181
1717.87	0.1879
1726.4	0.055
1734.93	0.081
1743.45	0.181
1751.98	0.317
1760.51	0.395
1769.04	0.439
1777.56	0.471
1786.09	0.513
1794.62	0.535
1803.15	0.54
1811.68	0.574
1820.2	0.588
1828.73	0.591
1837.26	0.601
1845.79	0.607
1854.32	0.614
1862.84	0.619
1871.37	0.626
1879.9	0.624
1888.43	0.617
1896.96	0.615
1905.48	0.618
1914.01	0.616
1922.54	0.612
1931.07	0.612
1939.6	0.616
1948.12	0.621
1956.65	0.624
1965.18	0.625
1973.71	0.624
1982.24	0.622
1990.76	0.624
1999.29	0.624
2007.82	0.624
2016.35	0.624
2024.87	0.624
2033.4	0.624
2041.93	0.6241
2050.46	0.624
2058.99	0.624
2067.51	0.624
2076.04	0.624
2084.57	0.623
2093.1	0.622
2101.63	0.622
2110.15	0.622
2118.68	0.622
2127.21	0.622
2135.74	0.622
2144.27	0.621
2152.79	0.62
2161.32	0.619
2169.85	0.6186
2178.38	0.6176
2186.91	0.617
2195.43	0.6115
2203.96	0.6045
2212.49	0.603
2221.02	0.602
2229.55	0.601
2238.07	0.5987
2246.6	0.5953
2255.13	0.5915
2263.66	0.5855
2272.18	0.584
2280.71	0.584
2289.24	0.5859
2297.77	0.588
2306.3	0.5919
2314.82	0.593
2323.35	0.5871
2331.88	0.585
2340.41	0.583
2348.94	0.5819
2357.46	0.581
2365.99	0.5788
2374.52	0.578
2383.05	0.578
2391.58	0.579
2400.1	0.58
2408.63	0.58
2417.16	0.579
2425.69	0.579
2434.22	0.578
2442.74	0.5766
2451.27	0.5755
2459.8	0.5715
2468.33	0.568
2476.85	0.566
2485.38	0.565
2493.91	0.5656
2502.44	0.566
2510.97	0.566
2519.49	0.565
2528.02	0.5642
2536.55	0.564
2545.08	0.564
2553.61	0.5621
2562.13	0.5601
2570.66	0.5561
2579.19	0.554
2587.72	0.553
2596.25	0.552
2604.77	0.5499
2613.3	0.5489
2621.83	0.547
2630.36	0.546
2638.89	0.5428
2647.41	0.5315
2655.94	0.5192
2664.47	0.5182
2673	0.5253
2681.53	0.5266
2690.05	0.5168
2698.58	0.513
2707.11	0.512
2715.64	0.511
2724.16	0.51
2732.69	0.511
2741.22	0.51
2749.75	0.5084
2758.28	0.499
2766.8	0.4896
2775.33	0.4774
2783.86	0.45
2792.39	0.447
2800.92	0.4158
2809.44	0.3892
2817.97	0.3705
2826.5	0.3036
2835.03	0.2096
2843.56	0.1332
2852.08	0.1369
2860.61	0.2189
2869.14	0.1916
2877.67	0.1599
2886.2	0.1348
2894.72	0.1178
2903.25	0.1187
2911.78	0.129
2920.31	0.1463
2928.84	0.1036
2937.36	0.0823
2945.89	0.072
2954.42	0.0823
2962.95	0.108
2971.47	0.1333
2980	0.1846
2988.53	0.2161
2997.06	0.2803
3005.59	0.3358
3014.11	0.3629
3022.64	0.3817
3031.17	0.3756
3039.7	0.3697
3048.23	0.4067
3056.75	0.436
3065.28	0.4437
3073.81	0.4596
3082.34	0.4688
3090.87	0.4729
3099.39	0.475
3107.92	0.476
3116.45	0.477
3124.98	0.48
3133.51	0.481
3142.03	0.481
3150.56	0.482
3159.09	0.483
3167.62	0.483
3176.15	0.483
3184.67	0.483
3193.2	0.484
3201.73	0.4844
3210.26	0.485
3218.78	0.485
3227.31	0.4845
3235.84	0.484
3244.37	0.484
3252.9	0.484
3261.42	0.484
3269.95	0.483
3278.48	0.483
3287.01	0.482
3295.54	0.482
3304.06	0.481
3312.59	0.481
3321.12	0.4792
3329.65	0.479
3338.18	0.4771
3346.7	0.476
3355.23	0.473
3363.76	0.468
3372.29	0.464
3380.82	0.4518
3389.34	0.4339
3397.87	0.4545
3406.4	0.4653
3414.93	0.4648
3423.45	0.46
3431.98	0.4488
3440.51	0.4346
3449.04	0.4322
3457.57	0.458
3466.09	0.4644
3474.62	0.4674
3483.15	0.469
3491.68	0.471
3500.21	0.4725
3508.73	0.474
3517.26	0.4756
3525.79	0.476
3534.32	0.476
3542.85	0.476
3551.37	0.477
3559.9	0.4822
3568.43	0.4885
3576.96	0.4918
3585.49	0.4938
3594.01	0.4959
3602.54	0.496
3611.07	0.4969
3619.6	0.498
3628.13	0.498
3636.65	0.498
3645.18	0.498
3653.71	0.498
3662.24	0.498
3670.76	0.498
3679.29	0.498
3687.82	0.497
3696.35	0.497
3704.88	0.497
3713.4	0.496
3721.93	0.496
3730.46	0.496
3738.99	0.496
3747.52	0.495
3756.04	0.494
3764.57	0.493
3773.1	0.493
3781.63	0.492
3790.16	0.491
3798.68	0.4903
3807.21	0.4893
3815.74	0.489
3824.27	0.4873
3832.8	0.4842
3841.32	0.4832
3849.85	0.482
3858.38	0.4811
3866.91	0.481
3875.44	0.4791
3883.96	0.478
3892.49	0.476
3901.02	0.475
3909.55	0.474
3918.07	0.473
3926.6	0.472
3935.13	0.472
3943.66	0.471
3952.19	0.471
3960.71	0.4697
3969.24	0.469
3977.77	0.467
3986.3	0.467
3994.83	0.4666
