Infrared Spectrum: cis-1,2-Dihydrocatechol
Formula: C 6 H 8 O 2
CAS: 17793-95-2
State: gas
Origin: EPA-IR VAPOR PHASE LIBRARY
1/CM	ABSORBANCE
549.8	0.001548
559.445	0.000321
569.09	0.0004888
578.734	0.0004189
588.379	0.0009836
598.024	0.0007075
607.669	0.000299
617.313	0.0009834
626.958	0.0007859
636.603	0.0008256
646.248	0.000887
655.893	0.001468
665.537	0.001898
675.182	0.002098
684.827	0.003138
694.472	0.002338
704.116	0.0014988
713.761	0.001948
723.406	0.002418
733.051	0.002938
742.695	0.005058
752.34	0.005008
761.985	0.003338
771.63	0.002348
781.275	0.001788
790.919	0.001538
800.564	0.002128
810.209	0.002078
819.854	0.002358
829.498	0.001638
839.143	0.0013861
848.788	0.0010593
858.433	0.0009936
868.078	0.0008502
877.722	0.0011831
887.367	0.0010623
897.012	0.000804
906.657	0.0008746
916.301	0.0004244
925.946	0.0010797
935.591	0.0007473
945.236	0.0008167
954.88	0.0006098
964.525	0.0010322
974.17	0.0008521
983.815	0.0009727
993.46	0.0014062
1003.1	0.0008155
1012.75	0.001528
1022.39	0.0010305
1032.04	0.001518
1041.68	0.001352
1051.33	0.001508
1060.97	0.001548
1070.62	0.001658
1080.26	0.0010995
1089.91	0.000939
1099.55	0.0007372
1109.2	0.0007151
1118.84	0.001628
1128.49	0.002428
1138.13	0.004088
1147.78	0.005438
1157.42	0.005558
1167.07	0.006668
1176.71	0.009978
1186.36	0.010598
1196	0.008608
1205.64	0.006698
1215.29	0.002198
1224.93	0.002668
1234.58	0.003288
1244.22	0.005628
1253.87	0.006288
1263.51	0.005958
1273.16	0.003528
1282.8	0.001698
1292.45	0.001648
1302.09	0.0011315
1311.74	0.001698
1321.38	0.002058
1331.03	0.003018
1340.67	0.002798
1350.32	0.002388
1359.96	0.0013904
1369.61	0.0010443
1379.25	0.0009999
1388.9	0.0006247
1398.54	0.0007877
1408.18	0.0008124
1417.83	0.0007956
1427.47	0.0007763
1437.12	0.0010922
1446.76	0.0014549
1456.41	0.002078
1466.05	0.002498
1475.7	0.003078
1485.34	0.004768
1494.99	0.004938
1504.63	0.004708
1514.28	0.003498
1523.92	0.0014073
1533.57	0.0012587
1543.21	0.0010494
1552.86	0.0012633
1562.5	0.001568
1572.15	0.001928
1581.79	0.003238
1591.44	0.005528
1601.08	0.006868
1610.73	0.005058
1620.37	0.002378
1630.01	0.0009385
1639.66	0.0008815
1649.3	0.0007713
1658.95	0.0007602
1668.59	0.0010978
1678.24	0.0007245
1687.88	0.0008598
1697.53	0.0007803
1707.17	0.0009388
1716.82	0.0008806
1726.46	0.0008815
1736.11	0.0008701
1745.75	0.0009363
1755.4	0.0010207
1765.04	0.0010358
1774.69	0.0008079
1784.33	0.0006312
1793.98	0.0007299
1803.62	0.0007642
1813.27	0.000847
1822.91	0.0008362
1832.55	0.0009328
1842.2	0.0009249
1851.84	0.0007228
1861.49	0.0007377
1871.13	0.0006767
1880.78	0.0006398
1890.42	0.0006171
1900.07	0.0006876
1909.71	0.0008252
1919.36	0.0009402
1929	0.0007401
1938.65	0.0008378
1948.29	0.0006186
1957.94	0.00057412
1967.58	0.0006792
1977.23	0.0007096
1986.87	0.0008051
1996.52	0.00057641
2006.16	0.0008376
2015.81	0.0006357
2025.45	0.0006388
2035.1	0.000732
2044.74	0.0007226
2054.38	0.0007174
2064.03	0.0007156
2073.67	0.0006924
2083.32	0.0008164
2092.96	0.00060624
2102.61	0.00060643
2112.25	0.00057694
2121.9	0.000681
2131.54	0.00053243
2141.19	0.00054003
2150.83	0.0006467
2160.48	0.0007345
2170.12	0.00057038
2179.77	0.0006871
2189.41	0.0007583
2199.06	0.0006487
2208.7	0.0006878
2218.35	0.00050688
2227.99	0.0007296
2237.64	0.0008127
2247.28	0.00057342
2256.92	0.0007662
2266.57	0.0006653
2276.21	0.0007062
2285.86	0.0007459
2295.5	0.000832
2305.15	0.00054557
2314.79	0.000674
2324.44	0.0006288
2334.08	0.0006281
2343.73	0.0006791
2353.37	0.000495
2363.02	0.0006972
2372.66	0.0007041
2382.31	0.0004805
2391.95	0.0008505
2401.6	0.0009261
2411.24	0.0007774
2420.89	0.0008917
2430.53	0.0006722
2440.18	0.000661
2449.82	0.0006948
2459.47	0.0006789
2469.11	0.0006836
2478.75	0.0007639
2488.4	0.0007449
2498.04	0.0007336
2507.69	0.0006805
2517.33	0.0007024
2526.98	0.0006242
2536.62	0.0006549
2546.27	0.0004866
2555.91	0.000749
2565.56	0.00060525
2575.2	0.0006507
2584.85	0.00052738
2594.49	0.0007197
2604.14	0.00058541
2613.78	0.0005796
2623.43	0.0006658
2633.07	0.0007304
2642.72	0.0007399
2652.36	0.0004899
2662.01	0.0006837
2671.65	0.00050657
2681.29	0.0006567
2690.94	0.0007595
2700.58	0.0006362
2710.23	0.0006902
2719.87	0.0006212
2729.52	0.0008046
2739.16	0.000397
2748.81	0.0006143
2758.45	0.0006119
2768.1	0.0004951
2777.74	0.00060401
2787.39	0.0005688
2797.03	0.00059402
2806.68	0.000511341
2816.32	0.0004943
2825.97	0.000396
2835.61	0.0006421
2845.26	0.0006632
2854.9	0.0009412
2864.55	0.0005794
2874.19	0.00065
2883.84	0.000456
2893.48	0.0007304
2903.12	0.0006356
2912.77	0.0006165
2922.41	0.0006082
2932.06	0.0006808
2941.7	0.00053049
2951.35	0.0007274
2960.99	0.00054686
2970.64	0.0004465
2980.28	0.0008205
2989.93	0.0007662
2999.57	0.0009846
3009.22	0.001077
3018.86	0.001528
3028.51	0.002268
3038.15	0.002498
3047.8	0.002648
3057.44	0.002718
3067.09	0.002468
3076.73	0.002398
3086.38	0.001788
3096.02	0.001938
3105.67	0.0014718
3115.31	0.0012096
3124.95	0.0009282
3134.6	0.0007221
3144.24	0.0005722
3153.89	0.0009883
3163.53	0.0007677
3173.18	0.00056657
3182.82	0.0004839
3192.47	0.000737
3202.11	0.0007564
3211.76	0.00056636
3221.4	0.0004763
3231.05	0.0009146
3240.69	0.0008087
3250.34	0.0007798
3259.98	0.00054835
3269.63	0.00057446
3279.27	0.0006197
3288.92	0.0006101
3298.56	0.0006634
3308.21	0.0007632
3317.85	0.0008278
3327.49	0.0010087
3337.14	0.0006837
3346.78	0.000378
3356.43	0.0006129
3366.07	0.00059292
3375.72	0.0004722
3385.36	0.0007776
3395.01	0.0006238
3404.65	0.0007978
3414.3	0.00096
3423.94	0.000516711
3433.59	0.0006668
3443.23	0.00053328
3452.88	0.00054385
3462.52	0.000915
3472.17	0.00050135
3481.81	0.0006678
3491.46	0.0011425
3501.1	0.00054708
3510.75	0.0007597
3520.39	0.0008579
3530.04	0.0007928
3539.68	0.0006399
3549.32	0.0006867
3558.97	0.0008021
3568.61	0.0008737
3578.26	0.0004865
3587.9	0.000697
3597.55	0.00053018
3607.19	0.0011836
3616.84	0.0008265
3626.48	0.0014487
3636.13	0.003368
3645.77	0.004198
3655.42	0.004728
3665.06	0.003818
3674.71	0.001798
3684.35	0.0012722
3694	0.0009555
3703.64	0.0006942
3713.29	0.0008473
3722.93	0.0009148
3732.58	0.000872
3742.22	0.0008743
3751.86	0.0009619
3761.51	0.0008822
3771.15	0.0008298
3780.8	0.0008127
3790.44	0.0010151
3800.09	0.0007919
3809.73	0.0007389
3819.38	0.0007197
3829.02	0.0009917
3838.67	0.0005408
3848.31	0.0008322
3857.96	0.0007999
3867.6	0.0010393
3877.25	0.0008154
3886.89	0.0006211
3896.54	0.0007874
3906.18	0.000424
3915.83	0.00059678
3925.47	0.0009337
3935.12	0.0009431
3944.76	0.0005335
3954.41	0.0010249
3964.05	0.00037
3973.69	0.0008687
3983.34	0.0007605
3992.98	0.00055765
