Infrared Spectrum: 1,3,6-Trioxacyclooctane
Formula: C 5 H 10 O 3
CAS: 1779-19-7
State: gas
Instrument: HP-GC/MS/IRD
Origin: NIST Mass Spectrometry Data Center
1/CM	ABSORBANCE
550	0.0016128
562	0.0016416
574	0.0010896
586	0.0006576
598	0.0003984
610	0.000312
622	0.0003168
634	0.0006336
646	0.0009888
658	0.0008784
670	0.000432
682	0.0001968
694	0.000144
706	5.76e-05
718	7.68e-05
730	0.0001152
742	0.0001152
754	0.0002208
766	0.0002736
778	0.0003696
790	0.0006
802	0.0009456
814	0.001392
826	0.002256
838	0.0030384
850	0.0051264
862	0.007248
874	0.005736
886	0.0032784
898	0.0021024
910	0.0020688
922	0.0018192
934	0.0015552
946	0.0020064
958	0.0044064
970	0.0114096
982	0.0195696
994	0.018648
1006	0.0088512
1018	0.004776
1030	0.0037872
1042	0.006432
1054	0.011808
1066	0.0155664
1078	0.014976
1090	0.0131664
1102	0.0113376
1114	0.0132576
1126	0.0252576
1138	0.0435936
1150	0.0467856
1162	0.0322608
1174	0.0175968
1186	0.0154656
1198	0.0114048
1210	0.0051936
1222	0.0023136
1234	0.0024384
1246	0.0037776
1258	0.0048672
1270	0.0066576
1282	0.0103392
1294	0.0126624
1306	0.0100992
1318	0.0052176
1330	0.0023328
1342	0.0017664
1354	0.0024624
1366	0.0037968
1378	0.0038784
1390	0.0027408
1402	0.001368
1414	0.0009744
1426	0.0011856
1438	0.0023712
1450	0.0033792
1462	0.0031296
1474	0.0018672
1486	0.0009168
1498	0.0003984
1510	0.0002208
1522	0.0001968
1534	0.0001488
1546	0.0001152
1558	0.0001104
1570	0.00012
1582	0.0001152
1594	0.0001152
1606	0.0001152
1618	0.0001728
1630	0.000192
1642	0.0002496
1654	0.000216
1666	0.0001872
1678	0.0001392
1690	0.0001392
1702	0.0001344
1714	0.000144
1726	0.00012
1738	0.00012
1750	0.0001056
1762	0.0001056
1774	0.0001392
1786	0.0001296
1798	0.0001392
1810	8.64e-05
1822	9.6e-05
1834	0.00012
1846	0.0001488
1858	0.0002064
1870	0.0002592
1882	0.0003504
1894	0.0004704
1906	0.0005904
1918	0.0006384
1930	0.0006288
1942	0.0006528
1954	0.0007056
1966	0.0006912
1978	0.0005424
1990	0.0004704
2002	0.0004416
2014	0.0004176
2026	0.000312
2038	0.000288
2050	0.0002688
2062	0.0002544
2074	0.0001872
2086	0.0002016
2098	0.0002064
2110	0.00024
2122	0.00024
2134	0.0002448
2146	0.0002208
2158	0.0002016
2170	0.0001776
2182	0.0001488
2194	0.0001008
2206	9.6e-05
2218	0.0001008
2230	0.000144
2242	0.0001536
2254	0.0001392
2266	0.0001104
2278	0.00012
2290	0.0001248
2302	0.0001152
2314	0.0001008
2326	0.0001008
2338	0.0001008
2350	0.00012
2362	0.0001296
2374	0.0001488
2386	0.0001632
2398	0.0001104
2410	8.16e-05
2422	7.2e-05
2434	3.36e-05
2446	4.8e-05
2458	2.88e-05
2470	2.4e-05
2482	3.36e-05
2494	2.4e-05
2506	3.36e-05
2518	3.84e-05
2530	6.24e-05
2542	4.8e-05
2554	7.68e-05
2566	4.8e-05
2578	4.8e-05
2590	8.16e-05
2602	0.0001104
2614	0.0001152
2626	0.000168
2638	0.0002064
2650	0.0002688
2662	0.0002592
2674	0.0003312
2686	0.0004512
2698	0.000768
2710	0.0013056
2722	0.0017568
2734	0.0017664
2746	0.0015312
2758	0.0015744
2770	0.0018768
2782	0.002376
2794	0.0028416
2806	0.0028176
2818	0.0028224
2830	0.0039216
2842	0.0075552
2854	0.0126672
2866	0.0157008
2878	0.0164208
2890	0.0169392
2902	0.016368
2914	0.0182256
2926	0.024072
2938	0.029904
2950	0.0265008
2962	0.0191808
2974	0.0124464
2986	0.0075312
2998	0.0030096
3010	0.0010368
3022	0.0006576
3034	0.0004656
3046	0.0003168
3058	0.0002688
3070	0.0002016
3082	0.0001296
3094	8.64e-05
3106	0.0001104
3118	8.16e-05
3130	4.8e-06
3142	7.2e-05
3154	6.72e-05
3166	0.0001008
3178	7.2e-05
3190	8.16e-05
3202	7.2e-05
3214	0.000144
3226	0.0001104
3238	9.12e-05
3250	7.2e-05
3262	7.68e-05
3274	7.2e-05
3286	9.6e-05
3298	0.00012
3310	0.0001248
3322	0.0001056
3334	5.76e-05
3346	7.68e-05
3358	3.84e-05
3370	6.24e-05
3382	3.36e-05
3394	6.72e-05
3406	1.44e-05
3418	7.68e-05
3430	8.64e-05
3442	9.12e-05
3454	9.12e-05
3466	9.12e-05
3478	6.24e-05
3490	5.28e-05
3502	5.76e-05
3514	5.76e-05
3526	4.32e-05
3538	4.8e-06
3550	1.92e-05
3562	8.16e-05
3574	6.72e-05
3586	5.76e-05
3598	8.16e-05
3610	3.36e-05
3622	2.88e-05
3634	5.28e-05
3646	2.4e-05
3658	2.4e-05
3670	4.8e-05
3682	6.72e-05
3694	8.16e-05
3706	1.92e-05
3718	5.76e-05
3730	2.88e-05
3742	9.6e-05
3754	9.6e-05
3766	0.0001296
3778	0.0001488
3790	0.0001344
3802	0.0001152
3814	0.0001296
3826	0.0001344
3838	0.0001248
