Infrared Spectrum: PHOSPHINIC ACID, PHENYL-
Formula: C6 H7 O2 P
CAS: 1779-48-2
State: SOLID (KBr PELLET)
Class: COBLENTZ
Instrument: Not specified, most likely a prism, grating, or hybrid spectrometer.
Sampling: TRANSMISSION
Resolution: 4
Origin: TENNESSEE EASTMAN COMPANY, RESEARCH LABORATORIES
MICROMETERS	TRANSMITTANCE
2.041	0.81
2.08191	0.81
2.12283	0.81
2.16374	0.81
2.20466	0.817
2.24557	0.82
2.28649	0.824
2.3274	0.825
2.36832	0.827
2.40923	0.827
2.45015	0.827
2.49106	0.827
2.53198	0.827
2.57289	0.827
2.61381	0.827
2.65472	0.827
2.69564	0.827
2.73655	0.824
2.77747	0.813
2.81838	0.798
2.8593	0.783
2.90021	0.762
2.94113	0.759
2.98204	0.762
3.02296	0.778
3.06387	0.783
3.10479	0.784
3.1457	0.773
3.18662	0.75
3.22753	0.725
3.26845	0.675
3.30936	0.667
3.35027	0.663
3.39119	0.627
3.4321	0.588
3.47302	0.542
3.51393	0.52
3.55485	0.494
3.59576	0.477
3.63668	0.46
3.67759	0.433
3.71851	0.404
3.75942	0.387
3.80034	0.368
3.84125	0.356
3.88217	0.354
3.92308	0.358
3.964	0.377
4.00491	0.411
4.04583	0.44
4.08674	0.469
4.12766	0.47
4.16857	0.327
4.20949	0.303
4.2504	0.315
4.29132	0.312
4.33223	0.296
4.37315	0.25
4.41406	0.232
4.45498	0.237
4.49589	0.249
4.53681	0.257
4.57772	0.254
4.61864	0.257
4.65955	0.29
4.70046	0.32
4.74138	0.36
4.78229	0.394
4.82321	0.418
4.86412	0.433
4.90504	0.452
4.94595	0.47
4.98687	0.498
5.02778	0.523
5.0687	0.54
5.10961	0.551
5.15053	0.551
5.19144	0.546
5.23236	0.517
5.27327	0.52
5.31419	0.518
5.3551	0.51
5.39602	0.501
5.43693	0.498
5.47785	0.496
5.51876	0.505
5.55968	0.515
5.60059	0.508
5.64151	0.496
5.68242	0.47
5.72334	0.436
5.76425	0.401
5.80517	0.36
5.84608	0.325
5.887	0.303
5.92791	0.271
5.96882	0.262
6.00974	0.257
6.05065	0.267
6.09157	0.29
6.13248	0.331
6.1734	0.382
6.21431	0.443
6.25523	0.482
6.29614	0.441
6.33706	0.587
6.37797	0.621
6.41889	0.684
6.4598	0.709
6.50072	0.754
6.54163	0.767
6.58255	0.793
6.62346	0.805
6.66438	0.819
6.70529	0.716
6.74621	0.803
6.78712	0.832
6.82804	0.841
6.86895	0.808
6.90987	0.436
6.95078	0.484
6.9917	0.807
7.03261	0.839
7.07353	0.844
7.11444	0.788
7.15536	0.825
7.19627	0.858
7.23719	0.872
7.2781	0.878
7.31901	0.88
7.35993	0.887
7.40084	0.889
7.44176	0.887
7.48267	0.86
7.52359	0.868
7.5645	0.87
7.60542	0.802
7.64633	0.813
7.68725	0.856
7.72816	0.846
7.76908	0.827
7.80999	0.795
7.85091	0.764
7.89182	0.72
7.93274	0.668
7.97365	0.604
8.01457	0.517
8.05548	0.423
8.0964	0.339
8.13731	0.261
8.17823	0.172
8.21914	0.097
8.26006	0.059
8.30097	0.042
8.34189	0.037
8.3828	0.049
8.42372	0.071
8.46463	0.071
8.50555	0.069
8.54646	0.066
8.58737	0.063
8.62829	0.042
8.6692	0.039
8.71012	0.075
8.75103	0.148
8.79195	0.203
8.83286	0.211
8.87378	0.182
8.91469	0.151
8.95561	0.11
8.99652	0.078
9.03744	0.068
9.07835	0.09
9.11927	0.155
9.16018	0.245
9.2011	0.368
9.24201	0.441
9.28293	0.452
9.32384	0.44
9.36476	0.573
9.40567	0.638
9.44659	0.677
9.4875	0.699
9.52842	0.72
9.56933	0.725
9.61025	0.723
9.65116	0.713
9.69208	0.653
9.73299	0.605
9.77391	0.58
9.81482	0.496
9.85574	0.39
9.89665	0.244
9.93756	0.116
9.97848	0.15
10.0194	0.087
10.0603	0.027
10.1012	0.022
10.1421	0.02
10.1831	0.02
10.224	0.022
10.2649	0.039
10.3058	0.069
10.3467	0.105
10.3876	0.145
10.4285	0.182
10.4695	0.201
10.5104	0.264
10.5513	0.331
10.5922	0.387
10.6331	0.416
10.674	0.43
10.7149	0.431
10.7559	0.366
10.7968	0.331
10.8377	0.418
10.8786	0.447
10.9195	0.455
10.9604	0.465
11.0014	0.465
11.0423	0.45
11.0832	0.431
11.1241	0.416
11.165	0.397
11.2059	0.394
11.2468	0.392
11.2878	0.395
11.3287	0.402
11.3696	0.412
11.4105	0.435
11.4514	0.455
11.4923	0.479
11.5332	0.511
11.5742	0.529
11.6151	0.529
11.656	0.523
11.6969	0.534
11.7378	0.552
11.7787	0.578
11.8196	0.598
11.8606	0.626
11.9015	0.65
11.9424	0.675
11.9833	0.697
12.0242	0.725
12.0651	0.745
12.1061	0.764
12.147	0.784
12.1879	0.798
12.2288	0.813
12.2697	0.824
12.3106	0.837
12.3515	0.846
12.3925	0.853
12.4334	0.863
12.4743	0.866
12.5152	0.873
12.5561	0.878
12.597	0.889
12.6379	0.895
12.6789	0.902
12.7198	0.909
12.7607	0.914
12.8016	0.919
12.8425	0.923
12.8834	0.923
12.9243	0.924
12.9653	0.923
13.0062	0.916
13.0471	0.878
13.088	0.825
13.1289	0.682
13.1698	0.406
13.2108	0.136
13.2517	0.081
13.2926	0.177
13.3335	0.47
13.3744	0.726
13.4153	0.839
13.4562	0.882
13.4972	0.914
13.5381	0.926
13.579	0.936
13.6199	0.94
13.6608	0.947
13.7017	0.953
13.7426	0.96
13.7836	0.965
13.8245	0.967
13.8654	0.967
13.9063	0.967
13.9472	0.941
13.9881	0.885
14.029	0.788
14.07	0.686
14.1109	0.682
14.1518	0.745
14.1927	0.776
14.2336	0.755
14.2745	0.677
14.3155	0.552
14.3564	0.343
14.3973	0.235
14.4382	0.218
14.4791	0.385
14.52	0.587
14.5609	0.764
14.6019	0.854
14.6428	0.914
14.6837	0.941
14.7246	0.953
14.7655	0.955
14.8064	0.957
14.8473	0.957
14.8883	0.962
14.9292	0.967
14.9701	0.962
15.011	0.938
15.0519	0.945
15.0928	0.969
15.1337	0.984
15.1747	0.984
15.2156	0.984
15.2565	0.981
15.2974	0.969
15.3383	0.957
15.3792	0.945
15.4202	0.931
15.4611	0.916
15.502	0.904
15.5429	0.897
15.5838	0.889
15.6247	0.863
15.6656	0.853
15.7066	0.837
15.7475	0.825
15.7884	0.808
15.8293	0.793
15.8702	0.771
15.9111	0.749
15.952	0.738
15.993	0.733
