Infrared Spectrum: QUINALDINE, 1,2,3,4-TETRAHYDRO-
Formula: C10 H13 N
CAS: 1780-19-4
State: SOLUTION (10% IN CCl4 FOR 3800-1330, 10% IN CS2 FOR 1330-400 CM^-^1)
Class: COBLENTZ III
Instrument: DOW KBr FOREPRISM-GRATING
Instrument parameters: BLAZED AT 3.5, 12.0, 20.0 MICRON, CHANGED AT 5.0, 7.5, 14.9 MICRON
Sampling: TRANSMISSION
Path length: 0.011, 0.011 CM
Resolution: 4
Origin: DOW CHEMICAL COMPANY
1/CM	TRANSMITTANCE
390.415	0.109
399.182	0.152
407.949	0.368
416.715	0.535
425.482	0.549
434.249	0.476
443.016	0.572
451.783	0.635
460.55	0.635
469.316	0.646
478.083	0.701
486.85	0.746
495.617	0.813
504.384	0.872
513.15	0.923
521.917	0.89
530.684	0.731
539.451	0.773
548.218	0.784
556.985	0.768
565.751	0.784
574.518	0.821
583.285	0.85
592.052	0.864
600.819	0.891
609.585	0.912
618.352	0.938
627.119	0.946
635.886	0.801
644.653	0.761
653.42	0.765
662.186	0.867
670.953	0.89
679.72	0.878
688.487	0.905
697.254	0.912
706.02	0.884
714.787	0.445
723.554	0.75
732.321	0.679
741.088	0.094
749.855	0.1161
758.621	0.638
767.388	0.854
776.155	0.915
784.922	0.913
793.689	0.943
802.455	0.894
811.222	0.91
819.989	0.942
828.756	0.964
837.523	0.894
846.29	0.806
855.056	0.698
863.823	0.85
872.59	0.898
881.357	0.949
890.124	1.001
898.89	1.002
907.657	0.963
916.424	0.984
925.191	0.716
933.958	0.96
942.725	0.905
951.491	0.912
960.258	0.59
969.025	0.916
977.792	0.958
986.559	0.98
995.325	0.973
1004.09	0.91
1012.86	0.957
1021.63	0.982
1030.39	0.932
1039.16	0.5842
1047.93	0.968
1056.69	0.967
1065.46	0.7939
1074.23	0.957
1082.99	0.956
1091.76	0.8201
1100.53	0.964
1109.29	0.945
1118.06	0.797
1126.83	0.6471
1135.59	0.827
1144.36	0.78
1153.13	0.2361
1161.89	0.853
1170.66	0.887
1179.43	0.7969
1188.2	0.6781
1196.96	0.832
1205.73	0.846
1214.5	0.797
1223.26	0.906
1232.03	0.898
1240.8	0.804
1249.56	0.4999
1258.33	0.4691
1267.1	0.4209
1275.86	0.2901
1284.63	0.721
1293.4	0.701
1302.16	0.113
1310.93	0.2052
1319.7	0.6391
1328.46	0.613
1337.23	0.435
1346	0.3131
1354.76	0.4729
1363.53	0.741
1372.3	0.7349
1381.07	0.2933
1389.83	0.835
1398.6	0.878
1407.37	0.869
1416.13	0.835
1424.9	0.647
1433.67	0.563
1442.43	0.569
1451.2	0.3859
1459.97	0.4361
1468.73	0.517
1477.5	0.1819
1486.27	0.03
1495.03	0.075
1503.8	0.052
1512.57	0.3941
1521.33	0.579
1530.1	0.593
1538.87	0.531
1547.63	0.48
1556.4	0.478
1565.17	0.541
1573.94	0.524
1582.7	0.2979
1591.47	0.315
1600.24	0.321
1609	0.113
1617.77	0.5932
1626.54	0.839
1635.3	0.891
1644.07	0.898
1652.84	0.906
1661.6	0.915
1670.37	0.912
1679.14	0.91
1687.9	0.901
1696.67	0.919
1705.44	0.941
1714.2	0.949
1722.97	0.954
1731.74	0.953
1740.5	0.956
1749.27	0.946
1758.04	0.934
1766.81	0.916
1775.57	0.949
1784.34	0.949
1793.11	0.938
1801.87	0.945
1810.64	0.954
1819.41	0.956
1828.17	0.949
1836.94	0.939
1845.71	0.936
1854.47	0.935
1863.24	0.935
1872.01	0.917
1880.77	0.894
1889.54	0.915
1898.31	0.941
1907.07	0.921
1915.84	0.897
1924.61	0.938
1933.37	0.956
1942.14	0.958
1950.91	0.96
1959.68	0.958
1968.44	0.957
1977.21	0.957
1985.98	0.953
1994.74	0.95
2003.51	0.949
2012.28	0.946
2021.04	0.945
2029.81	0.946
2038.58	0.943
2047.34	0.939
2056.11	0.9391
2064.88	0.9471
2073.64	0.946
2082.41	0.9541
2091.18	0.956
2099.94	0.9581
2108.71	0.9599
2117.48	0.956
2126.24	0.9561
2135.01	0.9579
2143.78	0.9579
2152.55	0.9579
2161.31	0.9569
2170.08	0.952
2178.85	0.954
2187.61	0.957
2196.38	0.957
2205.15	0.957
2213.91	0.956
2222.68	0.9558
2231.45	0.953
2240.21	0.9531
2248.98	0.952
2257.75	0.9499
2266.51	0.946
2275.28	0.941
2284.05	0.9377
2292.81	0.932
2301.58	0.934
2310.35	0.9323
2319.11	0.9317
2327.88	0.9283
2336.65	0.9352
2345.42	0.9393
2354.18	0.942
2362.95	0.9497
2371.72	0.956
2380.48	0.9536
2389.25	0.9546
2398.02	0.957
2406.78	0.957
2415.55	0.956
2424.32	0.954
2433.08	0.9498
2441.85	0.9443
2450.62	0.941
2459.38	0.9445
2468.15	0.9405
2476.92	0.9475
2485.68	0.9515
2494.45	0.95
2503.22	0.9538
2511.98	0.9497
2520.75	0.9425
2529.52	0.941
2538.29	0.942
2547.05	0.9375
2555.82	0.9232
2564.59	0.9042
2573.35	0.8998
2582.12	0.931
2590.89	0.9288
2599.65	0.9164
2608.42	0.8881
2617.19	0.9053
2625.95	0.9106
2634.72	0.8908
2643.49	0.858
2652.25	0.8475
2661.02	0.899
2669.79	0.895
2678.55	0.906
2687.32	0.9157
2696.09	0.9157
2704.86	0.9073
2713.62	0.919
2722.39	0.9156
2731.16	0.8981
2739.92	0.8761
2748.69	0.9004
2757.46	0.8891
2766.22	0.871
2774.99	0.8182
2783.76	0.767
2792.52	0.7564
2801.29	0.7484
2810.06	0.7132
2818.82	0.6541
2827.59	0.5958
2836.36	0.5335
2845.12	0.4077
2853.89	0.3037
2862.66	0.4499
2871.42	0.4847
2880.19	0.543
2888.96	0.5116
2897.72	0.5024
2906.49	0.4639
2915.26	0.3658
2924.03	0.2163
2932.79	0.1758
2941.56	0.1905
2950.33	0.2427
2959.09	0.2921
2967.86	0.2229
2976.63	0.2618
2985.39	0.5241
2994.16	0.7464
3002.93	0.7485
3011.69	0.6705
3020.46	0.49
3029.23	0.5849
3037.99	0.6804
3046.76	0.694
3055.53	0.5813
3064.29	0.6389
3073.06	0.7527
3081.83	0.7744
3090.59	0.8027
3099.36	0.8402
3108.13	0.9013
3116.9	0.9049
3125.66	0.9397
3134.43	0.9526
3143.2	0.956
3151.96	0.9549
3160.73	0.9524
3169.5	0.952
3178.26	0.95
3187.03	0.9478
3195.8	0.942
3204.56	0.945
3213.33	0.947
3222.1	0.9526
3230.86	0.954
3239.63	0.957
3248.4	0.957
3257.16	0.958
3265.93	0.957
3274.7	0.956
3283.46	0.954
3292.23	0.953
3301	0.954
3309.77	0.953
3318.53	0.952
3327.3	0.9477
3336.07	0.943
3344.83	0.9397
3353.6	0.932
3362.37	0.9169
3371.13	0.9002
3379.9	0.8775
3388.67	0.8437
3397.43	0.7846
3406.2	0.7156
3414.97	0.6622
3423.73	0.6838
3432.5	0.7551
3441.27	0.8338
3450.03	0.8869
3458.8	0.9122
3467.57	0.9299
3476.33	0.9375
3485.1	0.942
3493.87	0.9497
3502.64	0.956
3511.4	0.96
3520.17	0.9625
3528.94	0.9673
3537.7	0.9678
3546.47	0.971
3555.24	0.971
3564	0.972
3572.77	0.971
3581.54	0.972
3590.3	0.975
3599.07	0.9746
3607.84	0.976
3616.6	0.9746
3625.37	0.972
3634.14	0.9718
3642.9	0.971
3651.67	0.971
3660.44	0.971
3669.2	0.971
3677.97	0.9728
3686.74	0.9728
3695.51	0.9693
3704.27	0.976
3713.04	0.973
3721.81	0.978
3730.57	0.976
3739.34	0.978
3748.11	0.976
3756.87	0.976
3765.64	0.976
