Infrared Spectrum: N,N-Dimethyl-N'-phenylformamidine
Formula: C 9 H 12 N 2
CAS: 1783-25-1
State: gas
Origin: EPA-IR VAPOR PHASE LIBRARY
1/CM	ABSORBANCE
549.8	0.002356
559.445	0.001816
569.09	0.0009694
578.734	0.0009455
588.379	0.0005861
598.024	0.0006155
607.669	0.0008469
617.313	0.0004365
626.958	0.001526
636.603	0.002806
646.248	0.002006
655.893	0.001566
665.537	0.002956
675.182	0.005876
684.827	0.011456
694.472	0.015976
704.116	0.010656
713.761	0.004946
723.406	0.002986
733.051	0.004156
742.695	0.009166
752.34	0.018106
761.985	0.019816
771.63	0.010406
781.275	0.003896
790.919	0.001486
800.564	0.001316
810.209	0.0011979
819.854	0.002626
829.498	0.004946
839.143	0.004526
848.788	0.002826
858.433	0.002286
868.078	0.002366
877.722	0.003146
887.367	0.003206
897.012	0.002816
906.657	0.002706
916.301	0.002196
925.946	0.001816
935.591	0.001846
945.236	0.002366
954.88	0.003636
964.525	0.005176
974.17	0.004476
983.815	0.003246
993.46	0.003816
1003.1	0.003916
1012.75	0.005016
1022.39	0.008586
1032.04	0.007766
1041.68	0.008536
1051.33	0.011746
1060.97	0.016666
1070.62	0.024196
1080.26	0.038196
1089.91	0.063526
1099.55	0.064586
1109.2	0.032186
1118.84	0.016976
1128.49	0.010896
1138.13	0.008936
1147.78	0.007776
1157.42	0.008256
1167.07	0.009896
1176.71	0.008356
1186.36	0.007656
1196	0.009956
1205.64	0.016106
1215.29	0.017056
1224.93	0.011806
1234.58	0.011216
1244.22	0.012946
1253.87	0.016356
1263.51	0.015736
1273.16	0.012226
1282.8	0.009386
1292.45	0.007306
1302.09	0.006516
1311.74	0.006526
1321.38	0.007556
1331.03	0.010676
1340.67	0.017356
1350.32	0.031256
1359.96	0.055296
1369.61	0.057046
1379.25	0.031506
1388.9	0.029096
1398.54	0.036556
1408.18	0.030126
1417.83	0.021176
1427.47	0.018016
1437.12	0.016156
1446.76	0.012456
1456.41	0.011076
1466.05	0.011936
1475.7	0.017176
1485.34	0.026546
1494.99	0.023396
1504.63	0.012056
1514.28	0.007616
1523.92	0.006396
1533.57	0.005796
1543.21	0.006206
1552.86	0.007386
1562.5	0.010456
1572.15	0.019256
1581.79	0.045886
1591.44	0.091286
1601.08	0.067496
1610.73	0.030456
1620.37	0.037656
1630.01	0.080336
1639.66	0.200496
1649.3	0.309036
1658.95	0.194266
1668.59	0.065536
1678.24	0.026696
1687.88	0.014786
1697.53	0.010356
1707.17	0.008456
1716.82	0.007516
1726.46	0.006786
1736.11	0.006056
1745.75	0.004626
1755.4	0.003656
1765.04	0.003736
1774.69	0.003626
1784.33	0.002606
1793.98	0.002086
1803.62	0.001896
1813.27	0.001726
1822.91	0.001696
1832.55	0.001836
1842.2	0.001846
1851.84	0.001966
1861.49	0.001736
1871.13	0.001356
1880.78	0.001174
1890.42	0.0010667
1900.07	0.001306
1909.71	0.001956
1919.36	0.002456
1929	0.002676
1938.65	0.002376
1948.29	0.001556
1957.94	0.0011864
1967.58	0.0012251
1977.23	0.001376
1986.87	0.001546
1996.52	0.001766
2006.16	0.001626
2015.81	0.001436
2025.45	0.001476
2035.1	0.001386
2044.74	0.001316
2054.38	0.001168
2064.03	0.0009818
2073.67	0.0010065
2083.32	0.0010194
2092.96	0.0010236
2102.61	0.0010402
2112.25	0.0010449
2121.9	0.0010773
2131.54	0.0010336
2141.19	0.0010511
2150.83	0.0010045
2160.48	0.0009194
2170.12	0.0008972
2179.77	0.0009076
2189.41	0.0009867
2199.06	0.0009201
2208.7	0.0008027
2218.35	0.0009399
2227.99	0.0010017
2237.64	0.0007894
2247.28	0.0007525
2256.92	0.0007708
2266.57	0.0009348
2276.21	0.0011349
2285.86	0.0010715
2295.5	0.000983
2305.15	0.0009703
2314.79	0.0009309
2324.44	0.0009926
2334.08	0.0009161
2343.73	0.0008314
2353.37	0.0007049
2363.02	0.0006911
2372.66	0.0007019
2382.31	0.000693
2391.95	0.000672
2401.6	0.0008253
2411.24	0.0009303
2420.89	0.0010755
2430.53	0.0012428
2440.18	0.0010093
2449.82	0.0010294
2459.47	0.0010494
2469.11	0.0010096
2478.75	0.0009755
2488.4	0.0010029
2498.04	0.0008903
2507.69	0.0009357
2517.33	0.0008312
2526.98	0.0009801
2536.62	0.0010703
2546.27	0.0011422
2555.91	0.0010367
2565.56	0.0010205
2575.2	0.000854
2584.85	0.0008658
2594.49	0.000879
2604.14	0.0008577
2613.78	0.0008486
2623.43	0.0006523
2633.07	0.0006595
2642.72	0.0007206
2652.36	0.0008215
2662.01	0.0008037
2671.65	0.0008742
2681.29	0.000951
2690.94	0.0010682
2700.58	0.0012272
2710.23	0.001526
2719.87	0.001796
2729.52	0.002146
2739.16	0.002506
2748.81	0.002816
2758.45	0.002876
2768.1	0.003116
2777.74	0.003966
2787.39	0.005516
2797.03	0.008126
2806.68	0.011086
2816.32	0.010986
2825.97	0.009086
2835.61	0.009446
2845.26	0.011686
2854.9	0.014986
2864.55	0.017266
2874.19	0.019436
2883.84	0.022316
2893.48	0.024776
2903.12	0.028336
2912.77	0.033306
2922.41	0.035276
2932.06	0.031696
2941.7	0.025316
2951.35	0.018506
2960.99	0.013496
2970.64	0.010936
2980.28	0.010386
2989.93	0.010526
2999.57	0.010066
3009.22	0.010326
3018.86	0.011936
3028.51	0.014656
3038.15	0.014456
3047.8	0.012196
3057.44	0.014856
3067.09	0.020996
3076.73	0.017726
3086.38	0.011606
3096.02	0.007926
3105.67	0.004406
3115.31	0.002346
3124.95	0.001666
3134.6	0.001346
3144.24	0.0012566
3153.89	0.0009897
3163.53	0.0008706
3173.18	0.000728
3182.82	0.0007752
3192.47	0.0007496
3202.11	0.000572
3211.76	0.0004878
3221.4	0.0004656
3231.05	0.0005235
3240.69	0.0004742
3250.34	0.0004982
3259.98	0.00074
3269.63	0.0008706
3279.27	0.0009601
3288.92	0.0010465
3298.56	0.000824
3308.21	0.0006164
3317.85	0.0002658
3327.49	0.0005394
3337.14	0.0002085
3346.78	0.00032431
3356.43	0.0002569
3366.07	0.0003193
3375.72	0.0002571
3385.36	0.0002292
3395.01	0.00029152
3404.65	0.0002798
3414.3	0.000187
3423.94	0.00036947
3433.59	0.00032367
3443.23	0.000161
3452.88	0.00032085
3462.52	0.000137
3472.17	0.0002673
3481.81	0.00012
3491.46	0.0002344
3501.1	0.00031615
3510.75	0.000176
3520.39	0.000158
3530.04	0.00031211
3539.68	0.0002642
3549.32	0.00038978
3558.97	0.0003991
3568.61	0.00035656
3578.26	0.0003286
3587.9	0.000179
3597.55	0.000249
3607.19	0.00014
3616.84	0.0002454
3626.48	0.00034557
3636.13	0.0004291
3645.77	0.0004756
3655.42	0.00038259
3665.06	0.000225
3674.71	0.000326
3684.35	0.00031415
3694	0.00038647
3703.64	0.0004392
3713.29	0.0004497
3722.93	0.000178
3732.58	0.000109
3742.22	0.0002349
3751.86	0.0004165
3761.51	0.00033812
3771.15	0.0003435
3780.8	0.00034173
3790.44	0.00031313
3800.09	0.00032778
3809.73	0.0002006
3819.38	0.0004454
3829.02	0.0002789
3838.67	0.0005132
3848.31	0.000416
3857.96	0.0004705
3867.6	0.000297457
3877.25	0.000457
3886.89	0.00032057
3896.54	0.0002753
3906.18	0.00035354
3915.83	0.000253
3925.47	0.0005849
3935.12	0.0002489
3944.76	0.00038561
3954.41	0.0006124
3964.05	0.0004123
3973.69	0.0004262
3983.34	0.000284
3992.98	0.0004923
