Infrared Spectrum: D-ASPARTIC ACID
Formula: C4 H7 N O4
CAS: 1783-96-6
State: SOLID (MULL, KBr PLATES)
Melting point: 270 C
Class: COBLENTZ III
Instrument: PERKIN-ELMER 521 (GRATING)
Instrument parameters: ORDER CHANGES: 1999, 690 CM^-^1
Sampling: TRANSMISSION
Resolution: 2
Origin: SMITH KLINE & FRENCH LABS.
1/CM	TRANSMITTANCE
249.879	0.063
259.564	0.066
269.249	0.084
278.935	0.097
288.62	0.103
298.305	0.148
307.99	0.159
317.676	0.202
327.361	0.268
337.046	0.306
346.731	0.34
356.417	0.344
366.102	0.394
375.787	0.546
385.472	0.629
395.158	0.693
404.843	0.62
414.528	0.599
424.213	0.767
433.899	0.815
443.584	0.78
453.269	0.807
462.954	0.809
472.64	0.906
482.325	0.955
492.01	0.978
501.695	0.98
511.381	0.977
521.066	0.974
530.751	0.945
540.436	0.883
550.122	0.764
559.807	0.884
569.492	0.948
579.177	0.956
588.863	0.896
598.548	0.801
608.233	0.925
617.918	0.925
627.604	0.923
637.289	0.9
646.974	0.83
656.659	0.791
666.345	0.914
676.03	0.966
685.715	0.986
695.4	0.986
705.086	0.986
714.771	0.95
724.456	0.933
734.141	0.915
743.827	0.873
753.512	0.803
763.197	0.901
772.882	0.882
782.568	0.954
792.253	0.973
801.938	0.972
811.623	0.967
821.309	0.961
830.994	0.95
840.679	0.937
850.364	0.915
860.05	0.899
869.735	0.841
879.42	0.899
889.105	0.872
898.791	0.705
908.476	0.915
918.161	0.902
927.846	0.877
937.532	0.852
947.217	0.883
956.902	0.864
966.587	0.843
976.273	0.806
985.958	0.673
995.643	0.761
1005.33	0.815
1015.01	0.788
1024.7	0.746
1034.38	0.675
1044.07	0.635
1053.75	0.678
1063.44	0.729
1073.12	0.734
1082.81	0.725
1092.5	0.773
1102.18	0.756
1111.87	0.6799
1121.55	0.635
1131.24	0.708
1140.92	0.6569
1150.61	0.527
1160.29	0.684
1169.98	0.756
1179.66	0.758
1189.35	0.749
1199.03	0.722
1208.72	0.692
1218.4	0.655
1228.09	0.608
1237.77	0.525
1247.46	0.369
1257.14	0.392
1266.83	0.516
1276.52	0.505
1286.2	0.415
1295.89	0.352
1305.57	0.301
1315.26	0.307
1324.94	0.349
1334.63	0.369
1344.31	0.429
1354	0.566
1363.68	0.558
1373.37	0.496
1383.05	0.518
1392.74	0.643
1402.42	0.601
1412.11	0.503
1421.79	0.362
1431.48	0.519
1441.16	0.466
1450.85	0.34
1460.53	0.265
1470.22	0.3101
1479.91	0.426
1489.59	0.381
1499.28	0.319
1508.96	0.253
1518.65	0.27
1528.33	0.352
1538.02	0.517
1547.7	0.569
1557.39	0.57
1567.07	0.552
1576.76	0.492
1586.44	0.453
1596.13	0.433
1605.81	0.433
1615.5	0.481
1625.18	0.564
1634.87	0.5039
1644.55	0.403
1654.24	0.459
1663.93	0.527
1673.61	0.509
1683.3	0.369
1692.98	0.342
1702.67	0.435
1712.35	0.534
1722.04	0.601
1731.72	0.662
1741.41	0.702
1751.09	0.729
1760.78	0.751
1770.46	0.764
1780.15	0.779
1789.83	0.781
1799.52	0.781
1809.2	0.785
1818.89	0.785
1828.57	0.782
1838.26	0.773
1847.94	0.767
1857.63	0.763
1867.32	0.758
1877	0.753
1886.69	0.75
1896.37	0.75
1906.06	0.753
1915.74	0.755
1925.43	0.755
1935.11	0.755
1944.8	0.757
1954.48	0.758
1964.17	0.763
1973.85	0.769
1983.54	0.774
1993.22	0.777
2002.91	0.7855
2012.59	0.7915
2022.28	0.7976
2031.96	0.8022
2041.65	0.8034
2051.33	0.799
2061.02	0.7943
2070.71	0.783
2080.39	0.78
2090.08	0.7875
2099.76	0.8003
2109.45	0.8168
2119.13	0.8329
2128.82	0.8463
2138.5	0.851
2148.19	0.852
2157.87	0.852
2167.56	0.851
2177.24	0.848
2186.93	0.848
2196.61	0.848
2206.3	0.847
2215.98	0.8449
2225.67	0.8409
2235.35	0.8359
2245.04	0.8331
2254.73	0.8327
2264.41	0.83
2274.1	0.8286
2283.78	0.818
2293.47	0.8167
2303.15	0.813
2312.84	0.8127
2322.52	0.809
2332.21	0.81
2341.89	0.7954
2351.58	0.7793
2361.26	0.776
2370.95	0.777
2380.63	0.771
2390.32	0.7585
2400	0.7555
2409.69	0.75
2419.37	0.7444
2429.06	0.7384
2438.74	0.734
2448.43	0.7296
2458.12	0.7236
2467.8	0.7163
2477.49	0.7102
2487.17	0.6954
2496.86	0.6806
2506.54	0.6723
2516.23	0.6747
2525.91	0.6839
2535.6	0.6955
2545.28	0.702
2554.97	0.699
2564.65	0.693
2574.34	0.686
2584.02	0.6768
2593.71	0.6558
2603.39	0.6389
2613.08	0.6308
2622.76	0.6207
2632.45	0.609
2642.13	0.5904
2651.82	0.5766
2661.51	0.567
2671.19	0.571
2680.88	0.5873
2690.56	0.5953
2700.25	0.5947
2709.93	0.5768
2719.62	0.5486
2729.3	0.5232
2738.99	0.5239
2748.67	0.5439
2758.36	0.551
2768.04	0.5455
2777.73	0.541
2787.41	0.5364
2797.1	0.5226
2806.78	0.5011
2816.47	0.4678
2826.15	0.3872
2835.84	0.2755
2845.53	0.1425
2855.21	0.089
2864.9	0.0926
2874.58	0.1085
2884.27	0.1283
2893.95	0.1003
2903.64	0.0644
2913.32	0.0403
2923.01	0.037
2932.69	0.0449
2942.38	0.058
2952.06	0.052
2961.75	0.0813
2971.43	0.1589
2981.12	0.2198
2990.8	0.2656
3000.49	0.2867
3010.17	0.3075
3019.86	0.3184
3029.54	0.3306
3039.23	0.3472
3048.92	0.3683
3058.6	0.3925
3068.29	0.4066
3077.97	0.4297
3087.66	0.4582
3097.34	0.4925
3107.03	0.5319
3116.71	0.5627
3126.4	0.5889
3136.08	0.6165
3145.77	0.6406
3155.45	0.6642
3165.14	0.6879
3174.82	0.7176
3184.51	0.7469
3194.19	0.7773
3203.88	0.797
3213.56	0.8124
3223.25	0.8262
3232.94	0.844
3242.62	0.8536
3252.31	0.8692
3261.99	0.8788
3271.68	0.8947
3281.36	0.9076
3291.05	0.9139
3300.73	0.9229
3310.42	0.925
3320.1	0.93
3329.79	0.933
3339.47	0.937
3349.16	0.937
3358.84	0.9359
3368.53	0.932
3378.21	0.936
3387.9	0.936
3397.58	0.937
3407.27	0.9372
3416.95	0.938
3426.64	0.937
3436.33	0.9316
3446.01	0.9423
3455.7	0.945
3465.38	0.9457
3475.07	0.949
3484.75	0.95
3494.44	0.953
3504.12	0.954
3513.81	0.954
3523.49	0.954
3533.18	0.9545
3542.86	0.9556
3552.55	0.9582
3562.23	0.9596
3571.92	0.96
3581.6	0.961
3591.29	0.962
3600.97	0.963
3610.66	0.965
3620.34	0.9668
3630.03	0.968
3639.72	0.968
3649.4	0.968
3659.09	0.968
3668.77	0.968
3678.46	0.969
3688.14	0.967
3697.83	0.966
3707.51	0.966
3717.2	0.967
3726.88	0.967
3736.57	0.966
3746.25	0.9648
3755.94	0.96
3765.62	0.96
3775.31	0.96
3784.99	0.959
3794.68	0.959
3804.36	0.957
3814.05	0.956
3823.74	0.955
3833.42	0.954
3843.11	0.9523
3852.79	0.953
3862.48	0.95
3872.16	0.9486
3881.85	0.9519
3891.53	0.953
3901.22	0.953
3910.9	0.95
3920.59	0.949
3930.27	0.9484
3939.96	0.947
3949.64	0.945
3959.33	0.944
3969.01	0.943
3978.7	0.942
3988.38	0.941
3998.07	0.941
4007.75	0.941
4017.44	0.941
