Infrared Spectrum: 3,5-Difluoro-4-hydroxypropiophenone
Formula: C 9 H 8 F 2 O 2
CAS: 178374-78-2
State: gas
Origin: EPA-IR VAPOR PHASE LIBRARY
1/CM	ABSORBANCE
549.8	0.004202
559.445	0.005112
569.09	0.006082
578.734	0.008012
588.379	0.007842
598.024	0.006052
607.669	0.006092
617.313	0.007352
626.958	0.009722
636.603	0.009032
646.248	0.007252
655.893	0.006992
665.537	0.007572
675.182	0.008042
684.827	0.008822
694.472	0.009192
704.116	0.009632
713.761	0.010162
723.406	0.011282
733.051	0.009642
742.695	0.007522
752.34	0.008442
761.985	0.017222
771.63	0.039762
781.275	0.029412
790.919	0.009752
800.564	0.008992
810.209	0.010312
819.854	0.008482
829.498	0.006772
839.143	0.006542
848.788	0.008362
858.433	0.013672
868.078	0.020322
877.722	0.025962
887.367	0.018572
897.012	0.010742
906.657	0.005192
916.301	0.003742
925.946	0.002882
935.591	0.003342
945.236	0.003852
954.88	0.004442
964.525	0.006212
974.17	0.009612
983.815	0.019152
993.46	0.050812
1003.1	0.092372
1012.75	0.071582
1022.39	0.037372
1032.04	0.028902
1041.68	0.020692
1051.33	0.014182
1060.97	0.014772
1070.62	0.016492
1080.26	0.019182
1089.91	0.013672
1099.55	0.014082
1109.2	0.013552
1118.84	0.010082
1128.49	0.012412
1138.13	0.021332
1147.78	0.054832
1157.42	0.089352
1167.07	0.062942
1176.71	0.050422
1186.36	0.048972
1196	0.049662
1205.64	0.042522
1215.29	0.035222
1224.93	0.061992
1234.58	0.105972
1244.22	0.055672
1253.87	0.028862
1263.51	0.034202
1273.16	0.027852
1282.8	0.029162
1292.45	0.041002
1302.09	0.074152
1311.74	0.111892
1321.38	0.125562
1331.03	0.132762
1340.67	0.136752
1350.32	0.100982
1359.96	0.069672
1369.61	0.054132
1379.25	0.032352
1388.9	0.019742
1398.54	0.013162
1408.18	0.015802
1417.83	0.029362
1427.47	0.058892
1437.12	0.076952
1446.76	0.054792
1456.41	0.032042
1466.05	0.025472
1475.7	0.019032
1485.34	0.015042
1494.99	0.018932
1504.63	0.039822
1514.28	0.095592
1523.92	0.107342
1533.57	0.045452
1543.21	0.021372
1552.86	0.015402
1562.5	0.012192
1572.15	0.013022
1581.79	0.018772
1591.44	0.037932
1601.08	0.064602
1610.73	0.066952
1620.37	0.052732
1630.01	0.033042
1639.66	0.016472
1649.3	0.012432
1658.95	0.011522
1668.59	0.013072
1678.24	0.016192
1687.88	0.027532
1697.53	0.070812
1707.17	0.103002
1716.82	0.053552
1726.46	0.016692
1736.11	0.010822
1745.75	0.009062
1755.4	0.006752
1765.04	0.004972
1774.69	0.004242
1784.33	0.003322
1793.98	0.002882
1803.62	0.002242
1813.27	0.002002
1822.91	0.002102
1832.55	0.001802
1842.2	0.001842
1851.84	0.001672
1861.49	0.0014962
1871.13	0.0015057
1880.78	0.0014707
1890.42	0.0015969
1900.07	0.0015505
1909.71	0.00149
1919.36	0.0013813
1929	0.0015632
1938.65	0.0012775
1948.29	0.0013085
1957.94	0.0014235
1967.58	0.0014677
1977.23	0.0013749
1986.87	0.0013933
1996.52	0.001742
2006.16	0.001772
2015.81	0.0015715
2025.45	0.0015291
2035.1	0.001652
2044.74	0.0015311
2054.38	0.0013856
2064.03	0.0013565
2073.67	0.0014275
2083.32	0.0011869
2092.96	0.0013734
2102.61	0.001622
2112.25	0.0014907
2121.9	0.0011239
2131.54	0.0013134
2141.19	0.0012837
2150.83	0.0012621
2160.48	0.0013663
2170.12	0.0012689
2179.77	0.0010421
2189.41	0.0013604
2199.06	0.0013269
2208.7	0.0015999
2218.35	0.0014042
2227.99	0.0015262
2237.64	0.001662
2247.28	0.0014334
2256.92	0.0015616
2266.57	0.001682
2276.21	0.001652
2285.86	0.002052
2295.5	0.002232
2305.15	0.001762
2314.79	0.001692
2324.44	0.001642
2334.08	0.0014605
2343.73	0.0015945
2353.37	0.0014036
2363.02	0.0014222
2372.66	0.0014835
2382.31	0.0014331
2391.95	0.0015236
2401.6	0.001662
2411.24	0.0009655
2420.89	0.0013658
2430.53	0.001113
2440.18	0.0012614
2449.82	0.001601
2459.47	0.002042
2469.11	0.001962
2478.75	0.002292
2488.4	0.003472
2498.04	0.003282
2507.69	0.002462
2517.33	0.001792
2526.98	0.0015474
2536.62	0.0014599
2546.27	0.001692
2555.91	0.0015384
2565.56	0.0015153
2575.2	0.0015467
2584.85	0.0015804
2594.49	0.001258
2604.14	0.0012339
2613.78	0.001056
2623.43	0.0011905
2633.07	0.001215
2642.72	0.0012421
2652.36	0.0013184
2662.01	0.001802
2671.65	0.001802
2681.29	0.002222
2690.94	0.002552
2700.58	0.002442
2710.23	0.001962
2719.87	0.001692
2729.52	0.0015316
2739.16	0.0015541
2748.81	0.002232
2758.45	0.001912
2768.1	0.002172
2777.74	0.0015327
2787.39	0.001602
2797.03	0.001722
2806.68	0.001742
2816.32	0.001692
2825.97	0.002172
2835.61	0.002262
2845.26	0.002242
2854.9	0.002802
2864.55	0.003772
2874.19	0.005212
2883.84	0.007892
2893.48	0.009052
2903.12	0.008802
2912.77	0.012282
2922.41	0.014102
2932.06	0.011652
2941.7	0.014662
2951.35	0.020252
2960.99	0.013692
2970.64	0.012042
2980.28	0.020762
2989.93	0.024952
2999.57	0.014522
3009.22	0.007212
3018.86	0.005532
3028.51	0.003772
3038.15	0.003772
3047.8	0.003082
3057.44	0.002252
3067.09	0.002582
3076.73	0.004672
3086.38	0.005622
3096.02	0.003052
3105.67	0.002152
3115.31	0.001972
3124.95	0.002162
3134.6	0.0012872
3144.24	0.0011712
3153.89	0.0013419
3163.53	0.000801
3173.18	0.0012148
3182.82	0.0008172
3192.47	0.0008141
3202.11	0.0007561
3211.76	0.0014107
3221.4	0.0009669
3231.05	0.0012987
3240.69	0.0010654
3250.34	0.0013115
3259.98	0.0011259
3269.63	0.0014657
3279.27	0.0012079
3288.92	0.0012153
3298.56	0.0007824
3308.21	0.0010505
3317.85	0.0011142
3327.49	0.0010666
3337.14	0.0011741
3346.78	0.0012017
3356.43	0.0012895
3366.07	0.0015763
3375.72	0.002042
3385.36	0.002342
3395.01	0.002432
3404.65	0.002112
3414.3	0.0011073
3423.94	0.0011908
3433.59	0.000443
3443.23	0.0008002
3452.88	0.000844
3462.52	0.0007521
3472.17	0.0010855
3481.81	0.0009117
3491.46	0.00101
3501.1	0.0007495
3510.75	0.00063983
3520.39	0.0006628
3530.04	0.0007037
3539.68	0.0007711
3549.32	0.000602253
3558.97	0.0010342
3568.61	0.0009293
3578.26	0.001682
3587.9	0.002762
3597.55	0.005032
3607.19	0.018462
3616.84	0.117582
3626.48	0.125062
3636.13	0.018602
3645.77	0.004342
3655.42	0.002692
3665.06	0.001892
3674.71	0.001882
3684.35	0.0009394
3694	0.0008919
3703.64	0.0011173
3713.29	0.001058
3722.93	0.0008058
3732.58	0.0014382
3742.22	0.0014144
3751.86	0.00069456
3761.51	0.0008717
3771.15	0.000601219
3780.8	0.0008885
3790.44	0.0009289
3800.09	5.9e-05
3809.73	0.0007663
3819.38	0.000828
3829.02	0.0006629
3838.67	0.0005317
3848.31	0.0008633
3857.96	0.0012265
3867.6	0.0009812
3877.25	0.0009038
3886.89	0.000181
3896.54	0.00065252
3906.18	0.0013155
3915.83	0.001672
3925.47	0.0010886
3935.12	0.0008945
3944.76	0.0010706
3954.41	0.0011965
3964.05	0.000978
3973.69	0.0008661
3983.34	0.000603765
3992.98	0.0012146
