Infrared Spectrum: 2-Benzoyl-1,3-indanedione
Formula: C 16 H 10 O 3
CAS: 1785-95-1
State: gas
Origin: EPA-IR VAPOR PHASE LIBRARY
1/CM	ABSORBANCE
549.8	0.001643
559.445	0.0011318
569.09	0.0009899
578.734	0.0011217
588.379	0.002443
598.024	0.002773
607.669	0.007193
617.313	0.041993
626.958	0.033863
636.603	0.006503
646.248	0.003973
655.893	0.005283
665.537	0.007693
675.182	0.014213
684.827	0.023793
694.472	0.027163
704.116	0.016283
713.761	0.012403
723.406	0.020293
733.051	0.066593
742.695	0.058583
752.34	0.017383
761.985	0.011133
771.63	0.011393
781.275	0.013223
790.919	0.018273
800.564	0.031393
810.209	0.024623
819.854	0.014413
829.498	0.010713
839.143	0.010153
848.788	0.009483
858.433	0.010823
868.078	0.017853
877.722	0.031743
887.367	0.023173
897.012	0.016353
906.657	0.015623
916.301	0.014353
925.946	0.012843
935.591	0.010973
945.236	0.010263
954.88	0.009783
964.525	0.009303
974.17	0.007373
983.815	0.008173
993.46	0.017973
1003.1	0.018553
1012.75	0.009983
1022.39	0.011893
1032.04	0.021593
1041.68	0.018613
1051.33	0.008823
1060.97	0.009803
1070.62	0.012153
1080.26	0.010773
1089.91	0.010453
1099.55	0.013293
1109.2	0.015283
1118.84	0.024393
1128.49	0.043113
1138.13	0.033323
1147.78	0.044483
1157.42	0.041353
1167.07	0.033453
1176.71	0.039413
1186.36	0.025023
1196	0.014913
1205.64	0.013763
1215.29	0.016883
1224.93	0.023053
1234.58	0.030693
1244.22	0.042623
1253.87	0.042993
1263.51	0.031233
1273.16	0.031083
1282.8	0.041903
1292.45	0.042893
1302.09	0.045553
1311.74	0.067303
1321.38	0.087323
1331.03	0.075323
1340.67	0.063643
1350.32	0.079833
1359.96	0.091413
1369.61	0.088273
1379.25	0.085223
1388.9	0.084233
1398.54	0.076383
1408.18	0.062513
1417.83	0.052973
1427.47	0.047593
1437.12	0.046493
1446.76	0.054803
1456.41	0.040513
1466.05	0.045453
1475.7	0.046673
1485.34	0.061363
1494.99	0.066943
1504.63	0.047083
1514.28	0.049683
1523.92	0.060813
1533.57	0.078033
1543.21	0.107973
1552.86	0.159963
1562.5	0.223203
1572.15	0.205493
1581.79	0.158053
1591.44	0.214383
1601.08	0.208633
1610.73	0.206733
1620.37	0.155673
1630.01	0.117833
1639.66	0.112383
1649.3	0.141113
1658.95	0.158513
1668.59	0.122223
1678.24	0.083173
1687.88	0.066473
1697.53	0.056793
1707.17	0.063123
1716.82	0.117113
1726.46	0.119053
1736.11	0.043323
1745.75	0.027373
1755.4	0.027443
1765.04	0.022953
1774.69	0.014023
1784.33	0.010803
1793.98	0.010643
1803.62	0.010343
1813.27	0.009193
1822.91	0.008373
1832.55	0.008363
1842.2	0.008983
1851.84	0.007853
1861.49	0.007483
1871.13	0.007483
1880.78	0.006883
1890.42	0.006283
1900.07	0.006153
1909.71	0.006363
1919.36	0.005713
1929	0.005403
1938.65	0.006423
1948.29	0.006453
1957.94	0.006113
1967.58	0.007163
1977.23	0.005593
1986.87	0.004453
1996.52	0.004173
2006.16	0.004063
2015.81	0.004193
2025.45	0.004273
2035.1	0.004283
2044.74	0.004333
2054.38	0.004383
2064.03	0.004213
2073.67	0.003813
2083.32	0.003733
2092.96	0.003803
2102.61	0.003763
2112.25	0.003663
2121.9	0.003823
2131.54	0.003893
2141.19	0.003823
2150.83	0.003783
2160.48	0.003973
2170.12	0.004043
2179.77	0.003803
2189.41	0.003983
2199.06	0.004083
2208.7	0.004383
2218.35	0.004343
2227.99	0.004423
2237.64	0.004733
2247.28	0.005113
2256.92	0.005443
2266.57	0.005133
2276.21	0.004623
2285.86	0.004543
2295.5	0.004633
2305.15	0.004933
2314.79	0.004853
2324.44	0.004973
2334.08	0.004513
2343.73	0.004593
2353.37	0.004403
2363.02	0.004403
2372.66	0.004623
2382.31	0.004513
2391.95	0.004333
2401.6	0.004673
2411.24	0.004953
2420.89	0.004843
2430.53	0.004653
2440.18	0.004733
2449.82	0.004713
2459.47	0.004693
2469.11	0.004633
2478.75	0.004763
2488.4	0.005063
2498.04	0.004963
2507.69	0.005083
2517.33	0.005293
2526.98	0.005473
2536.62	0.005643
2546.27	0.005843
2555.91	0.005833
2565.56	0.005783
2575.2	0.005893
2584.85	0.006493
2594.49	0.006653
2604.14	0.006803
2613.78	0.006873
2623.43	0.006963
2633.07	0.007033
2642.72	0.007153
2652.36	0.007023
2662.01	0.006953
2671.65	0.006813
2681.29	0.006993
2690.94	0.006623
2700.58	0.006393
2710.23	0.006583
2719.87	0.006313
2729.52	0.006403
2739.16	0.006043
2748.81	0.006093
2758.45	0.006093
2768.1	0.006473
2777.74	0.006553
2787.39	0.006523
2797.03	0.006283
2806.68	0.006413
2816.32	0.006143
2825.97	0.006153
2835.61	0.006203
2845.26	0.005843
2854.9	0.005893
2864.55	0.005753
2874.19	0.005673
2883.84	0.005723
2893.48	0.005663
2903.12	0.005763
2912.77	0.005643
2922.41	0.005973
2932.06	0.005673
2941.7	0.005533
2951.35	0.005443
2960.99	0.005493
2970.64	0.005323
2980.28	0.005613
2989.93	0.005553
2999.57	0.006023
3009.22	0.006373
3018.86	0.007003
3028.51	0.009423
3038.15	0.011863
3047.8	0.014793
3057.44	0.019633
3067.09	0.027583
3076.73	0.040913
3086.38	0.032953
3096.02	0.014853
3105.67	0.010283
3115.31	0.008053
3124.95	0.006833
3134.6	0.005743
3144.24	0.005543
3153.89	0.005203
3163.53	0.004713
3173.18	0.004353
3182.82	0.004533
3192.47	0.004733
3202.11	0.004413
3211.76	0.003843
3221.4	0.003783
3231.05	0.003643
3240.69	0.003243
3250.34	0.003553
3259.98	0.003353
3269.63	0.002933
3279.27	0.002793
3288.92	0.002973
3298.56	0.003063
3308.21	0.003143
3317.85	0.002763
3327.49	0.002683
3337.14	0.002673
3346.78	0.002703
3356.43	0.002123
3366.07	0.002503
3375.72	0.002333
3385.36	0.002213
3395.01	0.002243
3404.65	0.002133
3414.3	0.001963
3423.94	0.001993
3433.59	0.002023
3443.23	0.001563
3452.88	0.001583
3462.52	0.001293
3472.17	0.001413
3481.81	0.001443
3491.46	0.0010883
3501.1	0.0008425
3510.75	0.0009912
3520.39	0.0008348
3530.04	0.0008974
3539.68	0.0006394
3549.32	0.0008413
3558.97	0.0006723
3568.61	0.0007005
3578.26	0.0007363
3587.9	0.0005302
3597.55	0.0011152
3607.19	0.0007389
3616.84	0.0004906
3626.48	0.0007175
3636.13	0.0006511
3645.77	0.0006064
3655.42	0.0007379
3665.06	0.0004361
3674.71	0.0004713
3684.35	0.0005513
3694	0.0007906
3703.64	0.0002801
3713.29	0.0007545
3722.93	0.000599
3732.58	0.000864
3742.22	0.0007136
3751.86	0.0006934
3761.51	0.00034243
3771.15	0.0008385
3780.8	0.0007842
3790.44	0.0005943
3800.09	0.0004937
3809.73	0.00051
3819.38	0.0006904
3829.02	0.000397
3838.67	0.0001854
3848.31	0
3857.96	0.0006702
3867.6	0.000821
3877.25	0.000717
3886.89	0.000802
3896.54	0.00071
3906.18	0.0005532
3915.83	0.0005521
3925.47	0.0007266
3935.12	0.0006706
3944.76	0.0006425
3954.41	0.0007596
3964.05	0.0005813
3973.69	0.0006679
3983.34	0.0005569
3992.98	0.0004624
