Infrared Spectrum: 2(2-ACETYL-1-PHENYLETHYL) 1,3-INDANDIONE
Formula: C19 H16 O3
CAS: 1785-98-4
State: SOLID (MINERAL OIL MULL)
Class: COBLENTZ
Instrument: Not specified, most likely a prism, grating, or hybrid spectrometer.
Sampling: TRANSMISSION
Resolution: 4
Origin: DOW CHEMICAL COMPANY
MICROMETERS	TRANSMITTANCE
2.034	0.296
2.07508	0.308
2.11615	0.322
2.15723	0.332
2.1983	0.344
2.23938	0.346
2.28046	0.349
2.32153	0.36
2.36261	0.373
2.40368	0.39
2.44476	0.402
2.48584	0.418
2.52691	0.423
2.56799	0.431
2.60907	0.44
2.65014	0.448
2.69122	0.459
2.73229	0.462
2.77337	0.477
2.81445	0.472
2.85552	0.474
2.8966	0.479
2.93767	0.472
2.97875	0.491
3.01983	0.501
3.0609	0.506
3.10198	0.51
3.14305	0.511
3.18413	0.496
3.22521	0.481
3.26628	0.47
3.30736	0.421
3.34844	0.156
3.38951	0.029
3.43059	0.073
3.47166	0.121
3.51274	0.477
3.55382	0.6
3.59489	0.627
3.63597	0.634
3.67704	0.631
3.71812	0.634
3.7592	0.645
3.80027	0.653
3.84135	0.667
3.88242	0.679
3.9235	0.689
3.96458	0.699
4.00565	0.704
4.04673	0.708
4.08781	0.713
4.12888	0.718
4.16996	0.725
4.21103	0.726
4.25211	0.73
4.29319	0.738
4.33426	0.744
4.37534	0.747
4.41641	0.752
4.45749	0.755
4.49857	0.757
4.53964	0.766
4.58072	0.769
4.62179	0.774
4.66287	0.781
4.70395	0.783
4.74502	0.786
4.7861	0.79
4.82717	0.8
4.86825	0.803
4.90933	0.808
4.9504	0.81
4.99148	0.813
5.03256	0.815
5.07363	0.819
5.11471	0.822
5.15578	0.829
5.19686	0.831
5.23794	0.836
5.27901	0.839
5.32009	0.832
5.36116	0.832
5.40224	0.832
5.44332	0.841
5.48439	0.853
5.52547	0.863
5.56654	0.865
5.60762	0.863
5.6487	0.86
5.68977	0.836
5.73085	0.737
5.77193	0.535
5.813	0.177
5.85408	0.23
5.89515	0.274
5.93623	0.119
5.97731	0.247
6.01838	0.484
6.05946	0.595
6.10053	0.645
6.14161	0.566
6.18269	0.211
6.22376	0.315
6.26484	0.211
6.30591	0.093
6.34699	0.133
6.38807	0.266
6.42914	0.469
6.47022	0.54
6.5113	0.645
6.55237	0.667
6.59345	0.697
6.63452	0.718
6.6756	0.72
6.71668	0.703
6.75775	0.607
6.79883	0.266
6.8399	0.25
6.88098	0.43
6.92206	0.535
6.96313	0.68
7.00421	0.749
7.04528	0.766
7.08636	0.779
7.12744	0.778
7.16851	0.762
7.20959	0.624
7.25066	0.465
7.29174	0.486
7.33282	0.549
7.37389	0.341
7.41497	0.392
7.45605	0.535
7.49712	0.529
7.5382	0.477
7.57927	0.571
7.62035	0.663
7.66143	0.655
7.7025	0.639
7.74358	0.665
7.78465	0.622
7.82573	0.416
7.86681	0.365
7.90788	0.474
7.94896	0.31
7.99003	0.104
8.03111	0.255
8.07219	0.397
8.11326	0.409
8.15434	0.257
8.19542	0.373
8.23649	0.556
8.27757	0.634
8.31864	0.651
8.35972	0.662
8.4008	0.699
8.44187	0.716
8.48295	0.713
8.52402	0.675
8.5651	0.622
8.60618	0.612
8.64725	0.592
8.68833	0.665
8.7294	0.713
8.77048	0.735
8.81156	0.755
8.85263	0.766
8.89371	0.778
8.93478	0.795
8.97586	0.8
9.01694	0.798
9.05801	0.795
9.09909	0.795
9.14017	0.79
9.18124	0.757
9.22232	0.766
9.26339	0.791
9.30447	0.8
9.34555	0.805
9.38662	0.798
9.4277	0.784
9.46877	0.791
9.50985	0.774
9.55093	0.711
9.592	0.725
9.63308	0.784
9.67415	0.803
9.71523	0.805
9.75631	0.776
9.79738	0.726
9.83846	0.75
9.87954	0.771
9.92061	0.773
9.96169	0.788
10.0028	0.793
10.0438	0.779
10.0849	0.68
10.126	0.441
10.1671	0.462
10.2081	0.641
10.2492	0.715
10.2903	0.733
10.3314	0.742
10.3724	0.762
10.4135	0.764
10.4546	0.79
10.4957	0.812
10.5368	0.827
10.5778	0.829
10.6189	0.831
10.66	0.832
10.7011	0.836
10.7421	0.837
10.7832	0.841
10.8243	0.829
10.8654	0.817
10.9064	0.822
10.9475	0.848
10.9886	0.853
11.0297	0.856
11.0707	0.858
11.1118	0.86
11.1529	0.863
11.194	0.865
11.235	0.861
11.2761	0.851
11.3172	0.848
11.3583	0.854
11.3994	0.86
11.4404	0.853
11.4815	0.802
11.5226	0.779
11.5637	0.839
11.6047	0.851
11.6458	0.853
11.6869	0.854
11.728	0.86
11.769	0.87
11.8101	0.866
11.8512	0.86
11.8923	0.86
11.9333	0.863
11.9744	0.866
12.0155	0.873
12.0566	0.875
12.0976	0.877
12.1387	0.877
12.1798	0.877
12.2209	0.866
12.2619	0.839
12.303	0.839
12.3441	0.848
12.3852	0.844
12.4263	0.795
12.4673	0.725
12.5084	0.689
12.5495	0.745
12.5906	0.819
12.6316	0.829
12.6727	0.812
12.7138	0.805
12.7549	0.827
12.7959	0.829
12.837	0.829
12.8781	0.82
12.9192	0.803
12.9602	0.783
13.0013	0.745
13.0424	0.694
13.0835	0.59
13.1245	0.47
13.1656	0.426
13.2067	0.397
13.2478	0.399
13.2889	0.5
13.3299	0.566
13.371	0.576
13.4121	0.554
13.4532	0.53
13.4942	0.484
13.5353	0.351
13.5764	0.269
13.6175	0.336
13.6585	0.474
13.6996	0.564
13.7407	0.622
13.7818	0.656
13.8228	0.67
13.8639	0.68
13.905	0.687
13.9461	0.697
13.9871	0.703
14.0282	0.704
14.0693	0.704
14.1104	0.696
14.1514	0.663
14.1925	0.617
14.2336	0.598
14.2747	0.598
14.3158	0.621
14.3568	0.631
14.3979	0.629
14.439	0.629
14.4801	0.622
14.5211	0.619
14.5622	0.617
14.6033	0.619
14.6444	0.621
14.6854	0.626
14.7265	0.621
14.7676	0.616
14.8087	0.607
14.8497	0.598
14.8908	0.592
14.9319	0.58
14.973	0.573
15.014	0.571
15.0551	0.558
15.0962	0.552
15.1373	0.546
15.1784	0.532
15.2194	0.522
15.2605	0.511
15.3016	0.5
15.3427	0.493
15.3837	0.486
15.4248	0.479
15.4659	0.47
15.507	0.459
15.548	0.447
15.5891	0.421
15.6302	0.392
15.6713	0.36
15.7123	0.329
15.7534	0.307
15.7945	0.3
15.8356	0.298
