Infrared Spectrum: Purine, 6-ethoxy-
Formula: C7 H8 N4 O
CAS: 17861-06-2
State: SOLID (0.7 mg / 650 mg KBr DISC)
Class: COBLENTZ III
Instrument: PERKIN-ELMER 21 (GRATING)
Instrument parameters: FILTER CHANGE ABOUT 1030 CM^-^1
Sampling: TRANSMISSION
Resolution: 2
Origin: SOUTHERN RESEARCH INSTITUTE
1/CM	TRANSMITTANCE
603	0.6118
612	0.6368
621	0.6286
630	0.5911
639	0.4313
648	0.4149
657	0.6002
666	0.5858
675	0.7726
684	0.7295
693	0.782
702	0.7709
711	0.7645
720	0.7521
729	0.7375
738	0.7222
747	0.6932
756	0.6008
765	0.7182
774	0.6976
783	0.6579
792	0.5666
801	0.3195
810	0.6554
819	0.6476
828	0.6329
837	0.6065
846	0.5418
855	0.4408
864	0.5626
873	0.4618
882	0.3049
891	0.2988
900	0.5655
909	0.5308
918	0.4214
927	0.3647
936	0.3853
945	0.4661
954	0.379
963	0.3081
972	0.4287
981	0.6079
990	0.6379
999	0.6199
1008	0.5289
1017	0.2784
1026	0.5193
1035	0.7045
1044	0.6985
1053	0.6807
1062	0.6665
1071	0.6517
1080	0.6227
1089	0.5629
1098	0.4331
1107	0.3187
1116	0.339
1125	0.451
1134	0.5434
1143	0.4112
1152	0.4639
1161	0.6242
1170	0.5722
1179	0.3827
1188	0.6478
1197	0.6231
1206	0.5917
1215	0.6032
1224	0.5378
1233	0.3962
1242	0.286
1251	0.447
1260	0.6223
1269	0.6103
1278	0.5764
1287	0.5078
1296	0.4427
1305	0.2477
1314	0.1079
1323	0.259
1332	0.389
1341	0.2238
1350	0.6042
1359	0.5494
1368	0.336
1377	0.2302
1386	0.4948
1395	0.6598
1404	0.4809
1413	0.4048
1422	0.6265
1431	0.5339
1440	0.4041
1449	0.5082
1458	0.3513
1467	0.3255
1476	0.4171
1485	0.5705
1494	0.655
1503	0.6915
1512	0.7015
1521	0.6925
1530	0.657
1539	0.6134
1548	0.5678
1557	0.4692
1566	0.4003
1575	0.2892
1584	0.1445
1593	0.1311
1602	0.1442
1611	0.3175
1620	0.3746
1629	0.4433
1638	0.592
1647	0.6996
1656	0.7383
1665	0.752
1674	0.7648
1683	0.7676
1692	0.7609
1701	0.7512
1710	0.7392
1719	0.7187
1728	0.6909
1737	0.6639
1746	0.6428
1755	0.6204
1764	0.6169
1773	0.6211
1782	0.6246
1791	0.6234
1800	0.6199
1809	0.6153
1818	0.6124
1827	0.6156
1836	0.618
1845	0.6051
1854	0.5954
1863	0.6081
1872	0.6332
1881	0.6397
1890	0.6422
1899	0.6471
1908	0.6541
1917	0.657
1926	0.6584
1935	0.6593
1944	0.6606
1953	0.662
1962	0.6642
1971	0.6695
1980	0.6774
1989	0.6767
1998	0.6762
2007	0.6755
2016	0.6748
2025	0.674
2034	0.673
2043	0.6709
2052	0.6687
2061	0.6665
2070	0.6642
2079	0.6619
2088	0.6593
2097	0.6562
2106	0.6527
2115	0.6484
2124	0.6437
2133	0.6386
2142	0.6335
2151	0.6281
2160	0.6226
2169	0.617
2178	0.6115
2187	0.6059
2196	0.5989
2205	0.5886
2214	0.5782
2223	0.5656
2232	0.5571
2241	0.5498
2250	0.543
2259	0.5346
2268	0.5261
2277	0.5159
2286	0.5054
2295	0.494
2304	0.4815
2313	0.4657
2322	0.442
2331	0.4198
2340	0.4155
2349	0.4138
2358	0.412
2367	0.4109
2376	0.4102
2385	0.4093
2394	0.4084
2403	0.4059
2412	0.4013
2421	0.3956
2430	0.3891
2439	0.3831
2448	0.3782
2457	0.3766
2466	0.3753
2475	0.3749
2484	0.3739
2493	0.369
2502	0.3624
2511	0.3608
2520	0.3614
2529	0.3637
2538	0.3659
2547	0.3683
2556	0.3715
2565	0.3776
2574	0.3834
2583	0.3847
2592	0.3821
2601	0.3783
2610	0.3744
2619	0.3716
2628	0.3696
2637	0.3693
2646	0.37
2655	0.3726
2664	0.3769
2673	0.3812
2682	0.3841
2691	0.3845
2700	0.3851
2709	0.3868
2718	0.3912
2727	0.3938
2736	0.3903
2745	0.3877
2754	0.3881
2763	0.3893
2772	0.394
2781	0.4113
2790	0.4292
2799	0.4502
2808	0.4671
2817	0.4861
2826	0.4966
2835	0.5018
2844	0.5076
2853	0.5086
2862	0.5043
2871	0.4971
2880	0.4844
2889	0.4663
2898	0.4503
2907	0.4383
2916	0.4344
2925	0.4352
2934	0.4369
2943	0.4395
2952	0.443
2961	0.4381
2970	0.4373
2979	0.4465
2988	0.472
2997	0.5022
3006	0.5366
3015	0.541
3024	0.5367
3033	0.5233
3042	0.5224
3051	0.527
3060	0.5617
3069	0.5955
3078	0.6136
3087	0.6265
3096	0.636
3105	0.6417
3114	0.6447
3123	0.6777
3132	0.7046
3141	0.7125
3150	0.7173
3159	0.7204
3168	0.7221
3177	0.7235
3186	0.7248
3195	0.7256
3204	0.7275
3213	0.7305
3222	0.7308
3231	0.7302
3240	0.7292
3249	0.7273
3258	0.7271
3267	0.7276
3276	0.7268
3285	0.7243
3294	0.7187
3303	0.7128
3312	0.707
3321	0.7015
3330	0.6959
3339	0.6894
3348	0.6858
3357	0.6755
3366	0.669
3375	0.6636
3384	0.659
3393	0.6566
3402	0.6527
3411	0.6486
3420	0.6468
3429	0.6455
3438	0.6452
3447	0.6455
3456	0.6457
3465	0.6461
3474	0.6478
3483	0.6495
3492	0.6512
3501	0.6535
3510	0.6564
3519	0.6616
3528	0.6636
3537	0.6688
3546	0.6764
3555	0.6828
3564	0.6885
3573	0.6941
3582	0.6982
3591	0.7024
3600	0.7077
3609	0.7129
3618	0.7176
3627	0.7217
3636	0.724
3645	0.7247
3654	0.7244
3663	0.7241
3672	0.7247
3681	0.7254
3690	0.7264
3699	0.7275
3708	0.7291
3717	0.7311
3726	0.7309
3735	0.7274
3744	0.726
3753	0.7267
3762	0.7264
3771	0.726
3780	0.7254
3789	0.724
3798	0.7207
3807	0.7164
3816	0.7094
3825	0.7001
3834	0.6981
3843	0.6984
3852	0.6989
3861	0.6964
3870	0.689
3879	0.6871
3888	0.6901
3897	0.6907
3906	0.6898
3915	0.6881
3924	0.6866
3933	0.6853
3942	0.6844
3951	0.6839
3960	0.6847
3969	0.6904
