Infrared Spectrum: 2-Naphthalenamine, N-phenyl-, hydrochloride
Formula: C16 H14 Cl N
CAS: 17862-71-4
State: SOLID (KBr DISC, 0.8% WT.)
Class: COBLENTZ III
Instrument: PERKIN-ELMER 157
Sampling: TRANSMISSION
Resolution: 2
Origin: BRITISH PETROLEUM CO. LTD., ENGLAND
1/CM	TRANSMITTANCE
668	0.6073
677	0.5614
686	0.3661
695	0.2013
704	0.0794
713	0.0481
722	0.192
731	0.5215
740	0.2818
749	0.086
758	0.2168
767	0.0825
776	0.0705
785	0.6451
794	0.5699
803	0.1346
812	0.0396
821	0.3918
830	0.4359
839	0.6156
848	0.5844
857	0.2897
866	0.5792
875	0.3864
884	0.5119
893	0.5388
902	0.4284
911	0.6657
920	0.6617
929	0.6556
938	0.6288
947	0.5443
956	0.3323
965	0.2969
974	0.4713
983	0.5067
992	0.4583
1001	0.5269
1010	0.4666
1019	0.5458
1028	0.2936
1037	0.6274
1046	0.6176
1055	0.5988
1064	0.589
1073	0.5472
1082	0.4904
1091	0.5952
1100	0.57
1109	0.5335
1118	0.4894
1127	0.4484
1136	0.4736
1145	0.2742
1154	0.2415
1163	0.399
1172	0.3117
1181	0.2643
1190	0.4384
1199	0.3119
1208	0.2548
1217	0.3501
1226	0.4532
1235	0.3791
1244	0.2183
1253	0.3848
1262	0.318
1271	0.2204
1280	0.295
1289	0.3479
1298	0.3043
1307	0.2476
1316	0.3391
1325	0.3829
1334	0.3339
1343	0.2443
1352	0.1994
1361	0.2556
1370	0.2449
1379	0.2149
1388	0.2743
1397	0.2826
1406	0.2701
1415	0.1901
1424	0.1512
1433	0.1887
1442	0.2768
1451	0.2076
1460	0.1081
1469	0.0981
1478	0.0889
1487	0.1238
1496	0.053
1505	0.1566
1514	0.1419
1523	0.2497
1532	0.314
1541	0.2653
1550	0.1559
1559	0.1206
1568	0.1095
1577	0.1494
1586	0.1735
1595	0.1454
1604	0.0989
1613	0.2001
1622	0.281
1631	0.2431
1640	0.2402
1649	0.3706
1658	0.4329
1667	0.4322
1676	0.4206
1685	0.4104
1694	0.4029
1703	0.3884
1712	0.387
1721	0.3856
1730	0.3851
1739	0.3751
1748	0.354
1757	0.3517
1766	0.3509
1775	0.3504
1784	0.3499
1793	0.3318
1802	0.3177
1811	0.3163
1820	0.3261
1829	0.3189
1838	0.3025
1847	0.3003
1856	0.2993
1865	0.2927
1874	0.2814
1883	0.2676
1892	0.2526
1901	0.2413
1910	0.2385
1919	0.2297
1928	0.2166
1937	0.202
1946	0.1839
1955	0.1573
1964	0.1337
1973	0.1111
1982	0.1116
1991	0.1372
2000	0.1522
2009	0.1577
2018	0.1556
2027	0.1492
2036	0.147
2045	0.1563
2054	0.1568
2063	0.1462
2072	0.1452
2081	0.1483
2090	0.1499
2099	0.1475
2108	0.1407
2117	0.1341
2126	0.1255
2135	0.1156
2144	0.1009
2153	0.0827
2162	0.07
2171	0.0606
2180	0.054
2189	0.0538
2198	0.0533
2207	0.0503
2216	0.0424
2225	0.0327
2234	0.0261
2243	0.0224
2252	0.0207
2261	0.0201
2270	0.0201
2279	0.0202
2288	0.0203
2297	0.0204
2306	0.0206
2315	0.021
2324	0.0213
2333	0.0215
2342	0.0212
2351	0.021
2360	0.0207
2369	0.0204
2378	0.0201
2387	0.0196
2396	0.0192
2405	0.0188
2414	0.0184
2423	0.0182
2432	0.0182
2441	0.0183
2450	0.0184
2459	0.0184
2468	0.0185
2477	0.0186
2486	0.019
2495	0.0194
2504	0.0199
2513	0.0203
2522	0.0207
2531	0.0211
2540	0.0215
2549	0.0222
2558	0.023
2567	0.0239
2576	0.0256
2585	0.0287
2594	0.0304
2603	0.0314
2612	0.0321
2621	0.0327
2630	0.0329
2639	0.0331
2648	0.0332
2657	0.0331
2666	0.033
2675	0.0335
2684	0.0387
2693	0.0437
2702	0.0473
2711	0.0494
2720	0.0516
2729	0.0588
2738	0.0674
2747	0.0703
2756	0.071
2765	0.0762
2774	0.0853
2783	0.0954
2792	0.1009
2801	0.1051
2810	0.1084
2819	0.1112
2828	0.1128
2837	0.1147
2846	0.123
2855	0.1249
2864	0.1278
2873	0.1321
2882	0.1373
2891	0.1432
2900	0.1507
2909	0.1634
2918	0.174
2927	0.1906
2936	0.2045
2945	0.208
2954	0.2091
2963	0.2103
2972	0.2088
2981	0.2076
2990	0.2043
2999	0.2002
3008	0.193
3017	0.1857
3026	0.1785
3035	0.1715
3044	0.1707
3053	0.1802
3062	0.1909
3071	0.2015
3080	0.2119
3089	0.2225
3098	0.2253
3107	0.2261
3116	0.2266
3125	0.2268
3134	0.2262
3143	0.2249
3152	0.2231
3161	0.2208
3170	0.2184
3179	0.2158
3188	0.2134
3197	0.211
3206	0.2087
3215	0.2064
3224	0.204
3233	0.2017
3242	0.1992
3251	0.1968
3260	0.1945
3269	0.1922
3278	0.1897
3287	0.1865
3296	0.1828
3305	0.1791
3314	0.1755
3323	0.1718
3332	0.1684
3341	0.1651
3350	0.1619
3359	0.1587
3368	0.1556
3377	0.153
3386	0.1504
3395	0.1503
3404	0.1517
3413	0.1533
3422	0.1546
3431	0.1554
3440	0.1562
3449	0.157
3458	0.1579
3467	0.1587
3476	0.1595
3485	0.1604
3494	0.1612
3503	0.1622
3512	0.1632
3521	0.1642
3530	0.1652
3539	0.1662
3548	0.1672
3557	0.1682
3566	0.1694
3575	0.1706
3584	0.1718
3593	0.173
3602	0.1738
3611	0.1745
3620	0.1751
3629	0.1751
3638	0.1751
3647	0.1752
3656	0.1752
3665	0.1752
3674	0.1751
3683	0.1747
3692	0.1743
3701	0.1725
3710	0.1703
3719	0.1682
3728	0.1663
3737	0.1644
3746	0.1627
3755	0.1609
3764	0.1594
3773	0.1581
3782	0.1568
3791	0.1554
3800	0.1541
3809	0.1528
3818	0.1517
3827	0.1505
3836	0.1493
3845	0.1481
3854	0.1472
3863	0.1466
3872	0.1459
3881	0.1453
3890	0.1447
3899	0.144
3908	0.1425
3917	0.1407
3926	0.1389
3935	0.1372
3944	0.137
3953	0.1369
3962	0.1367
3971	0.1365
3980	0.1363
3989	0.136
3998	0.1358
