Infrared Spectrum: OCTASILSESQUIOXANE, OCTAMETHYL-
Formula: C8 H24 O12 Si8
CAS: 17865-85-9
State: SOLID (OIL MULL, KRS-5 PLATES)
Melting point: MORE THAN 300 C
Class: COBLENTZ III
Instrument: PERKIN-ELMER 521 (GRATING)
Instrument parameters: FILTERS AT 3150, 2500, 2000, 1150, 700, 410. GRATING CHANGES: 2000, 630
Sampling: TRANSMISSION
Resolution: 2
Origin: DOW CORNING CORP.
1/CM	TRANSMITTANCE
253	1.0049
262	1.0052
271	1.0039
280	1.0018
289	0.9981
298	0.9937
307	0.9878
316	0.9818
325	0.9725
334	0.9601
343	0.9412
352	0.8907
361	0.7997
370	0.5304
379	0.1528
388	0.0535
397	0.6478
406	0.895
415	0.8547
424	0.8136
433	0.7958
442	0.7004
451	0.5967
460	0.476
469	0.3773
478	0.8396
487	0.85
496	0.8138
505	0.4288
514	0.1607
523	0.1338
532	0.2422
541	0.4927
550	0.7562
559	0.8346
568	0.8989
577	0.8968
586	0.8846
595	0.8782
604	0.8817
613	0.8925
622	0.9043
631	0.8963
640	0.8483
649	0.8494
658	0.8524
667	0.8568
676	0.859
685	0.8611
694	0.8284
703	0.8147
712	0.7871
721	0.7233
730	0.6734
739	0.6186
748	0.5366
757	0.3094
766	0.0793
775	0.027
784	0.1579
793	0.6451
802	0.8046
811	0.8325
820	0.7065
829	0.743
838	0.861
847	0.8798
856	0.8895
865	0.8943
874	0.8957
883	0.881
892	0.864
901	0.8632
910	0.8591
919	0.8475
928	0.833
937	0.8137
946	0.7949
955	0.7904
964	0.7882
973	0.7819
982	0.7688
991	0.7567
1000	0.7211
1009	0.6551
1018	0.5854
1027	0.5053
1036	0.4149
1045	0.3621
1054	0.3134
1063	0.2457
1072	0.1424
1081	0.071
1090	0.025
1099	0.0073
1108	0.0015
1117	0.0001
1126	0
1135	0
1144	0.0236
1153	0.048
1162	0.1324
1171	0.2122
1180	0.218
1189	0.2153
1198	0.2435
1207	0.4016
1216	0.4895
1225	0.6067
1234	0.6962
1243	0.6976
1252	0.6222
1261	0.0872
1270	0.0333
1279	0.1751
1288	0.5333
1297	0.6847
1306	0.7481
1315	0.8001
1324	0.8316
1333	0.8371
1342	0.829
1351	0.8149
1360	0.7782
1369	0.7078
1378	0.6016
1387	0.8128
1396	0.7935
1405	0.7491
1414	0.7572
1423	0.8235
1432	0.7694
1441	0.6712
1450	0.5172
1459	0.4496
1468	0.4775
1477	0.8402
1486	0.8762
1495	0.8821
1504	0.897
1513	0.9037
1522	0.8956
1531	0.8924
1540	0.8935
1549	0.8986
1558	0.9088
1567	0.9175
1576	0.912
1585	0.9023
1594	0.8868
1603	0.8731
1612	0.8837
1621	0.904
1630	0.9186
1639	0.9258
1648	0.9331
1657	0.9365
1666	0.9325
1675	0.921
1684	0.9115
1693	0.9167
1702	0.931
1711	0.9403
1720	0.9514
1729	0.9671
1738	0.9692
1747	0.9671
1756	0.9624
1765	0.9528
1774	0.9431
1783	0.939
1792	0.9442
1801	0.9545
1810	0.9658
1819	0.9716
1828	0.971
1837	0.9685
1846	0.9657
1855	0.9649
1864	0.9649
1873	0.9661
1882	0.9706
1891	0.9762
1900	0.9778
1909	0.9753
1918	0.974
1927	0.9736
1936	0.9725
1945	0.9727
1954	0.9735
1963	0.9731
1972	0.9702
1981	0.9709
1990	0.9741
1999	0.9781
2008	0.9797
2017	0.9795
2026	0.9813
2035	0.9845
2044	0.9883
2053	0.991
2062	0.9918
2071	0.9874
2080	0.9844
2089	0.9867
2098	0.99
2107	0.9967
2116	0.9995
2125	0.9991
2134	0.9977
2143	0.9955
2152	0.9928
2161	0.9901
2170	0.9891
2179	0.9883
2188	0.9878
2197	0.9874
2206	0.9871
2215	0.9867
2224	0.9861
2233	0.9855
2242	0.985
2251	0.9847
2260	0.9847
2269	0.9845
2278	0.9843
2287	0.9839
2296	0.9834
2305	0.9828
2314	0.9827
2323	0.9824
2332	0.9818
2341	0.9809
2350	0.9799
2359	0.9789
2368	0.9778
2377	0.9768
2386	0.9755
2395	0.9742
2404	0.974
2413	0.9747
2422	0.9759
2431	0.9762
2440	0.9752
2449	0.9736
2458	0.972
2467	0.97
2476	0.968
2485	0.9659
2494	0.9638
2503	0.9616
2512	0.9592
2521	0.957
2530	0.9564
2539	0.956
2548	0.9531
2557	0.9499
2566	0.9468
2575	0.9437
2584	0.9406
2593	0.9374
2602	0.9341
2611	0.9307
2620	0.9271
2629	0.9233
2638	0.9196
2647	0.916
2656	0.9125
2665	0.9099
2674	0.9096
2683	0.9109
2692	0.9123
2701	0.9118
2710	0.9081
2719	0.9035
2728	0.902
2737	0.9111
2746	0.9124
2755	0.909
2764	0.9033
2773	0.8965
2782	0.8834
2791	0.8613
2800	0.8347
2809	0.8038
2818	0.776
2827	0.7339
2836	0.6505
2845	0.4226
2854	0.2137
2863	0.127
2872	0.1659
2881	0.1929
2890	0.2551
2899	0.1902
2908	0.1181
2917	0.0598
2926	0.0276
2935	0.0252
2944	0.0667
2953	0.0912
2962	0.0933
2971	0.1433
2980	0.2717
2989	0.6239
2998	0.641
3007	0.8217
3016	0.8615
3025	0.8865
3034	0.9021
3043	0.9099
3052	0.9154
3061	0.9207
3070	0.925
3079	0.9275
3088	0.9289
3097	0.9294
3106	0.9295
3115	0.9296
3124	0.9295
3133	0.9294
3142	0.9291
3151	0.9285
3160	0.9291
3169	0.93
3178	0.9312
3187	0.9343
3196	0.9375
3205	0.9397
3214	0.9403
3223	0.9408
3232	0.9412
3241	0.9414
3250	0.9417
3259	0.9418
3268	0.9421
3277	0.9421
3286	0.9421
3295	0.9423
3304	0.942
3313	0.9417
3322	0.9403
3331	0.9386
3340	0.9371
3349	0.9361
3358	0.9358
3367	0.9356
3376	0.9357
3385	0.9358
3394	0.9361
3403	0.9365
3412	0.9366
3421	0.9367
3430	0.9364
3439	0.9362
3448	0.9371
3457	0.9377
3466	0.9381
3475	0.9384
3484	0.9388
3493	0.9391
3502	0.9391
3511	0.9389
3520	0.9387
3529	0.9386
3538	0.9385
3547	0.9375
3556	0.9362
3565	0.934
3574	0.9328
3583	0.9327
3592	0.9328
3601	0.9324
3610	0.932
3619	0.9315
3628	0.9313
3637	0.9291
3646	0.9263
3655	0.9263
3664	0.9282
3673	0.9231
3682	0.9182
3691	0.9177
3700	0.9187
3709	0.9198
3718	0.9193
3727	0.9146
3736	0.9073
3745	0.9006
3754	0.8971
3763	0.9018
3772	0.9115
3781	0.9139
3790	0.9147
3799	0.9153
