Infrared Spectrum: 6-t-Butyl-4-methylcoumarin
Formula: C 14 H 16 O 2
CAS: 17874-32-7
State: gas
Origin: EPA-IR VAPOR PHASE LIBRARY
1/CM	ABSORBANCE
549.8	0.000791
559.445	0.0008481
569.09	0.002385
578.734	0.002115
588.379	0.0010437
598.024	0.0007956
607.669	0.0005252
617.313	0.0009845
626.958	0.003355
636.603	0.008425
646.248	0.006245
655.893	0.002125
665.537	0.0009527
675.182	0.0007747
684.827	0.001815
694.472	0.002725
704.116	0.001215
713.761	0.0005578
723.406	0.000559
733.051	0.0006736
742.695	0.001225
752.34	0.002055
761.985	0.001465
771.63	0.0009413
781.275	0.0009488
790.919	0.0010889
800.564	0.001705
810.209	0.003975
819.854	0.015055
829.498	0.023695
839.143	0.010715
848.788	0.007255
858.433	0.013585
868.078	0.011505
877.722	0.020155
887.367	0.034775
897.012	0.017655
906.657	0.010115
916.301	0.026535
925.946	0.030405
935.591	0.011755
945.236	0.004815
954.88	0.002985
964.525	0.001965
974.17	0.001795
983.815	0.001855
993.46	0.003125
1003.1	0.004815
1012.75	0.002435
1022.39	0.001625
1032.04	0.001835
1041.68	0.002315
1051.33	0.005065
1060.97	0.019785
1070.62	0.015035
1080.26	0.004005
1089.91	0.002975
1099.55	0.005675
1109.2	0.009055
1118.84	0.005645
1128.49	0.004995
1138.13	0.012795
1147.78	0.021055
1157.42	0.018755
1167.07	0.029915
1176.71	0.032995
1186.36	0.016435
1196	0.012755
1205.64	0.023385
1215.29	0.038045
1224.93	0.015145
1234.58	0.007485
1244.22	0.010855
1253.87	0.028325
1263.51	0.044135
1273.16	0.022155
1282.8	0.021325
1292.45	0.019145
1302.09	0.021245
1311.74	0.012555
1321.38	0.005575
1331.03	0.004485
1340.67	0.006585
1350.32	0.011675
1359.96	0.016955
1369.61	0.024315
1379.25	0.024995
1388.9	0.020915
1398.54	0.014625
1408.18	0.015445
1417.83	0.027305
1427.47	0.019335
1437.12	0.010605
1446.76	0.011825
1456.41	0.012175
1466.05	0.013105
1475.7	0.016545
1485.34	0.026445
1494.99	0.023395
1504.63	0.008465
1514.28	0.004135
1523.92	0.003475
1533.57	0.002845
1543.21	0.003035
1552.86	0.006635
1562.5	0.020825
1572.15	0.030035
1581.79	0.012955
1591.44	0.006725
1601.08	0.008825
1610.73	0.012935
1620.37	0.017565
1630.01	0.025185
1639.66	0.014625
1649.3	0.007375
1658.95	0.005145
1668.59	0.004625
1678.24	0.005205
1687.88	0.005665
1697.53	0.006405
1707.17	0.009975
1716.82	0.017265
1726.46	0.024125
1736.11	0.028345
1745.75	0.044955
1755.4	0.096095
1765.04	0.266495
1774.69	0.354345
1784.33	0.121935
1793.98	0.033595
1803.62	0.019145
1813.27	0.014455
1822.91	0.010105
1832.55	0.007175
1842.2	0.004565
1851.84	0.002935
1861.49	0.002095
1871.13	0.001725
1880.78	0.001875
1890.42	0.002625
1900.07	0.002665
1909.71	0.001705
1919.36	0.0011775
1929	0.0009545
1938.65	0.0008577
1948.29	0.0007933
1957.94	0.0007977
1967.58	0.0007776
1977.23	0.0008453
1986.87	0.0009603
1996.52	0.000953
2006.16	0.0008706
2015.81	0.0007273
2025.45	0.0006714
2035.1	0.0008786
2044.74	0.0009659
2054.38	0.0010769
2064.03	0.000993
2073.67	0.0008839
2083.32	0.0009673
2092.96	0.0009729
2102.61	0.0008489
2112.25	0.0007949
2121.9	0.0006231
2131.54	0.0006477
2141.19	0.0006138
2150.83	0.0006123
2160.48	0.0006199
2170.12	0.0006634
2179.77	0.0008025
2189.41	0.0008418
2199.06	0.000694
2208.7	0.0006325
2218.35	0.0007288
2227.99	0.0008189
2237.64	0.0008787
2247.28	0.0008274
2256.92	0.0007399
2266.57	0.0008912
2276.21	0.0011451
2285.86	0.001305
2295.5	0.001215
2305.15	0.001395
2314.79	0.001645
2324.44	0.001885
2334.08	0.002005
2343.73	0.002195
2353.37	0.001765
2363.02	0.001295
2372.66	0.001112
2382.31	0.001145
2391.95	0.0011833
2401.6	0.001195
2411.24	0.0011012
2420.89	0.0009186
2430.53	0.0010139
2440.18	0.0008402
2449.82	0.0008228
2459.47	0.0007517
2469.11	0.0008497
2478.75	0.0007833
2488.4	0.0007047
2498.04	0.0007046
2507.69	0.0006677
2517.33	0.0006818
2526.98	0.0007639
2536.62	0.000712
2546.27	0.0007771
2555.91	0.0008553
2565.56	0.0009169
2575.2	0.0007894
2584.85	0.0007676
2594.49	0.0006917
2604.14	0.0006217
2613.78	0.0006457
2623.43	0.0007468
2633.07	0.0008877
2642.72	0.00077
2652.36	0.0007948
2662.01	0.0008265
2671.65	0.0009917
2681.29	0.0008332
2690.94	0.0008133
2700.58	0.0009091
2710.23	0.0009461
2719.87	0.001158
2729.52	0.0010496
2739.16	0.001325
2748.81	0.001365
2758.45	0.001245
2768.1	0.001305
2777.74	0.001375
2787.39	0.001635
2797.03	0.001675
2806.68	0.001835
2816.32	0.002065
2825.97	0.002185
2835.61	0.002545
2845.26	0.003125
2854.9	0.004905
2864.55	0.009085
2874.19	0.014805
2883.84	0.015795
2893.48	0.014515
2903.12	0.016085
2912.77	0.020135
2922.41	0.021115
2932.06	0.022475
2941.7	0.024455
2951.35	0.033895
2960.99	0.065715
2970.64	0.089805
2980.28	0.045555
2989.93	0.021545
2999.57	0.010655
3009.22	0.005155
3018.86	0.003245
3028.51	0.002705
3038.15	0.002715
3047.8	0.003585
3057.44	0.003915
3067.09	0.004935
3076.73	0.006115
3086.38	0.004625
3096.02	0.002855
3105.67	0.002455
3115.31	0.002115
3124.95	0.001865
3134.6	0.001425
3144.24	0.001245
3153.89	0.001183
3163.53	0.0011924
3173.18	0.001174
3182.82	0.0011355
3192.47	0.0011569
3202.11	0.001195
3211.76	0.001035
3221.4	0.0011237
3231.05	0.0009463
3240.69	0.0009286
3250.34	0.0008713
3259.98	0.0008469
3269.63	0.0007428
3279.27	0.0006368
3288.92	0.0006088
3298.56	0.0003817
3308.21	0.000582
3317.85	0.0003896
3327.49	0.0007462
3337.14	0.0006104
3346.78	0.0004946
3356.43	0.0004344
3366.07	0.0005669
3375.72	0.0005864
3385.36	0.000604
3395.01	0.0006542
3404.65	0.0005546
3414.3	0.0005742
3423.94	0.0005235
3433.59	0.0006352
3443.23	0.0005744
3452.88	0.0005918
3462.52	0.000398
3472.17	0.0007423
3481.81	0.0010254
3491.46	0.001415
3501.1	0.001845
3510.75	0.002495
3520.39	0.003165
3530.04	0.002585
3539.68	0.001835
3549.32	0.001205
3558.97	0.0008853
3568.61	0.0005482
3578.26	0.0004161
3587.9	0.0004227
3597.55	0.0004107
3607.19	0.0001374
3616.84	0.0003007
3626.48	0.0003437
3636.13	0.0003806
3645.77	0.0004721
3655.42	0.0003444
3665.06	0.0003029
3674.71	0.0004993
3684.35	0.0003435
3694	0.00019062
3703.64	0.00021623
3713.29	0.0001341
3722.93	0.000197624
3732.58	0.0003235
3742.22	0.00026598
3751.86	0.0004058
3761.51	0.00027092
3771.15	0.0003223
3780.8	0.0003165
3790.44	0.00027524
3800.09	0.0004762
3809.73	0.00028694
3819.38	0.0003589
3829.02	0.0003671
3838.67	0.0003197
3848.31	0.0004491
3857.96	0.0001772
3867.6	0.0004244
3877.25	0.0003933
3886.89	0.00024669
3896.54	0.0005929
3906.18	0.0005785
3915.83	0.0005364
3925.47	0.0005429
3935.12	0.0005343
3944.76	0.0005228
3954.41	0.0005734
3964.05	0.000408
3973.69	0.0005816
3983.34	0.0005566
3992.98	0.0006238
