Infrared Spectrum: p-TRIMETHYLSILOXY BROMOBENZENE
Formula: C9 H13 Br O Si
CAS: 17878-44-3
State: LIQUID
Class: COBLENTZ
Instrument: Not specified, most likely a prism, grating, or hybrid spectrometer.
Sampling: TRANSMISSION
Path length: 0.0015 CM
Resolution: 4
Origin: WYANDOTTE CHEMICALS CORP., WYANDOTTE, MICHIGAN, USA
MICROMETERS	TRANSMITTANCE
2.027	0.967
2.0679	0.953
2.10879	0.953
2.14969	0.955
2.19059	0.935
2.23149	0.935
2.27238	0.933
2.31328	0.94
2.35418	0.923
2.39507	0.933
2.43597	0.943
2.47687	0.94
2.51777	0.935
2.55866	0.912
2.59956	0.909
2.64046	0.902
2.68136	0.907
2.72225	0.909
2.76315	0.905
2.80405	0.899
2.84494	0.9
2.88584	0.894
2.92674	0.875
2.96764	0.873
3.00853	0.882
3.04943	0.88
3.09033	0.868
3.13122	0.852
3.17212	0.841
3.21302	0.767
3.25392	0.692
3.29481	0.76
3.33571	0.476
3.37661	0.459
3.41751	0.68
3.4584	0.77
3.4993	0.796
3.5402	0.808
3.58109	0.842
3.62199	0.864
3.66289	0.883
3.70379	0.895
3.74468	0.894
3.78558	0.899
3.82648	0.912
3.86737	0.905
3.90827	0.885
3.94917	0.835
3.99007	0.823
4.03096	0.818
4.07186	0.892
4.11276	0.904
4.15366	0.902
4.19455	0.902
4.23545	0.921
4.27635	0.933
4.31724	0.926
4.35814	0.916
4.39904	0.895
4.43994	0.909
4.48083	0.894
4.52173	0.917
4.56263	0.912
4.60352	0.895
4.64442	0.904
4.68532	0.895
4.72622	0.895
4.76711	0.887
4.80801	0.882
4.84891	0.888
4.88981	0.905
4.9307	0.899
4.9716	0.89
5.0125	0.868
5.05339	0.846
5.09429	0.854
5.13519	0.875
5.17609	0.861
5.21698	0.876
5.25788	0.88
5.29878	0.829
5.33967	0.702
5.38057	0.815
5.42147	0.863
5.46237	0.849
5.50326	0.774
5.54416	0.774
5.58506	0.847
5.62596	0.871
5.66685	0.841
5.70775	0.82
5.74865	0.842
5.78954	0.841
5.83044	0.856
5.87134	0.847
5.91224	0.837
5.95313	0.811
5.99403	0.789
6.03493	0.721
6.07582	0.675
6.11672	0.704
6.15762	0.704
6.19852	0.497
6.23941	0.042
6.28031	0.264
6.32121	0.635
6.36211	0.717
6.403	0.741
6.4439	0.711
6.4848	0.659
6.52569	0.611
6.56659	0.541
6.60749	0.297
6.64839	0.029
6.68928	0.03
6.73018	0.116
6.77108	0.494
6.81197	0.535
6.85287	0.514
6.89377	0.468
6.93467	0.425
6.97556	0.459
7.01646	0.497
7.05736	0.439
7.09826	0.4
7.13915	0.548
7.18005	0.623
7.22095	0.673
7.26184	0.683
7.30274	0.682
7.34364	0.692
7.38454	0.675
7.42543	0.654
7.46633	0.608
7.50723	0.55
7.54812	0.502
7.58902	0.454
7.62992	0.423
7.67082	0.343
7.71171	0.177
7.75261	0.041
7.79351	0.03
7.8344	0.029
7.8753	0.03
7.9162	0.029
7.9571	0.029
7.99799	0.041
8.03889	0.095
8.07979	0.241
8.12069	0.391
8.16158	0.531
8.20248	0.625
8.24338	0.683
8.28427	0.712
8.32517	0.731
8.36607	0.752
8.40697	0.748
8.44786	0.731
8.48876	0.671
8.52966	0.451
8.57055	0.16
8.61145	0.666
8.65235	0.796
8.69325	0.818
8.73414	0.839
8.77504	0.847
8.81594	0.837
8.85684	0.822
8.89773	0.794
8.93863	0.726
8.97953	0.74
9.02042	0.709
9.06132	0.528
9.10222	0.29
9.14312	0.598
9.18401	0.688
9.22491	0.646
9.26581	0.451
9.3067	0.123
9.3476	0.196
9.3885	0.615
9.4294	0.728
9.47029	0.755
9.51119	0.769
9.55209	0.784
9.59299	0.789
9.63388	0.789
9.67478	0.789
9.71568	0.789
9.75657	0.772
9.79747	0.748
9.83837	0.676
9.87927	0.423
9.92016	0.148
9.96106	0.61
10.002	0.7
10.0429	0.74
10.0838	0.757
10.1246	0.753
10.1655	0.75
10.2064	0.738
10.2473	0.723
10.2882	0.7
10.3291	0.678
10.37	0.649
10.4109	0.622
10.4518	0.598
10.4927	0.56
10.5336	0.514
10.5745	0.47
10.6154	0.4
10.6563	0.305
10.6972	0.172
10.7381	0.1
10.779	0.071
10.8199	0.047
10.8608	0.037
10.9017	0.032
10.9426	0.034
10.9835	0.034
11.0244	0.034
11.0653	0.032
11.1062	0.039
11.1471	0.059
11.188	0.095
11.2289	0.158
11.2698	0.201
11.3107	0.23
11.3516	0.241
11.3925	0.235
11.4334	0.208
11.4743	0.17
11.5152	0.133
11.5561	0.09
11.5969	0.064
11.6378	0.042
11.6787	0.035
11.7196	0.035
11.7605	0.032
11.8014	0.032
11.8423	0.037
11.8832	0.034
11.9241	0.032
11.965	0.034
12.0059	0.037
12.0468	0.035
12.0877	0.032
12.1286	0.034
12.1695	0.041
12.2104	0.063
12.2513	0.117
12.2922	0.17
12.3331	0.218
12.374	0.259
12.4149	0.295
12.4558	0.333
12.4967	0.381
12.5376	0.441
12.5785	0.483
12.6194	0.517
12.6603	0.533
12.7012	0.555
12.7421	0.557
12.783	0.558
12.8239	0.543
12.8648	0.526
12.9057	0.499
12.9466	0.458
12.9875	0.403
13.0284	0.331
13.0692	0.234
13.1101	0.167
13.151	0.124
13.1919	0.114
13.2328	0.121
13.2737	0.117
13.3146	0.133
13.3555	0.177
13.3964	0.244
13.4373	0.329
13.4782	0.388
13.5191	0.423
13.56	0.437
13.6009	0.432
13.6418	0.382
13.6827	0.3
13.7236	0.193
13.7645	0.114
13.8054	0.085
13.8463	0.104
13.8872	0.169
13.9281	0.273
13.969	0.36
14.0099	0.442
14.0508	0.494
14.0917	0.521
14.1326	0.54
14.1735	0.529
14.2144	0.495
14.2553	0.434
14.2962	0.386
14.3371	0.391
14.378	0.444
14.4189	0.488
14.4598	0.529
14.5007	0.553
14.5415	0.56
14.5824	0.576
14.6233	0.6
14.6642	0.629
14.7051	0.659
14.746	0.68
14.7869	0.702
14.8278	0.723
14.8687	0.74
14.9096	0.743
14.9505	0.753
14.9914	0.738
15.0323	0.726
15.0732	0.745
15.1141	0.776
15.155	0.776
15.1959	0.776
15.2368	0.772
15.2777	0.765
15.3186	0.758
15.3595	0.765
15.4004	0.752
15.4413	0.75
15.4822	0.74
15.5231	0.74
15.564	0.735
15.6049	0.731
15.6458	0.726
15.6867	0.716
15.7276	0.7
15.7685	0.687
15.8094	0.668
15.8503	0.649
15.8912	0.639
15.9321	0.641
15.973	0.642
