Infrared Spectrum: Silane, methoxydimethylphenyl-
Formula: C9 H14 O Si
CAS: 17881-88-8
State: SOLUTION (11% CCl4 FOR 3800-1280, 3% CS2 FOR 1280-620, AND 11% CCl4 FOR 620-240) VS SOLVENT
Class: COBLENTZ II
Instrument: PERKIN-ELMER 521 (GRATING)
Instrument parameters: FILTERS AT 3150, 2500, 2000, 1150, 700, 410. GRATING CHANGES: 2000, 630
Path length: 0.012 CM, 0.011 CM, AND 0.010 CM
Resolution: 2
Origin: DOW CORNING CORP.
1/CM	TRANSMITTANCE
243	0.7043
252	0.7178
261	0.7217
270	0.7219
279	0.721
288	0.7171
297	0.7118
306	0.7029
315	0.7123
324	0.7034
333	0.6469
342	0.6831
351	0.7391
360	0.7752
369	0.7452
378	0.6044
387	0.2609
396	0.4837
405	0.6339
414	0.6349
423	0.7678
432	0.7851
441	0.7808
450	0.7667
459	0.7251
468	0.4818
477	0.4718
486	0.7348
495	0.7838
504	0.8041
513	0.8113
522	0.8111
531	0.8127
540	0.8186
549	0.8143
558	0.8171
567	0.8263
576	0.8234
585	0.8182
594	0.8119
603	0.8098
612	0.8152
621	0.7733
630	0.6404
639	0.826
648	0.8401
657	0.8493
666	0.8396
675	0.827
684	0.7987
693	0.5627
702	0.4622
711	0.7364
720	0.578
729	0.4377
738	0.4842
747	0.7663
756	0.8218
765	0.8064
774	0.6773
783	0.3437
792	0.4858
801	0.7269
810	0.6264
819	0.3214
828	0.2258
837	0.2207
846	0.4094
855	0.6732
864	0.7724
873	0.8301
882	0.8552
891	0.8722
900	0.8854
909	0.8974
918	0.904
927	0.9069
936	0.9073
945	0.9066
954	0.9047
963	0.899
972	0.906
981	0.9011
990	0.8789
999	0.899
1008	0.909
1017	0.9003
1026	0.885
1035	0.879
1044	0.8575
1053	0.8073
1062	0.7107
1071	0.5329
1080	0.2849
1089	0.1476
1098	0.4097
1107	0.4698
1116	0.3071
1125	0.7284
1134	0.8122
1143	0.8424
1152	0.8399
1161	0.8349
1170	0.8003
1179	0.7163
1188	0.7398
1197	0.8195
1206	0.8622
1215	0.8725
1224	0.8623
1233	0.8264
1242	0.6593
1251	0.5096
1260	0.7303
1269	0.8631
1278	0.888
1287	0.7807
1296	0.7127
1305	0.7394
1314	0.6695
1323	0.7929
1332	0.7883
1341	0.8192
1350	0.8083
1359	0.798
1368	0.7631
1377	0.7729
1386	0.7269
1395	0.6644
1404	0.6271
1413	0.6709
1422	0.4127
1431	0.4559
1440	0.6855
1449	0.6572
1458	0.6571
1467	0.6967
1476	0.7519
1485	0.6308
1494	0.8185
1503	0.8254
1512	0.8328
1521	0.8381
1530	0.8385
1539	0.821
1548	0.8193
1557	0.8363
1566	0.8191
1575	0.806
1584	0.7344
1593	0.7909
1602	0.859
1611	0.8554
1620	0.8682
1629	0.8687
1638	0.8634
1647	0.8593
1656	0.87
1665	0.8797
1674	0.8851
1683	0.8825
1692	0.8787
1701	0.8809
1710	0.8755
1719	0.8759
1728	0.8801
1737	0.8845
1746	0.8788
1755	0.8703
1764	0.8651
1773	0.87
1782	0.8793
1791	0.872
1800	0.8543
1809	0.8015
1818	0.7753
1827	0.8443
1836	0.8629
1845	0.8834
1854	0.8811
1863	0.8757
1872	0.8495
1881	0.7788
1890	0.8407
1899	0.8266
1908	0.872
1917	0.8731
1926	0.8698
1935	0.8651
1944	0.8438
1953	0.8094
1962	0.856
1971	0.8568
1980	0.8823
1989	0.8912
1998	0.8966
2007	0.8937
2016	0.8921
2025	0.8915
2034	0.8919
2043	0.8939
2052	0.8962
2061	0.8978
2070	0.8971
2079	0.896
2088	0.8951
2097	0.8944
2106	0.8939
2115	0.8928
2124	0.8904
2133	0.8862
2142	0.8804
2151	0.8769
2160	0.8782
2169	0.8798
2178	0.8804
2187	0.8857
2196	0.8901
2205	0.8901
2214	0.8885
2223	0.8876
2232	0.8874
2241	0.8889
2250	0.891
2259	0.8919
2268	0.892
2277	0.8921
2286	0.8922
2295	0.8926
2304	0.8901
2313	0.8849
2322	0.8871
2331	0.8924
2340	0.8928
2349	0.8932
2358	0.8932
2367	0.8928
2376	0.8927
2385	0.8926
2394	0.8929
2403	0.8931
2412	0.8933
2421	0.893
2430	0.8925
2439	0.8919
2448	0.8909
2457	0.8883
2466	0.8877
2475	0.8927
2484	0.8792
2493	0.8768
2502	0.8828
2511	0.8849
2520	0.885
2529	0.887
2538	0.8888
2547	0.8874
2556	0.8861
2565	0.884
2574	0.88
2583	0.8761
2592	0.8729
2601	0.8745
2610	0.8773
2619	0.8726
2628	0.8712
2637	0.8723
2646	0.8748
2655	0.878
2664	0.8789
2673	0.878
2682	0.8771
2691	0.8749
2700	0.8721
2709	0.8739
2718	0.878
2727	0.8785
2736	0.8772
2745	0.8752
2754	0.8691
2763	0.8615
2772	0.8518
2781	0.8381
2790	0.8239
2799	0.8061
2808	0.7832
2817	0.7516
2826	0.5234
2835	0.2729
2844	0.2933
2853	0.6858
2862	0.7108
2871	0.7046
2880	0.6829
2889	0.6246
2898	0.5266
2907	0.4237
2916	0.4477
2925	0.452
2934	0.4163
2943	0.2538
2952	0.2632
2961	0.1843
2970	0.1243
2979	0.1626
2988	0.351
2997	0.5274
3006	0.482
3015	0.4728
3024	0.4885
3033	0.5024
3042	0.6059
3051	0.5508
3060	0.4389
3069	0.5014
3078	0.4058
3087	0.6764
3096	0.6946
3105	0.8022
3114	0.8435
3123	0.8564
3132	0.8536
3141	0.8335
3150	0.8612
3159	0.8794
3168	0.8829
3177	0.8834
3186	0.8864
3195	0.8931
3204	0.8974
3213	0.8986
3222	0.9
3231	0.901
3240	0.9015
3249	0.9018
3258	0.9023
3267	0.9027
3276	0.9031
3285	0.9034
3294	0.9031
3303	0.9026
3312	0.9021
3321	0.9014
3330	0.9008
3339	0.8999
3348	0.8987
3357	0.8975
3366	0.8969
3375	0.8963
3384	0.8961
3393	0.8957
3402	0.8953
3411	0.8948
3420	0.8946
3429	0.8947
3438	0.8948
3447	0.8949
3456	0.8948
3465	0.8945
3474	0.8943
3483	0.8938
3492	0.8936
3501	0.8938
3510	0.8941
3519	0.8943
3528	0.8944
3537	0.8948
3546	0.8957
3555	0.8965
3564	0.8974
3573	0.897
3582	0.8962
3591	0.8957
3600	0.8899
3609	0.8907
3618	0.892
3627	0.89
3636	0.8813
3645	0.8788
3654	0.8823
3663	0.8867
3672	0.8871
3681	0.8844
3690	0.8777
3699	0.8722
3708	0.8731
3717	0.8756
3726	0.8776
3735	0.8789
3744	0.8783
3753	0.8755
3762	0.875
3771	0.8822
3780	0.8879
3789	0.889
3798	0.8885
3807	0.8881
3816	0.8922
