Infrared Spectrum: 2,5-Dimethoxybenzhydrazide
Formula: C 9 H 12 N 2 O 3
CAS: 17894-25-6
State: gas
Origin: EPA-IR VAPOR PHASE LIBRARY
1/CM	ABSORBANCE
549.8	0.00397
559.445	0.00359
569.09	0.00293
578.734	0.0026
588.379	0.00224
598.024	0.00201
607.669	0.00202
617.313	0.00153
626.958	0.00184
636.603	0.00149
646.248	0.00128
655.893	0.00141
665.537	0.00163
675.182	0.00186
684.827	0.00165
694.472	0.00186
704.116	0.0024
713.761	0.00417
723.406	0.0081
733.051	0.00913
742.695	0.00501
752.34	0.00322
761.985	0.0023
771.63	0.00184
781.275	0.002
790.919	0.00216
800.564	0.00354
810.209	0.00601
819.854	0.00742
829.498	0.00546
839.143	0.00306
848.788	0.00232
858.433	0.00268
868.078	0.00303
877.722	0.00402
887.367	0.00582
897.012	0.00816
906.657	0.00892
916.301	0.00552
925.946	0.00341
935.591	0.00321
945.236	0.00464
954.88	0.00794
964.525	0.00959
974.17	0.00645
983.815	0.00466
993.46	0.0047
1003.1	0.0061
1012.75	0.00847
1022.39	0.01051
1032.04	0.0152
1041.68	0.02071
1051.33	0.01685
1060.97	0.00766
1070.62	0.00421
1080.26	0.00378
1089.91	0.00358
1099.55	0.00214
1109.2	0.0021
1118.84	0.00276
1128.49	0.00285
1138.13	0.00322
1147.78	0.00552
1157.42	0.00798
1167.07	0.00964
1176.71	0.01166
1186.36	0.0099
1196	0.01112
1205.64	0.02133
1215.29	0.03511
1224.93	0.02862
1234.58	0.01616
1244.22	0.01122
1253.87	0.01132
1263.51	0.01443
1273.16	0.02178
1282.8	0.02606
1292.45	0.02208
1302.09	0.017
1311.74	0.01312
1321.38	0.00786
1331.03	0.00463
1340.67	0.00327
1350.32	0.00265
1359.96	0.00233
1369.61	0.00219
1379.25	0.00235
1388.9	0.00289
1398.54	0.00489
1408.18	0.00867
1417.83	0.00958
1427.47	0.01074
1437.12	0.01661
1446.76	0.0216
1456.41	0.02256
1466.05	0.02857
1475.7	0.03653
1485.34	0.05041
1494.99	0.05339
1504.63	0.03097
1514.28	0.01535
1523.92	0.00971
1533.57	0.00673
1543.21	0.00501
1552.86	0.00437
1562.5	0.00456
1572.15	0.00604
1581.79	0.00713
1591.44	0.00612
1601.08	0.00711
1610.73	0.0087
1620.37	0.009
1630.01	0.01041
1639.66	0.00974
1649.3	0.00732
1658.95	0.00776
1668.59	0.01155
1678.24	0.02518
1687.88	0.03284
1697.53	0.01709
1707.17	0.00942
1716.82	0.00722
1726.46	0.00473
1736.11	0.00275
1745.75	0.00188
1755.4	0.00147
1765.04	0.00128
1774.69	0.00103
1784.33	0.0009694
1793.98	0.0008686
1803.62	0.000791
1813.27	0.0009068
1822.91	0.0009378
1832.55	0.0008233
1842.2	0.0008232
1851.84	0.0007602
1861.49	0.0007472
1871.13	0.0007206
1880.78	0.0006574
1890.42	0.0005381
1900.07	0.0005232
1909.71	0.0004999
1919.36	0.0005075
1929	0.0004355
1938.65	0.0004729
1948.29	0.00048
1957.94	0.0005866
1967.58	0.0007312
1977.23	0.0009133
1986.87	0.0009025
1996.52	0.0008905
2006.16	0.0008509
2015.81	0.0009216
2025.45	0.0007668
2035.1	0.0008055
2044.74	0.0007827
2054.38	0.0008753
2064.03	0.0008116
2073.67	0.0007209
2083.32	0.0006136
2092.96	0.0005516
2102.61	0.0004537
2112.25	0.0004096
2121.9	0.0004732
2131.54	0.0003078
2141.19	0.0003402
2150.83	0.0003113
2160.48	0.0002281
2170.12	0.0003334
2179.77	0.0003992
2189.41	0.0002183
2199.06	0.0002826
2208.7	0.0003577
2218.35	0.0002864
2227.99	0.00031
2237.64	0.000287
2247.28	0.0002937
2256.92	0.0001706
2266.57	0.0002972
2276.21	0.0002995
2285.86	0.0002801
2295.5	0.0003137
2305.15	0.0004968
2314.79	0.0004676
2324.44	0.0004726
2334.08	0.0003505
2343.73	0.0003102
2353.37	0.0002069
2363.02	0.0002588
2372.66	0.0002062
2382.31	0.0002834
2391.95	0.0002729
2401.6	0.0002646
2411.24	0.0002275
2420.89	0.0002438
2430.53	0.0002543
2440.18	0.0002941
2449.82	0.0003807
2459.47	0.0004049
2469.11	0.0004263
2478.75	0.00043
2488.4	0.0003271
2498.04	0.0004035
2507.69	0.0003508
2517.33	0.0003713
2526.98	0.0004351
2536.62	0.0003753
2546.27	0.0003294
2555.91	0.0003128
2565.56	0.0003227
2575.2	0.0003627
2584.85	0.0004805
2594.49	0.0003973
2604.14	0.0004548
2613.78	0.0004402
2623.43	0.0003743
2633.07	0.0001817
2642.72	0.0003512
2652.36	0.0003077
2662.01	0.0003362
2671.65	0.0003988
2681.29	0.0002784
2690.94	0.0002798
2700.58	0.0003226
2710.23	0.0002852
2719.87	0.000472
2729.52	0.000456
2739.16	0.0005328
2748.81	0.0004355
2758.45	0.0006074
2768.1	0.0005501
2777.74	0.0006172
2787.39	0.0006278
2797.03	0.0008481
2806.68	0.00122
2816.32	0.00167
2825.97	0.00257
2835.61	0.00468
2845.26	0.00643
2854.9	0.00497
2864.55	0.00366
2874.19	0.00299
2883.84	0.00276
2893.48	0.00314
2903.12	0.00417
2912.77	0.00512
2922.41	0.0058
2932.06	0.00639
2941.7	0.00905
2951.35	0.01088
2960.99	0.00927
2970.64	0.00663
2980.28	0.00466
2989.93	0.00456
2999.57	0.00681
3009.22	0.00872
3018.86	0.00467
3028.51	0.00246
3038.15	0.00207
3047.8	0.00204
3057.44	0.00217
3067.09	0.00222
3076.73	0.00253
3086.38	0.0024
3096.02	0.00154
3105.67	0.0013
3115.31	0.00107
3124.95	0.0008532
3134.6	0.0007138
3144.24	0.0005837
3153.89	0.0004649
3163.53	0.0005311
3173.18	0.0005083
3182.82	0.0005953
3192.47	0.0007716
3202.11	0.0007435
3211.76	0.0006214
3221.4	0.0005491
3231.05	0.0007186
3240.69	0.000447
3250.34	0.0003828
3259.98	0.0004451
3269.63	0.0005849
3279.27	0.0004024
3288.92	0.0006058
3298.56	0.0005829
3308.21	0.0004807
3317.85	0.0008095
3327.49	0.0007848
3337.14	0.0008441
3346.78	0.000792
3356.43	0.0008241
3366.07	0.0008088
3375.72	0.0007307
3385.36	0.0008404
3395.01	0.00111
3404.65	0.00115
3414.3	0.00183
3423.94	0.00307
3433.59	0.00574
3443.23	0.00976
3452.88	0.01135
3462.52	0.00818
3472.17	0.00396
3481.81	0.00223
3491.46	0.00136
3501.1	0.0008414
3510.75	0.0005839
3520.39	0.000636
3530.04	0.0005119
3539.68	0.0005524
3549.32	0.0004555
3558.97	0.0001988
3568.61	0.0003413
3578.26	0.0004512
3587.9	0.0005036
3597.55	0.0004704
3607.19	0.0003157
3616.84	0.0004547
3626.48	0.0002682
3636.13	0.0004245
3645.77	0.0002822
3655.42	0.0005074
3665.06	0.0005175
3674.71	0.0004606
3684.35	0.000274
3694	0.000232
3703.64	0.0002914
3713.29	0.0003099
3722.93	0.0003883
3732.58	0.0004749
3742.22	0.0003658
3751.86	0.0001843
3761.51	0.000375
3771.15	0.0002392
3780.8	0.0003363
3790.44	0.0002003
3800.09	0.0005342
3809.73	0.0004072
3819.38	0.0003278
3829.02	0.0005033
3838.67	0.0003449
3848.31	0.0003931
3857.96	0.0003707
3867.6	0.0002809
3877.25	0.0004094
3886.89	0.0001899
3896.54	0.0004887
3906.18	6.613e-05
3915.83	0.0003327
3925.47	0.0003461
3935.12	0.0004301
3944.76	0.000557
3954.41	0.0004779
3964.05	0.000597
3973.69	0.0004743
3983.34	0.0005029
3992.98	0.0005208
