Infrared Spectrum: 3,5-Difluorobenzophenone
Formula: C 13 H 8 F 2 O
CAS: 179-11-3
State: gas
Origin: EPA-IR VAPOR PHASE LIBRARY
1/CM	ABSORBANCE
549.8	0.002601
559.445	0.0015625
569.09	0.002431
578.734	0.002871
588.379	0.004501
598.024	0.008871
607.669	0.020111
617.313	0.010691
626.958	0.007551
636.603	0.008581
646.248	0.016101
655.893	0.078721
665.537	0.089571
675.182	0.082401
684.827	0.056201
694.472	0.083791
704.116	0.072301
713.761	0.082941
723.406	0.115911
733.051	0.051311
742.695	0.023231
752.34	0.014571
761.985	0.012001
771.63	0.011811
781.275	0.015631
790.919	0.026851
800.564	0.029001
810.209	0.051671
819.854	0.187541
829.498	0.087701
839.143	0.032711
848.788	0.047581
858.433	0.076011
868.078	0.050221
877.722	0.062861
887.367	0.040181
897.012	0.013131
906.657	0.008731
916.301	0.006671
925.946	0.005971
935.591	0.005741
945.236	0.005761
954.88	0.009311
964.525	0.019351
974.17	0.050181
983.815	0.118181
993.46	0.124221
1003.1	0.070741
1012.75	0.024671
1022.39	0.014561
1032.04	0.012531
1041.68	0.006701
1051.33	0.008011
1060.97	0.010241
1070.62	0.013511
1080.26	0.014871
1089.91	0.018161
1099.55	0.032291
1109.2	0.063831
1118.84	0.177171
1128.49	0.246811
1138.13	0.073191
1147.78	0.021211
1157.42	0.014311
1167.07	0.016341
1176.71	0.044181
1186.36	0.038661
1196	0.021391
1205.64	0.038441
1215.29	0.063621
1224.93	0.090461
1234.58	0.132951
1244.22	0.101051
1253.87	0.055321
1263.51	0.024071
1273.16	0.017191
1282.8	0.021941
1292.45	0.042081
1302.09	0.096081
1311.74	0.215051
1321.38	0.525671
1331.03	0.557721
1340.67	0.147851
1350.32	0.063251
1359.96	0.056991
1369.61	0.040721
1379.25	0.025271
1388.9	0.017971
1398.54	0.015491
1408.18	0.020291
1417.83	0.043411
1427.47	0.120501
1437.12	0.223811
1446.76	0.155881
1456.41	0.078371
1466.05	0.041951
1475.7	0.026851
1485.34	0.019551
1494.99	0.019841
1504.63	0.019981
1514.28	0.021841
1523.92	0.021141
1533.57	0.023101
1543.21	0.026441
1552.86	0.026801
1562.5	0.034821
1572.15	0.066801
1581.79	0.151931
1591.44	0.269531
1601.08	0.246221
1610.73	0.164391
1620.37	0.130821
1630.01	0.073381
1639.66	0.055511
1649.3	0.046241
1658.95	0.053171
1668.59	0.069001
1678.24	0.154971
1687.88	0.246211
1697.53	0.145081
1707.17	0.066381
1716.82	0.039651
1726.46	0.025081
1736.11	0.018571
1745.75	0.014181
1755.4	0.013071
1765.04	0.010621
1774.69	0.008141
1784.33	0.006421
1793.98	0.006471
1803.62	0.008101
1813.27	0.008401
1822.91	0.005681
1832.55	0.004181
1842.2	0.003571
1851.84	0.003701
1861.49	0.003391
1871.13	0.003291
1880.78	0.003671
1890.42	0.004871
1900.07	0.005861
1909.71	0.005701
1919.36	0.004191
1929	0.003131
1938.65	0.003861
1948.29	0.005971
1957.94	0.006621
1967.58	0.006101
1977.23	0.004331
1986.87	0.003341
1996.52	0.002901
2006.16	0.002581
2015.81	0.002231
2025.45	0.001971
2035.1	0.001961
2044.74	0.002381
2054.38	0.002571
2064.03	0.002691
2073.67	0.002281
2083.32	0.002181
2092.96	0.002621
2102.61	0.003581
2112.25	0.004661
2121.9	0.003921
2131.54	0.002821
2141.19	0.0017669
2150.83	0.0017365
2160.48	0.0014299
2170.12	0.0013468
2179.77	0.0014342
2189.41	0.0015871
2199.06	0.0017079
2208.7	0.0017533
2218.35	0.002311
2227.99	0.002641
2237.64	0.002781
2247.28	0.002731
2256.92	0.002521
2266.57	0.002241
2276.21	0.002041
2285.86	0.002101
2295.5	0.002441
2305.15	0.002501
2314.79	0.003251
2324.44	0.003491
2334.08	0.003171
2343.73	0.003311
2353.37	0.002581
2363.02	0.002581
2372.66	0.002271
2382.31	0.0017217
2391.95	0.0017638
2401.6	0.002271
2411.24	0.002601
2420.89	0.003621
2430.53	0.004281
2440.18	0.004271
2449.82	0.003941
2459.47	0.002971
2469.11	0.002171
2478.75	0.001881
2488.4	0.0018294
2498.04	0.0016954
2507.69	0.001826
2517.33	0.0018425
2526.98	0.0018696
2536.62	0.001961
2546.27	0.002391
2555.91	0.002961
2565.56	0.003341
2575.2	0.002901
2584.85	0.003291
2594.49	0.003321
2604.14	0.002961
2613.78	0.003101
2623.43	0.002661
2633.07	0.002401
2642.72	0.002411
2652.36	0.002611
2662.01	0.001871
2671.65	0.0014987
2681.29	0.0015429
2690.94	0.0017046
2700.58	0.0016098
2710.23	0.002301
2719.87	0.001951
2729.52	0.001981
2739.16	0.002051
2748.81	0.0016572
2758.45	0.0016215
2768.1	0.0017703
2777.74	0.0017642
2787.39	0.0013966
2797.03	0.0018446
2806.68	0.0012746
2816.32	0.0018036
2825.97	0.001911
2835.61	0.001845
2845.26	0.0018647
2854.9	0.0016652
2864.55	0.0017981
2874.19	0.0016069
2883.84	0.001484
2893.48	0.0018317
2903.12	0.001981
2912.77	0.0018249
2922.41	0.002051
2932.06	0.001951
2941.7	0.001951
2951.35	0.0012658
2960.99	0.0015879
2970.64	0.0018673
2980.28	0.0017587
2989.93	0.002091
2999.57	0.002571
3009.22	0.003611
3018.86	0.007101
3028.51	0.013091
3038.15	0.018151
3047.8	0.015491
3057.44	0.020961
3067.09	0.040851
3076.73	0.046101
3086.38	0.035751
3096.02	0.030551
3105.67	0.016951
3115.31	0.006851
3124.95	0.003861
3134.6	0.002661
3144.24	0.003081
3153.89	0.002481
3163.53	0.002411
3173.18	0.0010933
3182.82	0.0017371
3192.47	0.0014254
3202.11	0.0013946
3211.76	0.0012907
3221.4	0.00088894
3231.05	0.0010137
3240.69	0.0011459
3250.34	0.0008052
3259.98	0.001493
3269.63	0.0013493
3279.27	0.001514
3288.92	0.0012742
3298.56	0.0014496
3308.21	0.0016702
3317.85	0.001881
3327.49	0.002041
3337.14	0.002801
3346.78	0.003751
3356.43	0.004491
3366.07	0.003531
3375.72	0.002221
3385.36	0.002051
3395.01	0.0016536
3404.65	0.001961
3414.3	0.0013228
3423.94	0.0009634
3433.59	0.0010951
3443.23	0.0011606
3452.88	0.0012081
3462.52	0.000777
3472.17	0.0012236
3481.81	0.000504
3491.46	0.0008012
3501.1	0.0012672
3510.75	0.000577
3520.39	0.0007845
3530.04	0.000637
3539.68	0.000569
3549.32	0.0009818
3558.97	0.0009829
3568.61	0.00091968
3578.26	0.000737
3587.9	0.0010972
3597.55	0.00088975
3607.19	0.0011165
3616.84	0.001026
3626.48	0.000704
3636.13	0.0010666
3645.77	0.0011017
3655.42	0.00091239
3665.06	0.0010049
3674.71	0.0010109
3684.35	0.0010637
3694	0.001627
3703.64	0.0012411
3713.29	0.0010202
3722.93	0.0013862
3732.58	0.0012357
3742.22	0.0010429
3751.86	0.0011755
3761.51	0.0008208
3771.15	0.0012853
3780.8	0.00094143
3790.44	0.000615
3800.09	0.0008341
3809.73	0.0009351
3819.38	0.0009986
3829.02	0.000538
3838.67	0.000118
3848.31	0.000523
3857.96	0.00093976
3867.6	0.000699
3877.25	0.0014295
3886.89	0.000587
3896.54	0.00065
3906.18	0.0011385
3915.83	0.0011648
3925.47	0.00089965
3935.12	0.000605
3944.76	0.0010456
3954.41	0.000668
3964.05	0.000855
3973.69	0.0013257
3983.34	0.0011503
3992.98	0.0007713
