Infrared Spectrum: Trisiloxane, 1,1,1,3,5,5,5-heptamethyl-3-(trimethylsiloxy)-
Formula: C10 H30 O3 Si4
CAS: 17928-28-8
State: SOLUTION (10% CCl4 FOR 3800-1300, 2% CS2 FOR 1300-650, AND 10% CCl4 FOR 650-240) VS SOLVENT
Boiling point: 184-90 C
Class: COBLENTZ III
Instrument: PERKIN-ELMER 521 (GRATING)
Instrument parameters: FILTERS AT 3150, 2500, 2000, 1150, 700, 410. GRATING CHANGES: 2000, 630
Path length: 0.012 CM, 0.012 CM, AND 0.011 CM
Resolution: 2
Origin: DOW CORNING CORP.
1/CM	TRANSMITTANCE
238	0.8573
247	0.8516
256	0.8434
265	0.8291
274	0.7921
283	0.7524
292	0.6283
301	0.6327
310	0.6857
319	0.7164
328	0.6822
337	0.6065
346	0.5216
355	0.4676
364	0.468
373	0.5043
382	0.5557
391	0.5998
400	0.5564
409	0.4468
418	0.5468
427	0.8359
436	0.9037
445	0.9279
454	0.9292
463	0.917
472	0.8921
481	0.8591
490	0.8343
499	0.8517
508	0.8828
517	0.9059
526	0.9172
535	0.9163
544	0.9059
553	0.8824
562	0.8267
571	0.6588
580	0.5534
589	0.8226
598	0.92
607	0.9329
616	0.9261
625	0.905
634	0.7569
643	0.8774
652	0.8501
661	0.8246
670	0.829
679	0.8053
688	0.7613
697	0.8202
706	0.8445
715	0.8425
724	0.8331
733	0.8031
742	0.712
751	0.3982
760	0.3471
769	0.6834
778	0.6814
787	0.346
796	0.4676
805	0.695
814	0.671
823	0.5295
832	0.3336
841	0.031
850	0.2034
859	0.4407
868	0.3815
877	0.5945
886	0.7602
895	0.8025
904	0.8311
913	0.851
922	0.8644
931	0.8724
940	0.8727
949	0.8678
958	0.8606
967	0.848
976	0.8309
985	0.8018
994	0.7641
1003	0.7072
1012	0.6287
1021	0.4669
1030	0.2943
1039	0.0784
1048	0.0281
1057	0.0477
1066	0.1194
1075	0.2943
1084	0.3545
1093	0.3593
1102	0.391
1111	0.5556
1120	0.656
1129	0.7409
1138	0.7914
1147	0.8304
1156	0.855
1165	0.8717
1174	0.8803
1183	0.8798
1192	0.8792
1201	0.8752
1210	0.8626
1219	0.8371
1228	0.7865
1237	0.6097
1246	0.1428
1255	0.3244
1264	0.5244
1273	0.797
1282	0.8508
1291	0.8616
1300	0.7774
1309	0.7703
1318	0.7689
1327	0.7968
1336	0.8059
1345	0.797
1354	0.8003
1363	0.7958
1372	0.7817
1381	0.7602
1390	0.6754
1399	0.5577
1408	0.5039
1417	0.6641
1426	0.6674
1435	0.6306
1444	0.6466
1453	0.7603
1462	0.8023
1471	0.8226
1480	0.8343
1489	0.8352
1498	0.8394
1507	0.8399
1516	0.8301
1525	0.8185
1534	0.8123
1543	0.815
1552	0.8278
1561	0.8407
1570	0.8432
1579	0.852
1588	0.8602
1597	0.8637
1606	0.8607
1615	0.8555
1624	0.8509
1633	0.8553
1642	0.8648
1651	0.8767
1660	0.87
1669	0.8676
1678	0.8689
1687	0.8718
1696	0.8709
1705	0.8625
1714	0.8663
1723	0.873
1732	0.8775
1741	0.8834
1750	0.881
1759	0.8848
1768	0.8871
1777	0.8908
1786	0.8962
1795	0.9017
1804	0.9017
1813	0.8998
1822	0.8946
1831	0.8994
1840	0.9052
1849	0.9083
1858	0.906
1867	0.9081
1876	0.8947
1885	0.9009
1894	0.8951
1903	0.8858
1912	0.8782
1921	0.8648
1930	0.8575
1939	0.8801
1948	0.8895
1957	0.8967
1966	0.9005
1975	0.9023
1984	0.9022
1993	0.8778
2002	0.8953
2011	0.8979
2020	0.9022
2029	0.9073
2038	0.908
2047	0.9072
2056	0.9057
2065	0.9038
2074	0.9009
2083	0.8958
2092	0.8907
2101	0.8955
2110	0.8986
2119	0.901
2128	0.9035
2137	0.9056
2146	0.9068
2155	0.9064
2164	0.907
2173	0.9092
2182	0.9113
2191	0.9106
2200	0.9089
2209	0.9073
2218	0.9073
2227	0.9093
2236	0.9075
2245	0.9073
2254	0.9089
2263	0.9073
2272	0.9058
2281	0.9051
2290	0.9073
2299	0.9092
2308	0.9107
2317	0.9107
2326	0.9134
2335	0.9191
2344	0.9151
2353	0.9115
2362	0.9083
2371	0.9062
2380	0.9046
2389	0.9033
2398	0.9033
2407	0.9043
2416	0.9051
2425	0.9059
2434	0.9054
2443	0.9029
2452	0.9006
2461	0.8999
2470	0.8986
2479	0.8849
2488	0.888
2497	0.8972
2506	0.9008
2515	0.9022
2524	0.9017
2533	0.8995
2542	0.8989
2551	0.8988
2560	0.8994
2569	0.9004
2578	0.9019
2587	0.9029
2596	0.9032
2605	0.9008
2614	0.8971
2623	0.8925
2632	0.8861
2641	0.8833
2650	0.8827
2659	0.8858
2668	0.8858
2677	0.8846
2686	0.8835
2695	0.8824
2704	0.8829
2713	0.8827
2722	0.8806
2731	0.876
2740	0.8697
2749	0.861
2758	0.8564
2767	0.8472
2776	0.8354
2785	0.8048
2794	0.8007
2803	0.7982
2812	0.7933
2821	0.7855
2830	0.7791
2839	0.7794
2848	0.7796
2857	0.7724
2866	0.7482
2875	0.6977
2884	0.6337
2893	0.4879
2902	0.5384
2911	0.6116
2920	0.6466
2929	0.5864
2938	0.4725
2947	0.2713
2956	0.0253
2965	0.0173
2974	0.2664
2983	0.6449
2992	0.7109
3001	0.7541
3010	0.7772
3019	0.7894
3028	0.7956
3037	0.8012
3046	0.8072
3055	0.8104
3064	0.8155
3073	0.821
3082	0.825
3091	0.8269
3100	0.8279
3109	0.8316
3118	0.8367
3127	0.8421
3136	0.8484
3145	0.8549
3154	0.8595
3163	0.8638
3172	0.8685
3181	0.8726
3190	0.8761
3199	0.8796
3208	0.8831
3217	0.8866
3226	0.8903
3235	0.8935
3244	0.8961
3253	0.8974
3262	0.8985
3271	0.8997
3280	0.9009
3289	0.9018
3298	0.9028
3307	0.9029
3316	0.903
3325	0.9033
3334	0.9035
3343	0.9037
3352	0.904
3361	0.9046
3370	0.9067
3379	0.9076
3388	0.9068
3397	0.9075
3406	0.9078
3415	0.9081
3424	0.9089
3433	0.9098
3442	0.9106
3451	0.9113
3460	0.9121
3469	0.9126
3478	0.9127
3487	0.9127
3496	0.9124
3505	0.912
3514	0.9115
3523	0.9109
3532	0.91
3541	0.909
3550	0.9064
3559	0.9032
3568	0.9016
3577	0.9056
3586	0.9093
3595	0.9015
3604	0.9029
3613	0.9021
3622	0.8931
3631	0.8864
3640	0.8817
3649	0.8797
3658	0.882
3667	0.8894
3676	0.8946
3685	0.8913
3694	0.8843
3703	0.875
3712	0.8741
3721	0.8782
3730	0.8752
3739	0.8714
3748	0.8805
3757	0.8776
3766	0.8809
3775	0.8859
3784	0.8881
3793	0.8873
3802	0.8837
3811	0.8871
