Infrared Spectrum: cis-1,2-Cyclohexanediol
Formula: C 6 H 12 O 2
CAS: 1792-81-0
State: gas
Origin: EPA-IR VAPOR PHASE LIBRARY
1/CM	ABSORBANCE
549.8	0.001528
559.445	0.001818
569.09	0.002038
578.734	0.002678
588.379	0.003408
598.024	0.003288
607.669	0.002168
617.313	0.001308
626.958	0.001218
636.603	0.001738
646.248	0.002058
655.893	0.002698
665.537	0.002408
675.182	0.002148
684.827	0.001478
694.472	0.0008116
704.116	0.0009645
713.761	0.0010363
723.406	0.0009429
733.051	0.0008356
742.695	0.001188
752.34	0.001398
761.985	0.001488
771.63	0.001798
781.275	0.001498
790.919	0.001578
800.564	0.001988
810.209	0.002508
819.854	0.002888
829.498	0.002818
839.143	0.002808
848.788	0.002558
858.433	0.002368
868.078	0.002968
877.722	0.003758
887.367	0.003878
897.012	0.003568
906.657	0.003348
916.301	0.002878
925.946	0.002478
935.591	0.002768
945.236	0.003688
954.88	0.005288
964.525	0.007648
974.17	0.013548
983.815	0.019538
993.46	0.016528
1003.1	0.011058
1012.75	0.006538
1022.39	0.005838
1032.04	0.007968
1041.68	0.012078
1051.33	0.019168
1060.97	0.027478
1070.62	0.030308
1080.26	0.022458
1089.91	0.012178
1099.55	0.007898
1109.2	0.007218
1118.84	0.006758
1128.49	0.006008
1138.13	0.005508
1147.78	0.005738
1157.42	0.006428
1167.07	0.007428
1176.71	0.006868
1186.36	0.006668
1196	0.006708
1205.64	0.006308
1215.29	0.006398
1224.93	0.007658
1234.58	0.008968
1244.22	0.008838
1253.87	0.007668
1263.51	0.007728
1273.16	0.006978
1282.8	0.005958
1292.45	0.004948
1302.09	0.004658
1311.74	0.005028
1321.38	0.005768
1331.03	0.006458
1340.67	0.006608
1350.32	0.006458
1359.96	0.006098
1369.61	0.006708
1379.25	0.007368
1388.9	0.007328
1398.54	0.006268
1408.18	0.004808
1417.83	0.003898
1427.47	0.004168
1437.12	0.005888
1446.76	0.006788
1456.41	0.007608
1466.05	0.005698
1475.7	0.003298
1485.34	0.001658
1494.99	0.0009546
1504.63	0.0007684
1514.28	0.0005901
1523.92	0.0005618
1533.57	0.0005406
1543.21	0.000389
1552.86	0.0003969
1562.5	0.0003644
1572.15	0.0003518
1581.79	0.00023877
1591.44	0.0003777
1601.08	0.0003358
1610.73	0.0002812
1620.37	0.00019189
1630.01	0.0003809
1639.66	0.00025434
1649.3	0.00017872
1658.95	0.00021972
1668.59	0.00023404
1678.24	0.00017823
1687.88	0.0001592
1697.53	0.00024527
1707.17	0.000171592
1716.82	0.00024282
1726.46	0.00024604
1736.11	0.0001563
1745.75	0.0002769
1755.4	0.00021686
1765.04	0.00018775
1774.69	0.0002008
1784.33	0.0001086
1793.98	0.00019185
1803.62	0.00015896
1813.27	0.0001046
1822.91	0.0001435
1832.55	0.0001463
1842.2	0.00016417
1851.84	0.00022072
1861.49	7.81e-05
1871.13	0.0001043
1880.78	0.00017972
1890.42	0.0001569
1900.07	0.0001782
1909.71	0.00019507
1919.36	0.000168611
1929	0.0001432
1938.65	0.00020794
1948.29	0.00021826
1957.94	0.00022268
1967.58	0.00021837
1977.23	0.000118
1986.87	0.00024747
1996.52	0.00022144
2006.16	0.00022643
2015.81	0.00023903
2025.45	0.00024929
2035.1	0.00021784
2044.74	0.0001522
2054.38	0.0001278
2064.03	0.00021053
2073.67	0.0002793
2083.32	0.0001416
2092.96	0.00018935
2102.61	0.0002746
2112.25	0.0002972
2121.9	0.00026245
2131.54	0.00016239
2141.19	0.00019623
2150.83	0.00024545
2160.48	0.00025632
2170.12	0.00017821
2179.77	0.000287
2189.41	0.00022177
2199.06	0.0002778
2208.7	0.0003009
2218.35	0.00024953
2227.99	0.00024436
2237.64	0.00022063
2247.28	0.0001372
2256.92	0.00026513
2266.57	0.00018563
2276.21	0.00025749
2285.86	0.00021293
2295.5	0.00016641
2305.15	0.00016153
2314.79	0.0001213
2324.44	0.0002458
2334.08	0.0003
2343.73	0.0002713
2353.37	0.0003108
2363.02	0.00024453
2372.66	0.000357
2382.31	0.0003207
2391.95	0.0003826
2401.6	0.00019399
2411.24	0.0001869
2420.89	0.0001372
2430.53	0.0003111
2440.18	0.00022204
2449.82	0.0003724
2459.47	0.0002581
2469.11	0.00022871
2478.75	0.0002395
2488.4	0.0002917
2498.04	0.0003894
2507.69	0.000171094
2517.33	0.00024179
2526.98	0.0002955
2536.62	0.00022787
2546.27	0.00026056
2555.91	0.0003109
2565.56	0.0004057
2575.2	0.0005047
2584.85	0.0004166
2594.49	0.0005174
2604.14	0.0005473
2613.78	0.0005501
2623.43	0.0006577
2633.07	0.0007827
2642.72	0.0008697
2652.36	0.0009609
2662.01	0.001258
2671.65	0.001298
2681.29	0.001228
2690.94	0.0010321
2700.58	0.0011642
2710.23	0.0009113
2719.87	0.0008776
2729.52	0.0008625
2739.16	0.001089
2748.81	0.0011467
2758.45	0.001198
2768.1	0.001218
2777.74	0.001528
2787.39	0.001518
2797.03	0.001578
2806.68	0.001728
2816.32	0.001988
2825.97	0.002648
2835.61	0.003938
2845.26	0.007328
2854.9	0.013978
2864.55	0.020968
2874.19	0.023628
2883.84	0.023138
2893.48	0.023018
2903.12	0.022968
2912.77	0.023838
2922.41	0.029978
2932.06	0.047238
2941.7	0.061538
2951.35	0.056628
2960.99	0.031648
2970.64	0.009928
2980.28	0.002788
2989.93	0.001138
2999.57	0.00067
3009.22	0.0006157
3018.86	0.0003077
3028.51	0.0004345
3038.15	0.0003009
3047.8	0.0002855
3057.44	0.000293
3067.09	0.0003649
3076.73	0.0004736
3086.38	0.0003858
3096.02	0.0003014
3105.67	0.00024517
3115.31	0.0003794
3124.95	0.000294
3134.6	0.0003612
3144.24	0.000176246
3153.89	8.68e-05
3163.53	6.5e-05
3173.18	0.000176745
3182.82	0.0003118
3192.47	0.0001323
3202.11	0.00019344
3211.76	0.0002258
3221.4	0.00026494
3231.05	0.0003201
3240.69	0.0003929
3250.34	0.000346
3259.98	0.0004624
3269.63	0.00020305
3279.27	0.00016009
3288.92	0.00018375
3298.56	0.0003953
3308.21	0.0002062
3317.85	0.00024387
3327.49	0.00026045
3337.14	0.00020174
3346.78	0.00020462
3356.43	0.0003519
3366.07	0.0003848
3375.72	0.0003093
3385.36	0.0003294
3395.01	0.000473
3404.65	0.00018683
3414.3	0.0003298
3423.94	0.00020818
3433.59	0.0005536
3443.23	0.0003158
3452.88	0.0008041
3462.52	0.0003553
3472.17	0.0006837
3481.81	0.0005901
3491.46	0.0003855
3501.1	0.0004598
3510.75	0.0005167
3520.39	0.0005859
3530.04	0.0005615
3539.68	0.0006822
3549.32	0.0007363
3558.97	0.000957
3568.61	0.001278
3578.26	0.001868
3587.9	0.002688
3597.55	0.004398
3607.19	0.006668
3616.84	0.007878
3626.48	0.007688
3636.13	0.006788
3645.77	0.005898
3655.42	0.005098
3665.06	0.004118
3674.71	0.002928
3684.35	0.001818
3694	0.0010949
3703.64	0.0009029
3713.29	0.0008084
3722.93	0.0005869
3732.58	0.0005802
3742.22	0.0006425
3751.86	0.0007154
3761.51	0.0006966
3771.15	0.0007276
3780.8	0.0005293
3790.44	0.00025903
3800.09	0.0005439
3809.73	0.0003933
3819.38	0.0005737
3829.02	0.0004944
3838.67	0.0006393
3848.31	0.0004128
3857.96	0.0007204
3867.6	0.0005279
3877.25	0.0004501
3886.89	0.0003786
3896.54	0.0004156
3906.18	0.0003501
3915.83	0.00017974
3925.47	0.0005151
3935.12	0.0003691
3944.76	0.0004397
3954.41	0.000394
3964.05	0.0004945
3973.69	0.0003444
3983.34	0.000176794
3992.98	0.0005155
