Infrared Spectrum: N,N'-Di-n-butylurea
Formula: C 9 H 20 N 2 O
CAS: 1792-17-2
State: gas
Origin: EPA-IR VAPOR PHASE LIBRARY
1/CM	ABSORBANCE
501.5	0.00254
513.074	0.00245
524.648	0.00238
536.222	0.00241
547.796	0.0025
559.37	0.00227
570.944	0.00208
582.518	0.00194
594.092	0.00213
605.666	0.00216
617.24	0.0021
628.814	0.00195
640.388	0.00181
651.962	0.00168
663.536	0.00163
675.11	0.00151
686.684	0.00158
698.258	0.00161
709.832	0.00164
721.406	0.00194
732.98	0.00248
744.554	0.00318
756.128	0.00366
767.702	0.00341
779.276	0.0026
790.85	0.00204
802.423	0.00171
813.997	0.00149
825.571	0.00137
837.145	0.00118
848.719	0.00111
860.293	0.00115
871.867	0.00106
883.441	0.00105
895.015	0.00108
906.589	0.000987
918.163	0.0009544
929.737	0.0009178
941.311	0.0008993
952.885	0.00104
964.459	0.00106
976.033	0.00107
987.607	0.00101
999.181	0.000923
1010.76	0.0008984
1022.33	0.0009198
1033.9	0.0009635
1045.48	0.00111
1057.05	0.00125
1068.63	0.00178
1080.2	0.00196
1091.77	0.00183
1103.35	0.00222
1114.92	0.00277
1126.49	0.00321
1138.07	0.00383
1149.64	0.00405
1161.22	0.00407
1172.79	0.00486
1184.36	0.00899
1195.94	0.01963
1207.51	0.02181
1219.09	0.01405
1230.66	0.0132
1242.23	0.01356
1253.81	0.01111
1265.38	0.00984
1276.96	0.00957
1288.53	0.01021
1300.1	0.01014
1311.68	0.00933
1323.25	0.00706
1334.83	0.00518
1346.4	0.00488
1357.97	0.00491
1369.55	0.00528
1381.12	0.00538
1392.7	0.00455
1404.27	0.00432
1415.84	0.00528
1427.42	0.00733
1438.99	0.00963
1450.57	0.0117
1462.14	0.0144
1473.71	0.01773
1485.29	0.02331
1496.86	0.03701
1508.44	0.05123
1520.01	0.03946
1531.58	0.01987
1543.16	0.01048
1554.73	0.00645
1566.31	0.00446
1577.88	0.00335
1589.45	0.00267
1601.03	0.00226
1612.6	0.00211
1624.18	0.00202
1635.75	0.00209
1647.32	0.00236
1658.9	0.003
1670.47	0.00402
1682.05	0.00549
1693.62	0.00957
1705.19	0.0255
1716.77	0.04891
1728.34	0.03267
1739.92	0.0109
1751.49	0.00482
1763.06	0.00324
1774.64	0.00242
1786.21	0.00173
1797.79	0.00122
1809.36	0.0009442
1820.93	0.0007411
1832.51	0.0006142
1844.08	0.0005599
1855.66	0.0004866
1867.23	0.0004233
1878.8	0.0003971
1890.38	0.0003533
1901.95	0.0003319
1913.53	0.0003099
1925.1	0.0003043
1936.67	0.000306
1948.25	0.0003037
1959.82	0.0002925
1971.4	0.0003069
1982.97	0.000301
1994.54	0.0002935
2006.12	0.0002928
2017.69	0.0003116
2029.27	0.00032
2040.84	0.0003154
2052.41	0.0002953
2063.99	0.0002963
2075.56	0.0003326
2087.14	0.0003318
2098.71	0.0003587
2110.28	0.0003598
2121.86	0.0003641
2133.43	0.0003347
2145.01	0.0003662
2156.58	0.0004077
2168.15	0.0004629
2179.73	0.0005533
2191.3	0.0006479
2202.88	0.0008417
2214.45	0.00117
2226.02	0.00163
2237.6	0.0023
2249.17	0.00346
2260.74	0.00531
2272.32	0.00641
2283.89	0.00546
2295.47	0.00359
2307.04	0.00201
2318.61	0.00129
2330.19	0.0009177
2341.76	0.0007163
2353.34	0.0005863
2364.91	0.000475
2376.48	0.0004012
2388.06	0.0003919
2399.63	0.0003624
2411.21	0.0003576
2422.78	0.0003311
2434.35	0.000309
2445.93	0.0003038
2457.5	0.0002505
2469.08	0.00019
2480.65	0.0002024
2492.22	0.0002386
2503.8	0.0002457
2515.37	0.0002025
2526.95	0.0002173
2538.52	0.0002344
2550.09	0.0002569
2561.67	0.0002757
2573.24	0.0002915
2584.82	0.0003016
2596.39	0.0003171
2607.96	0.0003578
2619.54	0.0003645
2631.11	0.0003786
2642.69	0.0004288
2654.26	0.0004936
2665.83	0.0005295
2677.41	0.0006447
2688.98	0.0006638
2700.56	0.0007467
2712.13	0.000802
2723.7	0.0008051
2735.28	0.0008578
2746.85	0.0008943
2758.43	0.0008556
2770	0.0008989
2781.57	0.00104
2793.15	0.00127
2804.72	0.00158
2816.3	0.00207
2827.87	0.00282
2839.44	0.00425
2851.02	0.00713
2862.59	0.01157
2874.17	0.01545
2885.74	0.01675
2897.31	0.01508
2908.89	0.01694
2920.46	0.02323
2932.04	0.03021
2943.61	0.03122
2955.18	0.02709
2966.76	0.0293
2978.33	0.02069
2989.91	0.0094
3001.48	0.00492
3013.05	0.00311
3024.63	0.00225
3036.2	0.00174
3047.78	0.00134
3059.35	0.00104
3070.92	0.0008743
3082.5	0.0007993
3094.07	0.0007103
3105.65	0.0006357
3117.22	0.0005575
3128.79	0.0005458
3140.37	0.0004807
3151.94	0.0004853
3163.52	0.000445
3175.09	0.0004693
3186.66	0.0003606
3198.24	0.0002852
3209.81	0.0002651
3221.39	0.0002428
3232.96	0.0002278
3244.53	0.0001379
3256.11	0.0001468
3267.68	0.0001241
3279.26	8.816e-05
3290.83	0.0001487
3302.4	0.0001084
3313.98	0.0001121
3325.55	0.0001028
3337.13	0.0001111
3348.7	0.000155
3360.27	0.0001847
3371.85	0.0001367
3383.42	0.0002632
3395	0.0002833
3406.57	0.0004855
3418.14	0.000863
3429.72	0.00131
3441.29	0.00226
3452.86	0.00321
3464.44	0.00285
3476.01	0.00181
3487.59	0.0009689
3499.16	0.000605
3510.73	0.0003558
3522.31	0.0002696
3533.88	0.0002094
3545.46	0.0002204
3557.03	0.0001415
3568.6	7.557e-05
3580.18	9.887e-05
3591.75	0.0001405
3603.33	7.734e-05
3614.9	9.878e-05
3626.47	8.289e-05
3638.05	0.0001305
3649.62	9.363e-05
3661.2	0.000123
3672.77	0.0001358
3684.34	0.0002398
3695.92	9.833e-05
3707.49	0.0001707
3719.07	0.000211
3730.64	0.0001777
3742.21	8.6e-05
3753.79	0.000111
3765.36	0.0001294
3776.94	0.0001143
3788.51	3.335e-05
3800.08	7.871e-05
3811.66	5.546e-05
3823.23	7.127e-05
3834.81	0.0001106
3846.38	0.0001295
3857.95	8.823e-05
3869.53	0.0001307
3881.1	9.577e-05
3892.68	6.48e-05
3904.25	1.489e-05
3915.82	0.0001231
3927.4	2.277e-05
3938.97	6.256e-05
3950.55	0.0001146
3962.12	9.56e-05
3973.69	8.426e-05
3985.27	0.0001782
3996.84	0.000174
