Infrared Spectrum: DIPHENYLDIVINYLSILANE
Formula: C16 H16 Si
CAS: 17937-68-7
State: SOLID (BETWEEN SALTS)
Class: COBLENTZ
Instrument: BECKMAN IR-4 (HYBRID PRISM-GRATING)
Sampling: TRANSMISSION
Resolution: 4
Origin: PENINSULAR CHEMRESEARCH, INC., GAINESVILLE, FLORIDA
MICROMETERS	TRANSMITTANCE
2.03	0.967
2.065	0.962
2.1	0.961
2.135	0.963
2.17	0.963
2.205	0.968
2.24	0.966
2.275	0.967
2.31	0.968
2.345	0.972
2.38	0.973
2.415	0.969
2.45	0.962
2.485	0.971
2.52	0.968
2.555	0.951
2.59	0.948
2.625	0.951
2.66	0.947
2.695	0.949
2.73	0.945
2.765	0.94
2.8	0.943
2.835	0.944
2.87	0.948
2.905	0.94
2.94	0.933
2.975	0.922
3.01	0.918
3.045	0.919
3.08	0.93
3.115	0.934
3.15	0.929
3.185	0.9
3.22	0.84
3.255	0.709
3.29	0.751
3.325	0.76
3.36	0.758
3.395	0.762
3.43	0.847
3.465	0.86
3.5	0.92
3.535	0.932
3.57	0.933
3.605	0.94
3.64	0.944
3.675	0.944
3.71	0.942
3.745	0.943
3.78	0.947
3.815	0.948
3.85	0.949
3.885	0.951
3.92	0.952
3.955	0.949
3.99	0.951
4.025	0.942
4.06	0.948
4.095	0.945
4.13	0.942
4.165	0.927
4.2	0.895
4.235	0.891
4.27	0.904
4.305	0.918
4.34	0.922
4.375	0.932
4.41	0.933
4.445	0.937
4.48	0.947
4.515	0.944
4.55	0.949
4.585	0.953
4.62	0.951
4.655	0.949
4.69	0.945
4.725	0.949
4.76	0.952
4.795	0.959
4.83	0.973
4.865	0.971
4.9	0.968
4.935	0.969
4.97	0.964
5.005	0.952
5.04	0.944
5.075	0.939
5.11	0.945
5.145	0.943
5.18	0.934
5.215	0.93
5.25	0.934
5.285	0.934
5.32	0.949
5.355	0.957
5.39	0.959
5.425	0.945
5.46	0.934
5.495	0.943
5.53	0.961
5.565	0.953
5.6	0.953
5.635	0.945
5.67	0.954
5.705	0.954
5.74	0.953
5.775	0.958
5.81	0.951
5.845	0.942
5.88	0.943
5.915	0.942
5.95	0.944
5.985	0.944
6.02	0.949
6.055	0.947
6.09	0.951
6.125	0.951
6.16	0.949
6.195	0.949
6.23	0.929
6.265	0.849
6.3	0.87
6.335	0.923
6.37	0.92
6.405	0.922
6.44	0.923
6.475	0.913
6.51	0.923
6.545	0.919
6.58	0.922
6.615	0.918
6.65	0.913
6.685	0.9
6.72	0.891
6.755	0.922
6.79	0.904
6.825	0.899
6.86	0.908
6.895	0.904
6.93	0.869
6.965	0.669
7	0.62
7.035	0.831
7.07	0.819
7.105	0.722
7.14	0.781
7.175	0.919
7.21	0.935
7.245	0.919
7.28	0.933
7.315	0.942
7.35	0.935
7.385	0.947
7.42	0.932
7.455	0.907
7.49	0.904
7.525	0.902
7.56	0.904
7.595	0.902
7.63	0.89
7.665	0.889
7.7	0.92
7.735	0.93
7.77	0.92
7.805	0.908
7.84	0.89
7.875	0.868
7.91	0.855
7.945	0.878
7.98	0.904
8.015	0.907
8.05	0.902
8.085	0.893
8.12	0.89
8.155	0.895
8.19	0.894
8.225	0.895
8.26	0.9
8.295	0.889
8.33	0.873
8.365	0.827
8.4	0.824
8.435	0.854
8.47	0.863
8.505	0.871
8.54	0.875
8.575	0.87
8.61	0.863
8.645	0.858
8.68	0.861
8.715	0.863
8.75	0.853
8.785	0.832
8.82	0.811
8.855	0.787
8.89	0.721
8.925	0.591
8.96	0.423
8.995	0.363
9.03	0.42
9.065	0.61
9.1	0.742
9.135	0.79
9.17	0.805
9.205	0.81
9.24	0.83
9.275	0.831
9.31	0.824
9.345	0.811
9.38	0.807
9.415	0.814
9.45	0.831
9.485	0.834
9.52	0.841
9.555	0.836
9.59	0.836
9.625	0.841
9.66	0.832
9.695	0.811
9.73	0.804
9.765	0.79
9.8	0.739
9.835	0.659
9.87	0.545
9.905	0.507
9.94	0.557
9.975	0.633
10.01	0.657
10.045	0.77
10.08	0.839
10.115	0.859
10.15	0.863
10.185	0.87
10.22	0.859
10.255	0.83
10.29	0.781
10.325	0.709
10.36	0.619
10.395	0.559
10.43	0.546
10.465	0.59
10.5	0.669
10.535	0.76
10.57	0.819
10.605	0.85
10.64	0.87
10.675	0.89
10.71	0.894
10.745	0.893
10.78	0.898
10.815	0.898
10.85	0.894
10.885	0.893
10.92	0.893
10.955	0.898
10.99	0.903
11.025	0.904
11.06	0.907
11.095	0.903
11.13	0.904
11.165	0.907
11.2	0.909
11.235	0.91
11.27	0.905
11.305	0.903
11.34	0.9
11.375	0.904
11.41	0.907
11.445	0.905
11.48	0.903
11.515	0.9
11.55	0.9
11.585	0.895
11.62	0.895
11.655	0.891
11.69	0.891
11.725	0.89
11.76	0.89
11.795	0.893
11.83	0.896
11.865	0.893
11.9	0.888
11.935	0.884
11.97	0.881
12.005	0.88
12.04	0.875
12.075	0.871
12.11	0.866
12.145	0.864
12.18	0.868
12.215	0.869
12.25	0.861
12.285	0.86
12.32	0.855
12.355	0.853
12.39	0.853
12.425	0.854
12.46	0.863
12.495	0.865
12.53	0.879
12.565	0.885
12.6	0.88
12.635	0.883
12.67	0.868
12.705	0.865
12.74	0.865
12.775	0.871
12.81	0.878
12.845	0.879
12.88	0.869
12.915	0.869
12.95	0.87
12.985	0.874
13.02	0.869
13.055	0.864
13.09	0.875
13.125	0.883
13.16	0.893
13.195	0.881
13.23	0.861
13.265	0.85
13.3	0.812
13.335	0.783
13.37	0.739
13.405	0.701
13.44	0.66
13.475	0.63
13.51	0.621
13.545	0.619
13.58	0.614
13.615	0.584
13.65	0.53
13.685	0.469
13.72	0.402
13.755	0.342
13.79	0.296
13.825	0.255
13.86	0.227
13.895	0.222
13.93	0.231
13.965	0.223
14	0.218
14.035	0.206
14.07	0.188
14.105	0.184
14.14	0.178
14.175	0.167
14.21	0.157
14.245	0.149
14.28	0.152
14.315	0.17
14.35	0.231
14.385	0.306
14.42	0.396
14.455	0.474
14.49	0.53
14.525	0.58
14.56	0.601
14.595	0.618
14.63	0.62
14.665	0.623
14.7	0.613
14.735	0.597
14.77	0.59
14.805	0.57
14.84	0.547
14.875	0.521
14.91	0.5
14.945	0.481
14.98	0.463
