Infrared Spectrum: 2-Carbomethoxyphenyl isocyanate
Formula: C 9 H 7 N O 3
CAS: 1793-07-3
State: gas
Origin: EPA-IR VAPOR PHASE LIBRARY
1/CM	ABSORBANCE
501.5	0.0005347
513.074	0.0007436
524.648	0.0005541
536.222	0.0008371
547.796	0.000857
559.37	0.0008319
570.944	0.0010304
582.518	0.001294
594.092	0.001744
605.666	0.001534
617.24	0.0011179
628.814	0.001013
640.388	0.000988
651.962	0.0008486
663.536	0.0007822
675.11	0.0006534
686.684	0.0008593
698.258	0.001214
709.832	0.0009289
721.406	0.0007056
732.98	0.0009904
744.554	0.003124
756.128	0.005574
767.702	0.002274
779.276	0.0009622
790.85	0.0006663
802.423	0.0006921
813.997	0.000688
825.571	0.0008673
837.145	0.0007521
848.719	0.0004374
860.293	0.0004754
871.867	0.0004696
883.441	0.0003951
895.015	0.0003789
906.589	0.0003741
918.163	0.0004086
929.737	0.0004098
941.311	0.0005099
952.885	0.000767
964.459	0.0008641
976.033	0.0005629
987.607	0.0004023
999.181	0.0004551
1010.76	0.000571
1022.33	0.0007756
1033.9	0.001564
1045.48	0.001524
1057.05	0.001924
1068.63	0.004624
1080.2	0.004424
1091.77	0.001944
1103.35	0.002384
1114.92	0.004304
1126.49	0.005284
1138.07	0.003804
1149.64	0.002884
1161.22	0.002574
1172.79	0.002094
1184.36	0.001914
1195.94	0.002034
1207.51	0.001814
1219.09	0.002074
1230.66	0.003194
1242.23	0.006764
1253.81	0.008884
1265.38	0.006034
1276.96	0.007224
1288.53	0.010874
1300.1	0.008324
1311.68	0.003054
1323.25	0.001444
1334.83	0.0009169
1346.4	0.0007408
1357.97	0.0006647
1369.55	0.0006431
1381.12	0.0006331
1392.7	0.00062
1404.27	0.0006686
1415.84	0.0010266
1427.42	0.002024
1438.99	0.002894
1450.57	0.001634
1462.14	0.001544
1473.71	0.001384
1485.29	0.001234
1496.86	0.001674
1508.44	0.002634
1520.01	0.003374
1531.58	0.002434
1543.16	0.001284
1554.73	0.0010366
1566.31	0.001464
1577.88	0.001954
1589.45	0.002544
1601.03	0.003714
1612.6	0.002424
1624.18	0.0010692
1635.75	0.0007283
1647.32	0.0005789
1658.9	0.0005674
1670.47	0.0005911
1682.05	0.0006859
1693.62	0.0009972
1705.19	0.001644
1716.77	0.002684
1728.34	0.005754
1739.92	0.010974
1751.49	0.008044
1763.06	0.003474
1774.64	0.002274
1786.21	0.001164
1797.79	0.0006907
1809.36	0.0005631
1820.93	0.0005015
1832.51	0.0004164
1844.08	0.0003945
1855.66	0.0003637
1867.23	0.0003541
1878.8	0.0003326
1890.38	0.0003986
1901.95	0.0004186
1913.53	0.0004301
1925.1	0.0004864
1936.67	0.0004564
1948.25	0.0004349
1959.82	0.0004173
1971.4	0.00032
1982.97	0.0003095
1994.54	0.0002928
2006.12	0.0003241
2017.69	0.0003201
2029.27	0.000353
2040.84	0.0003659
2052.41	0.0003747
2063.99	0.0004011
2075.56	0.000487
2087.14	0.0005485
2098.71	0.0005496
2110.28	0.0006105
2121.86	0.0007096
2133.43	0.0008272
2145.01	0.0009204
2156.58	0.0011229
2168.15	0.001434
2179.73	0.001844
2191.3	0.002244
2202.88	0.002754
2214.45	0.003624
2226.02	0.004974
2237.6	0.007034
2249.17	0.012144
2260.74	0.024444
2272.32	0.037674
2283.89	0.039454
2295.47	0.032424
2307.04	0.019684
2318.61	0.009964
2330.19	0.005774
2341.76	0.003994
2353.34	0.003074
2364.91	0.002604
2376.48	0.002344
2388.06	0.002014
2399.63	0.001614
2411.21	0.001184
2422.78	0.000851
2434.35	0.0006579
2445.93	0.0005261
2457.5	0.0004141
2469.08	0.0003314
2480.65	0.0003163
2492.22	0.0002994
2503.8	0.0002931
2515.37	0.0002332
2526.95	0.00024475
2538.52	0.00021208
2550.09	0.00025255
2561.67	0.00021757
2573.24	0.000275
2584.82	0.00019767
2596.39	0.0002372
2607.96	0.00022037
2619.54	0.0001943
2631.11	0.00017886
2642.69	0.00019461
2654.26	0.000171462
2665.83	0.0001533
2677.41	0.0001464
2688.98	0.0001393
2700.56	0.0001506
2712.13	0.00016269
2723.7	0.00018305
2735.28	0.000165304
2746.85	0.000163702
2758.43	0.0001485
2770	0.000164452
2781.57	0.00015777
2793.15	0.0001479
2804.72	0.00017869
2816.3	0.0001014
2827.87	0.000169549
2839.44	0.0003121
2851.02	0.0004567
2862.59	0.0003161
2874.17	0.000279
2885.74	0.000284
2897.31	0.0004126
2908.89	0.0004213
2920.46	0.0004503
2932.04	0.0004259
2943.61	0.0006028
2955.18	0.001574
2966.76	0.001874
2978.33	0.0006594
2989.91	0.0004613
3001.48	0.0005955
3013.05	0.0005915
3024.63	0.0006557
3036.2	0.0006416
3047.78	0.0006643
3059.35	0.000809
3070.92	0.0009949
3082.5	0.001164
3094.07	0.0005982
3105.65	0.0003055
3117.22	0.00018829
3128.79	0.00017852
3140.37	0.00017908
3151.94	7.68e-05
3163.52	3.1e-05
3175.09	0.0001128
3186.66	9.6e-05
3198.24	7.15e-05
3209.81	6e-05
3221.39	8.12e-05
3232.96	1.2e-05
3244.53	2.8e-05
3256.11	0.0001161
3267.68	7e-06
3279.26	4.6e-05
3290.83	8.66e-05
3302.4	8.08e-05
3313.98	0.0001002
3325.55	7.26e-05
3337.13	0.0001093
3348.7	0.0001381
3360.27	0.000168431
3371.85	0.00025346
3383.42	0.0001742
3395	0.0003065
3406.57	0.00022808
3418.14	0.0003076
3429.72	0.000295
3441.29	0.0002961
3452.86	0.000286
3464.44	0.00026033
3476.01	0.00017986
3487.59	0.00018995
3499.16	0.0001416
3510.73	0.0001057
3522.31	0.0001414
3533.88	0.000163967
3545.46	7.15e-05
3557.03	6.72e-05
3568.6	0.0001423
3580.18	0.0001085
3591.75	0.0001121
3603.33	0.00018059
3614.9	0.0001288
3626.47	0.0001369
3638.05	0.00015572
3649.62	0.000139
3661.2	0.0001528
3672.77	0.0001473
3684.34	0.00022591
3695.92	0.0002963
3707.49	0.00025865
3719.07	0.00020019
3730.64	0.0002036
3742.21	0.00021037
3753.79	0.000168354
3765.36	0.0001251
3776.94	0.00020214
3788.51	0.0002688
3800.08	0.00019181
3811.66	0.00020504
3823.23	0.00017631
3834.81	0.0001331
3846.38	0.0001196
3857.95	0.0001196
3869.53	7.51e-05
3881.1	7.44e-05
3892.68	7.59e-05
3904.25	9.24e-05
3915.82	7.14e-05
3927.4	4.6e-05
3938.97	6.92e-05
3950.55	7.26e-05
3962.12	7.13e-05
3973.69	6.82e-05
3985.27	9.25e-05
3996.84	6.3e-05
