Infrared Spectrum: 2,4,6,8,10-PENTAETHYL-2,4,6,8,10-PENTAMETHYLCYCLOPENTASILOXANE
Formula: C15 H40 O5 Si5
CAS: 17940-63-5
State: SOLUTION (5% IN CCl4 FOR 3800-1300, 2% IN CS2 FOR 1300-600, AND 5% IN CCl4 FOR 600-250 CM^-^1) VS. SOLVENT
Boiling point: 288 C
Class: COBLENTZ III
Instrument: PERKIN-ELMER 521 (GRATING)
Instrument parameters: FILTERS AT 3150, 2500, 2000, 1150, 700, 410. GRATING CHANGES: 2000, 630 CM^-^1
Sampling: TRANSMISSION
Path length: 0.011 CM, 0.011 CM, AND 0.021 CM
Resolution: 2
Origin: DOW CORNING CORP.
1/CM	TRANSMITTANCE
222.939	0.802
232.161	0.809
241.383	0.813
250.605	0.813
259.827	0.807
269.049	0.782
278.271	0.767
287.492	0.767
296.714	0.752
305.936	0.728
315.158	0.712
324.38	0.675
333.602	0.622
342.824	0.537
352.046	0.438
361.268	0.38
370.49	0.334
379.712	0.305
388.934	0.286
398.155	0.297
407.377	0.333
416.599	0.364
425.821	0.427
435.043	0.63
444.265	0.783
453.487	0.824
462.709	0.826
471.931	0.813
481.153	0.788
490.375	0.795
499.597	0.81
508.818	0.803
518.04	0.759
527.262	0.7
536.484	0.696
545.706	0.747
554.928	0.813
564.15	0.847
573.372	0.852
582.594	0.852
591.816	0.85
601.038	0.85
610.26	0.85
619.482	0.849
628.703	0.849
637.925	0.818
647.147	0.785
656.369	0.704
665.591	0.754
674.813	0.774
684.035	0.798
693.257	0.83
702.479	0.836
711.701	0.816
720.923	0.778
730.145	0.66
739.366	0.619
748.588	0.41
757.81	0.381
767.032	0.446
776.254	0.364
785.476	0.292
794.698	0.378
803.92	0.564
813.142	0.592
822.364	0.66
831.586	0.756
840.808	0.813
850.029	0.838
859.251	0.846
868.473	0.847
877.695	0.849
886.917	0.86
896.139	0.855
905.361	0.854
914.583	0.855
923.805	0.847
933.027	0.833
942.249	0.805
951.471	0.68
960.692	0.768
969.914	0.798
979.136	0.783
988.358	0.727
997.58	0.598
1006.8	0.399
1016.02	0.6
1025.25	0.611
1034.47	0.537
1043.69	0.409
1052.91	0.246
1062.13	0.108
1071.36	0.059
1080.58	0.051
1089.8	0.061
1099.02	0.105
1108.24	0.2401
1117.47	0.43
1126.69	0.563
1135.91	0.672
1145.13	0.736
1154.35	0.775
1163.57	0.803
1172.8	0.824
1182.02	0.831
1191.24	0.83
1200.46	0.821
1209.68	0.809
1218.91	0.767
1228.13	0.694
1237.35	0.579
1246.57	0.5409
1255.79	0.3241
1265.02	0.768
1274.24	0.808
1283.46	0.808
1292.68	0.808
1301.9	0.808
1311.13	0.808
1320.35	0.808
1329.57	0.808
1338.79	0.808
1348.01	0.808
1357.23	0.801
1366.46	0.788
1375.68	0.751
1384.9	0.758
1394.12	0.717
1403.34	0.623
1412.57	0.583
1421.79	0.725
1431.01	0.766
1440.23	0.759
1449.45	0.7079
1458.68	0.5611
1467.9	0.728
1477.12	0.797
1486.34	0.818
1495.56	0.823
1504.79	0.827
1514.01	0.826
1523.23	0.823
1532.45	0.816
1541.67	0.818
1550.9	0.824
1560.12	0.829
1569.34	0.829
1578.56	0.834
1587.78	0.839
1597	0.839
1606.23	0.841
1615.45	0.845
1624.67	0.849
1633.89	0.853
1643.11	0.855
1652.34	0.857
1661.56	0.855
1670.78	0.853
1680	0.854
1689.22	0.856
1698.45	0.857
1707.67	0.86
1716.89	0.861
1726.11	0.863
1735.33	0.862
1744.56	0.862
1753.78	0.864
1763	0.864
1772.22	0.865
1781.44	0.871
1790.67	0.873
1799.89	0.873
1809.11	0.875
1818.33	0.873
1827.55	0.873
1836.77	0.873
1846	0.875
1855.22	0.876
1864.44	0.876
1873.66	0.875
1882.88	0.872
1892.11	0.87
1901.33	0.869
1910.55	0.868
1919.77	0.87
1928.99	0.876
1938.22	0.88
1947.44	0.881
1956.66	0.88
1965.88	0.88
1975.1	0.881
1984.33	0.879
1993.55	0.875
2002.77	0.8865
2011.99	0.8901
2021.21	0.891
2030.44	0.891
2039.66	0.891
2048.88	0.8897
2058.1	0.8883
2067.32	0.888
2076.54	0.8888
2085.77	0.891
2094.99	0.891
2104.21	0.888
2113.43	0.888
2122.65	0.888
2131.88	0.888
2141.1	0.889
2150.32	0.889
2159.54	0.889
2168.76	0.889
2177.99	0.891
2187.21	0.891
2196.43	0.8906
2205.65	0.889
2214.87	0.889
2224.1	0.8904
2233.32	0.889
2242.54	0.889
2251.76	0.889
2260.98	0.889
2270.2	0.891
2279.43	0.891
2288.65	0.8915
2297.87	0.892
2307.09	0.8926
2316.31	0.893
2325.54	0.8923
2334.76	0.892
2343.98	0.892
2353.2	0.891
2362.42	0.8906
2371.65	0.891
2380.87	0.887
2390.09	0.886
2399.31	0.891
2408.53	0.889
2417.76	0.889
2426.98	0.889
2436.2	0.889
2445.42	0.889
2454.64	0.889
2463.87	0.8888
2473.09	0.888
2482.31	0.888
2491.53	0.888
2500.75	0.888
2509.97	0.891
2519.2	0.891
2528.42	0.889
2537.64	0.888
2546.86	0.8875
2556.08	0.887
2565.31	0.886
2574.53	0.885
2583.75	0.885
2592.97	0.884
2602.19	0.883
2611.42	0.883
2620.64	0.881
2629.86	0.881
2639.08	0.8802
2648.3	0.88
2657.53	0.879
2666.75	0.877
2675.97	0.877
2685.19	0.873
2694.41	0.873
2703.64	0.8729
2712.86	0.872
2722.08	0.8657
2731.3	0.8568
2740.52	0.864
2749.74	0.87
2758.97	0.8672
2768.19	0.8617
2777.41	0.8487
2786.63	0.8295
2795.85	0.8114
2805.08	0.8064
2814.3	0.8135
2823.52	0.8095
2832.74	0.806
2841.96	0.8039
2851.19	0.7926
2860.41	0.756
2869.63	0.6619
2878.85	0.3574
2888.07	0.4085
2897.3	0.4755
2906.52	0.4663
2915.74	0.3777
2924.96	0.5203
2934.18	0.4633
2943.4	0.4128
2952.63	0.3505
2961.85	0.1729
2971.07	0.2132
2980.29	0.552
2989.51	0.7368
2998.74	0.7928
3007.96	0.8155
3017.18	0.8306
3026.4	0.8442
3035.62	0.8473
3044.85	0.85
3054.07	0.8507
3063.29	0.8554
3072.51	0.857
3081.73	0.858
3090.96	0.858
3100.18	0.858
3109.4	0.86
3118.62	0.8616
3127.84	0.871
3137.07	0.872
3146.29	0.873
3155.51	0.873
3164.73	0.875
3173.95	0.8768
3183.17	0.878
3192.4	0.878
3201.62	0.88
3210.84	0.881
3220.06	0.881
3229.28	0.881
3238.51	0.881
3247.73	0.881
3256.95	0.883
3266.17	0.883
3275.39	0.883
3284.62	0.883
3293.84	0.883
3303.06	0.883
3312.28	0.881
3321.5	0.881
3330.73	0.881
3339.95	0.881
3349.17	0.883
3358.39	0.884
3367.61	0.8845
3376.84	0.885
3386.06	0.884
3395.28	0.884
3404.5	0.884
3413.72	0.885
3422.94	0.886
3432.17	0.886
3441.39	0.887
3450.61	0.887
3459.83	0.888
3469.05	0.888
3478.28	0.888
3487.5	0.8871
3496.72	0.889
3505.94	0.891
3515.16	0.891
3524.39	0.8879
3533.61	0.887
3542.83	0.887
3552.05	0.887
3561.27	0.887
3570.5	0.887
3579.72	0.888
3588.94	0.888
3598.16	0.889
3607.38	0.892
3616.61	0.893
3625.83	0.8926
3635.05	0.891
3644.27	0.8875
3653.49	0.885
3662.71	0.884
3671.94	0.884
3681.16	0.884
3690.38	0.8817
3699.6	0.88
3708.82	0.8783
3718.05	0.877
3727.27	0.876
3736.49	0.8778
3745.71	0.8809
3754.93	0.8849
3764.16	0.887
3773.38	0.888
3782.6	0.889
3791.82	0.889
3801.04	0.889
