Infrared Spectrum: Octylcyclohexane
Formula: C 14 H 28
CAS: 1795-15-9
State: gas
Instrument: HP-GC/MS/IRD
Origin: NIST Mass Spectrometry Data Center
1/CM	ABSORBANCE
550	0.003432
562	0.0002392
574	0.00026
586	0.0002808
598	0.0003224
610	0.000416
622	0.000364
634	0.0002912
646	0.0003952
658	0.0004784
670	0.0004576
682	0.0005928
694	0.0007488
706	0.0009984
718	0.0012792
730	0.0012688
742	0.0011648
754	0.0010608
766	0.0010192
778	0.0009984
790	0.0009464
802	0.0009672
814	0.0009984
826	0.00104
838	0.0013104
850	0.0012272
862	0.0012064
874	0.0013312
886	0.001716
898	0.001664
910	0.0013936
922	0.0013208
934	0.0012792
946	0.0013624
958	0.0014456
970	0.0013936
982	0.0013832
994	0.0013832
1006	0.0014456
1018	0.0014456
1030	0.001508
1042	0.001404
1054	0.0014456
1066	0.0014976
1078	0.0016016
1090	0.0015808
1102	0.0016016
1114	0.0015808
1126	0.0015392
1138	0.0015496
1150	0.0015912
1162	0.0016224
1174	0.001664
1186	0.0017056
1198	0.0017264
1210	0.0017264
1222	0.001768
1234	0.0018616
1246	0.0020592
1258	0.002496
1270	0.0026624
1282	0.0024024
1294	0.0024128
1306	0.0025272
1318	0.0024856
1330	0.0027456
1342	0.0032032
1354	0.003484
1366	0.003068
1378	0.0029432
1390	0.0025272
1402	0.0023088
1414	0.0024024
1426	0.0028288
1438	0.0041912
1450	0.0081848
1462	0.0078312
1474	0.00442
1486	0.0028184
1498	0.0019656
1510	0.001092
1522	0.0008632
1534	0.0014248
1546	0.0013104
1558	0.0001976
1570	0.001612
1582	0.0020592
1594	0.0020488
1606	0.001976
1618	0.0013832
1630	0.001664
1642	0.0014456
1654	0.0003432
1666	0.0013104
1678	0.0012272
1690	0.0013104
1702	0.000416
1714	0.0009152
1726	0.0015392
1738	0.000884
1750	0.0009256
1762	0.001196
1774	0.0009464
1786	0.0013312
1798	0.0012064
1810	0.001352
1822	0.0013
1834	0.0012688
1846	0.0009984
1858	0.0013104
1870	0.0010608
1882	0.0012792
1894	0.001196
1906	0.0011856
1918	0.00104
1930	0.0011856
1942	0.0010296
1954	0.001092
1966	0.00104
1978	0.00104
1990	0.0009672
2002	0.0009984
2014	0.0009776
2026	0.0009776
2038	0.0009464
2050	0.000936
2062	0.0008528
2074	0.000832
2086	0.0007904
2098	0.00078
2110	0.0007488
2122	0.0007072
2134	0.0007072
2146	0.0006656
2158	0.0006656
2170	0.000624
2182	0.0006344
2194	0.0005928
2206	0.0005304
2218	0.00052
2230	0.0004784
2242	0.0004264
2254	0.0003848
2266	0.0003744
2278	0.0003432
2290	0.0002808
2302	0.0002392
2314	0.0001872
2326	0.0001872
2338	0.0001872
2350	0.0002184
2362	0.0001872
2374	0.0002496
2386	0.000364
2398	0.0003952
2410	0.0003848
2422	0.0003952
2434	0.0003952
2446	0.000416
2458	0.0004264
2470	0.0004472
2482	0.0004992
2494	0.0004784
2506	0.00052
2518	0.0005616
2530	0.0006136
2542	0.0006656
2554	0.0006656
2566	0.0007384
2578	0.0008008
2590	0.0009152
2602	0.0010088
2614	0.0010608
2626	0.001092
2638	0.0012272
2650	0.001404
2662	0.0016328
2674	0.001664
2686	0.0015288
2698	0.0014664
2710	0.001404
2722	0.0013936
2734	0.0014664
2746	0.0015288
2758	0.0015912
2770	0.00182
2782	0.002184
2794	0.002756
2806	0.0032552
2818	0.0040976
2830	0.0059176
2842	0.012012
2854	0.0293072
2866	0.036088
2878	0.0225472
2890	0.0204152
2902	0.0288912
2914	0.0493896
2926	0.0916968
2938	0.0933504
2950	0.0414544
2962	0.0233064
2974	0.0161824
2986	0.0076336
2998	0.0047424
3010	0.003432
3022	0.0026936
3034	0.0022568
3046	0.0019344
3058	0.001716
3070	0.0015912
3082	0.0014976
3094	0.0014768
3106	0.0013728
3118	0.0013
3130	0.0013312
3142	0.0013416
3154	0.001352
3166	0.0012688
3178	0.0012376
3190	0.0012272
3202	0.0011232
3214	0.0011544
3226	0.001144
3238	0.0011336
3250	0.0011232
3262	0.0011024
3274	0.0010712
3286	0.0010712
3298	0.0010608
3310	0.0011024
3322	0.0010712
3334	0.0010816
3346	0.001092
3358	0.0011232
3370	0.0011024
3382	0.001144
3394	0.0010712
3406	0.0011024
3418	0.001092
3430	0.0011336
3442	0.001092
3454	0.0011544
3466	0.0011232
3478	0.001092
3490	0.0010816
3502	0.0010192
3514	0.0010608
3526	0.0009568
3538	0.0010816
3550	0.0009776
3562	0.0009048
3574	0.0010712
3586	0.0007176
3598	0.0009464
3610	0.0006136
3622	0.0008736
3634	0.0009568
3646	0.0005304
3658	0.0009672
3670	0.0003432
3682	0.0010712
3694	0.0010504
3706	0.0010296
3718	0.0011024
3730	0.0006864
3742	0.00026
3754	0.000416
3766	0.0010816
3778	0.0012272
3790	0.0013416
3802	0.0005824
3814	0.0008944
3826	0.0010296
3838	0.0005096
