Infrared Spectrum: Dodecylcyclohexane
Formula: C 18 H 36
CAS: 1795-17-1
State: gas
Instrument: HP-GC/MS/IRD
Origin: NIST Mass Spectrometry Data Center
1/CM	ABSORBANCE
550	0.0002652
562	0.0001734
574	8.16e-05
586	9.18e-05
598	0.0002142
610	0.0002448
622	0.0001938
634	0.000153
646	0.0001326
658	0.0001836
670	0.000255
682	0.0002856
694	0.0004794
706	0.0007344
718	0.0011016
730	0.0009282
742	0.0007548
754	0.000612
766	0.0005712
778	0.0004896
790	0.0003774
802	0.0003978
814	0.0003876
826	0.0003774
838	0.0006324
850	0.0005304
862	0.0004386
874	0.0005304
886	0.0007344
898	0.0006528
910	0.0004998
922	0.000408
934	0.0004284
946	0.0004284
958	0.0004794
970	0.0004182
982	0.0003978
994	0.0003774
1006	0.000357
1018	0.000357
1030	0.0004488
1042	0.0003672
1054	0.0003468
1066	0.0003366
1078	0.0003876
1090	0.0003978
1102	0.0003468
1114	0.000306
1126	0.0002652
1138	0.0002754
1150	0.0003264
1162	0.0003162
1174	0.0003366
1186	0.000357
1198	0.000408
1210	0.0003672
1222	0.0004182
1234	0.0004998
1246	0.0006426
1258	0.0009792
1270	0.0010914
1282	0.0009486
1294	0.00102
1306	0.0011628
1318	0.0010608
1330	0.0011832
1342	0.0018054
1354	0.0021216
1366	0.0016932
1378	0.0013056
1390	0.0009588
1402	0.0007446
1414	0.0008058
1426	0.0011934
1438	0.0026316
1450	0.0060996
1462	0.0062934
1474	0.0032436
1486	0.0012852
1498	0.0006732
1510	0.0003468
1522	0.0002652
1534	0.000204
1546	0.0001734
1558	0.0001224
1570	0.0001734
1582	0.0001734
1594	0.0001632
1606	0.0001428
1618	9.18e-05
1630	0.000102
1642	9.18e-05
1654	3.06e-05
1666	8.16e-05
1678	9.18e-05
1690	9.18e-05
1702	3.06e-05
1714	2.04e-05
1726	5.1e-05
1738	3.06e-05
1750	1.02e-05
1762	5.1e-05
1774	3.06e-05
1786	4.08e-05
1798	5.1e-05
1810	5.1e-05
1822	5.1e-05
1834	5.1e-05
1846	3.06e-05
1858	5.1e-05
1870	3.06e-05
1882	4.08e-05
1894	4.08e-05
1906	3.06e-05
1918	3.06e-05
1930	4.08e-05
1942	2.04e-05
1954	4.08e-05
1966	3.06e-05
1978	2.04e-05
1990	2.04e-05
2002	4.08e-05
2014	6.12e-05
2026	9.18e-05
2038	8.16e-05
2050	8.16e-05
2062	7.14e-05
2074	5.1e-05
2086	5.1e-05
2098	3.06e-05
2110	5.1e-05
2122	5.1e-05
2134	5.1e-05
2146	6.12e-05
2158	8.16e-05
2170	9.18e-05
2182	8.16e-05
2194	6.12e-05
2206	5.1e-05
2218	5.1e-05
2230	6.12e-05
2242	6.12e-05
2254	5.1e-05
2266	4.08e-05
2278	5.1e-05
2290	6.12e-05
2302	4.08e-05
2314	3.06e-05
2326	3.06e-05
2338	4.08e-05
2350	7.14e-05
2362	3.06e-05
2374	5.1e-05
2386	7.14e-05
2398	9.18e-05
2410	9.18e-05
2422	0.000102
2434	0.000102
2446	7.14e-05
2458	8.16e-05
2470	0.0001122
2482	0.0001326
2494	0.0001326
2506	0.0001428
2518	0.0001734
2530	0.0002244
2542	0.0002244
2554	0.0002142
2566	0.0002856
2578	0.0003264
2590	0.0004284
2602	0.00051
2614	0.0005508
2626	0.000612
2638	0.000714
2650	0.0008364
2662	0.0010302
2674	0.001071
2686	0.0009792
2698	0.000867
2710	0.000816
2722	0.0007854
2734	0.000816
2746	0.0009078
2758	0.000969
2770	0.0011628
2782	0.0015198
2794	0.001989
2806	0.0024684
2818	0.0033864
2830	0.0051714
2842	0.0106794
2854	0.0277338
2866	0.03519
2878	0.0205632
2890	0.0183702
2902	0.0266934
2914	0.0463794
2926	0.0891276
2938	0.0899844
2950	0.0381582
2962	0.019839
2974	0.0128418
2986	0.0061506
2998	0.0036108
3010	0.0024684
3022	0.0018462
3034	0.0014586
3046	0.0011832
3058	0.0010098
3070	0.0008058
3082	0.0007038
3094	0.0006018
3106	0.0004794
3118	0.0004794
3130	0.0004386
3142	0.0004284
3154	0.0004386
3166	0.0003672
3178	0.0003264
3190	0.0002754
3202	0.0002244
3214	0.0002142
3226	0.0001632
3238	0.0001938
3250	0.0001836
3262	0.0001224
3274	0.0001428
3286	9.18e-05
3298	9.18e-05
3310	0.0001122
3322	0.0001224
3334	0.0001326
3346	0.0001428
3358	0.0001326
3370	0.0001224
3382	0.000102
3394	0.0001326
3406	0.000102
3418	0.000102
3430	0.0001224
3442	8.16e-05
3454	7.14e-05
3466	7.14e-05
3478	7.14e-05
3490	8.16e-05
3502	7.14e-05
3514	6.12e-05
3526	4.08e-05
3538	3.06e-05
3550	3.06e-05
3562	5.1e-05
3574	6.12e-05
3586	7.14e-05
3598	8.16e-05
3610	8.16e-05
3622	0.000102
3634	0.0001326
3646	0.000102
3658	0.0001224
3670	0.0001122
3682	0.0001224
3694	0.0001326
3706	0.0001632
3718	0.0001632
3730	0.0001326
3742	0.0001122
3754	0.0001326
3766	0.000204
3778	0.0002142
3790	0.0001836
3802	0.0001734
3814	0.0001938
3826	0.0001938
3838	0.000153
