Infrared Spectrum: cis,cis,trans-1,3,5-trimethylcyclohexane
Formula: C 9 H 18
CAS: 1795-26-2
State: gas
Instrument: HP-GC/MS/IRD
Origin: NIST Mass Spectrometry Data Center
1/CM	ABSORBANCE
550	0.000563
562	0.000426
574	0.000462
586	0.000407
598	0.000264
610	0.000333
622	0.000206
634	0.000288
646	0.000227
658	0.000285
670	0.000121
682	0.000163
694	0.000122
706	9.2e-05
718	5.3e-05
730	0.00012
742	9.8e-05
754	8.8e-05
766	3.2e-05
778	0.000135
790	0.000116
802	0.000105
814	0.000113
826	7.2e-05
838	0.000138
850	0.000181
862	0.000126
874	6.4e-05
886	0.000119
898	6.1e-05
910	7.2e-05
922	8.2e-05
934	0.000179
946	0.000125
958	0.000104
970	8e-05
982	0.000108
994	0.000123
1006	8.9e-05
1018	0.000148
1030	0.000139
1042	0.00011
1054	0.00016
1066	0.000136
1078	0.000166
1090	0.000139
1102	0.000158
1114	0.000186
1126	0.000178
1138	0.000101
1150	0.000117
1162	0.000226
1174	0.000194
1186	0.000105
1198	9.6e-05
1210	8.6e-05
1222	0.000113
1234	9.4e-05
1246	0.000171
1258	0.000197
1270	0.000126
1282	8e-05
1294	9.1e-05
1306	8.6e-05
1318	0.000178
1330	0.00028
1342	0.000317
1354	0.000329
1366	0.00046
1378	0.000786
1390	0.00068
1402	0.000263
1414	0.000171
1426	0.000233
1438	0.000499
1450	0.000986
1462	0.001328
1474	0.000836
1486	0.000338
1498	0.000152
1510	7.8e-05
1522	7.5e-05
1534	6.4e-05
1546	8.6e-05
1558	6.1e-05
1570	6.3e-05
1582	5.8e-05
1594	8.7e-05
1606	9.3e-05
1618	6.5e-05
1630	7.6e-05
1642	6.4e-05
1654	3e-05
1666	6.3e-05
1678	4.1e-05
1690	3.6e-05
1702	7e-06
1714	2.5e-05
1726	2e-05
1738	3.8e-05
1750	2.1e-05
1762	2.6e-05
1774	4e-05
1786	3.2e-05
1798	3.3e-05
1810	2.4e-05
1822	3.6e-05
1834	2.8e-05
1846	3.7e-05
1858	3.9e-05
1870	2.4e-05
1882	1.9e-05
1894	4.9e-05
1906	6.7e-05
1918	3.7e-05
1930	3.8e-05
1942	5.5e-05
1954	4.3e-05
1966	3.8e-05
1978	5.3e-05
1990	4.1e-05
2002	2.5e-05
2014	5.5e-05
2026	5.1e-05
2038	2.9e-05
2050	4.2e-05
2062	2.9e-05
2074	3.4e-05
2086	4.7e-05
2098	4.1e-05
2110	4.1e-05
2122	5.2e-05
2134	4.2e-05
2146	4e-05
2158	5.4e-05
2170	6.3e-05
2182	5.1e-05
2194	3.8e-05
2206	5e-05
2218	2.8e-05
2230	4.6e-05
2242	6.5e-05
2254	4.6e-05
2266	3.2e-05
2278	3.2e-05
2290	5.3e-05
2302	5.3e-05
2314	5.9e-05
2326	4.4e-05
2338	4.7e-05
2350	1.9e-05
2362	3.8e-05
2374	4.5e-05
2386	3.2e-05
2398	4.9e-05
2410	6.6e-05
2422	4.3e-05
2434	6.1e-05
2446	6.7e-05
2458	5.7e-05
2470	5.8e-05
2482	4.6e-05
2494	3.4e-05
2506	4.2e-05
2518	5e-05
2530	4.2e-05
2542	5.5e-05
2554	4.3e-05
2566	7e-05
2578	8.4e-05
2590	0.000105
2602	0.000131
2614	0.000105
2626	0.000132
2638	0.000147
2650	0.000135
2662	0.000132
2674	0.000102
2686	9.6e-05
2698	0.000137
2710	0.000158
2722	0.000188
2734	0.000223
2746	0.000197
2758	0.000197
2770	0.000202
2782	0.000233
2794	0.000304
2806	0.00035
2818	0.00056
2830	0.001071
2842	0.00218
2854	0.002324
2866	0.002248
2878	0.003693
2890	0.005387
2902	0.007942
2914	0.01
2926	0.007305
2938	0.004705
2950	0.006006
2962	0.007365
2974	0.004064
2986	0.001077
2998	0.000405
3010	0.00025
3022	0.000194
3034	0.000212
3046	0.00017
3058	0.000223
3070	0.000176
3082	0.00018
3094	0.000152
3106	0.000134
3118	0.00011
3130	0.000109
3142	0.000121
3154	0.000131
3166	0.000107
3178	0.000106
3190	9.1e-05
3202	5.5e-05
3214	6e-05
3226	2.9e-05
3238	4.7e-05
3250	5.6e-05
3262	4.5e-05
3274	6.1e-05
3286	7e-05
3298	2.9e-05
3310	7.2e-05
3322	6.4e-05
3334	3.7e-05
3346	5.8e-05
3358	0
3370	3.8e-05
3382	4.3e-05
3394	3e-05
3406	1.7e-05
3418	5.5e-05
3430	5.7e-05
3442	3.8e-05
3454	3.5e-05
3466	5.4e-05
3478	2.3e-05
3490	2.6e-05
3502	3e-05
3514	4.6e-05
3526	3.2e-05
3538	3e-05
3550	3.3e-05
3562	2.3e-05
3574	5.1e-05
3586	4.8e-05
3598	7.8e-05
3610	0.000108
3622	5e-05
3634	5.4e-05
3646	2.4e-05
3658	3e-05
3670	4.6e-05
3682	5.2e-05
3694	6e-05
3706	4.8e-05
3718	6.1e-05
3730	6.8e-05
3742	3.6e-05
3754	2.3e-05
3766	3e-05
3778	8.1e-05
3790	6.3e-05
3802	4.6e-05
3814	4.2e-05
3826	2.4e-05
3838	4.4e-05
