Infrared Spectrum: Decylcyclohexane
Formula: C 16 H 32
CAS: 1795-16-0
State: gas
Instrument: HP-GC/MS/IRD
Origin: NIST Mass Spectrometry Data Center
1/CM	ABSORBANCE
550	2.76e-05
562	2.76e-05
574	0
586	4.14e-05
598	4.14e-05
610	0.000138
622	4.14e-05
634	1.38e-05
646	5.52e-05
658	4.14e-05
670	9.66e-05
682	0.0001242
694	0.000345
706	0.0007038
718	0.000966
730	0.0009384
742	0.00069
754	0.000552
766	0.0004002
778	0.000345
790	0.0002622
802	0.000276
814	0.000276
826	0.000276
838	0.0006486
850	0.0004278
862	0.0003864
874	0.0005382
886	0.0008004
898	0.0006762
910	0.0004968
922	0.0003726
934	0.000345
946	0.000345
958	0.0004002
970	0.000483
982	0.0003174
994	0.0002346
1006	0.0002622
1018	0.0003726
1030	0.0003864
1042	0.0003588
1054	0.0003588
1066	0.0003588
1078	0.0003312
1090	0.0003726
1102	0.0003036
1114	0.0002898
1126	0.000207
1138	0.000207
1150	0.0002208
1162	0.000276
1174	0.0003036
1186	0.000276
1198	0.000345
1210	0.0003588
1222	0.0004002
1234	0.000483
1246	0.0006486
1258	0.0011454
1270	0.0013386
1282	0.0011316
1294	0.001104
1306	0.001242
1318	0.0012282
1330	0.0014352
1342	0.0022494
1354	0.0025254
1366	0.0020976
1378	0.0016974
1390	0.001242
1402	0.000966
1414	0.001035
1426	0.0015318
1438	0.003588
1450	0.0083352
1462	0.008418
1474	0.004347
1486	0.0017112
1498	0.0008418
1510	0.0005658
1522	0.0003864
1534	0.0002898
1546	0.0002346
1558	0.0002208
1570	0.0001932
1582	0.0001518
1594	0.0001104
1606	0.0001104
1618	0.0001104
1630	9.66e-05
1642	6.9e-05
1654	8.28e-05
1666	6.9e-05
1678	5.52e-05
1690	6.9e-05
1702	8.28e-05
1714	5.52e-05
1726	5.52e-05
1738	4.14e-05
1750	5.52e-05
1762	5.52e-05
1774	5.52e-05
1786	5.52e-05
1798	4.14e-05
1810	4.14e-05
1822	2.76e-05
1834	1.38e-05
1846	4.14e-05
1858	2.76e-05
1870	4.14e-05
1882	4.14e-05
1894	4.14e-05
1906	1.38e-05
1918	4.14e-05
1930	0
1942	1.38e-05
1954	4.14e-05
1966	1.38e-05
1978	1.38e-05
1990	5.52e-05
2002	4.14e-05
2014	6.9e-05
2026	8.28e-05
2038	0.0001104
2050	6.9e-05
2062	6.9e-05
2074	4.14e-05
2086	4.14e-05
2098	2.76e-05
2110	1.38e-05
2122	4.14e-05
2134	4.14e-05
2146	6.9e-05
2158	6.9e-05
2170	8.28e-05
2182	0.0001104
2194	9.66e-05
2206	5.52e-05
2218	6.9e-05
2230	6.9e-05
2242	5.52e-05
2254	5.52e-05
2266	5.52e-05
2278	6.9e-05
2290	4.14e-05
2302	4.14e-05
2314	2.76e-05
2326	6.9e-05
2338	5.52e-05
2350	6.9e-05
2362	6.9e-05
2374	5.52e-05
2386	5.52e-05
2398	5.52e-05
2410	6.9e-05
2422	4.14e-05
2434	5.52e-05
2446	2.76e-05
2458	2.76e-05
2470	4.14e-05
2482	6.9e-05
2494	6.9e-05
2506	0.0001104
2518	0.0001518
2530	0.0001794
2542	0.0001932
2554	0.0002484
2566	0.000276
2578	0.0003726
2590	0.0004692
2602	0.0005934
2614	0.0006348
2626	0.0007038
2638	0.0008142
2650	0.0010626
2662	0.0012834
2674	0.001311
2686	0.0011868
2698	0.0010626
2710	0.0009936
2722	0.0009936
2734	0.0010074
2746	0.0010626
2758	0.0012006
2770	0.0014352
2782	0.0019044
2794	0.0026634
2806	0.0032982
2818	0.0044298
2830	0.0068862
2842	0.0145728
2854	0.0374394
2866	0.0471132
2878	0.0283314
2890	0.025392
2902	0.0367218
2914	0.0634662
2926	0.120847
2938	0.122434
2950	0.052716
2962	0.028428
2974	0.0183264
2986	0.0083904
2998	0.0048852
3010	0.0032292
3022	0.0024012
3034	0.001794
3046	0.0014628
3058	0.0011868
3070	0.0009522
3082	0.0008418
3094	0.0007314
3106	0.0005796
3118	0.0005382
3130	0.0005244
3142	0.000552
3154	0.000483
3166	0.000414
3178	0.0003174
3190	0.000276
3202	0.0002208
3214	0.0002208
3226	0.000207
3238	0.0001794
3250	0.0001518
3262	0.0001104
3274	8.28e-05
3286	6.9e-05
3298	8.28e-05
3310	9.66e-05
3322	9.66e-05
3334	9.66e-05
3346	0.0001518
3358	0.0001518
3370	0.0001518
3382	0.0001242
3394	0.0001242
3406	0.0001242
3418	0.0001104
3430	8.28e-05
3442	6.9e-05
3454	8.28e-05
3466	4.14e-05
3478	5.52e-05
3490	0.0001242
3502	9.66e-05
3514	4.14e-05
3526	1.38e-05
3538	4.14e-05
3550	4.14e-05
3562	2.76e-05
3574	5.52e-05
3586	0.0001104
3598	6.9e-05
3610	0.0001656
3622	0.0001518
3634	0.0001794
3646	0.000207
3658	0.0001656
3670	0.000207
3682	0.0001932
3694	0.000138
3706	0.0001932
3718	0.0001932
3730	0.0002208
3742	0.0002208
3754	0.0002622
3766	0.0002622
3778	0.0003036
3790	0.000276
3802	0.0002484
3814	0.0002484
3826	0.0002484
3838	0.0002484
