Infrared Spectrum: cis,cis-1,3,5-Trimethylcyclohexane
Formula: C 9 H 18
CAS: 1795-27-3
State: gas
Instrument: HP-GC/MS/IRD
Origin: NIST Mass Spectrometry Data Center
1/CM	ABSORBANCE
550	3.9e-05
562	0.0002704
574	0.0002106
586	0.0002262
598	0.0001872
610	0.000195
622	0.0002106
634	0.0002002
646	0.00013
658	0.0001664
670	0.0002522
682	0.0002002
694	0.0001664
706	0.000221
718	0.000234
730	0.0001846
742	0.0001456
754	0.0001248
766	0.0002106
778	0.000143
790	0.0001716
802	0.000195
814	0.0002028
826	0.0003432
838	0.000442
850	0.0005278
862	0.0003198
874	0.0001716
886	0.000143
898	0.0001222
910	0.0001326
922	0.0002002
934	0.000377
946	0.0004264
958	0.0002392
970	0.000208
982	0.0001872
994	0.0002158
1006	0.0002782
1018	0.0002054
1030	0.000221
1042	0.0002132
1054	0.0002496
1066	0.0002418
1078	0.0002262
1090	0.0002002
1102	0.0003172
1114	0.0003562
1126	0.0003796
1138	0.0002652
1150	0.0002392
1162	0.0003302
1174	0.0005902
1186	0.000312
1198	0.0002132
1210	0.000221
1222	0.000273
1234	0.0003536
1246	0.0005174
1258	0.0007566
1270	0.000702
1282	0.0004524
1294	0.0003302
1306	0.000364
1318	0.000416
1330	0.000689
1342	0.0009516
1354	0.0016302
1366	0.0019058
1378	0.0018642
1390	0.0011284
1402	0.0004862
1414	0.0003718
1426	0.0005772
1438	0.0012402
1450	0.0028366
1462	0.0037102
1474	0.002145
1486	0.0008034
1498	0.0003484
1510	3.38e-05
1522	3.12e-05
1534	0.0001144
1546	1.82e-05
1558	3.9e-05
1570	0.0001716
1582	0.0002054
1594	0.00026
1606	0.0002418
1618	0.000208
1630	0.0001898
1642	0.0001664
1654	6.5e-05
1666	0.0001508
1678	0.0001222
1690	0.0001508
1702	6.24e-05
1714	5.98e-05
1726	0.0001144
1738	7.02e-05
1750	2.08e-05
1762	9.88e-05
1774	0.0001196
1786	0.00013
1798	0.0001274
1810	0.0001144
1822	0.0001014
1834	0.0001482
1846	8.84e-05
1858	0.000143
1870	0.0001222
1882	0.0001534
1894	0.0001378
1906	0.0001248
1918	0.000117
1930	0.0001196
1942	8.32e-05
1954	0.0001118
1966	0.0001248
1978	0.0001274
1990	0.0001118
2002	0.0001404
2014	0.0001144
2026	0.000117
2038	0.000117
2050	0.00013
2062	0.0001196
2074	0.000117
2086	0.0001092
2098	0.0001066
2110	0.0001196
2122	0.000117
2134	0.0001222
2146	0.0001274
2158	0.00013
2170	0.0001274
2182	0.0001586
2194	0.0001456
2206	0.0001508
2218	0.0001196
2230	0.0001404
2242	0.0001066
2254	9.62e-05
2266	0.000117
2278	0.000117
2290	0.0001404
2302	0.0001534
2314	0.0001066
2326	9.1e-05
2338	9.62e-05
2350	0.000104
2362	5.72e-05
2374	9.1e-05
2386	0.000156
2398	0.0001794
2410	0.0002106
2422	0.0002418
2434	0.0002132
2446	0.000195
2458	0.0001846
2470	0.0001846
2482	0.0001716
2494	0.000182
2506	0.000208
2518	0.0002106
2530	0.0001898
2542	0.0001742
2554	0.0001924
2566	0.0001898
2578	0.0002366
2590	0.0003146
2602	0.000442
2614	0.000494
2626	0.0004342
2638	0.000403
2650	0.0003822
2662	0.0003536
2674	0.0003718
2686	0.00039
2698	0.0004992
2710	0.000572
2722	0.0007046
2734	0.000767
2746	0.0006786
2758	0.0006058
2770	0.00065
2782	0.0008216
2794	0.0010816
2806	0.001326
2818	0.001755
2830	0.0039962
2842	0.0073138
2854	0.0063882
2866	0.0080392
2878	0.0128986
2890	0.0167492
2902	0.0203502
2914	0.025987
2926	0.0188786
2938	0.012675
2950	0.0184106
2962	0.0227344
2974	0.0096122
2986	0.0019526
2998	0.0009984
3010	0.000715
3022	0.0006578
3034	0.0006474
3046	0.0006994
3058	0.000728
3070	0.0007488
3082	0.000689
3094	0.000715
3106	0.0006734
3118	0.0005382
3130	0.0004758
3142	0.0004316
3154	0.0004758
3166	0.0004654
3178	0.0004602
3190	0.000442
3202	0.0003536
3214	0.0003094
3226	0.0002132
3238	0.0001794
3250	0.0001768
3262	0.0001716
3274	0.0001924
3286	0.0002314
3298	0.0002314
3310	0.0002574
3322	0.0002496
3334	0.0002652
3346	0.0002626
3358	0.0002912
3370	0.0002964
3382	0.0002574
3394	0.0002158
3406	0.0002912
3418	0.0003146
3430	0.0002626
3442	0.000169
3454	0.0002028
3466	0.0002418
3478	0.0002262
3490	0.0002366
3502	0.0001742
3514	0.000234
3526	0.0001196
3538	0.0001742
3550	0.000195
3562	0.0001976
3574	0.0002756
3586	0.00013
3598	0.0002184
3610	0.0001586
3622	0.0002548
3634	0.0002366
3646	0.0001846
3658	0.0002574
3670	0.000221
3682	0.0002834
3694	0.0003016
3706	0.0002652
3718	0.0002964
3730	0.0002366
3742	0.0002106
3754	0.0002782
3766	0.0003692
3778	0.000338
3790	0.0003432
3802	0.0003146
3814	0.0003276
3826	0.0003536
3838	0.0003094
