Infrared Spectrum: Decylcyclopentane
Formula: C 15 H 30
CAS: 1795-21-7
State: gas
Instrument: HP-GC/MS/IRD
Origin: NIST Mass Spectrometry Data Center
1/CM	ABSORBANCE
550	0.0001241
562	0.0001825
574	8.76e-05
586	0.0001095
598	0.0002044
610	0.0001898
622	0.0001679
634	0.0001752
646	0.0001898
658	5.11e-05
670	0.0001898
682	0.0002482
694	0.0003723
706	0.0006059
718	0.0009198
730	0.0008614
742	0.0007446
754	0.0005767
766	0.000511
778	0.0004088
790	0.0003577
802	0.0003504
814	0.0003066
826	0.0003431
838	0.0002774
850	0.0003431
862	0.0003139
874	0.0003796
886	0.0005037
898	0.0005548
910	0.0004745
922	0.0004891
934	0.0004526
946	0.0004015
958	0.0003504
970	0.0002774
982	0.0002774
994	0.000219
1006	0.0002482
1018	0.0002336
1030	0.0002555
1042	0.0002482
1054	0.0002409
1066	0.0002336
1078	0.0002774
1090	0.000219
1102	0.0001679
1114	0.0002044
1126	0.0001825
1138	0.0001971
1150	0.0002409
1162	0.0002993
1174	0.0003358
1186	0.0003577
1198	0.0003723
1210	0.0004453
1222	0.000438
1234	0.0004964
1246	0.0005621
1258	0.0006278
1270	0.0006789
1282	0.0008103
1294	0.0009855
1306	0.0011461
1318	0.0010731
1330	0.0011972
1342	0.001606
1354	0.0018469
1366	0.0015914
1378	0.0012702
1390	0.0010074
1402	0.0007811
1414	0.0008395
1426	0.0011315
1438	0.002117
1450	0.0040515
1462	0.00511
1474	0.0033142
1486	0.0016571
1498	0.000876
1510	0.0005183
1522	0.000365
1534	0.0002701
1546	0.0001971
1558	0.0001971
1570	0.0001606
1582	0.0001387
1594	0.0001095
1606	0.0001095
1618	0.0001095
1630	8.03e-05
1642	8.03e-05
1654	8.03e-05
1666	6.57e-05
1678	5.11e-05
1690	4.38e-05
1702	5.84e-05
1714	4.38e-05
1726	4.38e-05
1738	4.38e-05
1750	3.65e-05
1762	2.19e-05
1774	2.92e-05
1786	2.19e-05
1798	1.46e-05
1810	2.19e-05
1822	1.46e-05
1834	1.46e-05
1846	7.3e-06
1858	2.19e-05
1870	2.92e-05
1882	2.19e-05
1894	1.46e-05
1906	2.19e-05
1918	1.46e-05
1930	7.3e-06
1942	1.46e-05
1954	2.19e-05
1966	0
1978	7.3e-06
1990	7.3e-06
2002	1.46e-05
2014	5.84e-05
2026	9.49e-05
2038	7.3e-05
2050	5.11e-05
2062	7.3e-05
2074	6.57e-05
2086	6.57e-05
2098	5.84e-05
2110	3.65e-05
2122	4.38e-05
2134	2.19e-05
2146	5.84e-05
2158	7.3e-05
2170	5.84e-05
2182	7.3e-05
2194	8.03e-05
2206	7.3e-05
2218	5.84e-05
2230	5.84e-05
2242	5.84e-05
2254	5.84e-05
2266	7.3e-05
2278	8.03e-05
2290	8.76e-05
2302	0.0001022
2314	0.0001022
2326	0.0001095
2338	0.0001387
2350	0.0001168
2362	9.49e-05
2374	8.76e-05
2386	8.76e-05
2398	9.49e-05
2410	9.49e-05
2422	0.0001022
2434	8.03e-05
2446	0.0001022
2458	9.49e-05
2470	8.76e-05
2482	0.0001022
2494	0.0001095
2506	0.0001241
2518	0.0001679
2530	0.0001971
2542	0.0002044
2554	0.000219
2566	0.0002701
2578	0.0003066
2590	0.0003796
2602	0.0004161
2614	0.0004234
2626	0.0004891
2638	0.0005183
2650	0.0005767
2662	0.0006278
2674	0.0007008
2686	0.00073
2698	0.0007081
2710	0.0006716
2722	0.00073
2734	0.000803
2746	0.0008833
2758	0.0009782
2770	0.0011023
2782	0.0013578
2794	0.001752
2806	0.0023068
2818	0.0031828
2830	0.004745
2842	0.008687
2854	0.0201042
2866	0.0289299
2878	0.0246375
2890	0.020805
2902	0.0247324
2914	0.0384126
2926	0.0659774
2938	0.0679338
2950	0.0490487
2962	0.0416611
2974	0.02482
2986	0.0115559
2998	0.0063072
3010	0.0039274
3022	0.002628
3034	0.0019053
3046	0.00146
3058	0.0011534
3070	0.0009417
3082	0.0007738
3094	0.0006862
3106	0.0005694
3118	0.0005183
3130	0.0004672
3142	0.0004015
3154	0.0003942
3166	0.0003358
3178	0.000292
3190	0.0002701
3202	0.0002409
3214	0.0002044
3226	0.0001752
3238	0.0001314
3250	0.0001095
3262	0.0001314
3274	0.0001241
3286	0.0001241
3298	0.0001168
3310	0.0001022
3322	0.0001022
3334	0.0001241
3346	0.0001168
3358	8.03e-05
3370	0.0001095
3382	6.57e-05
3394	9.49e-05
3406	8.03e-05
3418	0.0001314
3430	0.0001241
3442	7.3e-05
3454	5.11e-05
3466	6.57e-05
3478	7.3e-05
3490	8.03e-05
3502	8.03e-05
3514	8.03e-05
3526	5.84e-05
3538	7.3e-05
3550	7.3e-05
3562	8.76e-05
3574	8.76e-05
3586	0.0001095
3598	0.0001095
3610	0.0001387
3622	0.0001168
3634	0.000146
3646	0.0001606
3658	0.0001752
3670	0.0001752
3682	0.0001898
3694	0.0001825
3706	0.0001752
3718	0.0001898
3730	0.0001825
3742	0.0001971
3754	0.0001606
3766	0.0001971
3778	0.0002044
3790	0.000219
3802	0.0002263
3814	0.0001971
3826	0.0002409
3838	0.0002409
