Infrared Spectrum: Silane, chloroethylmethylphenyl-
Formula: C9 H13 Cl Si
CAS: 17964-77-1
State: SOLUTION (10% CCl4 FOR 3800-1300, 2% CS2 FOR 1300-650, AND 10% CCl4 FOR 650-260) VS SOLVENT
Class: COBLENTZ III
Instrument: PERKIN-ELMER 521 (GRATING)
Instrument parameters: FILTERS AT 3150, 2500, 2000, 1150, 700, 410. GRATING CHANGES: 2000, 630
Path length: 0.012 CM, 0.011 CM, AND 0.011 CM
Resolution: 2
Origin: DOW CORNING CORP.
1/CM	TRANSMITTANCE
260	0.7483
269	0.7475
278	0.7476
287	0.7637
296	0.8177
305	0.8239
314	0.8266
323	0.8338
332	0.8255
341	0.8013
350	0.7956
359	0.7533
368	0.6123
377	0.6794
386	0.819
395	0.8122
404	0.735
413	0.4947
422	0.804
431	0.8154
440	0.804
449	0.7545
458	0.6205
467	0.4842
476	0.5597
485	0.1838
494	0.0858
503	0.3205
512	0.2786
521	0.6617
530	0.7653
539	0.7844
548	0.797
557	0.8004
566	0.8046
575	0.8006
584	0.7898
593	0.7782
602	0.7534
611	0.7301
620	0.7358
629	0.6398
638	0.2309
647	0.6568
656	0.8288
665	0.8141
674	0.828
683	0.8026
692	0.4629
701	0.7574
710	0.78
719	0.6718
728	0.453
737	0.7072
746	0.6875
755	0.6141
764	0.7547
773	0.6026
782	0.5046
791	0.5389
800	0.5
809	0.729
818	0.7568
827	0.7866
836	0.8328
845	0.8519
854	0.8604
863	0.8567
872	0.8502
881	0.8596
890	0.8672
899	0.8688
908	0.869
917	0.8682
926	0.8663
935	0.8574
944	0.8189
953	0.7881
962	0.8358
971	0.8488
980	0.847
989	0.8223
998	0.7785
1007	0.763
1016	0.8177
1025	0.8356
1034	0.8363
1043	0.8315
1052	0.825
1061	0.821
1070	0.828
1079	0.8288
1088	0.8217
1097	0.7678
1106	0.553
1115	0.663
1124	0.8422
1133	0.8475
1142	0.85
1151	0.8506
1160	0.8534
1169	0.8528
1178	0.8476
1187	0.8486
1196	0.851
1205	0.8404
1214	0.8207
1223	0.8094
1232	0.8137
1241	0.7668
1250	0.6699
1259	0.8072
1268	0.8461
1277	0.8494
1286	0.8373
1295	0.8296
1304	0.7597
1313	0.816
1322	0.809
1331	0.8
1340	0.8468
1349	0.8353
1358	0.8291
1367	0.7357
1376	0.759
1385	0.7359
1394	0.6419
1403	0.5227
1412	0.6536
1421	0.1117
1430	0.6903
1439	0.7519
1448	0.5923
1457	0.6181
1466	0.7782
1475	0.7819
1484	0.8221
1493	0.8595
1502	0.8632
1511	0.8648
1520	0.8663
1529	0.8631
1538	0.8571
1547	0.8624
1556	0.8597
1565	0.8531
1574	0.8209
1583	0.6691
1592	0.8615
1601	0.8567
1610	0.863
1619	0.8786
1628	0.871
1637	0.8519
1646	0.8563
1655	0.8749
1664	0.8811
1673	0.8821
1682	0.8813
1691	0.8805
1700	0.8842
1709	0.8861
1718	0.8869
1727	0.8874
1736	0.8857
1745	0.8786
1754	0.8645
1763	0.877
1772	0.8883
1781	0.8926
1790	0.888
1799	0.8723
1808	0.8231
1817	0.8646
1826	0.8697
1835	0.8894
1844	0.8888
1853	0.8817
1862	0.8698
1871	0.8452
1880	0.8338
1889	0.8416
1898	0.8457
1907	0.8897
1916	0.8909
1925	0.8877
1934	0.8806
1943	0.8468
1952	0.8267
1961	0.8593
1970	0.8656
1979	0.8825
1988	0.881
1997	0.8757
2006	0.9044
2015	0.9085
2024	0.911
2033	0.9125
2042	0.9138
2051	0.9148
2060	0.915
2069	0.9152
2078	0.9155
2087	0.9159
2096	0.9164
2105	0.9163
2114	0.9155
2123	0.9138
2132	0.9121
2141	0.9101
2150	0.9085
2159	0.9072
2168	0.906
2177	0.9048
2186	0.9037
2195	0.9031
2204	0.9031
2213	0.9014
2222	0.9009
2231	0.9039
2240	0.9067
2249	0.9089
2258	0.9095
2267	0.9085
2276	0.9074
2285	0.906
2294	0.9044
2303	0.9032
2312	0.9029
2321	0.9035
2330	0.9045
2339	0.9053
2348	0.906
2357	0.9063
2366	0.9066
2375	0.907
2384	0.9072
2393	0.9065
2402	0.9061
2411	0.9058
2420	0.9081
2429	0.9088
2438	0.9081
2447	0.9074
2456	0.9069
2465	0.9062
2474	0.9056
2483	0.9049
2492	0.9044
2501	0.9041
2510	0.904
2519	0.9039
2528	0.904
2537	0.9041
2546	0.9041
2555	0.9041
2564	0.904
2573	0.9039
2582	0.9033
2591	0.9024
2600	0.9015
2609	0.9001
2618	0.9053
2627	0.906
2636	0.9045
2645	0.9036
2654	0.9033
2663	0.9015
2672	0.8945
2681	0.8924
2690	0.891
2699	0.8926
2708	0.8963
2717	0.8931
2726	0.8866
2735	0.8851
2744	0.8978
2753	0.8962
2762	0.8896
2771	0.8715
2780	0.8587
2789	0.8545
2798	0.8568
2807	0.8573
2816	0.8534
2825	0.8461
2834	0.8445
2843	0.8435
2852	0.8253
2861	0.7784
2870	0.5627
2879	0.3634
2888	0.5941
2897	0.6063
2906	0.5681
2915	0.5119
2924	0.6009
2933	0.5353
2942	0.4555
2951	0.476
2960	0.3262
2969	0.1897
2978	0.3949
2987	0.7109
2996	0.6947
3005	0.6266
3014	0.6687
3023	0.6642
3032	0.7026
3041	0.7086
3050	0.6054
3059	0.5557
3068	0.592
3077	0.4399
3086	0.7491
3095	0.7816
3104	0.8559
3113	0.8707
3122	0.8759
3131	0.8587
3140	0.8479
3149	0.8847
3158	0.8945
3167	0.8983
3176	0.9
3185	0.8967
3194	0.9089
3203	0.9131
3212	0.9156
3221	0.9166
3230	0.9173
3239	0.918
3248	0.9185
3257	0.9185
3266	0.917
3275	0.9175
3284	0.917
3293	0.9159
3302	0.9148
3311	0.9138
3320	0.9131
3329	0.9136
3338	0.9144
3347	0.9155
3356	0.9167
3365	0.9122
3374	0.9095
3383	0.9093
3392	0.9097
3401	0.9107
3410	0.912
3419	0.9125
3428	0.9127
3437	0.9128
3446	0.9129
3455	0.9129
3464	0.913
3473	0.9131
3482	0.9137
3491	0.9142
3500	0.9148
3509	0.9153
3518	0.9156
3527	0.9157
3536	0.9157
3545	0.9158
3554	0.9159
3563	0.9161
3572	0.9164
3581	0.917
3590	0.916
3599	0.9147
3608	0.9127
3617	0.9104
3626	0.9083
3635	0.9066
3644	0.9056
3653	0.9052
3662	0.9053
3671	0.9015
3680	0.8928
3689	0.8905
3698	0.8921
3707	0.8997
3716	0.8971
3725	0.9019
3734	0.9012
3743	0.8985
3752	0.8971
3761	0.9043
3770	0.9105
3779	0.9143
3788	0.9174
3797	0.9196
3806	0.9201
3815	0.919
