Infrared Spectrum: Triallylethoxysilane
Formula: C11 H20 O Si
CAS: 17962-20-8
State: LIQUID (NEAT)
Class: COBLENTZ III
Instrument: DOW KBr FOREPRISM-GRATING
Instrument parameters: BLAZED AT 3.5, 12.0, 20.0 MICRON AND CHANGED AT 5.0, 7.5, 14.9 MICRON
Sampling: TRANSMISSION
Resolution: 2
Origin: DOW CHEMICAL COMPANY
1/CM	TRANSMITTANCE
455	0.6354
464	0.6462
473	0.6618
482	0.6826
491	0.7136
500	0.7369
509	0.7453
518	0.7469
527	0.7434
536	0.7349
545	0.7388
554	0.7451
563	0.7399
572	0.7271
581	0.6864
590	0.5753
599	0.3812
608	0.3832
617	0.5467
626	0.7011
635	0.7393
644	0.7575
653	0.7636
662	0.7551
671	0.7192
680	0.7084
689	0.7084
698	0.6978
707	0.6761
716	0.6601
725	0.6731
734	0.6771
743	0.6761
752	0.6343
761	0.5717
770	0.4495
779	0.3445
788	0.2727
797	0.2737
806	0.3209
815	0.3829
824	0.6059
833	0.7008
842	0.7419
851	0.7554
860	0.7572
869	0.7445
878	0.6855
887	0.5331
896	0.1518
905	0.3953
914	0.5878
923	0.466
932	0.343
941	0.4292
950	0.3955
959	0.513
968	0.5719
977	0.6359
986	0.4918
995	0.4953
1004	0.6436
1013	0.5989
1022	0.4871
1031	0.3718
1040	0.3284
1049	0.3053
1058	0.217
1067	0.1256
1076	0.0723
1085	0.0677
1094	0.1139
1103	0.0628
1112	0.0846
1121	0.186
1130	0.2965
1139	0.3444
1148	0.2935
1157	0.1975
1166	0.1736
1175	0.3337
1184	0.4515
1193	0.4505
1202	0.5457
1211	0.6683
1220	0.7168
1229	0.7408
1238	0.7448
1247	0.7501
1256	0.7672
1265	0.7758
1274	0.7776
1283	0.7684
1292	0.7278
1301	0.736
1310	0.7851
1319	0.7922
1328	0.7968
1337	0.8047
1346	0.7965
1355	0.7838
1364	0.753
1373	0.7319
1382	0.6628
1391	0.4227
1400	0.6152
1409	0.7241
1418	0.6052
1427	0.671
1436	0.7304
1445	0.7021
1454	0.7468
1463	0.7757
1472	0.7987
1481	0.7743
1490	0.799
1499	0.8147
1508	0.7878
1517	0.8141
1526	0.8318
1535	0.8392
1544	0.8435
1553	0.8433
1562	0.8421
1571	0.8387
1580	0.8339
1589	0.8262
1598	0.8115
1607	0.7926
1616	0.7695
1625	0.6233
1634	0.2857
1643	0.7499
1652	0.81
1661	0.8251
1670	0.8297
1679	0.831
1688	0.8312
1697	0.824
1706	0.8328
1715	0.8296
1724	0.8306
1733	0.8338
1742	0.8397
1751	0.841
1760	0.8395
1769	0.8346
1778	0.8228
1787	0.8056
1796	0.7925
1805	0.7975
1814	0.8168
1823	0.8247
1832	0.8284
1841	0.8302
1850	0.8298
1859	0.829
1868	0.8283
1877	0.8283
1886	0.8298
1895	0.8321
1904	0.8352
1913	0.8384
1922	0.8405
1931	0.8417
1940	0.8427
1949	0.8412
1958	0.8387
1967	0.8348
1976	0.8378
1985	0.843
1994	0.8467
2003	0.8496
2012	0.8498
2021	0.8496
2030	0.8496
2039	0.8496
2048	0.8495
2057	0.8491
2066	0.8482
2075	0.8471
2084	0.8462
2093	0.8459
2102	0.8484
2111	0.847
2120	0.8455
2129	0.8467
2138	0.8483
2147	0.8482
2156	0.8477
2165	0.8462
2174	0.845
2183	0.8441
2192	0.8438
2201	0.8452
2210	0.849
2219	0.8475
2228	0.848
2237	0.8484
2246	0.849
2255	0.8494
2264	0.8494
2273	0.8492
2282	0.8492
2291	0.8493
2300	0.8489
2309	0.846
2318	0.8482
2327	0.8518
2336	0.8557
2345	0.8539
2354	0.8527
2363	0.8523
2372	0.8518
2381	0.8516
2390	0.8513
2399	0.8509
2408	0.8502
2417	0.8493
2426	0.8484
2435	0.8471
2444	0.8458
2453	0.845
2462	0.848
2471	0.8491
2480	0.8487
2489	0.8487
2498	0.8486
2507	0.8478
2516	0.8471
2525	0.8458
2534	0.8443
2543	0.8417
2552	0.8384
2561	0.8375
2570	0.8396
2579	0.8418
2588	0.8418
2597	0.8402
2606	0.8386
2615	0.8371
2624	0.8361
2633	0.8353
2642	0.835
2651	0.8346
2660	0.8342
2669	0.8338
2678	0.833
2687	0.8318
2696	0.8305
2705	0.8285
2714	0.8209
2723	0.8122
2732	0.7985
2741	0.7975
2750	0.8065
2759	0.8035
2768	0.7918
2777	0.7968
2786	0.8028
2795	0.7994
2804	0.7945
2813	0.7881
2822	0.7792
2831	0.7614
2840	0.7376
2849	0.7088
2858	0.661
2867	0.6028
2876	0.4935
2885	0.407
2894	0.4314
2903	0.4648
2912	0.4464
2921	0.4224
2930	0.4284
2939	0.5147
2948	0.6014
2957	0.5948
2966	0.5071
2975	0.222
2984	0.3437
2993	0.5242
3002	0.586
3011	0.6964
3020	0.7317
3029	0.7483
3038	0.761
3047	0.761
3056	0.7347
3065	0.6705
3074	0.6571
3083	0.511
3092	0.6834
3101	0.7869
3110	0.8041
3119	0.8089
3128	0.8117
3137	0.8122
3146	0.8125
3155	0.8122
3164	0.8126
3173	0.8131
3182	0.8136
3191	0.8138
3200	0.8135
3209	0.813
3218	0.8124
3227	0.8117
3236	0.8115
3245	0.8111
3254	0.8108
3263	0.8105
3272	0.8101
3281	0.8098
3290	0.8085
3299	0.8065
3308	0.8046
3317	0.8025
3326	0.8004
3335	0.798
3344	0.7957
3353	0.7933
3362	0.7914
3371	0.7901
3380	0.7889
3389	0.7874
3398	0.7858
3407	0.7849
3416	0.7846
3425	0.7844
3434	0.785
3443	0.7855
3452	0.7861
3461	0.7868
3470	0.788
3479	0.7896
3488	0.7912
3497	0.7928
3506	0.7945
3515	0.7961
3524	0.7978
3533	0.7994
3542	0.8008
3551	0.8024
3560	0.8039
3569	0.8053
3578	0.8064
3587	0.8074
3596	0.8081
3605	0.8086
3614	0.8091
3623	0.8096
3632	0.81
3641	0.8103
3650	0.8107
3659	0.8112
3668	0.8125
3677	0.8137
3686	0.815
3695	0.8165
3704	0.8176
3713	0.8178
3722	0.818
3731	0.818
3740	0.8178
3749	0.8178
3758	0.8186
3767	0.8196
3776	0.8204
3785	0.8201
3794	0.8199
