Infrared Spectrum: N-METHYL-o-CHLOROBENZYLIDENIMINE
Formula: C8 H8 Cl N
CAS: 17972-08-6
Class: COBLENTZ
Instrument: PERKIN-ELMER
Sampling: TRANSMISSION
Path length: CAPILLARY
Resolution: 4
Origin: ABBOTT LABORATORIES - WASHBURN
MICROMETERS	TRANSMITTANCE
2.063	0.893
2.09607	0.898
2.12914	0.895
2.16221	0.9
2.19528	0.8948
2.22835	0.8921
2.26142	0.895
2.29449	0.893
2.32756	0.8898
2.36063	0.893
2.3937	0.893
2.42677	0.8921
2.45984	0.893
2.49291	0.892
2.52598	0.892
2.55905	0.893
2.59212	0.8968
2.62519	0.8936
2.65826	0.895
2.69133	0.898
2.7244	0.8952
2.75747	0.888
2.79054	0.885
2.82361	0.883
2.85668	0.8801
2.88975	0.877
2.92282	0.875
2.95589	0.878
2.98896	0.875
3.02203	0.873
3.0551	0.862
3.08817	0.8747
3.12124	0.8721
3.15431	0.8674
3.18738	0.857
3.22045	0.8107
3.25352	0.7989
3.28659	0.8143
3.31966	0.82
3.35273	0.7031
3.3858	0.6298
3.41887	0.6066
3.45194	0.5925
3.48501	0.6959
3.51808	0.7759
3.55115	0.8475
3.58422	0.7916
3.61729	0.8222
3.65036	0.8727
3.68343	0.8802
3.7165	0.89
3.74957	0.8918
3.78264	0.892
3.81571	0.892
3.84878	0.892
3.88185	0.893
3.91492	0.893
3.94799	0.897
3.98106	0.897
4.01413	0.897
4.0472	0.892
4.08027	0.898
4.11335	0.9002
4.14642	0.898
4.17949	0.897
4.21256	0.8952
4.24563	0.893
4.2787	0.893
4.31177	0.898
4.34484	0.902
4.37791	0.898
4.41098	0.898
4.44405	0.898
4.47712	0.897
4.51019	0.898
4.54326	0.897
4.57633	0.897
4.6094	0.8998
4.64247	0.9
4.67554	0.898
4.70861	0.892
4.74168	0.8979
4.77475	0.8999
4.80782	0.8998
4.84089	0.9
4.87396	0.898
4.90703	0.9
4.9401	0.898
4.97317	0.897
5.00624	0.892
5.03931	0.89
5.07238	0.8826
5.10545	0.883
5.13852	0.8787
5.17159	0.8788
5.20466	0.872
5.23773	0.8836
5.2708	0.888
5.30387	0.883
5.33694	0.8738
5.37001	0.887
5.40308	0.89
5.43615	0.883
5.46922	0.878
5.50229	0.8793
5.53536	0.8862
5.56843	0.892
5.6015	0.8902
5.63457	0.8938
5.66764	0.8927
5.70071	0.883
5.73378	0.8812
5.76685	0.87
5.79992	0.8566
5.83299	0.852
5.86606	0.8274
5.89913	0.8362
5.9322	0.842
5.96527	0.8378
5.99834	0.7823
6.03141	0.5864
6.06448	0.237
6.09755	0.5576
6.13062	0.689
6.16369	0.7716
6.19676	0.804
6.22983	0.7832
6.2629	0.5485
6.29597	0.7838
6.32904	0.8143
6.36211	0.735
6.39518	0.7952
6.42825	0.8302
6.46132	0.8393
6.49439	0.8499
6.52746	0.855
6.56053	0.8487
6.5936	0.852
6.62667	0.839
6.65974	0.8391
6.69281	0.8341
6.72588	0.8104
6.75895	0.7346
6.79202	0.4601
6.82509	0.5574
6.85816	0.5687
6.89123	0.5183
6.9243	0.3867
6.95737	0.4081
6.99044	0.4189
7.02351	0.6583
7.05658	0.7592
7.08965	0.7768
7.12272	0.6969
7.15579	0.6301
7.18886	0.7801
7.22193	0.809
7.255	0.7955
7.28807	0.6994
7.32114	0.525
7.35421	0.6649
7.38728	0.8013
7.42035	0.8371
7.45342	0.8489
7.48649	0.8618
7.51956	0.8587
7.55263	0.857
7.5857	0.859
7.61877	0.857
7.65184	0.857
7.68491	0.8495
7.71798	0.8291
7.75105	0.7802
7.78412	0.6869
7.81719	0.6527
7.85026	0.5284
7.88333	0.587
7.9164	0.7758
7.94947	0.8232
7.98254	0.8426
8.01561	0.8534
8.04868	0.855
8.08175	0.8579
8.11482	0.859
8.1479	0.857
8.18097	0.8357
8.21404	0.7742
8.24711	0.7564
8.28018	0.7712
8.31325	0.7926
8.34632	0.8118
8.37939	0.8285
8.41246	0.8396
8.44553	0.842
8.4786	0.838
8.51167	0.832
8.54474	0.8296
8.57781	0.821
8.61088	0.7905
8.64395	0.7509
8.67702	0.7739
8.71009	0.7939
8.74316	0.797
8.77623	0.807
8.8093	0.8075
8.84237	0.7979
8.87544	0.7511
8.90851	0.6595
8.94158	0.6481
8.97465	0.7624
9.00772	0.7962
9.04079	0.7937
9.07386	0.7921
9.10693	0.8091
9.14	0.817
9.17307	0.824
9.20614	0.8204
9.23921	0.824
9.27228	0.8195
9.30535	0.8145
9.33842	0.7945
9.37149	0.7485
9.40456	0.7076
9.43763	0.6808
9.4707	0.5882
9.50377	0.4335
9.53684	0.4947
9.56991	0.6179
9.60298	0.695
9.63605	0.7274
9.66912	0.6948
9.70219	0.5524
9.73526	0.5879
9.76833	0.7227
9.8014	0.7658
9.83447	0.7832
9.86754	0.789
9.90061	0.7435
9.93368	0.6227
9.96675	0.4197
9.99982	0.5099
10.0329	0.6597
10.066	0.7725
10.099	0.8075
10.1321	0.8232
10.1652	0.8295
10.1982	0.837
10.2313	0.84
10.2644	0.842
10.2975	0.845
10.3305	0.8346
10.3636	0.7815
10.3967	0.7005
10.4297	0.64
10.4628	0.6583
10.4959	0.7587
10.5289	0.8081
10.562	0.83
10.5951	0.8271
10.6282	0.7996
10.6612	0.767
10.6943	0.7896
10.7274	0.8327
10.7604	0.859
10.7935	0.864
10.8266	0.8698
10.8596	0.872
10.8927	0.872
10.9258	0.8668
10.9589	0.872
10.9919	0.8698
11.025	0.873
11.0581	0.872
11.0911	0.8735
11.1242	0.8799
11.1573	0.875
11.1903	0.875
11.2234	0.877
11.2565	0.878
11.2896	0.88
11.3226	0.875
11.3557	0.8712
11.3888	0.872
11.4218	0.8661
11.4549	0.859
11.488	0.8526
11.521	0.8348
11.5541	0.8248
11.5872	0.812
11.6203	0.7827
11.6533	0.7471
11.6864	0.7332
11.7195	0.7693
11.7525	0.7975
11.7856	0.8206
11.8187	0.8296
11.8517	0.835
11.8848	0.8376
11.9179	0.8392
11.951	0.8403
11.984	0.844
12.0171	0.837
12.0502	0.839
12.0832	0.8305
12.1163	0.83
12.1494	0.8332
12.1824	0.835
12.2155	0.839
12.2486	0.8408
12.2817	0.8413
12.3147	0.84
12.3478	0.8448
12.3809	0.8434
12.4139	0.835
12.447	0.8352
12.4801	0.8317
12.5131	0.83
12.5462	0.834
12.5793	0.8294
12.6124	0.82
12.6454	0.8195
12.6785	0.82
12.7116	0.8163
12.7446	0.8137
12.7777	0.802
12.8108	0.7909
12.8438	0.7871
12.8769	0.7644
12.91	0.7382
12.9431	0.7041
12.9761	0.6568
13.0092	0.5883
13.0423	0.5181
13.0753	0.4114
13.1084	0.3176
13.1415	0.2394
13.1745	0.1641
13.2076	0.1399
13.2407	0.1289
13.2738	0.129
13.3068	0.1824
13.3399	0.291
13.373	0.4175
13.406	0.5151
13.4391	0.5921
13.4722	0.6352
13.5052	0.6737
13.5383	0.6984
13.5714	0.7133
13.6045	0.7216
13.6375	0.733
13.6706	0.741
13.7037	0.742
13.7367	0.746
13.7698	0.7463
13.8029	0.746
13.8359	0.73
13.869	0.7109
13.9021	0.6937
13.9352	0.6558
13.9682	0.5974
14.0013	0.5621
14.0344	0.5234
14.0674	0.4801
14.1005	0.4521
14.1336	0.468
14.1666	0.5191
14.1997	0.5781
14.2328	0.6368
14.2659	0.6732
14.2989	0.691
14.332	0.7133
14.3651	0.7166
14.3981	0.728
14.4312	0.731
14.4643	0.733
14.4974	0.7329
14.5304	0.731
14.5635	0.7328
14.5966	0.728
14.6296	0.726
14.6627	0.7269
14.6958	0.724
14.7288	0.721
14.7619	0.7147
14.795	0.723
14.8281	0.711
14.8611	0.7077
14.8942	0.7029
14.9273	0.7043
14.9603	0.704
14.9934	0.7083
15.0265	0.6995
