Infrared Spectrum: Benzylidenimine, 2,4-dichloro-N-methyl-,
Formula: C8 H7 Cl2 N
CAS: 17972-00-8
State: SOLUTION (7% CHCl3 FOR 2.5-15 MICRON) VS SOLVENT
Class: COBLENTZ
Instrument: PERKIN-ELMER 21 (GRATING)
Instrument parameters: FILTER AT ABOUT 10 MICRONS
Path length: 0.01 CM
Resolution: 2
Origin: ABBOTT LABORATORIES
1/CM	TRANSMITTANCE
647	0.7648
656	0.7256
665	0.7914
674	0.7853
683	0.7778
692	0.7756
701	0.7784
710	0.7786
719	0.78
728	0.7778
737	0.7791
746	0.7717
755	0.7666
764	0.7693
773	0.76
782	0.746
791	0.74
800	0.7422
809	0.6934
818	0.3912
827	0.65
836	0.7777
845	0.7434
854	0.4556
863	0.3081
872	0.7415
881	0.8118
890	0.8266
899	0.8202
908	0.8187
917	0.8089
926	0.7808
935	0.6792
944	0.8218
953	0.7988
962	0.7807
971	0.8365
980	0.819
989	0.7227
998	0.6895
1007	0.815
1016	0.8336
1025	0.8249
1034	0.7599
1043	0.4205
1052	0.7777
1061	0.7833
1070	0.8014
1079	0.7465
1088	0.4628
1097	0.5548
1106	0.7827
1115	0.7632
1124	0.6361
1133	0.7775
1142	0.8392
1151	0.8386
1160	0.8347
1169	0.816
1178	0.785
1187	0.7222
1196	0.7127
1205	0.7132
1214	0.7147
1223	0.7152
1232	0.7142
1241	0.708
1250	0.6776
1259	0.7223
1268	0.7384
1277	0.8141
1286	0.8316
1295	0.8312
1304	0.8227
1313	0.8118
1322	0.8126
1331	0.8134
1340	0.788
1349	0.6715
1358	0.5433
1367	0.3916
1376	0.5761
1385	0.6679
1394	0.6994
1403	0.7606
1412	0.715
1421	0.6848
1430	0.6533
1439	0.5672
1448	0.5302
1457	0.2553
1466	0.678
1475	0.8137
1484	0.8207
1493	0.8197
1502	0.8072
1511	0.7906
1520	0.7956
1529	0.7925
1538	0.7253
1547	0.6647
1556	0.7128
1565	0.5312
1574	0.2815
1583	0.3677
1592	0.7313
1601	0.7689
1610	0.7555
1619	0.5716
1628	0.3758
1637	0.4549
1646	0.7512
1655	0.806
1664	0.8329
1673	0.8432
1682	0.8486
1691	0.851
1700	0.8501
1709	0.8454
1718	0.8453
1727	0.8542
1736	0.859
1745	0.8597
1754	0.8608
1763	0.862
1772	0.8632
1781	0.8675
1790	0.872
1799	0.8728
1808	0.8732
1817	0.8736
1826	0.8735
1835	0.8727
1844	0.8715
1853	0.8696
1862	0.8675
1871	0.8653
1880	0.8631
1889	0.8617
1898	0.8669
1907	0.8694
1916	0.8718
1925	0.8743
1934	0.8767
1943	0.8773
1952	0.8743
1961	0.8702
1970	0.87
1979	0.8707
1988	0.8725
1997	0.875
2006	0.8771
2015	0.8784
2024	0.8785
2033	0.8786
2042	0.8789
2051	0.8793
2060	0.8797
2069	0.88
2078	0.8809
2087	0.8818
2096	0.8827
2105	0.8836
2114	0.8845
2123	0.8857
2132	0.8869
2141	0.8879
2150	0.8884
2159	0.8891
2168	0.8898
2177	0.8905
2186	0.8909
2195	0.8913
2204	0.8917
2213	0.8923
2222	0.8931
2231	0.8938
2240	0.894
2249	0.8942
2258	0.8942
2267	0.8939
2276	0.8936
2285	0.8934
2294	0.893
2303	0.8929
2312	0.8928
2321	0.8927
2330	0.8926
2339	0.8923
2348	0.8918
2357	0.8913
2366	0.8908
2375	0.8902
2384	0.8894
2393	0.8886
2402	0.8878
2411	0.8871
2420	0.8869
2429	0.8867
2438	0.8864
2447	0.8869
2456	0.8877
2465	0.8885
2474	0.89
2483	0.8917
2492	0.8935
2501	0.8953
2510	0.897
2519	0.8987
2528	0.9002
2537	0.9018
2546	0.9033
2555	0.9045
2564	0.9049
2573	0.9054
2582	0.905
2591	0.9045
2600	0.9041
2609	0.9033
2618	0.9025
2627	0.9023
2636	0.9024
2645	0.9024
2654	0.9029
2663	0.9033
2672	0.9034
2681	0.9012
2690	0.8969
2699	0.8917
2708	0.8861
2717	0.8783
2726	0.869
2735	0.8586
2744	0.8461
2753	0.8404
2762	0.8479
2771	0.8615
2780	0.8667
2789	0.8576
2798	0.8305
2807	0.8037
2816	0.7769
2825	0.7504
2834	0.724
2843	0.6978
2852	0.6718
2861	0.6459
2870	0.622
2879	0.6306
2888	0.6536
2897	0.6763
2906	0.6818
2915	0.6628
2924	0.6376
2933	0.6125
2942	0.6057
2951	0.6096
2960	0.6388
2969	0.6787
2978	0.7277
2987	0.7764
2996	0.8248
3005	0.8499
3014	0.8556
3023	0.8561
3032	0.8558
3041	0.8547
3050	0.8535
3059	0.8525
3068	0.8533
3077	0.8602
3086	0.8692
3095	0.8728
3104	0.8748
3113	0.876
3122	0.8774
3131	0.8778
3140	0.878
3149	0.8777
3158	0.8769
3167	0.8743
3176	0.8715
3185	0.8686
3194	0.866
3203	0.8635
3212	0.8613
3221	0.8597
3230	0.858
3239	0.8566
3248	0.8559
3257	0.8555
3266	0.8554
3275	0.8561
3284	0.8569
3293	0.8578
3302	0.8587
3311	0.8595
3320	0.8604
3329	0.8614
3338	0.8623
3347	0.8633
3356	0.8643
3365	0.8653
3374	0.8664
3383	0.8674
3392	0.8683
3401	0.8697
3410	0.8711
3419	0.8725
3428	0.8739
3437	0.8753
3446	0.8767
3455	0.8781
3464	0.8796
3473	0.881
3482	0.8824
3491	0.8838
3500	0.8852
3509	0.8866
3518	0.8874
3527	0.8879
3536	0.8882
3545	0.8886
3554	0.8891
3563	0.8892
3572	0.8893
3581	0.8893
3590	0.8893
3599	0.8893
3608	0.8894
3617	0.8894
3626	0.8894
3635	0.8895
3644	0.8895
3653	0.8895
3662	0.8896
3671	0.8896
3680	0.8896
3689	0.8896
3698	0.8897
3707	0.8897
3716	0.8897
3725	0.8897
3734	0.8898
3743	0.8898
3752	0.8898
3761	0.8898
3770	0.8898
3779	0.8898
3788	0.8898
3797	0.8898
3806	0.8898
3815	0.8898
3824	0.8898
3833	0.8898
3842	0.8896
3851	0.8894
3860	0.8892
3869	0.889
3878	0.8887
3887	0.8885
3896	0.8882
3905	0.8882
3914	0.8881
3923	0.888
3932	0.8879
3941	0.888
3950	0.8882
3959	0.8884
3968	0.8885
3977	0.8887
3986	0.8889
3995	0.8891
