Infrared Spectrum: Benzylidenimine, p-isopropyl-N-methyl-,
Formula: C11 H15 N
CAS: 17972-10-0
State: LIQUID (NEAT)
Class: COBLENTZ III
Instrument: PERKIN-ELMER 21 (GRATING)
Instrument parameters: FILTER AT ABOUT 10 MICRONS
Path length: CAPILLARY
Resolution: 2
Origin: ABBOTT LABORATORIES
1/CM	TRANSMITTANCE
647	0.6251
656	0.6611
665	0.6828
674	0.7034
683	0.7167
692	0.7002
701	0.7111
710	0.7422
719	0.7319
728	0.6918
737	0.6821
746	0.678
755	0.5106
764	0.6527
773	0.7688
782	0.769
791	0.748
800	0.743
809	0.7061
818	0.3722
827	0.1599
836	0.391
845	0.621
854	0.5663
863	0.6906
872	0.7735
881	0.7542
890	0.7752
899	0.7916
908	0.7768
917	0.7468
926	0.71
935	0.5939
944	0.7091
953	0.5062
962	0.6177
971	0.7392
980	0.7177
989	0.5031
998	0.2487
1007	0.5526
1016	0.6714
1025	0.7226
1034	0.7134
1043	0.4969
1052	0.5956
1061	0.7541
1070	0.7593
1079	0.7365
1088	0.6433
1097	0.6512
1106	0.6705
1115	0.6606
1124	0.733
1133	0.7408
1142	0.7883
1151	0.7779
1160	0.7226
1169	0.5443
1178	0.7774
1187	0.8007
1196	0.7783
1205	0.692
1214	0.6302
1223	0.7324
1232	0.7638
1241	0.7771
1250	0.7712
1259	0.7506
1268	0.6908
1277	0.5758
1286	0.6264
1295	0.3869
1304	0.7273
1313	0.7267
1322	0.6378
1331	0.6367
1340	0.6646
1349	0.4994
1358	0.4413
1367	0.5182
1376	0.494
1385	0.4493
1394	0.4074
1403	0.5064
1412	0.4424
1421	0.5129
1430	0.477
1439	0.3484
1448	0.2379
1457	0.3819
1466	0.5902
1475	0.619
1484	0.6928
1493	0.6183
1502	0.5369
1511	0.7279
1520	0.7774
1529	0.7904
1538	0.7839
1547	0.7641
1556	0.7076
1565	0.5387
1574	0.7248
1583	0.6526
1592	0.4979
1601	0.345
1610	0.5466
1619	0.6605
1628	0.5828
1637	0.2805
1646	0.1759
1655	0.5195
1664	0.7223
1673	0.7514
1682	0.7529
1691	0.7523
1700	0.7894
1709	0.8048
1718	0.8146
1727	0.829
1736	0.8331
1745	0.8356
1754	0.8367
1763	0.8355
1772	0.8315
1781	0.8249
1790	0.8166
1799	0.8202
1808	0.8358
1817	0.8414
1826	0.841
1835	0.8405
1844	0.8372
1853	0.8323
1862	0.8293
1871	0.8277
1880	0.8225
1889	0.807
1898	0.8027
1907	0.8154
1916	0.8185
1925	0.82
1934	0.8308
1943	0.8388
1952	0.8408
1961	0.8404
1970	0.837
1979	0.833
1988	0.8366
1997	0.8514
2006	0.8517
2015	0.852
2024	0.8524
2033	0.8528
2042	0.8527
2051	0.8523
2060	0.852
2069	0.8517
2078	0.8513
2087	0.8494
2096	0.847
2105	0.8465
2114	0.8512
2123	0.8576
2132	0.864
2141	0.8663
2150	0.867
2159	0.8677
2168	0.8682
2177	0.8685
2186	0.8688
2195	0.8687
2204	0.8685
2213	0.8682
2222	0.868
2231	0.8684
2240	0.8688
2249	0.8692
2258	0.8698
2267	0.8721
2276	0.8747
2285	0.8776
2294	0.8804
2303	0.8827
2312	0.8844
2321	0.8858
2330	0.8861
2339	0.8852
2348	0.884
2357	0.8819
2366	0.8795
2375	0.8771
2384	0.8745
2393	0.8721
2402	0.8704
2411	0.8687
2420	0.8686
2429	0.8685
2438	0.8685
2447	0.8685
2456	0.8689
2465	0.8699
2474	0.8708
2483	0.8717
2492	0.8723
2501	0.8729
2510	0.8727
2519	0.8722
2528	0.8708
2537	0.8694
2546	0.8679
2555	0.8659
2564	0.8674
2573	0.8695
2582	0.8713
2591	0.8728
2600	0.8732
2609	0.872
2618	0.8705
2627	0.8686
2636	0.8663
2645	0.8622
2654	0.8566
2663	0.849
2672	0.8396
2681	0.8287
2690	0.8175
2699	0.8062
2708	0.7962
2717	0.7827
2726	0.7335
2735	0.6647
2744	0.625
2753	0.624
2762	0.659
2771	0.6981
2780	0.7006
2789	0.615
2798	0.5108
2807	0.4073
2816	0.3045
2825	0.2373
2834	0.2229
2843	0.2114
2852	0.1985
2861	0.1954
2870	0.2147
2879	0.2411
2888	0.2525
2897	0.2511
2906	0.2236
2915	0.1907
2924	0.1579
2933	0.1349
2942	0.1452
2951	0.2534
2960	0.3649
2969	0.4756
2978	0.5663
2987	0.5685
2996	0.5657
3005	0.58
3014	0.6126
3023	0.6449
3032	0.6771
3041	0.7091
3050	0.7408
3059	0.7724
3068	0.795
3077	0.8061
3086	0.8122
3095	0.8158
3104	0.8187
3113	0.8215
3122	0.8242
3131	0.8251
3140	0.8254
3149	0.8255
3158	0.8255
3167	0.8266
3176	0.8277
3185	0.8287
3194	0.8298
3203	0.8302
3212	0.83
3221	0.8294
3230	0.8275
3239	0.8244
3248	0.8215
3257	0.8215
3266	0.823
3275	0.8298
3284	0.8365
3293	0.8396
3302	0.8407
3311	0.8415
3320	0.8422
3329	0.8431
3338	0.8435
3347	0.8438
3356	0.8441
3365	0.8444
3374	0.8449
3383	0.8454
3392	0.8458
3401	0.8463
3410	0.847
3419	0.8479
3428	0.8488
3437	0.8498
3446	0.8516
3455	0.8534
3464	0.8552
3473	0.8567
3482	0.8582
3491	0.8597
3500	0.8612
3509	0.8626
3518	0.8638
3527	0.8647
3536	0.8656
3545	0.8666
3554	0.8675
3563	0.8683
3572	0.8685
3581	0.8687
3590	0.8686
3599	0.8679
3608	0.8673
3617	0.8667
3626	0.8672
3635	0.8678
3644	0.8692
3653	0.871
3662	0.873
3671	0.8748
3680	0.8765
3689	0.8776
3698	0.8785
3707	0.8788
3716	0.8788
3725	0.877
3734	0.8743
3743	0.8717
3752	0.8704
3761	0.87
3770	0.87
3779	0.8695
3788	0.8688
3797	0.8684
3806	0.8679
3815	0.8677
3824	0.8675
3833	0.8674
3842	0.8672
3851	0.8672
3860	0.867
3869	0.8668
3878	0.8664
3887	0.8661
3896	0.8657
3905	0.8653
3914	0.865
3923	0.8646
3932	0.8642
3941	0.8639
3950	0.8635
3959	0.8631
3968	0.8629
3977	0.8625
3986	0.8621
3995	0.8618
