Infrared Spectrum: 1-Chloro-2,6-dibromo-4-fluorobenzene
Formula: C 6 H 2 Br 2 Cl F
CAS: 179897-90-6
State: gas
Origin: EPA-IR VAPOR PHASE LIBRARY
1/CM	ABSORBANCE
549.8	0.00076842
559.445	0.0009213
569.09	0.002106
578.735	0.003606
588.38	0.002146
598.025	0.0012114
607.67	0.0009762
617.315	0.001786
626.96	0.003466
636.605	0.015836
646.251	0.042576
655.896	0.017496
665.541	0.004356
675.186	0.006056
684.831	0.010186
694.476	0.003496
704.121	0.001626
713.766	0.0012615
723.411	0.001816
733.056	0.006126
742.701	0.045126
752.346	0.072986
761.991	0.006536
771.636	0.004826
781.281	0.003816
790.926	0.001756
800.571	0.0013432
810.216	0.0010162
819.861	0.0012517
829.507	0.002236
839.152	0.004116
848.797	0.015276
858.442	0.052206
868.087	0.028776
877.732	0.005246
887.377	0.002616
897.022	0.004716
906.667	0.020666
916.312	0.046986
925.957	0.023006
935.602	0.003156
945.247	0.0013291
954.892	0.0011943
964.537	0.0014261
974.182	0.002206
983.827	0.002876
993.472	0.001816
1003.12	0.002086
1012.76	0.002806
1022.41	0.002236
1032.05	0.002386
1041.7	0.0012281
1051.34	0.001144
1060.99	0.0010824
1070.63	0.0011094
1080.28	0.0015219
1089.92	0.002336
1099.57	0.002726
1109.21	0.006746
1118.86	0.042936
1128.5	0.050186
1138.15	0.010716
1147.79	0.006936
1157.44	0.010876
1167.08	0.015246
1176.73	0.005286
1186.37	0.006206
1196.02	0.003676
1205.66	0.002056
1215.31	0.002946
1224.95	0.008346
1234.6	0.034336
1244.24	0.048086
1253.89	0.014426
1263.53	0.007786
1273.18	0.005136
1282.82	0.002666
1292.47	0.002086
1302.11	0.001866
1311.76	0.001766
1321.4	0.002236
1331.05	0.002926
1340.69	0.004776
1350.34	0.009726
1359.98	0.016036
1369.63	0.019666
1379.27	0.041926
1388.92	0.031506
1398.56	0.022756
1408.21	0.092886
1417.85	0.186166
1427.5	0.077506
1437.14	0.021656
1446.79	0.013946
1456.43	0.005456
1466.08	0.008496
1475.73	0.010336
1485.37	0.004606
1495.02	0.002646
1504.66	0.002276
1514.31	0.002466
1523.95	0.003546
1533.6	0.005716
1543.24	0.012366
1552.89	0.048586
1562.53	0.120746
1572.18	0.101336
1581.82	0.120236
1591.47	0.058486
1601.11	0.014356
1610.76	0.008906
1620.4	0.007826
1630.05	0.003746
1639.69	0.002626
1649.34	0.002246
1658.98	0.002806
1668.63	0.002986
1678.27	0.002076
1687.92	0.002096
1697.56	0.003616
1707.21	0.007536
1716.85	0.005346
1726.5	0.001876
1736.14	0.0012599
1745.79	0.0010931
1755.43	0.0010671
1765.08	0.0011173
1774.72	0.0011452
1784.37	0.0010256
1794.01	0.0010054
1803.66	0.0009852
1813.3	0.0012254
1822.95	0.0011975
1832.59	0.0011261
1842.24	0.0009394
1851.88	0.0008669
1861.53	0.0008792
1871.17	0.0011332
1880.82	0.0015192
1890.46	0.0015784
1900.11	0.0009536
1909.75	0.0008485
1919.4	0.0008722
1929.04	0.0009471
1938.69	0.0010146
1948.33	0.001081
1957.98	0.0010658
1967.62	0.0009746
1977.27	0.000931
1986.91	0.0010025
1996.56	0.0008644
2006.2	0.000795
2015.85	0.00075506
2025.49	0.00073308
2035.14	0.0008388
2044.78	0.0009378
2054.43	0.0008176
2064.07	0.0008025
2073.72	0.00076097
2083.36	0.00074795
2093.01	0.0007236
2102.65	0.00078381
2112.3	0.00071585
2121.94	0.0008292
2131.59	0.0009442
2141.23	0.0012478
2150.88	0.001806
2160.52	0.001846
2170.17	0.0011188
2179.81	0.00075273
2189.46	0.00072347
2199.1	0.00070854
2208.75	0.00074535
2218.39	0.00076409
2228.04	0.000835
2237.68	0.00075109
2247.33	0.0006379
2256.97	0.0006362
2266.62	0.0008402
2276.26	0.0009944
2285.91	0.0010085
2295.55	0.00074943
2305.2	0.00071387
2314.84	0.0009187
2324.49	0.0011171
2334.13	0.0010589
2343.78	0.0008309
2353.42	0.0007154
2363.07	0.00075898
2372.72	0.00067634
2382.36	0.0006704
2392.01	0.00072313
2401.65	0.00070629
2411.3	0.0006521
2420.94	0.0006717
2430.59	0.000522
2440.23	0.000523
2449.88	0.0006624
2459.52	0.0008283
2469.17	0.0014019
2478.81	0.001746
2488.46	0.0015287
2498.1	0.0012232
2507.75	0.0009736
2517.39	0.0005924
2527.04	0.0006026
2536.68	0.00071782
2546.33	0.00071889
2555.97	0.000578
2565.62	0.000555
2575.26	0.0006438
2584.91	0.0006469
2594.55	0.000518
2604.2	0.000555
2613.84	0.0006211
2623.49	0.0006639
2633.13	0.0006415
2642.78	0.00067982
2652.42	0.0010014
2662.07	0.0010031
2671.71	0.00046
2681.36	0.000413
2691	0.000376
2700.65	0.000385
2710.29	0.000347
2719.94	0.000325
2729.58	0.000315
2739.23	0.000397
2748.87	0.000398
2758.52	0.000236
2768.16	0.000364
2777.81	0.000398
2787.45	0.00070216
2797.1	0.0010729
2806.74	0.000902
2816.39	0.000449
2826.03	0.000304
2835.68	7.4e-05
2845.32	0.000158
2854.97	0.000109
2864.61	0.000102
2874.26	0.000124
2883.9	0.000122
2893.55	0.00014
2903.19	0.000338
2912.84	0.000127
2922.48	6.1e-05
2932.13	0.000212
2941.77	0.000403
2951.42	0.000329
2961.06	0.000299
2970.71	0.000131
2980.35	0.000115
2990	0.000169
2999.64	9.8e-05
3009.29	0.000225
3018.93	0.00021
3028.58	0.000123
3038.22	8.8e-05
3047.87	0.000175
3057.51	0.000237
3067.16	0.000298
3076.8	0.0009111
3086.45	0.003416
3096.09	0.004396
3105.74	0.00073024
3115.38	0.000443
3125.03	0.0006548
3134.67	0.00076071
3144.32	0.0008445
3153.96	0.0006048
3163.61	0.000379
3173.25	0.000292
3182.9	0.00023
3192.54	0.000264
3202.19	0.0002
3211.83	0.00026
3221.48	0.000309
3231.12	0.000335
3240.77	0.000194
3250.41	0.000242
3260.06	0.000325
3269.7	0.000346
3279.35	0.000241
3289	0.000256
3298.64	0.000241
3308.29	0.000286
3317.93	0.000341
3327.58	0.000477
3337.22	0.000247
3346.87	0.000438
3356.51	0.000304
3366.16	0.000379
3375.8	0.000369
3385.45	0.000555
3395.09	0.000245
3404.74	0.000289
3414.38	0.000438
3424.03	0.000512
3433.67	0.000343
3443.32	0.000452
3452.96	0.000312
3462.61	0.000298
3472.25	0.000487
3481.9	0.000487
3491.54	0.000575
3501.19	0.000501
3510.83	0.000415
3520.48	0.000381
3530.12	0.000511
3539.77	0.000405
3549.41	0.000382
3559.06	0.000463
3568.7	0.0006162
3578.35	0.000564
3587.99	0.000577
3597.64	0.000549
3607.28	0.000485
3616.93	0.000449
3626.57	0.0006383
3636.22	0.0006061
3645.86	0.000568
3655.51	0.000449
3665.15	0.000522
3674.8	0.000405
3684.44	0.0005889
3694.09	0.000448
3703.73	0.000491
3713.38	0.000407
3723.02	0.000559
3732.67	0.0008292
3742.31	0.000669
3751.96	0.000525
3761.6	0.0006066
3771.25	0.000690819
3780.89	0.000441
3790.54	0.000405
3800.18	0.000544
3809.83	0.0006042
3819.47	0.000553
3829.12	0.00067819
3838.76	0.000472
3848.41	0.000579
3858.05	0.000364
3867.7	0.000532
3877.34	0.000476
3886.99	0.00053
3896.63	0.0005924
3906.28	0.000692866
3915.92	0.000535
3925.57	0.000424
3935.21	0.00046
3944.86	0.0006029
3954.5	0.000553
3964.15	0.000513
3973.79	0.000393
3983.44	0.000373
3993.08	0.000343
