Infrared Spectrum: Silane, tris(allyloxy)vinyl-
Formula: C11 H18 O3 Si
CAS: 17988-31-7
State: SOLUTION (8% CCl4 FOR 3800-1330, 8% CS2 FOR 1330-400 CM^-^1)
Class: COBLENTZ III
Instrument: BECKMAN IR-9 (GRATING)
Instrument parameters: ORDER CHANGES: 670, 1200, 2000 CM^-^1
Sampling: TRANSMISSION
Path length: 0.011 CM, 0.011 CM
Resolution: 2
Origin: DOW CHEMICAL COMPANY
1/CM	TRANSMITTANCE
3796	0.9068
3787	0.9072
3778	0.9071
3769	0.9075
3760	0.908
3751	0.9068
3742	0.9063
3733	0.9055
3724	0.9064
3715	0.9057
3706	0.9066
3697	0.9058
3688	0.9035
3679	0.9011
3670	0.9015
3661	0.8979
3652	0.8944
3643	0.8883
3634	0.8816
3625	0.8779
3616	0.8823
3607	0.8878
3598	0.8926
3589	0.8888
3580	0.8905
3571	0.8884
3562	0.8866
3553	0.8852
3544	0.8849
3535	0.8848
3526	0.8838
3517	0.8847
3508	0.8852
3499	0.8855
3490	0.8858
3481	0.886
3472	0.886
3463	0.8857
3454	0.8855
3445	0.8851
3436	0.8851
3427	0.8859
3418	0.8872
3409	0.8886
3400	0.8894
3391	0.8894
3382	0.8894
3373	0.89
3364	0.8913
3355	0.8924
3346	0.8928
3337	0.8947
3328	0.8934
3319	0.8938
3310	0.8959
3301	0.8945
3292	0.8949
3283	0.8968
3274	0.8968
3265	0.8967
3256	0.8954
3247	0.8971
3238	0.8973
3229	0.8975
3220	0.897
3211	0.895
3202	0.8907
3193	0.888
3184	0.8847
3175	0.8846
3166	0.8843
3157	0.8846
3148	0.8821
3139	0.8807
3130	0.8761
3121	0.8664
3112	0.8464
3103	0.8158
3094	0.7477
3085	0.6649
3076	0.688
3067	0.6616
3058	0.7369
3049	0.8201
3040	0.8277
3031	0.7674
3022	0.6474
3013	0.6098
3004	0.7489
2995	0.6927
2986	0.5822
2977	0.6941
2968	0.7249
2959	0.6618
2950	0.6321
2941	0.5919
2932	0.573
2923	0.5133
2914	0.5988
2905	0.6052
2896	0.5774
2887	0.5255
2878	0.4746
2869	0.4259
2860	0.4385
2851	0.5921
2842	0.7724
2833	0.8142
2824	0.8415
2815	0.8685
2806	0.8842
2797	0.8889
2788	0.888
2779	0.886
2770	0.8902
2761	0.8992
2752	0.8966
2743	0.889
2734	0.8536
2725	0.8483
2716	0.8805
2707	0.8888
2698	0.8957
2689	0.9099
2680	0.9188
2671	0.9217
2662	0.9221
2653	0.9221
2644	0.9192
2635	0.9192
2626	0.9209
2617	0.9209
2608	0.9211
2599	0.9212
2590	0.9211
2581	0.9215
2572	0.9217
2563	0.9222
2554	0.9232
2545	0.9243
2536	0.9253
2527	0.9258
2518	0.9262
2509	0.9266
2500	0.9277
2491	0.9288
2482	0.9303
2473	0.9309
2464	0.929
2455	0.9266
2446	0.9276
2437	0.9272
2428	0.9268
2419	0.9268
2410	0.9271
2401	0.9288
2392	0.9285
2383	0.9298
2374	0.9228
2365	0.9199
2356	0.9262
2347	0.9304
2338	0.9298
2329	0.9313
2320	0.9313
2311	0.9268
2302	0.9235
2293	0.9257
2284	0.9269
2275	0.9262
2266	0.9288
2257	0.9288
2248	0.9284
2239	0.9284
2230	0.9278
2221	0.9268
2212	0.9272
2203	0.9268
2194	0.9264
2185	0.9247
2176	0.9264
2167	0.9243
2158	0.9237
2149	0.9231
2140	0.9227
2131	0.922
2122	0.9198
2113	0.9204
2104	0.9193
2095	0.9183
2086	0.9175
2077	0.9167
2068	0.916
2059	0.9154
2050	0.9163
2041	0.9135
2032	0.9117
2023	0.9096
2014	0.9047
2005	0.8981
1996	0.8887
1987	0.8878
1978	0.8862
1969	0.8869
1960	0.8877
1951	0.878
1942	0.862
1933	0.8632
1924	0.8722
1915	0.8798
1906	0.8843
1897	0.8855
1888	0.8821
1879	0.8799
1870	0.869
1861	0.8582
1852	0.8495
1843	0.8572
1834	0.8757
1825	0.8951
1816	0.9063
1807	0.9072
1798	0.904
1789	0.9033
1780	0.9027
1771	0.9019
1762	0.9023
1753	0.9021
1744	0.8977
1735	0.8959
1726	0.8958
1717	0.8932
1708	0.8895
1699	0.8856
1690	0.8832
1681	0.8803
1672	0.877
1663	0.8691
1654	0.8429
1645	0.6443
1636	0.8527
1627	0.8716
1618	0.8631
1609	0.8438
1600	0.677
1591	0.8049
1582	0.8321
1573	0.828
1564	0.7952
1555	0.7996
1546	0.8352
1537	0.8726
1528	0.8737
1519	0.8899
1510	0.894
1501	0.8835
1492	0.8757
1483	0.865
1474	0.8195
1465	0.6811
1456	0.6808
1447	0.8193
1438	0.8089
1429	0.6875
1420	0.4273
1411	0.3765
1402	0.561
1393	0.7964
1384	0.7258
1375	0.7546
1366	0.742
1357	0.7774
1348	0.8577
1339	0.8572
1330	0.8586
1321	0.8482
1312	0.8385
1303	0.8036
1294	0.7469
1285	0.6547
1276	0.5303
1267	0.5018
1258	0.6702
1249	0.7752
1240	0.7833
1231	0.7823
1222	0.7692
1213	0.7376
1204	0.6992
1195	0.6608
1186	0.6087
1177	0.5123
1168	0.3114
1159	0.1119
1150	0.046
1141	0.0213
1132	0.0253
1123	0.0544
1114	0.0492
1105	0.0244
1096	0.0002
1087	0.0001
1078	0
1069	0.008
1060	0.046
1051	0.05
1042	0.0126
1033	0.0352
1024	0.1777
1015	0.1888
1006	0.0953
997	0.2714
988	0.1648
979	0.4384
970	0.329
961	0.4261
952	0.6359
943	0.6083
934	0.3659
925	0.0307
916	0.0509
907	0.3824
898	0.6865
889	0.7263
880	0.6714
871	0.583
862	0.335
853	0.1751
844	0.1561
835	0.1948
826	0.3125
817	0.4296
808	0.3677
799	0.2555
790	0.2722
781	0.4337
772	0.5412
763	0.63
754	0.7253
745	0.7955
736	0.8229
727	0.8237
718	0.8013
709	0.7201
700	0.6044
691	0.5308
682	0.6361
673	0.7652
664	0.7847
655	0.7713
646	0.7415
637	0.6795
628	0.632
619	0.63
610	0.6451
601	0.6419
592	0.6277
583	0.6907
574	0.6981
565	0.652
556	0.4739
547	0.5228
538	0.58
529	0.6399
520	0.7002
511	0.758
502	0.7732
493	0.7479
484	0.6925
475	0.6119
466	0.5507
457	0.4752
448	0.447
439	0.4299
430	0.3999
421	0.3433
412	0.1658
