Infrared Spectrum: 5-Bromo-2-fluorobenzonitrile
Formula: C 7 H 3 Br F N
CAS: 179897-89-3
State: gas
Origin: EPA-IR VAPOR PHASE LIBRARY
1/CM	ABSORBANCE
549.8	0.000365154
559.445	0.001422
569.09	0.005412
578.735	0.007122
588.38	0.003672
598.025	0.001762
607.67	0.001662
617.315	0.003402
626.96	0.005692
636.605	0.022072
646.251	0.017822
655.896	0.001772
665.541	0.0006801
675.186	0.0008665
684.831	0.002332
694.476	0.003072
704.121	0.002132
713.766	0.001562
723.411	0.001622
733.056	0.009272
742.701	0.024582
752.346	0.016212
761.991	0.005012
771.636	0.004292
781.281	0.004452
790.926	0.004972
800.571	0.005732
810.216	0.022072
819.861	0.049992
829.507	0.027172
839.152	0.006762
848.797	0.003422
858.442	0.006202
868.087	0.007212
877.732	0.009042
887.377	0.015532
897.022	0.006922
906.667	0.001692
916.312	0.0006724
925.957	0.0009153
935.602	0.0011717
945.247	0.001942
954.892	0.001932
964.537	0.0012295
974.182	0.0007176
983.827	0.0004857
993.472	0.00039514
1003.12	0.00041051
1012.76	0.00042855
1022.41	0.0004822
1032.05	0.0005716
1041.7	0.0006431
1051.34	0.001382
1060.99	0.003282
1070.63	0.010792
1080.28	0.010012
1089.92	0.002142
1099.57	0.005232
1109.21	0.026632
1118.86	0.038752
1128.5	0.009302
1138.15	0.002142
1147.79	0.002152
1157.44	0.003852
1167.08	0.014072
1176.73	0.015452
1186.37	0.008622
1196.02	0.015222
1205.66	0.009752
1215.31	0.004612
1224.95	0.008762
1234.6	0.031092
1244.24	0.042032
1253.89	0.024772
1263.53	0.083992
1273.18	0.063472
1282.82	0.007302
1292.47	0.002462
1302.11	0.001287
1311.76	0.0008364
1321.4	0.0010336
1331.05	0.0012396
1340.69	0.0011942
1350.34	0.001742
1359.98	0.002662
1369.63	0.004472
1379.27	0.012562
1388.92	0.020782
1398.56	0.014382
1408.21	0.006392
1417.85	0.003982
1427.5	0.004892
1437.14	0.004452
1446.79	0.008112
1456.43	0.025102
1466.08	0.034802
1475.73	0.067552
1485.37	0.149952
1495.02	0.117782
1504.66	0.033842
1514.31	0.012632
1523.95	0.006312
1533.6	0.005492
1543.24	0.003602
1552.89	0.002132
1562.53	0.002652
1572.18	0.003892
1581.82	0.003372
1591.47	0.003042
1601.11	0.003912
1610.76	0.002732
1620.4	0.001602
1630.05	0.002302
1639.69	0.003342
1649.34	0.002412
1658.98	0.0010185
1668.63	0.0007776
1678.27	0.0008621
1687.92	0.0008221
1697.56	0.0008799
1707.21	0.0010021
1716.85	0.0010829
1726.5	0.0008512
1736.14	0.0007899
1745.79	0.0011071
1755.43	0.002602
1765.08	0.003982
1774.72	0.002582
1784.37	0.0010901
1794.01	0.0005915
1803.66	0.0005531
1813.3	0.0006381
1822.95	0.0009101
1832.59	0.0012115
1842.24	0.0010209
1851.88	0.000694
1861.53	0.0008366
1871.17	0.0011789
1880.82	0.002322
1890.46	0.003432
1900.11	0.002362
1909.75	0.0008786
1919.4	0.00041823
1929.04	0.0003134
1938.69	0.00042033
1948.33	0.00043592
1957.98	0.0005191
1967.62	0.0005456
1977.27	0.0005437
1986.91	0.0005971
1996.56	0.0005902
2006.2	0.0008276
2015.85	0.0008969
2025.49	0.0006078
2035.14	0.0004629
2044.78	0.0004828
2054.43	0.00043841
2064.07	0.00039177
2073.72	0.0002913
2083.36	0.00036901
2093.01	0.0004786
2102.65	0.0005733
2112.3	0.0005845
2121.94	0.0007207
2131.59	0.0007539
2141.23	0.0005226
2150.88	0.00039874
2160.52	0.00040349
2170.17	0.0003514
2179.81	0.0003447
2189.46	0.00040877
2199.1	0.00044603
2208.75	0.0006079
2218.39	0.0010757
2228.04	0.002232
2237.68	0.003212
2247.33	0.002412
2256.97	0.000968
2266.62	0.0006537
2276.26	0.0006704
2285.91	0.0006671
2295.55	0.0007179
2305.2	0.000765
2314.84	0.000817
2324.49	0.0009064
2334.13	0.0009158
2343.78	0.0010769
2353.42	0.0010875
2363.07	0.0009436
2372.72	0.0007264
2382.36	0.0004843
2392.01	0.00039157
2401.65	0.00045265
2411.3	0.000511
2420.94	0.0005661
2430.59	0.0007374
2440.23	0.000795
2449.88	0.0007144
2459.52	0.0007425
2469.17	0.000793
2478.81	0.0007915
2488.46	0.0007486
2498.1	0.0007264
2507.75	0.0008794
2517.39	0.000898
2527.04	0.0011656
2536.68	0.0009455
2546.33	0.0006059
2555.97	0.0005767
2565.62	0.0005285
2575.26	0.0005132
2584.91	0.0004893
2594.55	0.000585
2604.2	0.0007085
2613.84	0.000683
2623.49	0.0006317
2633.13	0.0005093
2642.78	0.0004681
2652.42	0.00044484
2662.07	0.0005475
2671.71	0.0004872
2681.36	0.0005423
2691	0.0004938
2700.65	0.0005546
2710.29	0.0006196
2719.94	0.0006533
2729.58	0.0006616
2739.23	0.0007319
2748.87	0.0007843
2758.52	0.000728
2768.16	0.0005698
2777.81	0.000497
2787.45	0.0004708
2797.1	0.0006006
2806.74	0.0007564
2816.39	0.0007552
2826.03	0.0006642
2835.68	0.0005139
2845.32	0.0006525
2854.97	0.0008852
2864.61	0.0009351
2874.26	0.0007743
2883.9	0.00045166
2893.55	0.00036058
2903.19	0.000255
2912.84	7.6e-05
2922.48	0.000106
2932.13	0.00024
2941.77	0.000154
2951.42	0.0002937
2961.06	4e-06
2970.71	2.9e-05
2980.35	0.000217
2990	0.000233
2999.64	0.00019
3009.29	0.000203
3018.93	0.000188
3028.58	0.000229
3038.22	0.00041666
3047.87	0.00044735
3057.51	0.00044683
3067.16	0.00042282
3076.8	0.0009034
3086.45	0.0012854
3096.09	0.0006593
3105.74	0.0005398
3115.38	0.00045888
3125.03	0.0002875
3134.67	0.000231
3144.32	0.0003131
3153.96	0.000129
3163.61	0.0003309
3173.25	0.000169
3182.9	0.000256
3192.54	0.0002701
3202.19	0.0003451
3211.83	0.00037036
3221.48	0.000298
3231.12	0.000199
3240.77	0.0003117
3250.41	0.0002756
3260.06	0.0003076
3269.7	0.000194
3279.35	0.000232
3289	0.00014
3298.64	0.0004259
3308.29	0.0002775
3317.93	5.8e-05
3327.58	0.000169
3337.22	0.0003385
3346.87	0.00042408
3356.51	0.0002834
3366.16	0.000208
3375.8	0.0002866
3385.45	0.000191
3395.09	0.0003343
3404.74	0.0004174
3414.38	0.00040632
3424.03	0.00035803
3433.67	0.0003419
3443.32	0.000252
3452.96	0.00045355
3462.61	0.00039833
3472.25	0.0003196
3481.9	0.0003324
3491.54	0.000191
3501.19	0.0003946
3510.83	0.000504
3520.48	0.0003868
3530.12	0.0002978
3539.77	0.0003152
3549.41	0.00039602
3559.06	0.000368727
3568.7	0.0003501
3578.35	0.0003145
3587.99	0.000228
3597.64	0.00040251
3607.28	0.000362676
3616.93	0.00038
3626.57	0.0004765
3636.22	0.0005213
3645.86	0.00039573
3655.51	0.0002988
3665.15	0.00042676
3674.8	0.00043383
3684.44	0.0003263
3694.09	0.0003346
3703.73	0.0005052
3713.38	0.0005903
3723.02	0.0006661
3732.67	0.00040226
3742.31	0.0004967
3751.96	0.0004914
3761.6	0.0006214
3771.25	0.00040276
3780.89	0.00041673
3790.54	0.00042782
3800.18	0.00039159
3809.83	0.00045163
3819.47	0.00046191
3829.12	0.0003362
3838.76	0.00040644
3848.41	0.00042494
3858.05	0.00040099
3867.7	0.0005126
3877.34	0.0004781
3886.99	0.0004749
3896.63	0.0003452
3906.28	0.0005771
3915.92	0.0004804
3925.57	0.0006076
3935.21	0.0005508
3944.86	0.0009298
3954.5	0.000894
3964.15	0.0006177
3973.79	0.0005913
3983.44	0.0005173
3993.08	0.00037118
