Infrared Spectrum: 4-Iodophenylacetic acid
Formula: C 8 H 7 I O 2
CAS: 1798-06-7
State: gas
Origin: EPA-IR VAPOR PHASE LIBRARY
1/CM	ABSORBANCE
549.8	0.002333
559.445	0.002583
569.09	0.003333
578.735	0.005043
588.38	0.008603
598.025	0.014083
607.67	0.017643
617.315	0.012843
626.96	0.008513
636.605	0.006293
646.251	0.004773
655.896	0.004013
665.541	0.003763
675.186	0.003453
684.831	0.003683
694.476	0.004003
704.121	0.003843
713.766	0.004963
723.411	0.006443
733.056	0.005953
742.701	0.003303
752.346	0.002293
761.991	0.002173
771.636	0.002683
781.281	0.004913
790.926	0.007513
800.571	0.006593
810.216	0.003783
819.861	0.002453
829.507	0.002763
839.152	0.003983
848.797	0.002813
858.442	0.001793
868.087	0.001643
877.732	0.001633
887.377	0.001593
897.022	0.001433
906.667	0.001413
916.312	0.001433
925.957	0.001523
935.602	0.001793
945.247	0.001643
954.892	0.001543
964.537	0.001503
974.182	0.001343
983.827	0.001313
993.472	0.002023
1003.12	0.008673
1012.76	0.018793
1022.41	0.002483
1032.05	0.001363
1041.7	0.001583
1051.34	0.003243
1060.99	0.009453
1070.63	0.006583
1080.28	0.008643
1089.92	0.013683
1099.57	0.022803
1109.21	0.037683
1118.86	0.042423
1128.5	0.024903
1138.15	0.016133
1147.79	0.011253
1157.44	0.008313
1167.08	0.006923
1176.73	0.006653
1186.37	0.007593
1196.02	0.008023
1205.66	0.008043
1215.31	0.008123
1224.95	0.007023
1234.6	0.005443
1244.24	0.004613
1253.89	0.003873
1263.53	0.003393
1273.18	0.003283
1282.82	0.003353
1292.47	0.003743
1302.11	0.004143
1311.76	0.004263
1321.4	0.004393
1331.05	0.005063
1340.69	0.005793
1350.34	0.007113
1359.98	0.007973
1369.63	0.006893
1379.27	0.005033
1388.92	0.004343
1398.56	0.004403
1408.21	0.004323
1417.85	0.004003
1427.5	0.003763
1437.14	0.003003
1446.79	0.002323
1456.43	0.001613
1466.08	0.002143
1475.73	0.005873
1485.37	0.017543
1495.02	0.008973
1504.66	0.001893
1514.31	0.0009036
1523.95	0.0006152
1533.6	0.0006422
1543.24	0.0007066
1552.89	0.0008343
1562.53	0.0008227
1572.18	0.0010059
1581.82	0.001403
1591.47	0.001733
1601.11	0.001483
1610.76	0.0010912
1620.4	0.0009886
1630.05	0.0008043
1639.69	0.0009365
1649.34	0.000778
1658.98	0.0006956
1668.63	0.0006204
1678.27	0.0007834
1687.92	0.0009614
1697.56	0.0012047
1707.21	0.001883
1716.85	0.002773
1726.5	0.004673
1736.14	0.007483
1745.79	0.012603
1755.43	0.020423
1765.08	0.029013
1774.72	0.039003
1784.37	0.041553
1794.01	0.031133
1803.66	0.019753
1813.3	0.010373
1822.95	0.005203
1832.59	0.002783
1842.24	0.001563
1851.88	0.0011305
1861.53	0.0009106
1871.17	0.0008474
1880.82	0.0009358
1890.46	0.0010381
1900.11	0.0010855
1909.75	0.0008505
1919.4	0.0006531
1929.04	0.0005044
1938.69	0.0005164
1948.33	0.0004463
1957.98	0.0004775
1967.62	0.0004774
1977.27	0.0004543
1986.91	0.0004813
1996.56	0.0005126
2006.2	0.0004519
2015.85	0.0004781
2025.49	0.0004515
2035.14	0.00039083
2044.78	0.0004053
2054.43	0.00035223
2064.07	0.000394
2073.72	0.00038899
2083.36	0.0003786
2093.01	0.0004329
2102.65	0.0004198
2112.3	0.0004459
2121.94	0.0005471
2131.59	0.000518
2141.23	0.00034765
2150.88	0.00035516
2160.52	0.00037413
2170.17	0.000389
2179.81	0.0004158
2189.46	0.0004567
2199.1	0.0004309
2208.75	0.0004531
2218.39	0.0005494
2228.04	0.0005102
2237.68	0.0004809
2247.33	0.000438
2256.97	0.0004682
2266.62	0.0004589
2276.26	0.0005442
2285.91	0.0005056
2295.55	0.0005668
2305.2	0.0006116
2314.84	0.0007209
2324.49	0.0005876
2334.13	0.0006065
2343.78	0.0005315
2353.42	0.0006674
2363.07	0.000661
2372.72	0.0006321
2382.36	0.000516
2392.01	0.0004982
2401.65	0.0004916
2411.3	0.0004694
2420.94	0.0004546
2430.59	0.0005226
2440.23	0.0005052
2449.88	0.0003996
2459.52	0.0005353
2469.17	0.0005711
2478.81	0.000474
2488.46	0.000536
2498.1	0.0005006
2507.75	0.0005093
2517.39	0.0004757
2527.04	0.0005279
2536.68	0.0004912
2546.33	0.0004911
2555.97	0.0004762
2565.62	0.000498
2575.26	0.0004528
2584.91	0.000485
2594.55	0.0005755
2604.2	0.0005603
2613.84	0.0005017
2623.49	0.0005023
2633.13	0.0005383
2642.78	0.0005563
2652.42	0.0005716
2662.07	0.0005363
2671.71	0.0005763
2681.36	0.0004479
2691	0.0005431
2700.65	0.0004795
2710.29	0.0005418
2719.94	0.0005581
2729.58	0.0005568
2739.23	0.0004516
2748.87	0.0005285
2758.52	0.0004935
2768.16	0.0005064
2777.81	0.0004901
2787.45	0.0005839
2797.1	0.0006024
2806.74	0.000545
2816.39	0.0006174
2826.03	0.0005526
2835.68	0.000642
2845.32	0.0007886
2854.97	0.0006524
2864.61	0.0007423
2874.26	0.0007911
2883.9	0.0006593
2893.55	0.0007185
2903.19	0.000904
2912.84	0.001083
2922.48	0.001513
2932.13	0.001793
2941.77	0.001953
2951.42	0.001903
2961.06	0.001573
2970.71	0.001483
2980.35	0.001413
2990	0.001313
2999.64	0.0012526
3009.29	0.0012054
3018.93	0.001633
3028.58	0.002413
3038.22	0.002233
3047.87	0.001963
3057.51	0.001823
3067.16	0.001873
3076.8	0.001843
3086.45	0.002113
3096.09	0.001383
3105.74	0.000813
3115.38	0.0004857
3125.03	0.0003971
3134.67	0.00033954
3144.32	0.000445
3153.96	0.0005026
3163.61	0.0004518
3173.25	0.00031926
3182.9	0.00035743
3192.54	0.000223
3202.19	0.000168
3211.83	0.000158
3221.48	0.00030404
3231.12	0.00039143
3240.77	0.000175
3250.41	0.0002055
3260.06	0.0003591
3269.7	0.000292566
3279.35	0.000297474
3289	0.0002204
3298.64	0.0002692
3308.29	0.0002783
3317.93	0.0002756
3327.58	0.0001974
3337.22	6.4e-05
3346.87	0.0002145
3356.51	0.0002668
3366.16	0.00032279
3375.8	0.0002191
3385.45	0.0002607
3395.09	0.00033892
3404.74	0.0002807
3414.38	0.0002054
3424.03	0.0002572
3433.67	0.0002473
3443.32	0.0002827
3452.96	0.00034526
3462.61	0.0003338
3472.25	0.0002559
3481.9	0.00028675
3491.54	0.00035491
3501.19	0.0004395
3510.83	0.0006393
3520.48	0.0008134
3530.12	0.0010688
3539.77	0.001533
3549.41	0.002613
3559.06	0.005823
3568.7	0.017943
3578.35	0.018523
3587.99	0.005863
3597.64	0.002143
3607.28	0.0011967
3616.93	0.0006502
3626.57	0.0006787
3636.22	0.0005226
3645.86	0.0002263
3655.51	0.0004048
3665.15	0.0002207
3674.8	0.0002368
3684.44	0.000295694
3694.09	0.0004502
3703.73	0.0005005
3713.38	0.00030924
3723.02	0.00034491
3732.67	0.00037296
3742.31	0.00037713
3751.96	0.0002388
3761.6	0.0004198
3771.25	0.0002745
3780.89	0.000402
3790.54	0.0003917
3800.18	0.0004003
3809.83	0.00036682
3819.47	0.0004067
3829.12	0.0004483
3838.76	0.0004999
3848.41	0.0004059
3858.05	0.0004625
3867.7	0.0002701
3877.34	0.0004528
3886.99	0.0004448
3896.63	0.0005597
3906.28	0.0004477
3915.92	0.0004965
3925.57	0.0005196
3935.21	0.0004991
3944.86	0.0005456
3954.5	0.0005858
3964.15	0.0005365
3973.79	0.0005532
3983.44	0.0004102
3993.08	0.00037087
