Infrared Spectrum: 1,1-DIPHENYLSILACYCLOHEXANE
Formula: C17 H20 Si
CAS: 18002-79-4
State: SOLID (BETWEEN SALTS)
Class: COBLENTZ
Instrument: BECKMAN IR-4 (HYBRID PRISM-GRATING)
Sampling: TRANSMISSION
Resolution: 4
Origin: PENINSULAR CHEMRESEARCH, INC., GAINESVILLE, FLORIDA
MICROMETERS	TRANSMITTANCE
2.03	0.912
2.06497	0.919
2.09994	0.912
2.13491	0.909
2.16988	0.919
2.20485	0.92
2.23982	0.912
2.27479	0.91
2.30976	0.91
2.34473	0.92
2.3797	0.91
2.41467	0.907
2.44964	0.905
2.48462	0.917
2.51959	0.91
2.55456	0.909
2.58953	0.915
2.6245	0.907
2.65947	0.911
2.69444	0.9
2.72941	0.895
2.76438	0.906
2.79935	0.899
2.83432	0.902
2.86929	0.896
2.90426	0.892
2.93923	0.892
2.9742	0.892
3.00917	0.896
3.04414	0.901
3.07911	0.896
3.11408	0.902
3.14905	0.895
3.18402	0.88
3.21899	0.826
3.25396	0.636
3.28893	0.699
3.3239	0.754
3.35888	0.775
3.39385	0.448
3.42882	0.339
3.46379	0.582
3.49876	0.574
3.53373	0.88
3.5687	0.875
3.60367	0.922
3.63864	0.93
3.67361	0.92
3.70858	0.916
3.74355	0.915
3.77852	0.931
3.81349	0.929
3.84846	0.931
3.88343	0.938
3.9184	0.947
3.95337	0.947
3.98834	0.943
4.02331	0.947
4.05828	0.947
4.09325	0.943
4.12822	0.948
4.16319	0.927
4.19816	0.917
4.23313	0.937
4.26811	0.947
4.30308	0.947
4.33805	0.941
4.37302	0.938
4.40799	0.936
4.44296	0.931
4.47793	0.941
4.5129	0.948
4.54787	0.947
4.58284	0.961
4.61781	0.958
4.65278	0.955
4.68775	0.957
4.72272	0.958
4.75769	0.966
4.79266	0.967
4.82763	0.961
4.8626	0.955
4.89757	0.961
4.93254	0.961
4.96751	0.958
5.00248	0.957
5.03745	0.932
5.07242	0.926
5.10739	0.925
5.14237	0.952
5.17734	0.955
5.21231	0.948
5.24728	0.915
5.28225	0.914
5.31722	0.925
5.35219	0.953
5.38716	0.948
5.42213	0.945
5.4571	0.922
5.49207	0.906
5.52704	0.943
5.56201	0.956
5.59698	0.95
5.63195	0.945
5.66692	0.941
5.70189	0.951
5.73686	0.947
5.77183	0.957
5.8068	0.953
5.84177	0.94
5.87674	0.956
5.91171	0.958
5.94668	0.945
5.98165	0.94
6.01663	0.929
6.0516	0.938
6.08657	0.931
6.12154	0.955
6.15651	0.948
6.19148	0.946
6.22645	0.942
6.26142	0.919
6.29639	0.892
6.33136	0.919
6.36633	0.93
6.4013	0.941
6.43627	0.946
6.47124	0.951
6.50621	0.956
6.54118	0.945
6.57615	0.946
6.61112	0.951
6.64609	0.937
6.68106	0.892
6.71603	0.835
6.751	0.917
6.78597	0.916
6.82094	0.849
6.85591	0.789
6.89089	0.673
6.92586	0.754
6.96083	0.661
6.9958	0.425
7.03077	0.805
7.06574	0.819
7.10071	0.811
7.13568	0.754
7.17065	0.854
7.20562	0.906
7.24059	0.895
7.27556	0.91
7.31053	0.93
7.3455	0.932
7.38047	0.905
7.41544	0.81
7.45041	0.851
7.48538	0.89
7.52035	0.886
7.55532	0.904
7.59029	0.9
7.62526	0.892
7.66023	0.849
7.6952	0.88
7.73017	0.879
7.76514	0.905
7.80012	0.907
7.83509	0.899
7.87006	0.86
7.90503	0.765
7.94	0.836
7.97497	0.884
8.00994	0.907
8.04491	0.907
8.07988	0.91
8.11485	0.906
8.14982	0.902
8.18479	0.891
8.21976	0.887
8.25473	0.879
8.2897	0.844
8.32467	0.755
8.35964	0.749
8.39461	0.687
8.42958	0.613
8.46455	0.449
8.49952	0.623
8.53449	0.785
8.56946	0.819
8.60443	0.811
8.6394	0.809
8.67438	0.828
8.70935	0.828
8.74432	0.805
8.77929	0.789
8.81426	0.777
8.84923	0.772
8.8842	0.734
8.91917	0.641
8.95414	0.367
8.98911	0.204
9.02408	0.283
9.05905	0.521
9.09402	0.64
9.12899	0.721
9.16396	0.76
9.19893	0.763
9.2339	0.764
9.26887	0.764
9.30384	0.773
9.33881	0.772
9.37378	0.767
9.40875	0.785
9.44372	0.809
9.47869	0.818
9.51366	0.826
9.54864	0.83
9.58361	0.831
9.61858	0.834
9.65355	0.841
9.68852	0.83
9.72349	0.826
9.75846	0.856
9.79343	0.87
9.8284	0.869
9.86337	0.855
9.89834	0.841
9.93331	0.829
9.96828	0.839
10.0033	0.784
10.0382	0.763
10.0732	0.655
10.1082	0.455
10.1431	0.513
10.1781	0.708
10.2131	0.826
10.248	0.874
10.283	0.89
10.318	0.899
10.353	0.909
10.3879	0.915
10.4229	0.922
10.4579	0.924
10.4928	0.925
10.5278	0.93
10.5628	0.931
10.5977	0.935
10.6327	0.931
10.6677	0.929
10.7027	0.925
10.7376	0.926
10.7726	0.917
10.8076	0.912
10.8425	0.9
10.8775	0.875
10.9125	0.81
10.9475	0.656
10.9824	0.475
11.0174	0.408
11.0524	0.534
11.0873	0.729
11.1223	0.829
11.1573	0.88
11.1922	0.904
11.2272	0.912
11.2622	0.917
11.2972	0.917
11.3321	0.922
11.3671	0.922
11.4021	0.922
11.437	0.924
11.472	0.917
11.507	0.916
11.5419	0.905
11.5769	0.889
11.6119	0.876
11.6469	0.889
11.6818	0.896
11.7168	0.894
11.7518	0.894
11.7867	0.894
11.8217	0.901
11.8567	0.904
11.8917	0.907
11.9266	0.902
11.9616	0.901
11.9966	0.899
12.0315	0.896
12.0665	0.892
12.1015	0.89
12.1364	0.891
12.1714	0.895
12.2064	0.899
12.2414	0.901
12.2763	0.902
12.3113	0.906
12.3463	0.905
12.3812	0.906
12.4162	0.902
12.4512	0.9
12.4861	0.892
12.5211	0.884
12.5561	0.863
12.5911	0.867
12.626	0.864
12.661	0.849
12.696	0.824
12.7309	0.769
12.7659	0.696
12.8009	0.61
12.8359	0.447
12.8708	0.318
12.9058	0.272
12.9408	0.327
12.9757	0.444
13.0107	0.596
13.0457	0.669
13.0806	0.697
13.1156	0.701
13.1506	0.658
13.1856	0.582
13.2205	0.483
13.2555	0.486
13.2905	0.546
13.3254	0.61
13.3604	0.646
13.3954	0.642
13.4303	0.58
13.4653	0.528
13.5003	0.466
13.5353	0.466
13.5702	0.473
13.6052	0.448
13.6402	0.369
13.6751	0.242
13.7101	0.164
13.7451	0.129
13.7801	0.178
13.815	0.281
13.85	0.399
13.885	0.526
13.9199	0.585
13.9549	0.592
13.9899	0.569
14.0248	0.485
14.0598	0.41
14.0948	0.265
14.1298	0.149
14.1647	0.099
14.1997	0.084
14.2347	0.085
14.2696	0.072
14.3046	0.068
14.3396	0.063
14.3745	0.133
14.4095	0.239
14.4445	0.358
14.4795	0.48
14.5144	0.547
14.5494	0.626
14.5844	0.642
14.6193	0.662
14.6543	0.668
14.6893	0.661
14.7243	0.656
14.7592	0.642
14.7942	0.641
14.8292	0.64
14.8641	0.636
14.8991	0.625
14.9341	0.615
14.969	0.601
15.004	0.596
