Infrared Spectrum: 3-Trifluoromethylbenzamide
Formula: C 8 H 6 F 3 N O
CAS: 1801-10-1
State: gas
Origin: EPA-IR VAPOR PHASE LIBRARY
1/CM	ABSORBANCE
549.9	0.00296
559.547	0.00258
569.193	0.00304
578.84	0.00333
588.486	0.00405
598.133	0.00528
607.779	0.00803
617.426	0.01021
627.072	0.00661
636.719	0.00427
646.365	0.00632
656.012	0.01397
665.658	0.00965
675.305	0.00537
684.951	0.00788
694.598	0.01313
704.245	0.01132
713.891	0.00729
723.538	0.00683
733.184	0.0096
742.831	0.01265
752.477	0.01455
762.124	0.00973
771.77	0.0063
781.417	0.00572
791.063	0.00606
800.71	0.0074
810.356	0.00916
820.003	0.00839
829.649	0.00732
839.296	0.00573
848.943	0.00406
858.589	0.00381
868.236	0.00377
877.882	0.00374
887.529	0.00436
897.175	0.00577
906.822	0.00592
916.468	0.00521
926.115	0.0052
935.761	0.00436
945.408	0.00345
955.054	0.00307
964.701	0.00293
974.347	0.00277
983.994	0.00275
993.64	0.00301
1003.29	0.00317
1012.93	0.0031
1022.58	0.00303
1032.23	0.00314
1041.87	0.00387
1051.52	0.00641
1061.17	0.0135
1070.81	0.02581
1080.46	0.02532
1090.11	0.01545
1099.75	0.01255
1109.4	0.01177
1119.05	0.01857
1128.69	0.0345
1138.34	0.06435
1147.99	0.10525
1157.63	0.07823
1167.28	0.0538
1176.92	0.06643
1186.57	0.04199
1196.22	0.01797
1205.86	0.00963
1215.51	0.00703
1225.16	0.00656
1234.8	0.00701
1244.45	0.00808
1254.1	0.01099
1263.74	0.02003
1273.39	0.0352
1283.04	0.03786
1292.68	0.04563
1302.33	0.07582
1311.98	0.09833
1321.62	0.0839
1331.27	0.03657
1340.92	0.02634
1350.56	0.03966
1360.21	0.0448
1369.86	0.02746
1379.5	0.01097
1389.15	0.00626
1398.79	0.0043
1408.44	0.00344
1418.09	0.00396
1427.73	0.00541
1437.38	0.00596
1447.03	0.00397
1456.67	0.00277
1466.32	0.00259
1475.97	0.0028
1485.61	0.00304
1495.26	0.00278
1504.91	0.0021733
1514.55	0.0019489
1524.2	0.0020577
1533.85	0.0023281
1543.49	0.00308
1553.14	0.00461
1562.79	0.00696
1572.43	0.01223
1582.08	0.02576
1591.73	0.03133
1601.37	0.01963
1611.02	0.01233
1620.67	0.00952
1630.31	0.00591
1639.96	0.00389
1649.6	0.00358
1659.25	0.00413
1668.9	0.00537
1678.54	0.0083
1688.19	0.01299
1697.84	0.01647
1707.48	0.02451
1717.13	0.06533
1726.78	0.08857
1736.42	0.0389
1746.07	0.01661
1755.72	0.0149
1765.36	0.00999
1775.01	0.00475
1784.66	0.00298
1794.3	0.0025465
1803.95	0.0023555
1813.6	0.0020325
1823.24	0.0018201
1832.89	0.001949
1842.54	0.0020961
1852.18	0.0021704
1861.83	0.001979
1871.47	0.0018404
1881.12	0.0018677
1890.77	0.0019958
1900.41	0.0020842
1910.06	0.0019498
1919.71	0.0018386
1929.35	0.0015585
1939	0.0014919
1948.65	0.00157508
1958.29	0.00164012
1967.94	0.00160623
1977.59	0.0015351
1987.23	0.001409
1996.88	0.001268
2006.53	0.001247
2016.17	0.001243
2025.82	0.001146
2035.47	0.001204
2045.11	0.001211
2054.76	0.001173
2064.41	0.001081
2074.05	0.001064
2083.7	0.001062
2093.35	0.001108
2102.99	0.001081
2112.64	0.001078
2122.28	0.001066
2131.93	0.001067
2141.58	0.001094
2151.22	0.001135
2160.87	0.001151
2170.52	0.001145
2180.16	0.001167
2189.81	0.001254
2199.46	0.001217
2209.1	0.001277
2218.75	0.0012
2228.4	0.001207
2238.04	0.00115
2247.69	0.001226
2257.34	0.001278
2266.98	0.00127
2276.63	0.001321
2286.28	0.001275
2295.92	0.00126
2305.57	0.001162
2315.22	0.001182
2324.86	0.001196
2334.51	0.001188
2344.16	0.001251
2353.8	0.001249
2363.45	0.00118
2373.09	0.001122
2382.74	0.001106
2392.39	0.001126
2402.03	0.001091
2411.68	0.001105
2421.33	0.001138
2430.97	0.001079
2440.62	0.001051
2450.27	0.001008
2459.91	0.001032
2469.56	0.001063
2479.21	0.000957
2488.85	0.00093
2498.5	0.000958
2508.15	0.000875
2517.79	0.000878
2527.44	0.00084
2537.09	0.000823
2546.73	0.000849
2556.38	0.0008
2566.03	0.000844
2575.67	0.000813
2585.32	0.00084
2594.96	0.000786
2604.61	0.000786
2614.26	0.000834
2623.9	0.000838
2633.55	0.000771
2643.2	0.000746
2652.84	0.00075
2662.49	0.000787
2672.14	0.000675
2681.78	0.000727
2691.43	0.00066
2701.08	0.000619
2710.72	0.00058
2720.37	0.000657
2730.02	0.000616
2739.66	0.000646
2749.31	0.000696
2758.96	0.000619
2768.6	0.00056
2778.25	0.000627
2787.9	0.000733
2797.54	0.000671
2807.19	0.00054
2816.84	0.00047
2826.48	0.00041
2836.13	0.00049
2845.77	0.00034
2855.42	0.00036
2865.07	0.00039
2874.71	0.00037
2884.36	0.00041
2894.01	0.00044
2903.65	0.0004
2913.3	0.00047
2922.95	0.00052
2932.59	0.00049
2942.24	0.00045
2951.89	0.00048
2961.53	0.00044
2971.18	0.00045
2980.83	0.00032
2990.47	0.00036
3000.12	0.00028
3009.77	0.0003
3019.41	0.00036
3029.06	0.00053
3038.71	0.000927
3048.35	0.001222
3058	0.001328
3067.64	0.0019852
3077.29	0.00284
3086.94	0.00265
3096.58	0.001327
3106.23	0.000756
3115.88	0.00053
3125.52	0.00021
3135.17	0.00025
3144.82	0.00024
3154.46	0.00042
3164.11	0.00029
3173.76	0.00015
3183.4	0.00026
3193.05	0.00023
3202.7	0.00014
3212.34	0.00014
3221.99	0.00021
3231.64	0.00013
3241.28	0.00014
3250.93	0.00015
3260.58	0.00023
3270.22	0.00018
3279.87	0.00025
3289.52	0.00039
3299.16	0.00047
3308.81	0.00052
3318.45	0.00028
3328.1	0.00047
3337.75	0.00031
3347.39	0.00038
3357.04	0.00052
3366.69	0.000585
3376.33	0.000916
3385.98	0.001166
3395.63	0.0019097
3405.27	0.00283
3414.92	0.00464
3424.57	0.00813
3434.21	0.01049
3443.86	0.00752
3453.51	0.00323
3463.15	0.0019073
3472.8	0.001437
3482.45	0.001318
3492.09	0.001333
3501.74	0.00163156
3511.39	0.0022673
3521.03	0.0031
3530.68	0.00457
3540.33	0.00661
3549.97	0.00774
3559.62	0.00599
3569.26	0.00299
3578.91	0.0015418
3588.56	0.001261
3598.2	0.001054
3607.85	0.000944
3617.5	0.00084
3627.14	0.000883
3636.79	0.000781
3646.44	0.000831
3656.08	0.000919
3665.73	0.000783
3675.38	0.000967
3685.02	0.000906
3694.67	0.000748
3704.32	0.000852
3713.96	0.000969
3723.61	0.000838
3733.26	0.000912
3742.9	0.000967
3752.55	0.000844
3762.2	0.000757
3771.84	0.000754
3781.49	0.000897
3791.13	0.00086
3800.78	0.000914
3810.43	0.000705
3820.07	0.000889
3829.72	0.000846
3839.37	0.000963
3849.01	0.000941
3858.66	0.000893
3868.31	0.000774
3877.95	0.000768
3887.6	0.00084
3897.25	0.000838
3906.89	0.000891
3916.54	0.000864
3926.19	0.000884
3935.83	0.000868
3945.48	0.00078
3955.13	0.000888
3964.77	0.000838
3974.42	0.000865
3984.07	0.000927
3993.71	0.000868
