Infrared Spectrum: 10-Phenyldecanoic acid
Formula: C 16 H 24 O 2
CAS: 18017-73-7
State: gas
Origin: EPA-IR VAPOR PHASE LIBRARY
1/CM	ABSORBANCE
549.8	0.00359
559.445	0.00486
569.09	0.00548
578.734	0.00387
588.379	0.00516
598.024	0.00502
607.669	0.00495
617.313	0.00497
626.958	0.00388
636.603	0.00362
646.248	0.0027
655.893	0.00251
665.537	0.00296
675.182	0.00333
684.827	0.00433
694.472	0.00755
704.116	0.00615
713.761	0.0049
723.406	0.00506
733.051	0.00562
742.695	0.00583
752.34	0.00418
761.985	0.00256
771.63	0.0021218
781.275	0.0016268
790.919	0.0013834
800.564	0.00120706
810.209	0.001703
819.854	0.00266
829.498	0.000799
839.143	0.00089
848.788	0.0013589
858.433	0.0017006
868.078	0.0020266
877.722	0.0015924
887.367	0.0017726
897.012	0.001785
906.657	0.00216
916.301	0.0020269
925.946	0.002068
935.591	0.0018241
945.236	0.0015933
954.88	0.0019172
964.525	0.0019703
974.17	0.0019519
983.815	0.0018275
993.46	0.00261
1003.1	0.00215
1012.75	0.00339
1022.39	0.0039
1032.04	0.00441
1041.68	0.00421
1051.33	0.00389
1060.97	0.00443
1070.62	0.00584
1080.26	0.00738
1089.91	0.00745
1099.55	0.00825
1109.2	0.0096
1118.84	0.01092
1128.49	0.0097
1138.13	0.00789
1147.78	0.00695
1157.42	0.00557
1167.07	0.00561
1176.71	0.00395
1186.36	0.00316
1196	0.00229
1205.64	0.00311
1215.29	0.000519
1224.93	0.000429
1234.58	0.000944
1244.22	0.000892
1253.87	0.0019018
1263.51	0.0020002
1273.16	0.0015405
1282.8	0.0021371
1292.45	0.00227
1302.09	0.00244
1311.74	0.00293
1321.38	0.00275
1331.03	0.00297
1340.67	0.00374
1350.32	0.00433
1359.96	0.00461
1369.61	0.00487
1379.25	0.00474
1388.9	0.00422
1398.54	0.00308
1408.18	0.0025
1417.83	0.0022
1427.47	0.00264
1437.12	0.00322
1446.76	0.00422
1456.41	0.00473
1466.05	0.00396
1475.7	0.00258
1485.34	0.0027
1494.99	0.00372
1504.63	0.00227
1514.28	0.0013769
1523.92	0.0017426
1533.57	0.001376
1543.21	0.0014746
1552.86	0.0014552
1562.5	0.0012847
1572.15	0.0013758
1581.79	0.0014486
1591.44	0.0018098
1601.08	0.0023
1610.73	0.0019523
1620.37	0.00113329
1630.01	0.0010817
1639.66	0.000983
1649.3	0.00119544
1658.95	0.00116337
1668.59	0.0012791
1678.24	0.0013789
1687.88	0.0016386
1697.53	0.0013026
1707.17	0.0022
1716.82	0.0025
1726.46	0.00355
1736.11	0.00518
1745.75	0.00815
1755.4	0.01196
1765.04	0.01804
1774.69	0.02493
1784.33	0.02129
1793.98	0.01375
1803.62	0.00875
1813.27	0.00488
1822.91	0.00308
1832.55	0.0019756
1842.2	0.0016192
1851.84	0.0016935
1861.49	0.0015656
1871.13	0.0015156
1880.78	0.0015156
1890.42	0.0013203
1900.07	0.0014773
1909.71	0.0014422
1919.36	0.001478
1929	0.0012416
1938.65	0.0017147
1948.29	0.0017529
1957.94	0.0015787
1967.58	0.0014754
1977.23	0.0013878
1986.87	0.0014336
1996.52	0.0014746
2006.16	0.0014872
2015.81	0.0014585
2025.45	0.0015404
2035.1	0.0014804
2044.74	0.0014068
2054.38	0.0015486
2064.03	0.0015459
2073.67	0.0015363
2083.32	0.0014881
2092.96	0.0014623
2102.61	0.0012481
2112.25	0.0013919
2121.9	0.001363
2131.54	0.0013157
2141.19	0.001538
2150.83	0.00139
2160.48	0.0014346
2170.12	0.0016513
2179.77	0.0016758
2189.41	0.001409
2199.06	0.0015051
2208.7	0.001629
2218.35	0.0015859
2227.99	0.0015738
2237.64	0.0015362
2247.28	0.0016533
2256.92	0.0013668
2266.57	0.0015997
2276.21	0.0015634
2285.86	0.0014509
2295.5	0.0018808
2305.15	0.0017232
2314.79	0.0017569
2324.44	0.0016159
2334.08	0.0016209
2343.73	0.0017299
2353.37	0.0018308
2363.02	0.0016524
2372.66	0.0017544
2382.31	0.0014709
2391.95	0.0017515
2401.6	0.0016802
2411.24	0.0014841
2420.89	0.0015257
2430.53	0.0015993
2440.18	0.0015912
2449.82	0.0020083
2459.47	0.0013866
2469.11	0.0017125
2478.75	0.0018911
2488.4	0.0013136
2498.04	0.001736
2507.69	0.0016932
2517.33	0.0020556
2526.98	0.0016747
2536.62	0.0015323
2546.27	0.0016168
2555.91	0.0015954
2565.56	0.0016227
2575.2	0.0016299
2584.85	0.0015458
2594.49	0.0017123
2604.14	0.0015726
2613.78	0.0016909
2623.43	0.0018744
2633.07	0.001928
2642.72	0.0016579
2652.36	0.0020311
2662.01	0.00213
2671.65	0.0020493
2681.29	0.0020226
2690.94	0.0017812
2700.58	0.0017626
2710.23	0.0017897
2719.87	0.0019209
2729.52	0.0020924
2739.16	0.0019365
2748.81	0.00217
2758.45	0.0018176
2768.1	0.0022
2777.74	0.0020545
2787.39	0.00217
2797.03	0.00244
2806.68	0.0027
2816.32	0.0029
2825.97	0.00302
2835.61	0.00392
2845.26	0.00514
2854.9	0.01049
2864.55	0.01536
2874.19	0.01093
2883.84	0.00802
2893.48	0.00746
2903.12	0.00997
2912.77	0.01487
2922.41	0.02428
2932.06	0.03649
2941.7	0.03254
2951.35	0.01925
2960.99	0.01037
2970.64	0.00687
2980.28	0.00525
2989.93	0.00406
2999.57	0.00375
3009.22	0.00366
3018.86	0.00457
3028.51	0.00667
3038.15	0.00596
3047.8	0.00416
3057.44	0.004
3067.09	0.00563
3076.73	0.00505
3086.38	0.00427
3096.02	0.00321
3105.67	0.00258
3115.31	0.0017918
3124.95	0.00226
3134.6	0.001932
3144.24	0.0017788
3153.89	0.0016588
3163.53	0.0020743
3173.18	0.0018852
3182.82	0.0015344
3192.47	0.00217
3202.11	0.0013915
3211.76	0.0014323
3221.4	0.00121393
3231.05	0.002118
3240.69	0.0019086
3250.34	0.0016938
3259.98	0.0013578
3269.63	0.0013618
3279.27	0.0015348
3288.92	0.0017867
3298.56	0.0012857
3308.21	0.0019332
3317.85	0.0014281
3327.49	0.0013066
3337.14	0.001178
3346.78	0.0013573
3356.43	0.0019834
3366.07	0.0014369
3375.72	0.0012528
3385.36	0.0013345
3395.01	0.0011159
3404.65	0.0010736
3414.3	0.00146
3423.94	0.00113648
3433.59	0.0013922
3443.23	0.0017386
3452.88	0.0012843
3462.52	0.0011215
3472.17	0.0016066
3481.81	0.000912
3491.46	0.0018238
3501.1	0.0012557
3510.75	0.0014039
3520.39	0.0019051
3530.04	0.00118439
3539.68	0.00215
3549.32	0.00293
3558.97	0.00365
3568.61	0.0081
3578.26	0.01024
3587.9	0.00407
3597.55	0.00225
3607.19	0.0017926
3616.84	0.0014821
3626.48	0.000785
3636.13	0.00113105
3645.77	0.001299
3655.42	0.00120672
3665.06	0.0017133
3674.71	0.000796
3684.35	0.0011237
3694	0.0012575
3703.64	0.000778
3713.29	0.000938
3722.93	0.0016836
3732.58	0.0014415
3742.22	0.000674
3751.86	0.0013198
3761.51	0.00118066
3771.15	0.0013173
3780.8	0.00078
3790.44	0.0012758
3800.09	0.0013822
3809.73	0.0013495
3819.38	0.0010538
3829.02	0.0014168
3838.67	0.0016187
3848.31	0.0013795
3857.96	0.0016416
3867.6	0.000888
3877.25	0.0012575
3886.89	0.0017173
3896.54	0.00115238
3906.18	0.0016735
3915.83	0.0017508
3925.47	0.0014214
3935.12	0.0015714
3944.76	0.0012148
3954.41	0.0019341
3964.05	0.0016174
3973.69	0.0013004
3983.34	0.0017878
3992.98	0.00115598
