Infrared Spectrum: SILANE, (TRIISOPROPYLOXY)VINYL-
Formula: C11 H24 O3 Si
CAS: 18023-33-1
State: SOLUTION (5% CCl4 FOR 3800-1330, 5% CS2 FOR 1330-400)
Boiling point: 179 C
Class: COBLENTZ III
Instrument: BECKMAN IR-9 (GRATING)
Instrument parameters: ORDER CHANGES: 670, 1200, 2000 CM^-^1
Sampling: TRANSMISSION
Path length: 0.011 CM, 0.011 CM
Resolution: 2
Origin: DOW CHEMICAL COMPANY
1/CM	TRANSMITTANCE
403	0.1051
412	0.2487
421	0.4714
430	0.5184
439	0.5499
448	0.5595
457	0.5487
466	0.5933
475	0.6676
484	0.7037
493	0.6892
502	0.6958
511	0.7453
520	0.7728
529	0.7761
538	0.7322
547	0.6265
556	0.6008
565	0.7686
574	0.809
583	0.831
592	0.8393
601	0.8418
610	0.8412
619	0.8344
628	0.8174
637	0.7834
646	0.761
655	0.7851
664	0.8169
673	0.8342
682	0.8211
691	0.816
700	0.8051
709	0.7912
718	0.7526
727	0.6258
736	0.3955
745	0.3014
754	0.2545
763	0.2451
772	0.4775
781	0.6821
790	0.7793
799	0.8183
808	0.8357
817	0.8466
826	0.8496
835	0.8321
844	0.7537
853	0.6957
862	0.6176
871	0.4957
880	0.5224
889	0.3662
898	0.7024
907	0.7884
916	0.8008
925	0.8001
934	0.8024
943	0.8012
952	0.7242
961	0.5374
970	0.7034
979	0.7531
988	0.733
997	0.6415
1006	0.4302
1015	0.2131
1024	0.1008
1033	0.024
1042	0.0108
1051	0.0164
1060	0.2592
1069	0.4519
1078	0.5809
1087	0.6282
1096	0.6266
1105	0.3966
1114	0.0763
1123	0.0535
1132	0.0836
1141	0.2323
1150	0.3033
1159	0.3218
1168	0.2275
1177	0.3137
1186	0.6556
1195	0.7208
1204	0.7617
1213	0.7948
1222	0.8085
1231	0.8147
1240	0.8165
1249	0.8191
1258	0.8214
1267	0.8044
1276	0.7754
1285	0.8287
1294	0.8349
1303	0.8312
1312	0.8195
1321	0.7967
1330	0.7768
1339	0.7474
1348	0.6868
1357	0.6359
1366	0.3512
1375	0.4927
1384	0.3828
1393	0.7271
1402	0.6385
1411	0.7526
1420	0.8039
1429	0.8115
1438	0.7918
1447	0.6756
1456	0.729
1465	0.5775
1474	0.788
1483	0.8026
1492	0.7878
1501	0.7494
1510	0.7024
1519	0.6553
1528	0.5994
1537	0.5187
1546	0.4507
1555	0.4726
1564	0.5555
1573	0.5968
1582	0.6106
1591	0.6504
1600	0.7378
1609	0.816
1618	0.8404
1627	0.8574
1636	0.8642
1645	0.8688
1654	0.8718
1663	0.8734
1672	0.8742
1681	0.8742
1690	0.8753
1699	0.8821
1708	0.8852
1717	0.885
1726	0.8834
1735	0.8813
1744	0.8796
1753	0.8781
1762	0.8762
1771	0.8711
1780	0.8637
1789	0.8581
1798	0.8518
1807	0.8553
1816	0.8671
1825	0.8801
1834	0.8825
1843	0.8839
1852	0.8849
1861	0.8852
1870	0.885
1879	0.8846
1888	0.8837
1897	0.8824
1906	0.8807
1915	0.8786
1924	0.8724
1933	0.872
1942	0.879
1951	0.8895
1960	0.8909
1969	0.8914
1978	0.8918
1987	0.8921
1996	0.8917
2005	0.8984
2014	0.9006
2023	0.9012
2032	0.9028
2041	0.9042
2050	0.9051
2059	0.9042
2068	0.909
2077	0.9096
2086	0.9098
2095	0.9098
2104	0.9097
2113	0.9096
2122	0.9095
2131	0.9094
2140	0.9094
2149	0.9094
2158	0.9093
2167	0.9093
2176	0.9089
2185	0.9085
2194	0.9081
2203	0.9075
2212	0.9071
2221	0.9066
2230	0.9053
2239	0.9031
2248	0.8997
2257	0.895
2266	0.8908
2275	0.8868
2284	0.8831
2293	0.8815
2302	0.8844
2311	0.8896
2320	0.8948
2329	0.8992
2338	0.9045
2347	0.907
2356	0.9093
2365	0.9111
2374	0.9096
2383	0.9068
2392	0.9046
2401	0.9039
2410	0.9065
2419	0.9067
2428	0.9066
2437	0.9062
2446	0.9057
2455	0.9051
2464	0.9043
2473	0.9031
2482	0.9018
2491	0.9004
2500	0.899
2509	0.8991
2518	0.8992
2527	0.9002
2536	0.9014
2545	0.9018
2554	0.9021
2563	0.9025
2572	0.9025
2581	0.9025
2590	0.9025
2599	0.9012
2608	0.8994
2617	0.8967
2626	0.8871
2635	0.8734
2644	0.8518
2653	0.8771
2662	0.8866
2671	0.8913
2680	0.8899
2689	0.885
2698	0.8837
2707	0.8845
2716	0.8839
2725	0.8765
2734	0.8778
2743	0.8796
2752	0.8811
2761	0.8821
2770	0.8816
2779	0.8802
2788	0.8781
2797	0.8682
2806	0.8521
2815	0.8428
2824	0.8438
2833	0.8437
2842	0.8331
2851	0.8089
2860	0.6915
2869	0.5869
2878	0.5737
2887	0.5529
2896	0.5572
2905	0.5962
2914	0.539
2923	0.4757
2932	0.4738
2941	0.6147
2950	0.5049
2959	0.3105
2968	0.1066
2977	0.2035
2986	0.5005
2995	0.6898
3004	0.766
3013	0.7718
3022	0.8305
3031	0.8421
3040	0.8449
3049	0.799
3058	0.7971
3067	0.8504
3076	0.8701
3085	0.8766
3094	0.8798
3103	0.8815
3112	0.8823
3121	0.8823
3130	0.8824
3139	0.8821
3148	0.8809
3157	0.8796
3166	0.8773
3175	0.8748
3184	0.87
3193	0.8678
3202	0.8673
3211	0.8686
3220	0.87
3229	0.8714
3238	0.8728
3247	0.8741
3256	0.8753
3265	0.8764
3274	0.8773
3283	0.8778
3292	0.8785
3301	0.8791
3310	0.8785
3319	0.8775
3328	0.8768
3337	0.876
3346	0.8753
3355	0.8746
3364	0.8744
3373	0.8742
3382	0.8741
3391	0.8741
3400	0.8742
3409	0.8743
3418	0.8744
3427	0.8746
3436	0.8748
3445	0.8751
3454	0.8753
3463	0.8756
3472	0.8764
3481	0.8771
3490	0.8778
3499	0.8784
3508	0.879
3517	0.8795
3526	0.8801
3535	0.8806
3544	0.8812
3553	0.8814
3562	0.8817
3571	0.882
3580	0.8828
3589	0.8837
3598	0.8845
3607	0.8854
3616	0.8861
3625	0.8867
3634	0.8874
3643	0.888
3652	0.888
3661	0.8881
3670	0.8882
3679	0.8882
3688	0.8886
3697	0.889
3706	0.8894
3715	0.8898
3724	0.8902
3733	0.8903
3742	0.8904
3751	0.8905
3760	0.8906
3769	0.8907
3778	0.8908
3787	0.8908
3796	0.8908
