Infrared Spectrum: (p-TRIMETHYLSILOXY)TRIMETHYLSILYL BENZENE
Formula: C12 H22 O Si2
CAS: 18036-81-2
State: LIQUID
Class: COBLENTZ
Instrument: Not specified, most likely a prism, grating, or hybrid spectrometer.
Sampling: TRANSMISSION
Path length: 0.003 CM
Resolution: 4
Origin: WYANDOTTE CHEMICALS CORP., WYANDOTTE, MICHIGAN, USA
MICROMETERS	TRANSMITTANCE
2.007	0.984
2.04784	0.976
2.08867	0.974
2.12951	0.97
2.17034	0.96
2.21118	0.924
2.25201	0.959
2.29285	0.947
2.33368	0.967
2.37452	0.967
2.41535	0.959
2.45619	0.984
2.49702	0.981
2.53786	0.967
2.57869	0.926
2.61953	0.901
2.66036	0.901
2.7012	0.902
2.74203	0.909
2.78287	0.897
2.8237	0.906
2.86454	0.909
2.90537	0.901
2.94621	0.897
2.98704	0.89
3.02788	0.914
3.06871	0.909
3.10955	0.897
3.15038	0.877
3.19122	0.825
3.23205	0.655
3.27289	0.399
3.31372	0.525
3.35456	0.151
3.39539	0.276
3.43623	0.337
3.47706	0.616
3.5179	0.704
3.55873	0.757
3.59957	0.819
3.6404	0.912
3.68124	0.921
3.72207	0.935
3.76291	0.918
3.80374	0.947
3.84458	0.96
3.88541	0.957
3.92625	0.936
3.96708	0.928
4.00792	0.87
4.04875	0.865
4.08959	0.921
4.13042	0.97
4.17126	0.97
4.21209	0.972
4.25293	0.972
4.29376	0.948
4.3346	0.959
4.37543	0.967
4.41627	0.969
4.4571	0.97
4.49794	0.972
4.53877	0.967
4.57961	0.969
4.62044	0.964
4.66128	0.967
4.70211	0.959
4.74295	0.95
4.78378	0.918
4.82462	0.926
4.86545	0.943
4.90629	0.959
4.94713	0.969
4.98796	0.945
5.0288	0.899
5.06963	0.916
5.11047	0.93
5.1513	0.901
5.19214	0.815
5.23297	0.824
5.27381	0.923
5.31464	0.933
5.35548	0.894
5.39631	0.819
5.43715	0.902
5.47798	0.938
5.51882	0.953
5.55965	0.935
5.60049	0.911
5.64132	0.841
5.68216	0.854
5.72299	0.87
5.76383	0.88
5.80466	0.883
5.8455	0.878
5.88633	0.843
5.92717	0.843
5.968	0.854
6.00884	0.844
6.04967	0.839
6.09051	0.802
6.13134	0.74
6.17218	0.561
6.21301	0.182
6.25385	0.083
6.29468	0.023
6.33552	0.076
6.37635	0.392
6.41719	0.641
6.45802	0.689
6.49886	0.691
6.53969	0.677
6.58053	0.655
6.62136	0.573
6.6622	0.375
6.70303	0.032
6.74387	0.105
6.7847	0.36
6.82554	0.31
6.86637	0.283
6.90721	0.281
6.94804	0.337
6.98888	0.343
7.02971	0.182
7.07055	0.044
7.11138	0.03
7.15222	0.063
7.19305	0.279
7.23389	0.564
7.27472	0.602
7.31556	0.609
7.35639	0.639
7.39723	0.624
7.43806	0.585
7.4789	0.602
7.51973	0.566
7.56057	0.426
7.6014	0.269
7.64224	0.204
7.68307	0.242
7.72391	0.216
7.76474	0.066
7.80558	0.025
7.84642	0.025
7.88725	0.029
7.92809	0.029
7.96892	0.03
8.00976	0.029
8.05059	0.03
8.09143	0.03
8.13226	0.071
8.1731	0.216
8.21393	0.44
8.25477	0.547
8.2956	0.616
8.33644	0.65
8.37727	0.663
8.41811	0.616
8.45894	0.547
8.49978	0.518
8.54061	0.503
8.58145	0.491
8.62228	0.725
8.66312	0.715
8.70395	0.616
8.74479	0.66
8.78562	0.711
8.82646	0.687
8.86729	0.571
8.90813	0.348
8.94896	0.069
8.9898	0.095
9.03063	0.397
9.07147	0.568
9.1123	0.656
9.15314	0.715
9.19397	0.73
9.23481	0.703
9.27564	0.616
9.31648	0.619
9.35731	0.716
9.39815	0.745
9.43898	0.749
9.47982	0.744
9.52065	0.742
9.56149	0.749
9.60232	0.745
9.64316	0.749
9.68399	0.757
9.72483	0.767
9.76566	0.752
9.8065	0.749
9.84733	0.703
9.88817	0.651
9.929	0.544
9.96984	0.162
10.0107	0.271
10.0515	0.489
10.0923	0.539
10.1332	0.59
10.174	0.616
10.2148	0.588
10.2557	0.53
10.2965	0.421
10.3374	0.281
10.3782	0.146
10.419	0.047
10.4599	0.032
10.5007	0.03
10.5415	0.023
10.5824	0.032
10.6232	0.03
10.664	0.063
10.7049	0.15
10.7457	0.264
10.7865	0.351
10.8274	0.401
10.8682	0.397
10.909	0.354
10.9499	0.339
10.9907	0.315
11.0316	0.278
11.0724	0.203
11.1132	0.114
11.1541	0.1
11.1949	0.104
11.2357	0.11
11.2766	0.09
11.3174	0.068
11.3582	0.042
11.3991	0.037
11.4399	0.034
11.4807	0.032
11.5216	0.035
11.5624	0.032
11.6032	0.03
11.6441	0.029
11.6849	0.032
11.7257	0.023
11.7666	0.029
11.8074	0.032
11.8483	0.032
11.8891	0.029
11.9299	0.029
11.9708	0.039
12.0116	0.03
12.0524	0.029
12.0933	0.027
12.1341	0.029
12.1749	0.035
12.2158	0.039
12.2566	0.054
12.2974	0.075
12.3383	0.107
12.3791	0.15
12.4199	0.179
12.4608	0.203
12.5016	0.211
12.5424	0.189
12.5833	0.121
12.6241	0.063
12.665	0.047
12.7058	0.046
12.7466	0.073
12.7875	0.098
12.8283	0.133
12.8691	0.172
12.91	0.187
12.9508	0.17
12.9916	0.126
13.0325	0.078
13.0733	0.049
13.1141	0.034
13.155	0.037
13.1958	0.039
13.2366	0.039
13.2775	0.039
13.3183	0.039
13.3591	0.044
13.4	0.061
13.4408	0.098
13.4817	0.146
13.5225	0.189
13.5633	0.22
13.6042	0.255
13.645	0.288
13.6858	0.325
13.7267	0.351
13.7675	0.389
13.8083	0.418
13.8492	0.438
13.89	0.455
13.9308	0.464
13.9717	0.47
14.0125	0.465
14.0533	0.462
14.0942	0.457
14.135	0.438
14.1759	0.414
14.2167	0.378
14.2575	0.348
14.2984	0.291
14.3392	0.23
14.38	0.174
14.4209	0.122
14.4617	0.11
14.5025	0.1
14.5434	0.098
14.5842	0.114
14.625	0.151
14.6659	0.199
14.7067	0.264
14.7475	0.315
14.7884	0.365
14.8292	0.39
14.87	0.407
14.9109	0.416
14.9517	0.418
14.9926	0.431
15.0334	0.436
15.0742	0.45
15.1151	0.489
15.1559	0.53
15.1967	0.551
15.2376	0.566
15.2784	0.573
15.3192	0.575
15.3601	0.578
15.4009	0.576
15.4417	0.576
15.4826	0.571
15.5234	0.558
15.5642	0.546
15.6051	0.542
15.6459	0.535
15.6867	0.527
15.7276	0.52
15.7684	0.511
15.8093	0.496
15.8501	0.488
15.8909	0.481
15.9318	0.47
15.9726	0.453
