Infrared Spectrum: (m-TRIMETHYLSILOXY)-TRIMETHYLSILYL BENZENE
Formula: C12 H22 O Si2
CAS: 18036-82-3
State: LIQUID
Class: COBLENTZ
Instrument: Not specified, most likely a prism, grating, or hybrid spectrometer.
Sampling: TRANSMISSION
Path length: 0.003 CM
Resolution: 4
Origin: WYANDOTTE CHEMICALS CORP., WYANDOTTE, MICHIGAN, USA
MICROMETERS	TRANSMITTANCE
2.027	0.969
2.06784	0.962
2.10868	0.951
2.14951	0.958
2.19035	0.929
2.23119	0.915
2.27203	0.941
2.31287	0.934
2.3537	0.948
2.39454	0.943
2.43538	0.945
2.47622	0.951
2.51706	0.962
2.55789	0.934
2.59873	0.895
2.63957	0.878
2.68041	0.883
2.72125	0.885
2.76208	0.89
2.80292	0.85
2.84376	0.85
2.8846	0.849
2.92544	0.802
2.96627	0.79
3.00711	0.855
3.04795	0.873
3.08879	0.859
3.12963	0.845
3.17046	0.821
3.2113	0.778
3.25214	0.531
3.29298	0.391
3.33382	0.5
3.37465	0.058
3.41549	0.385
3.45633	0.324
3.49717	0.67
3.53801	0.706
3.57884	0.74
3.61968	0.833
3.66052	0.891
3.70136	0.909
3.7422	0.905
3.78303	0.897
3.82387	0.931
3.86471	0.934
3.90555	0.931
3.94639	0.922
3.98722	0.898
4.02806	0.833
4.0689	0.857
4.10974	0.915
4.15058	0.938
4.19141	0.939
4.23225	0.948
4.27309	0.958
4.31393	0.945
4.35477	0.936
4.3956	0.945
4.43644	0.95
4.47728	0.943
4.51812	0.939
4.55896	0.939
4.59979	0.943
4.64063	0.938
4.68147	0.936
4.72231	0.929
4.76315	0.921
4.80398	0.897
4.84482	0.909
4.88566	0.924
4.9265	0.934
4.96734	0.933
5.00817	0.898
5.04901	0.878
5.08985	0.91
5.13069	0.91
5.17153	0.866
5.21236	0.79
5.2532	0.845
5.29404	0.919
5.33488	0.91
5.37572	0.845
5.41655	0.842
5.45739	0.897
5.49823	0.919
5.53907	0.922
5.57991	0.915
5.62074	0.879
5.66158	0.833
5.70242	0.84
5.74326	0.845
5.7841	0.852
5.82493	0.862
5.86577	0.85
5.90661	0.801
5.94745	0.811
5.98829	0.828
6.02912	0.816
6.06996	0.806
6.1108	0.761
6.15164	0.668
6.19248	0.468
6.23331	0.145
6.27415	0.077
6.31499	0.049
6.35583	0.087
6.39667	0.461
6.4375	0.639
6.47834	0.674
6.51918	0.67
6.56002	0.651
6.60086	0.622
6.64169	0.511
6.68253	0.315
6.72337	0.044
6.76421	0.145
6.80505	0.356
6.84588	0.286
6.88672	0.274
6.92756	0.269
6.9684	0.329
7.00924	0.279
7.05007	0.157
7.09091	0.058
7.13175	0.044
7.17259	0.075
7.21343	0.396
7.25426	0.584
7.2951	0.6
7.33594	0.605
7.37678	0.626
7.41762	0.598
7.45845	0.572
7.49929	0.584
7.54013	0.506
7.58097	0.37
7.62181	0.228
7.66264	0.178
7.70348	0.212
7.74432	0.173
7.78516	0.073
7.826	0.041
7.86683	0.039
7.90767	0.037
7.94851	0.039
7.98935	0.039
8.03018	0.037
8.07102	0.041
8.11186	0.039
8.1527	0.078
8.19354	0.231
8.23437	0.404
8.27521	0.49
8.31605	0.548
8.35689	0.583
8.39773	0.548
8.43856	0.473
8.4794	0.38
8.52024	0.397
8.56108	0.396
8.60192	0.564
8.64275	0.651
8.68359	0.547
8.72443	0.466
8.76527	0.629
8.80611	0.66
8.84694	0.61
8.88778	0.487
8.92862	0.228
8.96946	0.063
9.0103	0.19
9.05113	0.545
9.09197	0.662
9.13281	0.72
9.17365	0.742
9.21449	0.739
9.25532	0.67
9.29616	0.6
9.337	0.665
9.37784	0.749
9.41868	0.768
9.45951	0.771
9.50035	0.77
9.54119	0.77
9.58203	0.754
9.62287	0.749
9.6637	0.756
9.70454	0.758
9.74538	0.749
9.78622	0.739
9.82706	0.704
9.86789	0.663
9.90873	0.59
9.94957	0.421
9.99041	0.094
10.0312	0.305
10.0721	0.403
10.1129	0.48
10.1538	0.543
10.1946	0.562
10.2354	0.548
10.2763	0.497
10.3171	0.384
10.358	0.246
10.3988	0.111
10.4396	0.049
10.4805	0.042
10.5213	0.042
10.5621	0.042
10.603	0.041
10.6438	0.042
10.6847	0.082
10.7255	0.176
10.7663	0.271
10.8072	0.344
10.848	0.392
10.8888	0.392
10.9297	0.349
10.9705	0.312
11.0114	0.283
11.0522	0.24
11.093	0.156
11.1339	0.109
11.1747	0.104
11.2155	0.114
11.2564	0.123
11.2972	0.113
11.3381	0.082
11.3789	0.06
11.4197	0.051
11.4606	0.044
11.5014	0.049
11.5423	0.051
11.5831	0.046
11.6239	0.046
11.6648	0.049
11.7056	0.048
11.7464	0.042
11.7873	0.048
11.8281	0.046
11.869	0.042
11.9098	0.051
11.9506	0.046
11.9915	0.049
12.0323	0.044
12.0731	0.049
12.114	0.041
12.1548	0.048
12.1957	0.051
12.2365	0.054
12.2773	0.08
12.3182	0.101
12.359	0.142
12.3999	0.176
12.4407	0.204
12.4815	0.221
12.5224	0.228
12.5632	0.178
12.604	0.113
12.6449	0.068
12.6857	0.058
12.7266	0.07
12.7674	0.087
12.8082	0.118
12.8491	0.159
12.8899	0.183
12.9307	0.195
12.9716	0.168
13.0124	0.137
13.0533	0.109
13.0941	0.072
13.1349	0.056
13.1758	0.051
13.2166	0.051
13.2574	0.051
13.2983	0.054
13.3391	0.058
13.38	0.068
13.4208	0.089
13.4616	0.132
13.5025	0.173
13.5433	0.217
13.5842	0.248
13.625	0.274
13.6658	0.308
13.7067	0.336
13.7475	0.367
13.7883	0.409
13.8292	0.432
13.87	0.452
13.9109	0.461
13.9517	0.48
13.9925	0.478
14.0334	0.48
14.0742	0.469
14.115	0.457
14.1559	0.444
14.1967	0.423
14.2376	0.391
14.2784	0.351
14.3192	0.293
14.3601	0.234
14.4009	0.188
14.4417	0.157
14.4826	0.144
14.5234	0.138
14.5643	0.144
14.6051	0.164
14.6459	0.19
14.6868	0.238
14.7276	0.3
14.7685	0.355
14.8093	0.392
14.8501	0.409
14.891	0.418
14.9318	0.428
14.9726	0.435
15.0135	0.445
15.0543	0.464
15.0952	0.48
15.136	0.528
15.1768	0.542
15.2177	0.569
15.2585	0.578
15.2993	0.579
15.3402	0.586
15.381	0.588
15.4219	0.581
15.4627	0.578
15.5035	0.564
15.5444	0.564
15.5852	0.562
15.6261	0.559
15.6669	0.547
15.7077	0.543
15.7486	0.528
15.7894	0.521
15.8302	0.519
15.8711	0.507
15.9119	0.497
15.9528	0.487
15.9936	0.478
