Infrared Spectrum: p-XENYLTRICHLOROSILANE
Formula: C12 H9 Cl3 Si
CAS: 18030-61-0
State: SOLUTION (6% IN CCl4 FOR 3800-1260, 2% IN CS2 FOR 1260-630, AND 6% IN CCl4 FOR 630-250 CM^-^1)
Boiling point: 325 C
Class: COBLENTZ III
Instrument: PERKIN-ELMER 521 (GRATING)
Instrument parameters: FILTERS AT 3150, 2500, 2000, 1150, 700, 410. GRATING CHANGES: 2000, 630 CM^-^1
Sampling: TRANSMISSION
Path length: 0.011 CM, 0.011 CM, AND 0.021 CM
Resolution: 2
Origin: DOW CORNING CORP.
1/CM	TRANSMITTANCE
232.22	0.846
241.593	0.846
250.966	0.843
260.34	0.812
269.713	0.769
279.086	0.73
288.459	0.885
297.832	0.906
307.205	0.902
316.579	0.904
325.952	0.888
335.325	0.897
344.698	0.897
354.071	0.899
363.445	0.897
372.818	0.896
382.191	0.89
391.564	0.849
400.937	0.782
410.311	0.779
419.684	0.871
429.057	0.877
438.43	0.877
447.803	0.878
457.176	0.877
466.55	0.877
475.923	0.877
485.296	0.877
494.669	0.857
504.042	0.843
513.416	0.82
522.789	0.829
532.162	0.716
541.535	0.559
550.908	0.82
560.281	0.837
569.655	0.8
579.028	0.688
588.401	0.21
597.774	0.221
607.147	0.684
616.521	0.84
625.894	0.851
635.267	0.828
644.64	0.853
654.013	0.834
663.387	0.411
672.76	0.837
682.133	0.833
691.506	0.743
700.879	0.699
710.252	0.848
719.626	0.81
728.999	0.844
738.372	0.858
747.745	0.831
757.118	0.405
766.492	0.734
775.865	0.86
785.238	0.849
794.611	0.863
803.984	0.86
813.358	0.851
822.731	0.821
832.104	0.6951
841.477	0.856
850.85	0.858
860.223	0.857
869.597	0.856
878.97	0.849
888.343	0.861
897.716	0.858
907.089	0.849
916.463	0.86
925.836	0.862
935.209	0.863
944.582	0.861
953.955	0.864
963.328	0.862
972.702	0.861
982.075	0.858
991.448	0.844
1000.82	0.834
1010.19	0.835
1019.57	0.832
1028.94	0.828
1038.31	0.821
1047.69	0.81
1057.06	0.797
1066.43	0.785
1075.81	0.779
1085.18	0.783
1094.55	0.768
1103.93	0.761
1113.3	0.713
1122.67	0.3412
1132.05	0.765
1141.42	0.791
1150.79	0.799
1160.17	0.812
1169.54	0.821
1178.91	0.826
1188.28	0.839
1197.66	0.846
1207.03	0.854
1216.4	0.86
1225.78	0.865
1235.15	0.871
1244.52	0.877
1253.9	0.883
1263.27	0.888
1272.64	0.886
1282.02	0.883
1291.39	0.89
1300.76	0.885
1310.14	0.87
1319.51	0.881
1328.88	0.883
1338.26	0.876
1347.63	0.885
1357	0.879
1366.38	0.858
1375.75	0.766
1385.12	0.777
1394.5	0.771
1403.87	0.865
1413.24	0.89
1422.61	0.895
1431.99	0.883
1441.36	0.819
1450.73	0.885
1460.11	0.875
1469.48	0.856
1478.85	0.6939
1488.23	0.863
1497.6	0.876
1506.97	0.886
1516.35	0.888
1525.72	0.877
1535.09	0.853
1544.47	0.85
1553.84	0.889
1563.21	0.881
1572.59	0.869
1581.96	0.846
1591.33	0.5989
1600.71	0.6521
1610.08	0.877
1619.45	0.893
1628.82	0.892
1638.2	0.892
1647.57	0.89
1656.94	0.884
1666.32	0.872
1675.69	0.889
1685.06	0.899
1694.44	0.902
1703.81	0.904
1713.18	0.905
1722.56	0.905
1731.93	0.904
1741.3	0.896
1750.68	0.891
1760.05	0.899
1769.42	0.897
1778.8	0.892
1788.17	0.893
1797.54	0.886
1806.92	0.881
1816.29	0.9
1825.66	0.903
1835.03	0.904
1844.41	0.904
1853.78	0.903
1863.15	0.899
1872.53	0.886
1881.9	0.89
1891.27	0.89
1900.65	0.897
1910.02	0.892
1919.39	0.868
1928.77	0.895
1938.14	0.893
1947.51	0.889
1956.89	0.897
1966.26	0.902
1975.63	0.91
1985.01	0.91
1994.38	0.91
2003.75	0.914
2013.13	0.919
2022.5	0.9191
2031.87	0.919
2041.24	0.918
2050.62	0.918
2059.99	0.918
2069.36	0.917
2078.74	0.914
2088.11	0.913
2097.48	0.9134
2106.86	0.9166
2116.23	0.914
2125.6	0.913
2134.98	0.912
2144.35	0.912
2153.72	0.9126
2163.1	0.9153
2172.47	0.916
2181.84	0.916
2191.22	0.916
2200.59	0.914
2209.96	0.912
2219.34	0.9101
2228.71	0.909
2238.08	0.9089
2247.45	0.911
2256.83	0.911
2266.2	0.911
2275.57	0.911
2284.95	0.9112
2294.32	0.911
2303.69	0.911
2313.07	0.911
2322.44	0.9146
2331.81	0.917
2341.19	0.9166
2350.56	0.913
2359.93	0.911
2369.31	0.911
2378.68	0.911
2388.05	0.911
2397.43	0.912
2406.8	0.912
2416.17	0.912
2425.55	0.911
2434.92	0.91
2444.29	0.909
2453.66	0.9098
2463.04	0.912
2472.41	0.9111
2481.78	0.9071
2491.16	0.906
2500.53	0.904
2509.9	0.9041
2519.28	0.907
2528.65	0.91
2538.02	0.911
2547.4	0.911
2556.77	0.909
2566.14	0.907
2575.52	0.9047
2584.89	0.903
2594.26	0.9034
2603.64	0.905
2613.01	0.9065
2622.38	0.91
2631.76	0.91
2641.13	0.909
2650.5	0.907
2659.88	0.907
2669.25	0.907
2678.62	0.9085
2687.99	0.909
2697.37	0.9062
2706.74	0.899
2716.11	0.9026
2725.49	0.906
2734.86	0.906
2744.23	0.906
2753.61	0.906
2762.98	0.905
2772.35	0.905
2781.73	0.9048
2791.1	0.904
2800.47	0.905
2809.85	0.905
2819.22	0.905
2828.59	0.903
2837.97	0.903
2847.34	0.903
2856.71	0.903
2866.09	0.9025
2875.46	0.902
2884.83	0.902
2894.2	0.9026
2903.58	0.904
2912.95	0.904
2922.32	0.9005
2931.7	0.8972
2941.07	0.896
2950.44	0.896
2959.82	0.893
2969.19	0.891
2978.56	0.89
2987.94	0.885
2997.31	0.882
3006.68	0.8717
3016.06	0.84
3025.43	0.7558
3034.8	0.8166
3044.18	0.82
3053.55	0.7969
3062.92	0.7876
3072.3	0.7829
3081.67	0.8428
3091.04	0.8587
3100.41	0.876
3109.79	0.877
3119.16	0.8866
3128.53	0.897
3137.91	0.898
3147.28	0.898
3156.65	0.898
3166.03	0.898
3175.4	0.899
3184.77	0.9
3194.15	0.9
3203.52	0.9
3212.89	0.9
3222.27	0.9
3231.64	0.9
3241.01	0.899
3250.39	0.8999
3259.76	0.9
3269.13	0.902
3278.51	0.902
3287.88	0.902
3297.25	0.902
3306.62	0.902
3316	0.9
3325.37	0.9
3334.74	0.9
3344.12	0.902
3353.49	0.899
3362.86	0.899
3372.24	0.899
3381.61	0.899
3390.98	0.899
3400.36	0.899
3409.73	0.899
3419.1	0.899
3428.48	0.899
3437.85	0.899
3447.22	0.9
3456.6	0.9
3465.97	0.9
3475.34	0.9
3484.72	0.9
3494.09	0.9
3503.46	0.902
3512.83	0.902
3522.21	0.902
3531.58	0.902
3540.95	0.902
3550.33	0.902
3559.7	0.9
3569.07	0.9
3578.45	0.9
3587.82	0.9
3597.19	0.9
3606.57	0.8985
3615.94	0.8964
3625.31	0.8966
3634.69	0.899
3644.06	0.8983
3653.43	0.8936
3662.81	0.892
3672.18	0.8928
3681.55	0.896
3690.93	0.8999
3700.3	0.902
3709.67	0.899
3719.05	0.9
3728.42	0.902
3737.79	0.9031
3747.16	0.9041
3756.54	0.905
3765.91	0.905
3775.28	0.904
