Infrared Spectrum: 3Beta,17Beta-DIACETOXY-5Alpha-ANDROSTAN-16-YLIDENACETIC ACID
Formula: C25 H36 O6
CAS: 18039-58-2
State: SOLUTION 7% (CHCl3 FOR 2.5-12.5 microns)
Melting point: 214-215 C
Class: COBLENTZ
Instrument: PERKIN-ELMER 421 (GRATING)
Instrument parameters: GRATING CHANGE AT 1999 CM^-^
Path length: 0.01 CM
Resolution: 2
Origin: ABBOTT LABORATORIES
1/CM	TRANSMITTANCE
679	0.9789
688	0.9801
697	0.9765
706	0.9693
715	0.9619
724	0.9538
733	0.9487
742	0.9472
751	0.9482
760	0.9495
769	0.9514
778	0.954
787	0.9583
796	0.9479
805	0.915
814	0.8797
823	0.8423
832	0.8283
841	0.8295
850	0.7997
859	0.7588
868	0.6579
877	0.6869
886	0.74
895	0.7481
904	0.7389
913	0.724
922	0.7556
931	0.7343
940	0.729
949	0.6951
958	0.6924
967	0.7241
976	0.7048
985	0.6655
994	0.6612
1003	0.5928
1012	0.4893
1021	0.3063
1030	0.3393
1039	0.3472
1048	0.4937
1057	0.4535
1066	0.5919
1075	0.673
1084	0.7037
1093	0.7104
1102	0.7305
1111	0.7093
1120	0.6354
1129	0.5804
1138	0.6568
1147	0.5747
1156	0.5513
1165	0.6579
1174	0.6664
1183	0.5275
1192	0.3163
1201	0.1051
1210	0.0682
1219	0.0656
1228	0.0633
1237	0.0648
1246	0.0774
1255	0.101
1264	0.182
1273	0.3907
1282	0.5405
1291	0.5108
1300	0.5608
1309	0.6155
1318	0.5699
1327	0.5932
1336	0.665
1345	0.6608
1354	0.5214
1363	0.3268
1372	0.3388
1381	0.4206
1390	0.5728
1399	0.6024
1408	0.5182
1417	0.4595
1426	0.5162
1435	0.5455
1444	0.5521
1453	0.6919
1462	0.7074
1471	0.7946
1480	0.8586
1489	0.8778
1498	0.891
1507	0.9007
1516	0.9026
1525	0.8974
1534	0.8862
1543	0.8834
1552	0.87
1561	0.869
1570	0.8529
1579	0.8302
1588	0.8136
1597	0.7957
1606	0.7351
1615	0.6809
1624	0.6235
1633	0.4471
1642	0.2768
1651	0.2598
1660	0.3211
1669	0.2874
1678	0.1522
1687	0.1419
1696	0.1987
1705	0.1184
1714	0.0897
1723	0.0868
1732	0.1304
1741	0.3003
1750	0.5698
1759	0.7223
1768	0.7805
1777	0.7989
1786	0.8164
1795	0.8335
1804	0.8415
1813	0.859
1822	0.8672
1831	0.87
1840	0.8754
1849	0.8852
1858	0.8881
1867	0.8904
1876	0.892
1885	0.8927
1894	0.8933
1903	0.8923
1912	0.8916
1921	0.8941
1930	0.8978
1939	0.8983
1948	0.9006
1957	0.8989
1966	0.8984
1975	0.8981
1984	0.8986
1993	0.8993
2002	0.9209
2011	0.9215
2020	0.9239
2029	0.922
2038	0.9243
2047	0.9232
2056	0.9224
2065	0.9223
2074	0.9222
2083	0.9231
2092	0.9222
2101	0.9176
2110	0.919
2119	0.9181
2128	0.9146
2137	0.9109
2146	0.9109
2155	0.9116
2164	0.9131
2173	0.9126
2182	0.9129
2191	0.9141
2200	0.9164
2209	0.9171
2218	0.9156
2227	0.9095
2236	0.9054
2245	0.903
2254	0.9019
2263	0.901
2272	0.9003
2281	0.9003
2290	0.9006
2299	0.9009
2308	0.9013
2317	0.9014
2326	0.9012
2335	0.9008
2344	0.9
2353	0.8992
2362	0.899
2371	0.8995
2380	0.9004
2389	0.9023
2398	0.8879
2407	0.865
2416	0.857
2425	0.8436
2434	0.8243
2443	0.8104
2452	0.8034
2461	0.7982
2470	0.7931
2479	0.7873
2488	0.7831
2497	0.7789
2506	0.7665
2515	0.7522
2524	0.7379
2533	0.725
2542	0.7186
2551	0.7152
2560	0.7176
2569	0.7233
2578	0.73
2587	0.7325
2596	0.7395
2605	0.7278
2614	0.7145
2623	0.7019
2632	0.6928
2641	0.6917
2650	0.6976
2659	0.7048
2668	0.709
2677	0.7077
2686	0.7066
2695	0.7051
2704	0.7016
2713	0.6969
2722	0.6935
2731	0.6944
2740	0.6974
2749	0.7017
2758	0.7049
2767	0.7008
2776	0.6907
2785	0.6772
2794	0.6586
2803	0.6367
2812	0.6136
2821	0.573
2830	0.5151
2839	0.4229
2848	0.3144
2857	0.3464
2866	0.4154
2875	0.4303
2884	0.4141
2893	0.3714
2902	0.3119
2911	0.2524
2920	0.2095
2929	0.1976
2938	0.1994
2947	0.2549
2956	0.3424
2965	0.3611
2974	0.3713
2983	0.4136
2992	0.4629
3001	0.4752
3010	0.4813
3019	0.4845
3028	0.5025
3037	0.5367
3046	0.5637
3055	0.5775
3064	0.5833
3073	0.5884
3082	0.5932
3091	0.5992
3100	0.6056
3109	0.6115
3118	0.6173
3127	0.6232
3136	0.6316
3145	0.6408
3154	0.6514
3163	0.6617
3172	0.6719
3181	0.6821
3190	0.693
3199	0.7039
3208	0.7134
3217	0.7227
3226	0.7318
3235	0.7402
3244	0.7482
3253	0.7555
3262	0.7626
3271	0.7697
3280	0.7768
3289	0.7841
3298	0.7933
3307	0.7995
3316	0.8049
3325	0.8107
3334	0.8165
3343	0.8224
3352	0.8278
3361	0.8321
3370	0.836
3379	0.8397
3388	0.8379
3397	0.8369
3406	0.8394
3415	0.844
3424	0.8452
3433	0.8473
3442	0.8501
3451	0.8523
3460	0.853
3469	0.8535
3478	0.8526
3487	0.8434
3496	0.8365
3505	0.8298
3514	0.8312
3523	0.8341
3532	0.8458
3541	0.8674
3550	0.8724
3559	0.8757
3568	0.8765
3577	0.8774
3586	0.8898
3595	0.8902
3604	0.8916
3613	0.8954
3622	0.9009
3631	0.9001
3640	0.8921
3649	0.8863
3658	0.8869
3667	0.8919
3676	0.8978
3685	0.8991
3694	0.8996
3703	0.8997
3712	0.8993
3721	0.8992
3730	0.8992
3739	0.8993
3748	0.8995
3757	0.9006
3766	0.9009
3775	0.9004
3784	0.9001
3793	0.8992
3802	0.8974
3811	0.8966
3820	0.8936
3829	0.8906
3838	0.8903
3847	0.8899
3856	0.8894
3865	0.8886
3874	0.8886
3883	0.8888
3892	0.8893
