Infrared Spectrum: 2-PHENYLDIMETHYLSILYL-3-METHYL PYRAZINE
Formula: C13 H16 N2 Si
CAS: 18052-90-9
State: LIQUID
Class: COBLENTZ
Instrument: Not specified, most likely a prism, grating, or hybrid spectrometer.
Sampling: TRANSMISSION
Path length: 0.0015 CM
Resolution: 4
Origin: WYANDOTTE CHEMICALS CORP., WYANDOTTE, MICHIGAN, USA
MICROMETERS	TRANSMITTANCE
2.053	0.965
2.09287	0.946
2.13274	0.951
2.17261	0.945
2.21247	0.928
2.25234	0.951
2.29221	0.945
2.33208	0.945
2.37195	0.935
2.41182	0.933
2.45169	0.953
2.49155	0.958
2.53142	0.96
2.57129	0.961
2.61116	0.933
2.65103	0.926
2.6909	0.93
2.73077	0.938
2.77063	0.948
2.8105	0.941
2.85037	0.94
2.89024	0.936
2.93011	0.931
2.96998	0.925
3.00985	0.925
3.04971	0.923
3.08958	0.905
3.12945	0.881
3.16932	0.848
3.20919	0.775
3.24906	0.359
3.28893	0.384
3.32879	0.47
3.36866	0.256
3.40853	0.61
3.4484	0.647
3.48827	0.806
3.52814	0.851
3.56801	0.878
3.60787	0.916
3.64774	0.938
3.68761	0.945
3.72748	0.946
3.76735	0.96
3.80722	0.965
3.84709	0.966
3.88695	0.971
3.92682	0.975
3.96669	0.978
4.00656	0.978
4.04643	0.96
4.0863	0.966
4.12617	0.973
4.16603	0.978
4.2059	0.976
4.24577	0.955
4.28564	0.938
4.32551	0.953
4.36538	0.971
4.40525	0.985
4.44511	0.978
4.48498	0.976
4.52485	0.968
4.56472	0.971
4.60459	0.973
4.64446	0.981
4.68433	0.981
4.72419	0.98
4.76406	0.98
4.80393	0.978
4.8438	0.975
4.88367	0.971
4.92354	0.965
4.96341	0.96
5.00327	0.96
5.04314	0.961
5.08301	0.943
5.12288	0.905
5.16275	0.846
5.20262	0.876
5.24249	0.891
5.28235	0.895
5.32222	0.86
5.36209	0.873
5.40196	0.943
5.44183	0.936
5.4817	0.915
5.52157	0.851
5.56143	0.891
5.6013	0.926
5.64117	0.915
5.68104	0.898
5.72091	0.916
5.76078	0.928
5.80065	0.91
5.84051	0.9
5.88038	0.89
5.92025	0.896
5.96012	0.9
5.99999	0.878
6.03986	0.846
6.07973	0.853
6.11959	0.851
6.15946	0.815
6.19933	0.788
6.2392	0.645
6.27907	0.795
6.31894	0.828
6.35881	0.81
6.39867	0.723
6.43854	0.7
6.47841	0.763
6.51828	0.747
6.55815	0.65
6.59802	0.735
6.63789	0.725
6.67775	0.579
6.71762	0.7
6.75749	0.697
6.79736	0.658
6.83723	0.56
6.8771	0.442
6.91697	0.371
6.95683	0.234
6.9967	0.183
7.03657	0.319
7.07644	0.301
7.11631	0.314
7.15618	0.402
7.19605	0.339
7.23591	0.158
7.27578	0.419
7.31565	0.306
7.35552	0.311
7.39539	0.635
7.43526	0.7
7.47513	0.672
7.51499	0.7
7.55486	0.653
7.59473	0.653
7.6346	0.663
7.67447	0.622
7.71434	0.72
7.75421	0.728
7.79407	0.688
7.83394	0.63
7.87381	0.372
7.91368	0.099
7.95355	0.038
7.99342	0.048
8.03329	0.204
8.07315	0.54
8.11302	0.678
8.15289	0.727
8.19276	0.743
8.23263	0.748
8.2725	0.733
8.31237	0.705
8.35223	0.557
8.3921	0.509
8.43197	0.685
8.47184	0.718
8.51171	0.713
8.55158	0.698
8.59145	0.667
8.63131	0.615
8.67118	0.572
8.71105	0.442
8.75092	0.341
8.79079	0.331
8.83066	0.331
8.87053	0.217
8.91039	0.034
8.95026	0.041
8.99013	0.083
9.03	0.158
9.06987	0.163
9.10974	0.143
9.14961	0.146
9.18947	0.129
9.22934	0.089
9.26921	0.069
9.30908	0.051
9.34895	0.043
9.38882	0.039
9.42869	0.043
9.46855	0.046
9.50842	0.051
9.54829	0.053
9.58816	0.059
9.62803	0.079
9.6679	0.111
9.70777	0.113
9.74763	0.111
9.7875	0.181
9.82737	0.249
9.86724	0.351
9.90711	0.445
9.94698	0.524
9.98685	0.435
10.0267	0.319
10.0666	0.577
10.1065	0.603
10.1463	0.597
10.1862	0.567
10.2261	0.489
10.2659	0.449
10.3058	0.477
10.3457	0.565
10.3855	0.633
10.4254	0.685
10.4653	0.71
10.5051	0.727
10.545	0.738
10.5849	0.74
10.6247	0.74
10.6646	0.737
10.7045	0.725
10.7443	0.7
10.7842	0.668
10.8241	0.64
10.864	0.633
10.9038	0.632
10.9437	0.632
10.9836	0.648
11.0234	0.68
11.0633	0.697
11.1032	0.69
11.143	0.66
11.1829	0.64
11.2228	0.643
11.2626	0.637
11.3025	0.623
11.3424	0.602
11.3822	0.57
11.4221	0.53
11.462	0.48
11.5019	0.397
11.5417	0.326
11.5816	0.196
11.6215	0.084
11.6613	0.048
11.7012	0.066
11.7411	0.093
11.7809	0.109
11.8208	0.111
11.8607	0.096
11.9005	0.063
11.9404	0.038
11.9803	0.031
12.0201	0.028
12.06	0.028
12.0999	0.029
12.1397	0.034
12.1796	0.039
12.2195	0.044
12.2594	0.036
12.2992	0.029
12.3391	0.029
12.379	0.031
12.4188	0.034
12.4587	0.041
12.4986	0.044
12.5384	0.039
12.5783	0.036
12.6182	0.036
12.658	0.036
12.6979	0.036
12.7378	0.034
12.7776	0.033
12.8175	0.034
12.8574	0.049
12.8973	0.106
12.9371	0.189
12.977	0.229
13.0169	0.249
13.0567	0.301
13.0966	0.361
13.1365	0.402
13.1763	0.424
13.2162	0.424
13.2561	0.387
13.2959	0.329
13.3358	0.239
13.3757	0.163
13.4155	0.119
13.4554	0.111
13.4953	0.109
13.5351	0.099
13.575	0.083
13.6149	0.069
13.6548	0.064
13.6946	0.059
13.7345	0.063
13.7744	0.078
13.8142	0.104
13.8541	0.151
13.894	0.209
13.9338	0.274
13.9737	0.316
14.0136	0.329
14.0534	0.316
14.0933	0.267
14.1332	0.196
14.173	0.124
14.2129	0.091
14.2528	0.071
14.2927	0.068
14.3325	0.071
14.3724	0.078
14.4123	0.098
14.4521	0.126
14.492	0.181
14.5319	0.256
14.5717	0.352
14.6116	0.43
14.6515	0.49
14.6913	0.534
14.7312	0.559
14.7711	0.572
14.8109	0.579
14.8508	0.574
14.8907	0.567
14.9305	0.55
14.9704	0.517
15.0103	0.489
15.0502	0.47
15.09	0.489
15.1299	0.535
15.1698	0.592
15.2096	0.637
15.2495	0.682
15.2894	0.703
15.3292	0.713
15.3691	0.698
15.409	0.672
15.4488	0.637
15.4887	0.597
15.5286	0.579
15.5684	0.577
15.6083	0.569
15.6482	0.579
15.6881	0.615
15.7279	0.653
15.7678	0.692
15.8077	0.713
15.8475	0.723
15.8874	0.73
15.9273	0.732
15.9671	0.728
16.007	0.73
