Infrared Spectrum: 1,3-BIS(P-TOLYL)1,1,3,3-TETRAMETHYL DISILOXANE
Formula: C18 H26 O Si2
CAS: 18055-70-4
State: LIQUID
Boiling point: 145-155 C AT 2-3 mmHg
Class: COBLENTZ
Instrument: Not specified, most likely a prism, grating, or hybrid spectrometer.
Sampling: TRANSMISSION
Path length: 0.003 CM
Resolution: 4
Origin: WYANDOTTE CHEMICALS CORP., WYANDOTTE, MICHIGAN, USA
MICROMETERS	TRANSMITTANCE
2.027	1.006
2.06677	1.008
2.10654	1.008
2.14631	1.003
2.18609	0.998
2.22586	0.995
2.26563	0.995
2.3054	0.996
2.34517	0.996
2.38494	0.991
2.42472	0.983
2.46449	0.98
2.50426	0.98
2.54403	0.978
2.5838	0.976
2.62357	0.971
2.66334	0.96
2.70312	0.953
2.74289	0.948
2.78266	0.948
2.82243	0.955
2.8622	0.958
2.90197	0.958
2.94175	0.96
2.98152	0.955
3.02129	0.95
3.06106	0.925
3.10083	0.933
3.1406	0.913
3.18037	0.902
3.22015	0.852
3.25992	0.665
3.29969	0.48
3.33946	0.491
3.37923	0.246
3.419	0.407
3.45878	0.554
3.49855	0.629
3.53832	0.764
3.57809	0.824
3.61786	0.852
3.65763	0.884
3.69741	0.884
3.73718	0.9
3.77695	0.913
3.81672	0.905
3.85649	0.905
3.89626	0.905
3.93603	0.905
3.97581	0.91
4.01558	0.905
4.05535	0.897
4.09512	0.903
4.13489	0.89
4.17466	0.9
4.21444	0.89
4.25421	0.897
4.29398	0.917
4.33375	0.923
4.37352	0.925
4.41329	0.892
4.45306	0.887
4.49284	0.894
4.53261	0.892
4.57238	0.884
4.61215	0.882
4.65192	0.882
4.69169	0.885
4.73147	0.89
4.77124	0.895
4.81101	0.882
4.85078	0.9
4.89055	0.89
4.93032	0.884
4.97009	0.88
5.00987	0.879
5.04964	0.879
5.08941	0.855
5.12918	0.869
5.16895	0.857
5.20872	0.844
5.2485	0.809
5.28827	0.759
5.32804	0.821
5.36781	0.855
5.40758	0.857
5.44735	0.859
5.48712	0.854
5.5269	0.842
5.56667	0.804
5.60644	0.837
5.64621	0.842
5.68598	0.839
5.72575	0.824
5.76553	0.826
5.8053	0.827
5.84507	0.832
5.88484	0.831
5.92461	0.826
5.96438	0.821
6.00416	0.807
6.04393	0.764
6.0837	0.758
6.12347	0.748
6.16324	0.438
6.20301	0.359
6.24278	0.67
6.28256	0.733
6.32233	0.761
6.3621	0.769
6.40187	0.758
6.44164	0.763
6.48141	0.754
6.52119	0.743
6.56096	0.668
6.60073	0.538
6.6405	0.632
6.68027	0.692
6.72004	0.685
6.75981	0.67
6.79959	0.615
6.83936	0.544
6.87913	0.5
6.9189	0.496
6.95867	0.566
6.99844	0.591
7.03822	0.538
7.07799	0.448
7.11776	0.437
7.15753	0.392
7.1973	0.49
7.23707	0.599
7.27684	0.67
7.31662	0.715
7.35639	0.721
7.39616	0.716
7.43593	0.695
7.4757	0.71
7.51547	0.741
7.55525	0.731
7.59502	0.567
7.63479	0.655
7.67456	0.716
7.71433	0.701
7.7541	0.68
7.79387	0.634
7.83365	0.529
7.87342	0.341
7.91319	0.062
7.95296	0.026
7.99273	0.064
8.0325	0.312
8.07228	0.552
8.11205	0.64
8.15182	0.685
8.19159	0.698
8.23136	0.685
8.27113	0.703
8.3109	0.725
8.35068	0.69
8.39045	0.571
8.43022	0.705
8.46999	0.731
8.50976	0.725
8.54953	0.698
8.58931	0.695
8.62908	0.677
8.66885	0.645
8.70862	0.617
8.74839	0.571
8.78816	0.511
8.82794	0.433
8.86771	0.321
8.90748	0.144
8.94725	0.036
8.98702	0.026
9.02679	0.082
9.06656	0.096
9.10634	0.067
9.14611	0.046
9.18588	0.031
9.22565	0.026
9.26542	0.024
9.30519	0.029
9.34497	0.026
9.38474	0.023
9.42451	0.023
9.46428	0.023
9.50405	0.024
9.54382	0.024
9.58359	0.026
9.62337	0.028
9.66314	0.031
9.70291	0.038
9.74268	0.057
9.78245	0.033
9.82222	0.064
9.862	0.127
9.90177	0.22
9.94154	0.301
9.98131	0.385
10.0211	0.448
10.0609	0.481
10.1006	0.524
10.1404	0.548
10.1802	0.589
10.2199	0.619
10.2597	0.64
10.2995	0.65
10.3393	0.66
10.379	0.668
10.4188	0.688
10.4586	0.692
10.4983	0.698
10.5381	0.698
10.5779	0.692
10.6177	0.687
10.6574	0.675
10.6972	0.652
10.737	0.625
10.7767	0.625
10.8165	0.615
10.8563	0.605
10.8961	0.605
10.9358	0.619
10.9756	0.637
11.0154	0.652
11.0551	0.655
11.0949	0.657
11.1347	0.66
11.1745	0.65
11.2142	0.644
11.254	0.627
11.2938	0.6
11.3335	0.582
11.3733	0.556
11.4131	0.521
11.4529	0.488
11.4926	0.447
11.5324	0.413
11.5722	0.354
11.6119	0.329
11.6517	0.276
11.6915	0.251
11.7313	0.198
11.771	0.168
11.8108	0.127
11.8506	0.1
11.8903	0.048
11.9301	0.028
11.9699	0.024
12.0097	0.028
12.0494	0.021
12.0892	0.023
12.129	0.039
12.1687	0.066
12.2085	0.097
12.2483	0.127
12.2881	0.127
12.3278	0.112
12.3676	0.082
12.4074	0.049
12.4471	0.038
12.4869	0.033
12.5267	0.029
12.5665	0.021
12.6062	0.024
12.646	0.024
12.6858	0.021
12.7255	0.023
12.7653	0.023
12.8051	0.021
12.8449	0.023
12.8846	0.026
12.9244	0.031
12.9642	0.061
13.0039	0.115
13.0437	0.203
13.0835	0.299
13.1233	0.382
13.163	0.438
13.2028	0.488
13.2426	0.523
13.2823	0.548
13.3221	0.567
13.3619	0.579
13.4017	0.584
13.4414	0.586
13.4812	0.589
13.521	0.589
13.5607	0.591
13.6005	0.61
13.6403	0.612
13.6801	0.629
13.7198	0.64
13.7596	0.645
13.7994	0.647
13.8392	0.649
13.8789	0.645
13.9187	0.619
13.9585	0.61
13.9982	0.577
14.038	0.536
14.0778	0.516
14.1176	0.504
14.1573	0.495
14.1971	0.485
14.2369	0.465
14.2766	0.442
14.3164	0.413
14.3562	0.382
14.396	0.38
14.4357	0.387
14.4755	0.395
14.5153	0.422
14.555	0.437
14.5948	0.448
14.6346	0.456
14.6744	0.463
14.7141	0.466
14.7539	0.475
14.7937	0.478
14.8334	0.47
14.8732	0.442
14.913	0.402
14.9528	0.367
14.9925	0.355
15.0323	0.387
15.0721	0.45
15.1118	0.521
15.1516	0.559
15.1914	0.597
15.2312	0.64
15.2709	0.672
15.3107	0.697
15.3505	0.708
15.3902	0.718
15.43	0.72
15.4698	0.726
15.5096	0.73
15.5493	0.728
15.5891	0.725
15.6289	0.721
15.6686	0.72
15.7084	0.68
15.7482	0.69
15.788	0.698
15.8277	0.7
15.8675	0.688
15.9073	0.695
15.947	0.703
15.9868	0.7
