Infrared Spectrum: 3,4-Dichlorobenzyl alcohol
Formula: C 7 H 6 Cl 2 O
CAS: 1805-32-9
State: gas
Origin: EPA-IR VAPOR PHASE LIBRARY
1/CM	ABSORBANCE
549.9	0.0008144
559.547	0.00068064
569.193	0.0008841
578.84	0.0010046
588.486	0.0009114
598.133	0.00078193
607.779	0.000691247
617.426	0.0006455
627.072	0.00067219
636.719	0.000663
646.365	0.00070839
656.012	0.000989
665.658	0.0010668
675.305	0.0013438
684.951	0.002042
694.598	0.002012
704.245	0.0013966
713.891	0.0011844
723.538	0.0009543
733.184	0.0008199
742.831	0.0007931
752.477	0.00072399
762.124	0.0007031
771.77	0.00067774
781.417	0.0008423
791.063	0.0012387
800.71	0.002402
810.356	0.004242
820.003	0.003782
829.649	0.002112
839.296	0.0013854
848.943	0.0016357
858.589	0.002302
868.236	0.003132
877.882	0.003232
887.529	0.002342
897.175	0.0015335
906.822	0.001184
916.468	0.0010394
926.115	0.0010646
935.761	0.0011609
945.408	0.0012968
955.054	0.0015288
964.701	0.001812
974.347	0.002012
983.994	0.002102
993.64	0.002432
1003.29	0.003152
1012.93	0.004452
1022.58	0.007272
1032.23	0.010022
1041.87	0.007782
1051.52	0.004512
1061.17	0.003222
1070.81	0.002342
1080.46	0.001702
1090.11	0.0013558
1099.75	0.0012127
1109.4	0.0014538
1119.05	0.002662
1128.69	0.004502
1138.34	0.004592
1147.99	0.003092
1157.63	0.002052
1167.28	0.001932
1176.92	0.002172
1186.57	0.002792
1196.22	0.003572
1205.86	0.003732
1215.51	0.002652
1225.16	0.001902
1234.8	0.0016294
1244.45	0.0016001
1254.1	0.0016733
1263.74	0.001712
1273.39	0.0015634
1283.04	0.0012824
1292.68	0.001274
1302.33	0.0012799
1311.98	0.0013102
1321.62	0.0013495
1331.27	0.0014437
1340.92	0.001742
1350.56	0.002132
1360.21	0.002812
1369.86	0.003572
1379.5	0.004072
1389.15	0.004662
1398.79	0.004662
1408.44	0.003472
1418.09	0.002232
1427.73	0.001682
1437.38	0.0016657
1447.03	0.002042
1456.67	0.003482
1466.32	0.006142
1475.97	0.005872
1485.61	0.002712
1495.26	0.0011379
1504.91	0.0009199
1514.55	0.0008356
1524.2	0.00077837
1533.85	0.0008235
1543.49	0.0009529
1553.14	0.001193
1562.79	0.0014085
1572.43	0.0012588
1582.08	0.0010545
1591.73	0.0011085
1601.37	0.0010498
1611.02	0.000905
1620.67	0.00076683
1630.31	0.00075555
1639.96	0.00075215
1649.6	0.0006604
1659.25	0.0006323
1668.9	0.00068084
1678.54	0.0006454
1688.19	0.0007293
1697.84	0.00073488
1707.48	0.00070871
1717.13	0.00076651
1726.78	0.0008282
1736.42	0.0008374
1746.07	0.0008551
1755.72	0.0008321
1765.36	0.0008197
1775.01	0.0007938
1784.66	0.0008036
1794.3	0.0008046
1803.95	0.000785
1813.6	0.0008315
1823.24	0.0008403
1832.89	0.00074789
1842.54	0.00073068
1852.18	0.00071098
1861.83	0.000685339
1871.47	0.00071744
1881.12	0.0008098
1890.77	0.000932
1900.41	0.0008467
1910.06	0.00077068
1919.71	0.0007361
1929.35	0.00071234
1939	0.00072011
1948.65	0.00073317
1958.29	0.00069577
1967.94	0.00069559
1977.59	0.00070099
1987.23	0.00067769
1996.88	0.00070513
2006.53	0.00074052
2016.17	0.00073804
2025.82	0.00075067
2035.47	0.00076294
2045.11	0.00074434
2054.76	0.00077893
2064.41	0.00075905
2074.05	0.00076742
2083.7	0.0007921
2093.35	0.00073644
2102.99	0.0007664
2112.64	0.0007886
2122.28	0.00076132
2131.93	0.00076621
2141.58	0.00074877
2151.22	0.00075669
2160.87	0.00077908
2170.52	0.00073343
2180.16	0.00076647
2189.81	0.00077942
2199.46	0.00073048
2209.1	0.00075674
2218.75	0.00077688
2228.4	0.00076704
2238.04	0.00077492
2247.69	0.00073634
2257.34	0.00075375
2266.98	0.00076917
2276.63	0.0007976
2286.28	0.00077347
2295.92	0.0008247
2305.57	0.00078157
2315.22	0.0007451
2324.86	0.0008033
2334.51	0.0008015
2344.16	0.0008106
2353.8	0.0007943
2363.45	0.00077561
2373.09	0.0007877
2382.74	0.0008266
2392.39	0.0008227
2402.03	0.0008091
2411.68	0.00077937
2421.33	0.0007628
2430.97	0.00076621
2440.62	0.00074881
2450.27	0.0007872
2459.91	0.00077121
2469.56	0.00082
2479.21	0.0008106
2488.85	0.00077352
2498.5	0.0008118
2508.15	0.0008527
2517.79	0.000815
2527.44	0.0008248
2537.09	0.0008146
2546.73	0.00078073
2556.38	0.0007965
2566.03	0.0007942
2575.67	0.000815
2585.32	0.00076689
2594.96	0.00076223
2604.61	0.0008681
2614.26	0.000849
2623.9	0.00077214
2633.55	0.0008603
2643.2	0.0008187
2652.84	0.0008337
2662.49	0.0008255
2672.14	0.0008607
2681.78	0.0008237
2691.43	0.0008005
2701.08	0.0008593
2710.72	0.0008849
2720.37	0.0008801
2730.02	0.0008806
2739.66	0.0008616
2749.31	0.0008353
2758.96	0.0008939
2768.6	0.0009052
2778.25	0.0009776
2787.9	0.0010442
2797.54	0.0010187
2807.19	0.0010613
2816.84	0.0010583
2826.48	0.0011117
2836.13	0.001324
2845.77	0.0014181
2855.42	0.001702
2865.07	0.002022
2874.71	0.002512
2884.36	0.002922
2894.01	0.002722
2903.65	0.002492
2913.3	0.002352
2922.95	0.002332
2932.59	0.002402
2942.24	0.002222
2951.89	0.002112
2961.53	0.001932
2971.18	0.0015354
2980.83	0.0012646
2990.47	0.00112
3000.12	0.00097
3009.77	0.0008162
3019.41	0.0008806
3029.06	0.0010135
3038.71	0.0010344
3048.35	0.0010345
3058	0.0011842
3067.64	0.0010424
3077.29	0.0009809
3086.94	0.0008622
3096.58	0.0006103
3106.23	0.000509
3115.88	0.000561
3125.52	0.000467
3135.17	0.000519
3144.82	0.000319
3154.46	0.00035
3164.11	0.000431
3173.76	0.000424
3183.4	0.000408
3193.05	0.000506
3202.7	0.000401
3212.34	0.000313
3221.99	0.000321
3231.64	0.000258
3241.28	0.00023
3250.93	0.000246
3260.58	0.000234
3270.22	0.000291
3279.87	0.00026
3289.52	0.000218
3299.16	0.000217
3308.81	0.000291
3318.45	0.00015
3328.1	0.000244
3337.75	0.000123
3347.39	0.000145
3357.04	0.000135
3366.69	0.0001
3376.33	0.000193
3385.98	0.000231
3395.63	0.000143
3405.27	0.000121
3414.92	0.000103
3424.57	0.000188
3434.21	0.000268
3443.86	0.00013
3453.51	0.000193
3463.15	0.000279
3472.8	0.00019
3482.45	0.000238
3492.09	0.000232
3501.74	0.000182
3511.39	0.000323
3521.03	0.000212
3530.68	0.000224
3540.33	0.000257
3549.97	0.000318
3559.62	0.00029
3569.26	0.000195
3578.91	0.000313
3588.56	0.000384
3598.2	0.000394
3607.85	0.000393
3617.5	0.0006661
3627.14	0.00075383
3636.79	0.0010349
3646.44	0.0013275
3656.08	0.001812
3665.73	0.001872
3675.38	0.0014138
3685.02	0.0010726
3694.67	0.0008117
3704.32	0.000569
3713.96	0.000547
3723.61	0.000556
3733.26	0.000508
3742.9	0.000372
3752.55	0.000576
3762.2	0.000488
3771.84	0.000482
3781.49	0.00042
3791.13	0.000506
3800.78	0.000495
3810.43	0.00046
3820.07	0.000508
3829.72	0.00055
3839.37	0.000441
3849.01	0.000546
3858.66	0.000535
3868.31	0.000509
3877.95	0.0006405
3887.6	0.000559
3897.25	0.000515
3906.89	0.00051
3916.54	0.000562
3926.19	0.000527
3935.83	0.0006061
3945.48	0.000427
3955.13	0.000463
3964.77	0.000565
3974.42	0.000563
3984.07	0.0006476
3993.71	0.000537
