Infrared Spectrum: ISOPROPYL CROTONATE
Formula: C7 H12 O2
CAS: 18060-77-0
Class: COBLENTZ
Instrument: Not specified, most likely a prism, grating, or hybrid spectrometer.
Sampling: TRANSMISSION
Path length: SMEAR
Resolution: 4
Origin: TENNESSEE EASTMAN COMPANY, RESEARCH LABORATORIES
MICROMETERS	TRANSMITTANCE
2.09	0.946
2.13131	0.946
2.17262	0.946
2.21393	0.941
2.25524	0.934
2.29655	0.926
2.33786	0.926
2.37918	0.927
2.42049	0.927
2.4618	0.929
2.50311	0.931
2.54442	0.936
2.58573	0.939
2.62704	0.938
2.66835	0.95
2.70966	0.933
2.75097	0.924
2.79228	0.912
2.83359	0.907
2.87491	0.902
2.91622	0.902
2.95753	0.898
2.99884	0.903
3.04015	0.905
3.08146	0.905
3.12277	0.905
3.16408	0.902
3.20539	0.9
3.2467	0.905
3.28801	0.864
3.32932	0.787
3.37064	0.473
3.41195	0.641
3.45326	0.828
3.49457	0.838
3.53588	0.898
3.57719	0.91
3.6185	0.922
3.65981	0.921
3.70112	0.915
3.74243	0.924
3.78374	0.926
3.82505	0.927
3.86637	0.926
3.90768	0.927
3.94899	0.926
3.9903	0.926
4.03161	0.927
4.07292	0.927
4.11423	0.929
4.15554	0.931
4.19685	0.933
4.23816	0.951
4.27947	0.96
4.32078	0.948
4.36209	0.912
4.40341	0.924
4.44472	0.926
4.48603	0.931
4.52734	0.929
4.56865	0.929
4.60996	0.929
4.65127	0.931
4.69258	0.931
4.73389	0.927
4.7752	0.924
4.81651	0.933
4.85782	0.931
4.89914	0.931
4.94045	0.926
4.98176	0.914
5.02307	0.927
5.06438	0.927
5.10569	0.927
5.147	0.926
5.18831	0.922
5.22962	0.926
5.27093	0.927
5.31224	0.917
5.35355	0.926
5.39487	0.919
5.43618	0.902
5.47749	0.9
5.5188	0.902
5.56011	0.9
5.60142	0.876
5.64273	0.862
5.68404	0.78
5.72535	0.672
5.76666	0.389
5.80797	0.125
5.84928	0.245
5.89059	0.542
5.93191	0.648
5.97322	0.656
6.01453	0.516
6.05584	0.444
6.09715	0.703
6.13846	0.816
6.17977	0.852
6.22108	0.869
6.26239	0.891
6.3037	0.898
6.34501	0.907
6.38632	0.9
6.42764	0.893
6.46895	0.907
6.51026	0.888
6.55157	0.898
6.59288	0.89
6.63419	0.874
6.6755	0.871
6.71681	0.859
6.75812	0.807
6.79943	0.643
6.84074	0.71
6.88205	0.6
6.92337	0.619
6.96468	0.746
7.00599	0.811
7.0473	0.828
7.08861	0.835
7.12992	0.828
7.17123	0.751
7.21254	0.638
7.25385	0.552
7.29516	0.576
7.33647	0.699
7.37778	0.656
7.4191	0.67
7.46041	0.687
7.50172	0.648
7.54303	0.68
7.58434	0.526
7.62565	0.355
7.66696	0.336
7.70827	0.368
7.74958	0.355
7.79089	0.468
7.8322	0.322
7.87351	0.346
7.91482	0.415
7.95614	0.584
7.99745	0.68
8.03876	0.749
8.08007	0.773
8.12138	0.775
8.16269	0.761
8.204	0.725
8.24531	0.653
8.28662	0.519
8.32793	0.313
8.36924	0.176
8.41055	0.18
8.45187	0.271
8.49318	0.42
8.53449	0.571
8.5758	0.665
8.61711	0.698
8.65842	0.699
8.69973	0.608
8.74104	0.607
8.78235	0.656
8.82366	0.65
8.86497	0.622
8.90628	0.507
8.9476	0.289
8.98891	0.181
9.03022	0.198
9.07153	0.307
9.11284	0.555
9.15415	0.696
9.19546	0.768
9.23677	0.801
9.27808	0.819
9.31939	0.828
9.3607	0.831
9.40201	0.835
9.44333	0.835
9.48464	0.833
9.52595	0.83
9.56726	0.826
9.60857	0.833
9.64988	0.837
9.69119	0.837
9.7325	0.835
9.77381	0.828
9.81512	0.777
9.85643	0.656
9.89774	0.475
9.93905	0.298
9.98037	0.351
10.0217	0.518
10.063	0.66
10.1043	0.699
10.1456	0.699
10.1869	0.636
10.2282	0.54
10.2695	0.464
10.3109	0.444
10.3522	0.545
10.3935	0.67
10.4348	0.737
10.4761	0.787
10.5174	0.807
10.5587	0.818
10.6	0.819
10.6413	0.816
10.6826	0.802
10.724	0.797
10.7653	0.801
10.8066	0.819
10.8479	0.825
10.8892	0.83
10.9305	0.83
10.9718	0.806
11.0131	0.756
11.0544	0.771
11.0958	0.823
11.1371	0.837
11.1784	0.85
11.2197	0.842
11.261	0.828
11.3023	0.821
11.3436	0.833
11.3849	0.859
11.4262	0.874
11.4676	0.879
11.5089	0.883
11.5502	0.885
11.5915	0.885
11.6328	0.885
11.6741	0.883
11.7154	0.876
11.7567	0.849
11.798	0.814
11.8394	0.756
11.8807	0.718
11.922	0.701
11.9633	0.735
12.0046	0.789
12.0459	0.821
12.0872	0.823
12.1285	0.823
12.1698	0.825
12.2111	0.849
12.2525	0.866
12.2938	0.873
12.3351	0.876
12.3764	0.881
12.4177	0.883
12.459	0.885
12.5003	0.885
12.5416	0.886
12.5829	0.886
12.6243	0.886
12.6656	0.888
12.7069	0.886
12.7482	0.886
12.7895	0.886
12.8308	0.886
12.8721	0.883
12.9134	0.881
12.9547	0.881
12.9961	0.879
13.0374	0.878
13.0787	0.876
13.12	0.873
13.1613	0.869
13.2026	0.867
13.2439	0.859
13.2852	0.843
13.3265	0.83
13.3679	0.814
13.4092	0.789
13.4505	0.787
13.4918	0.802
13.5331	0.819
13.5744	0.826
13.6157	0.828
13.657	0.83
13.6983	0.83
13.7396	0.83
13.781	0.83
13.8223	0.828
13.8636	0.826
13.9049	0.825
13.9462	0.821
13.9875	0.819
14.0288	0.814
14.0701	0.809
14.1114	0.802
14.1528	0.794
14.1941	0.787
14.2354	0.778
14.2767	0.766
14.318	0.751
14.3593	0.742
14.4006	0.718
14.4419	0.696
14.4832	0.679
14.5246	0.663
14.5659	0.662
14.6072	0.665
14.6485	0.679
14.6898	0.692
14.7311	0.698
14.7724	0.701
14.8137	0.704
14.855	0.706
14.8964	0.706
14.9377	0.706
14.979	0.708
15.0203	0.708
15.0616	0.71
15.1029	0.708
15.1442	0.701
15.1855	0.701
15.2268	0.701
15.2681	0.699
15.3095	0.696
15.3508	0.687
15.3921	0.684
15.4334	0.682
15.4747	0.68
15.516	0.679
15.5573	0.67
15.5986	0.668
15.6399	0.668
15.6813	0.668
15.7226	0.663
15.7639	0.662
15.8052	0.662
15.8465	0.662
15.8878	0.662
15.9291	0.66
15.9704	0.66
16.0117	0.66
