Infrared Spectrum: 2,6-Difluorobenzamide
Formula: C 7 H 5 F 2 N O
CAS: 18063-03-1
State: gas
Origin: EPA-IR VAPOR PHASE LIBRARY
1/CM	ABSORBANCE
549.8	0.01394
559.445	0.00517
569.09	0.00383
578.734	0.00509
588.379	0.0117
598.024	0.04165
607.669	0.04834
617.313	0.01982
626.958	0.01024
636.603	0.00727
646.248	0.00504
655.893	0.006
665.537	0.00781
675.182	0.00813
684.827	0.00701
694.472	0.00669
704.116	0.01156
713.761	0.02838
723.406	0.04168
733.051	0.02492
742.695	0.01983
752.34	0.0185
761.985	0.00948
771.63	0.01185
781.275	0.03697
790.919	0.07339
800.564	0.03475
810.209	0.01246
819.854	0.0084
829.498	0.0082
839.143	0.0111
848.788	0.02306
858.433	0.06186
868.078	0.13007
877.722	0.18407
887.367	0.16407
897.012	0.07827
906.657	0.02579
916.301	0.01387
925.946	0.01016
935.591	0.00934
945.236	0.0108
954.88	0.01101
964.525	0.00824
974.17	0.00585
983.815	0.00663
993.46	0.01091
1003.1	0.03192
1012.75	0.08676
1022.39	0.09683
1032.04	0.03904
1041.68	0.00899
1051.33	0.00548
1060.97	0.00489
1070.62	0.0034
1080.26	0.00297
1089.91	0.00232
1099.55	0.00181
1109.2	0.00268
1118.84	0.00255
1128.49	0.00348
1138.13	0.00419
1147.78	0.00553
1157.42	0.00798
1167.07	0.01383
1176.71	0.02338
1186.36	0.05132
1196	0.07992
1205.64	0.05187
1215.29	0.01927
1224.93	0.01932
1234.58	0.0435
1244.22	0.0631
1253.87	0.04188
1263.51	0.01274
1273.16	0.01339
1282.8	0.03129
1292.45	0.05168
1302.09	0.03164
1311.74	0.00754
1321.38	0.00485
1331.03	0.00387
1340.67	0.00298
1350.32	0.00281
1359.96	0.00323
1369.61	0.0038
1379.25	0.00373
1388.9	0.00278
1398.54	0.00248
1408.18	0.00311
1417.83	0.00386
1427.47	0.00466
1437.12	0.00711
1446.76	0.01551
1456.41	0.04583
1466.05	0.12346
1475.7	0.14445
1485.34	0.05809
1494.99	0.01827
1504.63	0.01075
1514.28	0.00721
1523.92	0.00788
1533.57	0.01148
1543.21	0.01558
1552.86	0.01803
1562.5	0.02137
1572.15	0.02718
1581.79	0.0425
1591.44	0.0625
1601.08	0.06531
1610.73	0.08419
1620.37	0.10889
1630.01	0.06239
1639.66	0.01674
1649.3	0.00705
1658.95	0.00562
1668.59	0.00491
1678.24	0.00424
1687.88	0.00406
1697.53	0.0049
1707.17	0.00742
1716.82	0.01077
1726.46	0.01453
1736.11	0.02195
1745.75	0.03278
1755.4	0.04165
1765.04	0.04573
1774.69	0.04814
1784.33	0.06532
1793.98	0.12657
1803.62	0.18423
1813.27	0.12255
1822.91	0.05293
1832.55	0.02778
1842.2	0.0177
1851.84	0.01076
1861.49	0.00631
1871.13	0.00413
1880.78	0.00403
1890.42	0.00405
1900.07	0.00301
1909.71	0.00279
1919.36	0.00436
1929	0.00473
1938.65	0.00275
1948.29	0.0016968
1957.94	0.0014946
1967.58	0.0013706
1977.23	0.0014512
1986.87	0.0015537
1996.52	0.0014269
2006.16	0.0012461
2015.81	0.0011637
2025.45	0.0012578
2035.1	0.0014619
2044.74	0.0015291
2054.38	0.0013835
2064.03	0.0016084
2073.67	0.00176
2083.32	0.0015342
2092.96	0.0010953
2102.61	0.0009562
2112.25	0.0008855
2121.9	0.000897
2131.54	0.0009043
2141.19	0.0008558
2150.83	0.0008815
2160.48	0.0008583
2170.12	0.0008834
2179.77	0.0009073
2189.41	0.0010799
2199.06	0.001174
2208.7	0.0011866
2218.35	0.0013918
2227.99	0.0013176
2237.64	0.0009842
2247.28	0.0010194
2256.92	0.0010552
2266.57	0.0011026
2276.21	0.0011978
2285.86	0.0014288
2295.5	0.00212
2305.15	0.00268
2314.79	0.00247
2324.44	0.0014788
2334.08	0.0013089
2343.73	0.0014237
2353.37	0.0012484
2363.02	0.0013878
2372.66	0.0012686
2382.31	0.0013444
2391.95	0.0012301
2401.6	0.0009622
2411.24	0.00077135
2420.89	0.0007249
2430.53	0.00083495
2440.18	0.0009327
2449.82	0.0008281
2459.47	0.0009885
2469.11	0.0010723
2478.75	0.0014792
2488.4	0.00181
2498.04	0.0014543
2507.69	0.0012062
2517.33	0.0015597
2526.98	0.00179
2536.62	0.00174
2546.27	0.0012456
2555.91	0.0009398
2565.56	0.0006986
2575.2	0.00080628
2584.85	0.0009085
2594.49	0.00078412
2604.14	0.00075969
2613.78	0.00076559
2623.43	0.000935
2633.07	0.0010911
2642.72	0.0010106
2652.36	0.0008603
2662.01	0.00078484
2671.65	0.0009111
2681.29	0.0009701
2690.94	0.0009103
2700.58	0.0010467
2710.23	0.001079
2719.87	0.0009884
2729.52	0.0010068
2739.16	0.0012542
2748.81	0.0015658
2758.45	0.0014013
2768.1	0.0012685
2777.74	0.000903
2787.39	0.0008535
2797.03	0.000629
2806.68	0.0006778
2816.32	0.0006486
2825.97	0.000518
2835.61	0.000456
2845.26	0.000547
2854.9	0.0006449
2864.55	0.0006604
2874.19	0.000539
2883.84	0.00077501
2893.48	0.0008302
2903.12	0.0007066
2912.77	0.000568
2922.41	0.000569
2932.06	0.0006829
2941.7	0.000443
2951.35	0.000443
2960.99	0.000473
2970.64	0.000426
2980.28	0.000631
2989.93	0.0007112
2999.57	0.00075212
3009.22	0.000725
3018.86	0.0009249
3028.51	0.0013917
3038.15	0.00199
3047.8	0.00187
3057.44	0.0010552
3067.09	0.0012078
3076.73	0.00186
3086.38	0.00278
3096.02	0.00224
3105.67	0.0013935
3115.31	0.00075216
3124.95	0.0007053
3134.6	0.0006
3144.24	0.000638
3153.89	0.0006767
3163.53	0.0006492
3173.18	0.000592
3182.82	0.000465
3192.47	0.000743776
3202.11	0.0006567
3211.76	0.00063
3221.4	0.0006438
3231.05	0.0008711
3240.69	0.0008647
3250.34	0.00057
3259.98	0.0008693
3269.63	0.0006695
3279.27	0.000564
3288.92	0.0007054
3298.56	0.000518
3308.21	0.000446
3317.85	0.0005
3327.49	0.000435
3337.14	0.000488
3346.78	0.000396
3356.43	0.000461
3366.07	0.00048
3375.72	0.000596
3385.36	0.000503
3395.01	0.000379
3404.65	0.000595
3414.3	0.000532
3423.94	0.0006447
3433.59	0.000646
3443.23	0.000398
3452.88	0.00078458
3462.52	0.00076932
3472.17	0.0008828
3481.81	0.0010282
3491.46	0.0008712
3501.1	0.001091
3510.75	0.0012483
3520.39	0.0011649
3530.04	0.0015843
3539.68	0.00206
3549.32	0.00246
3558.97	0.00275
3568.61	0.00235
3578.26	0.00212
3587.9	0.0017021
3597.55	0.00209
3607.19	0.002
3616.84	0.0016746
3626.48	0.0011823
3636.13	0.0011191
3645.77	0.0010803
3655.42	0.0009216
3665.06	0.00078897
3674.71	0.0006642
3684.35	0.0007698
3694	0.0006651
3703.64	0.00079155
3713.29	0.00078925
3722.93	0.000444
3732.58	0.00062
3742.22	0.000605
3751.86	0.000602
3761.51	0.000486
3771.15	0.0006917
3780.8	0.0006961
3790.44	0.0006481
3800.09	0.0006687
3809.73	0.0006813
3819.38	0.00077749
3829.02	0.0006491
3838.67	0.0007282
3848.31	0.0008554
3857.96	0.000629
3867.6	0.000505
3877.25	0.0007705
3886.89	0.0006533
3896.54	0.000578
3906.18	0.000401
3915.83	0.0008445
3925.47	0.0007219
3935.12	0.0006815
3944.76	0.000582
3954.41	0.00081836
3964.05	0.000634
3973.69	0.00080982
3983.34	0.000527
3992.98	0.0006765
