Infrared Spectrum: 4-Methoxycyclohexanol (c,t)
Formula: C 7 H 14 O 2
CAS: 18068-06-9
State: gas
Instrument: HP-GC/MS/IRD
Origin: NIST Mass Spectrometry Data Center
1/CM	ABSORBANCE
550	0.0001334
562	0.0001541
574	0.0001955
586	0.0004899
598	0.000552
610	0.0001863
622	0.0001196
634	8.51e-05
646	7.13e-05
658	0.0001932
670	0.0002783
682	0.0002116
694	0.0001817
706	5.98e-05
718	4.83e-05
730	6.9e-06
742	3.45e-05
754	2.53e-05
766	5.52e-05
778	0.000115
790	0.0001196
802	0.0001058
814	0.000161
826	0.0001725
838	0.0002553
850	0.0002967
862	0.0003749
874	0.0004554
886	0.0007107
898	0.0012581
910	0.0019573
922	0.0023552
934	0.0022057
946	0.0020838
958	0.0038479
970	0.0050462
982	0.0030958
994	0.0016583
1006	0.0016238
1018	0.0019412
1030	0.0022517
1042	0.0031993
1054	0.0065182
1066	0.0100073
1078	0.0096485
1090	0.0118266
1102	0.0156883
1114	0.0137839
1126	0.008464
1138	0.0056994
1150	0.0042987
1162	0.0032959
1174	0.0031119
1186	0.0035351
1198	0.0035121
1210	0.0030107
1222	0.0030337
1234	0.0030222
1246	0.0026335
1258	0.0022724
1270	0.0018745
1282	0.0013777
1294	0.0011546
1306	0.0011316
1318	0.0013248
1330	0.0016123
1342	0.0020976
1354	0.002783
1366	0.0039675
1378	0.0039307
1390	0.0024633
1402	0.0015065
1414	0.0010626
1426	0.0013248
1438	0.0023046
1450	0.0031165
1462	0.0027439
1474	0.0015686
1486	0.000736
1498	0.0003956
1510	0.0002461
1522	0.0002254
1534	0.0001909
1546	0.0001564
1558	0.000161
1570	0.0001748
1582	0.0001587
1594	0.0001357
1606	0.0001081
1618	9.43e-05
1630	8.05e-05
1642	6.21e-05
1654	8.51e-05
1666	5.06e-05
1678	5.52e-05
1690	3.91e-05
1702	2.99e-05
1714	3.22e-05
1726	1.38e-05
1738	4.37e-05
1750	5.29e-05
1762	4.83e-05
1774	4.6e-05
1786	3.22e-05
1798	3.68e-05
1810	1.61e-05
1822	2.3e-05
1834	1.84e-05
1846	2.3e-05
1858	1.84e-05
1870	0
1882	1.84e-05
1894	2.07e-05
1906	1.84e-05
1918	5.52e-05
1930	3.68e-05
1942	4.83e-05
1954	5.52e-05
1966	5.29e-05
1978	6.44e-05
1990	5.98e-05
2002	0.0001104
2014	0.000115
2026	0.0001495
2038	0.0001564
2050	0.0001357
2062	9.66e-05
2074	9.43e-05
2086	8.51e-05
2098	9.89e-05
2110	0.0001196
2122	0.0001334
2134	0.0001242
2146	0.000115
2158	7.82e-05
2170	8.74e-05
2182	8.74e-05
2194	9.89e-05
2206	7.59e-05
2218	6.9e-05
2230	5.75e-05
2242	4.37e-05
2254	4.37e-05
2266	4.6e-05
2278	3.45e-05
2290	2.3e-05
2302	3.91e-05
2314	2.76e-05
2326	3.68e-05
2338	4.14e-05
2350	6.9e-05
2362	5.75e-05
2374	3.68e-05
2386	3.68e-05
2398	4.6e-05
2410	7.82e-05
2422	6.44e-05
2434	4.83e-05
2446	6.44e-05
2458	8.28e-05
2470	8.74e-05
2482	6.67e-05
2494	7.82e-05
2506	7.13e-05
2518	8.97e-05
2530	9.43e-05
2542	0.0001081
2554	0.0001334
2566	0.0001495
2578	0.0001679
2590	0.0002185
2602	0.0002668
2614	0.0003174
2626	0.0003887
2638	0.0004991
2650	0.0005405
2662	0.0005428
2674	0.0005566
2686	0.000529
2698	0.0004623
2710	0.00046
2722	0.000437
2734	0.0004784
2746	0.0005451
2758	0.0006509
2770	0.0007613
2782	0.0009821
2794	0.0013662
2806	0.0021137
2818	0.0042021
2830	0.0058857
2842	0.0054809
2854	0.0067022
2866	0.0094369
2878	0.0100188
2890	0.0090275
2902	0.0090919
2914	0.0109526
2926	0.0147085
2938	0.0209553
2950	0.0220409
2962	0.0127811
2974	0.005267
2986	0.0040526
2998	0.0027968
3010	0.0013501
3022	0.0008717
3034	0.0007038
3046	0.0005888
3058	0.0004899
3070	0.00046
3082	0.0003864
3094	0.0002576
3106	0.0002576
3118	0.0002139
3130	0.000207
3142	0.0001771
3154	0.0001242
3166	0.0001104
3178	8.74e-05
3190	7.82e-05
3202	9.2e-05
3214	6.67e-05
3226	5.29e-05
3238	9.2e-06
3250	7.82e-05
3262	7.82e-05
3274	6.21e-05
3286	5.29e-05
3298	0.0001265
3310	0.0001104
3322	0.0001403
3334	0.000115
3346	0.0001334
3358	0.0001219
3370	7.13e-05
3382	0.000138
3394	0.0001334
3406	8.51e-05
3418	0.0001472
3430	0.0001771
3442	0.0001265
3454	0.0001817
3466	0.0001495
3478	0.000161
3490	0.0001564
3502	9.89e-05
3514	0.0001196
3526	0.000161
3538	0.0001932
3550	0.0001564
3562	0.0001495
3574	8.97e-05
3586	0.0001357
3598	0.0001334
3610	0.0002231
3622	0.0002898
3634	0.0006601
3646	0.0015019
3658	0.0015824
3670	0.0006463
3682	0.000253
3694	0.0002093
3706	0.0001288
3718	0.0001449
3730	0.0001817
3742	0.0001541
3754	0.0001863
3766	0.0001794
3778	0.000161
3790	0.0001564
3802	0.0001495
3814	0.0001472
3826	0.0002231
3838	0.000184
