Infrared Spectrum: 2,6-Difluorobenzoyl chloride
Formula: C 7 H 3 Cl F 2 O
CAS: 18063-02-0
State: gas
Origin: EPA-IR VAPOR PHASE LIBRARY
1/CM	ABSORBANCE
549.9	0.005083
559.547	0.002453
569.193	0.001983
578.84	0.002243
588.486	0.004503
598.133	0.013453
607.779	0.015353
617.426	0.006243
627.072	0.003413
636.719	0.002503
646.365	0.001833
656.012	0.002063
665.658	0.002663
675.305	0.002813
684.951	0.002513
694.598	0.002323
704.245	0.003923
713.891	0.009203
723.538	0.013163
733.184	0.007753
742.831	0.006413
752.477	0.005943
762.124	0.003053
771.77	0.004013
781.417	0.011893
791.063	0.022983
800.71	0.010993
810.356	0.003913
820.003	0.002783
829.649	0.002783
839.296	0.003663
848.943	0.007833
858.589	0.020443
868.236	0.041913
877.882	0.058723
887.529	0.051563
897.175	0.024223
906.822	0.007973
916.468	0.004323
926.115	0.003113
935.761	0.002913
945.408	0.003453
955.054	0.003473
964.701	0.002493
974.347	0.001843
983.994	0.002023
993.64	0.003513
1003.29	0.010663
1012.93	0.028183
1022.58	0.030763
1032.23	0.012083
1041.87	0.002683
1051.52	0.001633
1061.17	0.001513
1070.81	0.0009897
1080.46	0.0007021
1090.11	0.00046211
1099.75	0.000339
1109.4	0.0003756
1119.05	0.000452154
1128.69	0.0005522
1138.34	0.0007592
1147.99	0.001623
1157.63	0.002503
1167.28	0.004273
1176.92	0.007263
1186.57	0.016673
1196.22	0.026023
1205.86	0.016193
1215.51	0.005643
1225.16	0.005983
1234.8	0.014013
1244.45	0.020053
1254.1	0.012703
1263.74	0.003573
1273.39	0.004043
1283.04	0.009913
1292.68	0.016063
1302.33	0.009543
1311.98	0.002163
1321.62	0.001341
1331.27	0.0010481
1340.92	0.0007574
1350.56	0.0007622
1360.21	0.0008374
1369.86	0.0009739
1379.5	0.0008422
1389.15	0.0006354
1398.79	0.00051391
1408.44	0.0006727
1418.09	0.0010004
1427.73	0.001256
1437.38	0.002003
1447.03	0.004743
1456.67	0.014763
1466.32	0.039183
1475.97	0.044533
1485.61	0.017263
1495.26	0.005303
1504.91	0.002933
1514.55	0.001943
1524.2	0.002193
1533.85	0.003303
1543.49	0.004523
1553.14	0.005333
1562.79	0.006403
1572.43	0.008333
1582.08	0.013153
1591.73	0.019403
1601.37	0.020173
1611.02	0.026573
1620.67	0.033613
1630.31	0.018563
1639.96	0.004783
1649.6	0.001863
1659.25	0.001463
1668.9	0.0012206
1678.54	0.0011233
1688.19	0.0010444
1697.84	0.001195
1707.48	0.002073
1717.13	0.003143
1726.78	0.004353
1736.42	0.006633
1746.07	0.010023
1755.72	0.012823
1765.36	0.014143
1775.01	0.014903
1784.66	0.020563
1794.3	0.040003
1803.95	0.057153
1813.6	0.037213
1823.24	0.015833
1832.89	0.008283
1842.54	0.005173
1852.18	0.003073
1861.83	0.001663
1871.47	0.0010472
1881.12	0.0009983
1890.77	0.0009899
1900.41	0.0006362
1910.06	0.0006198
1919.71	0.001124
1929.35	0.0012005
1939	0.0005512
1948.65	0.000252
1958.29	0.000163
1967.94	0.000132
1977.59	0.000198
1987.23	0.000207
1996.88	0.000164
2006.53	0
2016.17	9e-05
2025.82	6.8e-05
2035.47	0.000209
2045.11	0.000195
2054.76	0.000189
2064.41	0.000259
2074.05	0.000328
2083.7	0.000229
2093.35	0.000133
2102.99	9.5e-05
2112.64	7.9e-05
2122.28	0.000108
2131.93	5.6e-05
2141.58	9.4e-05
2151.22	6.3e-05
2160.87	0.000111
2170.52	0.000153
2180.16	0.000105
2189.81	0.000151
2199.46	0.00023
2209.1	0.000222
2218.75	0.0003
2228.4	0.00024
2238.04	0.000157
2247.69	0.000123
2257.34	0.000172
2266.98	0.000209
2276.63	0.000183
2286.28	0.000269
2295.92	0.00053559
2305.57	0.0007267
2315.22	0.000543
2324.86	0.000318
2334.51	0.000249
2344.16	0.000231
2353.8	0.000308
2363.45	0.000232
2373.09	0.000236
2382.74	0.000218
2392.39	0.000243
2402.03	0.000135
2411.68	3.8e-05
2421.33	5.6e-05
2430.97	0.000139
2440.62	0.000192
2450.27	8.6e-05
2459.91	0.000162
2469.56	0.000187
2479.21	0.000289
2488.85	0.0004128
2498.5	0.00026
2508.15	0.000229
2517.79	0.0004106
2527.44	0.00045949
2537.09	0.0003903
2546.73	0.000234
2556.38	0.000164
2566.03	0.000111
2575.67	0.000128
2585.32	0.000149
2594.96	0.000155
2604.61	9.3e-05
2614.26	0.000168
2623.9	0.000122
2633.55	0.000222
2643.2	0.000182
2652.84	0.00015
2662.49	0.000122
2672.14	0.000196
2681.78	0.000163
2691.43	0.000224
2701.08	0.000223
2710.72	0.000234
2720.37	0.000148
2730.02	0.000233
2739.66	0.00044048
2749.31	0.0004295
2758.96	0.000329
2768.6	0.0003563
2778.25	0.000265
2787.9	0.000134
2797.54	0.000208
2807.19	0.000111
2816.84	9.9e-05
2826.48	4.5e-05
2836.13	0.00018
2845.77	0.00014
2855.42	0.000119
2865.07	0.00023
2874.71	0.000138
2884.36	0.000221
2894.01	0.000239
2903.65	0.000295
2913.3	0.000277
2922.95	0.000145
2932.59	0.000225
2942.24	0.000218
2951.89	0.000201
2961.53	0.000283
2971.18	9.8e-05
2980.83	0.000228
2990.47	0.00018
3000.12	0.000255
3009.77	0.0004119
3019.41	0.000299
3029.06	0.00048826
3038.71	0.0005712
3048.35	0.00051844
3058	0.00053283
3067.64	0.0005789
3077.29	0.0007211
3086.94	0.0009467
3096.58	0.000777
3106.23	0.00050729
3115.88	0.000173
3125.52	0.000121
3135.17	0.000301
3144.82	0.0003516
3154.46	0.000307
3164.11	0.000193
3173.76	0.000321
3183.4	7.1e-05
3193.05	0.000207
3202.7	0.00048566
3212.34	0.000175
3221.99	0.000292
3231.64	0.000242
3241.28	0.000303
3250.93	0.0003518
3260.58	0.000134
3270.22	0.00024
3279.87	0.0004115
3289.52	0.000165
3299.16	0.000268
3308.81	0.000276
3318.45	0.000248
3328.1	0.000338
3337.75	0.000195
3347.39	0.000253
3357.04	0.000334
3366.69	0.000306
3376.33	0.000282
3385.98	0.000267
3395.63	0.000184
3405.27	0.000322
3414.92	0.000288
3424.57	0.000199
3434.21	0.0003958
3443.86	0.00046128
3453.51	0.0004231
3463.15	0.000289
3472.8	0.0005637
3482.45	0.000229
3492.09	0.000329
3501.74	0.0004258
3511.39	0.0005971
3521.03	0.00054006
3530.68	0.0007297
3540.33	0.0006772
3549.97	0.0009545
3559.62	0.0009003
3569.26	0.0009613
3578.91	0.0007422
3588.56	0.0008914
3598.2	0.0007476
3607.85	0.0007151
3617.5	0.0006596
3627.14	0.0005851
3636.79	0.0006395
3646.44	0.00053111
3656.08	0.0004019
3665.73	0.000334
3675.38	0.0004164
3685.02	0.0003754
3694.67	0.00044119
3704.32	0.0003884
3713.96	0.0003836
3723.61	0.0005583
3733.26	0.0004888
3742.9	0.000424
3752.55	0.0004091
3762.2	0.00053931
3771.84	0.0005555
3781.49	0.0004413
3791.13	0.000298
3800.78	0.000289
3810.43	0.0004191
3820.07	0.00045988
3829.72	0.000324
3839.37	0.000451275
3849.01	0.0004134
3858.66	0.000447354
3868.31	0.0004978
3877.95	0.0005866
3887.6	0.0003502
3897.25	0.00048884
3906.89	0.0005475
3916.54	0.0003451
3926.19	0.0004004
3935.83	0.000382
3945.48	0.000407
3955.13	0.00048285
3964.77	0.000442875
3974.42	0.0004255
3984.07	0.0003538
3993.71	0.00049475
