Infrared Spectrum: Ethyl 3,4-dimethoxyphenyl acetate
Formula: C 12 H 16 O 4
CAS: 18066-68-7
State: gas
Origin: EPA-IR VAPOR PHASE LIBRARY
1/CM	ABSORBANCE
549.9	0.00805
559.547	0.00732
569.193	0.00699
578.84	0.00714
588.486	0.00846
598.133	0.01032
607.779	0.01168
617.426	0.01239
627.072	0.01259
636.719	0.00984
646.365	0.00647
656.012	0.0048507
665.658	0.0043407
675.305	0.0044853
684.951	0.00533
694.598	0.00755
704.245	0.01123
713.891	0.01179
723.538	0.01
733.184	0.01158
742.831	0.01538
752.477	0.01972
762.124	0.02006
771.77	0.01895
781.417	0.02186
791.063	0.02487
800.71	0.02385
810.356	0.02107
820.003	0.0182
829.649	0.01477
839.296	0.01328
848.943	0.0142
858.589	0.01476
868.236	0.01466
877.882	0.01432
887.529	0.01164
897.175	0.0101
906.822	0.01136
916.468	0.01495
926.115	0.01782
935.761	0.01807
945.408	0.0168
955.054	0.01554
964.701	0.01401
974.347	0.0135
983.994	0.01587
993.64	0.02199
1003.29	0.03617
1012.93	0.0694
1022.58	0.12585
1032.23	0.16555
1041.87	0.12754
1051.52	0.06377
1061.17	0.03325
1070.81	0.02418
1080.46	0.02392
1090.11	0.03138
1099.75	0.04393
1109.4	0.0593
1119.05	0.10396
1128.69	0.175
1138.34	0.2433
1147.99	0.25081
1157.63	0.19765
1167.28	0.1364
1176.92	0.09937
1186.57	0.08303
1196.22	0.07793
1205.86	0.08962
1215.51	0.12108
1225.16	0.16523
1234.8	0.19815
1244.45	0.20946
1254.1	0.213
1263.74	0.25654
1273.39	0.29158
1283.04	0.22072
1292.68	0.13947
1302.33	0.10267
1311.98	0.08064
1321.62	0.06444
1331.27	0.05284
1340.92	0.0392
1350.56	0.02701
1360.21	0.02607
1369.86	0.03338
1379.5	0.02421
1389.15	0.022
1398.79	0.0266
1408.44	0.04122
1418.09	0.05586
1427.73	0.04972
1437.38	0.05171
1447.03	0.05443
1456.67	0.05706
1466.32	0.06442
1475.97	0.05626
1485.61	0.05104
1495.26	0.08409
1504.91	0.1885
1514.55	0.20848
1524.2	0.08179
1533.85	0.03487
1543.49	0.02149
1553.14	0.01731
1562.79	0.01778
1572.43	0.02425
1582.08	0.03215
1591.73	0.02943
1601.37	0.02598
1611.02	0.02329
1620.67	0.01539
1630.31	0.01039
1639.96	0.00876
1649.6	0.00812
1659.25	0.00801
1668.9	0.00824
1678.54	0.00913
1688.19	0.01083
1697.84	0.01403
1707.48	0.01905
1717.13	0.02656
1726.78	0.04376
1736.42	0.08955
1746.07	0.16994
1755.72	0.19632
1765.36	0.12924
1775.01	0.06146
1784.66	0.02803
1794.3	0.01666
1803.95	0.01172
1813.6	0.0091
1823.24	0.00772
1832.89	0.00705
1842.54	0.00689
1852.18	0.00691
1861.83	0.00694
1871.47	0.00671
1881.12	0.00637
1890.77	0.00583
1900.41	0.00543
1910.06	0.00522
1919.71	0.00507
1929.35	0.00503
1939	0.00521
1948.65	0.00541
1958.29	0.00558
1967.94	0.00577
1977.59	0.00606
1987.23	0.00624
1996.88	0.00657
2006.53	0.00688
2016.17	0.00734
2025.82	0.00774
2035.47	0.00764
2045.11	0.00709
2054.76	0.00675
2064.41	0.00658
2074.05	0.00615
2083.7	0.00555
2093.35	0.0048397
2102.99	0.0042538
2112.64	0.003757
2122.28	0.003605
2131.93	0.003502
2141.58	0.003435
2151.22	0.003522
2160.87	0.003535
2170.52	0.003575
2180.16	0.00364
2189.81	0.00367
2199.46	0.003708
2209.1	0.003551
2218.75	0.003551
2228.4	0.003571
2238.04	0.003654
2247.69	0.0038381
2257.34	0.0040184
2266.98	0.0040601
2276.63	0.00394975
2286.28	0.003789
2295.92	0.003555
2305.57	0.003418
2315.22	0.003355
2324.86	0.003216
2334.51	0.003081
2344.16	0.003111
2353.8	0.003035
2363.45	0.003058
2373.09	0.003087
2382.74	0.003118
2392.39	0.003059
2402.03	0.003036
2411.68	0.003221
2421.33	0.003179
2430.97	0.003134
2440.62	0.003112
2450.27	0.003065
2459.91	0.003099
2469.56	0.003183
2479.21	0.003236
2488.85	0.003244
2498.5	0.003368
2508.15	0.003399
2517.79	0.003476
2527.44	0.003694
2537.09	0.00397388
2546.73	0.0041029
2556.38	0.004181
2566.03	0.0041145
2575.67	0.0038747
2585.32	0.003721
2594.96	0.003593
2604.61	0.003481
2614.26	0.003288
2623.9	0.003057
2633.55	0.002907
2643.2	0.002901
2652.84	0.00279
2662.49	0.00266
2672.14	0.00268
2681.78	0.00277
2691.43	0.00282
2701.08	0.00286
2710.72	0.002972
2720.37	0.003031
2730.02	0.003372
2739.66	0.003481
2749.31	0.003738
2758.96	0.00390475
2768.6	0.0043846
2778.25	0.00497
2787.9	0.00562
2797.54	0.00685
2807.19	0.00917
2816.84	0.01377
2826.48	0.02251
2836.13	0.03926
2845.77	0.04351
2855.42	0.03021
2865.07	0.02506
2874.71	0.02611
2884.36	0.02938
2894.01	0.03313
2903.65	0.04048
2913.3	0.05102
2922.95	0.05857
2932.59	0.07618
2942.24	0.10032
2951.89	0.09265
2961.53	0.0787
2971.18	0.07419
2980.83	0.08361
2990.47	0.08505
3000.12	0.08006
3009.77	0.06577
3019.41	0.03687
3029.06	0.02613
3038.71	0.0239
3048.35	0.02212
3058	0.02027
3067.64	0.01709
3077.29	0.01287
3086.94	0.00984
3096.58	0.00788
3106.23	0.00644
3115.88	0.0053
3125.52	0.0043844
3135.17	0.00357
3144.82	0.00266
3154.46	0.00224
3164.11	0.00175
3173.76	0.00145
3183.4	0.00133
3193.05	0.00119
3202.7	0.00097
3212.34	0.0008
3221.99	0.00069
3231.64	0.00061
3241.28	0.00054
3250.93	0.00049
3260.58	0.00038
3270.22	0.00027
3279.87	0.00023
3289.52	0.00034
3299.16	0.00034
3308.81	0.00027
3318.45	0.00019
3328.1	0.00043
3337.75	0.00044
3347.39	0.00037
3357.04	0.00035
3366.69	0.00049
3376.33	0.00044
3385.98	0.00046
3395.63	0.0007
3405.27	0.00051
3414.92	0.00069
3424.57	0.00077
3434.21	0.00083
3443.86	0.00127
3453.51	0.00122
3463.15	0.00168
3472.8	0.00197
3482.45	0.00262
3492.09	0.00268
3501.74	0.00236
3511.39	0.00182
3521.03	0.0014
3530.68	0.00129
3540.33	0.00127
3549.97	0.00132
3559.62	0.00097
3569.26	0.00116
3578.91	0.0011
3588.56	0.00111
3598.2	0.00123
3607.85	0.00129
3617.5	0.00124
3627.14	0.00115
3636.79	0.00147
3646.44	0.00129
3656.08	0.00143
3665.73	0.0016
3675.38	0.00136
3685.02	0.00142
3694.67	0.00148
3704.32	0.00155
3713.96	0.00159
3723.61	0.00151
3733.26	0.00163
3742.9	0.00166
3752.55	0.00168
3762.2	0.00184
3771.84	0.00184
3781.49	0.00203
3791.13	0.00184
3800.78	0.0019
3810.43	0.00191
3820.07	0.00199
3829.72	0.00198
3839.37	0.00203
3849.01	0.00209
3858.66	0.00199
3868.31	0.00213
3877.95	0.00221
3887.6	0.00214
3897.25	0.00208
3906.89	0.00209
3916.54	0.00197
3926.19	0.002
3935.83	0.00227
3945.48	0.00222
3955.13	0.00218
3964.77	0.00247
3974.42	0.00264
3984.07	0.0025
3993.71	0.00254
