Infrared Spectrum: 2H-benzo[a]quinolizine, 2,2-(diethylthio)-1,3,4,6,7,11b-hexahydro-3-isobutyl-9-10-dimethoxy-, hydrochloride
Formula: C23 H38 Cl N O2 S2
CAS: 18065-96-8
State: SOLUTION 7% (CHCl3)
Melting point: 218-221 C
Class: COBLENTZ
Instrument: PERKIN-ELMER 21 (GRATING)
Instrument parameters: FILTER AT ABOUT 10 MICRONS
Path length: 0.01 CM
Resolution: 2
Origin: ABBOTT LABORATORIES
1/CM	TRANSMITTANCE
801	0.859
809	0.8871
817	0.8897
825	0.8853
833	0.8675
841	0.846
849	0.7593
857	0.7753
865	0.8419
873	0.8064
881	0.6737
889	0.8297
897	0.8497
905	0.8326
913	0.8748
921	0.8776
929	0.9102
937	0.8742
945	0.8528
953	0.8326
961	0.8386
969	0.8139
977	0.7793
985	0.7395
993	0.6687
1001	0.5624
1009	0.7006
1017	0.7654
1025	0.7304
1033	0.7096
1041	0.7309
1049	0.7137
1057	0.7343
1065	0.7496
1073	0.7454
1081	0.7255
1089	0.7398
1097	0.8131
1105	0.8325
1113	0.7485
1121	0.5495
1129	0.5244
1137	0.6301
1145	0.7377
1153	0.702
1161	0.7959
1169	0.7988
1177	0.8226
1185	0.8034
1193	0.7614
1201	0.6876
1209	0.61
1217	0.5334
1225	0.4578
1233	0.3832
1241	0.3573
1249	0.4789
1257	0.3723
1265	0.3041
1273	0.5404
1281	0.6605
1289	0.7105
1297	0.7233
1305	0.7945
1313	0.7775
1321	0.7477
1329	0.7399
1337	0.7117
1345	0.6227
1353	0.5994
1361	0.6255
1369	0.5796
1377	0.6835
1385	0.7291
1393	0.7086
1401	0.7672
1409	0.7284
1417	0.6908
1425	0.6747
1433	0.6314
1441	0.5193
1449	0.4848
1457	0.4357
1465	0.3868
1473	0.5069
1481	0.7401
1489	0.797
1497	0.7945
1505	0.7402
1513	0.4105
1521	0.3364
1529	0.4195
1537	0.6489
1545	0.8413
1553	0.8562
1561	0.8572
1569	0.8556
1577	0.8611
1585	0.8575
1593	0.8524
1601	0.8412
1609	0.8253
1617	0.7474
1625	0.7494
1633	0.8268
1641	0.8555
1649	0.8583
1657	0.8483
1665	0.8455
1673	0.8575
1681	0.8569
1689	0.8595
1697	0.871
1705	0.8742
1713	0.8727
1721	0.8713
1729	0.8717
1737	0.8794
1745	0.8872
1753	0.8879
1761	0.8892
1769	0.8964
1777	0.8996
1785	0.8991
1793	0.8985
1801	0.8977
1809	0.8968
1817	0.8951
1825	0.8933
1833	0.8916
1841	0.8898
1849	0.8883
1857	0.8868
1865	0.8852
1873	0.8828
1881	0.8801
1889	0.8775
1897	0.8742
1905	0.8708
1913	0.8674
1921	0.864
1929	0.8608
1937	0.8573
1945	0.8537
1953	0.8501
1961	0.8465
1969	0.8429
1977	0.8393
1985	0.8346
1993	0.8298
2001	0.8251
2009	0.8194
2017	0.812
2025	0.8048
2033	0.7976
2041	0.7901
2049	0.7823
2057	0.7746
2065	0.767
2073	0.7578
2081	0.7483
2089	0.7389
2097	0.7298
2105	0.7208
2113	0.712
2121	0.7032
2129	0.6945
2137	0.6858
2145	0.6767
2153	0.6674
2161	0.6583
2169	0.6492
2177	0.6401
2185	0.6311
2193	0.6194
2201	0.6077
2209	0.596
2217	0.5848
2225	0.576
2233	0.5673
2241	0.5588
2249	0.5505
2257	0.5429
2265	0.5375
2273	0.5354
2281	0.5347
2289	0.5355
2297	0.5371
2305	0.5392
2313	0.5416
2321	0.545
2329	0.5485
2337	0.5519
2345	0.5551
2353	0.5582
2361	0.5613
2369	0.5685
2377	0.5762
2385	0.5895
2393	0.6157
2401	0.621
2409	0.6225
2417	0.6244
2425	0.6322
2433	0.6407
2441	0.6504
2449	0.6616
2457	0.673
2465	0.6826
2473	0.6917
2481	0.7009
2489	0.7102
2497	0.7196
2505	0.7273
2513	0.7339
2521	0.7404
2529	0.7469
2537	0.7514
2545	0.7553
2553	0.7592
2561	0.7685
2569	0.779
2577	0.7862
2585	0.7888
2593	0.789
2601	0.7892
2609	0.7902
2617	0.792
2625	0.7965
2633	0.8016
2641	0.8035
2649	0.8034
2657	0.8033
2665	0.8034
2673	0.8036
2681	0.8041
2689	0.8092
2697	0.8152
2705	0.8208
2713	0.8233
2721	0.8254
2729	0.8281
2737	0.8308
2745	0.8336
2753	0.8345
2761	0.8349
2769	0.8328
2777	0.8272
2785	0.8186
2793	0.8102
2801	0.803
2809	0.7957
2817	0.7752
2825	0.7439
2833	0.7128
2841	0.6818
2849	0.651
2857	0.6203
2865	0.5899
2873	0.5596
2881	0.5295
2889	0.4995
2897	0.4697
2905	0.4401
2913	0.4106
2921	0.3813
2929	0.3522
2937	0.324
2945	0.3086
2953	0.2998
2961	0.2986
2969	0.3005
2977	0.3514
2985	0.4561
2993	0.5602
3001	0.6639
3009	0.7565
3017	0.7713
3025	0.7811
3033	0.7974
3041	0.8138
3049	0.8263
3057	0.8289
3065	0.8331
3073	0.8396
3081	0.8439
3089	0.8448
3097	0.8438
3105	0.8427
3113	0.8417
3121	0.8399
3129	0.838
3137	0.8362
3145	0.8339
3153	0.8297
3161	0.8255
3169	0.8212
3177	0.8174
3185	0.8157
3193	0.8141
3201	0.8133
3209	0.8124
3217	0.8116
3225	0.8113
3233	0.8109
3241	0.8106
3249	0.8102
3257	0.8095
3265	0.8088
3273	0.8079
3281	0.8069
3289	0.8059
3297	0.805
3305	0.804
3313	0.803
3321	0.8023
3329	0.8017
3337	0.8011
3345	0.8006
3353	0.8
3361	0.7995
3369	0.7998
3377	0.8003
3385	0.8008
3393	0.8013
3401	0.8023
3409	0.8043
3417	0.8062
3425	0.8081
3433	0.8102
3441	0.8127
3449	0.8151
3457	0.8175
3465	0.8198
3473	0.8223
3481	0.8247
3489	0.827
3497	0.8294
3505	0.8318
3513	0.8342
3521	0.8365
3529	0.8389
3537	0.8419
3545	0.8448
3553	0.8474
3561	0.849
3569	0.8501
3577	0.8494
3585	0.848
3593	0.8466
3601	0.8452
3609	0.8443
3617	0.8438
3625	0.8435
3633	0.8435
3641	0.8435
3649	0.844
3657	0.8449
3665	0.8459
3673	0.8469
3681	0.8478
3689	0.8486
3697	0.8494
3705	0.8501
3713	0.8507
3721	0.8512
3729	0.8516
3737	0.8516
3745	0.8516
3753	0.8516
3761	0.8517
3769	0.8517
3777	0.8524
3785	0.8515
3793	0.8515
3801	0.8512
3809	0.8509
3817	0.8507
3825	0.8505
3833	0.8502
3841	0.8498
3849	0.8494
3857	0.8489
3865	0.8485
3873	0.8481
3881	0.8477
3889	0.8473
3897	0.8468
3905	0.8462
3913	0.8458
3921	0.8453
3929	0.8449
3937	0.8449
3945	0.8448
3953	0.8447
3961	0.8447
3969	0.8446
3977	0.8446
3985	0.8445
3993	0.8445
