Infrared Spectrum: 2,2'-Biphenol
Formula: C 12 H 10 O 2
CAS: 1806-29-7
State: gas
Instrument: HP-GC/MS/IRD
Origin: NIST Mass Spectrometry Data Center
1/CM	ABSORBANCE
550	0.0009177
562	0.0004784
574	0.0005911
586	0.0003266
598	0.0003611
610	0.0006256
622	0.0011799
634	0.0005474
646	0.000414
658	0.0004784
670	0.0004807
682	0.0006371
694	0.0008947
706	0.0011569
718	0.0013892
730	0.0026151
742	0.0092
754	0.0157573
766	0.0056327
778	0.0014927
790	0.0010304
802	0.0013018
814	0.0025001
826	0.0019688
838	0.0016629
850	0.0012075
862	0.0006923
874	0.0002116
886	9.43e-05
898	5.52e-05
910	0.0001012
922	0.0001702
934	0.0004784
946	0.000414
958	5.75e-05
970	7.59e-05
982	0.0002162
994	0.0008004
1006	0.0019918
1018	0.0010465
1030	0.0010833
1042	0.0012144
1054	0.0005221
1066	0.0003818
1078	0.0004991
1090	0.0010143
1102	0.0012535
1114	0.0012006
1126	0.0012121
1138	0.002392
1150	0.0053107
1162	0.0061203
1174	0.0093679
1186	0.012236
1198	0.0116127
1210	0.0075555
1222	0.0075049
1234	0.0086894
1246	0.0066654
1258	0.0049519
1270	0.0062813
1282	0.0083283
1294	0.0050416
1306	0.0022793
1318	0.0028681
1330	0.0046115
1342	0.0040848
1354	0.0013294
1366	0.0005658
1378	0.0003611
1390	0.000368
1402	0.0005336
1414	0.0008303
1426	0.0015134
1438	0.0029463
1450	0.0053107
1462	0.0073899
1474	0.0122935
1486	0.0097497
1498	0.0058696
1510	0.0028014
1522	0.0010051
1534	0.0007245
1546	0.00092
1558	0.0016629
1570	0.0036409
1582	0.004623
1594	0.0032062
1606	0.0028543
1618	0.0015295
1630	0.0003611
1642	0.0001311
1654	0.0001265
1666	0.0001219
1678	0.0002599
1690	0.0004738
1702	0.0003059
1714	0.0002737
1726	0.0002024
1738	7.59e-05
1750	3.91e-05
1762	6.9e-05
1774	0.0001633
1786	0.0003933
1798	0.0004623
1810	0.0002277
1822	0.0002208
1834	0.0001817
1846	5.06e-05
1858	8.28e-05
1870	0.0001748
1882	0.0001978
1894	0.000368
1906	0.0006049
1918	0.0003427
1930	0.0003933
1942	0.0004048
1954	8.05e-05
1966	4.37e-05
1978	6.67e-05
1990	5.29e-05
2002	6.67e-05
2014	6.67e-05
2026	7.59e-05
2038	8.97e-05
2050	0.0001035
2062	8.28e-05
2074	9.43e-05
2086	8.74e-05
2098	8.74e-05
2110	6.21e-05
2122	5.75e-05
2134	5.52e-05
2146	2.07e-05
2158	2.76e-05
2170	2.99e-05
2182	3.91e-05
2194	5.29e-05
2206	4.14e-05
2218	3.45e-05
2230	5.52e-05
2242	5.06e-05
2254	8.28e-05
2266	0.000115
2278	0.0001012
2290	0.0001449
2302	0.0001311
2314	0.0001311
2326	0.0001058
2338	8.97e-05
2350	5.75e-05
2362	5.06e-05
2374	9.43e-05
2386	0.0001127
2398	0.0001518
2410	0.0001334
2422	0.0001656
2434	0.0001978
2446	0.0002047
2458	0.0001886
2470	0.0002208
2482	0.0001955
2494	0.0001564
2506	0.0002093
2518	0.0001932
2530	0.0001265
2542	9.43e-05
2554	7.36e-05
2566	6.21e-05
2578	5.29e-05
2590	5.06e-05
2602	5.06e-05
2614	7.36e-05
2626	8.05e-05
2638	6.44e-05
2650	7.36e-05
2662	7.59e-05
2674	6.21e-05
2686	1.61e-05
2698	4.14e-05
2710	5.06e-05
2722	6.9e-05
2734	7.13e-05
2746	2.07e-05
2758	2.99e-05
2770	3.45e-05
2782	2.53e-05
2794	2.76e-05
2806	2.3e-05
2818	2.76e-05
2830	1.61e-05
2842	2.3e-06
2854	1.61e-05
2866	2.3e-05
2878	3.45e-05
2890	6.44e-05
2902	7.13e-05
2914	5.98e-05
2926	1.84e-05
2938	3.68e-05
2950	7.13e-05
2962	6.21e-05
2974	2.99e-05
2986	8.51e-05
2998	0.0001771
3010	0.0004255
3022	0.0010005
3034	0.0021436
3046	0.002829
3058	0.0027623
3070	0.0042757
3082	0.0034707
3094	0.0019964
3106	0.0008809
3118	0.0004485
3130	0.0002898
3142	0.0002346
3154	0.0002024
3166	0.0001357
3178	7.82e-05
3190	6.44e-05
3202	3.22e-05
3214	3.91e-05
3226	2.99e-05
3238	3.45e-05
3250	4.83e-05
3262	7.13e-05
3274	5.06e-05
3286	4.6e-05
3298	4.6e-05
3310	5.06e-05
3322	0.0001058
3334	8.74e-05
3346	0.0001081
3358	9.66e-05
3370	7.59e-05
3382	0.000115
3394	0.0001265
3406	6.9e-05
3418	0.0001242
3430	0.0001127
3442	0.000115
3454	0.0001472
3466	0.0002185
3478	0.0002967
3490	0.0005244
3502	0.0005267
3514	0.000483
3526	0.0005865
3538	0.0007797
3550	0.0012788
3562	0.0031165
3574	0.0165508
3586	0.0195362
3598	0.0047196
3610	0.0016054
3622	0.0008027
3634	0.001035
3646	0.001909
3658	0.0010603
3670	0.0002875
3682	0.0001173
3694	7.13e-05
3706	2.53e-05
3718	4.83e-05
3730	5.52e-05
3742	9.2e-06
3754	4.14e-05
3766	2.76e-05
3778	5.29e-05
3790	3.45e-05
3802	3.68e-05
3814	1.84e-05
3826	2.3e-05
3838	3.91e-05
