Infrared Spectrum: Di-n-propylaminoacetonitrile
Formula: C 8 H 16 N 2
CAS: 18071-35-7
State: gas
Origin: EPA-IR VAPOR PHASE LIBRARY
1/CM	ABSORBANCE
549.9	0.000756
559.547	0.000675
569.193	0.000573
578.84	0.000823
588.486	0.000924
598.133	0.000868
607.779	0.000835
617.426	0.001028
627.072	0.000863
636.719	0.000641
646.365	0.000656
656.012	0.000649
665.658	0.000638
675.305	0.000728
684.951	0.000916
694.598	0.001002
704.245	0.00120257
713.891	0.0018791
723.538	0.0016307
733.184	0.0019075
742.831	0.00249
752.477	0.00278
762.124	0.00251
771.77	0.0018717
781.417	0.001427
791.063	0.00123339
800.71	0.001371
810.356	0.00183
820.003	0.00297
829.649	0.00463
839.296	0.00585
848.943	0.00686
858.589	0.00886
868.236	0.00915
877.882	0.00632
887.529	0.00455
897.175	0.00378
906.822	0.00314
916.468	0.00293
926.115	0.00339
935.761	0.00537
945.408	0.00868
955.054	0.00928
964.701	0.00612
974.347	0.00354
983.994	0.0022
993.64	0.0016886
1003.29	0.0017969
1012.93	0.00269
1022.58	0.00474
1032.23	0.00693
1041.87	0.00681
1051.52	0.00663
1061.17	0.01023
1070.81	0.01779
1080.46	0.02317
1090.11	0.02131
1099.75	0.01556
1109.4	0.01073
1119.05	0.00791
1128.69	0.00644
1138.34	0.00601
1147.99	0.00764
1157.63	0.00961
1167.28	0.0092
1176.92	0.00858
1186.57	0.00894
1196.22	0.0072
1205.86	0.00419
1215.51	0.00257
1225.16	0.0021757
1234.8	0.00234
1244.45	0.00298
1254.1	0.00378
1263.74	0.00471
1273.39	0.00536
1283.04	0.00557
1292.68	0.00638
1302.33	0.00791
1311.98	0.0099
1321.62	0.01179
1331.27	0.01123
1340.92	0.00992
1350.56	0.00945
1360.21	0.00924
1369.86	0.0091
1379.5	0.00994
1389.15	0.01025
1398.79	0.00723
1408.44	0.00494
1418.09	0.00563
1427.73	0.00845
1437.38	0.01012
1447.03	0.01065
1456.67	0.01338
1466.32	0.01566
1475.97	0.01244
1485.61	0.00642
1495.26	0.00327
1504.91	0.00237
1514.55	0.0019097
1524.2	0.0015809
1533.85	0.0013901
1543.49	0.0011628
1553.14	0.001031
1562.79	0.000893
1572.43	0.0009
1582.08	0.000875
1591.73	0.000855
1601.37	0.000813
1611.02	0.000821
1620.67	0.000869
1630.31	0.00082
1639.96	0.000836
1649.6	0.00083
1659.25	0.000866
1668.9	0.000802
1678.54	0.000731
1688.19	0.000735
1697.84	0.000636
1707.48	0.000669
1717.13	0.000614
1726.78	0.000641
1736.42	0.000606
1746.07	0.000572
1755.72	0.000594
1765.36	0.000633
1775.01	0.000681
1784.66	0.00069
1794.3	0.000654
1803.95	0.000684
1813.6	0.000676
1823.24	0.000708
1832.89	0.000711
1842.54	0.000711
1852.18	0.000729
1861.83	0.0008
1871.47	0.00075
1881.12	0.00079
1890.77	0.000866
1900.41	0.000828
1910.06	0.000913
1919.71	0.000876
1929.35	0.000881
1939	0.000858
1948.65	0.000857
1958.29	0.000812
1967.94	0.000839
1977.59	0.000813
1987.23	0.000896
1996.88	0.000871
2006.53	0.00087
2016.17	0.000894
2025.82	0.000843
2035.47	0.00091
2045.11	0.000922
2054.76	0.000957
2064.41	0.000868
2074.05	0.000936
2083.7	0.000929
2093.35	0.000923
2102.99	0.00092
2112.64	0.000897
2122.28	0.000949
2131.93	0.000999
2141.58	0.000965
2151.22	0.000953
2160.87	0.00104
2170.52	0.0010901
2180.16	0.0011175
2189.81	0.0010816
2199.46	0.0011223
2209.1	0.0011395
2218.75	0.00117449
2228.4	0.0011832
2238.04	0.0011395
2247.69	0.0011421
2257.34	0.0010975
2266.98	0.0011253
2276.63	0.0011367
2286.28	0.0010881
2295.92	0.0011036
2305.57	0.001046
2315.22	0.00108
2324.86	0.001015
2334.51	0.0011344
2344.16	0.0011524
2353.8	0.00117888
2363.45	0.00120268
2373.09	0.0012927
2382.74	0.0013682
2392.39	0.0013564
2402.03	0.0013432
2411.68	0.001298
2421.33	0.00127187
2430.97	0.0011168
2440.62	0.00117167
2450.27	0.0011565
2459.91	0.00120078
2469.56	0.00119468
2479.21	0.00125553
2488.85	0.00122531
2498.5	0.0011911
2508.15	0.00125442
2517.79	0.00127397
2527.44	0.001309
2537.09	0.0013458
2546.73	0.001439
2556.38	0.0014345
2566.03	0.0015292
2575.67	0.0015919
2585.32	0.0017211
2594.96	0.0018058
2604.61	0.0018665
2614.26	0.0019481
2623.9	0.0020936
2633.55	0.00219
2643.2	0.00226
2652.84	0.00245
2662.49	0.00257
2672.14	0.00284
2681.78	0.00302
2691.43	0.00327
2701.08	0.00358
2710.72	0.00396
2720.37	0.00463
2730.02	0.0053
2739.66	0.00599
2749.31	0.00659
2758.96	0.00699
2768.6	0.00746
2778.25	0.00844
2787.9	0.01011
2797.54	0.01321
2807.19	0.01775
2816.84	0.022
2826.48	0.02595
2836.13	0.02701
2845.77	0.02312
2855.42	0.01905
2865.07	0.02008
2874.71	0.02777
2884.36	0.03475
2894.01	0.03212
2903.65	0.02858
2913.3	0.03095
2922.95	0.03685
2932.59	0.04965
2942.24	0.06303
2951.89	0.06316
2961.53	0.06945
2971.18	0.08282
2980.83	0.06021
2990.47	0.02724
3000.12	0.0133
3009.77	0.00947
3019.41	0.00735
3029.06	0.00629
3038.71	0.00523
3048.35	0.0043
3058	0.0038
3067.64	0.00326
3077.29	0.0031
3086.94	0.00299
3096.58	0.00276
3106.23	0.00262
3115.88	0.00243
3125.52	0.00226
3135.17	0.0021184
3144.82	0.0018179
3154.46	0.0017385
3164.11	0.0016249
3173.76	0.0016573
3183.4	0.0015917
3193.05	0.0014347
3202.7	0.00127399
3212.34	0.0011049
3221.99	0.001105
3231.64	0.001001
3241.28	0.000764
3250.93	0.000822
3260.58	0.000797
3270.22	0.000829
3279.87	0.000699
3289.52	0.000593
3299.16	0.000586
3308.81	0.000421
3318.45	0.000492
3328.1	0.000547
3337.75	0.000411
3347.39	0.00046
3357.04	0.000518
3366.69	0.000393
3376.33	0.000455
3385.98	0.000348
3395.63	0.000285
3405.27	0.000423
3414.92	0.00011
3424.57	0.000198
3434.21	0.000217
3443.86	0.000182
3453.51	0.000336
3463.15	0.000203
3472.8	0.00022
3482.45	0.000224
3492.09	0.000241
3501.74	0.00011
3511.39	0.000222
3521.03	0.000244
3530.68	0.000275
3540.33	0.000298
3549.97	0.000212
3559.62	0.000309
3569.26	0.000248
3578.91	0.00018
3588.56	0.00017
3598.2	0.00015
3607.85	0.000345
3617.5	0.000397
3627.14	0.000234
3636.79	0.000375
3646.44	0.00035
3656.08	0.000459
3665.73	0.000491
3675.38	0.000443
3685.02	0.000448
3694.67	0.00045
3704.32	0.000436
3713.96	0.00048
3723.61	0.000523
3733.26	0.000364
3742.9	0.000327
3752.55	0.000491
3762.2	0.000683
3771.84	0.000588
3781.49	0.00069
3791.13	0.000602
3800.78	0.000652
3810.43	0.000709
3820.07	0.00064
3829.72	0.000625
3839.37	0.000661
3849.01	0.000675
3858.66	0.000685
3868.31	0.00072
3877.95	0.000664
3887.6	0.000648
3897.25	0.000713
3906.89	0.000772
3916.54	0.000703
3926.19	0.000858
3935.83	0.000864
3945.48	0.000785
3955.13	0.000852
3964.77	0.000899
3974.42	0.000961
3984.07	0.001019
3993.71	0.0011324
