Infrared Spectrum: 17Alpha,21-DIHYDROXYPREGNA-1,4-DIENE-3,20-DIONE
Formula: C21 H28 O4
CAS: 1807-14-3
State: SOLID (KBr DISC)
Class: COBLENTZ III
Instrument: BECKMAN IR-7
Sampling: TRANSMISSION
Resolution: 4
Origin: THE WORCESTER FOUNDATION FOR EXPERIMENTAL BIOLOGY, Neal L. McNiven
1/CM	TRANSMITTANCE
641.519	0.989
650.26	0.941
659.001	0.883
667.742	0.848
676.483	0.842
685.224	0.815
693.964	0.807
702.705	0.827
711.446	0.824
720.187	0.802
728.928	0.814
737.669	0.82
746.41	0.81
755.151	0.775
763.892	0.767
772.633	0.748
781.374	0.785
790.115	0.794
798.855	0.792
807.596	0.78
816.337	0.738
825.078	0.745
833.819	0.735
842.56	0.765
851.301	0.78
860.042	0.781
868.783	0.768
877.524	0.718
886.265	0.566
895.005	0.529
903.746	0.515
912.487	0.693
921.228	0.637
929.969	0.693
938.71	0.664
947.451	0.688
956.192	0.697
964.933	0.716
973.674	0.711
982.415	0.686
991.156	0.683
999.896	0.656
1008.64	0.663
1017.38	0.624
1026.12	0.528
1034.86	0.579
1043.6	0.627
1052.34	0.568
1061.08	0.582
1069.82	0.596
1078.56	0.555
1087.31	0.582
1096.05	0.507
1104.79	0.499
1113.53	0.526
1122.27	0.568
1131.01	0.529
1139.75	0.589
1148.49	0.639
1157.23	0.641
1165.97	0.623
1174.71	0.64
1183.46	0.637
1192.2	0.648
1200.94	0.621
1209.68	0.642
1218.42	0.605
1227.16	0.619
1235.9	0.589
1244.64	0.52
1253.38	0.609
1262.12	0.625
1270.86	0.608
1279.61	0.629
1288.35	0.628
1297.09	0.608
1305.83	0.568
1314.57	0.624
1323.31	0.637
1332.05	0.645
1340.79	0.621
1349.53	0.597
1358.27	0.6
1367.01	0.597
1375.76	0.56
1384.5	0.44
1393.24	0.558
1401.98	0.548
1410.72	0.504
1419.46	0.518
1428.2	0.592
1436.94	0.568
1445.68	0.542
1454.42	0.515
1463.16	0.579
1471.91	0.603
1480.65	0.679
1489.39	0.698
1498.13	0.706
1506.87	0.705
1515.61	0.709
1524.35	0.702
1533.09	0.711
1541.83	0.706
1550.57	0.71
1559.31	0.702
1568.06	0.693
1576.8	0.671
1585.54	0.637
1594.28	0.569
1603.02	0.453
1611.76	0.417
1620.5	0.293
1629.24	0.55
1637.98	0.566
1646.72	0.472
1655.46	0.268
1664.21	0.116
1672.95	0.268
1681.69	0.527
1690.43	0.603
1699.17	0.579
1707.91	0.477
1716.65	0.379
1725.39	0.4999
1734.13	0.602
1742.87	0.665
1751.61	0.685
1760.36	0.696
1769.1	0.698
1777.84	0.708
1786.58	0.711
1795.32	0.712
1804.06	0.719
1812.8	0.72
1821.54	0.722
1830.28	0.725
1839.02	0.722
1847.76	0.723
1856.51	0.726
1865.25	0.724
1873.99	0.727
1882.73	0.727
1891.47	0.727
1900.21	0.726
1908.95	0.724
1917.69	0.723
1926.43	0.723
1935.17	0.722
1943.92	0.721
1952.66	0.721
1961.4	0.72
1970.14	0.719
1978.88	0.719
1987.62	0.719
1996.36	0.718
2005.1	0.717
2013.84	0.7162
2022.58	0.716
2031.32	0.716
2040.07	0.716
2048.81	0.716
2057.55	0.716
2066.29	0.716
2075.03	0.716
2083.77	0.716
2092.51	0.716
2101.25	0.716
2109.99	0.715
2118.73	0.715
2127.47	0.715
2136.22	0.714
2144.96	0.713
2153.7	0.711
2162.44	0.711
2171.18	0.71
2179.92	0.708
2188.66	0.7069
2197.4	0.7059
2206.14	0.7039
2214.88	0.7029
2223.62	0.701
2232.37	0.6998
2241.11	0.698
2249.85	0.697
2258.59	0.696
2267.33	0.695
2276.07	0.695
2284.81	0.694
2293.55	0.693
2302.29	0.6927
2311.03	0.6894
2319.77	0.685
2328.52	0.682
2337.26	0.681
2346	0.68
2354.74	0.68
2363.48	0.6804
2372.22	0.6814
2380.96	0.6824
2389.7	0.6854
2398.44	0.687
2407.18	0.686
2415.92	0.6855
2424.67	0.685
2433.41	0.6845
2442.15	0.683
2450.89	0.6815
2459.63	0.6804
2468.37	0.6794
2477.11	0.679
2485.85	0.6784
2494.59	0.6774
2503.33	0.677
2512.07	0.6743
2520.82	0.6723
2529.56	0.671
2538.3	0.671
2547.04	0.67
2555.78	0.669
2564.52	0.669
2573.26	0.668
2582	0.667
2590.74	0.6652
2599.48	0.6612
2608.22	0.6592
2616.97	0.6572
2625.71	0.655
2634.45	0.6531
2643.19	0.653
2651.93	0.653
2660.67	0.652
2669.41	0.651
2678.15	0.65
2686.89	0.65
2695.63	0.648
2704.37	0.645
2713.12	0.642
2721.86	0.641
2730.6	0.639
2739.34	0.6369
2748.08	0.6318
2756.82	0.626
2765.56	0.6237
2774.3	0.619
2783.04	0.6167
2791.78	0.6108
2800.52	0.6047
2809.27	0.5986
2818.01	0.5847
2826.75	0.5439
2835.49	0.5256
2844.23	0.494
2852.97	0.4434
2861.71	0.4087
2870.45	0.4309
2879.19	0.4501
2887.93	0.4283
2896.67	0.4123
2905.42	0.4033
2914.16	0.3795
2922.9	0.3331
2931.64	0.328
2940.38	0.285
2949.12	0.3441
2957.86	0.4251
2966.6	0.447
2975.34	0.451
2984.08	0.482
2992.82	0.5293
3001.57	0.5652
3010.31	0.5776
3019.05	0.5834
3027.79	0.58
3036.53	0.5768
3045.27	0.5754
3054.01	0.5776
3062.75	0.5816
3071.49	0.585
3080.23	0.581
3088.97	0.5776
3097.72	0.5723
3106.46	0.571
3115.2	0.5695
3123.94	0.5648
3132.68	0.56
3141.42	0.5529
3150.16	0.5492
3158.9	0.5395
3167.64	0.5332
3176.38	0.5265
3185.12	0.5213
3193.87	0.5106
3202.61	0.4945
3211.35	0.4786
3220.09	0.4682
3228.83	0.46
3237.57	0.4501
3246.31	0.4322
3255.05	0.4211
3263.79	0.409
3272.53	0.399
3281.27	0.3888
3290.02	0.3689
3298.76	0.3609
3307.5	0.3547
3316.24	0.3499
3324.98	0.349
3333.72	0.346
3342.46	0.3427
3351.2	0.3388
3359.94	0.3295
3368.68	0.3248
3377.42	0.325
3386.17	0.3319
3394.91	0.3444
3403.65	0.355
3412.39	0.3633
3421.13	0.3792
3429.87	0.3918
3438.61	0.4109
3447.35	0.4226
3456.09	0.4337
3464.83	0.4424
3473.57	0.4572
3482.32	0.4764
3491.06	0.4922
3499.8	0.5044
3508.54	0.5178
3517.28	0.5308
3526.02	0.5414
3534.76	0.5495
3543.5	0.5545
3552.24	0.565
3560.98	0.5696
3569.72	0.5772
3578.47	0.584
3587.21	0.5861
3595.95	0.592
3604.69	0.5946
3613.43	0.596
3622.17	0.597
3630.91	0.5993
3639.65	0.603
3648.39	0.6037
3657.13	0.605
3665.87	0.6067
3674.62	0.6105
3683.36	0.61
3692.1	0.61
3700.84	0.608
3709.58	0.605
3718.32	0.6108
3727.06	0.61
3735.8	0.6083
3744.54	0.608
3753.28	0.6098
3762.02	0.61
3770.77	0.6091
3779.51	0.611
3788.25	0.6101
3796.99	0.607
3805.73	0.607
3814.47	0.608
3823.21	0.609
3831.95	0.61
3840.69	0.611
3849.43	0.609
3858.17	0.606
3866.92	0.6059
3875.66	0.605
3884.4	0.608
3893.14	0.608
3901.88	0.605
3910.62	0.605
3919.36	0.605
3928.1	0.6048
3936.84	0.605
3945.58	0.6048
3954.32	0.604
3963.07	0.6042
3971.81	0.6037
3980.55	0.603
3989.29	0.603
3998.03	0.603
