Infrared Spectrum: 11Beta-17Beta-DIHYDROXY-17Alpha-METHYLANDROST-4-EN-3-ONE
Formula: C20 H30 O3
CAS: 1807-02-9
State: SOLID (KBr DISC)
Class: COBLENTZ III
Instrument: BECKMAN IR-7
Sampling: TRANSMISSION
Resolution: 4
Origin: THE WORCESTER FOUNDATION FOR EXPERIMENTAL BIOLOGY, Neal L. McNiven
1/CM	TRANSMITTANCE
600	0.494
609.201	0.487
618.402	0.487
627.604	0.5329
636.805	0.566
646.006	0.569
655.207	0.487
664.409	0.495
673.61	0.605
682.811	0.669
692.012	0.712
701.214	0.714
710.415	0.833
719.616	0.86
728.817	0.875
738.019	0.882
747.22	0.86
756.421	0.884
765.622	0.891
774.824	0.5742
784.025	0.851
793.226	0.849
802.427	0.938
811.629	0.935
820.83	0.93
830.031	0.88
839.232	0.732
848.434	0.747
857.635	0.66
866.836	0.5061
876.037	0.763
885.239	0.858
894.44	0.827
903.641	0.745
912.842	0.443
922.044	0.4409
931.245	0.301
940.446	0.514
949.647	0.225
958.848	0.723
968.05	0.559
977.251	0.725
986.452	0.779
995.653	0.6051
1004.85	0.603
1014.06	0.578
1023.26	0.339
1032.46	0.392
1041.66	0.337
1050.86	0.449
1060.06	0.577
1069.26	0.308
1078.46	0.235
1087.67	0.2069
1096.87	0.584
1106.07	0.516
1115.27	0.452
1124.47	0.603
1133.67	0.421
1142.87	0.532
1152.07	0.549
1161.28	0.312
1170.48	0.3829
1179.68	0.618
1188.88	0.456
1198.08	0.235
1207.28	0.5089
1216.48	0.464
1225.68	0.294
1234.89	0.173
1244.09	0.2921
1253.29	0.57
1262.49	0.532
1271.69	0.292
1280.89	0.334
1290.09	0.558
1299.29	0.422
1308.5	0.4081
1317.7	0.379
1326.9	0.504
1336.1	0.4079
1345.3	0.408
1354.5	0.352
1363.7	0.304
1372.9	0.382
1382.11	0.343
1391.31	0.483
1400.51	0.52
1409.71	0.481
1418.91	0.334
1428.11	0.245
1437.31	0.466
1446.51	0.38
1455.72	0.297
1464.92	0.506
1474.12	0.73
1483.32	0.822
1492.52	0.839
1501.72	0.852
1510.92	0.856
1520.12	0.858
1529.33	0.849
1538.53	0.838
1547.73	0.825
1556.93	0.794
1566.13	0.784
1575.33	0.739
1584.53	0.667
1593.73	0.609
1602.94	0.426
1612.14	0.098
1621.34	0.277
1630.54	0.283
1639.74	0.122
1648.94	0.008
1658.14	0.003
1667.34	0.099
1676.55	0.338
1685.75	0.457
1694.95	0.547
1704.15	0.654
1713.35	0.719
1722.55	0.74
1731.75	0.781
1740.95	0.844
1750.16	0.872
1759.36	0.886
1768.56	0.903
1777.76	0.925
1786.96	0.935
1796.16	0.942
1805.36	0.946
1814.56	0.95
1823.77	0.956
1832.97	0.962
1842.17	0.966
1851.37	0.967
1860.57	0.964
1869.77	0.962
1878.97	0.959
1888.17	0.958
1897.38	0.957
1906.58	0.959
1915.78	0.962
1924.98	0.966
1934.18	0.967
1943.38	0.964
1952.58	0.961
1961.78	0.958
1970.99	0.955
1980.19	0.95
1989.39	0.945
1998.59	0.941
2007.79	0.94
2016.99	0.939
2026.19	0.938
2035.39	0.937
2044.6	0.936
2053.8	0.9349
2063	0.933
2072.2	0.9313
2081.4	0.9301
2090.6	0.929
2099.8	0.927
2109	0.926
2118.21	0.924
2127.41	0.9227
2136.61	0.9214
2145.81	0.919
2155.01	0.917
2164.21	0.915
2173.41	0.9133
2182.61	0.912
2191.82	0.91
2201.02	0.9085
2210.22	0.906
2219.42	0.905
2228.62	0.903
2237.82	0.901
2247.02	0.8992
2256.22	0.896
2265.43	0.8936
2274.63	0.8913
2283.83	0.8891
2293.03	0.8878
2302.23	0.886
2311.43	0.886
2320.63	0.886
2329.83	0.885
2339.03	0.884
2348.24	0.884
2357.44	0.883
2366.64	0.882
2375.84	0.8777
2385.04	0.8712
2394.24	0.8646
2403.44	0.8605
2412.64	0.8583
2421.85	0.855
2431.05	0.8451
2440.25	0.837
2449.45	0.8342
2458.65	0.8295
2467.85	0.8163
2477.05	0.8114
2486.25	0.811
2495.46	0.8112
2504.66	0.813
2513.86	0.813
2523.06	0.813
2532.26	0.8094
2541.46	0.8039
2550.66	0.7945
2559.86	0.7805
2569.07	0.7659
2578.27	0.7594
2587.47	0.7571
2596.67	0.7516
2605.87	0.7461
2615.07	0.7423
2624.27	0.741
2633.47	0.7397
2642.68	0.7359
2651.88	0.7265
2661.08	0.7187
2670.28	0.7109
2679.48	0.7031
2688.68	0.6962
2697.88	0.6897
2707.08	0.6821
2716.29	0.6766
2725.49	0.667
2734.69	0.6627
2743.89	0.66
2753.09	0.6556
2762.29	0.6509
2771.49	0.646
2780.69	0.6404
2789.9	0.6351
2799.1	0.6092
2808.3	0.5664
2817.5	0.4754
2826.7	0.3691
2835.9	0.2887
2845.1	0.179
2854.3	0.277
2863.51	0.217
2872.71	0.337
2881.91	0.2523
2891.11	0.1476
2900.31	0.1117
2909.51	0.1495
2918.71	0.092
2927.91	0.0959
2937.12	0.114
2946.32	0.1048
2955.52	0.0825
2964.72	0.188
2973.92	0.2392
2983.12	0.3907
2992.32	0.4703
3001.52	0.4927
3010.73	0.5403
3019.93	0.6009
3029.13	0.6178
3038.33	0.6465
3047.53	0.7029
3056.73	0.7282
3065.93	0.7351
3075.13	0.7373
3084.34	0.733
3093.54	0.7264
3102.74	0.7185
3111.94	0.714
3121.14	0.7103
3130.34	0.6971
3139.54	0.6895
3148.74	0.6825
3157.95	0.668
3167.15	0.6566
3176.35	0.638
3185.55	0.6222
3194.75	0.601
3203.95	0.5707
3213.15	0.5449
3222.35	0.5181
3231.56	0.4912
3240.76	0.4454
3249.96	0.3979
3259.16	0.3446
3268.36	0.3032
3277.56	0.2714
3286.76	0.2063
3295.96	0.1746
3305.17	0.1541
3314.37	0.1203
3323.57	0.0878
3332.77	0.0672
3341.97	0.0598
3351.17	0.058
3360.37	0.0572
3369.57	0.056
3378.78	0.056
3387.98	0.055
3397.18	0.056
3406.38	0.0604
3415.58	0.0692
3424.78	0.081
3433.98	0.0958
3443.18	0.1227
3452.39	0.1614
3461.59	0.1957
3470.79	0.2296
3479.99	0.276
3489.19	0.341
3498.39	0.3925
3507.59	0.4544
3516.79	0.5242
3526	0.5815
3535.2	0.6332
3544.4	0.6849
3553.6	0.707
3562.8	0.7416
3572	0.7641
3581.2	0.7749
3590.4	0.7837
3599.61	0.7948
3608.81	0.7971
3618.01	0.799
3627.21	0.8053
3636.41	0.8178
3645.61	0.8272
3654.81	0.829
3664.01	0.83
3673.22	0.83
3682.42	0.828
3691.62	0.827
3700.82	0.827
3710.02	0.8269
3719.22	0.8256
3728.42	0.823
3737.62	0.8221
3746.83	0.82
3756.03	0.819
3765.23	0.818
3774.43	0.8159
3783.63	0.8127
3792.83	0.8104
3802.03	0.8072
3811.23	0.8049
3820.44	0.804
3829.64	0.803
3838.84	0.8011
3848.04	0.799
3857.24	0.797
3866.44	0.7963
3875.64	0.795
3884.84	0.794
3894.05	0.794
3903.25	0.794
3912.45	0.794
3921.65	0.794
3930.85	0.794
3940.05	0.794
3949.25	0.794
3958.45	0.794
3967.66	0.794
3976.86	0.794
3986.06	0.794
3995.26	0.794
4004.46	0.794
