Infrared Spectrum: 2-CHLOROPHENYL-1-NAPHTHYL KETONE
Formula: C17 H11 Cl O
CAS: 180780-15-8
State: SOLUTION (10% IN CCl4 FOR 5000-1350 CM^-^1, 10% IN CS2 FOR 1350-625 CM^-^1)
Class: COBLENTZ
Instrument: Not specified, most likely a prism, grating, or hybrid spectrometer.
Sampling: TRANSMISSION
Path length: 0.01 CM, 0.01 CM
Resolution: 4
Origin: DOW CHEMICAL COMPANY
MICROMETERS	TRANSMITTANCE
2.03	0.871
2.06907	0.868
2.10813	0.866
2.1472	0.871
2.18627	0.872
2.22534	0.872
2.2644	0.874
2.30347	0.874
2.34254	0.877
2.38161	0.872
2.42067	0.876
2.45974	0.881
2.49881	0.879
2.53788	0.879
2.57694	0.879
2.61601	0.879
2.65508	0.887
2.69415	0.879
2.73321	0.881
2.77228	0.871
2.81135	0.861
2.85042	0.855
2.88948	0.84
2.92855	0.833
2.96762	0.822
3.00669	0.82
3.04575	0.83
3.08482	0.84
3.12389	0.84
3.16296	0.84
3.20202	0.804
3.24109	0.716
3.28016	0.641
3.31923	0.801
3.35829	0.846
3.39736	0.859
3.43643	0.874
3.4755	0.877
3.51456	0.882
3.55363	0.882
3.5927	0.889
3.63177	0.887
3.67083	0.887
3.7099	0.894
3.74897	0.894
3.78804	0.894
3.8271	0.902
3.86617	0.9
3.90524	0.902
3.94431	0.903
3.98337	0.905
4.02244	0.907
4.06151	0.907
4.10058	0.908
4.13964	0.908
4.17871	0.905
4.21778	0.902
4.25685	0.89
4.29591	0.887
4.33498	0.889
4.37405	0.902
4.41312	0.907
4.45218	0.915
4.49125	0.923
4.53032	0.921
4.56939	0.921
4.60845	0.923
4.64752	0.925
4.68659	0.929
4.72566	0.921
4.76472	0.921
4.80379	0.921
4.84286	0.921
4.88193	0.92
4.92099	0.918
4.96006	0.915
4.99913	0.913
5.0382	0.908
5.07726	0.872
5.11633	0.868
5.1554	0.863
5.19447	0.872
5.23353	0.892
5.2726	0.885
5.31167	0.9
5.35074	0.9
5.3898	0.877
5.42887	0.872
5.46794	0.868
5.50701	0.871
5.54607	0.881
5.58514	0.887
5.62421	0.884
5.66328	0.885
5.70234	0.864
5.74141	0.842
5.78048	0.817
5.81955	0.78
5.85861	0.736
5.89768	0.596
5.93675	0.328
5.97582	0.071
6.01488	0.237
6.05395	0.542
6.09302	0.672
6.13209	0.604
6.17115	0.693
6.21022	0.565
6.24929	0.346
6.28836	0.421
6.32742	0.426
6.36649	0.436
6.40556	0.449
6.44463	0.454
6.48369	0.516
6.52276	0.57
6.56183	0.532
6.6009	0.423
6.63996	0.63
6.67903	0.76
6.7181	0.76
6.75716	0.622
6.79623	0.529
6.8353	0.662
6.87437	0.661
6.91343	0.503
6.9525	0.464
6.99157	0.739
7.03064	0.828
7.0697	0.828
7.10877	0.814
7.14784	0.806
7.18691	0.824
7.22597	0.832
7.26504	0.781
7.30411	0.798
7.34318	0.737
7.38224	0.724
7.42131	0.801
7.46038	0.846
7.49945	0.832
7.53851	0.814
7.57758	0.757
7.61665	0.641
7.65572	0.486
7.69478	0.262
7.73385	0.1
7.77292	0.245
7.81199	0.418
7.85105	0.501
7.89012	0.532
7.92919	0.578
7.96826	0.491
8.00732	0.285
8.04639	0.14
8.08546	0.428
8.12453	0.656
8.16359	0.716
8.20266	0.703
8.24173	0.653
8.2808	0.563
8.31986	0.657
8.35893	0.77
8.398	0.783
8.43707	0.785
8.47613	0.77
8.5152	0.749
8.55427	0.705
8.59334	0.622
8.6324	0.566
8.67147	0.63
8.71054	0.698
8.74961	0.744
8.78867	0.752
8.82774	0.718
8.86681	0.69
8.90588	0.644
8.94494	0.664
8.98401	0.773
9.02308	0.799
9.06215	0.804
9.10121	0.796
9.14028	0.745
9.17935	0.651
9.21842	0.54
9.25748	0.542
9.29655	0.537
9.33562	0.439
9.37469	0.558
9.41375	0.64
9.45282	0.653
9.49189	0.729
9.53096	0.64
9.57002	0.421
9.60909	0.381
9.64816	0.49
9.68723	0.612
9.72629	0.69
9.76536	0.667
9.80443	0.755
9.8435	0.798
9.88256	0.828
9.92163	0.837
9.9607	0.843
9.99977	0.848
10.0388	0.85
10.0779	0.842
10.117	0.814
10.156	0.794
10.1951	0.809
10.2342	0.793
10.2732	0.776
10.3123	0.773
10.3514	0.809
10.3904	0.814
10.4295	0.785
10.4686	0.754
10.5076	0.752
10.5467	0.758
10.5858	0.786
10.6248	0.811
10.6639	0.786
10.703	0.739
10.742	0.706
10.7811	0.57
10.8202	0.377
10.8593	0.301
10.8983	0.307
10.9374	0.345
10.9765	0.547
11.0155	0.662
11.0546	0.716
11.0937	0.762
11.1327	0.773
11.1718	0.775
11.2109	0.767
11.2499	0.755
11.289	0.744
11.3281	0.732
11.3671	0.713
11.4062	0.695
11.4453	0.667
11.4843	0.627
11.5234	0.56
11.5625	0.532
11.6015	0.56
11.6406	0.592
11.6797	0.592
11.7187	0.579
11.7578	0.614
11.7969	0.664
11.8359	0.695
11.875	0.714
11.9141	0.724
11.9531	0.726
11.9922	0.719
12.0313	0.687
12.0703	0.618
12.1094	0.583
12.1485	0.617
12.1875	0.617
12.2266	0.557
12.2657	0.485
12.3047	0.429
12.3438	0.444
12.3829	0.429
12.4219	0.333
12.461	0.257
12.5001	0.278
12.5392	0.356
12.5782	0.397
12.6173	0.46
12.6564	0.47
12.6954	0.403
12.7345	0.262
12.7736	0.11
12.8126	0.03
12.8517	0.068
12.8908	0.156
12.9298	0.219
12.9689	0.223
13.008	0.228
13.047	0.288
13.0861	0.343
13.1252	0.361
13.1642	0.355
13.2033	0.342
13.2424	0.335
13.2814	0.319
13.3205	0.254
13.3596	0.156
13.3986	0.1
13.4377	0.133
13.4768	0.19
13.5158	0.211
13.5549	0.299
13.594	0.428
13.633	0.506
13.6721	0.521
13.7112	0.513
13.7502	0.537
13.7893	0.576
13.8284	0.61
13.8674	0.617
13.9065	0.615
13.9456	0.604
13.9846	0.586
14.0237	0.557
14.0628	0.527
14.1019	0.495
14.1409	0.472
14.18	0.467
14.2191	0.477
14.2581	0.485
14.2972	0.504
14.3363	0.529
14.3753	0.553
14.4144	0.571
14.4535	0.581
14.4925	0.591
14.5316	0.592
14.5707	0.592
14.6097	0.584
14.6488	0.576
14.6879	0.563
14.7269	0.543
14.766	0.522
14.8051	0.5
14.8441	0.49
14.8832	0.488
14.9223	0.498
14.9613	0.508
15.0004	0.503
15.0395	0.49
15.0785	0.472
15.1176	0.454
15.1567	0.442
15.1957	0.434
15.2348	0.433
15.2739	0.431
15.3129	0.429
15.352	0.423
15.3911	0.418
15.4301	0.402
15.4692	0.384
15.5083	0.356
15.5473	0.322
15.5864	0.294
15.6255	0.27
15.6646	0.252
15.7036	0.242
15.7427	0.241
15.7818	0.241
15.8208	0.242
15.8599	0.242
15.899	0.276
