Infrared Spectrum: 4,4'-METHYLENE-BIS-(N-METHYLANILINE)
Formula: C15 H18 N2
CAS: 1807-55-2
State: SOLUTION (10% CCl4 FOR 5000-1300, 10% CS2 FOR 1300-625 CM^-^1)
Class: COBLENTZ
Instrument: Not specified, most likely a prism, grating, or hybrid spectrometer.
Sampling: TRANSMISSION
Path length: 0.011 CM, 0.011 CM
Resolution: 4
Origin: DOW CHEMICAL COMPANY
MICROMETERS	TRANSMITTANCE
2.02	0.838
2.06066	0.841
2.10132	0.841
2.14197	0.841
2.18263	0.845
2.22329	0.848
2.26395	0.84
2.30461	0.843
2.34527	0.851
2.38592	0.86
2.42658	0.853
2.46724	0.85
2.5079	0.863
2.54856	0.863
2.58921	0.863
2.62987	0.868
2.67053	0.87
2.71119	0.867
2.75185	0.86
2.79251	0.845
2.83316	0.813
2.87382	0.676
2.91448	0.491
2.95514	0.728
2.9958	0.777
3.03645	0.811
3.07711	0.816
3.11777	0.814
3.15843	0.801
3.19909	0.767
3.23975	0.71
3.2804	0.572
3.32106	0.464
3.36172	0.478
3.40238	0.393
3.44304	0.301
3.48369	0.496
3.52435	0.489
3.56501	0.621
3.60567	0.804
3.64633	0.84
3.68699	0.863
3.72764	0.873
3.7683	0.872
3.80896	0.87
3.84962	0.851
3.89028	0.855
3.93093	0.878
3.97159	0.895
4.01225	0.893
4.05291	0.89
4.09357	0.9
4.13423	0.9
4.17488	0.9
4.21554	0.885
4.2562	0.875
4.29686	0.878
4.33752	0.883
4.37817	0.893
4.41883	0.904
4.45949	0.905
4.50015	0.904
4.54081	0.909
4.58147	0.914
4.62212	0.91
4.66278	0.904
4.70344	0.9
4.7441	0.893
4.78476	0.898
4.82541	0.898
4.86607	0.904
4.90673	0.9
4.94739	0.897
4.98805	0.895
5.02871	0.902
5.06936	0.902
5.11002	0.9
5.15068	0.9
5.19134	0.9
5.232	0.882
5.27265	0.86
5.31331	0.821
5.35397	0.831
5.39463	0.845
5.43529	0.878
5.47595	0.882
5.5166	0.885
5.55726	0.883
5.59792	0.878
5.63858	0.867
5.67924	0.851
5.71989	0.848
5.76055	0.863
5.80121	0.868
5.84187	0.863
5.88253	0.86
5.92319	0.85
5.96384	0.818
6.0045	0.784
6.04516	0.723
6.08582	0.585
6.12648	0.313
6.16713	0.074
6.20779	0.373
6.24845	0.516
6.28911	0.461
6.32977	0.494
6.37043	0.484
6.41108	0.392
6.45174	0.316
6.4924	0.202
6.53306	0.084
6.57372	0.045
6.61437	0.154
6.65503	0.397
6.69569	0.331
6.73635	0.292
6.77701	0.503
6.81767	0.563
6.85832	0.506
6.89898	0.511
6.93964	0.531
6.9803	0.653
7.02096	0.742
7.06161	0.686
7.10227	0.57
7.14293	0.698
7.18359	0.772
7.22425	0.791
7.26491	0.796
7.30556	0.772
7.34622	0.737
7.38688	0.656
7.42754	0.51
7.4682	0.422
7.50885	0.326
7.54951	0.131
7.59017	0.082
7.63083	0.227
7.67149	0.447
7.71215	0.531
7.7528	0.486
7.79346	0.395
7.83412	0.306
7.87478	0.183
7.91544	0.117
7.95609	0.309
7.99675	0.494
8.03741	0.648
8.07807	0.696
8.11873	0.71
8.15939	0.703
8.20004	0.695
8.2407	0.668
8.28136	0.68
8.32202	0.681
8.36268	0.617
8.40333	0.425
8.44399	0.196
8.48465	0.452
8.52531	0.58
8.56597	0.575
8.60663	0.484
8.64728	0.321
8.68794	0.427
8.7286	0.585
8.76926	0.627
8.80992	0.626
8.85057	0.606
8.89123	0.575
8.93189	0.567
8.97255	0.567
9.01321	0.54
9.05387	0.528
9.09452	0.595
9.13518	0.661
9.17584	0.696
9.2165	0.703
9.25716	0.7
9.29781	0.67
9.33847	0.611
9.37913	0.521
9.41979	0.483
9.46045	0.572
9.50111	0.656
9.54176	0.708
9.58242	0.737
9.62308	0.755
9.66374	0.765
9.7044	0.774
9.74505	0.781
9.78571	0.781
9.82637	0.784
9.86703	0.777
9.90769	0.787
9.94835	0.809
9.989	0.819
10.0297	0.821
10.0703	0.824
10.111	0.828
10.1516	0.831
10.1923	0.831
10.233	0.829
10.2736	0.824
10.3143	0.821
10.3549	0.816
10.3956	0.813
10.4362	0.809
10.4769	0.797
10.5176	0.771
10.5582	0.757
10.5989	0.752
10.6395	0.757
10.6802	0.764
10.7209	0.767
10.7615	0.771
10.8022	0.774
10.8428	0.777
10.8835	0.771
10.9241	0.764
10.9648	0.749
11.0055	0.727
11.0461	0.688
11.0868	0.69
11.1274	0.722
11.1681	0.737
11.2087	0.737
11.2494	0.727
11.2901	0.71
11.3307	0.698
11.3714	0.683
11.412	0.668
11.4527	0.653
11.4934	0.639
11.534	0.617
11.5747	0.601
11.6153	0.577
11.656	0.56
11.6966	0.537
11.7373	0.501
11.778	0.449
11.8186	0.405
11.8593	0.404
11.8999	0.432
11.9406	0.461
11.9813	0.468
12.0219	0.427
12.0626	0.383
12.1032	0.331
12.1439	0.303
12.1845	0.279
12.2252	0.227
12.2659	0.151
12.3065	0.069
12.3472	0.026
12.3878	0.021
12.4285	0.055
12.4692	0.116
12.5098	0.2
12.5505	0.279
12.5911	0.356
12.6318	0.474
12.6724	0.53
12.7131	0.548
12.7538	0.552
12.7944	0.553
12.8351	0.548
12.8757	0.53
12.9164	0.505
12.9571	0.464
12.9977	0.42
13.0384	0.387
13.079	0.4
13.1197	0.456
13.1603	0.51
13.201	0.558
13.2417	0.595
13.2823	0.619
13.323	0.631
13.3636	0.638
13.4043	0.643
13.4449	0.649
13.4856	0.651
13.5263	0.653
13.5669	0.653
13.6076	0.651
13.6482	0.646
13.6889	0.639
13.7296	0.636
13.7702	0.629
13.8109	0.624
13.8515	0.617
13.8922	0.607
13.9328	0.599
13.9735	0.592
14.0142	0.577
14.0548	0.569
14.0955	0.56
14.1361	0.553
14.1768	0.55
14.2175	0.55
14.2581	0.552
14.2988	0.56
14.3394	0.562
14.3801	0.562
14.4207	0.56
14.4614	0.557
14.5021	0.553
14.5427	0.548
14.5834	0.538
14.624	0.533
14.6647	0.526
14.7054	0.52
14.746	0.51
14.7867	0.503
14.8273	0.496
14.868	0.486
14.9086	0.478
14.9493	0.469
14.99	0.462
15.0306	0.451
15.0713	0.439
15.1119	0.427
15.1526	0.414
15.1933	0.4
15.2339	0.387
15.2746	0.377
15.3152	0.368
15.3559	0.363
15.3965	0.36
15.4372	0.35
15.4779	0.346
15.5185	0.335
15.5592	0.331
15.5998	0.328
15.6405	0.321
15.6811	0.319
15.7218	0.314
15.7625	0.309
15.8031	0.303
