Infrared Spectrum: 2,5-Dimethoxyphenylacetonitrile
Formula: C 10 H 11 N O 2
CAS: 18086-24-3
State: gas
Origin: EPA-IR VAPOR PHASE LIBRARY
1/CM	ABSORBANCE
549.8	0.014381
559.445	0.013861
569.09	0.013491
578.734	0.012641
588.379	0.008951
598.024	0.009141
607.669	0.012391
617.313	0.008601
626.958	0.007531
636.603	0.009941
646.248	0.013601
655.893	0.011901
665.537	0.011131
675.182	0.010721
684.827	0.009911
694.472	0.009651
704.116	0.010651
713.761	0.016101
723.406	0.025141
733.051	0.022051
742.695	0.011001
752.34	0.011301
761.985	0.021061
771.63	0.029091
781.275	0.016201
790.919	0.008861
800.564	0.009901
810.209	0.027371
819.854	0.067941
829.498	0.048371
839.143	0.028001
848.788	0.027541
858.433	0.018731
868.078	0.009611
877.722	0.007271
887.367	0.006851
897.012	0.008041
906.657	0.009411
916.301	0.011351
925.946	0.013941
935.591	0.013051
945.236	0.009811
954.88	0.009361
964.525	0.010781
974.17	0.015161
983.815	0.026161
993.46	0.044071
1003.1	0.061761
1012.75	0.075041
1022.39	0.048921
1032.04	0.026011
1041.68	0.032531
1051.33	0.038671
1060.97	0.026871
1070.62	0.031401
1080.26	0.048561
1089.91	0.072721
1099.55	0.104691
1109.2	0.148441
1118.84	0.177431
1128.49	0.162321
1138.13	0.128651
1147.78	0.077511
1157.42	0.046051
1167.07	0.037491
1176.71	0.042511
1186.36	0.050911
1196	0.055181
1205.64	0.076871
1215.29	0.129191
1224.93	0.156971
1234.58	0.138001
1244.22	0.113781
1253.87	0.077861
1263.51	0.045781
1273.16	0.028421
1282.8	0.019471
1292.45	0.015121
1302.09	0.013641
1311.74	0.014961
1321.38	0.022671
1331.03	0.049751
1340.67	0.096371
1350.32	0.069741
1359.96	0.026051
1369.61	0.016171
1379.25	0.015511
1388.9	0.020911
1398.54	0.040611
1408.18	0.088781
1417.83	0.113491
1427.47	0.112271
1437.12	0.086611
1446.76	0.060291
1456.41	0.083871
1466.05	0.098891
1475.7	0.107291
1485.34	0.186191
1494.99	0.264461
1504.63	0.130951
1514.28	0.046181
1523.92	0.030241
1533.57	0.026831
1543.21	0.028691
1552.86	0.037651
1562.5	0.063291
1572.15	0.121291
1581.79	0.183371
1591.44	0.173961
1601.08	0.119471
1610.73	0.059071
1620.37	0.031021
1630.01	0.020301
1639.66	0.014981
1649.3	0.012021
1658.95	0.010231
1668.59	0.009051
1678.24	0.008341
1687.88	0.007801
1697.53	0.007281
1707.17	0.006751
1716.82	0.006131
1726.46	0.005751
1736.11	0.005621
1745.75	0.005561
1755.4	0.005231
1765.04	0.004841
1774.69	0.004671
1784.33	0.004511
1793.98	0.004451
1803.62	0.004431
1813.27	0.004681
1822.91	0.005101
1832.55	0.005501
1842.2	0.005421
1851.84	0.005281
1861.49	0.005751
1871.13	0.006491
1880.78	0.007271
1890.42	0.008661
1900.07	0.010881
1909.71	0.014081
1919.36	0.018771
1929	0.025281
1938.65	0.034641
1948.29	0.048151
1957.94	0.066821
1967.58	0.092331
1977.23	0.124201
1986.87	0.159691
1996.52	0.203581
2006.16	0.256681
2015.81	0.309031
2025.45	0.349131
2035.1	0.385331
2044.74	0.418751
2054.38	0.366931
2064.03	0.270271
2073.67	0.262691
2083.32	0.323591
2092.96	0.360911
2102.61	0.299471
2112.25	0.200361
2121.9	0.146661
2131.54	0.131611
2141.19	0.120681
2150.83	0.094811
2160.48	0.068141
2170.12	0.049361
2179.77	0.036791
2189.41	0.029151
2199.06	0.024111
2208.7	0.020541
2218.35	0.016171
2227.99	0.012091
2237.64	0.009521
2247.28	0.007901
2256.92	0.007111
2266.57	0.006631
2276.21	0.005661
2285.86	0.004761
2295.5	0.004491
2305.15	0.004931
2314.79	0.005861
2324.44	0.006251
2334.08	0.006321
2343.73	0.006201
2353.37	0.006111
2363.02	0.005651
2372.66	0.005641
2382.31	0.005891
2391.95	0.005981
2401.6	0.005881
2411.24	0.005681
2420.89	0.005471
2430.53	0.005141
2440.18	0.004851
2449.82	0.004731
2459.47	0.004601
2469.11	0.004471
2478.75	0.004481
2488.4	0.004691
2498.04	0.005151
2507.69	0.005261
2517.33	0.005251
2526.98	0.005371
2536.62	0.006051
2546.27	0.006581
2555.91	0.007331
2565.56	0.008171
2575.2	0.008341
2584.85	0.008531
2594.49	0.008111
2604.14	0.006941
2613.78	0.005661
2623.43	0.004791
2633.07	0.004111
2642.72	0.003871
2652.36	0.003731
2662.01	0.003401
2671.65	0.003301
2681.29	0.003221
2690.94	0.003311
2700.58	0.003251
2710.23	0.003451
2719.87	0.003401
2729.52	0.003771
2739.16	0.003981
2748.81	0.004351
2758.45	0.004681
2768.1	0.005121
2777.74	0.005521
2787.39	0.006101
2797.03	0.007351
2806.68	0.009201
2816.32	0.012671
2825.97	0.020831
2835.61	0.039481
2845.26	0.043711
2854.9	0.032731
2864.55	0.027711
2874.19	0.029531
2883.84	0.030551
2893.48	0.030971
2903.12	0.030841
2912.77	0.033701
2922.41	0.039801
2932.06	0.052071
2941.7	0.086701
2951.35	0.093511
2960.99	0.064201
2970.64	0.051371
2980.28	0.041271
2989.93	0.039271
2999.57	0.048771
3009.22	0.056391
3018.86	0.035931
3028.51	0.019281
3038.15	0.014021
3047.8	0.011521
3057.44	0.009701
3067.09	0.008621
3076.73	0.007971
3086.38	0.007381
3096.02	0.006501
3105.67	0.005291
3115.31	0.004201
3124.95	0.003301
3134.6	0.002861
3144.24	0.002461
3153.89	0.002191
3163.53	0.001841
3173.18	0.001831
3182.82	0.0014662
3192.47	0.0013105
3202.11	0.0010128
3211.76	0.0006648
3221.4	0.0006725
3231.05	0.0006338
3240.69	0.0008052
3250.34	0.0004998
3259.98	0.000175
3269.63	0.000409
3279.27	0.000411
3288.92	0.000171
3298.56	9.2e-05
3308.21	0.000409
3317.85	0.000156
3327.49	0.000212
3337.14	0.000377
3346.78	0.000197
3356.43	0.000352
3366.07	0.000207
3375.72	0.000263
3385.36	0.000175
3395.01	0.000404
3404.65	0.0004644
3414.3	0.000283
3423.94	0.000406
3433.59	0.000375
3443.23	0.000225
3452.88	0.000194
3462.52	0.000319
3472.17	0.000358
3481.81	0.000334
3491.46	0.0005126
3501.1	7.4e-05
3510.75	0.000272
3520.39	0.000253
3530.04	0.000241
3539.68	0.000129
3549.32	0.000314
3558.97	0.000171
3568.61	0.00017
3578.26	0.000203
3587.9	0.000294
3597.55	0.000333
3607.19	0.000196
3616.84	0.000217
3626.48	0.000317
3636.13	0.000418
3645.77	0.00015
3655.42	0.0005104
3665.06	0.000366
3674.71	0.000304
3684.35	0.000531859
3694	0.000387
3703.64	0.0005164
3713.29	0.0004993
3722.93	0.0004465
3732.58	0.000385
3742.22	0.000305
3751.86	0.0004432
3761.51	0.00061406
3771.15	0.00059514
3780.8	0.0007427
3790.44	0.0004798
3800.09	0.00055537
3809.73	0.00062889
3819.38	0.0005645
3829.02	0.0007809
3838.67	0.0007209
3848.31	0.0009966
3857.96	0.0008491
3867.6	0.0009907
3877.25	0.0010371
3886.89	0.0009065
3896.54	0.0012712
3906.18	0.0013473
3915.83	0.001581
3925.47	0.001591
3935.12	0.001651
3944.76	0.001901
3954.41	0.002101
3964.05	0.002191
3973.69	0.002201
3983.34	0.002271
3992.98	0.002591
