Infrared Spectrum: 2-(p-BROMOBENZHYDRYLOXY)-N,N-DIMETHYLETHYLAMINE HYDROCHLORIDE
Formula: C17 H21 Br Cl N O
CAS: 1808-12-4
State: SOLID (MINERAL OIL MULL)
Class: COBLENTZ
Instrument: Not specified, most likely a prism, grating, or hybrid spectrometer.
Sampling: TRANSMISSION
Resolution: 4
Origin: DOW CHEMICAL COMPANY
MICROMETERS	TRANSMITTANCE
2.048	0.698
2.08916	0.71
2.13031	0.715
2.17147	0.721
2.21262	0.719
2.25378	0.685
2.29493	0.671
2.33609	0.678
2.37724	0.697
2.4184	0.704
2.45955	0.71
2.50071	0.748
2.54186	0.753
2.58302	0.755
2.62417	0.761
2.66533	0.768
2.70648	0.772
2.74764	0.767
2.78879	0.768
2.82995	0.756
2.8711	0.75
2.91226	0.736
2.95341	0.736
2.99457	0.739
3.03572	0.748
3.07688	0.75
3.11803	0.741
3.15919	0.734
3.20034	0.724
3.2415	0.664
3.28266	0.561
3.32381	0.457
3.36497	0.2
3.40612	0.037
3.44728	0.04
3.48843	0.042
3.52959	0.316
3.57074	0.523
3.6119	0.608
3.65305	0.585
3.69421	0.537
3.73536	0.486
3.77652	0.416
3.81767	0.346
3.85883	0.319
3.89998	0.329
3.94114	0.37
3.98229	0.353
4.02345	0.324
4.0646	0.319
4.10576	0.36
4.14691	0.46
4.18807	0.523
4.22922	0.629
4.27038	0.683
4.31153	0.729
4.35269	0.756
4.39384	0.778
4.435	0.812
4.47615	0.833
4.51731	0.846
4.55847	0.862
4.59962	0.869
4.64078	0.874
4.68193	0.879
4.72309	0.879
4.76424	0.896
4.8054	0.897
4.84655	0.899
4.88771	0.897
4.92886	0.906
4.97002	0.906
5.01117	0.897
5.05233	0.896
5.09348	0.879
5.13464	0.911
5.17579	0.897
5.21695	0.899
5.2581	0.889
5.29926	0.925
5.34041	0.925
5.38157	0.923
5.42272	0.92
5.46388	0.909
5.50503	0.908
5.54619	0.925
5.58734	0.918
5.6285	0.914
5.66965	0.925
5.71081	0.918
5.75197	0.909
5.79312	0.906
5.83428	0.899
5.87543	0.877
5.91659	0.874
5.95774	0.879
5.9989	0.877
6.04005	0.865
6.08121	0.865
6.12236	0.86
6.16352	0.865
6.20467	0.857
6.24583	0.836
6.28698	0.836
6.32814	0.836
6.36929	0.845
6.41045	0.858
6.4516	0.865
6.49276	0.865
6.53391	0.863
6.57507	0.845
6.61622	0.807
6.65738	0.688
6.69853	0.396
6.73969	0.209
6.78084	0.158
6.822	0.085
6.86315	0.108
6.90431	0.239
6.94547	0.425
6.98662	0.608
7.02778	0.639
7.06893	0.554
7.11009	0.394
7.15124	0.221
7.1924	0.27
7.23355	0.219
7.27471	0.299
7.31586	0.454
7.35702	0.545
7.39817	0.518
7.43933	0.573
7.48048	0.676
7.52164	0.709
7.56279	0.705
7.60395	0.693
7.6451	0.697
7.68626	0.71
7.72741	0.721
7.76857	0.695
7.80972	0.698
7.85088	0.675
7.89203	0.656
7.93319	0.746
7.97434	0.768
8.0155	0.765
8.05665	0.763
8.09781	0.785
8.13897	0.797
8.18012	0.794
8.22128	0.767
8.26243	0.744
8.30359	0.744
8.34474	0.734
8.3859	0.615
8.42705	0.498
8.46821	0.421
8.50936	0.377
8.55052	0.452
8.59167	0.491
8.63283	0.603
8.67398	0.675
8.71514	0.704
8.75629	0.715
8.79745	0.717
8.8386	0.698
8.87976	0.639
8.92091	0.532
8.96207	0.331
9.00322	0.198
9.04438	0.268
9.08553	0.411
9.12669	0.532
9.16784	0.539
9.209	0.506
9.25015	0.517
9.29131	0.46
9.33246	0.346
9.37362	0.465
9.41478	0.629
9.45593	0.685
9.49709	0.693
9.53824	0.668
9.5794	0.574
9.62055	0.38
9.66171	0.287
9.70286	0.392
9.74402	0.426
9.78517	0.493
9.82633	0.586
9.86748	0.464
9.90864	0.299
9.94979	0.586
9.99095	0.605
10.0321	0.615
10.0733	0.705
10.1144	0.753
10.1556	0.753
10.1967	0.751
10.2379	0.746
10.279	0.77
10.3202	0.787
10.3613	0.806
10.4025	0.818
10.4437	0.823
10.4848	0.821
10.526	0.828
10.5671	0.835
10.6083	0.828
10.6494	0.792
10.6906	0.71
10.7317	0.632
10.7729	0.698
10.8141	0.758
10.8552	0.792
10.8964	0.846
10.9375	0.865
10.9787	0.874
11.0198	0.874
11.061	0.863
11.1021	0.833
11.1433	0.761
11.1844	0.683
11.2256	0.562
11.2668	0.605
11.3079	0.773
11.3491	0.845
11.3902	0.862
11.4314	0.865
11.4725	0.841
11.5137	0.792
11.5548	0.751
11.596	0.763
11.6372	0.78
11.6783	0.778
11.7195	0.761
11.7606	0.824
11.8018	0.857
11.8429	0.863
11.8841	0.863
11.9252	0.857
11.9664	0.84
12.0076	0.835
12.0487	0.835
12.0899	0.826
12.131	0.795
12.1722	0.78
12.2133	0.773
12.2545	0.777
12.2956	0.795
12.3368	0.814
12.3779	0.818
12.4191	0.794
12.4603	0.729
12.5014	0.54
12.5426	0.267
12.5837	0.187
12.6249	0.564
12.666	0.7
12.7072	0.724
12.7483	0.714
12.7895	0.727
12.8307	0.746
12.8718	0.688
12.913	0.579
12.9541	0.477
12.9953	0.431
13.0364	0.358
13.0776	0.377
13.1187	0.551
13.1599	0.683
13.2011	0.729
13.2422	0.739
13.2834	0.717
13.3245	0.67
13.3657	0.627
13.4068	0.622
13.448	0.666
13.4891	0.704
13.5303	0.722
13.5714	0.729
13.6126	0.726
13.6538	0.722
13.6949	0.707
13.7361	0.69
13.7772	0.668
13.8184	0.656
13.8595	0.654
13.9007	0.625
13.9418	0.574
13.983	0.557
14.0242	0.576
14.0653	0.549
14.1065	0.431
14.1476	0.285
14.1888	0.204
14.2299	0.258
14.2711	0.425
14.3122	0.566
14.3534	0.644
14.3946	0.671
14.4357	0.681
14.4769	0.683
14.518	0.68
14.5592	0.673
14.6003	0.664
14.6415	0.653
14.6826	0.624
14.7238	0.586
14.7649	0.564
14.8061	0.547
14.8473	0.542
14.8884	0.554
14.9296	0.569
14.9707	0.573
15.0119	0.573
15.053	0.569
15.0942	0.561
15.1353	0.556
15.1765	0.554
15.2177	0.544
15.2588	0.537
15.3	0.534
15.3411	0.52
15.3823	0.51
15.4234	0.496
15.4646	0.486
15.5057	0.469
15.5469	0.465
15.5881	0.455
15.6292	0.443
15.6704	0.43
15.7115	0.416
15.7527	0.397
15.7938	0.38
15.835	0.367
