Infrared Spectrum: p-CHLOROBENZENE SULFONIC ACID, 3-CHLORO-2,6-DIMETHOXYPHENYL ESTER
Formula: C14 H12 Cl2 O5 S
CAS: 18092-96-1
State: SOLUTION (10% IN CCl4 FOR 5000-1350 CM^-^1, 10% IN CS2 FOR 1350-625 CM^-^1)
Class: COBLENTZ
Instrument: Not specified, most likely a prism, grating, or hybrid spectrometer.
Sampling: TRANSMISSION
Path length: 0.01 CM, 0.01 CM
Resolution: 4
Origin: DOW CHEMICAL COMPANY
MICROMETERS	TRANSMITTANCE
2.03	0.868
2.06906	0.87
2.10812	0.87
2.14718	0.871
2.18624	0.873
2.2253	0.871
2.26436	0.865
2.30342	0.875
2.34247	0.878
2.38153	0.879
2.42059	0.876
2.45965	0.884
2.49871	0.883
2.53777	0.887
2.57683	0.884
2.61589	0.883
2.65495	0.889
2.69401	0.879
2.73307	0.878
2.77213	0.873
2.81119	0.86
2.85025	0.86
2.8893	0.868
2.92836	0.863
2.96742	0.863
3.00648	0.866
3.04554	0.866
3.0846	0.863
3.12366	0.85
3.16272	0.845
3.20178	0.829
3.24084	0.801
3.2799	0.811
3.31896	0.724
3.35802	0.673
3.39708	0.62
3.43613	0.775
3.47519	0.793
3.51425	0.764
3.55331	0.884
3.59237	0.884
3.63143	0.892
3.67049	0.902
3.70955	0.896
3.74861	0.899
3.78767	0.9
3.82673	0.886
3.86579	0.881
3.90485	0.891
3.94391	0.9
3.98296	0.907
4.02202	0.902
4.06108	0.917
4.10014	0.907
4.1392	0.894
4.17826	0.9
4.21732	0.884
4.25638	0.879
4.29544	0.883
4.3345	0.883
4.37356	0.896
4.41262	0.909
4.45168	0.91
4.49074	0.907
4.5298	0.905
4.56885	0.904
4.60791	0.91
4.64697	0.913
4.68603	0.917
4.72509	0.909
4.76415	0.907
4.80321	0.92
4.84227	0.91
4.88133	0.913
4.92039	0.909
4.95945	0.902
4.99851	0.9
5.03757	0.905
5.07663	0.902
5.11568	0.894
5.15474	0.884
5.1938	0.866
5.23286	0.878
5.27192	0.9
5.31098	0.904
5.35004	0.887
5.3891	0.883
5.42816	0.886
5.46722	0.904
5.50628	0.899
5.54534	0.887
5.5844	0.883
5.62346	0.892
5.66251	0.904
5.70157	0.897
5.74063	0.894
5.77969	0.894
5.81875	0.891
5.85781	0.884
5.89687	0.876
5.93593	0.863
5.97499	0.849
6.01405	0.824
6.05311	0.801
6.09217	0.772
6.13123	0.699
6.17029	0.564
6.20934	0.396
6.2484	0.282
6.28746	0.233
6.32652	0.313
6.36558	0.399
6.40464	0.41
6.4437	0.425
6.48276	0.498
6.52182	0.553
6.56088	0.563
6.59994	0.564
6.639	0.522
6.67806	0.357
6.71712	0.081
6.75617	0.069
6.79523	0.162
6.83429	0.327
6.87335	0.482
6.91241	0.339
6.95147	0.501
6.99053	0.41
7.02959	0.298
7.06865	0.465
7.10771	0.316
7.14677	0.081
7.18583	0.076
7.22489	0.15
7.26395	0.386
7.30301	0.582
7.34206	0.754
7.38112	0.78
7.42018	0.745
7.45924	0.732
7.4983	0.754
7.53736	0.704
7.57642	0.576
7.61548	0.35
7.65454	0.176
7.6936	0.316
7.73266	0.519
7.77172	0.457
7.81078	0.399
7.84984	0.469
7.88889	0.373
7.92795	0.495
7.96701	0.587
8.00607	0.487
8.04513	0.292
8.08419	0.149
8.12325	0.433
8.16231	0.538
8.20137	0.516
8.24043	0.397
8.27949	0.167
8.31855	0.105
8.35761	0.222
8.39667	0.194
8.43572	0.311
8.47478	0.246
8.51384	0.112
8.5529	0.136
8.59196	0.259
8.63102	0.506
8.67008	0.594
8.70914	0.61
8.7482	0.626
8.78726	0.629
8.82632	0.629
8.86538	0.568
8.90444	0.358
8.9435	0.199
8.98255	0.243
9.02161	0.256
9.06067	0.126
9.09973	0.022
9.13879	0.019
9.17785	0.051
9.21691	0.159
9.25597	0.426
9.29503	0.573
9.33409	0.633
9.37315	0.709
9.41221	0.75
9.45127	0.772
9.49033	0.779
9.52939	0.78
9.56844	0.766
9.6075	0.759
9.64656	0.762
9.68562	0.764
9.72468	0.73
9.76374	0.663
9.8028	0.433
9.84186	0.319
9.88092	0.537
9.91998	0.647
9.95904	0.748
9.9981	0.787
10.0372	0.814
10.0762	0.837
10.1153	0.845
10.1543	0.853
10.1934	0.849
10.2325	0.85
10.2715	0.834
10.3106	0.829
10.3496	0.814
10.3887	0.793
10.4277	0.758
10.4668	0.72
10.5059	0.696
10.5449	0.683
10.584	0.65
10.623	0.532
10.6621	0.342
10.7012	0.172
10.7402	0.147
10.7793	0.301
10.8183	0.478
10.8574	0.555
10.8965	0.551
10.9355	0.467
10.9746	0.336
11.0136	0.178
11.0527	0.121
11.0918	0.141
11.1308	0.215
11.1699	0.305
11.2089	0.449
11.248	0.543
11.2871	0.59
11.3261	0.599
11.3652	0.582
11.4042	0.54
11.4433	0.495
11.4823	0.439
11.5214	0.407
11.5605	0.405
11.5995	0.444
11.6386	0.487
11.6776	0.53
11.7167	0.561
11.7558	0.584
11.7948	0.599
11.8339	0.602
11.8729	0.589
11.912	0.571
11.9511	0.534
11.9901	0.472
12.0292	0.362
12.0682	0.237
12.1073	0.246
12.1464	0.422
12.1854	0.512
12.2245	0.573
12.2635	0.586
12.3026	0.589
12.3417	0.584
12.3807	0.577
12.4198	0.556
12.4588	0.516
12.4979	0.436
12.537	0.35
12.576	0.329
12.6151	0.368
12.6541	0.358
12.6932	0.298
12.7322	0.204
12.7713	0.121
12.8104	0.077
12.8494	0.05
12.8885	0.04
12.9275	0.019
12.9666	0.006
13.0057	0.008
13.0447	0.027
13.0838	0.11
13.1228	0.274
13.1619	0.43
13.201	0.529
13.24	0.571
13.2791	0.573
13.3181	0.525
13.3572	0.399
13.3963	0.261
13.4353	0.129
13.4744	0.079
13.5134	0.129
13.5525	0.241
13.5916	0.368
13.6306	0.454
13.6697	0.483
13.7087	0.493
13.7478	0.503
13.7868	0.542
13.8259	0.571
13.865	0.59
13.904	0.594
13.9431	0.589
13.9821	0.576
14.0212	0.56
14.0603	0.545
14.0993	0.529
14.1384	0.524
14.1774	0.535
14.2165	0.55
14.2556	0.548
14.2946	0.535
14.3337	0.514
14.3727	0.487
14.4118	0.462
14.4509	0.449
14.4899	0.457
14.529	0.469
14.568	0.482
14.6071	0.493
14.6462	0.5
14.6852	0.501
14.7243	0.496
14.7633	0.491
14.8024	0.475
14.8414	0.457
14.8805	0.438
14.9196	0.413
14.9586	0.404
14.9977	0.391
15.0367	0.371
15.0758	0.353
15.1149	0.337
15.1539	0.327
15.193	0.313
15.232	0.301
15.2711	0.29
15.3102	0.284
15.3492	0.269
15.3883	0.264
15.4273	0.258
15.4664	0.246
15.5055	0.241
15.5445	0.238
15.5836	0.235
15.6226	0.233
15.6617	0.228
15.7008	0.222
15.7398	0.215
15.7789	0.206
15.8179	0.191
15.857	0.196
15.8961	0.212
