Infrared Spectrum: DIBUTYL HYDROGEN PHOSPHITE
Formula: C8 H19 O3 P
CAS: 1809-19-4
State: LIQUID
Class: COBLENTZ
Instrument: Not specified, most likely a prism, grating, or hybrid spectrometer.
Sampling: TRANSMISSION
Path length: 0.003 CM
Resolution: 4
Origin: TENNESSEE EASTMAN COMPANY, RESEARCH LABORATORIES
MICROMETERS	TRANSMITTANCE
2.027	0.93
2.06786	0.936
2.10871	0.938
2.14957	0.931
2.19042	0.916
2.23128	0.911
2.27213	0.918
2.31299	0.93
2.35384	0.926
2.3947	0.942
2.43556	0.931
2.47641	0.942
2.51727	0.948
2.55812	0.952
2.59898	0.964
2.63983	0.971
2.68069	0.974
2.72154	0.967
2.7624	0.948
2.80326	0.902
2.84411	0.78
2.88497	0.686
2.92582	0.676
2.96668	0.788
3.00753	0.862
3.04839	0.916
3.08925	0.906
3.1301	0.89
3.17096	0.863
3.21181	0.843
3.25267	0.804
3.29352	0.71
3.33438	0.349
3.37523	0.037
3.41609	0.103
3.45695	0.158
3.4978	0.323
3.53866	0.638
3.57951	0.747
3.62037	0.787
3.66122	0.79
3.70208	0.829
3.74293	0.848
3.78379	0.882
3.82465	0.885
3.8655	0.899
3.90636	0.908
3.94721	0.911
3.98807	0.908
4.02892	0.896
4.06978	0.836
4.11063	0.701
4.15149	0.587
4.19235	0.567
4.2332	0.674
4.27406	0.759
4.31491	0.833
4.35577	0.901
4.39662	0.942
4.43748	0.933
4.47833	0.936
4.51919	0.947
4.56005	0.96
4.6009	0.967
4.64176	0.965
4.68261	0.965
4.72347	0.969
4.76432	0.976
4.80518	0.976
4.84604	0.977
4.88689	0.979
4.92775	0.979
4.9686	0.977
5.00946	0.977
5.05031	0.974
5.09117	0.976
5.13202	0.976
5.17288	0.972
5.21374	0.972
5.25459	0.971
5.29545	0.964
5.3363	0.952
5.37716	0.942
5.41801	0.94
5.45887	0.945
5.49972	0.943
5.54058	0.933
5.58144	0.931
5.62229	0.933
5.66315	0.94
5.704	0.928
5.74486	0.936
5.78571	0.947
5.82657	0.94
5.86742	0.942
5.90828	0.936
5.94914	0.931
5.98999	0.93
6.03085	0.926
6.0717	0.921
6.11256	0.923
6.15341	0.926
6.19427	0.931
6.23513	0.931
6.27598	0.931
6.31684	0.928
6.35769	0.926
6.39855	0.923
6.4394	0.911
6.48026	0.906
6.52111	0.904
6.56197	0.894
6.60283	0.87
6.64368	0.831
6.68454	0.732
6.72539	0.528
6.76625	0.339
6.8071	0.299
6.84796	0.465
6.88881	0.613
6.92967	0.655
6.97053	0.684
7.01138	0.781
7.05224	0.792
7.09309	0.759
7.13395	0.688
7.1748	0.592
7.21566	0.516
7.25651	0.625
7.29737	0.781
7.33823	0.807
7.37908	0.816
7.41994	0.809
7.46079	0.781
7.50165	0.781
7.5425	0.737
7.58336	0.688
7.62421	0.592
7.66507	0.521
7.70593	0.477
7.74678	0.362
7.78764	0.153
7.82849	0.035
7.86935	0.039
7.9102	0.027
7.95106	0.03
7.99192	0.039
8.03277	0.103
8.07363	0.168
8.11448	0.258
8.15534	0.402
8.19619	0.509
8.23705	0.592
8.2779	0.635
8.31876	0.681
8.35962	0.717
8.40047	0.737
8.44133	0.749
8.48218	0.749
8.52304	0.701
8.56389	0.649
8.60475	0.655
8.6456	0.572
8.68646	0.502
8.72732	0.565
8.76817	0.621
8.80903	0.586
8.84988	0.529
8.89074	0.446
8.93159	0.417
8.97245	0.453
9.0133	0.432
9.05416	0.35
9.09502	0.216
9.13587	0.117
9.17673	0.063
9.21758	0.039
9.25844	0.042
9.29929	0.04
9.34015	0.037
9.381	0.039
9.42186	0.052
9.46272	0.064
9.50357	0.066
9.54443	0.057
9.58528	0.054
9.62614	0.04
9.66699	0.035
9.70785	0.042
9.74871	0.054
9.78956	0.068
9.83042	0.064
9.87127	0.054
9.91213	0.042
9.95298	0.034
9.99384	0.03
10.0347	0.027
10.0755	0.023
10.1164	0.023
10.1573	0.022
10.1981	0.022
10.239	0.023
10.2798	0.023
10.3207	0.023
10.3615	0.025
10.4024	0.025
10.4433	0.028
10.4841	0.032
10.525	0.034
10.5658	0.039
10.6067	0.068
10.6475	0.124
10.6884	0.221
10.7292	0.352
10.7701	0.468
10.811	0.548
10.8518	0.599
10.8927	0.625
10.9335	0.637
10.9744	0.623
11.0152	0.599
11.0561	0.574
11.0969	0.551
11.1378	0.555
11.1787	0.57
11.2195	0.586
11.2604	0.603
11.3012	0.626
11.3421	0.652
11.3829	0.686
11.4238	0.724
11.4646	0.751
11.5055	0.768
11.5464	0.773
11.5872	0.77
11.6281	0.752
11.6689	0.729
11.7098	0.71
11.7506	0.671
11.7915	0.643
11.8323	0.623
11.8732	0.604
11.9141	0.599
11.9549	0.604
11.9958	0.599
12.0366	0.587
12.0775	0.582
12.1183	0.592
12.1592	0.601
12.2	0.601
12.2409	0.594
12.2818	0.597
12.3226	0.603
12.3635	0.606
12.4043	0.604
12.4452	0.58
12.486	0.558
12.5269	0.529
12.5677	0.519
12.6086	0.512
12.6495	0.514
12.6903	0.517
12.7312	0.521
12.772	0.534
12.8129	0.55
12.8537	0.567
12.8946	0.577
12.9354	0.599
12.9763	0.611
13.0172	0.628
13.058	0.674
13.0989	0.701
13.1397	0.729
13.1806	0.732
13.2214	0.741
13.2623	0.727
13.3031	0.72
13.344	0.713
13.3849	0.713
13.4257	0.696
13.4666	0.683
13.5074	0.647
13.5483	0.625
13.5891	0.613
13.63	0.609
13.6708	0.603
13.7117	0.604
13.7526	0.609
13.7934	0.635
13.8343	0.66
13.8751	0.676
13.916	0.701
13.9568	0.713
13.9977	0.732
14.0385	0.752
14.0794	0.773
14.1203	0.8
14.1611	0.812
14.202	0.831
14.2428	0.841
14.2837	0.853
14.3245	0.865
14.3654	0.868
14.4062	0.87
14.4471	0.879
14.488	0.88
14.5288	0.872
14.5697	0.879
14.6105	0.877
14.6514	0.879
14.6922	0.873
14.7331	0.87
14.7739	0.868
14.8148	0.867
14.8557	0.863
14.8965	0.862
14.9374	0.851
14.9782	0.846
15.0191	0.817
15.0599	0.805
15.1008	0.81
15.1416	0.831
15.1825	0.836
15.2234	0.831
15.2642	0.819
15.3051	0.81
15.3459	0.805
15.3868	0.793
15.4276	0.783
15.4685	0.781
15.5093	0.776
15.5502	0.764
15.5911	0.752
15.6319	0.751
15.6728	0.747
15.7136	0.742
15.7545	0.73
15.7953	0.715
15.8362	0.713
15.877	0.71
15.9179	0.7
15.9588	0.693
