Infrared Spectrum: 2-Methyl-1-tridecene
Formula: C 14 H 28
CAS: 18094-01-4
State: gas
Instrument: HP-GC/MS/IRD
Origin: NIST Mass Spectrometry Data Center
1/CM	ABSORBANCE
550	0.000612
562	0.0003168
574	0.0002592
586	6.48e-05
598	0.0001008
610	9.36e-05
622	3.6e-05
634	6.48e-05
646	0.0001008
658	0.0001224
670	9.36e-05
682	0.0002232
694	0.0003888
706	0.0007416
718	0.0010656
730	0.0009792
742	0.0007848
754	0.0005616
766	0.0004752
778	0.0003744
790	0.0003744
802	0.0003816
814	0.0003816
826	0.000432
838	0.0005328
850	0.0007416
862	0.0013464
874	0.0028512
886	0.0067464
898	0.0049392
910	0.00198
922	0.0009936
934	0.0005832
946	0.0004464
958	0.0003816
970	0.0003456
982	0.0003168
994	0.0003672
1006	0.0003672
1018	0.000324
1030	0.0002952
1042	0.000324
1054	0.0003168
1066	0.0002952
1078	0.0003024
1090	0.0002376
1102	0.0002736
1114	0.0002736
1126	0.000252
1138	0.0002232
1150	0.0002448
1162	0.0003168
1174	0.0003312
1186	0.000324
1198	0.0004104
1210	0.0005184
1222	0.0006192
1234	0.00072
1246	0.0007848
1258	0.0009072
1270	0.0011088
1282	0.0011736
1294	0.001224
1306	0.0012816
1318	0.0012024
1330	0.0013032
1342	0.001836
1354	0.0022968
1366	0.0024336
1378	0.0030456
1390	0.002052
1402	0.0014256
1414	0.0014976
1426	0.002016
1438	0.0034056
1450	0.0055728
1462	0.0064872
1474	0.0039888
1486	0.001764
1498	0.000972
1510	0.0006696
1522	0.0005256
1534	0.0004032
1546	0.0003888
1558	0.0003744
1570	0.0004032
1582	0.0004464
1594	0.0004896
1606	0.0006048
1618	0.0008496
1630	0.0014544
1642	0.0024912
1654	0.0023688
1666	0.001044
1678	0.0004968
1690	0.0002664
1702	0.0001872
1714	0.0001368
1726	9.36e-05
1738	0.0001008
1750	0.0001296
1762	0.0002016
1774	0.0003456
1786	0.0004608
1798	0.0003096
1810	0.0001728
1822	9.36e-05
1834	6.48e-05
1846	5.04e-05
1858	4.32e-05
1870	3.6e-05
1882	2.16e-05
1894	0
1906	2.16e-05
1918	1.44e-05
1930	7.2e-06
1942	1.44e-05
1954	7.2e-06
1966	0
1978	7.2e-06
1990	2.16e-05
2002	3.6e-05
2014	3.6e-05
2026	7.2e-05
2038	7.92e-05
2050	7.2e-05
2062	7.2e-05
2074	7.2e-05
2086	4.32e-05
2098	4.32e-05
2110	3.6e-05
2122	4.32e-05
2134	5.04e-05
2146	4.32e-05
2158	5.76e-05
2170	5.04e-05
2182	5.76e-05
2194	5.04e-05
2206	4.32e-05
2218	5.76e-05
2230	7.2e-05
2242	5.04e-05
2254	5.04e-05
2266	6.48e-05
2278	6.48e-05
2290	7.92e-05
2302	0.0001008
2314	9.36e-05
2326	0.0001008
2338	8.64e-05
2350	9.36e-05
2362	9.36e-05
2374	6.48e-05
2386	8.64e-05
2398	8.64e-05
2410	8.64e-05
2422	7.2e-05
2434	0.000108
2446	8.64e-05
2458	7.92e-05
2470	0.000108
2482	0.000108
2494	0.0001152
2506	0.0001368
2518	0.0001584
2530	0.0001872
2542	0.00018
2554	0.0002304
2566	0.0002448
2578	0.0002736
2590	0.0003024
2602	0.0003528
2614	0.0003888
2626	0.000432
2638	0.0004968
2650	0.00054
2662	0.0006336
2674	0.0007056
2686	0.0007416
2698	0.000684
2710	0.0006984
2722	0.0007776
2734	0.0008784
2746	0.0009504
2758	0.000972
2770	0.0011016
2782	0.0013608
2794	0.0017712
2806	0.002304
2818	0.0031752
2830	0.004752
2842	0.0083304
2854	0.0187776
2866	0.0264168
2878	0.0197136
2890	0.0174888
2902	0.0216504
2914	0.0339696
2926	0.0612216
2938	0.0677088
2950	0.0380088
2962	0.0247752
2974	0.0200592
2986	0.0108
2998	0.006372
3010	0.0040896
3022	0.0029232
3034	0.002304
3046	0.0020448
3058	0.0022536
3070	0.0034056
3082	0.0047232
3094	0.0024192
3106	0.0012456
3118	0.000828
3130	0.000648
3142	0.0005184
3154	0.0004464
3166	0.0003816
3178	0.00036
3190	0.0003024
3202	0.0002232
3214	0.0001944
3226	0.0001728
3238	0.0001512
3250	0.0001296
3262	0.000108
3274	0.0001008
3286	9.36e-05
3298	9.36e-05
3310	0.000108
3322	0.0001224
3334	8.64e-05
3346	7.92e-05
3358	9.36e-05
3370	0.0001008
3382	8.64e-05
3394	0.000108
3406	7.92e-05
3418	7.92e-05
3430	7.92e-05
3442	8.64e-05
3454	3.6e-05
3466	7.2e-05
3478	3.6e-05
3490	5.76e-05
3502	7.2e-05
3514	5.04e-05
3526	2.88e-05
3538	2.88e-05
3550	4.32e-05
3562	7.2e-05
3574	7.2e-05
3586	9.36e-05
3598	7.92e-05
3610	0.0001152
3622	0.0001368
3634	0.000108
3646	0.000144
3658	0.0001368
3670	0.000144
3682	0.0001008
3694	0.000108
3706	0.0001296
3718	0.0001296
3730	0.0001584
3742	0.0001296
3754	0.0001512
3766	0.000144
3778	0.0001656
3790	0.0001296
3802	0.0001656
3814	0.00018
3826	0.0001656
3838	0.0001944
