Infrared Spectrum: Phosphonic acid, dipropyl ester
Formula: C6 H15 O3 P
CAS: 1809-21-8
State: SOLUTION (10% CCl4 FOR 3800-1330, 10% AND 2% CS2 FOR 1330-400 CM^-^1)
Class: COBLENTZ III
Instrument: BECKMAN IR-9 (GRATING)
Instrument parameters: ORDER CHANGES: 670, 1200, 2000 CM^-^1
Sampling: TRANSMISSION
Path length: 0.011 CM, 0.011 CM
Resolution: 2
Origin: DOW CHEMICAL COMPANY
1/CM	TRANSMITTANCE
3800	0.9244
3791	0.9256
3782	0.9246
3773	0.9259
3764	0.9261
3755	0.9256
3746	0.9252
3737	0.9256
3728	0.9252
3719	0.9236
3710	0.9245
3701	0.9188
3692	0.9062
3683	0.9049
3674	0.912
3665	0.9124
3656	0.907
3647	0.8948
3638	0.8929
3629	0.8961
3620	0.8999
3611	0.8979
3602	0.8955
3593	0.8879
3584	0.8832
3575	0.8825
3566	0.8755
3557	0.8634
3548	0.8504
3539	0.8298
3530	0.8077
3521	0.7837
3512	0.7567
3503	0.726
3494	0.697
3485	0.6674
3476	0.6549
3467	0.6536
3458	0.6579
3449	0.6676
3440	0.6824
3431	0.7004
3422	0.7185
3413	0.7363
3404	0.7536
3395	0.7709
3386	0.7839
3377	0.7964
3368	0.8071
3359	0.8175
3350	0.8279
3341	0.8342
3332	0.8396
3323	0.8422
3314	0.8446
3305	0.8463
3296	0.846
3287	0.8463
3278	0.847
3269	0.8473
3260	0.8473
3251	0.8476
3242	0.8473
3233	0.8468
3224	0.8452
3215	0.8434
3206	0.8407
3197	0.8404
3188	0.84
3179	0.8381
3170	0.8369
3161	0.8364
3152	0.8361
3143	0.8344
3134	0.8343
3125	0.8325
3116	0.8302
3107	0.828
3098	0.8254
3089	0.8219
3080	0.8163
3071	0.8124
3062	0.8025
3053	0.7903
3044	0.7798
3035	0.767
3026	0.74
3017	0.6971
3008	0.5925
2999	0.4131
2990	0.1689
2981	0.0269
2972	0.0381
2963	0.1276
2954	0.1888
2945	0.14
2936	0.2008
2927	0.2717
2918	0.3426
2909	0.2735
2900	0.2729
2891	0.2383
2882	0.2678
2873	0.4515
2864	0.5157
2855	0.5364
2846	0.6457
2837	0.6881
2828	0.7137
2819	0.7317
2810	0.746
2801	0.7567
2792	0.7589
2783	0.7566
2774	0.7576
2765	0.7586
2756	0.7589
2747	0.7606
2738	0.774
2729	0.7865
2720	0.7951
2711	0.799
2702	0.7976
2693	0.7964
2684	0.8038
2675	0.8108
2666	0.8151
2657	0.8196
2648	0.8227
2639	0.8258
2630	0.8296
2621	0.8336
2612	0.8365
2603	0.8394
2594	0.8423
2585	0.8452
2576	0.8479
2567	0.8492
2558	0.8506
2549	0.8506
2540	0.8498
2531	0.8467
2522	0.8415
2513	0.8347
2504	0.8247
2495	0.8087
2486	0.7851
2477	0.7523
2468	0.7042
2459	0.6028
2450	0.5187
2441	0.485
2432	0.4998
2423	0.5529
2414	0.5982
2405	0.6376
2396	0.6848
2387	0.7336
2378	0.7736
2369	0.8076
2360	0.823
2351	0.8323
2342	0.838
2333	0.8411
2324	0.8446
2315	0.8417
2306	0.8371
2297	0.84
2288	0.8441
2279	0.8494
2270	0.853
2261	0.8567
2252	0.8595
2243	0.8626
2234	0.8668
2225	0.8703
2216	0.8717
2207	0.8741
2198	0.875
2189	0.8746
2180	0.8749
2171	0.8762
2162	0.8766
2153	0.8792
2144	0.8816
2135	0.884
2126	0.8862
2117	0.8882
2108	0.8901
2099	0.8918
2090	0.893
2081	0.8936
2072	0.8943
2063	0.8952
2054	0.8981
2045	0.9
2036	0.8997
2027	0.8998
2018	0.8985
2009	0.8969
2000	0.8965
1991	0.8949
1982	0.8934
1973	0.8927
1964	0.8929
1955	0.8938
1946	0.8887
1937	0.8828
1928	0.8805
1919	0.8791
1910	0.8783
1901	0.8784
1892	0.8773
1883	0.8761
1874	0.8753
1865	0.8733
1856	0.8708
1847	0.8674
1838	0.8641
1829	0.8588
1820	0.8553
1811	0.8555
1802	0.8552
1793	0.8618
1784	0.8685
1775	0.8717
1766	0.8682
1757	0.8621
1748	0.8606
1739	0.8595
1730	0.859
1721	0.8563
1712	0.8517
1703	0.8489
1694	0.8469
1685	0.8459
1676	0.8449
1667	0.8446
1658	0.843
1649	0.8394
1640	0.8364
1631	0.8319
1622	0.8251
1613	0.8212
1604	0.8014
1595	0.7755
1586	0.7453
1577	0.7447
1568	0.7244
1559	0.6796
1550	0.734
1541	0.7861
1532	0.7928
1523	0.8008
1514	0.8094
1505	0.8023
1496	0.7715
1487	0.649
1478	0.4242
1469	0.3327
1460	0.3735
1451	0.6428
1442	0.6671
1433	0.7509
1424	0.7923
1415	0.7883
1406	0.7512
1397	0.503
1388	0.6274
1379	0.6515
1370	0.7943
1361	0.8082
1352	0.7588
1343	0.7997
1334	0.7837
1325	0.7406
1316	0.6974
1307	0.5718
1298	0.5156
1289	0.3347
1280	0.0999
1271	0.0169
1262	0.0064
1253	0.0139
1244	0.1063
1235	0.2472
1226	0.3689
1217	0.4851
1208	0.5915
1199	0.659
1190	0.693
1181	0.6872
1172	0.6154
1163	0.5941
1154	0.5224
1145	0.6302
1136	0.6428
1127	0.593
1118	0.5841
1109	0.4912
1100	0.3211
1091	0.1086
1082	0.0475
1073	0.0581
1064	0.048
1055	0.093
1046	0.156
1037	0.1693
1028	0.1012
1019	0.0549
1010	0.036
1001	0.0215
992	0.0082
983	0.002
974	0.0006
965	0.0012
956	0.041
947	0.261
938	0.5182
929	0.6077
920	0.5987
911	0.5657
902	0.5408
893	0.6109
884	0.6081
875	0.6063
866	0.5714
857	0.4959
848	0.4698
839	0.5249
830	0.5829
821	0.6021
812	0.6336
803	0.6923
794	0.753
785	0.8047
776	0.8235
767	0.8024
758	0.6912
749	0.6664
740	0.6398
731	0.7042
722	0.7489
713	0.8228
704	0.87
695	0.8918
686	0.91
677	0.9169
668	0.9135
659	0.8453
650	0.8666
641	0.8902
632	0.8965
623	0.8921
614	0.8837
605	0.8709
596	0.8531
587	0.8236
578	0.7735
569	0.6471
560	0.441
551	0.3016
542	0.448
533	0.5493
524	0.5856
515	0.6587
506	0.7007
497	0.6838
488	0.6534
479	0.6542
470	0.6572
461	0.6475
452	0.6256
443	0.5939
434	0.5437
425	0.4517
416	0.3025
407	0.2245
