Infrared Spectrum: PHOSPHONIC ACID, DI-ISOPROPYL ESTER
Formula: C6 H15 O3 P
CAS: 1809-20-7
State: LIQUID
Class: COBLENTZ
Instrument: PERKIN-ELMER
Sampling: TRANSMISSION
Path length: 0.0015 CM
Resolution: 4
Origin: STANDARD OIL OF OHIO
MICROMETERS	TRANSMITTANCE
2.013	0.989
2.04671	0.989
2.08043	0.988
2.11414	0.988
2.14786	0.988
2.18157	0.989
2.21529	0.989
2.249	0.972
2.28272	0.945
2.31643	0.932
2.35015	0.947
2.38386	0.952
2.41757	0.955
2.45129	0.955
2.485	0.967
2.51872	0.971
2.55243	0.971
2.58615	0.971
2.61986	0.974
2.65358	0.976
2.68729	0.979
2.72101	0.979
2.75472	0.976
2.78844	0.954
2.82215	0.928
2.85586	0.872
2.88958	0.86
2.92329	0.886
2.95701	0.91
2.99072	0.926
3.02444	0.938
3.05815	0.938
3.09187	0.923
3.12558	0.915
3.1593	0.915
3.19301	0.915
3.22672	0.908
3.26044	0.874
3.29415	0.677
3.32787	0.224
3.36158	0.057
3.3953	0.059
3.42901	0.149
3.46273	0.31
3.49644	0.624
3.53016	0.786
3.56387	0.852
3.59758	0.867
3.6313	0.87
3.66501	0.877
3.69873	0.901
3.73244	0.91
3.76616	0.918
3.79987	0.92
3.83359	0.923
3.8673	0.926
3.90102	0.937
3.93473	0.94
3.96845	0.94
4.00216	0.938
4.03587	0.921
4.06959	0.853
4.1033	0.682
4.13702	0.56
4.17073	0.633
4.20445	0.767
4.23816	0.845
4.27188	0.898
4.30559	0.92
4.33931	0.928
4.37302	0.933
4.40673	0.94
4.44045	0.943
4.47416	0.945
4.50788	0.95
4.54159	0.952
4.57531	0.952
4.60902	0.954
4.64274	0.955
4.67645	0.955
4.71017	0.957
4.74388	0.959
4.7776	0.959
4.81131	0.959
4.84502	0.959
4.87874	0.96
4.91245	0.96
4.94617	0.96
4.97988	0.959
5.0136	0.957
5.04731	0.957
5.08103	0.954
5.11474	0.95
5.14846	0.949
5.18217	0.947
5.21588	0.945
5.2496	0.942
5.28331	0.94
5.31703	0.938
5.35074	0.937
5.38446	0.933
5.41817	0.93
5.45189	0.928
5.4856	0.925
5.51932	0.923
5.55303	0.923
5.58674	0.926
5.62046	0.926
5.65417	0.925
5.68789	0.925
5.7216	0.916
5.75532	0.896
5.78903	0.894
5.82275	0.91
5.85646	0.918
5.89018	0.926
5.92389	0.93
5.95761	0.93
5.99132	0.932
6.02503	0.928
6.05875	0.926
6.09246	0.925
6.12618	0.923
6.15989	0.925
6.19361	0.93
6.22732	0.93
6.26104	0.93
6.29475	0.928
6.32847	0.93
6.36218	0.928
6.39589	0.926
6.42961	0.923
6.46332	0.92
6.49704	0.92
6.53075	0.918
6.56447	0.911
6.59818	0.899
6.6319	0.884
6.66561	0.845
6.69933	0.724
6.73304	0.49
6.76675	0.21
6.80047	0.142
6.83418	0.202
6.8679	0.382
6.90161	0.546
6.93533	0.677
6.96904	0.748
7.00276	0.787
7.03647	0.799
7.07019	0.799
7.1039	0.774
7.13762	0.646
7.17133	0.322
7.20504	0.375
7.23876	0.49
7.27247	0.371
7.30619	0.434
7.3399	0.641
7.37362	0.699
7.40733	0.731
7.44105	0.791
7.47476	0.813
7.50848	0.813
7.54219	0.784
7.5759	0.767
7.60962	0.765
7.64333	0.73
7.67705	0.674
7.71076	0.668
7.74448	0.587
7.77819	0.383
7.81191	0.212
7.84562	0.112
7.87934	0.042
7.91305	0.01
7.94677	0.005
7.98048	0.023
8.01419	0.129
8.04791	0.29
8.08162	0.455
8.11534	0.55
8.14905	0.606
8.18277	0.657
8.21648	0.699
8.2502	0.726
8.28391	0.75
8.31763	0.76
8.35134	0.76
8.38505	0.75
8.41877	0.68
8.45248	0.619
8.4862	0.612
8.51991	0.665
8.55363	0.684
8.58734	0.682
8.62106	0.685
8.65477	0.701
8.68849	0.713
8.7222	0.716
8.75591	0.696
8.78963	0.638
8.82334	0.611
8.85706	0.643
8.89077	0.665
8.92449	0.663
8.9582	0.64
8.99192	0.595
9.02563	0.5
9.05935	0.417
9.09306	0.307
9.12678	0.312
9.16049	0.376
9.1942	0.385
9.22792	0.349
9.26163	0.303
9.29535	0.259
9.32906	0.242
9.36278	0.241
9.39649	0.237
9.43021	0.222
9.46392	0.208
9.49764	0.198
9.53135	0.186
9.56506	0.176
9.59878	0.161
9.63249	0.14
9.66621	0.125
9.69992	0.113
9.73364	0.098
9.76735	0.084
9.80107	0.076
9.83478	0.062
9.8685	0.028
9.90221	0.015
9.93592	0.011
9.96964	0.006
10.0034	0.003
10.0371	0
10.0708	0
10.1045	0
10.1382	0
10.1719	0
10.2056	0
10.2394	0
10.2731	0
10.3068	0
10.3405	0
10.3742	0
10.4079	0
10.4416	0.003
10.4754	0.03
10.5091	0.101
10.5428	0.176
10.5765	0.251
10.6102	0.303
10.6439	0.331
10.6776	0.327
10.7114	0.269
10.7451	0.186
10.7788	0.139
10.8125	0.152
10.8462	0.2
10.8799	0.307
10.9136	0.426
10.9474	0.514
10.9811	0.575
11.0148	0.621
11.0485	0.651
11.0822	0.675
11.1159	0.696
11.1496	0.704
11.1834	0.716
11.2171	0.726
11.2508	0.733
11.2845	0.736
11.3182	0.736
11.3519	0.731
11.3857	0.716
11.4194	0.692
11.4531	0.651
11.4868	0.602
11.5205	0.522
11.5542	0.466
11.5879	0.402
11.6217	0.363
11.6554	0.356
11.6891	0.37
11.7228	0.422
11.7565	0.487
11.7902	0.536
11.8239	0.56
11.8577	0.568
11.8914	0.56
11.9251	0.551
11.9588	0.548
11.9925	0.563
12.0262	0.619
12.0599	0.651
12.0937	0.674
12.1274	0.687
12.1611	0.685
12.1948	0.67
12.2285	0.645
12.2622	0.624
12.2959	0.612
12.3297	0.604
12.3634	0.597
12.3971	0.573
12.4308	0.558
12.4645	0.555
12.4982	0.565
12.5319	0.59
12.5657	0.619
12.5994	0.648
12.6331	0.692
12.6668	0.731
12.7005	0.75
12.7342	0.779
12.7679	0.797
12.8017	0.811
12.8354	0.823
12.8691	0.835
12.9028	0.845
12.9365	0.848
12.9702	0.85
13.004	0.852
13.0377	0.852
13.0714	0.853
13.1051	0.857
13.1388	0.859
13.1725	0.862
13.2062	0.864
13.24	0.867
13.2737	0.872
13.3074	0.876
13.3411	0.877
13.3748	0.877
13.4085	0.879
13.4422	0.881
13.476	0.884
13.5097	0.887
13.5434	0.887
13.5771	0.887
13.6108	0.889
13.6445	0.889
13.6782	0.891
13.712	0.893
13.7457	0.894
13.7794	0.898
13.8131	0.901
13.8468	0.901
13.8805	0.901
13.9142	0.901
13.948	0.901
13.9817	0.901
14.0154	0.903
14.0491	0.904
14.0828	0.906
14.1165	0.91
14.1502	0.91
14.184	0.911
14.2177	0.911
14.2514	0.911
14.2851	0.911
14.3188	0.911
14.3525	0.911
14.3862	0.911
14.42	0.911
14.4537	0.91
14.4874	0.91
14.5211	0.908
14.5548	0.906
14.5885	0.904
14.6223	0.904
14.656	0.904
14.6897	0.904
14.7234	0.904
14.7571	0.904
14.7908	0.904
14.8245	0.904
14.8583	0.904
14.892	0.904
14.9257	0.903
14.9594	0.903
14.9931	0.903
15.0268	0.901
15.0605	0.899
15.0943	0.898
15.128	0.894
15.1617	0.889
15.1954	0.886
15.2291	0.884
15.2628	0.882
15.2965	0.882
15.3303	0.881
15.364	0.881
