Infrared Spectrum: 1,3-BIS-(p-BROMOPHENYL)-TETRAMETHYL DISILOXANE
Formula: C16 H20 Br2 O Si2
CAS: 18106-46-2
State: LIQUID
Boiling point: 164-172 C AT 0.3-0.5 mmHg
Class: COBLENTZ
Instrument: Not specified, most likely a prism, grating, or hybrid spectrometer.
Sampling: TRANSMISSION
Path length: 0.003 CM
Resolution: 4
Origin: WYANDOTTE CHEMICALS CORP., WYANDOTTE, MICHIGAN, USA
MICROMETERS	TRANSMITTANCE
2.05	0.993
2.08715	0.99
2.1243	0.987
2.16145	0.984
2.1986	0.979
2.23575	0.973
2.2729	0.973
2.31005	0.972
2.3472	0.97
2.38435	0.964
2.42149	0.962
2.45864	0.962
2.49579	0.962
2.53294	0.962
2.57009	0.962
2.60724	0.961
2.64439	0.959
2.68154	0.951
2.71869	0.92
2.75584	0.916
2.79299	0.913
2.83014	0.922
2.86729	0.925
2.90444	0.925
2.94159	0.93
2.97874	0.928
3.01589	0.922
3.05304	0.916
3.09018	0.913
3.12733	0.906
3.16448	0.874
3.20163	0.81
3.23878	0.741
3.27593	0.663
3.31308	0.615
3.35023	0.386
3.38738	0.52
3.42453	0.713
3.46168	0.762
3.49883	0.821
3.53598	0.837
3.57313	0.844
3.61028	0.855
3.64743	0.889
3.68458	0.899
3.72173	0.897
3.75887	0.883
3.79602	0.894
3.83317	0.903
3.87032	0.888
3.90747	0.88
3.94462	0.879
3.98177	0.877
4.01892	0.858
4.05607	0.866
4.09322	0.888
4.13037	0.885
4.16752	0.879
4.20467	0.871
4.24182	0.883
4.27897	0.893
4.31612	0.903
4.35327	0.91
4.39042	0.885
4.42756	0.863
4.46471	0.871
4.50186	0.88
4.53901	0.875
4.57616	0.875
4.61331	0.88
4.65046	0.874
4.68761	0.877
4.72476	0.88
4.76191	0.879
4.79906	0.875
4.83621	0.872
4.87336	0.875
4.91051	0.872
4.94766	0.869
4.98481	0.863
5.02196	0.871
5.05911	0.869
5.09625	0.863
5.1334	0.862
5.17055	0.854
5.2077	0.841
5.24485	0.787
5.282	0.663
5.31915	0.821
5.3563	0.841
5.39345	0.86
5.4306	0.857
5.46775	0.841
5.5049	0.846
5.54205	0.837
5.5792	0.793
5.61635	0.801
5.6535	0.823
5.69065	0.807
5.7278	0.813
5.76494	0.817
5.80209	0.831
5.83924	0.827
5.87639	0.823
5.91354	0.824
5.95069	0.813
5.98784	0.801
6.02499	0.759
6.06214	0.657
6.09929	0.679
6.13644	0.663
6.17359	0.68
6.21074	0.665
6.24789	0.499
6.28504	0.114
6.32219	0.156
6.35934	0.39
6.39649	0.448
6.43363	0.626
6.47078	0.751
6.50793	0.756
6.54508	0.748
6.58223	0.739
6.61938	0.724
6.65653	0.646
6.69368	0.308
6.73083	0.136
6.76798	0.621
6.80513	0.691
6.84228	0.671
6.87943	0.624
6.91658	0.593
6.95373	0.606
6.99088	0.617
7.02803	0.525
7.06518	0.4
7.10232	0.426
7.13947	0.485
7.17662	0.53
7.21377	0.339
7.25092	0.082
7.28807	0.494
7.32522	0.627
7.36237	0.652
7.39952	0.651
7.43667	0.621
7.47382	0.59
7.51097	0.609
7.54812	0.61
7.58527	0.652
7.62242	0.662
7.65957	0.513
7.69672	0.665
7.73387	0.657
7.77101	0.618
7.80816	0.534
7.84531	0.387
7.88246	0.151
7.91961	0.024
7.95676	0.026
7.99391	0.105
8.03106	0.392
8.06821	0.545
8.10536	0.618
8.14251	0.665
8.17966	0.689
8.21681	0.7
8.25396	0.711
8.29111	0.711
8.32826	0.694
8.36541	0.662
8.40256	0.551
8.4397	0.598
8.47685	0.643
8.514	0.643
8.55115	0.613
8.5883	0.624
8.62545	0.623
8.6626	0.604
8.69975	0.578
8.7369	0.541
8.77405	0.486
8.8112	0.41
8.84835	0.316
8.8855	0.226
8.92265	0.075
8.9598	0.026
8.99695	0.065
9.0341	0.094
9.07125	0.071
9.10839	0.031
9.14554	0.027
9.18269	0.026
9.21984	0.024
9.25699	0.023
9.29414	0.02
9.33129	0.023
9.36844	0.024
9.40559	0.026
9.44274	0.021
9.47989	0.023
9.51704	0.02
9.55419	0.02
9.59134	0.024
9.62849	0.026
9.66564	0.023
9.70279	0.026
9.73994	0.051
9.77708	0.083
9.81423	0.113
9.85138	0.046
9.88853	0.026
9.92568	0.027
9.96283	0.105
9.99998	0.213
10.0371	0.333
10.0743	0.407
10.1114	0.441
10.1486	0.463
10.1857	0.474
10.2229	0.499
10.26	0.541
10.2972	0.584
10.3343	0.603
10.3715	0.609
10.4086	0.632
10.4458	0.652
10.4829	0.662
10.5201	0.657
10.5572	0.634
10.5944	0.6
10.6315	0.615
10.6687	0.652
10.7058	0.646
10.743	0.648
10.7801	0.641
10.8173	0.617
10.8544	0.595
10.8916	0.584
10.9287	0.593
10.9659	0.598
11.003	0.604
11.0402	0.609
11.0773	0.613
11.1145	0.612
11.1516	0.6
11.1888	0.587
11.2259	0.573
11.2631	0.558
11.3002	0.533
11.3374	0.511
11.3745	0.48
11.4117	0.448
11.4488	0.417
11.486	0.382
11.5231	0.336
11.5603	0.303
11.5974	0.254
11.6346	0.201
11.6717	0.156
11.7089	0.13
11.746	0.106
11.7832	0.082
11.8203	0.065
11.8575	0.04
11.8946	0.031
11.9318	0.027
11.9689	0.024
12.0061	0.024
12.0432	0.023
12.0804	0.026
12.1175	0.024
12.1546	0.027
12.1918	0.029
12.2289	0.037
12.2661	0.041
12.3032	0.048
12.3404	0.037
12.3775	0.035
12.4147	0.032
12.4518	0.032
12.489	0.031
12.5261	0.031
12.5633	0.027
12.6004	0.031
12.6376	0.027
12.6747	0.027
12.7119	0.029
12.749	0.031
12.7862	0.027
12.8233	0.031
12.8605	0.034
12.8976	0.037
12.9348	0.055
12.9719	0.091
13.0091	0.175
13.0462	0.255
13.0834	0.305
13.1205	0.362
13.1577	0.403
13.1948	0.429
13.232	0.451
13.2691	0.455
13.3063	0.466
13.3434	0.472
13.3806	0.469
13.4177	0.46
13.4549	0.441
13.492	0.418
13.5292	0.396
13.5663	0.378
13.6035	0.378
13.6406	0.368
13.6778	0.331
13.7149	0.26
13.7521	0.159
13.7892	0.085
13.8264	0.06
13.8635	0.071
13.9007	0.125
13.9378	0.237
13.975	0.373
14.0121	0.463
14.0493	0.513
14.0864	0.531
14.1236	0.536
14.1607	0.524
14.1979	0.511
14.235	0.494
14.2722	0.474
14.3093	0.458
14.3465	0.455
14.3836	0.454
14.4208	0.454
14.4579	0.458
14.4951	0.463
14.5322	0.472
14.5694	0.479
14.6065	0.488
14.6437	0.496
14.6808	0.519
14.718	0.537
14.7551	0.576
14.7923	0.598
14.8294	0.621
14.8666	0.644
14.9037	0.649
14.9409	0.652
14.978	0.655
15.0152	0.658
15.0523	0.624
15.0895	0.579
15.1266	0.519
15.1638	0.469
15.2009	0.434
15.2381	0.423
15.2752	0.46
15.3124	0.519
15.3495	0.576
15.3867	0.634
15.4238	0.663
15.4609	0.689
15.4981	0.702
15.5352	0.706
15.5724	0.713
15.6095	0.714
15.6467	0.711
15.6838	0.713
15.721	0.716
15.7581	0.716
15.7953	0.72
15.8324	0.7
15.8696	0.699
15.9067	0.688
15.9439	0.671
15.981	0.675
