Infrared Spectrum: ANISOLE, 3,5-DIMETHYL-2-NITRO-
Formula: C9 H11 O3 N
CAS: 18102-38-0
State: MELTED BETWEEN KBr PLATES
Class: COBLENTZ III
Instrument: PERKIN-ELMER 21 (GRATING)
Instrument parameters: FILTER AT ABOUT 10 MICRONS
Sampling: TRANSMISSION
Resolution: 2
1/CM	TRANSMITTANCE
4000	0.6626
3991	0.6628
3982	0.6632
3973	0.6637
3964	0.6644
3955	0.6651
3946	0.666
3937	0.6671
3928	0.6681
3919	0.6683
3910	0.6681
3901	0.6672
3892	0.6665
3883	0.6661
3874	0.666
3865	0.6658
3856	0.6658
3847	0.6658
3838	0.6658
3829	0.6668
3820	0.6676
3811	0.6683
3802	0.669
3793	0.6687
3784	0.6678
3775	0.6668
3766	0.6658
3757	0.6654
3748	0.665
3739	0.6651
3730	0.6658
3721	0.6668
3712	0.6676
3703	0.6691
3694	0.6704
3685	0.6701
3676	0.6678
3667	0.666
3658	0.6644
3649	0.6628
3640	0.6619
3631	0.6615
3622	0.6615
3613	0.6622
3604	0.6631
3595	0.6638
3586	0.6643
3577	0.6646
3568	0.665
3559	0.6654
3550	0.6658
3541	0.666
3532	0.6658
3523	0.6657
3514	0.6655
3505	0.6653
3496	0.6651
3487	0.6651
3478	0.6649
3469	0.6648
3460	0.6646
3451	0.6645
3442	0.6644
3433	0.6643
3424	0.6642
3415	0.664
3406	0.664
3397	0.6639
3388	0.6635
3379	0.6631
3370	0.6628
3361	0.6628
3352	0.6626
3343	0.6631
3334	0.6636
3325	0.6641
3316	0.6647
3307	0.6654
3298	0.6661
3289	0.6661
3280	0.666
3271	0.6656
3262	0.6648
3253	0.6639
3244	0.6632
3235	0.6625
3226	0.6621
3217	0.6615
3208	0.661
3199	0.6604
3190	0.6598
3181	0.6592
3172	0.6587
3163	0.6585
3154	0.6584
3145	0.658
3136	0.6575
3127	0.6569
3118	0.6564
3109	0.6557
3100	0.655
3091	0.6537
3082	0.6518
3073	0.6498
3064	0.6471
3055	0.6438
3046	0.6394
3037	0.6334
3028	0.6275
3019	0.6217
3010	0.6129
3001	0.6004
2992	0.5862
2983	0.5729
2974	0.5574
2965	0.534
2956	0.5151
2947	0.5073
2938	0.5027
2929	0.4976
2920	0.4948
2911	0.4934
2902	0.4923
2893	0.5042
2884	0.5234
2875	0.5339
2866	0.5439
2857	0.5535
2848	0.5591
2839	0.5606
2830	0.561
2821	0.5632
2812	0.5744
2803	0.5895
2794	0.6046
2785	0.625
2776	0.6389
2767	0.6456
2758	0.6492
2749	0.6515
2740	0.6522
2731	0.653
2722	0.653
2713	0.6525
2704	0.6528
2695	0.6538
2686	0.6565
2677	0.6593
2668	0.661
2659	0.6625
2650	0.6635
2641	0.663
2632	0.6625
2623	0.6619
2614	0.6617
2605	0.6622
2596	0.6632
2587	0.6641
2578	0.6649
2569	0.6657
2560	0.6661
2551	0.6656
2542	0.6647
2533	0.6642
2524	0.6651
2515	0.6662
2506	0.6678
2497	0.6678
2488	0.6667
2479	0.6658
2470	0.6658
2461	0.6658
2452	0.6665
2443	0.6671
2434	0.668
2425	0.6669
2416	0.6664
2407	0.6674
2398	0.6684
2389	0.6696
2380	0.6708
2371	0.6721
2362	0.6734
2353	0.6736
2344	0.6728
2335	0.6721
2326	0.6719
2317	0.6719
2308	0.6718
2299	0.6728
2290	0.6741
2281	0.6755
2272	0.6769
2263	0.6778
2254	0.6771
2245	0.6754
2236	0.6743
2227	0.6733
2218	0.6724
2209	0.6725
2200	0.6728
2191	0.6732
2182	0.674
2173	0.6749
2164	0.6756
2155	0.6762
2146	0.6768
2137	0.6771
2128	0.6772
2119	0.6772
2110	0.6751
2101	0.6724
2092	0.6703
2083	0.6705
2074	0.6715
2065	0.673
2056	0.6744
2047	0.675
2038	0.6742
2029	0.6724
2020	0.6707
2011	0.6699
2002	0.6693
1993	0.6691
1984	0.6693
1975	0.6708
1966	0.6725
1957	0.6736
1948	0.674
1939	0.6743
1930	0.6714
1921	0.6692
1912	0.6678
1903	0.668
1894	0.668
1885	0.6686
1876	0.6693
1867	0.6704
1858	0.6714
1849	0.6721
1840	0.6721
1831	0.6714
1822	0.6704
1813	0.6706
1804	0.6717
1795	0.6725
1786	0.6753
1777	0.6789
1768	0.6722
1759	0.6685
1750	0.6678
1741	0.6682
1732	0.6618
1723	0.6575
1714	0.6561
1705	0.655
1696	0.6503
1687	0.6495
1678	0.6465
1669	0.6449
1660	0.6453
1651	0.645
1642	0.6383
1633	0.6138
1624	0.5732
1615	0.3388
1606	0.2309
1597	0.1475
1588	0.2872
1579	0.4267
1570	0.4562
1561	0.4601
1552	0.4059
1543	0.3295
1534	0.101
1525	0.0786
1516	0.1714
1507	0.279
1498	0.3791
1489	0.3721
1480	0.325
1471	0.2959
1462	0.2296
1453	0.2755
1444	0.3192
1435	0.3547
1426	0.4139
1417	0.4325
1408	0.4803
1399	0.5365
1390	0.5217
1381	0.3556
1372	0.16
1363	0.2409
1354	0.4112
1345	0.5012
1336	0.4536
1327	0.1802
1318	0.1757
1309	0.3896
1300	0.5288
1291	0.5106
1282	0.5955
1273	0.6254
1264	0.6358
1255	0.6304
1246	0.429
1237	0.5069
1228	0.6271
1219	0.65
1210	0.6494
1201	0.6441
1192	0.6023
1183	0.4314
1174	0.3812
1165	0.6087
1156	0.6366
1147	0.626
1138	0.6247
1129	0.6101
1120	0.4885
1111	0.2378
1102	0.1924
1093	0.3171
1084	0.492
1075	0.5708
1066	0.6099
1057	0.6253
1048	0.6244
1039	0.5889
1030	0.5797
1021	0.6142
1012	0.6068
1003	0.5489
994	0.5662
985	0.6366
976	0.6417
967	0.6282
958	0.6678
949	0.6708
940	0.6691
931	0.597
922	0.5823
913	0.6646
904	0.676
895	0.6842
886	0.6801
877	0.6726
868	0.6511
859	0.6474
850	0.6152
841	0.2597
832	0.2928
823	0.5258
814	0.6662
805	0.679
796	0.6807
787	0.6891
778	0.6842
769	0.673
760	0.6689
751	0.6598
742	0.6455
733	0.6372
724	0.6285
715	0.6184
706	0.616
697	0.6139
688	0.597
679	0.5801
