Infrared Spectrum: PHOSPHORIC TRIAMIDE, N,N',N''-TRI-2-NAPHTHYL-,
Formula: C30 H24 N3 O P
CAS: 18112-99-7
State: SOLID (0.5% IN KBr PELLET)
Class: COBLENTZ
Instrument: PERKIN-ELMER
Sampling: TRANSMISSION
Resolution: 4
Origin: STANDARD OIL OF OHIO
MICROMETERS	TRANSMITTANCE
2.007	0.805
2.04073	0.809
2.07446	0.812
2.10819	0.817
2.14192	0.819
2.17565	0.819
2.20938	0.822
2.24311	0.831
2.27684	0.836
2.31057	0.839
2.3443	0.841
2.37803	0.842
2.41176	0.846
2.44549	0.847
2.47922	0.849
2.51295	0.849
2.54668	0.847
2.58041	0.846
2.61414	0.847
2.64787	0.851
2.6816	0.854
2.71533	0.851
2.74906	0.824
2.78279	0.712
2.81652	0.599
2.85025	0.498
2.88398	0.425
2.91771	0.363
2.95144	0.319
2.98517	0.375
3.0189	0.42
3.05263	0.41
3.08636	0.386
3.12009	0.381
3.15382	0.4
3.18755	0.456
3.22127	0.547
3.255	0.513
3.28873	0.56
3.32246	0.69
3.35619	0.755
3.38992	0.802
3.42365	0.836
3.45738	0.842
3.49111	0.841
3.52484	0.839
3.55857	0.841
3.5923	0.851
3.62603	0.861
3.65976	0.875
3.69349	0.883
3.72722	0.895
3.76095	0.902
3.79468	0.903
3.82841	0.907
3.86214	0.908
3.89587	0.912
3.9296	0.913
3.96333	0.913
3.99706	0.913
4.03079	0.912
4.06452	0.912
4.09825	0.913
4.13198	0.915
4.16571	0.913
4.19944	0.913
4.23317	0.908
4.2669	0.905
4.30063	0.903
4.33436	0.905
4.36809	0.907
4.40182	0.907
4.43555	0.91
4.46928	0.91
4.50301	0.912
4.53674	0.91
4.57047	0.91
4.6042	0.908
4.63793	0.907
4.67166	0.907
4.70539	0.905
4.73912	0.903
4.77285	0.902
4.80658	0.9
4.84031	0.896
4.87404	0.895
4.90777	0.893
4.9415	0.893
4.97523	0.893
5.00896	0.891
5.04269	0.89
5.07642	0.881
5.11015	0.864
5.14388	0.853
5.17761	0.849
5.21134	0.846
5.24507	0.866
5.2788	0.881
5.31253	0.89
5.34626	0.888
5.37999	0.881
5.41372	0.878
5.44745	0.869
5.48118	0.869
5.51491	0.873
5.54864	0.873
5.58237	0.875
5.61609	0.876
5.64982	0.875
5.68355	0.873
5.71728	0.873
5.75101	0.871
5.78474	0.873
5.81847	0.866
5.8522	0.868
5.88593	0.868
5.91966	0.869
5.95339	0.881
5.98712	0.881
6.02085	0.836
6.05458	0.783
6.08831	0.711
6.12204	0.641
6.15577	0.631
6.1895	0.684
6.22323	0.511
6.25696	0.327
6.29069	0.493
6.32442	0.344
6.35815	0.412
6.39188	0.783
6.42561	0.839
6.45934	0.853
6.49307	0.819
6.5268	0.699
6.56053	0.506
6.59426	0.238
6.62799	0.354
6.66172	0.706
6.69545	0.802
6.72918	0.777
6.76291	0.586
6.79664	0.347
6.83037	0.165
6.8641	0.163
6.89783	0.226
6.93156	0.388
6.96529	0.528
6.99902	0.505
7.03275	0.381
7.06648	0.234
7.10021	0.104
7.13394	0.076
7.16767	0.135
7.2014	0.363
7.23513	0.552
7.26886	0.631
7.30259	0.626
7.33632	0.652
7.37005	0.728
7.40378	0.761
7.43751	0.753
7.47124	0.55
7.50497	0.342
7.5387	0.152
7.57243	0.163
7.60616	0.329
7.63989	0.535
7.67362	0.675
7.70735	0.729
7.74108	0.75
7.77481	0.755
7.80854	0.704
7.84227	0.555
7.876	0.43
7.90973	0.383
7.94346	0.479
7.97719	0.452
8.01091	0.282
8.04464	0.28
8.07837	0.369
8.1121	0.503
8.14583	0.508
8.17956	0.444
8.21329	0.364
8.24702	0.305
8.28075	0.293
8.31448	0.283
8.34821	0.278
8.38194	0.283
8.41567	0.302
8.4494	0.31
8.48313	0.32
8.51686	0.342
8.55059	0.347
8.58432	0.376
8.61805	0.471
8.65178	0.592
8.68551	0.719
8.71924	0.783
8.75297	0.802
8.7867	0.842
8.82043	0.902
8.85416	0.923
8.88789	0.935
8.92162	0.952
8.95535	0.959
8.98908	0.939
9.02281	0.896
9.05654	0.832
9.09027	0.657
9.124	0.327
9.15773	0.167
9.19146	0.168
9.22519	0.378
9.25892	0.584
9.29265	0.721
9.32638	0.75
9.36011	0.761
9.39384	0.753
9.42757	0.673
9.4613	0.52
9.49503	0.42
9.52876	0.339
9.56249	0.373
9.59622	0.538
9.62995	0.653
9.66368	0.66
9.69741	0.631
9.73114	0.552
9.76487	0.456
9.7986	0.359
9.83233	0.432
9.86606	0.606
9.89979	0.724
9.93352	0.771
9.96725	0.785
10.001	0.787
10.0347	0.78
10.0684	0.768
10.1022	0.75
10.1359	0.714
10.1696	0.655
10.2034	0.594
10.2371	0.528
10.2708	0.469
10.3045	0.415
10.3383	0.376
10.372	0.342
10.4057	0.319
10.4395	0.298
10.4732	0.27
10.5069	0.253
10.5407	0.233
10.5744	0.226
10.6081	0.224
10.6418	0.226
10.6756	0.229
10.7093	0.214
10.743	0.202
10.7768	0.187
10.8105	0.182
10.8442	0.18
10.878	0.211
10.9117	0.312
10.9454	0.371
10.9791	0.427
11.0129	0.484
11.0466	0.555
11.0803	0.609
11.1141	0.652
11.1478	0.694
11.1815	0.724
11.2153	0.75
11.249	0.765
11.2827	0.778
11.3164	0.788
11.3502	0.79
11.3839	0.782
11.4176	0.755
11.4514	0.685
11.4851	0.643
11.5188	0.606
11.5526	0.597
11.5863	0.576
11.62	0.564
11.6537	0.552
11.6875	0.528
11.7212	0.505
11.7549	0.491
11.7887	0.466
11.8224	0.451
11.8561	0.439
11.8898	0.43
11.9236	0.427
11.9573	0.437
11.991	0.474
12.0248	0.545
12.0585	0.589
12.0922	0.621
12.126	0.64
12.1597	0.652
12.1934	0.657
12.2271	0.65
12.2609	0.631
12.2946	0.603
12.3283	0.57
12.3621	0.528
12.3958	0.491
12.4295	0.432
12.4633	0.356
12.497	0.285
12.5307	0.204
12.5644	0.163
12.5982	0.15
12.6319	0.145
12.6656	0.15
12.6994	0.201
12.7331	0.265
12.7668	0.278
12.8006	0.25
12.8343	0.152
12.868	0.101
12.9017	0.054
12.9355	0.023
12.9692	0.016
13.0029	0.035
13.0367	0.141
13.0704	0.283
13.1041	0.422
13.1379	0.533
13.1716	0.586
13.2053	0.609
13.239	0.616
13.2728	0.618
13.3065	0.616
13.3402	0.616
13.374	0.614
13.4077	0.611
13.4414	0.604
13.4752	0.599
13.5089	0.589
13.5426	0.584
13.5763	0.579
13.6101	0.577
13.6438	0.582
13.6775	0.589
13.7113	0.603
13.745	0.618
13.7787	0.631
13.8125	0.646
13.8462	0.657
13.8799	0.675
13.9136	0.687
13.9474	0.701
13.9811	0.714
14.0148	0.731
14.0486	0.743
14.0823	0.751
14.116	0.756
14.1497	0.76
14.1835	0.761
14.2172	0.765
14.2509	0.766
14.2847	0.766
14.3184	0.765
14.3521	0.765
14.3859	0.766
14.4196	0.766
14.4533	0.765
14.487	0.763
14.5208	0.758
14.5545	0.755
14.5882	0.753
14.622	0.748
14.6557	0.75
14.6894	0.746
14.7232	0.744
14.7569	0.739
14.7906	0.733
14.8243	0.729
14.8581	0.724
14.8918	0.717
14.9255	0.709
14.9593	0.706
14.993	0.702
15.0267	0.695
15.0605	0.689
15.0942	0.68
15.1279	0.673
15.1616	0.665
15.1954	0.655
15.2291	0.638
15.2628	0.619
15.2966	0.604
15.3303	0.596
15.364	0.586
15.3978	0.579
