Infrared Spectrum: 9-(3-DIMETHYLAMINOPROPYL)-2-TRIFLUOROMETHYLXANTHENE, HYDROCHLORIDE
Formula: C19 H21 Cl F3 N O
CAS: 18139-33-8
State: SOLID (OIL MULL)
Class: COBLENTZ III
Instrument: Not specified, most likely a prism spectrometer.
Instrument parameters: NaCl PRISM
Sampling: TRANSMISSION
Resolution: 2
Origin: SMITH KLINE & FRENCH LABS.
MICROMETERS	TRANSMITTANCE
2.009	0.676
2.04319	0.68
2.07737	0.686
2.11156	0.688
2.14575	0.69
2.17994	0.696
2.21412	0.697
2.24831	0.699
2.2825	0.691
2.31668	0.69
2.35087	0.691
2.38506	0.693
2.41925	0.698
2.45343	0.702
2.48762	0.715
2.52181	0.72
2.556	0.726
2.59018	0.728
2.62437	0.73
2.65856	0.732
2.69274	0.733
2.72693	0.734
2.76112	0.737
2.79531	0.727
2.82949	0.72
2.86368	0.697
2.89787	0.677
2.93205	0.657
2.96624	0.654
3.00043	0.658
3.03462	0.676
3.0688	0.682
3.10299	0.693
3.13718	0.698
3.17137	0.703
3.20555	0.704
3.23974	0.702
3.27393	0.679
3.30811	0.669
3.3423	0.631
3.37649	0.458
3.41068	0.246
3.44486	0.117
3.47905	0.139
3.51324	0.213
3.54742	0.272
3.58161	0.549
3.6158	0.64
3.64999	0.659
3.68417	0.652
3.71836	0.623
3.75255	0.553
3.78674	0.496
3.82092	0.451
3.85511	0.418
3.8893	0.365
3.92348	0.377
3.95767	0.461
3.99186	0.451
4.02605	0.439
4.06023	0.382
4.09442	0.426
4.12861	0.526
4.16279	0.578
4.19698	0.623
4.23117	0.653
4.26536	0.665
4.29954	0.697
4.33373	0.707
4.36792	0.73
4.40211	0.744
4.43629	0.755
4.47048	0.763
4.50467	0.772
4.53885	0.779
4.57304	0.785
4.60723	0.788
4.64142	0.789
4.6756	0.79
4.70979	0.788
4.74398	0.79
4.77816	0.789
4.81235	0.79
4.84654	0.791
4.88073	0.79
4.91491	0.791
4.9491	0.791
4.98329	0.792
5.01748	0.794
5.05166	0.795
5.08585	0.794
5.12004	0.792
5.15422	0.795
5.18841	0.794
5.2226	0.791
5.25679	0.79
5.29097	0.79
5.32516	0.79
5.35935	0.79
5.39353	0.791
5.42772	0.8
5.46191	0.799
5.4961	0.795
5.53028	0.794
5.56447	0.79
5.59866	0.79
5.63285	0.79
5.66703	0.791
5.70122	0.795
5.73541	0.795
5.76959	0.794
5.80378	0.794
5.83797	0.794
5.87216	0.786
5.90634	0.785
5.94053	0.779
5.97472	0.778
6.0089	0.776
6.04309	0.763
6.07728	0.762
6.11147	0.734
6.14565	0.692
6.17984	0.675
6.21403	0.617
6.24822	0.693
6.2824	0.704
6.31659	0.618
6.35078	0.693
6.38496	0.74
6.41915	0.76
6.45334	0.771
6.48753	0.771
6.52171	0.766
6.5559	0.751
6.59009	0.739
6.62427	0.691
6.65846	0.669
6.69265	0.618
6.72684	0.384
6.76102	0.291
6.79521	0.398
6.8294	0.358
6.86359	0.279
6.89777	0.399
6.93196	0.446
6.96615	0.512
7.00033	0.595
7.03452	0.685
7.06871	0.707
7.1029	0.714
7.13708	0.705
7.17127	0.664
7.20546	0.671
7.23964	0.604
7.27383	0.535
7.30802	0.565
7.34221	0.596
7.37639	0.633
7.41058	0.625
7.44477	0.55
7.47896	0.467
7.51314	0.266
7.54733	0.185
7.58152	0.168
7.6157	0.315
7.64989	0.501
7.68408	0.579
7.71827	0.564
7.75245	0.596
7.78664	0.622
7.82083	0.608
7.85501	0.605
7.8892	0.493
7.92339	0.25
7.95758	0.232
7.99176	0.202
8.02595	0.353
8.06014	0.513
8.09433	0.595
8.12851	0.653
8.1627	0.657
8.19689	0.628
8.23107	0.635
8.26526	0.543
8.29945	0.535
8.33364	0.576
8.36782	0.634
8.40201	0.592
8.4362	0.461
8.47038	0.305
8.50457	0.382
8.53876	0.387
8.57295	0.24
8.60713	0.278
8.64132	0.299
8.67551	0.383
8.7097	0.466
8.74388	0.496
8.77807	0.433
8.81226	0.424
8.84644	0.394
8.88063	0.25
8.91482	0.187
8.94901	0.182
8.98319	0.242
9.01738	0.309
9.05157	0.406
9.08575	0.44
9.11994	0.554
9.15413	0.633
9.18832	0.654
9.2225	0.659
9.25669	0.651
9.29088	0.56
9.32507	0.405
9.35925	0.335
9.39344	0.508
9.42763	0.596
9.46181	0.63
9.496	0.645
9.53019	0.656
9.56438	0.676
9.59856	0.708
9.63275	0.723
9.66694	0.723
9.70112	0.715
9.73531	0.702
9.7695	0.734
9.80369	0.749
9.83787	0.745
9.87206	0.726
9.90625	0.693
9.94044	0.687
9.97462	0.692
10.0088	0.711
10.043	0.737
10.0772	0.75
10.1114	0.75
10.1456	0.743
10.1797	0.721
10.2139	0.652
10.2481	0.641
10.2823	0.654
10.3165	0.656
10.3507	0.679
10.3849	0.711
10.4191	0.73
10.4532	0.739
10.4874	0.74
10.5216	0.742
10.5558	0.742
10.59	0.742
10.6242	0.743
10.6584	0.744
10.6926	0.744
10.7267	0.743
10.7609	0.736
10.7951	0.727
10.8293	0.722
10.8635	0.721
10.8977	0.732
10.9319	0.751
10.9661	0.763
11.0002	0.725
11.0344	0.661
11.0686	0.663
11.1028	0.714
11.137	0.742
11.1712	0.763
11.2054	0.773
11.2395	0.792
11.2737	0.795
11.3079	0.797
11.3421	0.802
11.3763	0.808
11.4105	0.809
11.4447	0.808
11.4789	0.806
11.513	0.783
11.5472	0.771
11.5814	0.772
11.6156	0.788
11.6498	0.785
11.684	0.774
11.7182	0.773
11.7524	0.786
11.7865	0.797
11.8207	0.786
11.8549	0.759
11.8891	0.682
11.9233	0.68
11.9575	0.687
11.9917	0.696
12.0259	0.691
12.06	0.641
12.0942	0.573
12.1284	0.486
12.1626	0.501
12.1968	0.57
12.231	0.629
12.2652	0.688
12.2994	0.736
12.3335	0.769
12.3677	0.789
12.4019	0.796
12.4361	0.802
12.4703	0.809
12.5045	0.819
12.5387	0.817
12.5729	0.814
12.607	0.817
12.6412	0.819
12.6754	0.823
12.7096	0.815
12.7438	0.813
12.778	0.817
12.8122	0.79
12.8463	0.78
12.8805	0.74
12.9147	0.719
12.9489	0.709
12.9831	0.679
13.0173	0.61
13.0515	0.548
13.0857	0.515
13.1198	0.429
13.154	0.409
13.1882	0.446
13.2224	0.481
13.2566	0.531
13.2908	0.61
13.325	0.681
13.3592	0.696
13.3933	0.688
13.4275	0.68
13.4617	0.71
13.4959	0.753
13.5301	0.762
13.5643	0.763
13.5985	0.757
13.6327	0.736
13.6668	0.72
13.701	0.733
13.7352	0.751
13.7694	0.771
13.8036	0.773
13.8378	0.769
13.872	0.765
13.9062	0.756
13.9403	0.759
13.9745	0.777
14.0087	0.791
14.0429	0.797
14.0771	0.8
14.1113	0.803
14.1455	0.806
14.1797	0.807
14.2138	0.803
14.248	0.802
14.2822	0.803
14.3164	0.806
14.3506	0.806
14.3848	0.805
14.419	0.803
14.4531	0.803
14.4873	0.803
14.5215	0.791
14.5557	0.782
14.5899	0.766
14.6241	0.696
14.6583	0.693
14.6925	0.698
14.7266	0.74
14.7608	0.756
14.795	0.771
14.8292	0.782
14.8634	0.779
14.8976	0.777
14.9318	0.776
14.966	0.774
15.0001	0.759
15.0343	0.739
15.0685	0.74
15.1027	0.748
15.1369	0.749
15.1711	0.749
15.2053	0.737
15.2395	0.731
15.2736	0.726
15.3078	0.71
15.342	0.697
