Infrared Spectrum: Silane, dimethyl-n-propyl-,
Formula: C5 H14 Si
CAS: 18143-31-2
State: SOLUTION (10% CCl4 FOR 3800-1300, 2% CS2 FOR 1300-650, AND 10% CCl4 FOR 650-250)
Boiling point: 73-74 C
Class: COBLENTZ III
Instrument: PERKIN-ELMER 521 (GRATING)
Instrument parameters: FILTERS AT 3150, 2500, 2000, 1150, 700, 410. GRATING CHANGES: 2000, 630
Path length: 0.012 CM, 0.011 CM, AND 0.009 CM
Resolution: 2
Origin: DOW CORNING CORP.
1/CM	TRANSMITTANCE
264	0.8869
273	0.8866
282	0.8859
291	0.8924
300	0.8937
309	0.8958
318	0.8981
327	0.9016
336	0.8804
345	0.8501
354	0.8746
363	0.847
372	0.9054
381	0.9129
390	0.9144
399	0.9126
408	0.9097
417	0.9113
426	0.9154
435	0.9196
444	0.9196
453	0.917
462	0.9163
471	0.9153
480	0.9153
489	0.919
498	0.9149
507	0.9083
516	0.9054
525	0.9047
534	0.9037
543	0.8992
552	0.8951
561	0.8934
570	0.891
579	0.8614
588	0.8142
597	0.7604
606	0.613
615	0.5588
624	0.5794
633	0.6428
642	0.7247
651	0.8382
660	0.8465
669	0.8456
678	0.8111
687	0.8159
696	0.7998
705	0.7558
714	0.8303
723	0.8429
732	0.8212
741	0.6974
750	0.6589
759	0.7255
768	0.7029
777	0.7159
786	0.7859
795	0.7912
804	0.8094
813	0.7839
822	0.7345
831	0.6143
840	0.486
849	0.7306
858	0.7434
867	0.6833
876	0.3887
885	0.1484
894	0.0807
903	0.3362
912	0.6608
921	0.841
930	0.8797
939	0.9039
948	0.9121
957	0.9128
966	0.9114
975	0.9081
984	0.8917
993	0.8456
1002	0.6966
1011	0.8703
1020	0.8822
1029	0.8668
1038	0.8441
1047	0.8205
1056	0.7746
1065	0.674
1074	0.8316
1083	0.9009
1092	0.926
1101	0.9435
1110	0.9529
1119	0.9565
1128	0.9576
1137	0.9578
1146	0.957
1155	0.9541
1164	0.9488
1173	0.9402
1182	0.9221
1191	0.881
1200	0.8806
1209	0.8784
1218	0.8901
1227	0.8861
1236	0.8001
1245	0.3725
1254	0.6814
1263	0.8779
1272	0.8978
1281	0.9031
1290	0.9075
1299	0.8263
1308	0.7848
1317	0.7532
1326	0.6799
1335	0.4863
1344	0.7751
1353	0.796
1362	0.7752
1371	0.6805
1380	0.66
1389	0.7003
1398	0.6544
1407	0.495
1416	0.5328
1425	0.5799
1434	0.6553
1443	0.6132
1452	0.4379
1461	0.3944
1470	0.6559
1479	0.77
1488	0.8166
1497	0.8323
1506	0.8389
1515	0.8433
1524	0.8476
1533	0.8488
1542	0.848
1551	0.8516
1560	0.8617
1569	0.8662
1578	0.8693
1587	0.8784
1596	0.8877
1605	0.891
1614	0.892
1623	0.8966
1632	0.8945
1641	0.8943
1650	0.8967
1659	0.8986
1668	0.8977
1677	0.8975
1686	0.8993
1695	0.9019
1704	0.9008
1713	0.9028
1722	0.9033
1731	0.9024
1740	0.9008
1749	0.8955
1758	0.8865
1767	0.872
1776	0.8632
1785	0.8723
1794	0.8845
1803	0.8945
1812	0.8986
1821	0.9002
1830	0.9011
1839	0.9014
1848	0.9009
1857	0.8993
1866	0.8953
1875	0.8914
1884	0.8926
1893	0.8942
1902	0.8958
1911	0.897
1920	0.8968
1929	0.8916
1938	0.8866
1947	0.8833
1956	0.8851
1965	0.8935
1974	0.8983
1983	0.8974
1992	0.8972
2001	0.8962
2010	0.8944
2019	0.884
2028	0.8715
2037	0.8585
2046	0.8397
2055	0.8149
2064	0.7609
2073	0.6906
2082	0.4095
2091	0.2951
2100	0.1045
2109	0.0044
2118	0.001
2127	0.0163
2136	0.0429
2145	0.239
2154	0.4417
2163	0.6751
2172	0.7284
2181	0.7858
2190	0.8225
2199	0.8418
2208	0.8687
2217	0.8871
2226	0.897
2235	0.9027
2244	0.9058
2253	0.9099
2262	0.9158
2271	0.9194
2280	0.9218
2289	0.9235
2298	0.9249
2307	0.9258
2316	0.9266
2325	0.9274
2334	0.9279
2343	0.9283
2352	0.9286
2361	0.9288
2370	0.9286
2379	0.9279
2388	0.9273
2397	0.9269
2406	0.9269
2415	0.9277
2424	0.9289
2433	0.9299
2442	0.9295
2451	0.9274
2460	0.9251
2469	0.922
2478	0.9159
2487	0.9151
2496	0.9202
2505	0.923
2514	0.9239
2523	0.9241
2532	0.9241
2541	0.9238
2550	0.9235
2559	0.9227
2568	0.9218
2577	0.9188
2586	0.914
2595	0.9073
2604	0.901
2613	0.901
2622	0.9038
2631	0.9027
2640	0.8913
2649	0.8797
2658	0.886
2667	0.8948
2676	0.9017
2685	0.9073
2694	0.9094
2703	0.9039
2712	0.8952
2721	0.8837
2730	0.8741
2739	0.8779
2748	0.8827
2757	0.8742
2766	0.862
2775	0.8435
2784	0.799
2793	0.7021
2802	0.7073
2811	0.7364
2820	0.7291
2829	0.7132
2838	0.6906
2847	0.6374
2856	0.579
2865	0.3895
2874	0.169
2883	0.1026
2892	0.1865
2901	0.2125
2910	0.1216
2919	0.1173
2928	0.0918
2937	0.0761
2946	0.1481
2955	0.0881
2964	0
2973	0.0024
2982	0.0115
2991	0.4126
3000	0.6272
3009	0.707
3018	0.7454
3027	0.7671
3036	0.7896
3045	0.8107
3054	0.828
3063	0.8377
3072	0.8464
3081	0.855
3090	0.8629
3099	0.8704
3108	0.8769
3117	0.8806
3126	0.8879
3135	0.8943
3144	0.8996
3153	0.9045
3162	0.9051
3171	0.9046
3180	0.9034
3189	0.9043
3198	0.9067
3207	0.9115
3216	0.9172
3225	0.9233
3234	0.9278
3243	0.9295
3252	0.9322
3261	0.9307
3270	0.9311
3279	0.9312
3288	0.9314
3297	0.9315
3306	0.9318
3315	0.932
3324	0.9323
3333	0.9324
3342	0.9325
3351	0.9327
3360	0.9328
3369	0.9327
3378	0.9326
3387	0.9324
3396	0.9323
3405	0.9321
3414	0.9322
3423	0.9323
3432	0.9324
3441	0.9325
3450	0.9317
3459	0.9304
3468	0.9292
3477	0.928
3486	0.9266
3495	0.9251
3504	0.9235
3513	0.922
3522	0.9217
3531	0.9214
3540	0.9207
3549	0.9194
3558	0.9182
3567	0.917
3576	0.9163
3585	0.9155
3594	0.9151
3603	0.9149
3612	0.9147
3621	0.9145
3630	0.9141
3639	0.9137
3648	0.9133
3657	0.9129
3666	0.912
3675	0.9103
3684	0.9087
3693	0.9054
3702	0.9022
3711	0.9047
3720	0.9091
3729	0.9104
3738	0.9116
3747	0.9119
3756	0.911
3765	0.9093
3774	0.907
3783	0.9047
3792	0.9029
3801	0.901
3810	0.8992
