Infrared Spectrum: 3-Bromo-5-carbethoxy-4,6-dimethyl-2-pyrone
Formula: C 10 H 11 Br O 4
CAS: 18152-79-9
State: gas
Origin: EPA-IR VAPOR PHASE LIBRARY
1/CM	ABSORBANCE
549.8	0.0007668
559.445	0.00030686
569.09	0.00032156
578.734	0.0005498
588.379	0.0007105
598.024	0.001397
607.669	0.002257
617.313	0.001537
626.958	0.001337
636.603	0.001547
646.248	0.002667
655.893	0.008017
665.537	0.010977
675.182	0.011417
684.827	0.005997
694.472	0.002407
704.116	0.001697
713.761	0.001317
723.406	0.001537
733.051	0.002587
742.695	0.005917
752.34	0.007567
761.985	0.006157
771.63	0.007977
781.275	0.009017
790.919	0.006027
800.564	0.004067
810.209	0.003007
819.854	0.003267
829.498	0.004017
839.143	0.005597
848.788	0.007397
858.433	0.007917
868.078	0.009527
877.722	0.009627
887.367	0.015007
897.012	0.035827
906.657	0.060177
916.301	0.034057
925.946	0.013707
935.591	0.008537
945.236	0.008017
954.88	0.012497
964.525	0.030567
974.17	0.044607
983.815	0.020277
993.46	0.011727
1003.1	0.011537
1012.75	0.013337
1022.39	0.012717
1032.04	0.014827
1041.68	0.020377
1051.33	0.027737
1060.97	0.032747
1070.62	0.050757
1080.26	0.084137
1089.91	0.104767
1099.55	0.070117
1109.2	0.031847
1118.84	0.023117
1128.49	0.025647
1138.13	0.021717
1147.78	0.012157
1157.42	0.009147
1167.07	0.008587
1176.71	0.008397
1186.36	0.006907
1196	0.007257
1205.64	0.009767
1215.29	0.013477
1224.93	0.023227
1234.58	0.044877
1244.22	0.087547
1253.87	0.104717
1263.51	0.079487
1273.16	0.058467
1282.8	0.043647
1292.45	0.022377
1302.09	0.018307
1311.74	0.017867
1321.38	0.023277
1331.03	0.040607
1340.67	0.059247
1350.32	0.042647
1359.96	0.023037
1369.61	0.035237
1379.25	0.029597
1388.9	0.025177
1398.54	0.015037
1408.18	0.010787
1417.83	0.009787
1427.47	0.010607
1437.12	0.012127
1446.76	0.012807
1456.41	0.012377
1466.05	0.012727
1475.7	0.011917
1485.34	0.009457
1494.99	0.008807
1504.63	0.009267
1514.28	0.010967
1523.92	0.014277
1533.57	0.017517
1543.21	0.014737
1552.86	0.010207
1562.5	0.008587
1572.15	0.007997
1581.79	0.007957
1591.44	0.008377
1601.08	0.010007
1610.73	0.015177
1620.37	0.028327
1630.01	0.043097
1639.66	0.032087
1649.3	0.015247
1658.95	0.009977
1668.59	0.008237
1678.24	0.008117
1687.88	0.009587
1697.53	0.012997
1707.17	0.018847
1716.82	0.031697
1726.46	0.058967
1736.11	0.126547
1745.75	0.143217
1755.4	0.082337
1765.04	0.117227
1774.69	0.212397
1784.33	0.128137
1793.98	0.078687
1803.62	0.059317
1813.27	0.039907
1822.91	0.021437
1832.55	0.010897
1842.2	0.007097
1851.84	0.005607
1861.49	0.005047
1871.13	0.004917
1880.78	0.004397
1890.42	0.003357
1900.07	0.002707
1909.71	0.002437
1919.36	0.002367
1929	0.002477
1938.65	0.002527
1948.29	0.002297
1957.94	0.001977
1967.58	0.001567
1977.23	0.001537
1986.87	0.001397
1996.52	0.001357
2006.16	0.001327
2015.81	0.0011899
2025.45	0.001367
2035.1	0.001447
2044.74	0.001597
2054.38	0.001367
2064.03	0.001307
2073.67	0.0012452
2083.32	0.001387
2092.96	0.001447
2102.61	0.001457
2112.25	0.001427
2121.9	0.001287
2131.54	0.0012172
2141.19	0.001307
2150.83	0.0012635
2160.48	0.0012215
2170.12	0.0012129
2179.77	0.0011848
2189.41	0.0012272
2199.06	0.0012476
2208.7	0.001427
2218.35	0.001527
2227.99	0.001517
2237.64	0.001577
2247.28	0.001677
2256.92	0.001777
2266.57	0.001887
2276.21	0.001677
2285.86	0.001347
2295.5	0.0012132
2305.15	0.0011178
2314.79	0.0011062
2324.44	0.0011808
2334.08	0.0011038
2343.73	0.0011147
2353.37	0.0011116
2363.02	0.0011465
2372.66	0.0011831
2382.31	0.0012025
2391.95	0.0012102
2401.6	0.0012152
2411.24	0.001297
2420.89	0.0012612
2430.53	0.0010989
2440.18	0.0009652
2449.82	0.0009975
2459.47	0.0008902
2469.11	0.0009318
2478.75	0.0009278
2488.4	0.0009838
2498.04	0.0009579
2507.69	0.0010336
2517.33	0.0010803
2526.98	0.0009861
2536.62	0.0007924
2546.27	0.0007996
2555.91	0.0007459
2565.56	0.0007944
2575.2	0.0008923
2584.85	0.0008759
2594.49	0.000861
2604.14	0.0009461
2613.78	0.0010521
2623.43	0.000942
2633.07	0.0009278
2642.72	0.0008226
2652.36	0.001032
2662.01	0.0010642
2671.65	0.0011962
2681.29	0.001004
2690.94	0.0009204
2700.58	0.0007017
2710.23	0.0006589
2719.87	0.0007223
2729.52	0.0007476
2739.16	0.0008637
2748.81	0.0009321
2758.45	0.0009091
2768.1	0.0009232
2777.74	0.0010125
2787.39	0.0009938
2797.03	0.0009355
2806.68	0.0011389
2816.32	0.001277
2825.97	0.001487
2835.61	0.001777
2845.26	0.002107
2854.9	0.002517
2864.55	0.003287
2874.19	0.003757
2883.84	0.004527
2893.48	0.004977
2903.12	0.005927
2912.77	0.006917
2922.41	0.007127
2932.06	0.009137
2941.7	0.013957
2951.35	0.013037
2960.99	0.010707
2970.64	0.013117
2980.28	0.018817
2989.93	0.022857
2999.57	0.014227
3009.22	0.009897
3018.86	0.006667
3028.51	0.004657
3038.15	0.003557
3047.8	0.002777
3057.44	0.002217
3067.09	0.002117
3076.73	0.002057
3086.38	0.001807
3096.02	0.001437
3105.67	0.001377
3115.31	0.0011337
3124.95	0.0011932
3134.6	0.0010638
3144.24	0.0011365
3153.89	0.0010641
3163.53	0.0009169
3173.18	0.0008598
3182.82	0.0009011
3192.47	0.0007302
3202.11	0.0007306
3211.76	0.0005333
3221.4	0.0004323
3231.05	0.0005041
3240.69	0.0003952
3250.34	0.0006888
3259.98	0.0003994
3269.63	0.00033334
3279.27	0.0004021
3288.92	0.0004424
3298.56	0.0004481
3308.21	0.00031668
3317.85	0.0004857
3327.49	0.0004275
3337.14	0.0003813
3346.78	0.0005125
3356.43	0.0006054
3366.07	0.0004121
3375.72	0.0005956
3385.36	0.000499
3395.01	0.0006215
3404.65	0.0003935
3414.3	0.0005971
3423.94	0.0007909
3433.59	0.0007032
3443.23	0.0008254
3452.88	0.0010995
3462.52	0.001477
3472.17	0.0010125
3481.81	0.0009394
3491.46	0.0009899
3501.1	0.0009661
3510.75	0.0012397
3520.39	0.001657
3530.04	0.002237
3539.68	0.002177
3549.32	0.001417
3558.97	0.001317
3568.61	0.0009746
3578.26	0.0007833
3587.9	0.0007055
3597.55	0.0004857
3607.19	0.0005764
3616.84	0.0004684
3626.48	0.0005336
3636.13	0.000274689
3645.77	0.00033955
3655.42	0.00030074
3665.06	0.0003709
3674.71	0.00029638
3684.35	0.00033954
3694	0.0005757
3703.64	0.0004563
3713.29	0.0002105
3722.93	0.00069
3732.58	0.0002112
3742.22	0.0005456
3751.86	0.00027727
3761.51	0.0005444
3771.15	0.0003738
3780.8	0.0004068
3790.44	0.0004119
3800.09	0.0002005
3809.73	0.0004878
3819.38	0.00036023
3829.02	0.000266861
3838.67	0.00029668
3848.31	0.00030192
3857.96	0.00035092
3867.6	0.0004033
3877.25	0.0001713
3886.89	0.00036044
3896.54	0.0003931
3906.18	0.0004073
3915.83	0.0005454
3925.47	0.00032015
3935.12	0.0003957
3944.76	0.00035399
3954.41	0.0004696
3964.05	0.00039
3973.69	0.0006949
3983.34	0.0004142
3992.98	0.0005284
