Infrared Spectrum: t-Butyldimethylchlorosilane
Formula: C 6 H 15 Cl Si
CAS: 18162-48-6
State: gas
Origin: EPA-IR VAPOR PHASE LIBRARY
1/CM	ABSORBANCE
501.5	0.00345131
513.074	0.00073981
524.648	0.00038521
536.222	0.00048761
547.796	0.00045981
559.37	0.00076271
570.944	0.00175131
582.518	0.00281131
594.092	0.00210131
605.666	0.00079041
617.24	0.00052081
628.814	0.00043951
640.388	0.00048161
651.962	0.00069211
663.536	0.00200131
675.11	0.00392131
686.684	0.00336131
698.258	0.00191131
709.832	0.00139131
721.406	0.00131131
732.98	0.00139131
744.554	0.00159131
756.128	0.00212131
767.702	0.00429131
779.276	0.00842131
790.85	0.00910131
802.423	0.00823131
813.997	0.0103413
825.571	0.0121413
837.145	0.0123113
848.719	0.00977131
860.293	0.00547131
871.867	0.00310131
883.441	0.00213131
895.015	0.00155131
906.589	0.00118131
918.163	0.00104131
929.737	0.00124131
941.311	0.00116131
952.885	0.00075131
964.459	0.00059081
976.033	0.00049411
987.607	0.00051291
999.181	0.00074281
1010.76	0.00085081
1022.33	0.00057261
1033.9	0.00041561
1045.48	0.00025221
1057.05	0.00032991
1068.63	0.00024511
1080.2	0.00025371
1091.77	0.00020071
1103.35	0.00021671
1114.92	0.00014061
1126.49	0.00017361
1138.07	0.00018591
1149.64	0.00015351
1161.22	0.00021751
1172.79	0.00011721
1184.36	2.249e-05
1195.94	4.564e-05
1207.51	2.194e-05
1219.09	0.00022531
1230.66	0.00051571
1242.23	0.00188131
1253.81	0.00518131
1265.38	0.00613131
1276.96	0.00264131
1288.53	0.00044261
1300.1	0.00013221
1311.68	0.00011461
1323.25	0.00012441
1334.83	0.00018741
1346.4	0.00035871
1357.97	0.00096941
1369.55	0.00170131
1381.12	0.00133131
1392.7	0.00136131
1404.27	0.00147131
1415.84	0.00104131
1427.42	0.00068541
1438.99	0.00061441
1450.57	0.00115131
1462.14	0.00242131
1473.71	0.00310131
1485.29	0.00190131
1496.86	0.00063991
1508.44	0.00039131
1520.01	0.00031611
1531.58	0.00025151
1543.16	0.00020301
1554.73	0.00018011
1566.31	0.00017681
1577.88	0.00016011
1589.45	0.00016111
1601.03	0.00013131
1612.6	0.00012611
1624.18	0.00011901
1635.75	0.00012601
1647.32	0.00010541
1658.9	8.88e-05
1670.47	8.394e-05
1682.05	7.179e-05
1693.62	5.507e-05
1705.19	5.668e-05
1716.77	3.662e-05
1728.34	2.554e-05
1739.92	5.898e-05
1751.49	6.111e-05
1763.06	6.072e-05
1774.64	8e-05
1786.21	6.551e-05
1797.79	8.7e-05
1809.36	5.778e-05
1820.93	5.981e-05
1832.51	6.664e-05
1844.08	5.085e-05
1855.66	6.681e-05
1867.23	7.371e-05
1878.8	7.283e-05
1890.38	6.613e-05
1901.95	8.649e-05
1913.53	0.0001003
1925.1	0.00016461
1936.67	0.00018861
1948.25	0.00016821
1959.82	0.00014711
1971.4	0.00011081
1982.97	0.00011201
1994.54	0.00011451
2006.12	9.8e-05
2017.69	0.00011341
2029.27	0.00011061
2040.84	0.00012061
2052.41	0.00013751
2063.99	0.00013741
2075.56	0.00012741
2087.14	0.00011761
2098.71	9.989e-05
2110.28	0.00011421
2121.86	0.00010801
2133.43	9.544e-05
2145.01	0.00010221
2156.58	0.00011971
2168.15	0.00011021
2179.73	0.00011801
2191.3	0.00012211
2202.88	0.00010591
2214.45	0.00011361
2226.02	8.907e-05
2237.6	9.223e-05
2249.17	0.00010109
2260.74	7.799e-05
2272.32	0.00010771
2283.89	9.806e-05
2295.47	0.00011791
2307.04	0.00012031
2318.61	0.00011591
2330.19	9.333e-05
2341.76	7.796e-05
2353.34	0.00010551
2364.91	9.889e-05
2376.48	0.00011531
2388.06	0.00011881
2399.63	0.00012131
2411.21	0.00011621
2422.78	0.00012121
2434.35	0.00012411
2445.93	0.00011451
2457.5	0.00010082
2469.08	0.00010181
2480.65	0.00010761
2492.22	0.00011781
2503.8	0.00013931
2515.37	0.00013211
2526.95	0.00010671
2538.52	0.00011831
2550.09	0.00013981
2561.67	0.00012641
2573.24	0.00014251
2584.82	0.00013041
2596.39	0.00012671
2607.96	0.00014491
2619.54	0.00015191
2631.11	0.00015201
2642.69	0.00018661
2654.26	0.00018151
2665.83	0.00021541
2677.41	0.00019681
2688.98	0.00021541
2700.56	0.00021431
2712.13	0.00030151
2723.7	0.00039861
2735.28	0.00042131
2746.85	0.00038721
2758.43	0.00044011
2770	0.00042331
2781.57	0.00049301
2793.15	0.00059261
2804.72	0.00069031
2816.3	0.00076571
2827.87	0.00088511
2839.44	0.00121131
2851.02	0.00250131
2862.59	0.00571131
2874.17	0.00762131
2885.74	0.00653131
2897.31	0.00643131
2908.89	0.00622131
2920.46	0.00589131
2932.04	0.00914131
2943.61	0.0122113
2955.18	0.0118013
2966.76	0.0102813
2978.33	0.00634131
2989.91	0.00267131
3001.48	0.00132131
3013.05	0.00082421
3024.63	0.00062051
3036.2	0.00052441
3047.78	0.00050101
3059.35	0.00053691
3070.92	0.00051991
3082.5	0.00057871
3094.07	0.00050771
3105.65	0.00048291
3117.22	0.00050091
3128.79	0.00044601
3140.37	0.00040221
3151.94	0.00036021
3163.52	0.00037241
3175.09	0.00036981
3186.66	0.00035871
3198.24	0.00027391
3209.81	0.00029911
3221.39	0.00023491
3232.96	0.00022771
3244.53	0.00016431
3256.11	0.00013581
3267.68	0.00011671
3279.26	0.00017751
3290.83	0.00013731
3302.4	0.00014281
3313.98	9.159e-05
3325.55	8.612e-05
3337.13	0.00010371
3348.7	0.00010411
3360.27	0.00014041
3371.85	0.00018381
3383.42	0.00011371
3395	9.412e-05
3406.57	8.519e-05
3418.14	9.6e-05
3429.72	0.00013791
3441.29	9.975e-05
3452.86	2.676e-05
3464.44	0.00010591
3476.01	8.474e-05
3487.59	8.214e-05
3499.16	8.018e-05
3510.73	0.00012851
3522.31	0.00014591
3533.88	0.00012901
3545.46	7.047e-05
3557.03	7.91e-05
3568.6	0.00010651
3580.18	0.00010411
3591.75	0.00011491
3603.33	8.62e-05
3614.9	8.685e-05
3626.47	0.00010951
3638.05	0.00011861
3649.62	0.00010931
3661.2	0.00016171
3672.77	0.00015711
3684.34	0.00011311
3695.92	0.00021731
3707.49	0.00017181
3719.07	0.00024961
3730.64	0.00023001
3742.21	0.00016901
3753.79	0.00018731
3765.36	0.00016531
3776.94	0.00017311
3788.51	0.00017791
3800.08	0.00015431
3811.66	0.00017151
3823.23	0.00010521
3834.81	0.00014671
3846.38	0.00014261
3857.95	0.00014131
3869.53	9.035e-05
3881.1	0.00018281
3892.68	0.00010651
3904.25	8.482e-05
3915.82	8.797e-05
3927.4	6.999e-05
3938.97	9.992e-05
3950.55	9.182e-05
3962.12	0.00010791
3973.69	0.00013361
3985.27	0.00010991
3996.84	0.00014271
