Infrared Spectrum: Methylamine, 1-(trimethylsilyl)-, hydrochloride
Formula: C4 H14 Cl N Si
CAS: 18166-01-3
State: SOLID (OIL MULL)
Class: COBLENTZ III
Instrument: PERKIN-ELMER 521 (GRATING)
Instrument parameters: FILTERS AT 3150, 2500, 2000, 1150, 700, 410. GRATING CHANGES: 2000, 630
Resolution: 2
Origin: DOW CORNING CORP.
1/CM	TRANSMITTANCE
242	0.7502
251	0.8003
260	0.8433
269	0.8754
278	0.8996
287	0.9274
296	0.961
305	0.9684
314	0.9867
323	0.9932
332	0.9886
341	0.9746
350	0.9416
359	0.9063
368	1.0037
377	1.0023
386	1.0009
395	0.9995
404	0.9949
413	0.9745
422	0.9681
431	0.9803
440	0.9935
449	0.9986
458	1.0003
467	1.0008
476	0.9994
485	0.9979
494	0.9965
503	0.9956
512	0.9948
521	0.9937
530	0.9922
539	0.9937
548	0.9978
557	0.996
566	0.9953
575	0.9843
584	0.9866
593	0.9879
602	0.9881
611	0.9875
620	0.9867
629	0.9842
638	0.9775
647	0.9391
656	0.7749
665	0.9305
674	0.9557
683	0.944
692	0.8903
701	0.8044
710	0.909
719	0.9009
728	0.9023
737	0.9047
746	0.8811
755	0.7088
764	0.8149
773	0.8947
782	0.8449
791	0.6837
800	0.868
809	0.8708
818	0.8203
827	0.6953
836	0.4753
845	0.1739
854	0.1978
863	0.3674
872	0.6474
881	0.8254
890	0.8749
899	0.901
908	0.9159
917	0.9244
926	0.9279
935	0.9274
944	0.9281
953	0.928
962	0.9271
971	0.9266
980	0.9275
989	0.9269
998	0.9175
1007	0.9243
1016	0.9204
1025	0.9092
1034	0.8886
1043	0.9136
1052	0.9103
1061	0.9009
1070	0.865
1079	0.7124
1088	0.697
1097	0.8912
1106	0.9099
1115	0.9129
1124	0.9198
1133	0.92
1142	0.9173
1151	0.9143
1160	0.9107
1169	0.9082
1178	0.9074
1187	0.9068
1196	0.9031
1205	0.8987
1214	0.8963
1223	0.8895
1232	0.8451
1241	0.5341
1250	0.5211
1259	0.7885
1268	0.8467
1277	0.837
1286	0.8566
1295	0.8483
1304	0.8139
1313	0.851
1322	0.8684
1331	0.8634
1340	0.8507
1349	0.8362
1358	0.8154
1367	0.7939
1376	0.7058
1385	0.8363
1394	0.8443
1403	0.7928
1412	0.642
1421	0.7218
1430	0.7861
1439	0.7208
1448	0.6362
1457	0.5633
1466	0.6083
1475	0.7922
1484	0.8008
1493	0.7321
1502	0.5426
1511	0.7292
1520	0.8284
1529	0.8394
1538	0.8288
1547	0.7886
1556	0.7807
1565	0.7728
1574	0.7496
1583	0.7205
1592	0.6576
1601	0.5859
1610	0.6575
1619	0.792
1628	0.8368
1637	0.8585
1646	0.8644
1655	0.8814
1664	0.8835
1673	0.8851
1682	0.8863
1691	0.8856
1700	0.885
1709	0.8864
1718	0.8925
1727	0.8913
1736	0.8944
1745	0.8953
1754	0.8957
1763	0.8966
1772	0.8969
1781	0.8969
1790	0.8971
1799	0.8973
1808	0.8967
1817	0.8951
1826	0.8931
1835	0.8914
1844	0.8901
1853	0.8886
1862	0.887
1871	0.8856
1880	0.8846
1889	0.8839
1898	0.8835
1907	0.8836
1916	0.8835
1925	0.8837
1934	0.8838
1943	0.8842
1952	0.887
1961	0.8914
1970	0.8926
1979	0.8938
1988	0.8928
1997	0.8856
2006	0.8996
2015	0.9008
2024	0.9015
2033	0.9018
2042	0.9016
2051	0.901
2060	0.9005
2069	0.8999
2078	0.8995
2087	0.8993
2096	0.8995
2105	0.8996
2114	0.8998
2123	0.8999
2132	0.9001
2141	0.8998
2150	0.8978
2159	0.8932
2168	0.8892
2177	0.892
2186	0.8949
2195	0.8954
2204	0.8944
2213	0.8933
2222	0.8924
2231	0.8914
2240	0.8904
2249	0.8893
2258	0.8883
2267	0.8871
2276	0.886
2285	0.8848
2294	0.8841
2303	0.8835
2312	0.8828
2321	0.8822
2330	0.8818
2339	0.8813
2348	0.881
2357	0.8807
2366	0.8809
2375	0.8814
2384	0.8813
2393	0.8799
2402	0.8774
2411	0.8788
2420	0.8785
2429	0.8768
2438	0.8744
2447	0.872
2456	0.8676
2465	0.8599
2474	0.8547
2483	0.8508
2492	0.8476
2501	0.8399
2510	0.8301
2519	0.805
2528	0.7488
2537	0.7461
2546	0.7895
2555	0.8074
2564	0.7952
2573	0.7582
2582	0.6879
2591	0.7115
2600	0.7573
2609	0.7544
2618	0.7441
2627	0.749
2636	0.7586
2645	0.766
2654	0.7664
2663	0.7586
2672	0.752
2681	0.7394
2690	0.7321
2699	0.743
2708	0.749
2717	0.7472
2726	0.7384
2735	0.7302
2744	0.7225
2753	0.7147
2762	0.7056
2771	0.6829
2780	0.6575
2789	0.6208
2798	0.5768
2807	0.5373
2816	0.5378
2825	0.5338
2834	0.5103
2843	0.4362
2852	0.2764
2861	0.1764
2870	0.2029
2879	0.2212
2888	0.2411
2897	0.1998
2906	0.1536
2915	0.1082
2924	0.0581
2933	0.0476
2942	0.0792
2951	0.0941
2960	0.07
2969	0.12
2978	0.1953
2987	0.2726
2996	0.3055
3005	0.3212
3014	0.3322
3023	0.3408
3032	0.3495
3041	0.3582
3050	0.3694
3059	0.3812
3068	0.3943
3077	0.4094
3086	0.4249
3095	0.4387
3104	0.4502
3113	0.4566
3122	0.4606
3131	0.4727
3140	0.4939
3149	0.5141
3158	0.527
3167	0.5445
3176	0.5637
3185	0.5865
3194	0.6132
3203	0.637
3212	0.6598
3221	0.6823
3230	0.7054
3239	0.7301
3248	0.7525
3257	0.7715
3266	0.7876
3275	0.7967
3284	0.8049
3293	0.8113
3302	0.8165
3311	0.8202
3320	0.8238
3329	0.8273
3338	0.8309
3347	0.8341
3356	0.8361
3365	0.838
3374	0.8396
3383	0.8411
3392	0.8421
3401	0.8428
3410	0.8436
3419	0.8441
3428	0.8446
3437	0.8449
3446	0.8454
3455	0.8457
3464	0.8458
3473	0.8459
3482	0.8462
3491	0.8467
3500	0.8473
3509	0.8478
3518	0.848
3527	0.8477
3536	0.8475
3545	0.8471
3554	0.8468
3563	0.8466
3572	0.8465
3581	0.8465
3590	0.8464
3599	0.8463
3608	0.8458
3617	0.8452
3626	0.845
3635	0.8453
3644	0.8454
3653	0.8454
3662	0.8462
3671	0.8441
3680	0.8413
3689	0.8435
3698	0.8448
3707	0.8437
3716	0.841
3725	0.8421
3734	0.8397
3743	0.8359
3752	0.8322
3761	0.8318
3770	0.8414
3779	0.8458
3788	0.8474
3797	0.8435
3806	0.8373
3815	0.8327
