Infrared Spectrum: i-BUTYLTRICHLOROSILANE
Formula: C4 H9 Cl3 Si
CAS: 18169-57-8
State: SOLUTION (11% IN CCl4 FOR 3800-1300, 11% IN CS2 FOR 1300-650, AND 11% IN CCl4 FOR 650-250 CM^-^1)
Boiling point: 142 C
Class: COBLENTZ III
Instrument: PERKIN-ELMER 521 (GRATING)
Instrument parameters: FILTERS AT 3150, 2500, 2000, 1150, 700, 410. GRATING CHANGES: 2000, 630 CM^-^1
Sampling: TRANSMISSION
Path length: 0.010 CM, 0.011 CM, AND 0.010 CM
Resolution: 2
Origin: DOW CORNING CORP.
1/CM	TRANSMITTANCE
229.198	0.973
238.431	0.965
247.663	0.955
256.896	0.939
266.128	0.934
275.361	0.926
284.593	0.92
293.826	0.936
303.059	0.93
312.291	0.925
321.524	0.902
330.756	0.926
339.989	0.936
349.221	0.934
358.454	0.928
367.687	0.926
376.919	0.926
386.152	0.912
395.384	0.904
404.617	0.895
413.849	0.87
423.082	0.896
432.315	0.912
441.547	0.919
450.78	0.906
460.012	0.887
469.245	0.814
478.477	0.546
487.71	0.1711
496.943	0.764
506.175	0.841
515.408	0.846
524.64	0.789
533.873	0.783
543.105	0.667
552.338	0.287
561.571	0
570.803	0
580.036	0
589.268	0.1651
598.501	0.697
607.733	0.727
616.966	0.762
626.199	0.78
635.431	0.795
644.664	0.814
653.896	0.817
663.129	0.824
672.361	0.815
681.594	0.751
690.827	0.766
700.059	0.8
709.292	0.751
718.524	0.626
727.757	0.2788
736.99	0.189
746.222	0.2349
755.455	0.1842
764.687	0.718
773.92	0.81
783.152	0.838
792.385	0.847
801.618	0.842
810.85	0.803
820.083	0.746
829.315	0.438
838.548	0.82
847.78	0.868
857.013	0.868
866.246	0.87
875.478	0.87
884.711	0.866
893.943	0.868
903.176	0.868
912.408	0.865
921.641	0.866
930.874	0.865
940.106	0.836
949.339	0.812
958.571	0.851
967.804	0.862
977.036	0.863
986.269	0.853
995.502	0.829
1004.73	0.82
1013.97	0.798
1023.2	0.746
1032.43	0.4598
1041.66	0.645
1050.9	0.723
1060.13	0.736
1069.36	0.737
1078.59	0.703
1087.83	0.5559
1097.06	0.6381
1106.29	0.769
1115.52	0.783
1124.76	0.795
1133.99	0.799
1143.22	0.785
1152.46	0.73
1161.69	0.627
1170.92	0.81
1180.15	0.827
1189.39	0.814
1198.62	0.791
1207.85	0.771
1217.08	0.566
1226.32	0.778
1235.55	0.829
1244.78	0.86
1254.01	0.87
1263.25	0.878
1272.48	0.878
1281.71	0.876
1290.94	0.876
1300.18	0.896
1309.41	0.891
1318.64	0.86
1327.87	0.773
1337.11	0.7751
1346.34	0.86
1355.57	0.839
1364.8	0.6307
1374.04	0.765
1383.27	0.6542
1392.5	0.474
1401.73	0.857
1410.97	0.87
1420.2	0.867
1429.43	0.843
1438.67	0.79
1447.9	0.707
1457.13	0.6139
1466.36	0.369
1475.6	0.779
1484.83	0.856
1494.06	0.873
1503.29	0.887
1512.53	0.894
1521.76	0.895
1530.99	0.9
1540.22	0.904
1549.46	0.901
1558.69	0.902
1567.92	0.902
1577.15	0.901
1586.39	0.901
1595.62	0.899
1604.85	0.899
1614.08	0.9
1623.32	0.897
1632.55	0.894
1641.78	0.891
1651.01	0.892
1660.25	0.89
1669.48	0.889
1678.71	0.887
1687.94	0.886
1697.18	0.886
1706.41	0.885
1715.64	0.886
1724.87	0.886
1734.11	0.891
1743.34	0.896
1752.57	0.902
1761.81	0.901
1771.04	0.902
1780.27	0.9
1789.5	0.902
1798.74	0.902
1807.97	0.904
1817.2	0.902
1826.43	0.904
1835.67	0.904
1844.9	0.902
1854.13	0.902
1863.36	0.901
1872.6	0.901
1881.83	0.901
1891.06	0.905
1900.29	0.9
1909.53	0.902
1918.76	0.902
1927.99	0.902
1937.22	0.902
1946.46	0.892
1955.69	0.895
1964.92	0.904
1974.15	0.902
1983.39	0.897
1992.62	0.911
2001.85	0.904
2011.08	0.902
2020.32	0.902
2029.55	0.901
2038.78	0.9
2048.01	0.899
2057.25	0.899
2066.48	0.899
2075.71	0.897
2084.95	0.897
2094.18	0.896
2103.41	0.895
2112.64	0.894
2121.88	0.894
2131.11	0.894
2140.34	0.894
2149.57	0.892
2158.81	0.8915
2168.04	0.891
2177.27	0.891
2186.5	0.891
2195.74	0.891
2204.97	0.891
2214.2	0.891
2223.43	0.8912
2232.67	0.891
2241.9	0.891
2251.13	0.89
2260.36	0.889
2269.6	0.889
2278.83	0.889
2288.06	0.89
2297.29	0.891
2306.53	0.894
2315.76	0.894
2324.99	0.894
2334.22	0.894
2343.46	0.894
2352.69	0.892
2361.92	0.891
2371.15	0.89
2380.39	0.887
2389.62	0.885
2398.85	0.885
2408.09	0.885
2417.32	0.8864
2426.55	0.887
2435.78	0.887
2445.02	0.8865
2454.25	0.885
2463.48	0.885
2472.71	0.883
2481.95	0.883
2491.18	0.883
2500.41	0.885
2509.64	0.883
2518.88	0.883
2528.11	0.883
2537.34	0.883
2546.57	0.8821
2555.81	0.882
2565.04	0.8811
2574.27	0.882
2583.5	0.878
2592.74	0.877
2601.97	0.8749
2611.2	0.8719
2620.43	0.862
2629.67	0.8675
2638.9	0.877
2648.13	0.875
2657.36	0.8713
2666.6	0.875
2675.83	0.877
2685.06	0.878
2694.29	0.873
2703.53	0.8692
2712.76	0.8626
2721.99	0.86
2731.23	0.86
2740.46	0.861
2749.69	0.861
2758.92	0.86
2768.16	0.86
2777.39	0.8587
2786.62	0.858
2795.85	0.8545
2805.09	0.8397
2814.32	0.8282
2823.55	0.825
2832.78	0.818
2842.02	0.7843
2851.25	0.7544
2860.48	0.6808
2869.71	0.385
2878.95	0.4667
2888.18	0.5325
2897.41	0.5087
2906.64	0.4935
2915.88	0.4717
2925.11	0.4244
2934.34	0.3871
2943.57	0.442
2952.81	0.1731
2962.04	0.0783
2971.27	0.2126
2980.5	0.5359
2989.74	0.7116
2998.97	0.7943
3008.2	0.8338
3017.44	0.852
3026.67	0.8611
3035.9	0.8711
3045.13	0.8742
3054.37	0.877
3063.6	0.878
3072.83	0.88
3082.06	0.882
3091.3	0.883
3100.53	0.883
3109.76	0.8846
3118.99	0.885
3128.23	0.89
3137.46	0.889
3146.69	0.8851
3155.92	0.883
3165.16	0.882
3174.39	0.881
3183.62	0.881
3192.85	0.88
3202.09	0.881
3211.32	0.8833
3220.55	0.889
3229.78	0.889
3239.02	0.889
3248.25	0.889
3257.48	0.89
3266.71	0.889
3275.95	0.8882
3285.18	0.887
3294.41	0.887
3303.64	0.886
3312.88	0.886
3322.11	0.886
3331.34	0.886
3340.58	0.886
3349.81	0.886
3359.04	0.886
3368.27	0.886
3377.51	0.887
3386.74	0.889
3395.97	0.89
3405.2	0.891
3414.44	0.8919
3423.67	0.895
3432.9	0.8941
3442.13	0.895
3451.37	0.896
3460.6	0.896
3469.83	0.896
3479.06	0.8961
3488.3	0.897
3497.53	0.899
3506.76	0.9
3515.99	0.901
3525.23	0.901
3534.46	0.902
3543.69	0.902
3552.92	0.902
3562.16	0.901
3571.39	0.9014
3580.62	0.904
3589.85	0.9005
3599.09	0.899
3608.32	0.896
3617.55	0.896
3626.78	0.896
3636.02	0.896
3645.25	0.896
3654.48	0.892
3663.72	0.8947
3672.95	0.9005
3682.18	0.9
3691.41	0.899
3700.65	0.902
3709.88	0.904
3719.11	0.904
3728.34	0.905
3737.58	0.905
3746.81	0.905
3756.04	0.904
3765.27	0.9019
3774.51	0.901
3783.74	0.9
3792.97	0.899
3802.2	0.899
