Infrared Spectrum: BIS-TRIMETHYLSILYLETHYLENE (TRANS)
Formula: C8 H20 Si2
CAS: 18178-59-1
State: SOLUTION (6% IN CCl4 FOR 3800-1000, 5% IN CS2 FOR 1100-550, AND 6% IN CCl4 FOR 550-250 CM^-^1)
Class: COBLENTZ III
Instrument: PERKIN-ELMER 521 (GRATING)
Instrument parameters: FILTERS AT 3150, 2500, 2000, 1150, 700, 410. GRATING CHANGES: 2000, 630 CM^-^1
Sampling: TRANSMISSION
Path length: 0.011 CM, 0.011 CM, AND 0.020 CM
Resolution: 2
Origin: DOW CORNING CORP.
1/CM	TRANSMITTANCE
215.516	0.927
224.903	0.927
234.29	0.899
243.677	0.856
253.064	0.856
262.451	0.855
271.838	0.85
281.226	0.838
290.613	0.786
300	0.728
309.387	0.571
318.774	0.227
328.161	0.483
337.548	0.774
346.935	0.807
356.322	0.819
365.709	0.812
375.096	0.823
384.483	0.828
393.87	0.825
403.257	0.824
412.645	0.832
422.032	0.84
431.419	0.848
440.806	0.853
450.193	0.859
459.58	0.864
468.967	0.868
478.354	0.868
487.741	0.864
497.128	0.859
506.515	0.852
515.902	0.846
525.289	0.845
534.676	0.846
544.064	0.848
553.451	0.947
562.838	0.931
572.225	0.932
581.612	0.926
590.999	0.911
600.386	0.864
609.773	0.902
619.16	0.891
628.547	0.869
637.934	0.84
647.321	0.832
656.708	0.835
666.095	0.811
675.483	0.772
684.87	0.526
694.257	0.454
703.644	0.521
713.031	0.367
722.418	0.605
731.805	0.625
741.192	0.472
750.579	0.15
759.966	0.509
769.353	0.663
778.74	0.677
788.127	0.644
797.514	0.591
806.902	0.486
816.289	0.287
825.676	0.047
835.063	0.02
844.45	0.034
853.837	0.102
863.224	0.308
872.611	0.506
881.998	0.651
891.385	0.725
900.772	0.798
910.159	0.834
919.546	0.853
928.934	0.867
938.321	0.878
947.708	0.883
957.095	0.885
966.482	0.884
975.869	0.876
985.256	0.848
994.643	0.799
1004.03	0.456
1013.42	0.434
1022.8	0.655
1032.19	0.674
1041.58	0.683
1050.97	0.69
1060.35	0.7
1069.74	0.726
1079.13	0.748
1088.51	0.754
1097.9	0.755
1107.29	0.762
1116.67	0.76
1126.06	0.771
1135.45	0.795
1144.84	0.792
1154.22	0.763
1163.61	0.646
1173	0.292
1182.38	0.742
1191.77	0.804
1201.16	0.804
1210.55	0.785
1219.93	0.762
1229.32	0.66
1238.71	0.454
1248.09	0.024
1257.48	0.252
1266.87	0.653
1276.26	0.715
1285.64	0.681
1295.03	0.632
1304.42	0.734
1313.8	0.784
1323.19	0.796
1332.58	0.803
1341.96	0.792
1351.35	0.792
1360.74	0.784
1370.13	0.782
1379.51	0.769
1388.9	0.756
1398.29	0.683
1407.67	0.597
1417.06	0.662
1426.45	0.713
1435.84	0.706
1445.22	0.742
1454.61	0.767
1464	0.785
1473.38	0.803
1482.77	0.82
1492.16	0.833
1501.54	0.838
1510.93	0.845
1520.32	0.85
1529.71	0.859
1539.09	0.862
1548.48	0.864
1557.87	0.866
1567.25	0.861
1576.64	0.855
1586.03	0.859
1595.42	0.857
1604.8	0.857
1614.19	0.86
1623.58	0.854
1632.96	0.859
1642.35	0.857
1651.74	0.866
1661.13	0.862
1670.51	0.86
1679.9	0.86
1689.29	0.853
1698.67	0.857
1708.06	0.861
1717.45	0.867
1726.83	0.863
1736.22	0.867
1745.61	0.866
1755	0.867
1764.38	0.87
1773.77	0.87
1783.16	0.869
1792.54	0.869
1801.93	0.873
1811.32	0.874
1820.71	0.871
1830.09	0.871
1839.48	0.867
1848.87	0.845
1858.25	0.853
1867.64	0.863
1877.03	0.87
1886.41	0.871
1895.8	0.871
1905.19	0.87
1914.58	0.866
1923.96	0.861
1933.35	0.849
1942.74	0.834
1952.12	0.85
1961.51	0.867
1970.9	0.868
1980.29	0.869
1989.67	0.869
1999.06	0.859
2008.45	0.8429
2017.83	0.845
2027.22	0.8456
2036.61	0.848
2046	0.848
2055.38	0.848
2064.77	0.848
2074.16	0.846
2083.54	0.8391
2092.93	0.834
2102.32	0.8342
2111.7	0.8471
2121.09	0.849
2130.48	0.848
2139.87	0.848
2149.25	0.848
2158.64	0.848
2168.03	0.8494
2177.41	0.852
2186.8	0.852
2196.19	0.852
2205.58	0.853
2214.96	0.854
2224.35	0.853
2233.74	0.853
2243.12	0.8548
2252.51	0.855
2261.9	0.854
2271.28	0.853
2280.67	0.854
2290.06	0.8561
2299.45	0.859
2308.83	0.861
2318.22	0.8645
2327.61	0.87
2336.99	0.8673
2346.38	0.8618
2355.77	0.8674
2365.16	0.8675
2374.54	0.8609
2383.93	0.857
2393.32	0.857
2402.7	0.857
2412.09	0.856
2421.48	0.856
2430.87	0.856
2440.25	0.855
2449.64	0.854
2459.03	0.853
2468.41	0.85
2477.8	0.8479
2487.19	0.8482
2496.57	0.8504
2505.96	0.853
2515.35	0.854
2524.74	0.8544
2534.12	0.856
2543.51	0.857
2552.9	0.857
2562.28	0.857
2571.67	0.857
2581.06	0.8543
2590.45	0.854
2599.83	0.854
2609.22	0.854
2618.61	0.854
2627.99	0.853
2637.38	0.85
2646.77	0.847
2656.15	0.848
2665.54	0.8479
2674.93	0.8468
2684.32	0.8448
2693.7	0.8397
2703.09	0.837
2712.48	0.8384
2721.86	0.84
2731.25	0.84
2740.64	0.84
2750.03	0.838
2759.41	0.8337
2768.8	0.8209
2778.19	0.8117
2787.57	0.7865
2796.96	0.7744
2806.35	0.77
2815.74	0.7739
2825.12	0.775
2834.51	0.7668
2843.9	0.7498
2853.28	0.7335
2862.67	0.7126
2872.06	0.6861
2881.44	0.6465
2890.83	0.5595
2900.22	0.4423
2909.61	0.5317
2918.99	0.4706
2928.38	0.3735
2937.77	0.3564
2947.15	0.3383
2956.54	0.0795
2965.93	0.1595
2975.32	0.403
2984.7	0.6448
2994.09	0.7142
3003.48	0.767
3012.86	0.778
3022.25	0.7881
3031.64	0.7921
3041.02	0.797
3050.41	0.8
3059.8	0.8043
3069.19	0.8094
3078.57	0.811
3087.96	0.811
3097.35	0.816
3106.73	0.8114
3116.12	0.813
3125.51	0.82
3134.9	0.8377
3144.28	0.8418
3153.67	0.8468
3163.06	0.848
3172.44	0.848
3181.83	0.849
3191.22	0.854
3200.61	0.8571
3209.99	0.8611
3219.38	0.866
3228.77	0.868
3238.15	0.868
3247.54	0.868
3256.93	0.868
3266.31	0.8636
3275.7	0.8625
3285.09	0.8685
3294.48	0.87
3303.86	0.87
3313.25	0.871
3322.64	0.8725
3332.02	0.874
3341.41	0.875
3350.8	0.875
3360.19	0.875
3369.57	0.874
3378.96	0.874
3388.35	0.874
3397.73	0.874
3407.12	0.874
3416.51	0.874
3425.89	0.874
3435.28	0.874
3444.67	0.874
3454.06	0.874
3463.44	0.875
3472.83	0.875
3482.22	0.875
3491.6	0.875
3500.99	0.875
3510.38	0.875
3519.77	0.875
3529.15	0.875
3538.54	0.874
3547.93	0.874
3557.31	0.873
3566.7	0.873
3576.09	0.871
3585.48	0.871
3594.86	0.871
3604.25	0.871
3613.64	0.871
3623.02	0.869
3632.41	0.8636
3641.8	0.856
3651.18	0.866
3660.57	0.8614
3669.96	0.8623
3679.35	0.8649
3688.73	0.861
3698.12	0.8592
3707.51	0.8598
3716.89	0.861
3726.28	0.8571
3735.67	0.859
3745.06	0.8662
3754.44	0.87
3763.83	0.87
3773.22	0.8696
