Infrared Spectrum: P-NITRO CUMENE
Formula: C9 H11 N O2
CAS: 1817-47-6
State: SOLUTION (10% CCl4 FOR 2.5-7.5, 10% CS2 FOR 7.5-15 MICRON)
Class: COBLENTZ
Instrument: Not specified, most likely a prism, grating, or hybrid spectrometer.
Sampling: TRANSMISSION
Path length: 0.01 CM, 0.01 CM
Resolution: 4
Origin: DOW CHEMICAL COMPANY
MICROMETERS	TRANSMITTANCE
2.009	0.933
2.04813	0.934
2.08726	0.933
2.12639	0.934
2.16552	0.939
2.20465	0.939
2.24378	0.933
2.28291	0.923
2.32204	0.928
2.36117	0.933
2.40029	0.931
2.43942	0.931
2.47855	0.941
2.51768	0.944
2.55681	0.957
2.59594	0.956
2.63507	0.946
2.6742	0.967
2.71333	0.941
2.75246	0.954
2.79159	0.951
2.83072	0.944
2.86985	0.941
2.90898	0.936
2.94811	0.933
2.98724	0.926
3.02637	0.915
3.0655	0.902
3.10463	0.878
3.14376	0.881
3.18288	0.879
3.22201	0.853
3.26114	0.806
3.30027	0.814
3.3394	0.728
3.37853	0.364
3.41766	0.445
3.45679	0.573
3.49592	0.655
3.53505	0.856
3.57418	0.897
3.61331	0.915
3.65244	0.915
3.69157	0.915
3.7307	0.933
3.76983	0.934
3.80896	0.928
3.84809	0.92
3.88722	0.939
3.92635	0.951
3.96547	0.944
4.0046	0.941
4.04373	0.92
4.08286	0.925
4.12199	0.943
4.16112	0.944
4.20025	0.975
4.23938	0.96
4.27851	0.947
4.31764	0.92
4.35677	0.913
4.3959	0.931
4.43503	0.939
4.47416	0.944
4.51329	0.944
4.55242	0.951
4.59155	0.96
4.63068	0.959
4.66981	0.96
4.70894	0.96
4.74806	0.959
4.78719	0.964
4.82632	0.969
4.86545	0.96
4.90458	0.959
4.94371	0.959
4.98284	0.956
5.02197	0.956
5.0611	0.956
5.10023	0.949
5.13936	0.944
5.17849	0.886
5.21762	0.905
5.25675	0.946
5.29588	0.952
5.33501	0.949
5.37414	0.939
5.41327	0.947
5.4524	0.949
5.49152	0.938
5.53065	0.918
5.56978	0.891
5.60891	0.936
5.64804	0.941
5.68717	0.944
5.7263	0.936
5.76543	0.925
5.80456	0.921
5.84369	0.918
5.88282	0.917
5.92195	0.878
5.96108	0.86
6.00021	0.884
6.03934	0.878
6.07847	0.853
6.1176	0.839
6.15673	0.728
6.19586	0.44
6.23499	0.173
6.27411	0.346
6.31324	0.489
6.35237	0.513
6.3915	0.471
6.43063	0.364
6.46976	0.294
6.50889	0.068
6.54802	0.034
6.58715	0.047
6.62628	0.149
6.66541	0.339
6.70454	0.432
6.74367	0.585
6.7828	0.489
6.82193	0.382
6.86106	0.533
6.90019	0.656
6.93932	0.734
6.97845	0.773
7.01758	0.756
7.0567	0.733
7.09583	0.715
7.13496	0.673
7.17409	0.616
7.21322	0.595
7.25235	0.629
7.29148	0.479
7.33061	0.312
7.36974	0.097
7.40887	0.029
7.448	0.045
7.48713	0.209
7.52626	0.536
7.56539	0.586
7.60452	0.608
7.64365	0.775
7.68278	0.827
7.72191	0.757
7.76104	0.642
7.80017	0.773
7.83929	0.878
7.87842	0.921
7.91755	0.933
7.95668	0.934
7.99581	0.93
8.03494	0.921
8.07407	0.915
8.1132	0.93
8.15233	0.936
8.19146	0.941
8.23059	0.938
8.26972	0.943
8.30885	0.946
8.34798	0.934
8.38711	0.871
8.42624	0.704
8.46537	0.754
8.5045	0.899
8.54363	0.93
8.58276	0.943
8.62188	0.952
8.66101	0.954
8.70014	0.951
8.73927	0.944
8.7784	0.941
8.81753	0.938
8.85666	0.915
8.89579	0.856
8.93492	0.738
8.97405	0.544
9.01318	0.515
9.05231	0.645
9.09144	0.642
9.13057	0.655
9.1697	0.738
9.20883	0.84
9.24796	0.878
9.28709	0.884
9.32622	0.881
9.36534	0.853
9.40447	0.777
9.4436	0.575
9.48273	0.468
9.52186	0.637
9.56099	0.821
9.60012	0.891
9.63925	0.925
9.67838	0.936
9.71751	0.943
9.75664	0.939
9.79577	0.869
9.8349	0.635
9.87403	0.795
9.91316	0.921
9.95229	0.962
9.99142	0.97
10.0305	0.982
10.0697	0.995
10.1088	1.006
10.1479	1.003
10.1871	1.003
10.2262	1.001
10.2653	0.996
10.3045	0.991
10.3436	0.983
10.3827	0.957
10.4218	0.926
10.461	0.917
10.5001	0.949
10.5392	0.975
10.5784	1
10.6175	1.001
10.6566	1.001
10.6957	1
10.7349	0.99
10.774	0.936
10.8131	0.897
10.8523	0.905
10.8914	0.944
10.9305	0.964
10.9697	0.97
11.0088	0.973
11.0479	0.969
11.087	0.954
11.1262	0.926
11.1653	0.892
11.2044	0.842
11.2436	0.822
11.2827	0.85
11.3218	0.86
11.3609	0.855
11.4001	0.843
11.4392	0.827
11.4783	0.795
11.5175	0.757
11.5566	0.707
11.5957	0.624
11.6349	0.487
11.674	0.273
11.7131	0.087
11.7522	0.037
11.7914	0.081
11.8305	0.339
11.8696	0.624
11.9088	0.746
11.9479	0.826
11.987	0.858
12.0262	0.873
12.0653	0.882
12.1044	0.889
12.1435	0.895
12.1827	0.9
12.2218	0.9
12.2609	0.915
12.3001	0.926
12.3392	0.93
12.3783	0.921
12.4174	0.9
12.4566	0.912
12.4957	0.941
12.5348	0.957
12.574	0.957
12.6131	0.957
12.6522	0.96
12.6914	0.96
12.7305	0.952
12.7696	0.949
12.8087	0.944
12.8479	0.925
12.887	0.902
12.9261	0.882
12.9653	0.878
13.0044	0.871
13.0435	0.868
13.0826	0.85
13.1218	0.785
13.1609	0.645
13.2	0.463
13.2392	0.305
13.2783	0.304
13.3174	0.401
13.3566	0.517
13.3957	0.614
13.4348	0.689
13.4739	0.728
13.5131	0.736
13.5522	0.726
13.5913	0.736
13.6305	0.782
13.6696	0.801
13.7087	0.816
13.7478	0.814
13.787	0.813
13.8261	0.804
13.8652	0.8
13.9044	0.786
13.9435	0.778
13.9826	0.76
14.0218	0.738
14.0609	0.708
14.1	0.674
14.1391	0.627
14.1783	0.554
14.2174	0.456
14.2565	0.339
14.2957	0.23
14.3348	0.204
14.3739	0.253
14.413	0.367
14.4522	0.453
14.4913	0.502
14.5304	0.536
14.5696	0.565
14.6087	0.598
14.6478	0.617
14.687	0.635
14.7261	0.643
14.7652	0.645
14.8043	0.647
14.8435	0.642
14.8826	0.634
14.9217	0.627
14.9609	0.624
15	0.632
15.0391	0.632
15.0783	0.617
15.1174	0.603
15.1565	0.596
15.1956	0.586
15.2348	0.58
15.2739	0.57
15.313	0.567
15.3522	0.565
15.3913	0.557
15.4304	0.559
15.4695	0.556
15.5087	0.552
15.5478	0.547
15.5869	0.546
15.6261	0.546
15.6652	0.543
15.7043	0.541
15.7435	0.539
15.7826	0.538
15.8217	0.538
15.8608	0.534
15.9	0.534
15.9391	0.533
