Infrared Spectrum: BIS-(P-NITROPHENYL)-METHANE
Formula: C13 H10 N2 O4
CAS: 1817-74-9
State: SOLID (MINERAL OIL MULL)
Melting point: 186-188 C
Class: COBLENTZ
Instrument: Not specified, most likely a prism, grating, or hybrid spectrometer.
Sampling: TRANSMISSION
Resolution: 4
Origin: WYANDOTTE CHEMICALS CORP., WYANDOTTE, MICHIGAN, USA
MICROMETERS	TRANSMITTANCE
2.053	0.405
2.09279	0.418
2.13258	0.425
2.17237	0.432
2.21217	0.43
2.25196	0.433
2.29175	0.447
2.33154	0.451
2.37133	0.461
2.41112	0.47
2.45091	0.478
2.49071	0.488
2.5305	0.491
2.57029	0.514
2.61008	0.513
2.64987	0.524
2.68966	0.534
2.72945	0.529
2.76925	0.548
2.80904	0.551
2.84883	0.549
2.88862	0.549
2.92841	0.548
2.9682	0.549
3.00799	0.552
3.04779	0.559
3.08758	0.562
3.12737	0.561
3.16716	0.559
3.20695	0.536
3.24674	0.46
3.28653	0.486
3.32633	0.413
3.36612	0.163
3.40591	0.041
3.4457	0.061
3.48549	0.144
3.52528	0.14
3.56507	0.614
3.60487	0.673
3.64466	0.7
3.68445	0.698
3.72424	0.688
3.76403	0.708
3.80382	0.715
3.84361	0.72
3.88341	0.738
3.9232	0.761
3.96299	0.769
4.00278	0.773
4.04257	0.776
4.08236	0.779
4.12215	0.746
4.16195	0.73
4.20174	0.783
4.24153	0.794
4.28132	0.768
4.32111	0.781
4.3609	0.809
4.4007	0.841
4.44049	0.837
4.48028	0.841
4.52007	0.854
4.55986	0.862
4.59965	0.85
4.63944	0.855
4.67924	0.877
4.71903	0.889
4.75882	0.895
4.79861	0.903
4.8384	0.908
4.87819	0.903
4.91798	0.918
4.95778	0.927
4.99757	0.925
5.03736	0.933
5.07715	0.928
5.11694	0.928
5.15673	0.933
5.19652	0.933
5.23632	0.839
5.27611	0.937
5.3159	0.958
5.35569	0.966
5.39548	0.965
5.43527	0.965
5.47506	0.976
5.51486	0.971
5.55465	0.966
5.59444	0.899
5.63423	0.981
5.67402	0.971
5.71381	0.978
5.7536	0.958
5.7934	0.97
5.83319	0.933
5.87298	0.935
5.91277	0.963
5.95256	0.948
5.99235	0.925
6.03214	0.925
6.07194	0.948
6.11173	0.955
6.15152	0.912
6.19131	0.458
6.2311	0.24
6.27089	0.379
6.31068	0.663
6.35048	0.786
6.39027	0.779
6.43006	0.764
6.46985	0.718
6.50964	0.509
6.54943	0.266
6.58922	0.104
6.62902	0.096
6.66881	0.17
6.7086	0.298
6.74839	0.337
6.78818	0.314
6.82797	0.283
6.86776	0.332
6.90756	0.355
6.94735	0.586
6.98714	0.72
7.02693	0.779
7.06672	0.779
7.10651	0.832
7.1463	0.761
7.1861	0.693
7.22589	0.576
7.26568	0.422
7.30547	0.423
7.34526	0.438
7.38505	0.185
7.42484	0.043
7.46464	0.046
7.50443	0.079
7.54422	0.21
7.58401	0.241
7.6238	0.375
7.66359	0.41
7.70338	0.5
7.74318	0.485
7.78297	0.554
7.82276	0.647
7.86255	0.692
7.90234	0.718
7.94213	0.74
7.98192	0.746
8.02172	0.768
8.06151	0.761
8.1013	0.774
8.14109	0.788
8.18088	0.793
8.22067	0.811
8.26046	0.839
8.30026	0.852
8.34005	0.759
8.37984	0.814
8.41963	0.817
8.45942	0.652
8.49921	0.68
8.539	0.68
8.5788	0.839
8.61859	0.867
8.65838	0.882
8.69817	0.897
8.73796	0.93
8.77775	0.94
8.81754	0.942
8.85734	0.935
8.89713	0.874
8.93692	0.735
8.97671	0.47
9.0165	0.25
9.05629	0.483
9.09609	0.708
9.13588	0.741
9.17567	0.784
9.21546	0.824
9.25525	0.847
9.29504	0.864
9.33483	0.875
9.37463	0.882
9.41442	0.882
9.45421	0.882
9.494	0.89
9.53379	0.899
9.57358	0.899
9.61337	0.902
9.65317	0.907
9.69296	0.91
9.73275	0.91
9.77254	0.908
9.81233	0.842
9.85212	0.629
9.89191	0.816
9.93171	0.885
9.9715	0.91
10.0113	0.923
10.0511	0.927
10.0909	0.922
10.1307	0.92
10.1705	0.915
10.2102	0.907
10.25	0.872
10.2898	0.855
10.3296	0.892
10.3694	0.894
10.4092	0.887
10.449	0.89
10.4888	0.905
10.5286	0.92
10.5684	0.923
10.6082	0.925
10.648	0.925
10.6877	0.92
10.7275	0.913
10.7673	0.912
10.8071	0.908
10.8469	0.91
10.8867	0.918
10.9265	0.915
10.9663	0.915
11.0061	0.915
11.0459	0.908
11.0857	0.894
11.1254	0.887
11.1652	0.872
11.205	0.841
11.2448	0.764
11.2846	0.599
11.3244	0.364
11.3642	0.331
11.404	0.607
11.4438	0.809
11.4836	0.882
11.5234	0.87
11.5632	0.804
11.6029	0.706
11.6427	0.49
11.6825	0.263
11.7223	0.405
11.7621	0.69
11.8019	0.794
11.8417	0.802
11.8815	0.662
11.9213	0.536
11.9611	0.715
12.0009	0.831
12.0407	0.864
12.0804	0.857
12.1202	0.849
12.16	0.822
12.1998	0.754
12.2396	0.635
12.2794	0.586
12.3192	0.632
12.359	0.677
12.3988	0.639
12.4386	0.496
12.4784	0.374
12.5181	0.289
12.5579	0.445
12.5977	0.736
12.6375	0.865
12.6773	0.907
12.7171	0.925
12.7569	0.927
12.7967	0.927
12.8365	0.927
12.8763	0.925
12.9161	0.923
12.9559	0.922
12.9956	0.91
13.0354	0.903
13.0752	0.897
13.115	0.88
13.1548	0.86
13.1946	0.827
13.2344	0.756
13.2742	0.614
13.314	0.403
13.3538	0.221
13.3936	0.281
13.4334	0.379
13.4731	0.291
13.5129	0.379
13.5527	0.64
13.5925	0.766
13.6323	0.817
13.6721	0.841
13.7119	0.857
13.7517	0.857
13.7915	0.857
13.8313	0.847
13.8711	0.827
13.9108	0.799
13.9506	0.774
13.9904	0.75
14.0302	0.688
14.07	0.579
14.1098	0.44
14.1496	0.294
14.1894	0.215
14.2292	0.266
14.269	0.389
14.3088	0.559
14.3486	0.662
14.3883	0.738
14.4281	0.789
14.4679	0.809
14.5077	0.816
14.5475	0.802
14.5873	0.746
14.6271	0.673
14.6669	0.67
14.7067	0.721
14.7465	0.798
14.7863	0.819
14.8261	0.822
14.8658	0.831
14.9056	0.834
14.9454	0.827
14.9852	0.804
15.025	0.761
15.0648	0.721
15.1046	0.746
15.1444	0.791
15.1842	0.806
15.224	0.786
15.2638	0.766
15.3035	0.756
15.3433	0.738
15.3831	0.726
15.4229	0.716
15.4627	0.705
15.5025	0.682
15.5423	0.677
15.5821	0.665
15.6219	0.637
15.6617	0.607
15.7015	0.587
15.7413	0.576
15.781	0.564
15.8208	0.561
15.8606	0.556
15.9004	0.554
15.9402	0.559
15.98	0.559
