Infrared Spectrum: Terephthalate, dihexyl
Formula: C20 H30 O4
CAS: 1818-96-8
State: SOLUTION (10% CCl4 FOR 2.7-7.5, CS2 FOR 7.5-26 MICRON) VS SOLVENT
Class: COBLENTZ III
Instrument: DOW FOREPRISM-GRATING
Instrument parameters: BLAZED AT 3.5, 12.0, 20.0 MICRON AND CHANGED AT 5.0, 7.5, 14.9 MICRON
Sampling: TRANSMISSION
Path length: 0.011 CM, 0.011 CM
Resolution: 2
Origin: DOW CHEMICAL COMPANY
1/CM	TRANSMITTANCE
399	0.7969
408	0.7957
417	0.7948
426	0.7936
435	0.7924
444	0.7911
453	0.7886
462	0.785
471	0.779
480	0.7698
489	0.7565
498	0.7397
507	0.7436
516	0.7839
525	0.7925
534	0.7987
543	0.8075
552	0.8152
561	0.8262
570	0.8327
579	0.8344
588	0.8336
597	0.8325
606	0.8317
615	0.8324
624	0.8358
633	0.8431
642	0.8486
651	0.8474
660	0.8612
669	0.8522
678	0.8437
687	0.8402
696	0.8288
705	0.7933
714	0.754
723	0.5351
732	0.0004
741	0.6117
750	0.7336
759	0.7567
768	0.7643
777	0.7718
786	0.7773
795	0.756
804	0.76
813	0.7653
822	0.7647
831	0.7614
840	0.7775
849	0.7833
858	0.7727
867	0.7337
876	0.357
885	0.7587
894	0.7372
903	0.6979
912	0.7028
921	0.7435
930	0.7586
939	0.7428
948	0.6679
957	0.687
966	0.6626
975	0.6188
984	0.5981
993	0.6494
1002	0.6954
1011	0.6182
1020	0.0275
1029	0.6903
1038	0.6964
1047	0.6966
1056	0.6859
1065	0.6548
1074	0.5994
1083	0.3876
1092	0.3094
1101	0.0091
1110	0.0173
1119	0.0303
1128	0.2338
1137	0.4428
1146	0.547
1155	0.5842
1164	0.6368
1173	0.5784
1182	0.7244
1191	0.7154
1200	0.6689
1209	0.6371
1218	0.6111
1227	0.5139
1236	0.3374
1245	0.0176
1254	0.0315
1263	0.001
1272	0.0052
1281	0.0582
1290	0.195
1299	0.3284
1308	0.3931
1317	0.4521
1326	0.5293
1335	0.6198
1344	0.6526
1353	0.6579
1362	0.6352
1371	0.6168
1380	0.409
1389	0.3947
1398	0.5608
1407	0.433
1416	0.3775
1425	0.7195
1434	0.6756
1443	0.6286
1452	0.5116
1461	0.3204
1470	0.283
1479	0.5045
1488	0.7717
1497	0.7779
1506	0.5863
1515	0.799
1524	0.8108
1533	0.8253
1542	0.8365
1551	0.8289
1560	0.8113
1569	0.7636
1578	0.6973
1587	0.8355
1596	0.8305
1605	0.8147
1614	0.8109
1623	0.8238
1632	0.8179
1641	0.8081
1650	0.7949
1659	0.7673
1668	0.7244
1677	0.6462
1686	0.6195
1695	0.4857
1704	0.2996
1713	0.0069
1722	0.0038
1731	0.0764
1740	0.3965
1749	0.6308
1758	0.7423
1767	0.7675
1776	0.7926
1785	0.8071
1794	0.8167
1803	0.8176
1812	0.8112
1821	0.8126
1830	0.8537
1839	0.8573
1848	0.8675
1857	0.8697
1866	0.8703
1875	0.8704
1884	0.8707
1893	0.8711
1902	0.8707
1911	0.8685
1920	0.8632
1929	0.8534
1938	0.8376
1947	0.8305
1956	0.869
1965	0.8761
1974	0.8782
1983	0.8788
1992	0.879
2001	0.8788
2010	0.8787
2019	0.8782
2028	0.8778
2037	0.8773
2046	0.8765
2055	0.8758
2064	0.8745
2073	0.8743
2082	0.8752
2091	0.876
2100	0.876
2109	0.8761
2118	0.8765
2127	0.8784
2136	0.881
2145	0.8826
2154	0.8838
2163	0.8833
2172	0.8856
2181	0.89
2190	0.8827
2199	0.8797
2208	0.8782
2217	0.876
2226	0.8744
2235	0.8736
2244	0.8734
2253	0.8732
2262	0.873
2271	0.8719
2280	0.8706
2289	0.871
2298	0.8729
2307	0.8744
2316	0.8757
2325	0.8728
2334	0.8701
2343	0.8681
2352	0.8663
2361	0.8646
2370	0.8623
2379	0.8597
2388	0.8601
2397	0.8635
2406	0.8678
2415	0.8734
2424	0.8772
2433	0.8801
2442	0.8816
2451	0.8815
2460	0.8808
2469	0.8792
2478	0.8775
2487	0.8749
2496	0.8722
2505	0.8688
2514	0.8655
2523	0.8627
2532	0.8601
2541	0.8589
2550	0.8581
2559	0.8576
2568	0.8573
2577	0.857
2586	0.8567
2595	0.8562
2604	0.8559
2613	0.8556
2622	0.8553
2631	0.8549
2640	0.8529
2649	0.8505
2658	0.8461
2667	0.8474
2676	0.8501
2685	0.8508
2694	0.85
2703	0.8479
2712	0.8443
2721	0.8382
2730	0.8357
2739	0.8372
2748	0.838
2757	0.8369
2766	0.8322
2775	0.8258
2784	0.818
2793	0.8092
2802	0.7967
2811	0.7778
2820	0.7533
2829	0.7233
2838	0.6735
2847	0.541
2856	0.3156
2865	0.1965
2874	0.2193
2883	0.3742
2892	0.369
2901	0.2871
2910	0.2285
2919	0.1334
2928	0.0561
2937	0.0483
2946	0.1128
2955	0.0767
2964	0.0422
2973	0.0821
2982	0.2599
2991	0.4739
3000	0.711
3009	0.7707
3018	0.7997
3027	0.816
3036	0.8237
3045	0.8237
3054	0.8233
3063	0.8316
3072	0.8423
3081	0.8492
3090	0.8544
3099	0.8594
3108	0.8643
3117	0.8679
3126	0.8705
3135	0.8727
3144	0.8746
3153	0.8757
3162	0.8769
3171	0.8779
3180	0.8786
3189	0.8794
3198	0.8801
3207	0.8805
3216	0.8809
3225	0.8812
3234	0.8817
3243	0.8819
3252	0.8823
3261	0.8825
3270	0.8828
3279	0.8828
3288	0.8827
3297	0.8827
3306	0.8826
3315	0.8822
3324	0.8819
3333	0.8817
3342	0.8818
3351	0.8818
3360	0.8818
3369	0.8817
3378	0.8813
3387	0.8804
3396	0.8754
3405	0.8647
3414	0.8506
3423	0.8555
3432	0.8681
3441	0.8814
3450	0.891
3459	0.8914
3468	0.8913
3477	0.89
3486	0.8884
3495	0.8869
3504	0.8853
3513	0.8836
3522	0.882
3531	0.8806
3540	0.8796
3549	0.8788
3558	0.8792
3567	0.88
3576	0.8805
3585	0.8769
3594	0.8738
3603	0.8717
3612	0.8708
3621	0.8705
3630	0.8705
3639	0.8705
3648	0.8706
3657	0.8691
3666	0.8662
3675	0.862
3684	0.8637
3693	0.8667
3702	0.8657
3711	0.8683
3720	0.868
3729	0.8673
3738	0.8671
3747	0.867
3756	0.8669
3765	0.8665
3774	0.8662
3783	0.8658
3792	0.8655
