Infrared Spectrum: ACETOPHENONE, 2,4,5-TRIHYDROXY
Formula: C8 H8 O4
CAS: 1818-27-5
State: SOLID (KBr PELLET)
Melting point: 206-207 C
Class: COBLENTZ
Instrument: Not specified, most likely a prism, grating, or hybrid spectrometer.
Sampling: TRANSMISSION
Resolution: 4
Origin: TENNESSEE EASTMAN COMPANY, RESEARCH LABORATORIES
MICROMETERS	TRANSMITTANCE
2.198	0.951
2.23894	0.958
2.27987	0.963
2.32081	0.965
2.36175	0.967
2.40268	0.97
2.44362	0.969
2.48456	0.969
2.52549	0.967
2.56643	0.969
2.60737	0.97
2.6483	0.972
2.68924	0.969
2.73018	0.936
2.77111	0.862
2.81205	0.759
2.85299	0.53
2.89392	0.229
2.93486	0.186
2.97579	0.228
3.01673	0.224
3.05767	0.144
3.0986	0.161
3.13954	0.279
3.18048	0.401
3.22141	0.48
3.26235	0.518
3.30329	0.578
3.34422	0.591
3.38516	0.643
3.4261	0.692
3.46703	0.735
3.50797	0.749
3.54891	0.763
3.58984	0.765
3.63078	0.761
3.67172	0.773
3.71265	0.794
3.75359	0.816
3.79453	0.828
3.83546	0.84
3.8764	0.849
3.91734	0.866
3.95827	0.888
3.99921	0.905
4.04015	0.914
4.08108	0.917
4.12202	0.919
4.16296	0.929
4.20389	0.924
4.24483	0.924
4.28576	0.927
4.3267	0.943
4.36764	0.958
4.40857	0.967
4.44951	0.972
4.49045	0.975
4.53138	0.97
4.57232	0.979
4.61326	0.979
4.65419	0.981
4.69513	0.974
4.73607	0.974
4.777	0.972
4.81794	0.975
4.85888	0.969
4.89981	0.969
4.94075	0.97
4.98169	0.974
5.02262	0.982
5.06356	0.975
5.1045	0.972
5.14543	0.977
5.18637	0.962
5.22731	0.965
5.26824	0.969
5.30918	0.972
5.35012	0.969
5.39105	0.97
5.43199	0.972
5.47293	0.974
5.51386	0.974
5.5548	0.97
5.59573	0.958
5.63667	0.963
5.67761	0.955
5.71854	0.926
5.75948	0.895
5.80042	0.862
5.84135	0.864
5.88229	0.835
5.92323	0.849
5.96416	0.831
6.0051	0.77
6.04604	0.602
6.08697	0.144
6.12791	0.053
6.16885	0.121
6.20978	0.108
6.25072	0.048
6.29166	0.042
6.33259	0.269
6.37353	0.411
6.41447	0.459
6.4554	0.25
6.49634	0.15
6.53728	0.418
6.57821	0.578
6.61915	0.622
6.66009	0.619
6.70102	0.617
6.74196	0.584
6.7829	0.497
6.82383	0.399
6.86477	0.248
6.90571	0.171
6.94664	0.186
6.98758	0.198
7.02851	0.209
7.06945	0.195
7.11039	0.228
7.15132	0.246
7.19226	0.204
7.2332	0.133
7.27413	0.133
7.31507	0.142
7.35601	0.207
7.39694	0.222
7.43788	0.157
7.47882	0.133
7.51975	0.126
7.56069	0.15
7.60163	0.159
7.64256	0.061
7.6835	0.024
7.72444	0.154
7.76537	0.337
7.80631	0.427
7.84725	0.433
7.88818	0.31
7.92912	0.205
7.97006	0.192
8.01099	0.192
8.05193	0.173
8.09287	0.132
8.1338	0.13
8.17474	0.092
8.21568	0.051
8.25661	0.072
8.29755	0.214
8.33848	0.348
8.37942	0.401
8.42036	0.368
8.46129	0.375
8.50223	0.353
8.54317	0.442
8.5841	0.48
8.62504	0.49
8.66598	0.401
8.70691	0.202
8.74785	0.087
8.78879	0.152
8.82972	0.421
8.87066	0.6
8.9116	0.706
8.95253	0.766
8.99347	0.804
9.03441	0.838
9.07534	0.857
9.11628	0.871
9.15722	0.881
9.19815	0.893
9.23909	0.895
9.28003	0.898
9.32096	0.886
9.3619	0.847
9.40284	0.665
9.44377	0.475
9.48471	0.675
9.52565	0.771
9.56658	0.807
9.60752	0.818
9.64846	0.816
9.68939	0.744
9.73033	0.746
9.77126	0.801
9.8122	0.83
9.85314	0.854
9.89407	0.878
9.93501	0.89
9.97595	0.903
10.0169	0.912
10.0578	0.922
10.0988	0.924
10.1397	0.921
10.1806	0.91
10.2216	0.897
10.2625	0.871
10.3034	0.809
10.3444	0.632
10.3853	0.375
10.4262	0.547
10.4672	0.759
10.5081	0.843
10.5491	0.895
10.59	0.921
10.6309	0.934
10.6719	0.941
10.7128	0.946
10.7537	0.946
10.7947	0.948
10.8356	0.948
10.8766	0.948
10.9175	0.948
10.9584	0.945
10.9994	0.941
11.0403	0.936
11.0812	0.934
11.1222	0.933
11.1631	0.931
11.204	0.922
11.245	0.919
11.2859	0.903
11.3269	0.878
11.3678	0.811
11.4087	0.571
11.4497	0.375
11.4906	0.557
11.5315	0.567
11.5725	0.397
11.6134	0.325
11.6543	0.301
11.6953	0.303
11.7362	0.433
11.7772	0.471
11.8181	0.413
11.859	0.372
11.9	0.473
11.9409	0.639
11.9818	0.739
12.0228	0.802
12.0637	0.835
12.1046	0.852
12.1456	0.859
12.1865	0.855
12.2275	0.852
12.2684	0.849
12.3093	0.835
12.3503	0.826
12.3912	0.819
12.4321	0.813
12.4731	0.802
12.514	0.792
12.555	0.783
12.5959	0.766
12.6368	0.742
12.6778	0.718
12.7187	0.682
12.7596	0.639
12.8006	0.593
12.8415	0.526
12.8824	0.447
12.9234	0.377
12.9643	0.315
13.0053	0.281
13.0462	0.272
13.0871	0.295
13.1281	0.348
13.169	0.401
13.2099	0.463
13.2509	0.514
13.2918	0.538
13.3327	0.439
13.3737	0.368
13.4146	0.473
13.4556	0.581
13.4965	0.651
13.5374	0.689
13.5784	0.722
13.6193	0.742
13.6602	0.754
13.7012	0.765
13.7421	0.77
13.783	0.763
13.824	0.718
13.8649	0.66
13.9059	0.638
13.9468	0.658
13.9877	0.68
14.0287	0.696
14.0696	0.703
14.1105	0.703
14.1515	0.689
14.1924	0.679
14.2334	0.689
14.2743	0.699
14.3152	0.713
14.3562	0.722
14.3971	0.716
14.438	0.692
14.479	0.65
14.5199	0.627
14.5608	0.641
14.6018	0.674
14.6427	0.704
14.6837	0.722
14.7246	0.728
14.7655	0.732
14.8065	0.734
14.8474	0.727
14.8883	0.722
14.9293	0.716
14.9702	0.701
15.0111	0.663
15.0521	0.639
15.093	0.622
15.134	0.614
15.1749	0.605
15.2158	0.6
15.2568	0.593
15.2977	0.586
15.3386	0.579
15.3796	0.574
15.4205	0.566
15.4614	0.55
15.5024	0.548
15.5433	0.538
15.5843	0.53
15.6252	0.524
15.6661	0.518
15.7071	0.512
15.748	0.512
15.7889	0.514
15.8299	0.514
15.8708	0.514
15.9117	0.519
15.9527	0.521
