Infrared Spectrum: Disiloxane, 1,3-dimethoxy-1,1,3,3-tetramethyl-,
Formula: C6 H18 O3 Si2
CAS: 18187-24-1
State: SOLUTION (11% CCl4 FOR 3800-1300, 3% CS2 FOR 1300-650, AND 11% CCl4 FOR 650-250)
Class: COBLENTZ III
Instrument: PERKIN-ELMER 521 (GRATING)
Instrument parameters: FILTERS AT 3150, 2500, 2000, 1150, 700, 410. GRATING CHANGES: 2000, 630
Path length: 0.011 CM, 0.011 CM, AND 0.011 CM
Resolution: 2
Origin: DOW CORNING CORP.
1/CM	TRANSMITTANCE
241	0.5587
250	0.5618
259	0.5613
268	0.5589
277	0.5598
286	0.5605
295	0.5605
304	0.5583
313	0.5611
322	0.5747
331	0.5764
340	0.5646
349	0.5453
358	0.5002
367	0.3643
376	0.2717
385	0.3103
394	0.379
403	0.5554
412	0.7023
421	0.7936
430	0.8442
439	0.8607
448	0.8652
457	0.8666
466	0.8764
475	0.8855
484	0.8897
493	0.8884
502	0.8799
511	0.8578
520	0.8321
529	0.8179
538	0.8162
547	0.8303
556	0.8513
565	0.8656
574	0.8786
583	0.8962
592	0.906
601	0.8955
610	0.8398
619	0.8878
628	0.805
637	0.2986
646	0.5837
655	0.8433
664	0.841
673	0.8344
682	0.8223
691	0.8248
700	0.8369
709	0.84
718	0.8085
727	0.6823
736	0.7115
745	0.8039
754	0.8162
763	0.809
772	0.7708
781	0.6622
790	0.3622
799	0.0637
808	0.1254
817	0.3766
826	0.54
835	0.4428
844	0.2592
853	0.1419
862	0.3313
871	0.4785
880	0.6273
889	0.7393
898	0.7858
907	0.8184
916	0.8426
925	0.853
934	0.8587
943	0.8604
952	0.8607
961	0.8561
970	0.8461
979	0.8297
988	0.805
997	0.7702
1006	0.703
1015	0.6068
1024	0.4694
1033	0.3031
1042	0.186
1051	0.0882
1060	0.0844
1069	0.1393
1078	0.1649
1087	0.1005
1096	0.0473
1105	0.1991
1114	0.3822
1123	0.5071
1132	0.6135
1141	0.6827
1150	0.7307
1159	0.7339
1168	0.7105
1177	0.6678
1186	0.5531
1195	0.6243
1204	0.7479
1213	0.7913
1222	0.7923
1231	0.7721
1240	0.6777
1249	0.3503
1258	0.2099
1267	0.7168
1276	0.8108
1285	0.8422
1294	0.8471
1303	0.7885
1312	0.7263
1321	0.7186
1330	0.7471
1339	0.767
1348	0.7732
1357	0.7659
1366	0.7512
1375	0.743
1384	0.7225
1393	0.6568
1402	0.5522
1411	0.5417
1420	0.5954
1429	0.65
1438	0.6465
1447	0.6114
1456	0.5796
1465	0.568
1474	0.6385
1483	0.6935
1492	0.7318
1501	0.765
1510	0.7831
1519	0.7875
1528	0.7873
1537	0.7754
1546	0.7735
1555	0.7746
1564	0.7736
1573	0.7619
1582	0.7364
1591	0.7331
1600	0.751
1609	0.777
1618	0.7913
1627	0.8043
1636	0.8169
1645	0.8276
1654	0.8374
1663	0.848
1672	0.8559
1681	0.8603
1690	0.863
1699	0.8642
1708	0.8638
1717	0.8501
1726	0.8469
1735	0.8461
1744	0.8491
1753	0.8584
1762	0.8586
1771	0.8481
1780	0.8472
1789	0.8462
1798	0.8445
1807	0.8397
1816	0.8298
1825	0.8264
1834	0.8343
1843	0.8459
1852	0.8571
1861	0.8648
1870	0.8661
1879	0.8633
1888	0.8466
1897	0.8417
1906	0.8484
1915	0.8436
1924	0.838
1933	0.8306
1942	0.8217
1951	0.8304
1960	0.8473
1969	0.857
1978	0.8633
1987	0.8641
1996	0.8678
2005	0.8729
2014	0.8752
2023	0.8756
2032	0.8737
2041	0.87
2050	0.8661
2059	0.8658
2068	0.8691
2077	0.8725
2086	0.874
2095	0.8735
2104	0.8721
2113	0.8706
2122	0.869
2131	0.8673
2140	0.8656
2149	0.8635
2158	0.8616
2167	0.8598
2176	0.8581
2185	0.859
2194	0.8613
2203	0.8659
2212	0.8685
2221	0.8688
2230	0.8689
2239	0.8695
2248	0.8702
2257	0.8722
2266	0.8745
2275	0.8769
2284	0.8776
2293	0.8777
2302	0.8777
2311	0.8777
2320	0.8777
2329	0.8776
2338	0.8775
2347	0.8773
2356	0.8774
2365	0.8779
2374	0.8784
2383	0.879
2392	0.8798
2401	0.8804
2410	0.8797
2419	0.8788
2428	0.8781
2437	0.8773
2446	0.8765
2455	0.8756
2464	0.8747
2473	0.8738
2482	0.8727
2491	0.8713
2500	0.8703
2509	0.8706
2518	0.8755
2527	0.8778
2536	0.8772
2545	0.8763
2554	0.8754
2563	0.8743
2572	0.8727
2581	0.8709
2590	0.8692
2599	0.8676
2608	0.8664
2617	0.8656
2626	0.8637
2635	0.8617
2644	0.8608
2653	0.8618
2662	0.8677
2671	0.8702
2680	0.8716
2689	0.8719
2698	0.871
2707	0.8693
2716	0.867
2725	0.8626
2734	0.8576
2743	0.8524
2752	0.8437
2761	0.8335
2770	0.8213
2779	0.8061
2788	0.7893
2797	0.7687
2806	0.749
2815	0.7144
2824	0.6166
2833	0.4903
2842	0.0663
2851	0.2398
2860	0.6034
2869	0.6081
2878	0.597
2887	0.53
2896	0.4477
2905	0.3653
2914	0.3019
2923	0.318
2932	0.2979
2941	0.1669
2950	0.1275
2959	0.0993
2968	0.024
2977	0.0251
2986	0.1384
2995	0.2961
3004	0.3623
3013	0.5113
3022	0.5803
3031	0.6095
3040	0.6378
3049	0.6654
3058	0.6863
3067	0.7037
3076	0.7188
3085	0.7316
3094	0.7433
3103	0.7541
3112	0.7653
3121	0.7771
3130	0.7813
3139	0.7817
3148	0.7951
3157	0.7977
3166	0.8004
3175	0.8034
3184	0.8064
3193	0.8082
3202	0.8101
3211	0.8121
3220	0.8142
3229	0.8152
3238	0.8163
3247	0.8169
3256	0.8168
3265	0.8165
3274	0.8161
3283	0.8151
3292	0.8138
3301	0.8124
3310	0.8102
3319	0.8079
3328	0.8056
3337	0.8033
3346	0.8012
3355	0.7993
3364	0.7981
3373	0.797
3382	0.797
3391	0.797
3400	0.7971
3409	0.7971
3418	0.797
3427	0.797
3436	0.7969
3445	0.7973
3454	0.7985
3463	0.7998
3472	0.8013
3481	0.8029
3490	0.8047
3499	0.8065
3508	0.8088
3517	0.8122
3526	0.8169
3535	0.8216
3544	0.8261
3553	0.8306
3562	0.835
3571	0.8392
3580	0.8436
3589	0.8477
3598	0.8512
3607	0.8536
3616	0.86
3625	0.8665
3634	0.8666
3643	0.8668
3652	0.8684
3661	0.8736
3670	0.8811
3679	0.8783
3688	0.8724
3697	0.8657
3706	0.8594
3715	0.8661
3724	0.8732
3733	0.8792
3742	0.8842
3751	0.8841
3760	0.8746
3769	0.8725
3778	0.8804
3787	0.8878
3796	0.8931
3805	0.8943
3814	0.8912
