Infrared Spectrum: Disiloxane, 1,3-dimethyl-1,1,3,3-tetramethoxy-,
Formula: C6 H18 O5 Si2
CAS: 18186-97-5
State: SOLUTION (10% CCl4 FOR 3800-1300, 2% CS2 FOR 1300-650, AND 10% CCl4 FOR 650-250)
Class: COBLENTZ
Instrument: PERKIN-ELMER 521 (GRATING)
Instrument parameters: FILTERS AT 3150, 2500, 2000, 1150, 700, 410. GRATING CHANGES: 2000, 630
Path length: 0.011 CM, 0.011 CM, AND 0.020 CM
Resolution: 2
Origin: DOW CORNING CORP.
1/CM	TRANSMITTANCE
245	0.5996
254	0.5946
263	0.5966
272	0.5866
281	0.576
290	0.5716
299	0.5633
308	0.5286
317	0.5013
326	0.4593
335	0.3938
344	0.3283
353	0.2649
362	0.2186
371	0.207
380	0.2133
389	0.2313
398	0.2542
407	0.2241
416	0.1543
425	0.0853
434	0.0387
443	0.118
452	0.3354
461	0.5438
470	0.6531
479	0.6952
488	0.7016
497	0.7253
506	0.7232
515	0.7138
524	0.7046
533	0.6879
542	0.6582
551	0.6256
560	0.6285
569	0.6599
578	0.7076
587	0.7374
596	0.7461
605	0.7503
614	0.7448
623	0.7362
632	0.7105
641	0.6419
650	0.7308
659	0.6915
668	0.7921
677	0.8095
686	0.8133
695	0.8065
704	0.7982
713	0.7827
722	0.7653
731	0.7415
740	0.7452
749	0.7502
758	0.6805
767	0.4662
776	0.6019
785	0.4403
794	0.4593
803	0.4442
812	0.4014
821	0.52
830	0.4314
839	0.2047
848	0.17
857	0.4144
866	0.6509
875	0.7306
884	0.7645
893	0.7806
902	0.7899
911	0.7969
920	0.8021
929	0.805
938	0.8054
947	0.8054
956	0.8052
965	0.8038
974	0.7944
983	0.7801
992	0.7612
1001	0.7366
1010	0.6991
1019	0.6563
1028	0.59
1037	0.4925
1046	0.3268
1055	0.1611
1064	0.0794
1073	0.09
1082	0.0455
1091	0.0373
1100	0.0971
1109	0.1362
1118	0.2039
1127	0.3138
1136	0.4589
1145	0.5346
1154	0.5657
1163	0.5665
1172	0.5098
1181	0.4214
1190	0.3795
1199	0.5508
1208	0.6365
1217	0.7031
1226	0.7166
1235	0.7331
1244	0.7193
1253	0.6304
1262	0.1847
1271	0.7555
1280	0.7836
1289	0.7942
1298	0.7639
1307	0.7554
1316	0.7662
1325	0.7732
1334	0.7706
1343	0.7674
1352	0.7671
1361	0.7679
1370	0.7583
1379	0.7503
1388	0.7255
1397	0.6649
1406	0.6041
1415	0.7128
1424	0.7015
1433	0.6786
1442	0.6268
1451	0.5007
1460	0.4822
1469	0.5527
1478	0.6334
1487	0.6981
1496	0.7305
1505	0.7516
1514	0.7723
1523	0.7905
1532	0.8104
1541	0.8206
1550	0.824
1559	0.8202
1568	0.8192
1577	0.8185
1586	0.8163
1595	0.8079
1604	0.7961
1613	0.7947
1622	0.8036
1631	0.8131
1640	0.8218
1649	0.8259
1658	0.8265
1667	0.8341
1676	0.8383
1685	0.8417
1694	0.8411
1703	0.8406
1712	0.836
1721	0.8178
1730	0.8007
1739	0.8218
1748	0.8261
1757	0.8343
1766	0.8368
1775	0.8379
1784	0.8352
1793	0.8307
1802	0.8251
1811	0.8172
1820	0.8105
1829	0.8084
1838	0.8111
1847	0.8174
1856	0.8207
1865	0.8228
1874	0.824
1883	0.823
1892	0.8212
1901	0.8178
1910	0.8142
1919	0.8086
1928	0.8076
1937	0.8095
1946	0.8131
1955	0.8194
1964	0.8271
1973	0.8366
1982	0.8454
1991	0.8443
2000	0.8374
2009	0.8552
2018	0.8539
2027	0.8522
2036	0.8485
2045	0.8467
2054	0.8518
2063	0.8604
2072	0.8547
2081	0.8611
2090	0.8649
2099	0.8635
2108	0.8586
2117	0.8497
2126	0.8428
2135	0.8383
2144	0.8349
2153	0.8344
2162	0.8352
2171	0.8361
2180	0.8374
2189	0.8401
2198	0.8428
2207	0.8477
2216	0.852
2225	0.8552
2234	0.8561
2243	0.8569
2252	0.8574
2261	0.8579
2270	0.8582
2279	0.8582
2288	0.8583
2297	0.8583
2306	0.8579
2315	0.8575
2324	0.8572
2333	0.8567
2342	0.8564
2351	0.8561
2360	0.8558
2369	0.8554
2378	0.8551
2387	0.855
2396	0.855
2405	0.855
2414	0.855
2423	0.8548
2432	0.8545
2441	0.854
2450	0.8536
2459	0.8548
2468	0.8575
2477	0.8601
2486	0.859
2495	0.8576
2504	0.8563
2513	0.855
2522	0.8538
2531	0.8525
2540	0.8507
2549	0.8487
2558	0.8468
2567	0.8435
2576	0.8402
2585	0.8371
2594	0.8346
2603	0.832
2612	0.83
2621	0.8303
2630	0.8306
2639	0.8321
2648	0.8356
2657	0.8387
2666	0.8412
2675	0.8437
2684	0.8451
2693	0.8461
2702	0.8471
2711	0.8471
2720	0.8448
2729	0.8401
2738	0.8338
2747	0.8267
2756	0.8219
2765	0.8168
2774	0.8074
2783	0.7946
2792	0.772
2801	0.742
2810	0.7011
2819	0.6502
2828	0.5398
2837	0.1776
2846	0.0339
2855	0.3172
2864	0.5729
2873	0.5814
2882	0.5636
2891	0.4851
2900	0.4067
2909	0.3282
2918	0.2804
2927	0.2745
2936	0.1796
2945	0.0558
2954	0.0905
2963	0.1095
2972	0.0973
2981	0.1195
2990	0.2269
2999	0.3386
3008	0.4436
3017	0.5333
3026	0.592
3035	0.6196
3044	0.6786
3053	0.7099
3062	0.7377
3071	0.7604
3080	0.7835
3089	0.8048
3098	0.8184
3107	0.8276
3116	0.836
3125	0.8433
3134	0.849
3143	0.8541
3152	0.8582
3161	0.8614
3170	0.8633
3179	0.8653
3188	0.8672
3197	0.8682
3206	0.8692
3215	0.8702
3224	0.871
3233	0.8718
3242	0.8724
3251	0.8728
3260	0.8729
3269	0.8727
3278	0.873
3287	0.8733
3296	0.8737
3305	0.8739
3314	0.874
3323	0.8738
3332	0.8736
3341	0.8732
3350	0.8725
3359	0.8716
3368	0.8716
3377	0.872
3386	0.8725
3395	0.8729
3404	0.8735
3413	0.874
3422	0.8746
3431	0.8752
3440	0.8759
3449	0.8767
3458	0.877
3467	0.8755
3476	0.8733
3485	0.8701
3494	0.8676
3503	0.8654
3512	0.8633
3521	0.8629
3530	0.8628
3539	0.8637
3548	0.8652
3557	0.8674
3566	0.8698
3575	0.8726
3584	0.8756
3593	0.8782
3602	0.876
3611	0.8735
3620	0.871
3629	0.8687
3638	0.8666
3647	0.8646
3656	0.8645
3665	0.8655
3674	0.8675
3683	0.8692
3692	0.8707
3701	0.8719
3710	0.8725
3719	0.8733
3728	0.8744
3737	0.8753
3746	0.876
3755	0.8773
3764	0.8741
3773	0.8705
3782	0.8721
3791	0.8742
3800	0.8777
3809	0.8828
