Infrared Spectrum: 4-Phenylbutyric acid
Formula: C 10 H 12 O 2
CAS: 1821-12-1
State: gas
Origin: EPA-IR VAPOR PHASE LIBRARY
1/CM	ABSORBANCE
549.8	0.019415
559.445	0.019665
569.09	0.016555
578.734	0.016485
588.379	0.019155
598.024	0.021205
607.669	0.022145
617.313	0.021205
626.958	0.020005
636.603	0.017195
646.248	0.012925
655.893	0.010805
665.537	0.010775
675.182	0.013125
684.827	0.018305
694.472	0.029685
704.116	0.028125
713.761	0.018055
723.406	0.016405
733.051	0.022645
742.695	0.027565
752.34	0.021035
761.985	0.011395
771.63	0.006585
781.275	0.004345
790.919	0.003735
800.564	0.003745
810.209	0.003385
819.854	0.002795
829.498	0.002635
839.143	0.002765
848.788	0.002955
858.433	0.003045
868.078	0.003255
877.722	0.003495
887.367	0.003465
897.012	0.003165
906.657	0.003695
916.301	0.003345
925.946	0.002475
935.591	0.002335
945.236	0.002555
954.88	0.002925
964.525	0.004265
974.17	0.005765
983.815	0.006255
993.46	0.006355
1003.1	0.007795
1012.75	0.010315
1022.39	0.014465
1032.04	0.016225
1041.68	0.012785
1051.33	0.012255
1060.97	0.014005
1070.62	0.017455
1080.26	0.022775
1089.91	0.029495
1099.55	0.044715
1109.2	0.073305
1118.84	0.098345
1128.49	0.074465
1138.13	0.048225
1147.78	0.035585
1157.42	0.028255
1167.07	0.026065
1176.71	0.026105
1186.36	0.024415
1196	0.021675
1205.64	0.019015
1215.29	0.016225
1224.93	0.013545
1234.58	0.011605
1244.22	0.011075
1253.87	0.011055
1263.51	0.010975
1273.16	0.010605
1282.8	0.009965
1292.45	0.009455
1302.09	0.008965
1311.74	0.008685
1321.38	0.008915
1331.03	0.010095
1340.67	0.012355
1350.32	0.014545
1359.96	0.015825
1369.61	0.017835
1379.25	0.019885
1388.9	0.017755
1398.54	0.011745
1408.18	0.008115
1417.83	0.007975
1427.47	0.009055
1437.12	0.010145
1446.76	0.012525
1456.41	0.013635
1466.05	0.009555
1475.7	0.005755
1485.34	0.006635
1494.99	0.013045
1504.63	0.008715
1514.28	0.002605
1523.92	0.001955
1533.57	0.001755
1543.21	0.001715
1552.86	0.001615
1562.5	0.001735
1572.15	0.002205
1581.79	0.003065
1591.44	0.005005
1601.08	0.007115
1610.73	0.005015
1620.37	0.002245
1630.01	0.001705
1639.66	0.001675
1649.3	0.001745
1658.95	0.001825
1668.59	0.001955
1678.24	0.002165
1687.88	0.002725
1697.53	0.003605
1707.17	0.005135
1716.82	0.007965
1726.46	0.013205
1736.11	0.022285
1745.75	0.036305
1755.4	0.056965
1765.04	0.091005
1774.69	0.125605
1784.33	0.108305
1793.98	0.069085
1803.62	0.043005
1813.27	0.025305
1822.91	0.013785
1832.55	0.007195
1842.2	0.004705
1851.84	0.003745
1861.49	0.003355
1871.13	0.003135
1880.78	0.002725
1890.42	0.002035
1900.07	0.001635
1909.71	0.001545
1919.36	0.001755
1929	0.002255
1938.65	0.002595
1948.29	0.002735
1957.94	0.002075
1967.58	0.001205
1977.23	0.0010331
1986.87	0.0010147
1996.52	0.0009198
2006.16	0.0008279
2015.81	0.0007335
2025.45	0.0007734
2035.1	0.0006766
2044.74	0.0006295
2054.38	0.0006054
2064.03	0.0005962
2073.67	0.0005759
2083.32	0.0006478
2092.96	0.0005459
2102.61	0.0006968
2112.25	0.0007118
2121.9	0.000715
2131.54	0.000662
2141.19	0.0006914
2150.83	0.0006975
2160.48	0.0006964
2170.12	0.0008078
2179.77	0.0008032
2189.41	0.0008269
2199.06	0.0008241
2208.7	0.0008368
2218.35	0.0008498
2227.99	0.0009034
2237.64	0.0008897
2247.28	0.0008375
2256.92	0.0008992
2266.57	0.0008715
2276.21	0.0006978
2285.86	0.0007975
2295.5	0.0007567
2305.15	0.0008274
2314.79	0.0008806
2324.44	0.0008367
2334.08	0.0008683
2343.73	0.000873
2353.37	0.0007776
2363.02	0.0006847
2372.66	0.0007399
2382.31	0.0006721
2391.95	0.0007152
2401.6	0.0006607
2411.24	0.0006737
2420.89	0.0007389
2430.53	0.0006968
2440.18	0.0006949
2449.82	0.0006825
2459.47	0.0006085
2469.11	0.0006257
2478.75	0.0006422
2488.4	0.0005439
2498.04	0.0005397
2507.69	0.0005687
2517.33	0.0004893
2526.98	0.0006125
2536.62	0.0004641
2546.27	0.0005105
2555.91	0.0005275
2565.56	0.0005316
2575.2	0.0004432
2584.85	0.0005353
2594.49	0.0005645
2604.14	0.0006539
2613.78	0.0006552
2623.43	0.0006859
2633.07	0.0007129
2642.72	0.0006681
2652.36	0.0006959
2662.01	0.0007467
2671.65	0.0006762
2681.29	0.0006556
2690.94	0.0006323
2700.58	0.0005349
2710.23	0.0006056
2719.87	0.0006069
2729.52	0.0005943
2739.16	0.0006643
2748.81	0.00055
2758.45	0.0007275
2768.1	0.0007234
2777.74	0.0007874
2787.39	0.0009618
2797.03	0.001195
2806.68	0.001305
2816.32	0.001485
2825.97	0.001915
2835.61	0.002675
2845.26	0.003985
2854.9	0.006425
2864.55	0.009025
2874.19	0.010005
2883.84	0.008865
2893.48	0.007775
2903.12	0.008665
2912.77	0.012085
2922.41	0.018495
2932.06	0.023575
2941.7	0.025655
2951.35	0.026695
2960.99	0.023185
2970.64	0.015775
2980.28	0.010135
2989.93	0.007005
2999.57	0.006195
3009.22	0.007655
3018.86	0.012115
3028.51	0.021235
3038.15	0.021695
3047.8	0.012565
3057.44	0.012465
3067.09	0.020625
3076.73	0.019455
3086.38	0.012505
3096.02	0.008985
3105.67	0.006085
3115.31	0.003675
3124.95	0.001865
3134.6	0.001091
3144.24	0.0008254
3153.89	0.0006847
3163.53	0.0007166
3173.18	0.0005066
3182.82	0.0004198
3192.47	0.0002809
3202.11	0.0003811
3211.76	0.0003845
3221.4	0.0002476
3231.05	0.0004775
3240.69	0.000277
3250.34	0.0003812
3259.98	0.0002848
3269.63	0.0002724
3279.27	0.0003451
3288.92	0.0003111
3298.56	0.0002692
3308.21	0.0001348
3317.85	0.00014368
3327.49	0.0002239
3337.14	0.0002371
3346.78	0.0002998
3356.43	0.0002793
3366.07	0.00010791
3375.72	0.0002232
3385.36	0.00020462
3395.01	0.000265
3404.65	0.0002228
3414.3	0.0002474
3423.94	0.000291
3433.59	0.0003982
3443.23	0.0002725
3452.88	0.0002639
3462.52	0.0004735
3472.17	0.0002154
3481.81	0.0006128
3491.46	0.00069
3501.1	0.0008714
3510.75	0.001215
3520.39	0.001595
3530.04	0.002265
3539.68	0.003025
3549.32	0.005135
3558.97	0.011265
3568.61	0.040575
3578.26	0.049085
3587.9	0.014005
3597.55	0.004975
3607.19	0.002655
3616.84	0.001785
3626.48	0.0010243
3636.13	0.0010234
3645.77	0.00079
3655.42	0.0007226
3665.06	0.0006416
3674.71	0.0004076
3684.35	0.0004467
3694	0.0003377
3703.64	0.0003065
3713.29	0.000244
3722.93	0.000292
3732.58	0.000229
3742.22	0.0002779
3751.86	0.00018499
3761.51	0.0003604
3771.15	0.00020527
3780.8	0.0002205
3790.44	0.00015257
3800.09	0.0005659
3809.73	0.0002491
3819.38	0.0002764
3829.02	0.0003742
3838.67	0.0003094
3848.31	0.0003753
3857.96	0.0002928
3867.6	0.0003547
3877.25	0.0003924
3886.89	0.0003405
3896.54	0.0003478
3906.18	0.0004306
3915.83	0.0004892
3925.47	0.0003158
3935.12	0.0002614
3944.76	0.0004167
3954.41	0.00017204
3964.05	0.0002518
3973.69	0.0003899
3983.34	0.0003838
3992.98	0.0004142
