Infrared Spectrum: 5-Phenyl-1,2,3-thiadiazole
Formula: C 8 H 6 N 2 S
CAS: 18212-29-8
State: gas
Origin: EPA-IR VAPOR PHASE LIBRARY
1/CM	ABSORBANCE
549.8	0.015787
559.445	0.018057
569.09	0.010347
578.734	0.004027
588.379	0.002607
598.024	0.001907
607.669	0.002027
617.313	0.002247
626.958	0.002827
636.603	0.003857
646.248	0.005097
655.893	0.011967
665.537	0.019347
675.182	0.024197
684.827	0.030807
694.472	0.030157
704.116	0.020887
713.761	0.012637
723.406	0.012017
733.051	0.017697
742.695	0.029107
752.34	0.042657
761.985	0.038497
771.63	0.023697
781.275	0.010027
790.919	0.003617
800.564	0.001697
810.209	0.001797
819.854	0.003467
829.498	0.008387
839.143	0.016367
848.788	0.024337
858.433	0.028757
868.078	0.031307
877.722	0.024197
887.367	0.010267
897.012	0.004687
906.657	0.003037
916.301	0.002137
925.946	0.001717
935.591	0.001617
945.236	0.001707
954.88	0.001837
964.525	0.003047
974.17	0.005747
983.815	0.004427
993.46	0.002747
1003.1	0.004027
1012.75	0.002207
1022.39	0.002457
1032.04	0.003417
1041.68	0.002807
1051.33	0.002657
1060.97	0.003887
1070.62	0.004797
1080.26	0.004417
1089.91	0.007607
1099.55	0.010397
1109.2	0.005737
1118.84	0.001967
1128.49	0.001034
1138.13	0.0008803
1147.78	0.0008979
1157.42	0.0009461
1167.07	0.001447
1176.71	0.002827
1186.36	0.006007
1196	0.013267
1205.64	0.018657
1215.29	0.012397
1224.93	0.010737
1234.58	0.017987
1244.22	0.042847
1253.87	0.053347
1263.51	0.029757
1273.16	0.022837
1282.8	0.018087
1292.45	0.010747
1302.09	0.006417
1311.74	0.003957
1321.38	0.003087
1331.03	0.002927
1340.67	0.002687
1350.32	0.001837
1359.96	0.001577
1369.61	0.001717
1379.25	0.001867
1388.9	0.001677
1398.54	0.001637
1408.18	0.002077
1417.83	0.002667
1427.47	0.004437
1437.12	0.009937
1446.76	0.014197
1456.41	0.015237
1466.05	0.017757
1475.7	0.011297
1485.34	0.003437
1494.99	0.002477
1504.63	0.003707
1514.28	0.004307
1523.92	0.002787
1533.57	0.001707
1543.21	0.001377
1552.86	0.001677
1562.5	0.002377
1572.15	0.003317
1581.79	0.004497
1591.44	0.005657
1601.08	0.004957
1610.73	0.002717
1620.37	0.001487
1630.01	0.001267
1639.66	0.001457
1649.3	0.001927
1658.95	0.002627
1668.59	0.003407
1678.24	0.003827
1687.88	0.003587
1697.53	0.002787
1707.17	0.001937
1716.82	0.001867
1726.46	0.002337
1736.11	0.003597
1745.75	0.003997
1755.4	0.003097
1765.04	0.002257
1774.69	0.002317
1784.33	0.003137
1793.98	0.004097
1803.62	0.003497
1813.27	0.002907
1822.91	0.002657
1832.55	0.001987
1842.2	0.001957
1851.84	0.001957
1861.49	0.002337
1871.13	0.002677
1880.78	0.002937
1890.42	0.003037
1900.07	0.001957
1909.71	0.001157
1919.36	0.001447
1929	0.002047
1938.65	0.002737
1948.29	0.003187
1957.94	0.003507
1967.58	0.002747
1977.23	0.001167
1986.87	0.0007627
1996.52	0.00069
2006.16	0.0006906
2015.81	0.0005852
2025.45	0.0005431
2035.1	0.000543
2044.74	0.0005862
2054.38	0.0006375
2064.03	0.0008031
2073.67	0.0007975
2083.32	0.0007292
2092.96	0.000738
2102.61	0.0007319
2112.25	0.000924
2121.9	0.0008635
2131.54	0.0009037
2141.19	0.001016
2150.83	0.0010558
2160.48	0.0011005
2170.12	0.0008166
2179.77	0.0007662
2189.41	0.0006042
2199.06	0.0006851
2208.7	0.0005825
2218.35	0.0005917
2227.99	0.0005838
2237.64	0.0008031
2247.28	0.0006355
2256.92	0.0006677
2266.57	0.0007431
2276.21	0.0007269
2285.86	0.0007153
2295.5	0.0007315
2305.15	0.0006899
2314.79	0.0010783
2324.44	0.001207
2334.08	0.0009371
2343.73	0.0009716
2353.37	0.0010957
2363.02	0.0009981
2372.66	0.001157
2382.31	0.001357
2391.95	0.001477
2401.6	0.001427
2411.24	0.0010947
2420.89	0.0010909
2430.53	0.0011457
2440.18	0.001357
2449.82	0.001417
2459.47	0.001247
2469.11	0.0010378
2478.75	0.0011101
2488.4	0.0010441
2498.04	0.0009729
2507.69	0.0007569
2517.33	0.0008688
2526.98	0.0008924
2536.62	0.0011072
2546.27	0.0010504
2555.91	0.0008678
2565.56	0.000868
2575.2	0.0006756
2584.85	0.000725
2594.49	0.0007829
2604.14	0.0007894
2613.78	0.0006081
2623.43	0.0006003
2633.07	0.0005213
2642.72	0.0005765
2652.36	0.0005289
2662.01	0.0005519
2671.65	0.0004989
2681.29	0.0004724
2690.94	0.0004301
2700.58	0.0004865
2710.23	0.0005535
2719.87	0.0005515
2729.52	0.0005627
2739.16	0.0005944
2748.81	0.0006664
2758.45	0.000589
2768.1	0.0006775
2777.74	0.0006897
2787.39	0.0006618
2797.03	0.0007103
2806.68	0.0006978
2816.32	0.0005711
2825.97	0.0004889
2835.61	0.0006739
2845.26	0.0006989
2854.9	0.0006438
2864.55	0.0008479
2874.19	0.0008013
2883.84	0.0008996
2893.48	0.0009739
2903.12	0.0007666
2912.77	0.0008223
2922.41	0.0006863
2932.06	0.0006853
2941.7	0.0009037
2951.35	0.0006967
2960.99	0.0008193
2970.64	0.0008946
2980.28	0.0008147
2989.93	0.001109
2999.57	0.001837
3009.22	0.003387
3018.86	0.006167
3028.51	0.010237
3038.15	0.011687
3047.8	0.010427
3057.44	0.012727
3067.09	0.024207
3076.73	0.027627
3086.38	0.016467
3096.02	0.011557
3105.67	0.009487
3115.31	0.006657
3124.95	0.003297
3134.6	0.001707
3144.24	0.001417
3153.89	0.0010411
3163.53	0.0009012
3173.18	0.0005888
3182.82	0.0007668
3192.47	0.0006197
3202.11	0.0005099
3211.76	0.0004757
3221.4	0.0003869
3231.05	0.0005295
3240.69	0.0005875
3250.34	0.0003783
3259.98	0.0004571
3269.63	0.0002692
3279.27	0.0003026
3288.92	0.0003293
3298.56	0.0003978
3308.21	0.000166226
3317.85	0.0004009
3327.49	0.0003069
3337.14	0.00018986
3346.78	0.0005231
3356.43	0.0004487
3366.07	0.0001062
3375.72	0.00021975
3385.36	0.00024654
3395.01	0.0003776
3404.65	0.0001468
3414.3	0.0004327
3423.94	0.0003177
3433.59	0.0003824
3443.23	0.0003607
3452.88	0.0003343
3462.52	0.0001422
3472.17	0.0002718
3481.81	0.0002733
3491.46	0.0003659
3501.1	0.0001965
3510.75	0.00017601
3520.39	0.0003469
3530.04	0.0002253
3539.68	0.00018791
3549.32	0.00019436
3558.97	0.0001464
3568.61	0.0003325
3578.26	0.0002574
3587.9	0.00019573
3597.55	0.0001333
3607.19	0.00025163
3616.84	0.00023137
3626.48	0.000284
3636.13	0.0004614
3645.77	0.000317
3655.42	0.0003656
3665.06	0.0004145
3674.71	0.0003465
3684.35	0.0004287
3694	0.0006413
3703.64	0.0004283
3713.29	0.0007393
3722.93	0.000778
3732.58	0.0005434
3742.22	0.000475
3751.86	0.0002684
3761.51	0.0002818
3771.15	0.0004643
3780.8	0.0003522
3790.44	0.0003651
3800.09	0.0002901
3809.73	0.0003463
3819.38	0.00017084
3829.02	0.0003882
3838.67	0
3848.31	0.0004022
3857.96	0.0005074
3867.6	0.0003973
3877.25	0.00025326
3886.89	0.00017606
3896.54	0.00016377
3906.18	0.0003817
3915.83	0.0003654
3925.47	0.00025361
3935.12	0.00019202
3944.76	0.0003415
3954.41	0.0005171
3964.05	0.0004432
3973.69	0.0004955
3983.34	0.0003292
3992.98	0.0005787
