Infrared Spectrum: 5-Methyl-2-heptanone
Formula: C 8 H 16 O
CAS: 18217-12-4
State: gas
Instrument: HP-GC/MS/IRD
Origin: NIST Mass Spectrometry Data Center
1/CM	ABSORBANCE
550	0.0005628
562	0.0004476
574	0.0004104
586	0.0004404
598	0.0004008
610	0.000288
622	0.0001176
634	0.0001416
646	0.0001236
658	0.000114
670	0.0001188
682	0
694	5.52e-05
706	0.0001536
718	0.000234
730	0.000258
742	0.000258
754	0.0002016
766	0.0001572
778	0.0002364
790	0.000228
802	0.0001836
814	0.0001824
826	0.0001788
838	0.0001668
850	0.0001764
862	0.000192
874	0.000282
886	0.0002676
898	0.0003888
910	0.000474
922	0.0004404
934	0.0005292
946	0.0005988
958	0.0006972
970	0.0007572
982	0.0007608
994	0.0007716
1006	0.0007836
1018	0.00066
1030	0.0005724
1042	0.0005724
1054	0.0004812
1066	0.00045
1078	0.0004416
1090	0.0005472
1102	0.000744
1114	0.0009408
1126	0.0010044
1138	0.0014616
1150	0.0026256
1162	0.0037584
1174	0.0029136
1186	0.0017532
1198	0.0013644
1210	0.0015132
1222	0.0017532
1234	0.0016548
1246	0.0014472
1258	0.0013104
1270	0.0012084
1282	0.0011124
1294	0.0010512
1306	0.0011136
1318	0.0012204
1330	0.0015468
1342	0.0023268
1354	0.0039444
1366	0.0042744
1378	0.0030888
1390	0.0022428
1402	0.0015036
1414	0.0014556
1426	0.001524
1438	0.0016524
1450	0.002088
1462	0.0023856
1474	0.0018012
1486	0.001026
1498	0.0006324
1510	0.0004176
1522	0.0003924
1534	0.00042
1546	0.0003612
1558	0.000342
1570	0.0003552
1582	0.0003072
1594	0.0003012
1606	0.000276
1618	0.0002736
1630	0.0002856
1642	0.000306
1654	0.0004008
1666	0.0005376
1678	0.000804
1690	0.0015024
1702	0.002706
1714	0.0052704
1726	0.0088104
1738	0.008238
1750	0.0041208
1762	0.001752
1774	0.0008664
1786	0.0004596
1798	0.0003144
1810	0.0001872
1822	0.0001464
1834	0.0001176
1846	0.0001308
1858	8.52e-05
1870	8.4e-05
1882	8.16e-05
1894	7.44e-05
1906	7.8e-05
1918	7.08e-05
1930	8.16e-05
1942	8.52e-05
1954	8.76e-05
1966	7.2e-05
1978	7.08e-05
1990	6.24e-05
2002	5.4e-05
2014	5.04e-05
2026	6.12e-05
2038	7.2e-05
2050	9.6e-05
2062	6.24e-05
2074	7.92e-05
2086	6.48e-05
2098	6.24e-05
2110	5.04e-05
2122	5.52e-05
2134	6e-05
2146	7.44e-05
2158	6.84e-05
2170	5.16e-05
2182	6.24e-05
2194	5.28e-05
2206	3.72e-05
2218	6.96e-05
2230	5.52e-05
2242	6e-05
2254	3.36e-05
2266	5.76e-05
2278	5.88e-05
2290	4.32e-05
2302	5.16e-05
2314	5.04e-05
2326	7.44e-05
2338	8.16e-05
2350	0.0001032
2362	4.2e-05
2374	3.36e-05
2386	6.72e-05
2398	3.96e-05
2410	6.48e-05
2422	4.8e-06
2434	2.88e-05
2446	2.28e-05
2458	2.52e-05
2470	2.76e-05
2482	4.44e-05
2494	3.84e-05
2506	4.44e-05
2518	4.56e-05
2530	5.64e-05
2542	5.64e-05
2554	5.64e-05
2566	8.76e-05
2578	6.96e-05
2590	7.08e-05
2602	5.76e-05
2614	0.0001272
2626	9e-05
2638	0.0001176
2650	0.0001008
2662	0.0001344
2674	0.0001464
2686	0.00015
2698	0.0001332
2710	0.000144
2722	0.000198
2734	0.000258
2746	0.0002844
2758	0.0002844
2770	0.0002988
2782	0.0003444
2794	0.0004452
2806	0.0005352
2818	0.0007128
2830	0.000852
2842	0.001314
2854	0.0022776
2866	0.003858
2878	0.0053412
2890	0.0057576
2902	0.0056304
2914	0.0071604
2926	0.0091284
2938	0.0093024
2950	0.008904
2962	0.0112128
2974	0.0109764
2986	0.0051768
2998	0.0022428
3010	0.0015732
3022	0.0010776
3034	0.0008028
3046	0.000702
3058	0.0006084
3070	0.0005664
3082	0.0004596
3094	0.0004392
3106	0.0003828
3118	0.0003228
3130	0.0002784
3142	0.0002388
3154	0.000168
3166	0.00021
3178	0.0001536
3190	0.0001404
3202	0.0001488
3214	9.96e-05
3226	0.0001044
3238	8.28e-05
3250	7.92e-05
3262	9.12e-05
3274	4.44e-05
3286	9.24e-05
3298	6.12e-05
3310	8.76e-05
3322	8.64e-05
3334	5.16e-05
3346	0.0001032
3358	8.52e-05
3370	0.00012
3382	0.0001824
3394	9.96e-05
3406	0.0001932
3418	0.0001944
3430	0.0002424
3442	0.0002556
3454	0.0002352
3466	0.0001944
3478	0.0001428
3490	0.0001476
3502	0.0001332
3514	0.0001176
3526	0.000108
3538	9.36e-05
3550	3.6e-05
3562	2.28e-05
3574	7.44e-05
3586	3.36e-05
3598	4.68e-05
3610	4.8e-05
3622	0.00012
3634	0.0001272
3646	5.76e-05
3658	0.0001548
3670	0.0001308
3682	0.000168
3694	0.0001068
3706	8.04e-05
3718	0.0001764
3730	0.000144
3742	0.000132
3754	0.0001272
3766	0.000114
3778	0.0001524
3790	0.0001812
3802	0.0001584
3814	0.000168
3826	0.000192
3838	0.0001092
