Infrared Spectrum: Aniline, N-cyclohexyl-
Formula: C12 H17 N
CAS: 1821-36-9
State: LIQUID (NEAT)
Class: COBLENTZ III
Instrument: BECKMAN IR-4 (HYBRID PRISM-GRATING)
Instrument parameters: NaCl PRISM
Sampling: TRANSMISSION
Path length: CAPILLARY
Resolution: 2
Origin: MONSANTO (J. FREEMAN)
1/CM	TRANSMITTANCE
4000	0.9166
3991	0.9167
3982	0.9168
3973	0.9171
3964	0.9173
3955	0.9175
3946	0.9177
3937	0.918
3928	0.9181
3919	0.9183
3910	0.9185
3901	0.9186
3892	0.9188
3883	0.9189
3874	0.919
3865	0.9191
3856	0.9192
3847	0.9193
3838	0.9194
3829	0.9195
3820	0.9196
3811	0.9197
3802	0.9197
3793	0.9195
3784	0.9194
3775	0.9192
3766	0.9191
3757	0.9189
3748	0.9187
3739	0.9186
3730	0.9184
3721	0.9182
3712	0.9178
3703	0.9174
3694	0.9168
3685	0.9165
3676	0.916
3667	0.9156
3658	0.9152
3649	0.9147
3640	0.9143
3631	0.9138
3622	0.9132
3613	0.9127
3604	0.9121
3595	0.9115
3586	0.9108
3577	0.9101
3568	0.9091
3559	0.9074
3550	0.9055
3541	0.9024
3532	0.8984
3523	0.8746
3514	0.8434
3505	0.8118
3496	0.7803
3487	0.7484
3478	0.7165
3469	0.6844
3460	0.6521
3451	0.6196
3442	0.5903
3433	0.585
3424	0.5851
3415	0.5857
3406	0.5876
3397	0.6222
3388	0.6651
3379	0.7084
3370	0.7518
3361	0.7954
3352	0.8394
3343	0.8835
3334	0.8991
3325	0.906
3316	0.9112
3307	0.9156
3298	0.9192
3289	0.9224
3280	0.9245
3271	0.9266
3262	0.928
3253	0.9286
3244	0.9291
3235	0.9294
3226	0.9293
3217	0.9291
3208	0.9289
3199	0.9281
3190	0.927
3181	0.9258
3172	0.9228
3163	0.9187
3154	0.9121
3145	0.8625
3136	0.805
3127	0.7471
3118	0.6889
3109	0.6304
3100	0.5844
3091	0.5843
3082	0.6046
3073	0.6293
3064	0.6542
3055	0.6792
3046	0.7043
3037	0.7296
3028	0.7505
3019	0.7489
3010	0.6604
3001	0.5684
2992	0.4758
2983	0.3827
2974	0.2889
2965	0.1946
2956	0.1061
2947	0.1123
2938	0.1906
2929	0.277
2920	0.364
2911	0.416
2902	0.3659
2893	0.3134
2884	0.2684
2875	0.3001
2866	0.545
2857	0.7538
2848	0.7905
2839	0.8108
2830	0.8309
2821	0.8554
2812	0.878
2803	0.8939
2794	0.9062
2785	0.9128
2776	0.9162
2767	0.9185
2758	0.919
2749	0.9178
2740	0.9142
2731	0.9083
2722	0.897
2713	0.884
2704	0.8712
2695	0.8685
2686	0.8689
2677	0.8794
2668	0.895
2659	0.9049
2650	0.9071
2641	0.905
2632	0.8998
2623	0.8938
2614	0.8905
2605	0.8907
2596	0.8967
2587	0.9054
2578	0.9138
2569	0.9201
2560	0.9237
2551	0.9262
2542	0.9282
2533	0.9302
2524	0.9323
2515	0.9349
2506	0.9374
2497	0.9399
2488	0.9418
2479	0.944
2470	0.946
2461	0.9428
2452	0.9348
2443	0.9292
2434	0.9298
2425	0.9327
2416	0.9346
2407	0.9201
2398	0.9046
2389	0.9063
2380	0.9128
2371	0.9194
2362	0.9259
2353	0.9321
2344	0.9375
2335	0.9417
2326	0.9445
2317	0.9468
2308	0.9471
2299	0.9474
2290	0.9474
2281	0.9475
2272	0.9475
2263	0.9474
2254	0.9473
2245	0.9471
2236	0.9471
2227	0.9468
2218	0.9466
2209	0.9466
2200	0.947
2191	0.9474
2182	0.9475
2173	0.9478
2164	0.9482
2155	0.9484
2146	0.9487
2137	0.949
2128	0.9492
2119	0.9495
2110	0.9498
2101	0.9501
2092	0.9504
2083	0.9507
2074	0.951
2065	0.9513
2056	0.9516
2047	0.952
2038	0.9521
2029	0.952
2020	0.9518
2011	0.9516
2002	0.9513
1993	0.9508
1984	0.9486
1975	0.9433
1966	0.9353
1957	0.9224
1948	0.9053
1939	0.8897
1930	0.8902
1921	0.9064
1912	0.9221
1903	0.9375
1894	0.9418
1885	0.9431
1876	0.9432
1867	0.9386
1858	0.9303
1849	0.9188
1840	0.9092
1831	0.9066
1822	0.9163
1813	0.9261
1804	0.93
1795	0.93
1786	0.9245
1777	0.921
1768	0.931
1759	0.9404
1750	0.9451
1741	0.9473
1732	0.9412
1723	0.9308
1714	0.919
1705	0.9051
1696	0.8934
1687	0.8921
1678	0.8945
1669	0.892
1660	0.8495
1651	0.8397
1642	0.8001
1633	0.5742
1624	0.3755
1615	0.1778
1606	0.0724
1597	0.2563
1588	0.514
1579	0.751
1570	0.7749
1561	0.79
1552	0.7849
1543	0.6865
1534	0.5237
1525	0.3083
1516	0.0903
1507	0.0835
1498	0.3814
1489	0.602
1480	0.6647
1471	0.5994
1462	0.4239
1453	0.3818
1444	0.529
1435	0.4848
1426	0.7982
1417	0.8584
1408	0.8717
1399	0.8664
1390	0.8441
1381	0.7503
1372	0.6588
1363	0.7483
1354	0.6456
1345	0.5821
1336	0.4281
1327	0.2107
1318	0.2468
1309	0.2897
1300	0.5028
1291	0.7118
1282	0.6162
1273	0.4758
1264	0.388
1255	0.3154
1246	0.7276
1237	0.7382
1228	0.8468
1219	0.8814
1210	0.8771
1201	0.853
1192	0.7307
1183	0.4966
1174	0.6928
1165	0.6858
1156	0.5096
1147	0.5798
1138	0.8258
1129	0.7883
1120	0.4893
1111	0.5906
1102	0.7051
1093	0.8228
1084	0.8133
1075	0.6854
1066	0.8206
1057	0.8967
1048	0.8938
1039	0.8854
1030	0.7215
1021	0.9007
1012	0.9362
1003	0.8358
994	0.6451
985	0.872
976	0.7878
967	0.8925
958	0.923
949	0.9273
940	0.9346
931	0.9113
922	0.9096
913	0.9235
904	0.8958
895	0.7811
886	0.6587
877	0.8354
868	0.6626
859	0.7812
850	0.7087
841	0.8948
832	0.892
823	0.8571
814	0.8308
805	0.8418
796	0.831
787	0.8345
778	0.8352
769	0.7851
760	0.5708
751	0.1596
742	0.2455
733	0.6904
724	0.7919
715	0.7903
706	0.7191
697	0.3652
688	0.3124
679	0.6987
670	0.5967
661	0.6398
652	0.633
643	0.6225
634	0.6298
