Infrared Spectrum: 4-Ethylbenzophenone
Formula: C 15 H 14 O
CAS: 18220-90-1
State: gas
Origin: EPA-IR VAPOR PHASE LIBRARY
1/CM	ABSORBANCE
549.9	0.00358
559.547	0.00421
569.193	0.00478
578.84	0.005
588.486	0.00909
598.133	0.02236
607.779	0.02333
617.426	0.01266
627.072	0.00771
636.719	0.00829
646.365	0.00794
656.012	0.00914
665.658	0.01476
675.305	0.03063
684.951	0.05094
694.598	0.08332
704.245	0.07237
713.891	0.03428
723.538	0.02397
733.184	0.02218
742.831	0.01922
752.477	0.01533
762.124	0.01304
771.77	0.01454
781.417	0.01582
791.063	0.01293
800.71	0.00945
810.356	0.00791
820.003	0.00855
829.649	0.01456
839.296	0.02809
848.943	0.02973
858.589	0.01426
868.236	0.00762
877.882	0.00691
887.529	0.00849
897.175	0.01179
906.822	0.02334
916.468	0.05822
926.115	0.06835
935.761	0.08249
945.408	0.03056
955.054	0.01398
964.701	0.01498
974.347	0.0114
983.994	0.00606
993.64	0.00627
1003.29	0.00836
1012.93	0.00698
1022.58	0.01239
1032.23	0.00907
1041.87	0.00613
1051.52	0.00899
1061.17	0.0129
1070.81	0.00967
1080.46	0.00648
1090.11	0.00524
1099.75	0.00588
1109.4	0.00782
1119.05	0.00971
1128.69	0.00879
1138.34	0.01109
1147.99	0.01408
1157.63	0.01144
1167.28	0.01872
1176.92	0.05007
1186.57	0.03482
1196.22	0.01266
1205.86	0.00986
1215.51	0.01144
1225.16	0.02013
1234.8	0.03807
1244.45	0.04013
1254.1	0.05373
1263.74	0.14457
1273.39	0.23697
1283.04	0.11931
1292.68	0.08421
1302.33	0.07204
1311.98	0.06306
1321.62	0.04255
1331.27	0.02014
1340.92	0.01224
1350.56	0.00941
1360.21	0.00863
1369.86	0.00821
1379.5	0.00857
1389.15	0.00919
1398.79	0.012
1408.44	0.01937
1418.09	0.01882
1427.73	0.01312
1437.38	0.01601
1447.03	0.02449
1456.67	0.01754
1466.32	0.01405
1475.97	0.0101
1485.61	0.00771
1495.26	0.00707
1504.91	0.00686
1514.55	0.00665
1524.2	0.00744
1533.85	0.00831
1543.49	0.00868
1553.14	0.00951
1562.79	0.01227
1572.43	0.01505
1582.08	0.01821
1591.73	0.02747
1601.37	0.05304
1611.02	0.05958
1620.67	0.02539
1630.31	0.01532
1639.96	0.01429
1649.6	0.01653
1659.25	0.03043
1668.9	0.09612
1678.54	0.17975
1688.19	0.11206
1697.84	0.04054
1707.48	0.0194
1717.13	0.01296
1726.78	0.01095
1736.42	0.00811
1746.07	0.00565
1755.72	0.00493
1765.36	0.00487
1775.01	0.00503
1784.66	0.00506
1794.3	0.00627
1803.95	0.00726
1813.6	0.00549
1823.24	0.00377
1832.89	0.003175
1842.54	0.0029152
1852.18	0.0028597
1861.83	0.0028761
1871.47	0.0030447
1881.12	0.00352
1890.77	0.0043
1900.41	0.00519
1910.06	0.00574
1919.71	0.00581
1929.35	0.00452
1939	0.00388
1948.65	0.00449
1958.29	0.00483
1967.94	0.00424
1977.59	0.0026862
1987.23	0.002052
1996.88	0.001874
2006.53	0.00179
2016.17	0.00185
2025.82	0.001975
2035.47	0.002057
2045.11	0.002009
2054.76	0.001984
2064.41	0.001971
2074.05	0.00198
2083.7	0.001874
2093.35	0.001691
2102.99	0.001693
2112.64	0.001587
2122.28	0.001532
2131.93	0.001502
2141.58	0.001533
2151.22	0.001604
2160.87	0.001642
2170.52	0.001702
2180.16	0.001719
2189.81	0.001739
2199.46	0.001718
2209.1	0.001733
2218.75	0.00177
2228.4	0.001793
2238.04	0.001826
2247.69	0.001878
2257.34	0.001819
2266.98	0.001827
2276.63	0.001928
2286.28	0.002042
2295.92	0.002104
2305.57	0.002252
2315.22	0.0025091
2324.86	0.002234
2334.51	0.002237
2344.16	0.002227
2353.8	0.00199
2363.45	0.001875
2373.09	0.001884
2382.74	0.00203
2392.39	0.002094
2402.03	0.00238
2411.68	0.0028753
2421.33	0.0026838
2430.97	0.002193
2440.62	0.002014
2450.27	0.001793
2459.91	0.001763
2469.56	0.001718
2479.21	0.001634
2488.85	0.001644
2498.5	0.001661
2508.15	0.001772
2517.79	0.001943
2527.44	0.002045
2537.09	0.002058
2546.73	0.001988
2556.38	0.001961
2566.03	0.002064
2575.67	0.002065
2585.32	0.002164
2594.96	0.002258
2604.61	0.002127
2614.26	0.002055
2623.9	0.0023327
2633.55	0.0023313
2643.2	0.002097
2652.84	0.001852
2662.49	0.00166
2672.14	0.001518
2681.78	0.001646
2691.43	0.001701
2701.08	0.001668
2710.72	0.001703
2720.37	0.00187
2730.02	0.002127
2739.66	0.0026362
2749.31	0.0028963
2758.96	0.0026434
2768.6	0.0026443
2778.25	0.0026758
2787.9	0.0026834
2797.54	0.0028694
2807.19	0.00297
2816.84	0.0033291
2826.48	0.00398
2836.13	0.00503
2845.77	0.00649
2855.42	0.0089
2865.07	0.01394
2874.71	0.01891
2884.36	0.02276
2894.01	0.0221
2903.65	0.01989
2913.3	0.02022
2922.95	0.02039
2932.59	0.02748
2942.24	0.0392
2951.89	0.03525
2961.53	0.03246
2971.18	0.06409
2980.83	0.06373
2990.47	0.02556
3000.12	0.01896
3009.77	0.01663
3019.41	0.01965
3029.06	0.03331
3038.71	0.03337
3048.35	0.02381
3058	0.02752
3067.64	0.04351
3077.29	0.03909
3086.94	0.03169
3096.58	0.01991
3106.23	0.01105
3115.88	0.00648
3125.52	0.00446
3135.17	0.0032622
3144.82	0.0026168
3154.46	0.0025925
3164.11	0.00225
3173.76	0.00131
3183.4	0.0011
3193.05	0.00107
3202.7	0.0007
3212.34	0.0008
3221.99	0.0005
3231.64	0.00035
3241.28	0.00032
3250.93	0.00021
3260.58	0.00053
3270.22	0.00035
3279.87	0.00046
3289.52	0.00055
3299.16	0.00049
3308.81	0.00065
3318.45	0.00081
3328.1	0.001967
3337.75	0.0028189
3347.39	0.002074
3357.04	0.00115
3366.69	0.00054
3376.33	0.0004
3385.98	0.00056
3395.63	0.00019
3405.27	0.00019
3414.92	0.00014
3424.57	0.00021
3434.21	0.00029
3443.86	0.00012
3453.51	0.0001
3463.15	0.00012
3472.8	0.00024
3482.45	0.00017
3492.09	0.0002
3501.74	0.00017
3511.39	0.00021
3521.03	0.00027
3530.68	0.00038
3540.33	0.00034
3549.97	0.00036
3559.62	0.00033
3569.26	0.0003
3578.91	0.00051
3588.56	0.00043
3598.2	0.00049
3607.85	0.0005
3617.5	0.00063
3627.14	0.0007
3636.79	0.0009
3646.44	0.00094
3656.08	0.00105
3665.73	0.00127
3675.38	0.00099
3685.02	0.00105
3694.67	0.00115
3704.32	0.00117
3713.96	0.00116
3723.61	0.00118
3733.26	0.00108
3742.9	0.00104
3752.55	0.00118
3762.2	0.00112
3771.84	0.00097
3781.49	0.00105
3791.13	0.00104
3800.78	0.00093
3810.43	0.00098
3820.07	0.00095
3829.72	0.00109
3839.37	0.00117
3849.01	0.0011
3858.66	0.00101
3868.31	0.00115
3877.95	0.00115
3887.6	0.00108
3897.25	0.00099
3906.89	0.00112
3916.54	0.00119
3926.19	0.00127
3935.83	0.00139
3945.48	0.00139
3955.13	0.00137
3964.77	0.00128
3974.42	0.001457
3984.07	0.001656
3993.71	0.001726
