Infrared Spectrum: 1,2-PROPANEDIAMINE, N,N,N',N'-TETRAMETHYL-
Formula: C7 H18 N2
CAS: 1822-45-3
State: LIQUID (NEAT)
Class: COBLENTZ III
Instrument: BAIRD (GRATING)
Instrument parameters: NaCl PRISM
Sampling: TRANSMISSION
Path length: 0.003 CM
Resolution: 2
Origin: WYANDOTTE CHEMICALS CORP.
1/CM	TRANSMITTANCE
4000	0.892
3991	0.8941
3982	0.8966
3973	0.9004
3964	0.9051
3955	0.9095
3946	0.9128
3937	0.9162
3928	0.9192
3919	0.9218
3910	0.9242
3901	0.9249
3892	0.9254
3883	0.9257
3874	0.9255
3865	0.9254
3856	0.925
3847	0.9243
3838	0.9236
3829	0.9228
3820	0.9225
3811	0.9224
3802	0.922
3793	0.9227
3784	0.9238
3775	0.929
3766	0.935
3757	0.9405
3748	0.9467
3739	0.9514
3730	0.9547
3721	0.9564
3712	0.9577
3703	0.9562
3694	0.9543
3685	0.9525
3676	0.9517
3667	0.9512
3658	0.9508
3649	0.9503
3640	0.95
3631	0.95
3622	0.95
3613	0.9501
3604	0.9502
3595	0.9505
3586	0.9508
3577	0.9509
3568	0.9507
3559	0.9496
3550	0.9463
3541	0.9409
3532	0.9334
3523	0.9232
3514	0.9165
3505	0.9143
3496	0.9161
3487	0.9199
3478	0.9239
3469	0.9262
3460	0.9263
3451	0.9262
3442	0.9249
3433	0.9221
3424	0.9174
3415	0.913
3406	0.9118
3397	0.9107
3388	0.9095
3379	0.9082
3370	0.9068
3361	0.9048
3352	0.902
3343	0.8994
3334	0.898
3325	0.8966
3316	0.8956
3307	0.8945
3298	0.8934
3289	0.892
3280	0.8906
3271	0.889
3262	0.8875
3253	0.8852
3244	0.8854
3235	0.8864
3226	0.8865
3217	0.8853
3208	0.8841
3199	0.8836
3190	0.88
3181	0.8744
3172	0.8661
3163	0.8583
3154	0.8513
3145	0.8459
3136	0.843
3127	0.8418
3118	0.8427
3109	0.8437
3100	0.8448
3091	0.8458
3082	0.845
3073	0.8438
3064	0.8407
3055	0.8352
3046	0.8291
3037	0.8071
3028	0.7757
3019	0.7536
3010	0.7244
3001	0.7025
2992	0.6795
2983	0.6496
2974	0.6224
2965	0.5032
2956	0.3804
2947	0.2567
2938	0.1323
2929	0.0302
2920	0.0255
2911	0.0229
2902	0.0226
2893	0.0233
2884	0.0265
2875	0.0322
2866	0.041
2857	0.0506
2848	0.0604
2839	0.0715
2830	0.0775
2821	0.0731
2812	0.0628
2803	0.0588
2794	0.0611
2785	0.0647
2776	0.0667
2767	0.0433
2758	0.0385
2749	0.0364
2740	0.0344
2731	0.0328
2722	0.0318
2713	0.0353
2704	0.0869
2695	0.1442
2686	0.2193
2677	0.3255
2668	0.4325
2659	0.5402
2650	0.6203
2641	0.689
2632	0.7315
2623	0.7357
2614	0.7455
2605	0.7717
2596	0.7965
2587	0.8045
2578	0.8082
2569	0.8092
2560	0.8085
2551	0.8081
2542	0.8107
2533	0.8236
2524	0.8389
2515	0.8483
2506	0.8542
2497	0.8591
2488	0.8614
2479	0.8581
2470	0.8535
2461	0.8475
2452	0.8383
2443	0.8308
2434	0.8543
2425	0.876
2416	0.8912
2407	0.8964
2398	0.8949
2389	0.8905
2380	0.887
2371	0.8858
2362	0.8927
2353	0.9028
2344	0.9135
2335	0.9228
2326	0.9292
2317	0.9325
2308	0.9321
2299	0.9297
2290	0.9281
2281	0.9271
2272	0.9271
2263	0.9281
2254	0.9289
2245	0.9289
2236	0.9282
2227	0.927
2218	0.9239
2209	0.9197
2200	0.9194
2191	0.9227
2182	0.9264
2173	0.9274
2164	0.9266
2155	0.9242
2146	0.9194
2137	0.9173
2128	0.9306
2119	0.9366
2110	0.9262
2101	0.919
2092	0.9205
2083	0.9275
2074	0.9268
2065	0.9223
2056	0.9195
2047	0.9188
2038	0.9184
2029	0.9189
2020	0.9213
2011	0.9227
2002	0.9215
1993	0.9236
1984	0.9224
1975	0.9162
1966	0.9201
1957	0.9274
1948	0.935
1939	0.9385
1930	0.9415
1921	0.9403
1912	0.9355
1903	0.9309
1894	0.9336
1885	0.9368
1876	0.9328
1867	0.9161
1858	0.9147
1849	0.9266
1840	0.9332
1831	0.9357
1822	0.936
1813	0.911
1804	0.8914
1795	0.9191
1786	0.931
1777	0.9331
1768	0.9338
1759	0.9334
1750	0.9321
1741	0.93
1732	0.9238
1723	0.916
1714	0.9175
1705	0.904
1696	0.8977
1687	0.8838
1678	0.8861
1669	0.8895
1660	0.8917
1651	0.8925
1642	0.8932
1633	0.8936
1624	0.8936
1615	0.893
1606	0.8921
1597	0.8917
1588	0.8911
1579	0.8892
1570	0.8855
1561	0.8767
1552	0.8528
1543	0.8483
1534	0.8282
1525	0.8225
1516	0.783
1507	0.7244
1498	0.6621
1489	0.5062
1480	0.3013
1471	0.0625
1462	0.0496
1453	0.0588
1444	0.11
1435	0.277
1426	0.531
1417	0.6719
1408	0.6565
1399	0.6455
1390	0.6512
1381	0.3878
1372	0.3921
1363	0.3039
1354	0.5067
1345	0.5551
1336	0.6262
1327	0.6494
1318	0.5119
1309	0.4866
1300	0.3998
1291	0.4197
1282	0.4158
1273	0.2448
1264	0.1382
1255	0.4507
1246	0.7112
1237	0.7651
1228	0.7339
1219	0.6307
1210	0.7094
1201	0.7328
1192	0.6293
1183	0.5279
1174	0.3876
1165	0.2206
1156	0.1507
1147	0.2795
1138	0.4665
1129	0.3528
1120	0.4305
1111	0.334
1102	0.2613
1093	0.2854
1084	0.4934
1075	0.5157
1066	0.2945
1057	0.135
1048	0.0942
1039	0.05
1030	0.1438
1021	0.529
1012	0.7034
1003	0.7508
994	0.7767
985	0.6107
976	0.329
967	0.4628
958	0.6198
949	0.8167
940	0.8544
931	0.8552
922	0.8347
913	0.7796
904	0.7936
895	0.8134
886	0.761
877	0.7155
868	0.7355
859	0.7161
850	0.2679
841	0.3384
832	0.5676
823	0.7847
814	0.8546
805	0.8732
796	0.8523
787	0.6634
778	0.5747
769	0.7717
760	0.8151
751	0.7936
742	0.7451
733	0.8381
724	0.8734
715	0.8798
706	0.8741
697	0.8718
688	0.8468
679	0.819
670	0.7688
661	0.6123
652	0.7101
643	0.7051
634	0.6745
