Infrared Spectrum: THIOSULFURIC ACID, S-2-PIPERIDYLMETHYL ESTER
Formula: C6 H13 N O3 S2
CAS: 1822-62-4
State: SOLID (1 mg / 650 mg KBr DISC)
Class: COBLENTZ III
Instrument: PERKIN-ELMER 221 (GRATING)
Instrument parameters: FILTER AT 980 CM^-^1. GRATING 4000-1428 CM^-^1, NaCl PRISM 1428-650 CM^-^1
Sampling: TRANSMISSION
Resolution: 2
Origin: SOUTHERN RESEARCH INSTITUTE
1/CM	TRANSMITTANCE
626.784	0.1985
635.822	0.3633
644.86	0.5708
653.898	0.734
662.936	0.7998
671.974	0.8497
681.013	0.883
690.051	0.8869
699.089	0.8878
708.127	0.8823
717.165	0.8687
726.203	0.7738
735.241	0.8851
744.279	0.8889
753.317	0.8805
762.355	0.8444
771.393	0.8873
780.432	0.8849
789.47	0.8771
798.508	0.8559
807.546	0.8329
816.584	0.8734
825.622	0.8396
834.66	0.8374
843.698	0.8114
852.736	0.87
861.774	0.8603
870.812	0.8583
879.851	0.8521
888.889	0.8301
897.927	0.7313
906.965	0.729
916.003	0.7778
925.041	0.7693
934.079	0.7901
943.117	0.7779
952.155	0.7365
961.193	0.6667
970.231	0.5923
979.27	0.7765
988.308	0.6846
997.346	0.6205
1006.38	0.4859
1015.42	0.2969
1024.46	0.1085
1033.5	0.3238
1042.54	0.5635
1051.57	0.7425
1060.61	0.7562
1069.65	0.6708
1078.69	0.7151
1087.73	0.7483
1096.76	0.7405
1105.8	0.7146
1114.84	0.6501
1123.88	0.6462
1132.92	0.6122
1141.96	0.5546
1150.99	0.4996
1160.03	0.4009
1169.07	0.2852
1178.11	0.1906
1187.15	0.2151
1196.18	0.176
1205.22	0.2884
1214.26	0.3556
1223.3	0.2611
1232.34	0.1498
1241.37	0.2539
1250.41	0.3836
1259.45	0.4335
1268.49	0.5423
1277.53	0.6048
1286.56	0.5753
1295.6	0.5248
1304.64	0.681
1313.68	0.7532
1322.72	0.6498
1331.76	0.752
1340.79	0.8101
1349.83	0.8143
1358.87	0.8138
1367.91	0.7828
1376.95	0.6927
1385.98	0.6317
1395.02	0.6557
1404.06	0.647
1413.1	0.4701
1422.14	0.7033
1431.17	0.6259
1440.21	0.636
1449.25	0.4494
1458.29	0.6212
1467.33	0.6855
1476.36	0.7944
1485.4	0.8263
1494.44	0.8379
1503.48	0.8442
1512.52	0.8465
1521.56	0.8481
1530.59	0.8454
1539.63	0.8421
1548.67	0.8353
1557.71	0.8288
1566.75	0.8257
1575.78	0.8113
1584.82	0.7872
1593.86	0.7289
1602.9	0.5795
1611.94	0.5138
1620.97	0.7405
1630.01	0.7785
1639.05	0.8044
1648.09	0.8238
1657.13	0.8391
1666.16	0.8502
1675.2	0.8576
1684.24	0.8635
1693.28	0.8698
1702.32	0.8744
1711.36	0.8781
1720.39	0.8802
1729.43	0.8808
1738.47	0.8813
1747.51	0.8819
1756.55	0.8825
1765.58	0.883
1774.62	0.8834
1783.66	0.8838
1792.7	0.8835
1801.74	0.886
1810.77	0.8829
1819.81	0.8825
1828.85	0.882
1837.89	0.8811
1846.93	0.8804
1855.96	0.88
1865	0.8796
1874.04	0.8793
1883.08	0.88
1892.12	0.8811
1901.15	0.882
1910.19	0.8835
1919.23	0.8882
1928.27	0.8824
1937.31	0.8796
1946.35	0.8791
1955.38	0.8792
1964.42	0.8796
1973.46	0.8797
1982.5	0.8787
1991.54	0.8777
2000.57	0.8763
2009.61	0.875
2018.65	0.8744
2027.69	0.8729
2036.73	0.8696
2045.76	0.8628
2054.8	0.8568
2063.84	0.8565
2072.88	0.856
2081.92	0.8667
2090.95	0.8726
2099.99	0.8738
2109.03	0.8729
2118.07	0.8713
2127.11	0.8697
2136.15	0.8681
2145.18	0.8665
2154.22	0.8649
2163.26	0.8612
2172.3	0.8595
2181.34	0.8619
2190.37	0.8618
2199.41	0.8559
2208.45	0.8527
2217.49	0.8526
2226.53	0.8562
2235.56	0.8539
2244.6	0.8511
2253.64	0.8511
2262.68	0.8549
2271.72	0.8586
2280.75	0.859
2289.79	0.8586
2298.83	0.8576
2307.87	0.8562
2316.91	0.8545
2325.95	0.8522
2334.98	0.846
2344.02	0.8373
2353.06	0.8318
2362.1	0.8285
2371.14	0.8253
2380.17	0.8221
2389.21	0.8189
2398.25	0.8132
2407.29	0.8037
2416.33	0.7973
2425.36	0.7995
2434.4	0.7952
2443.44	0.807
2452.48	0.8163
2461.52	0.8156
2470.55	0.8127
2479.59	0.8045
2488.63	0.7905
2497.67	0.7858
2506.71	0.7653
2515.75	0.7553
2524.78	0.765
2533.82	0.7686
2542.86	0.7698
2551.9	0.7704
2560.94	0.7658
2569.97	0.7628
2579.01	0.7655
2588.05	0.7727
2597.09	0.7755
2606.13	0.7757
2615.16	0.7667
2624.2	0.7563
2633.24	0.7469
2642.28	0.7402
2651.32	0.7357
2660.35	0.7318
2669.39	0.727
2678.43	0.7213
2687.47	0.707
2696.51	0.6917
2705.55	0.675
2714.58	0.662
2723.62	0.6429
2732.66	0.6393
2741.7	0.639
2750.74	0.6408
2759.77	0.6365
2768.81	0.6166
2777.85	0.5766
2786.89	0.5321
2795.93	0.5037
2804.96	0.4972
2814	0.4963
2823.04	0.4964
2832.08	0.496
2841.12	0.4944
2850.15	0.49
2859.19	0.4878
2868.23	0.5187
2877.27	0.5699
2886.31	0.5877
2895.35	0.5805
2904.38	0.5524
2913.42	0.5156
2922.46	0.4865
2931.5	0.4853
2940.54	0.4974
2949.57	0.4789
2958.61	0.4549
2967.65	0.4638
2976.69	0.46
2985.73	0.4468
2994.76	0.437
3003.8	0.4332
3012.84	0.4345
3021.88	0.4419
3030.92	0.4542
3039.95	0.4737
3048.99	0.49
3058.03	0.4954
3067.07	0.4988
3076.11	0.4976
3085.14	0.4962
3094.18	0.4947
3103.22	0.4918
3112.26	0.4903
3121.3	0.491
3130.34	0.4942
3139.37	0.5089
3148.41	0.5419
3157.45	0.579
3166.49	0.6037
3175.53	0.6302
3184.56	0.6615
3193.6	0.6776
3202.64	0.684
3211.68	0.6861
3220.72	0.6908
3229.75	0.7234
3238.79	0.7551
3247.83	0.7786
3256.87	0.7972
3265.91	0.8021
3274.94	0.8027
3283.98	0.8026
3293.02	0.8017
3302.06	0.8003
3311.1	0.7976
3320.14	0.7943
3329.17	0.7894
3338.21	0.782
3347.25	0.7737
3356.29	0.7629
3365.33	0.7528
3374.36	0.7444
3383.4	0.7421
3392.44	0.7418
3401.48	0.7428
3410.52	0.7442
3419.55	0.7469
3428.59	0.7493
3437.63	0.7518
3446.67	0.7543
3455.71	0.7568
3464.74	0.7592
3473.78	0.7615
3482.82	0.7639
3491.86	0.7665
3500.9	0.7696
3509.94	0.7732
3518.97	0.7778
3528.01	0.7811
3537.05	0.7832
3546.09	0.785
3555.13	0.7898
3564.16	0.7968
3573.2	0.8057
3582.24	0.8118
3591.28	0.8271
3600.32	0.8323
3609.35	0.8357
3618.39	0.8429
3627.43	0.8531
3636.47	0.8583
3645.51	0.8619
3654.54	0.8643
3663.58	0.8661
3672.62	0.8668
3681.66	0.867
3690.7	0.8673
3699.74	0.8676
3708.77	0.8678
3717.81	0.868
3726.85	0.8681
3735.89	0.8683
3744.93	0.8683
3753.96	0.8681
3763	0.8679
3772.04	0.8677
3781.08	0.8674
3790.12	0.8672
3799.15	0.867
3808.19	0.8668
3817.23	0.8669
3826.27	0.8671
3835.31	0.8679
3844.34	0.8674
3853.38	0.8676
3862.42	0.8677
3871.46	0.8678
3880.5	0.8678
3889.54	0.8675
3898.57	0.8665
3907.61	0.8655
3916.65	0.8646
3925.69	0.864
3934.73	0.8634
3943.76	0.8628
3952.8	0.8626
3961.84	0.8624
3970.88	0.8619
3979.92	0.8616
3988.95	0.8621
3997.99	0.8628
4007.03	0.8635
