Infrared Spectrum: 2-(2-Thiazolylazo)-p-cresol
Formula: C 10 H 9 N 3 O S
CAS: 1823-44-5
State: gas
Origin: EPA-IR VAPOR PHASE LIBRARY
1/CM	ABSORBANCE
549.8	0.00366
559.445	0.00591
569.09	0.0074
578.734	0.01705
588.379	0.01398
598.024	0.00761
607.669	0.00451
617.313	0.00595
626.958	0.01074
636.603	0.00865
646.248	0.00655
655.893	0.00858
665.537	0.01319
675.182	0.00859
684.827	0.00851
694.472	0.01136
704.116	0.01619
713.761	0.02912
723.406	0.0442
733.051	0.02295
742.695	0.01362
752.34	0.00939
761.985	0.00692
771.63	0.0063
781.275	0.01064
790.919	0.01252
800.564	0.00813
810.209	0.01227
819.854	0.02353
829.498	0.02135
839.143	0.01749
848.788	0.00886
858.433	0.00442
868.078	0.00522
877.722	0.01399
887.367	0.01048
897.012	0.00399
906.657	0.00278
916.301	0.00207
925.946	0.00219
935.591	0.00268
945.236	0.00406
954.88	0.00396
964.525	0.00275
974.17	0.00254
983.815	0.00225
993.46	0.00382
1003.1	0.00415
1012.75	0.00465
1022.39	0.00309
1032.04	0.00316
1041.68	0.00318
1051.33	0.00413
1060.97	0.00754
1070.62	0.00622
1080.26	0.00532
1089.91	0.00953
1099.55	0.00841
1109.2	0.01247
1118.84	0.01494
1128.49	0.03269
1138.13	0.05594
1147.78	0.04397
1157.42	0.04984
1167.07	0.02575
1176.71	0.02486
1186.36	0.02947
1196	0.04575
1205.64	0.06487
1215.29	0.06276
1224.93	0.03347
1234.58	0.03314
1244.22	0.03846
1253.87	0.02981
1263.51	0.02774
1273.16	0.04542
1282.8	0.06445
1292.45	0.03584
1302.09	0.01566
1311.74	0.01295
1321.38	0.01209
1331.03	0.01051
1340.67	0.01344
1350.32	0.01562
1359.96	0.01474
1369.61	0.01375
1379.25	0.0147
1388.9	0.01507
1398.54	0.01558
1408.18	0.02466
1417.83	0.04143
1427.47	0.04728
1437.12	0.04079
1446.76	0.03577
1456.41	0.02594
1466.05	0.01885
1475.7	0.02352
1485.34	0.04906
1494.99	0.07958
1504.63	0.0638
1514.28	0.02455
1523.92	0.0121
1533.57	0.0087
1543.21	0.00756
1552.86	0.00835
1562.5	0.01248
1572.15	0.02589
1581.79	0.04009
1591.44	0.02566
1601.08	0.01616
1610.73	0.01558
1620.37	0.01733
1630.01	0.01384
1639.66	0.00833
1649.3	0.00504
1658.95	0.00323
1668.59	0.00305
1678.24	0.00245
1687.88	0.00243
1697.53	0.00284
1707.17	0.00235
1716.82	0.00218
1726.46	0.0022
1736.11	0.00193
1745.75	0.00273
1755.4	0.00448
1765.04	0.00772
1774.69	0.00456
1784.33	0.00222
1793.98	0.00193
1803.62	0.00202
1813.27	0.00176
1822.91	0.00217
1832.55	0.00282
1842.2	0.00224
1851.84	0.00185
1861.49	0.00163
1871.13	0.00185
1880.78	0.00182
1890.42	0.0028
1900.07	0.00432
1909.71	0.00259
1919.36	0.0016
1929	0.00165
1938.65	0.00157
1948.29	0.00152
1957.94	0.00172
1967.58	0.00158
1977.23	0.00159
1986.87	0.00145
1996.52	0.00158
2006.16	0.00172
2015.81	0.00158
2025.45	0.00186
2035.1	0.00121
2044.74	0.00142
2054.38	0.00126
2064.03	0.0011039
2073.67	0.00163
2083.32	0.00135
2092.96	0.00119
2102.61	0.00124
2112.25	0.00121
2121.9	0.00123
2131.54	0.00135
2141.19	0.00119
2150.83	0.00119
2160.48	0.00092
2170.12	0.0010148
2179.77	0.0010075
2189.41	0.00123
2199.06	0.00146
2208.7	0.00146
2218.35	0.00154
2227.99	0.00153
2237.64	0.00142
2247.28	0.00192
2256.92	0.00214
2266.57	0.00207
2276.21	0.00173
2285.86	0.00161
2295.5	0.00142
2305.15	0.00116
2314.79	0.00137
2324.44	0.00167
2334.08	0.00121
2343.73	0.00152
2353.37	0.00225
2363.02	0.00199
2372.66	0.00211
2382.31	0.00201
2391.95	0.00223
2401.6	0.00216
2411.24	0.0019
2420.89	0.00214
2430.53	0.00182
2440.18	0.00218
2449.82	0.00216
2459.47	0.00215
2469.11	0.00183
2478.75	0.00239
2488.4	0.00203
2498.04	0.00254
2507.69	0.00294
2517.33	0.00349
2526.98	0.00389
2536.62	0.00387
2546.27	0.00334
2555.91	0.00284
2565.56	0.00269
2575.2	0.00302
2584.85	0.00266
2594.49	0.0027
2604.14	0.00274
2613.78	0.00284
2623.43	0.00336
2633.07	0.00369
2642.72	0.0036
2652.36	0.00314
2662.01	0.00302
2671.65	0.00275
2681.29	0.00227
2690.94	0.00283
2700.58	0.0036
2710.23	0.00316
2719.87	0.00279
2729.52	0.00287
2739.16	0.00352
2748.81	0.00406
2758.45	0.00396
2768.1	0.00421
2777.74	0.00329
2787.39	0.00351
2797.03	0.00304
2806.68	0.00276
2816.32	0.00262
2825.97	0.00323
2835.61	0.00307
2845.26	0.00367
2854.9	0.00443
2864.55	0.00699
2874.19	0.01016
2883.84	0.01021
2893.48	0.00883
2903.12	0.00812
2912.77	0.00895
2922.41	0.01324
2932.06	0.01985
2941.7	0.01587
2951.35	0.0089
2960.99	0.00733
2970.64	0.00655
2980.28	0.00699
2989.93	0.00643
2999.57	0.00715
3009.22	0.00791
3018.86	0.00924
3028.51	0.01322
3038.15	0.01409
3047.8	0.01038
3057.44	0.00908
3067.09	0.01028
3076.73	0.00973
3086.38	0.00841
3096.02	0.01427
3105.67	0.00727
3115.31	0.00572
3124.95	0.00574
3134.6	0.00502
3144.24	0.00529
3153.89	0.00462
3163.53	0.00475
3173.18	0.00487
3182.82	0.00514
3192.47	0.00511
3202.11	0.00536
3211.76	0.00591
3221.4	0.00535
3231.05	0.00561
3240.69	0.00536
3250.34	0.00504
3259.98	0.00523
3269.63	0.00453
3279.27	0.00526
3288.92	0.0051
3298.56	0.00418
3308.21	0.00491
3317.85	0.00467
3327.49	0.00347
3337.14	0.00393
3346.78	0.00405
3356.43	0.00323
3366.07	0.0035
3375.72	0.00334
3385.36	0.00322
3395.01	0.00263
3404.65	0.00316
3414.3	0.00353
3423.94	0.0024
3433.59	0.00239
3443.23	0.00286
3452.88	0.00231
3462.52	0.00248
3472.17	0.00282
3481.81	0.00243
3491.46	0.00292
3501.1	0.00246
3510.75	0.0044
3520.39	0.0075
3530.04	0.00423
3539.68	0.00367
3549.32	0.00321
3558.97	0.00218
3568.61	0.00193
3578.26	0.00189
3587.9	0.00138
3597.55	0.00124
3607.19	0.00122
3616.84	0.00174
3626.48	0.000692
3636.13	0.0007871
3645.77	0.00119
3655.42	0.00132
3665.06	0.0008597
3674.71	0.0007728
3684.35	0.00114
3694	0.0010538
3703.64	0.0013
3713.29	0.00154
3722.93	0.0004208
3732.58	0.0007326
3742.22	0.0006942
3751.86	0.0009254
3761.51	0.0009767
3771.15	0.0010667
3780.8	0.00136
3790.44	0.0010034
3800.09	0.00142
3809.73	0.0006115
3819.38	0.0004546
3829.02	0.00126
3838.67	0.0008405
3848.31	0.00149
3857.96	0.000751
3867.6	0.0008791
3877.25	0.00153
3886.89	0.0008835
3896.54	0.0006673
3906.18	0.00131
3915.83	0.00147
3925.47	0.00134
3935.12	0.00134
3944.76	0.0004785
3954.41	0.0008943
3964.05	0.0006149
3973.69	0.00175
3983.34	0.00133
3992.98	0.0021
