Infrared Spectrum: Silane, dichloro(isopropyl)methyl-
Formula: C4 H10 Cl2 Si
CAS: 18236-89-0
State: SOLUTION (10% CCl4 FOR 3800-1300, 2% CS2 FOR 1300-600, AND 10% CCl4 FOR 600-250)
Boiling point: 125 C
Class: COBLENTZ III
Instrument: PERKIN-ELMER 521 (GRATING)
Instrument parameters: FILTERS AT 3150, 2500, 2000, 1150, 700, 410. GRATING CHANGES: 2000, 630
Path length: 0.012 CM, 0.011 CM, AND 0.011 CM
Resolution: 2
Origin: DOW CORNING CORP.
1/CM	TRANSMITTANCE
256	0.7894
265	0.8037
274	0.8231
283	0.8286
292	0.8407
301	0.8486
310	0.8527
319	0.8591
328	0.851
337	0.7311
346	0.7733
355	0.8799
364	0.8867
373	0.8887
382	0.8906
391	0.8906
400	0.8878
409	0.8693
418	0.8502
427	0.8508
436	0.8794
445	0.8694
454	0.8336
463	0.4458
472	0.4655
481	0.5699
490	0.485
499	0.8077
508	0.8265
517	0.8012
526	0.7213
535	0.5243
544	0.1203
553	0.0032
562	0.399
571	0.7242
580	0.8115
589	0.8196
598	0.822
607	0.8013
616	0.7739
625	0.7468
634	0.5909
643	0.6368
652	0.8258
661	0.8543
670	0.8644
679	0.8456
688	0.8585
697	0.866
706	0.8676
715	0.8622
724	0.8402
733	0.7587
742	0.5552
751	0.6624
760	0.7455
769	0.7935
778	0.7457
787	0.3961
796	0.4395
805	0.5769
814	0.8498
823	0.8638
832	0.8753
841	0.8794
850	0.8794
859	0.8793
868	0.8717
877	0.7735
886	0.7755
895	0.9002
904	0.9035
913	0.8908
922	0.8685
931	0.9047
940	0.9092
949	0.9112
958	0.9143
967	0.9124
976	0.913
985	0.9067
994	0.8544
1003	0.8168
1012	0.9158
1021	0.9389
1030	0.9391
1039	0.9364
1048	0.9307
1057	0.9216
1066	0.9002
1075	0.9152
1084	0.9338
1093	0.9362
1102	0.9353
1111	0.9404
1120	0.9425
1129	0.943
1138	0.9437
1147	0.9462
1156	0.939
1165	0.9372
1174	0.9354
1183	0.9311
1192	0.929
1201	0.9251
1210	0.9243
1219	0.9214
1228	0.903
1237	0.883
1246	0.8702
1255	0.6547
1264	0.8748
1273	0.8966
1282	0.904
1291	0.9106
1300	0.888
1309	0.8642
1318	0.864
1327	0.8622
1336	0.858
1345	0.8541
1354	0.851
1363	0.8082
1372	0.7838
1381	0.7703
1390	0.6132
1399	0.6309
1408	0.7208
1417	0.773
1426	0.7851
1435	0.7862
1444	0.7504
1453	0.6039
1462	0.3002
1471	0.4476
1480	0.7827
1489	0.8331
1498	0.8503
1507	0.8617
1516	0.8706
1525	0.8775
1534	0.8877
1543	0.8897
1552	0.8895
1561	0.8883
1570	0.8874
1579	0.8881
1588	0.8854
1597	0.8802
1606	0.8746
1615	0.8728
1624	0.8732
1633	0.8733
1642	0.8727
1651	0.8734
1660	0.8745
1669	0.8762
1678	0.878
1687	0.8795
1696	0.8807
1705	0.882
1714	0.8831
1723	0.8847
1732	0.8865
1741	0.887
1750	0.8869
1759	0.8867
1768	0.8864
1777	0.8861
1786	0.8858
1795	0.8863
1804	0.8886
1813	0.8906
1822	0.8912
1831	0.892
1840	0.8914
1849	0.8887
1858	0.8861
1867	0.8853
1876	0.8848
1885	0.8853
1894	0.8866
1903	0.8889
1912	0.8898
1921	0.8888
1930	0.8876
1939	0.8883
1948	0.8913
1957	0.8918
1966	0.8901
1975	0.8896
1984	0.8833
1993	0.8662
2002	0.8198
2011	0.8915
2020	0.8928
2029	0.8917
2038	0.8901
2047	0.8895
2056	0.8892
2065	0.8887
2074	0.8886
2083	0.8883
2092	0.8877
2101	0.8876
2110	0.8876
2119	0.889
2128	0.8895
2137	0.8892
2146	0.889
2155	0.889
2164	0.8889
2173	0.8889
2182	0.8887
2191	0.8885
2200	0.8882
2209	0.8878
2218	0.8875
2227	0.8869
2236	0.8858
2245	0.8848
2254	0.8857
2263	0.8886
2272	0.8904
2281	0.8904
2290	0.8905
2299	0.8906
2308	0.8906
2317	0.8907
2326	0.8908
2335	0.8905
2344	0.8901
2353	0.8886
2362	0.8871
2371	0.886
2380	0.8849
2389	0.8845
2398	0.8848
2407	0.8847
2416	0.8844
2425	0.8837
2434	0.8829
2443	0.8821
2452	0.8812
2461	0.8803
2470	0.8794
2479	0.8769
2488	0.8749
2497	0.8736
2506	0.8737
2515	0.874
2524	0.8744
2533	0.8751
2542	0.8763
2551	0.8769
2560	0.8773
2569	0.8772
2578	0.8765
2587	0.8758
2596	0.874
2605	0.8723
2614	0.8713
2623	0.8705
2632	0.8711
2641	0.8715
2650	0.872
2659	0.872
2668	0.8716
2677	0.8706
2686	0.8693
2695	0.8666
2704	0.8637
2713	0.8592
2722	0.851
2731	0.8433
2740	0.8394
2749	0.8558
2758	0.8573
2767	0.8529
2776	0.8508
2785	0.85
2794	0.8489
2803	0.8447
2812	0.8221
2821	0.8117
2830	0.8064
2839	0.7926
2848	0.7395
2857	0.6829
2866	0.5529
2875	0.2348
2884	0.396
2893	0.5551
2902	0.4844
2911	0.5208
2920	0.556
2929	0.4081
2938	0.3027
2947	0.3538
2956	0.1235
2965	0.1497
2974	0.2261
2983	0.4709
2992	0.7418
3001	0.7911
3010	0.8267
3019	0.8411
3028	0.8482
3037	0.8546
3046	0.8606
3055	0.8654
3064	0.8678
3073	0.869
3082	0.8696
3091	0.8699
3100	0.8709
3109	0.872
3118	0.876
3127	0.8894
3136	0.883
3145	0.876
3154	0.876
3163	0.8773
3172	0.8788
3181	0.8802
3190	0.8816
3199	0.883
3208	0.8862
3217	0.8901
3226	0.8945
3235	0.8974
3244	0.8992
3253	0.8983
3262	0.8977
3271	0.8974
3280	0.8971
3289	0.8968
3298	0.8964
3307	0.8959
3316	0.8956
3325	0.8949
3334	0.8943
3343	0.8937
3352	0.8931
3361	0.8924
3370	0.8918
3379	0.8912
3388	0.8906
3397	0.8902
3406	0.8901
3415	0.8901
3424	0.8901
3433	0.891
3442	0.8919
3451	0.8928
3460	0.8937
3469	0.8941
3478	0.8946
3487	0.895
3496	0.8955
3505	0.8961
3514	0.8967
3523	0.8973
3532	0.8976
3541	0.8975
3550	0.8975
3559	0.8974
3568	0.8975
3577	0.8976
3586	0.8977
3595	0.8983
3604	0.8991
3613	0.8993
3622	0.8994
3631	0.8993
3640	0.8981
3649	0.8958
3658	0.8932
3667	0.8906
3676	0.8871
3685	0.8791
3694	0.8761
3703	0.8791
3712	0.883
3721	0.888
3730	0.8921
3739	0.8954
3748	0.8973
3757	0.896
3766	0.8916
3775	0.8904
3784	0.8939
3793	0.8962
3802	0.8984
