Infrared Spectrum: BENZOPHENONE, 4'-CHLORO-2,4-DIHYDROXY-
Formula: C13 H9 Cl O3
CAS: 18239-10-6
State: SOLID (OIL MULL)
Class: COBLENTZ
Instrument: Not specified, most likely a prism, grating, or hybrid spectrometer.
Sampling: TRANSMISSION
Resolution: 4
Origin: TENNESSEE EASTMAN COMPANY, RESEARCH LABORATORIES
MICROMETERS	TRANSMITTANCE
2.027	0.542
2.06816	0.549
2.10933	0.561
2.15049	0.573
2.19165	0.583
2.23282	0.594
2.27398	0.594
2.31515	0.599
2.35631	0.607
2.39747	0.62
2.43864	0.626
2.4798	0.647
2.52096	0.661
2.56213	0.671
2.60329	0.689
2.64445	0.699
2.68562	0.713
2.72678	0.73
2.76795	0.744
2.80911	0.749
2.85027	0.747
2.89144	0.754
2.9326	0.754
2.97376	0.671
3.01493	0.557
3.05609	0.457
3.09726	0.473
3.13842	0.549
3.17958	0.585
3.22075	0.62
3.26191	0.63
3.30307	0.618
3.34424	0.485
3.3854	0.122
3.42656	0.084
3.46773	0.158
3.50889	0.264
3.55006	0.664
3.59122	0.72
3.63238	0.742
3.67355	0.742
3.71471	0.742
3.75587	0.742
3.79704	0.744
3.8382	0.754
3.87936	0.77
3.92053	0.775
3.96169	0.789
4.00286	0.804
4.04402	0.82
4.08518	0.829
4.12635	0.83
4.16751	0.834
4.20867	0.853
4.24984	0.868
4.291	0.886
4.33216	0.901
4.37333	0.903
4.41449	0.903
4.45566	0.905
4.49682	0.908
4.53798	0.911
4.57915	0.915
4.62031	0.922
4.66147	0.93
4.70264	0.932
4.7438	0.934
4.78496	0.937
4.82613	0.946
4.86729	0.948
4.90846	0.948
4.94962	0.953
4.99078	0.956
5.03195	0.956
5.07311	0.956
5.11427	0.958
5.15544	0.958
5.1966	0.958
5.23777	0.958
5.27893	0.958
5.32009	0.963
5.36126	0.97
5.40242	0.97
5.44358	0.974
5.48475	0.977
5.52591	0.979
5.56707	0.981
5.60824	0.986
5.6494	0.991
5.69057	0.991
5.73173	0.989
5.77289	0.991
5.81406	0.989
5.85522	0.991
5.89638	0.993
5.93755	0.991
5.97871	0.97
6.01987	0.924
6.06104	0.872
6.1022	0.68
6.14337	0.359
6.18453	0.397
6.22569	0.417
6.26686	0.331
6.30802	0.464
6.34918	0.64
6.39035	0.689
6.43151	0.756
6.47267	0.787
6.51384	0.778
6.555	0.716
6.59617	0.647
6.63733	0.658
6.67849	0.666
6.71966	0.594
6.76082	0.606
6.80198	0.462
6.84315	0.431
6.88431	0.409
6.92547	0.411
6.96664	0.668
7.0078	0.796
7.04897	0.81
7.09013	0.813
7.13129	0.711
7.17246	0.64
7.21362	0.53
7.25478	0.438
7.29595	0.455
7.33711	0.468
7.37828	0.464
7.41944	0.509
7.4606	0.452
7.50177	0.388
7.54293	0.566
7.58409	0.683
7.62526	0.754
7.66642	0.754
7.70758	0.613
7.74875	0.563
7.78991	0.459
7.83108	0.487
7.87224	0.547
7.9134	0.644
7.95457	0.651
7.99573	0.573
8.03689	0.416
8.07806	0.265
8.11922	0.253
8.16038	0.328
8.20155	0.442
8.24271	0.485
8.28388	0.431
8.32504	0.447
8.3662	0.521
8.40737	0.55
8.44853	0.607
8.48969	0.639
8.53086	0.626
8.57202	0.664
8.61318	0.721
8.65435	0.761
8.69551	0.794
8.73668	0.811
8.77784	0.834
8.819	0.853
8.86017	0.853
8.90133	0.792
8.94249	0.531
8.98366	0.549
9.02482	0.663
9.06598	0.723
9.10715	0.763
9.14831	0.716
9.18948	0.639
9.23064	0.713
9.2718	0.803
9.31297	0.841
9.35413	0.853
9.39529	0.858
9.43646	0.867
9.47762	0.877
9.51879	0.889
9.55995	0.894
9.60111	0.899
9.64228	0.901
9.68344	0.905
9.7246	0.906
9.76577	0.908
9.80693	0.861
9.84809	0.683
9.88926	0.801
9.93042	0.861
9.97159	0.886
10.0127	0.903
10.0539	0.901
10.0951	0.851
10.1362	0.732
10.1774	0.77
10.2186	0.818
10.2597	0.829
10.3009	0.842
10.3421	0.867
10.3832	0.875
10.4244	0.875
10.4655	0.873
10.5067	0.87
10.5479	0.873
10.589	0.887
10.6302	0.903
10.6714	0.903
10.7125	0.903
10.7537	0.872
10.7949	0.765
10.836	0.542
10.8772	0.518
10.9183	0.664
10.9595	0.791
11.0007	0.854
11.0418	0.873
11.083	0.899
11.1242	0.908
11.1653	0.908
11.2065	0.908
11.2477	0.908
11.2888	0.908
11.33	0.908
11.3711	0.908
11.4123	0.908
11.4535	0.908
11.4946	0.884
11.5358	0.775
11.577	0.683
11.6181	0.664
11.6593	0.701
11.7005	0.772
11.7416	0.806
11.7828	0.822
11.8239	0.796
11.8651	0.728
11.9063	0.694
11.9474	0.69
11.9886	0.67
12.0298	0.632
12.0709	0.62
12.1121	0.62
12.1533	0.625
12.1944	0.644
12.2356	0.673
12.2767	0.72
12.3179	0.749
12.3591	0.747
12.4002	0.734
12.4414	0.73
12.4826	0.734
12.5237	0.756
12.5649	0.789
12.6061	0.803
12.6472	0.811
12.6884	0.825
12.7296	0.832
12.7707	0.832
12.8119	0.818
12.853	0.784
12.8942	0.773
12.9354	0.775
12.9765	0.78
13.0177	0.794
13.0589	0.804
13.1	0.82
13.1412	0.823
13.1824	0.823
13.2235	0.823
13.2647	0.823
13.3058	0.827
13.347	0.825
13.3882	0.818
13.4293	0.811
13.4705	0.81
13.5117	0.81
13.5528	0.806
13.594	0.801
13.6352	0.794
13.6763	0.789
13.7175	0.778
13.7586	0.758
13.7998	0.734
13.841	0.708
13.8821	0.701
13.9233	0.704
13.9645	0.737
14.0056	0.77
14.0468	0.775
14.088	0.775
14.1291	0.775
14.1703	0.773
14.2114	0.772
14.2526	0.765
14.2938	0.756
14.3349	0.754
14.3761	0.749
14.4173	0.744
14.4584	0.734
14.4996	0.718
14.5408	0.699
14.5819	0.685
14.6231	0.683
14.6642	0.683
14.7054	0.687
14.7466	0.694
14.7877	0.702
14.8289	0.709
14.8701	0.713
14.9112	0.713
14.9524	0.715
14.9936	0.718
15.0347	0.734
15.0759	0.735
15.117	0.734
15.1582	0.732
15.1994	0.732
15.2405	0.728
15.2817	0.728
15.3229	0.727
15.364	0.727
15.4052	0.725
15.4464	0.716
15.4875	0.706
15.5287	0.689
15.5698	0.67
15.611	0.664
15.6522	0.663
15.6933	0.663
15.7345	0.664
15.7757	0.666
15.8168	0.67
15.858	0.67
15.8992	0.675
15.9403	0.677
15.9815	0.68
