Infrared Spectrum: 5-Phenyl-1-pentyne
Formula: C 11 H 12
CAS: 1823-14-9
State: gas
Instrument: HP-GC/MS/IRD
Origin: NIST Mass Spectrometry Data Center
1/CM	ABSORBANCE
550	0.0003696
562	0.0004473
574	0.0003801
586	0.0003717
598	0.0008841
610	0.0025956
622	0.0083559
634	0.021
646	0.0103404
658	0.0028917
670	0.0019173
682	0.0033201
694	0.0066948
706	0.0060585
718	0.0038682
730	0.0046809
742	0.0054579
754	0.0027762
766	0.0011151
778	0.0005565
790	0.0003927
802	0.0004305
814	0.00021
826	8.82e-05
838	0.0001701
850	0.0001134
862	1.05e-05
874	7.56e-05
886	0.0001302
898	0.000231
910	0.0003612
922	0.000168
934	0.0001176
946	9.87e-05
958	9.87e-05
970	0.0001785
982	0.0001932
994	0.0002583
1006	0.0004515
1018	0.0007266
1030	0.0011361
1042	0.0004956
1054	0.0003234
1066	0.0004095
1078	0.000525
1090	0.0003255
1102	0.0001617
1114	6.51e-05
1126	1.47e-05
1138	3.99e-05
1150	8.19e-05
1162	0.0001722
1174	0.0001743
1186	0.0001722
1198	0.0002646
1210	0.0004389
1222	0.0006237
1234	0.0019341
1246	0.0050316
1258	0.0038829
1270	0.0013629
1282	0.0007959
1294	0.000672
1306	0.0007245
1318	0.0010059
1330	0.0012096
1342	0.0012474
1354	0.0010479
1366	0.0005145
1378	0.0002961
1390	0.0001953
1402	0.0002331
1414	0.0003927
1426	0.0010143
1438	0.002541
1450	0.0030639
1462	0.002268
1474	0.0012138
1486	0.0018879
1498	0.0030744
1510	0.0010059
1522	0.0003213
1534	0.0002562
1546	0.0002205
1558	0.0002037
1570	0.0003654
1582	0.0006846
1594	0.0014427
1606	0.0016296
1618	0.0005124
1630	0.0001995
1642	0.0001617
1654	8.82e-05
1666	4.41e-05
1678	2.31e-05
1690	3.78e-05
1702	3.99e-05
1714	9.03e-05
1726	0.0001596
1738	0.0001701
1750	0.0001533
1762	0.0001071
1774	0.0001428
1786	0.0003444
1798	0.0004473
1810	0.0002457
1822	0.0001344
1834	9.87e-05
1846	0.0001407
1858	0.0002688
1870	0.0003402
1882	0.0002982
1894	0.0001176
1906	7.77e-05
1918	0.0001617
1930	0.0003171
1942	0.0004431
1954	0.0003696
1966	0.0001092
1978	3.15e-05
1990	2.31e-05
2002	1.05e-05
2014	1.68e-05
2026	3.15e-05
2038	3.36e-05
2050	3.36e-05
2062	5.67e-05
2074	8.4e-05
2086	0.0001638
2098	0.0004032
2110	0.0008484
2122	0.0009618
2134	0.0003906
2146	8.19e-05
2158	3.99e-05
2170	4.62e-05
2182	2.94e-05
2194	3.36e-05
2206	4.62e-05
2218	2.73e-05
2230	6.3e-06
2242	2.31e-05
2254	2.73e-05
2266	3.36e-05
2278	2.94e-05
2290	3.99e-05
2302	7.56e-05
2314	0.0001113
2326	9.66e-05
2338	8.82e-05
2350	7.35e-05
2362	7.14e-05
2374	5.04e-05
2386	5.88e-05
2398	4.62e-05
2410	7.77e-05
2422	5.46e-05
2434	4.62e-05
2446	6.93e-05
2458	4.41e-05
2470	6.51e-05
2482	7.77e-05
2494	5.88e-05
2506	7.35e-05
2518	9.87e-05
2530	7.35e-05
2542	7.56e-05
2554	9.87e-05
2566	0.0001155
2578	9.45e-05
2590	0.0001218
2602	0.0001554
2614	0.0001617
2626	0.0001806
2638	0.0001995
2650	0.0002394
2662	0.0002142
2674	0.0002037
2686	0.000273
2698	0.0002436
2710	0.0001638
2722	0.0001806
2734	0.0002394
2746	0.0002247
2758	0.0002079
2770	0.0002646
2782	0.0003255
2794	0.0003654
2806	0.0004032
2818	0.0004998
2830	0.0007119
2842	0.0013461
2854	0.0024423
2866	0.0033159
2878	0.0030198
2890	0.0023436
2902	0.0028518
2914	0.0047649
2926	0.0072219
2938	0.0096012
2950	0.0113295
2962	0.0068817
2974	0.0026082
2986	0.0012831
2998	0.0012726
3010	0.0021273
3022	0.0042987
3034	0.0063924
3046	0.0041496
3058	0.0038787
3070	0.0060039
3082	0.0043512
3094	0.0028014
3106	0.0017115
3118	0.0009135
3130	0.0004452
3142	0.0002814
3154	0.0002625
3166	0.00021
3178	0.0001932
3190	0.000168
3202	0.000147
3214	0.0001659
3226	0.000168
3238	0.0002226
3250	0.0002709
3262	0.0004494
3274	0.0007077
3286	0.0013902
3298	0.0024276
3310	0.0042399
3322	0.0073269
3334	0.0071211
3346	0.001932
3358	0.0009513
3370	0.0004536
3382	0.0002226
3394	0.0001302
3406	0.0001113
3418	0.0001428
3430	9.24e-05
3442	8.82e-05
3454	0.0001029
3466	0.0001155
3478	4.2e-05
3490	3.99e-05
3502	3.57e-05
3514	3.99e-05
3526	2.31e-05
3538	6.09e-05
3550	5.04e-05
3562	3.99e-05
3574	2.94e-05
3586	6.51e-05
3598	2.31e-05
3610	2.1e-05
3622	1.68e-05
3634	6.3e-05
3646	5.46e-05
3658	0.0001239
3670	7.98e-05
3682	9.87e-05
3694	8.61e-05
3706	2.73e-05
3718	2.1e-05
3730	7.35e-05
3742	3.57e-05
3754	5.88e-05
3766	7.35e-05
3778	7.35e-05
3790	5.25e-05
3802	6.72e-05
3814	2.73e-05
3826	4.83e-05
3838	3.99e-05
