Infrared Spectrum: PHENOL, O-(5-PHENYL-1,3,4-OXADIAZOL-2-YL)-
Formula: C14 H10 N2 O2
CAS: 18233-24-4
State: SOLID (KBr PELLET)
Class: COBLENTZ
Instrument: Not specified, most likely a prism, grating, or hybrid spectrometer.
Sampling: TRANSMISSION
Resolution: 4
Origin: TENNESSEE EASTMAN COMPANY, RESEARCH LABORATORIES
MICROMETERS	TRANSMITTANCE
2.082	0.976
2.12291	0.976
2.16383	0.977
2.20474	0.976
2.24566	0.979
2.28657	0.979
2.32749	0.981
2.3684	0.982
2.40932	0.984
2.45023	0.982
2.49115	0.981
2.53206	0.982
2.57298	0.982
2.61389	0.981
2.65481	0.979
2.69572	0.977
2.73663	0.947
2.77755	0.858
2.81846	0.782
2.85938	0.728
2.90029	0.673
2.94121	0.649
2.98212	0.678
3.02304	0.709
3.06395	0.685
3.10487	0.644
3.14578	0.62
3.1867	0.649
3.22761	0.728
3.26852	0.735
3.30944	0.748
3.35035	0.822
3.39127	0.815
3.43218	0.837
3.4731	0.854
3.51401	0.87
3.55493	0.904
3.59584	0.921
3.63676	0.928
3.67767	0.933
3.71859	0.926
3.7595	0.933
3.80042	0.938
3.84133	0.931
3.88224	0.938
3.92316	0.947
3.96407	0.948
4.00499	0.95
4.0459	0.952
4.08682	0.953
4.12773	0.957
4.16865	0.96
4.20956	0.964
4.25048	0.962
4.29139	0.948
4.33231	0.94
4.37322	0.953
4.41414	0.962
4.45505	0.964
4.49596	0.967
4.53688	0.969
4.57779	0.965
4.61871	0.965
4.65962	0.965
4.70054	0.964
4.74145	0.962
4.78237	0.958
4.82328	0.962
4.8642	0.962
4.90511	0.96
4.94603	0.96
4.98694	0.962
5.02785	0.964
5.06877	0.948
5.10968	0.933
5.1506	0.941
5.19151	0.945
5.23243	0.936
5.27334	0.941
5.31426	0.953
5.35517	0.962
5.39609	0.964
5.437	0.955
5.47792	0.952
5.51883	0.935
5.55975	0.938
5.60066	0.945
5.64157	0.938
5.68249	0.935
5.7234	0.926
5.76432	0.904
5.80523	0.892
5.84615	0.892
5.88706	0.888
5.92798	0.882
5.96889	0.868
6.00981	0.849
6.05072	0.832
6.09164	0.782
6.13255	0.649
6.17346	0.251
6.21438	0.591
6.25529	0.589
6.29621	0.372
6.33712	0.7
6.37804	0.77
6.41895	0.471
6.45987	0.341
6.50078	0.511
6.5417	0.753
6.58261	0.752
6.62353	0.758
6.66444	0.482
6.70536	0.104
6.74627	0.331
6.78718	0.541
6.8281	0.716
6.86901	0.675
6.90993	0.492
6.95084	0.776
6.99176	0.808
7.03267	0.716
7.07359	0.451
7.1145	0.417
7.15542	0.6
7.19633	0.697
7.23725	0.777
7.27816	0.81
7.31908	0.798
7.35999	0.82
7.4009	0.842
7.44182	0.851
7.48273	0.844
7.52365	0.825
7.56456	0.835
7.60548	0.811
7.64639	0.659
7.68731	0.584
7.72822	0.7
7.76914	0.716
7.81005	0.685
7.85097	0.55
7.89188	0.673
7.93279	0.483
7.97371	0.27
8.01462	0.297
8.05554	0.311
8.09645	0.333
8.13737	0.541
8.17828	0.639
8.2192	0.668
8.26011	0.63
8.30103	0.678
8.34194	0.741
8.38286	0.762
8.42377	0.748
8.46469	0.726
8.5056	0.688
8.54651	0.772
8.58743	0.695
8.62834	0.574
8.66926	0.664
8.71017	0.808
8.75109	0.808
8.792	0.757
8.83292	0.736
8.87383	0.805
8.91475	0.81
8.95566	0.813
8.99658	0.813
9.03749	0.805
9.07841	0.786
9.11932	0.76
9.16023	0.716
9.20115	0.757
9.24206	0.776
9.28298	0.632
9.32389	0.403
9.36481	0.449
9.40572	0.678
9.44664	0.747
9.48755	0.8
9.52847	0.82
9.56938	0.827
9.6103	0.794
9.65121	0.694
9.69212	0.678
9.73304	0.594
9.77395	0.723
9.81487	0.767
9.85578	0.8
9.8967	0.832
9.93761	0.846
9.97853	0.852
10.0194	0.861
10.0604	0.866
10.1013	0.866
10.1422	0.868
10.1831	0.868
10.224	0.813
10.2649	0.644
10.3058	0.782
10.3468	0.842
10.3877	0.829
10.4286	0.805
10.4695	0.861
10.5104	0.852
10.5513	0.841
10.5922	0.854
10.6332	0.875
10.6741	0.902
10.715	0.911
10.7559	0.905
10.7968	0.888
10.8377	0.868
10.8786	0.871
10.9196	0.894
10.9605	0.911
11.0014	0.917
11.0423	0.923
11.0832	0.929
11.1241	0.933
11.1651	0.933
11.206	0.935
11.2469	0.936
11.2878	0.936
11.3287	0.938
11.3696	0.94
11.4105	0.941
11.4515	0.94
11.4924	0.928
11.5333	0.878
11.5742	0.861
11.6151	0.875
11.656	0.916
11.6969	0.936
11.7379	0.936
11.7788	0.936
11.8197	0.929
11.8606	0.912
11.9015	0.885
11.9424	0.758
11.9833	0.641
12.0243	0.774
12.0652	0.868
12.1061	0.899
12.147	0.911
12.1879	0.914
12.2288	0.914
12.2697	0.916
12.3107	0.916
12.3516	0.917
12.3925	0.919
12.4334	0.919
12.4743	0.919
12.5152	0.916
12.5562	0.914
12.5971	0.914
12.638	0.912
12.6789	0.888
12.7198	0.829
12.7607	0.692
12.8016	0.514
12.8426	0.601
12.8835	0.726
12.9244	0.805
12.9653	0.81
13.0062	0.806
13.0471	0.803
13.088	0.805
13.129	0.806
13.1699	0.767
13.2108	0.588
13.2517	0.35
13.2926	0.198
13.3335	0.182
13.3744	0.398
13.4154	0.574
13.4563	0.753
13.4972	0.81
13.5381	0.829
13.579	0.839
13.6199	0.846
13.6608	0.849
13.7018	0.847
13.7427	0.842
13.7836	0.832
13.8245	0.818
13.8654	0.798
13.9063	0.76
13.9472	0.675
13.9882	0.442
14.0291	0.234
14.07	0.143
14.1109	0.17
14.1518	0.35
14.1927	0.464
14.2337	0.439
14.2746	0.386
14.3155	0.417
14.3564	0.5
14.3973	0.574
14.4382	0.586
14.4791	0.531
14.5201	0.427
14.561	0.37
14.6019	0.388
14.6428	0.488
14.6837	0.596
14.7246	0.661
14.7655	0.699
14.8065	0.714
14.8474	0.717
14.8883	0.712
14.9292	0.699
14.9701	0.661
15.011	0.613
15.0519	0.579
15.0929	0.582
15.1338	0.617
15.1747	0.637
15.2156	0.644
15.2565	0.642
15.2974	0.635
15.3383	0.622
15.3793	0.617
15.4202	0.605
15.4611	0.598
15.502	0.588
15.5429	0.577
15.5838	0.567
15.6247	0.552
15.6657	0.538
15.7066	0.531
15.7475	0.519
15.7884	0.511
15.8293	0.504
15.8702	0.504
15.9112	0.505
15.9521	0.511
15.993	0.511
