Infrared Spectrum: Salicylidene 2-aminopyridene
Formula: C 12 H 10 N 2 O
CAS: 1823-47-8
State: gas
Origin: EPA-IR VAPOR PHASE LIBRARY
1/CM	ABSORBANCE
549.8	0.0035
559.445	0.00866
569.09	0.00569
578.734	0.01154
588.379	0.00341
598.024	0.00144
607.669	0.00167
617.313	0.00251
626.958	0.00237
636.603	0.00154
646.248	0.00142
655.893	0.00206
665.537	0.00277
675.182	0.00432
684.827	0.00431
694.472	0.00446
704.116	0.00534
713.761	0.00742
723.406	0.01183
733.051	0.0191
742.695	0.03256
752.34	0.04894
761.985	0.03249
771.63	0.02386
781.275	0.02949
790.919	0.02688
800.564	0.01656
810.209	0.01067
819.854	0.00598
829.498	0.00429
839.143	0.00478
848.788	0.00724
858.433	0.00886
868.078	0.00647
877.722	0.00496
887.367	0.00423
897.012	0.00642
906.657	0.02187
916.301	0.04
925.946	0.00638
935.591	0.00342
945.236	0.00271
954.88	0.00331
964.525	0.00342
974.17	0.00337
983.815	0.00492
993.46	0.00602
1003.1	0.00371
1012.75	0.00252
1022.39	0.00389
1032.04	0.0053
1041.68	0.00619
1051.33	0.00418
1060.97	0.0025
1070.62	0.00195
1080.26	0.00165
1089.91	0.00304
1099.55	0.00443
1109.2	0.00821
1118.84	0.01293
1128.49	0.00843
1138.13	0.02487
1147.78	0.04714
1157.42	0.01915
1167.07	0.0141
1176.71	0.03312
1186.36	0.05746
1196	0.05537
1205.64	0.03714
1215.29	0.01691
1224.93	0.01786
1234.58	0.01729
1244.22	0.02118
1253.87	0.02738
1263.51	0.01763
1273.16	0.0262
1282.8	0.03696
1292.45	0.02882
1302.09	0.01477
1311.74	0.00894
1321.38	0.00636
1331.03	0.00413
1340.67	0.00424
1350.32	0.00669
1359.96	0.01103
1369.61	0.01121
1379.25	0.01028
1388.9	0.01093
1398.54	0.0127
1408.18	0.01542
1417.83	0.02484
1427.47	0.06287
1437.12	0.06986
1446.76	0.03725
1456.41	0.08068
1466.05	0.09863
1475.7	0.03802
1485.34	0.03083
1494.99	0.02835
1504.63	0.02132
1514.28	0.01657
1523.92	0.01701
1533.57	0.02105
1543.21	0.03275
1552.86	0.07235
1562.5	0.11849
1572.15	0.08375
1581.79	0.11044
1591.44	0.09937
1601.08	0.05851
1610.73	0.10673
1620.37	0.13792
1630.01	0.07601
1639.66	0.02338
1649.3	0.00978
1658.95	0.00676
1668.59	0.00625
1678.24	0.00575
1687.88	0.00532
1697.53	0.00495
1707.17	0.00456
1716.82	0.00382
1726.46	0.00332
1736.11	0.003
1745.75	0.00276
1755.4	0.00256
1765.04	0.00257
1774.69	0.00261
1784.33	0.00295
1793.98	0.00241
1803.62	0.00191
1813.27	0.00233
1822.91	0.00305
1832.55	0.00259
1842.2	0.00221
1851.84	0.00247
1861.49	0.00288
1871.13	0.00245
1880.78	0.00184
1890.42	0.0019
1900.07	0.00254
1909.71	0.00278
1919.36	0.00217
1929	0.00259
1938.65	0.00387
1948.29	0.00206
1957.94	0.0018
1967.58	0.00214
1977.23	0.00144
1986.87	0.00112
1996.52	0.00104
2006.16	0.0009084
2015.81	0.0008576
2025.45	0.0009014
2035.1	0.0009302
2044.74	0.0009715
2054.38	0.00129
2064.03	0.00125
2073.67	0.0013
2083.32	0.00137
2092.96	0.00155
2102.61	0.00154
2112.25	0.00156
2121.9	0.00122
2131.54	0.0011
2141.19	0.00116
2150.83	0.00115
2160.48	0.00111
2170.12	0.00118
2179.77	0.00134
2189.41	0.00149
2199.06	0.00142
2208.7	0.00139
2218.35	0.00148
2227.99	0.00157
2237.64	0.00161
2247.28	0.00138
2256.92	0.00151
2266.57	0.00187
2276.21	0.00163
2285.86	0.00178
2295.5	0.00184
2305.15	0.00172
2314.79	0.00175
2324.44	0.00185
2334.08	0.00202
2343.73	0.00211
2353.37	0.00208
2363.02	0.00206
2372.66	0.00221
2382.31	0.00233
2391.95	0.00243
2401.6	0.00232
2411.24	0.00232
2420.89	0.00225
2430.53	0.00223
2440.18	0.00241
2449.82	0.00251
2459.47	0.00259
2469.11	0.00282
2478.75	0.00305
2488.4	0.00294
2498.04	0.0029
2507.69	0.00317
2517.33	0.0033
2526.98	0.00339
2536.62	0.00343
2546.27	0.00358
2555.91	0.00378
2565.56	0.00389
2575.2	0.00401
2584.85	0.00423
2594.49	0.00461
2604.14	0.005
2613.78	0.00524
2623.43	0.00526
2633.07	0.0055
2642.72	0.00537
2652.36	0.00517
2662.01	0.00513
2671.65	0.00511
2681.29	0.0049
2690.94	0.00522
2700.58	0.00557
2710.23	0.006
2719.87	0.00642
2729.52	0.00659
2739.16	0.00692
2748.81	0.00732
2758.45	0.00766
2768.1	0.00771
2777.74	0.00761
2787.39	0.00732
2797.03	0.00714
2806.68	0.00711
2816.32	0.0073
2825.97	0.0073
2835.61	0.00771
2845.26	0.00834
2854.9	0.0087
2864.55	0.00873
2874.19	0.0088
2883.84	0.00894
2893.48	0.00921
2903.12	0.00955
2912.77	0.00977
2922.41	0.01015
2932.06	0.01047
2941.7	0.01029
2951.35	0.00962
2960.99	0.00954
2970.64	0.01028
2980.28	0.01177
2989.93	0.0135
2999.57	0.01516
3009.22	0.017
3018.86	0.01632
3028.51	0.01562
3038.15	0.01657
3047.8	0.02091
3057.44	0.02729
3067.09	0.0302
3076.73	0.03328
3086.38	0.02659
3096.02	0.01736
3105.67	0.01342
3115.31	0.0124
3124.95	0.01162
3134.6	0.01117
3144.24	0.01079
3153.89	0.01052
3163.53	0.01049
3173.18	0.01012
3182.82	0.00973
3192.47	0.00911
3202.11	0.00915
3211.76	0.00923
3221.4	0.00933
3231.05	0.00911
3240.69	0.0086
3250.34	0.00825
3259.98	0.00766
3269.63	0.00718
3279.27	0.00664
3288.92	0.0064
3298.56	0.00614
3308.21	0.00578
3317.85	0.0055
3327.49	0.00504
3337.14	0.00482
3346.78	0.00441
3356.43	0.00402
3366.07	0.00366
3375.72	0.00331
3385.36	0.00303
3395.01	0.00301
3404.65	0.00264
3414.3	0.00237
3423.94	0.00208
3433.59	0.00189
3443.23	0.00172
3452.88	0.00168
3462.52	0.00138
3472.17	0.00152
3481.81	0.00109
3491.46	0.00117
3501.1	0.0009307
3510.75	0.0009437
3520.39	0.0009125
3530.04	0.0008811
3539.68	0.0007143
3549.32	0.0006945
3558.97	0.0005383
3568.61	0.0005878
3578.26	0.0004881
3587.9	0.0003975
3597.55	0.0004044
3607.19	0.0005348
3616.84	0.0004537
3626.48	0.0003364
3636.13	0.0004902
3645.77	0.0005745
3655.42	0.0004698
3665.06	0.000573
3674.71	0.0002374
3684.35	0.0005196
3694	0.0004496
3703.64	0.0002816
3713.29	0.0004145
3722.93	0.0003142
3732.58	0.0003643
3742.22	0.000309
3751.86	0.0004617
3761.51	0.0002724
3771.15	0.000429
3780.8	0.0002711
3790.44	0.0002321
3800.09	0.0004369
3809.73	0.0004468
3819.38	0.0003669
3829.02	0.0002975
3838.67	0.0003519
3848.31	0.0003678
3857.96	0.0002988
3867.6	0.0004249
3877.25	0.0004906
3886.89	0.0004473
3896.54	0.0004406
3906.18	0.0006106
3915.83	0.0006821
3925.47	0.0004253
3935.12	0.000448
3944.76	0.0003114
3954.41	0.0005116
3964.05	0.0004648
3973.69	0.0004723
3983.34	0.0006228
3992.98	0.0003237
