Infrared Spectrum: Silane, dichloromethyl-p-tolyl-,
Formula: C8 H10 Cl2 Si
CAS: 18236-57-2
State: SOLUTION (11% CCl4 FOR 3800-1300, 3% CS2 FOR 1300-650, AND 11% CCl4 FOR 650-250)
Class: COBLENTZ III
Instrument: PERKIN-ELMER 521 (GRATING)
Instrument parameters: FILTERS AT 3150, 2500, 2000, 1150, 700, 410. GRATING CHANGES: 2000, 630
Path length: 0.011 CM, 0.010 CM, AND 0.010 CM
Resolution: 2
Origin: DOW CORNING CORP.
1/CM	TRANSMITTANCE
240	0.888
249	0.8851
258	0.8831
267	0.88
276	0.8881
285	0.8856
294	0.8814
303	0.8762
312	0.8726
321	0.8738
330	0.858
339	0.8184
348	0.6304
357	0.6722
366	0.7133
375	0.7667
384	0.8524
393	0.8652
402	0.8665
411	0.855
420	0.8662
429	0.8536
438	0.8618
447	0.8752
456	0.8675
465	0.8518
474	0.8012
483	0.6696
492	0.1504
501	0.2289
510	0.6813
519	0.7487
528	0.6914
537	0.5076
546	0.1614
555	0.0263
564	0.3197
573	0.7173
582	0.8088
591	0.8274
600	0.8237
609	0.773
618	0.3851
627	0.4416
636	0.843
645	0.8896
654	0.8931
663	0.8923
672	0.8905
681	0.8877
690	0.8826
699	0.8697
708	0.8543
717	0.8456
726	0.7921
735	0.676
744	0.5482
753	0.6634
762	0.7772
771	0.7681
780	0.634
789	0.2331
798	0.6219
807	0.646
816	0.3978
825	0.803
834	0.8223
843	0.8286
852	0.8336
861	0.8381
870	0.8427
879	0.8474
888	0.8501
897	0.8524
906	0.8539
915	0.8543
924	0.854
933	0.8533
942	0.8514
951	0.8496
960	0.8491
969	0.8489
978	0.8494
987	0.8454
996	0.8344
1005	0.8177
1014	0.7999
1023	0.7863
1032	0.7765
1041	0.7761
1050	0.7887
1059	0.7872
1068	0.7809
1077	0.772
1086	0.7617
1095	0.7456
1104	0.6907
1113	0.4364
1122	0.6605
1131	0.8081
1140	0.8254
1149	0.8316
1158	0.8356
1167	0.8367
1176	0.8364
1185	0.8204
1194	0.8194
1203	0.8452
1212	0.8464
1221	0.8444
1230	0.838
1239	0.8245
1248	0.7918
1257	0.5373
1266	0.7777
1275	0.8413
1284	0.8469
1293	0.8479
1302	0.8333
1311	0.6506
1320	0.8244
1329	0.8222
1338	0.8095
1347	0.8265
1356	0.8229
1365	0.8081
1374	0.7394
1383	0.7133
1392	0.4412
1401	0.5257
1410	0.6912
1419	0.7281
1428	0.7125
1437	0.6692
1446	0.6555
1455	0.6815
1464	0.7221
1473	0.7631
1482	0.7762
1491	0.7695
1500	0.666
1509	0.7913
1518	0.8091
1527	0.8152
1536	0.82
1545	0.8241
1554	0.8273
1563	0.8295
1572	0.8218
1581	0.7948
1590	0.7235
1599	0.3326
1608	0.5317
1617	0.7967
1626	0.8243
1635	0.8148
1644	0.8083
1653	0.843
1662	0.8552
1671	0.8685
1680	0.8711
1689	0.8714
1698	0.8699
1707	0.8673
1716	0.8636
1725	0.8537
1734	0.8447
1743	0.8396
1752	0.8534
1761	0.8654
1770	0.8701
1779	0.8685
1788	0.8663
1797	0.8481
1806	0.8153
1815	0.8432
1824	0.8678
1833	0.8683
1842	0.8681
1851	0.8674
1860	0.8658
1869	0.8638
1878	0.8597
1887	0.8501
1896	0.8396
1905	0.7994
1914	0.7737
1923	0.8398
1932	0.8564
1941	0.8618
1950	0.8654
1959	0.865
1968	0.8641
1977	0.8628
1986	0.8577
1995	0.8516
2004	0.8644
2013	0.8723
2022	0.8742
2031	0.8736
2040	0.873
2049	0.8724
2058	0.8738
2067	0.8747
2076	0.8748
2085	0.8746
2094	0.8738
2103	0.8731
2112	0.8729
2121	0.8727
2130	0.8728
2139	0.8729
2148	0.8723
2157	0.8702
2166	0.8687
2175	0.868
2184	0.8675
2193	0.8673
2202	0.8671
2211	0.8665
2220	0.866
2229	0.8654
2238	0.8649
2247	0.8644
2256	0.8647
2265	0.865
2274	0.8654
2283	0.8654
2292	0.8651
2301	0.8648
2310	0.8649
2319	0.8654
2328	0.8657
2337	0.8659
2346	0.8661
2355	0.8662
2364	0.8661
2373	0.866
2382	0.8659
2391	0.8659
2400	0.866
2409	0.8661
2418	0.8662
2427	0.8659
2436	0.8657
2445	0.8653
2454	0.865
2463	0.8637
2472	0.8625
2481	0.8611
2490	0.8591
2499	0.857
2508	0.855
2517	0.8529
2526	0.8531
2535	0.8552
2544	0.8598
2553	0.8617
2562	0.8615
2571	0.8603
2580	0.8581
2589	0.857
2598	0.8571
2607	0.8576
2616	0.858
2625	0.8583
2634	0.8583
2643	0.8581
2652	0.858
2661	0.857
2670	0.8557
2679	0.8542
2688	0.8526
2697	0.8509
2706	0.8492
2715	0.8473
2724	0.8454
2733	0.8445
2742	0.8488
2751	0.854
2760	0.852
2769	0.8491
2778	0.846
2787	0.8422
2796	0.8384
2805	0.8342
2814	0.83
2823	0.8239
2832	0.8163
2841	0.8033
2850	0.7886
2859	0.7695
2868	0.7322
2877	0.7429
2886	0.766
2895	0.7659
2904	0.7564
2913	0.7087
2922	0.6336
2931	0.6155
2940	0.692
2949	0.6822
2958	0.664
2967	0.6375
2976	0.6091
2985	0.6109
2994	0.6635
3003	0.7084
3012	0.705
3021	0.6297
3030	0.615
3039	0.6361
3048	0.6728
3057	0.715
3066	0.7213
3075	0.6748
3084	0.7521
3093	0.8285
3102	0.8358
3111	0.8389
3120	0.8424
3129	0.8526
3138	0.8583
3147	0.861
3156	0.8631
3165	0.8652
3174	0.8667
3183	0.8681
3192	0.869
3201	0.8696
3210	0.8704
3219	0.8711
3228	0.8718
3237	0.8726
3246	0.8734
3255	0.8742
3264	0.8751
3273	0.8757
3282	0.8764
3291	0.8769
3300	0.8776
3309	0.8782
3318	0.8787
3327	0.8789
3336	0.8791
3345	0.8793
3354	0.8796
3363	0.8798
3372	0.88
3381	0.88
3390	0.8801
3399	0.8802
3408	0.8803
3417	0.8804
3426	0.8804
3435	0.8803
3444	0.8802
3453	0.8802
3462	0.8802
3471	0.8808
3480	0.8815
3489	0.8821
3498	0.8827
3507	0.8833
3516	0.8837
3525	0.8841
3534	0.8845
3543	0.8851
3552	0.8859
3561	0.8867
3570	0.8875
3579	0.8884
3588	0.8895
3597	0.8902
3606	0.8892
3615	0.8876
3624	0.8844
3633	0.8817
3642	0.8792
3651	0.8766
3660	0.8741
3669	0.8738
3678	0.8768
3687	0.8782
3696	0.8664
3705	0.8721
3714	0.8791
3723	0.8821
3732	0.8838
3741	0.8881
3750	0.8919
3759	0.8987
3768	0.8962
3777	0.8837
3786	0.8852
3795	0.8881
3804	0.8901
3813	0.8907
3822	0.8908
