Infrared Spectrum: 2-Heptyn-1-al-diethyl acetal
Formula: C 11 H 20 O 2
CAS: 18232-30-9
State: gas
Origin: EPA-IR VAPOR PHASE LIBRARY
1/CM	ABSORBANCE
549.9	0.00413
559.547	0.0036008
569.193	0.0032187
578.84	0.002916
588.486	0.002646
598.133	0.002604
607.779	0.002772
617.426	0.002611
627.072	0.002586
636.719	0.002748
646.365	0.002689
656.012	0.0029047
665.658	0.00292009
675.305	0.0030953
684.951	0.0031405
694.598	0.0030496
704.245	0.0030735
713.891	0.0033803
723.538	0.0038703
733.184	0.00582
742.831	0.00809
752.477	0.00626
762.124	0.00486
771.77	0.00498
781.417	0.00579
791.063	0.00675
800.71	0.0078
810.356	0.00877
820.003	0.00912
829.649	0.00946
839.296	0.00936
848.943	0.00846
858.589	0.00781
868.236	0.00791
877.882	0.00907
887.529	0.01092
897.175	0.01411
906.822	0.0183
916.468	0.01819
926.115	0.01403
935.761	0.01251
945.408	0.01385
955.054	0.01979
964.701	0.02953
974.347	0.04488
983.994	0.06789
993.64	0.08842
1003.29	0.09431
1012.93	0.0817
1022.58	0.06671
1032.23	0.07932
1041.87	0.13977
1051.52	0.23782
1061.17	0.2806
1070.81	0.23856
1080.46	0.19729
1090.11	0.16708
1099.75	0.15675
1109.4	0.1487
1119.05	0.11035
1128.69	0.08963
1138.34	0.10629
1147.99	0.15909
1157.63	0.15251
1167.28	0.09019
1176.92	0.05771
1186.57	0.04055
1196.22	0.02872
1205.86	0.0196
1215.51	0.01416
1225.16	0.01101
1234.8	0.01011
1244.45	0.01043
1254.1	0.01178
1263.74	0.01129
1273.39	0.01287
1283.04	0.01585
1292.68	0.02074
1302.33	0.0262
1311.98	0.0331
1321.62	0.05871
1331.27	0.08867
1340.92	0.08584
1350.56	0.09198
1360.21	0.07142
1369.86	0.04854
1379.5	0.03726
1389.15	0.03302
1398.79	0.02866
1408.44	0.02123
1418.09	0.01675
1427.73	0.01728
1437.38	0.02073
1447.03	0.02363
1456.67	0.02361
1466.32	0.02168
1475.97	0.01773
1485.61	0.01326
1495.26	0.0092
1504.91	0.00691
1514.55	0.00571
1524.2	0.00499
1533.85	0.00438
1543.49	0.004
1553.14	0.0035934
1562.79	0.0033221
1572.43	0.0031999
1582.08	0.0031105
1591.73	0.0030961
1601.37	0.0030727
1611.02	0.0032737
1620.67	0.0035127
1630.31	0.0035146
1639.96	0.0033289
1649.6	0.0031101
1659.25	0.0028452
1668.9	0.0028557
1678.54	0.002671
1688.19	0.002557
1697.84	0.002559
1707.48	0.002439
1717.13	0.002454
1726.78	0.002326
1736.42	0.002259
1746.07	0.002174
1755.72	0.002134
1765.36	0.002143
1775.01	0.00214
1784.66	0.002022
1794.3	0.002054
1803.95	0.002083
1813.6	0.002151
1823.24	0.0021
1832.89	0.002227
1842.54	0.002288
1852.18	0.00242
1861.83	0.002545
1871.47	0.0028833
1881.12	0.0031391
1890.77	0.0033187
1900.41	0.0033112
1910.06	0.0033356
1919.71	0.0033334
1929.35	0.0034434
1939	0.0035437
1948.65	0.003601
1958.29	0.0036603
1967.94	0.0037767
1977.59	0.0038166
1987.23	0.0037331
1996.88	0.0035567
2006.53	0.003448
2016.17	0.003259
2025.82	0.0031376
2035.47	0.0030564
2045.11	0.00302509
2054.76	0.0029192
2064.41	0.002818
2074.05	0.002716
2083.7	0.002666
2093.35	0.002617
2102.99	0.002584
2112.64	0.002618
2122.28	0.00271
2131.93	0.00297385
2141.58	0.0031034
2151.22	0.0033269
2160.87	0.0036263
2170.52	0.00403
2180.16	0.00482
2189.81	0.00602
2199.46	0.0078
2209.1	0.01075
2218.75	0.01488
2228.4	0.01831
2238.04	0.01816
2247.69	0.01487
2257.34	0.0114
2266.98	0.00866
2276.63	0.00684
2286.28	0.00605
2295.92	0.00589
2305.57	0.00567
2315.22	0.00449
2324.86	0.0031971
2334.51	0.002655
2344.16	0.002409
2353.8	0.002363
2363.45	0.002337
2373.09	0.002271
2382.74	0.002319
2392.39	0.002352
2402.03	0.002333
2411.68	0.002398
2421.33	0.002457
2430.97	0.00237
2440.62	0.00229
2450.27	0.002242
2459.91	0.002138
2469.56	0.002099
2479.21	0.002025
2488.85	0.002003
2498.5	0.001943
2508.15	0.00189
2517.79	0.001935
2527.44	0.00191
2537.09	0.002023
2546.73	0.002129
2556.38	0.002189
2566.03	0.002233
2575.67	0.002336
2585.32	0.002461
2594.96	0.002743
2604.61	0.0030452
2614.26	0.0033411
2623.9	0.0038071
2633.55	0.00401
2643.2	0.004
2652.84	0.00393
2662.49	0.0039026
2672.14	0.00407
2681.78	0.00426
2691.43	0.00419
2701.08	0.00424
2710.72	0.00452
2720.37	0.00516
2730.02	0.0059
2739.66	0.00661
2749.31	0.00739
2758.96	0.00799
2768.6	0.00839
2778.25	0.00899
2787.9	0.00992
2797.54	0.0107
2807.19	0.0123
2816.84	0.01484
2826.48	0.01879
2836.13	0.02444
2845.77	0.03296
2855.42	0.04556
2865.07	0.06726
2874.71	0.08993
2884.36	0.1009
2894.01	0.10456
2903.65	0.10891
2913.3	0.10998
2922.95	0.1267
2932.59	0.16759
2942.24	0.18518
2951.89	0.14418
2961.53	0.13721
2971.18	0.15573
2980.83	0.15326
2990.47	0.10506
3000.12	0.05249
3009.77	0.03318
3019.41	0.02373
3029.06	0.01728
3038.71	0.01295
3048.35	0.00988
3058	0.00792
3067.64	0.00652
3077.29	0.00543
3086.94	0.00457
3096.58	0.00413
3106.23	0.0037151
3115.88	0.0034231
3125.52	0.0030664
3135.17	0.002798
3144.82	0.002515
3154.46	0.002321
3164.11	0.002207
3173.76	0.002059
3183.4	0.001989
3193.05	0.001958
3202.7	0.00176
3212.34	0.00158
3221.99	0.00116
3231.64	0.00103
3241.28	0.00059
3250.93	0.0005
3260.58	0.00035
3270.22	0.00053
3279.87	0.00027
3289.52	0.00027
3299.16	0.0005
3308.81	0.00051
3318.45	0.0003
3328.1	0.00053
3337.75	0.00028
3347.39	0.00031
3357.04	0.00048
3366.69	0.00044
3376.33	0.00023
3385.98	0.00032
3395.63	2e-05
3405.27	0.00037
3414.92	0.00034
3424.57	0.00024
3434.21	0.00016
3443.86	0.00029
3453.51	0.00029
3463.15	0.00023
3472.8	0.00014
3482.45	0.00024
3492.09	0.0002
3501.74	0.00034
3511.39	0.00026
3521.03	0.00029
3530.68	0.00029
3540.33	0.00045
3549.97	0.00047
3559.62	0.00049
3569.26	0.00052
3578.91	0.00047
3588.56	0.00054
3598.2	0.00049
3607.85	0.00036
3617.5	0.00055
3627.14	0.0007
3636.79	0.00061
3646.44	0.00072
3656.08	0.00056
3665.73	0.00074
3675.38	0.00082
3685.02	0.00085
3694.67	0.00092
3704.32	0.00095
3713.96	0.00102
3723.61	0.00108
3733.26	0.00103
3742.9	0.00107
3752.55	0.00101
3762.2	0.00108
3771.84	0.00107
3781.49	0.00111
3791.13	0.00112
3800.78	0.00117
3810.43	0.00126
3820.07	0.00119
3829.72	0.00119
3839.37	0.00123
3849.01	0.0012
3858.66	0.00119
3868.31	0.00113
3877.95	0.0011
3887.6	0.00119
3897.25	0.00127
3906.89	0.00124
3916.54	0.00133
3926.19	0.00136
3935.83	0.00149
3945.48	0.0013
3955.13	0.00177
3964.77	0.00172
3974.42	0.00188
3984.07	0.001953
3993.71	0.002222
