Infrared Spectrum: 2-AMINO-6-METHYL PYRIDINE
Formula: C6 H8 N2
CAS: 1824-81-3
State: LIQUID
Class: COBLENTZ
Instrument: Not specified, most likely a prism, grating, or hybrid spectrometer.
Sampling: TRANSMISSION
Path length: 0.003 CM
Resolution: 4
Origin: WYANDOTTE CHEMICALS CORP., WYANDOTTE, MICHIGAN, USA
MICROMETERS	TRANSMITTANCE
2.055	0.954
2.09587	0.954
2.13675	0.957
2.17762	0.96
2.21849	0.959
2.25937	0.954
2.30024	0.952
2.34112	0.95
2.38199	0.938
2.42286	0.938
2.46374	0.933
2.50461	0.938
2.54548	0.933
2.58636	0.923
2.62723	0.925
2.6681	0.909
2.70898	0.797
2.74985	0.686
2.79072	0.56
2.8316	0.35
2.87247	0.173
2.91335	0.105
2.95422	0.083
2.99509	0.061
3.03597	0.056
3.07684	0.059
3.11771	0.054
3.15859	0.052
3.19946	0.061
3.24033	0.102
3.28121	0.139
3.32208	0.204
3.36296	0.247
3.40383	0.289
3.4447	0.371
3.48558	0.456
3.52645	0.514
3.56732	0.601
3.6082	0.642
3.64907	0.652
3.68994	0.671
3.73082	0.713
3.77169	0.747
3.81257	0.781
3.85344	0.8
3.89431	0.814
3.93519	0.817
3.97606	0.817
4.01693	0.821
4.05781	0.824
4.09868	0.819
4.13955	0.821
4.18043	0.822
4.2213	0.81
4.26217	0.814
4.30305	0.829
4.34392	0.839
4.3848	0.824
4.42567	0.809
4.46654	0.809
4.50742	0.807
4.54829	0.807
4.58916	0.807
4.63004	0.802
4.67091	0.802
4.71178	0.802
4.75266	0.81
4.79353	0.81
4.83441	0.809
4.87528	0.809
4.91615	0.81
4.95703	0.821
4.9979	0.826
5.03877	0.831
5.07965	0.839
5.12052	0.834
5.16139	0.81
5.20227	0.802
5.24314	0.817
5.28401	0.833
5.32489	0.85
5.36576	0.843
5.40664	0.841
5.44751	0.833
5.48838	0.812
5.52926	0.819
5.57013	0.829
5.611	0.834
5.65188	0.824
5.69275	0.807
5.73362	0.79
5.7745	0.729
5.81537	0.666
5.85625	0.611
5.89712	0.558
5.93799	0.461
5.97887	0.352
6.01974	0.166
6.06061	0.063
6.10149	0.03
6.14236	0.025
6.18323	0.023
6.22411	0.02
6.26498	0.02
6.30586	0.02
6.34673	0.042
6.3876	0.105
6.42848	0.175
6.46935	0.218
6.51022	0.296
6.5511	0.345
6.59197	0.333
6.63284	0.236
6.67372	0.175
6.71459	0.078
6.75546	0.032
6.79634	0.023
6.83721	0.027
6.87809	0.034
6.91896	0.076
6.95983	0.151
7.00071	0.255
7.04158	0.366
7.08245	0.436
7.12333	0.454
7.1642	0.454
7.20507	0.434
7.24595	0.31
7.28682	0.354
7.3277	0.497
7.36857	0.48
7.40944	0.298
7.45032	0.098
7.49119	0.073
7.53206	0.137
7.57294	0.281
7.61381	0.413
7.65468	0.456
7.69556	0.446
7.73643	0.388
7.7773	0.231
7.81818	0.148
7.85905	0.224
7.89993	0.371
7.9408	0.449
7.98167	0.485
8.02255	0.466
8.06342	0.299
8.10429	0.34
8.14517	0.437
8.18604	0.463
8.22691	0.483
8.26779	0.517
8.30866	0.54
8.34954	0.553
8.39041	0.555
8.43128	0.546
8.47216	0.522
8.51303	0.471
8.5539	0.32
8.59478	0.161
8.63565	0.25
8.67652	0.371
8.7174	0.448
8.75827	0.47
8.79915	0.473
8.84002	0.461
8.88089	0.439
8.92177	0.419
8.96264	0.403
9.00351	0.396
9.04439	0.405
9.08526	0.436
9.12613	0.454
9.16701	0.405
9.20788	0.304
9.24875	0.231
9.28963	0.291
9.3305	0.376
9.37138	0.434
9.41225	0.466
9.45312	0.471
9.494	0.473
9.53487	0.459
9.57574	0.427
9.61662	0.396
9.65749	0.354
9.69836	0.354
9.73924	0.407
9.78011	0.436
9.82099	0.458
9.86186	0.466
9.90273	0.468
9.94361	0.453
9.98448	0.425
10.0254	0.345
10.0662	0.224
10.1071	0.172
10.148	0.204
10.1888	0.291
10.2297	0.379
10.2706	0.439
10.3115	0.478
10.3523	0.492
10.3932	0.505
10.4341	0.516
10.475	0.521
10.5158	0.524
10.5567	0.529
10.5976	0.529
10.6385	0.528
10.6793	0.514
10.7202	0.475
10.7611	0.451
10.802	0.454
10.8428	0.471
10.8837	0.492
10.9246	0.494
10.9654	0.495
11.0063	0.492
11.0472	0.492
11.0881	0.494
11.1289	0.495
11.1698	0.488
11.2107	0.482
11.2516	0.482
11.2924	0.477
11.3333	0.465
11.3742	0.456
11.4151	0.441
11.4559	0.431
11.4968	0.412
11.5377	0.391
11.5786	0.386
11.6194	0.361
11.6603	0.357
11.7012	0.349
11.742	0.347
11.7829	0.362
11.8238	0.374
11.8647	0.369
11.9055	0.369
11.9464	0.364
11.9873	0.362
12.0282	0.352
12.069	0.352
12.1099	0.335
12.1508	0.325
12.1917	0.323
12.2325	0.311
12.2734	0.289
12.3143	0.269
12.3551	0.25
12.396	0.231
12.4369	0.209
12.4778	0.172
12.5186	0.139
12.5595	0.112
12.6004	0.08
12.6413	0.056
12.6821	0.045
12.723	0.039
12.7639	0.03
12.8048	0.034
12.8456	0.028
12.8865	0.039
12.9274	0.064
12.9683	0.109
13.0091	0.153
13.05	0.183
13.0909	0.209
13.1317	0.216
13.1726	0.231
13.2135	0.236
13.2544	0.238
13.2952	0.241
13.3361	0.241
13.377	0.241
13.4179	0.235
13.4587	0.223
13.4996	0.199
13.5405	0.166
13.5814	0.132
13.6222	0.119
13.6631	0.109
13.704	0.102
13.7449	0.109
13.7857	0.119
13.8266	0.136
13.8675	0.141
13.9083	0.146
13.9492	0.144
13.9901	0.149
14.031	0.158
14.0718	0.16
14.1127	0.163
14.1536	0.161
14.1945	0.163
14.2353	0.163
14.2762	0.165
14.3171	0.165
14.358	0.168
14.3988	0.175
14.4397	0.175
14.4806	0.178
14.5215	0.178
14.5623	0.18
14.6032	0.187
14.6441	0.19
14.6849	0.195
14.7258	0.199
14.7667	0.202
14.8076	0.206
14.8484	0.214
14.8893	0.219
14.9302	0.224
14.9711	0.228
15.0119	0.241
15.0528	0.265
15.0937	0.281
15.1346	0.281
15.1754	0.267
15.2163	0.265
15.2572	0.265
15.298	0.275
15.3389	0.291
15.3798	0.31
15.4207	0.315
15.4615	0.316
15.5024	0.321
15.5433	0.335
15.5842	0.349
15.625	0.352
15.6659	0.362
15.7068	0.369
15.7477	0.374
15.7885	0.391
15.8294	0.402
15.8703	0.405
15.9112	0.431
15.952	0.437
15.9929	0.441
