Infrared Spectrum: Methyltrivinylsilane
Formula: C 7 H 12 Si
CAS: 18244-95-6
State: gas
Origin: EPA-IR VAPOR PHASE LIBRARY
1/CM	ABSORBANCE
549.8	0.063679
559.445	0.053219
569.09	0.038089
578.734	0.026629
588.379	0.017439
598.024	0.011759
607.669	0.009319
617.313	0.009049
626.958	0.008929
636.603	0.011959
646.248	0.018749
655.893	0.037839
665.537	0.084029
675.182	0.157569
684.827	0.190589
694.472	0.134539
704.116	0.082189
713.761	0.088329
723.406	0.147689
733.051	0.219989
742.695	0.227479
752.34	0.151749
761.985	0.090109
771.63	0.084479
781.275	0.152179
790.919	0.329709
800.564	0.405829
810.209	0.250859
819.854	0.112069
829.498	0.063309
839.143	0.044779
848.788	0.034949
858.433	0.029719
868.078	0.026479
877.722	0.025549
887.367	0.027379
897.012	0.032309
906.657	0.037849
916.301	0.042119
925.946	0.048059
935.591	0.067139
945.236	0.110929
954.88	0.143429
964.525	0.120569
974.17	0.076939
983.815	0.062499
993.46	0.082309
1003.1	0.140309
1012.75	0.163699
1022.39	0.118729
1032.04	0.072549
1041.68	0.042579
1051.33	0.023279
1060.97	0.014009
1070.62	0.009109
1080.26	0.007029
1089.91	0.004769
1099.55	0.005489
1109.2	0.004929
1118.84	0.004519
1128.49	0.004999
1138.13	0.003679
1147.78	0.004609
1157.42	0.005189
1167.07	0.005169
1176.71	0.004799
1186.36	0.005509
1196	0.004659
1205.64	0.006589
1215.29	0.007009
1224.93	0.011559
1234.58	0.018879
1244.22	0.043829
1253.87	0.067179
1263.51	0.054019
1273.16	0.028919
1282.8	0.012119
1292.45	0.008009
1302.09	0.007089
1311.74	0.007749
1321.38	0.007949
1331.03	0.008219
1340.67	0.009889
1350.32	0.013309
1359.96	0.017119
1369.61	0.020739
1379.25	0.027229
1388.9	0.052529
1398.54	0.106569
1408.18	0.131579
1417.83	0.091849
1427.47	0.040349
1437.12	0.021229
1446.76	0.015639
1456.41	0.012319
1466.05	0.009679
1475.7	0.007739
1485.34	0.006589
1494.99	0.005909
1504.63	0.005529
1514.28	0.005339
1523.92	0.005479
1533.57	0.005689
1543.21	0.005789
1552.86	0.005909
1562.5	0.006159
1572.15	0.008499
1581.79	0.016199
1591.44	0.023129
1601.08	0.020619
1610.73	0.009969
1620.37	0.003809
1630.01	0.002929
1639.66	0.002319
1649.3	0.001739
1658.95	0.0014355
1668.59	0.0011539
1678.24	0.0010009
1687.88	0.0008941
1697.53	0.0011129
1707.17	0.0012228
1716.82	0.0010078
1726.46	0.0010138
1736.11	0.0008218
1745.75	0.0009242
1755.4	0.0010333
1765.04	0.0011287
1774.69	0.0011084
1784.33	0.0012019
1793.98	0.0012606
1803.62	0.0013846
1813.27	0.0015814
1822.91	0.001799
1832.55	0.001869
1842.2	0.002279
1851.84	0.002369
1861.49	0.002609
1871.13	0.003109
1880.78	0.004799
1890.42	0.009929
1900.07	0.019599
1909.71	0.024559
1919.36	0.019799
1929	0.010399
1938.65	0.005879
1948.29	0.004499
1957.94	0.003919
1967.58	0.003709
1977.23	0.004059
1986.87	0.004329
1996.52	0.004469
2006.16	0.003979
2015.81	0.003349
2025.45	0.002519
2035.1	0.002069
2044.74	0.001969
2054.38	0.002049
2064.03	0.001989
2073.67	0.002109
2083.32	0.002339
2092.96	0.002289
2102.61	0.001749
2112.25	0.0012766
2121.9	0.001332
2131.54	0.0011291
2141.19	0.0013134
2150.83	0.0011718
2160.48	0.0013968
2170.12	0.001369
2179.77	0.001317
2189.41	0.001166
2199.06	0.0010708
2208.7	0.0013311
2218.35	0.0010412
2227.99	0.00118
2237.64	0.0012681
2247.28	0.001739
2256.92	0.002409
2266.57	0.003379
2276.21	0.004559
2285.86	0.004179
2295.5	0.002779
2305.15	0.001789
2314.79	0.0012801
2324.44	0.0010807
2334.08	0.0008287
2343.73	0.0008167
2353.37	0.00066369
2363.02	0.0007283
2372.66	0.00065855
2382.31	0.00062824
2391.95	0.0008824
2401.6	0.0009165
2411.24	0.0008064
2420.89	0.0009469
2430.53	0.0007111
2440.18	0.0006717
2449.82	0.0005576
2459.47	0.000565
2469.11	0.000227
2478.75	0.000508
2488.4	0.00064715
2498.04	0.00064762
2507.69	0.000367
2517.33	0.000398
2526.98	0.000489
2536.62	0.000312
2546.27	0.000533
2555.91	0.000406
2565.56	0.000502
2575.2	0.0005146
2584.85	0.0008831
2594.49	0.00064324
2604.14	0.00060149
2613.78	0.00068676
2623.43	0.00068562
2633.07	0.0009775
2642.72	0.0007662
2652.36	0.001101
2662.01	0.0013641
2671.65	0.0015857
2681.29	0.0016014
2690.94	0.0012364
2700.58	0.0007813
2710.23	0.0009119
2719.87	0.0007709
2729.52	0.000897
2739.16	0.0010507
2748.81	0.0011203
2758.45	0.001276
2768.1	0.001649
2777.74	0.002099
2787.39	0.002909
2797.03	0.003979
2806.68	0.004669
2816.32	0.005069
2825.97	0.004779
2835.61	0.004819
2845.26	0.005179
2854.9	0.006029
2864.55	0.007299
2874.19	0.009039
2883.84	0.012569
2893.48	0.018159
2903.12	0.024859
2912.77	0.029599
2922.41	0.031289
2932.06	0.041239
2941.7	0.065779
2951.35	0.099039
2960.99	0.137199
2970.64	0.155639
2980.28	0.132759
2989.93	0.084089
2999.57	0.061029
3009.22	0.064269
3018.86	0.063179
3028.51	0.055719
3038.15	0.064319
3047.8	0.120279
3057.44	0.166449
3067.09	0.108429
3076.73	0.039509
3086.38	0.018409
3096.02	0.013369
3105.67	0.010679
3115.31	0.009039
3124.95	0.007119
3134.6	0.006069
3144.24	0.005629
3153.89	0.005469
3163.53	0.006119
3173.18	0.006869
3182.82	0.007739
3192.47	0.006069
3202.11	0.004009
3211.76	0.002989
3221.4	0.002619
3231.05	0.002129
3240.69	0.001919
3250.34	0.001959
3259.98	0.001769
3269.63	0.0015777
3279.27	0.0012302
3288.92	0.0008751
3298.56	0.0011172
3308.21	0.0005757
3317.85	0.0007514
3327.49	0.0009471
3337.14	0.0008297
3346.78	0.0007336
3356.43	0.0010608
3366.07	0.0010709
3375.72	0.0007698
3385.36	0.0008516
3395.01	0.0012677
3404.65	0.0012091
3414.3	0.0011795
3423.94	0.0009423
3433.59	0.0010079
3443.23	0.000827
3452.88	0.000857
3462.52	0.000849
3472.17	0.0010806
3481.81	0.0008587
3491.46	0.0009611
3501.1	0.0013496
3510.75	0.0011175
3520.39	0.0007233
3530.04	0.0009856
3539.68	0.0010083
3549.32	0.0009473
3558.97	0.0008932
3568.61	0.0013591
3578.26	0.0012183
3587.9	0.001343
3597.55	0.0012931
3607.19	0.0014821
3616.84	0.0010553
3626.48	0.0012038
3636.13	0.0011992
3645.77	0.0015133
3655.42	0.001371
3665.06	0.0011377
3674.71	0.0007704
3684.35	0.0012907
3694	0.001939
3703.64	0.002279
3713.29	0.001939
3722.93	0.0012471
3732.58	0.0011734
3742.22	0.001007
3751.86	0.0008684
3761.51	0.0012664
3771.15	0.00070321
3780.8	0.0006487
3790.44	0.0005356
3800.09	0.00062185
3809.73	0.0009702
3819.38	0.00068843
3829.02	0.00039
3838.67	0.000553
3848.31	0.000584
3857.96	0.0007303
3867.6	0.0005547
3877.25	0
3886.89	0.0008771
3896.54	0.0005177
3906.18	0.00064199
3915.83	0.0009051
3925.47	0.00069257
3935.12	0.000364
3944.76	0.0007272
3954.41	0.0010514
3964.05	0.0010609
3973.69	0.001899
3983.34	0.001129
3992.98	0.0015195
