Infrared Spectrum: Diisobutylamine, hydrochloride
Formula: C8 H20 Cl N
CAS: 18251-82-6
State: SOLID (KBr DISC, 0.8% WT.)
Class: COBLENTZ III
Instrument: PERKIN-ELMER 157
Sampling: TRANSMISSION
Resolution: 2
Origin: BRITISH PETROLEUM CO. LTD., ENGLAND
1/CM	TRANSMITTANCE
667	0.9508
676	0.9397
685	0.9204
694	0.894
703	0.8695
712	0.8546
721	0.8281
730	0.7928
739	0.7544
748	0.7036
757	0.6255
766	0.5846
775	0.5518
784	0.5014
793	0.4817
802	0.4188
811	0.378
820	0.4721
829	0.4245
838	0.3911
847	0.4083
856	0.5251
865	0.5609
874	0.575
883	0.5745
892	0.6337
901	0.6361
910	0.6282
919	0.5739
928	0.4028
937	0.4967
946	0.4585
955	0.3258
964	0.3268
973	0.4351
982	0.3159
991	0.2647
1000	0.1836
1009	0.0652
1018	0.0738
1027	0.1676
1036	0.3431
1045	0.4727
1054	0.5334
1063	0.563
1072	0.5753
1081	0.5789
1090	0.5786
1099	0.5579
1108	0.5063
1117	0.5178
1126	0.5592
1135	0.5666
1144	0.5362
1153	0.476
1162	0.4492
1171	0.3102
1180	0.2533
1189	0.3707
1198	0.5127
1207	0.5374
1216	0.5326
1225	0.4871
1234	0.4337
1243	0.4708
1252	0.5133
1261	0.5017
1270	0.4792
1279	0.3819
1288	0.2506
1297	0.3263
1306	0.3527
1315	0.3259
1324	0.3431
1333	0.3206
1342	0.2461
1351	0.201
1360	0.1586
1369	0.0711
1378	0.1128
1387	0.0819
1396	0.075
1405	0.0706
1414	0.0357
1423	0.0201
1432	0.0222
1441	0.026
1450	0.0235
1459	0.0173
1468	0.017
1477	0.027
1486	0.0887
1495	0.1845
1504	0.2203
1513	0.2286
1522	0.2302
1531	0.2285
1540	0.2208
1549	0.1992
1558	0.1765
1567	0.1499
1576	0.1028
1585	0.0564
1594	0.0553
1603	0.1036
1612	0.1757
1621	0.2618
1630	0.3014
1639	0.3294
1648	0.3451
1657	0.3476
1666	0.3565
1675	0.3753
1684	0.3834
1693	0.3877
1702	0.3924
1711	0.3979
1720	0.4002
1729	0.4097
1738	0.4131
1747	0.4143
1756	0.4152
1765	0.4135
1774	0.4043
1783	0.393
1792	0.3739
1801	0.3699
1810	0.3654
1819	0.3526
1828	0.3339
1837	0.3293
1846	0.3294
1855	0.3406
1864	0.3491
1873	0.3599
1882	0.3838
1891	0.4034
1900	0.4144
1909	0.4154
1918	0.4163
1927	0.4162
1936	0.4162
1945	0.4163
1954	0.4165
1963	0.4168
1972	0.4177
1981	0.4182
1990	0.4186
1999	0.4192
2008	0.4176
2017	0.4182
2026	0.421
2035	0.4233
2044	0.4254
2053	0.4281
2062	0.4292
2071	0.4263
2080	0.4221
2089	0.4175
2098	0.4109
2107	0.4039
2116	0.3983
2125	0.3953
2134	0.3941
2143	0.392
2152	0.3849
2161	0.3764
2170	0.3706
2179	0.37
2188	0.3696
2197	0.3662
2206	0.3594
2215	0.3523
2224	0.3444
2233	0.3355
2242	0.3317
2251	0.33
2260	0.3279
2269	0.3227
2278	0.3064
2287	0.2884
2296	0.2588
2305	0.2426
2314	0.2209
2323	0.2024
2332	0.187
2341	0.1733
2350	0.1615
2359	0.1358
2368	0.1089
2377	0.0884
2386	0.071
2395	0.0578
2404	0.0539
2413	0.0548
2422	0.0602
2431	0.0698
2440	0.0952
2449	0.126
2458	0.1333
2467	0.133
2476	0.131
2485	0.1137
2494	0.0946
2503	0.076
2512	0.044
2521	0.0376
2530	0.0357
2539	0.0348
2548	0.0343
2557	0.0346
2566	0.0361
2575	0.0412
2584	0.0444
2593	0.0454
2602	0.0454
2611	0.0422
2620	0.0287
2629	0.0193
2638	0.0158
2647	0.0144
2656	0.0137
2665	0.013
2674	0.0126
2683	0.0123
2692	0.0121
2701	0.0119
2710	0.0118
2719	0.0116
2728	0.0116
2737	0.0115
2746	0.0115
2755	0.0114
2764	0.0114
2773	0.0114
2782	0.0114
2791	0.0114
2800	0.0114
2809	0.0114
2818	0.0114
2827	0.0115
2836	0.0116
2845	0.0117
2854	0.0118
2863	0.0118
2872	0.0119
2881	0.0121
2890	0.0122
2899	0.0124
2908	0.0127
2917	0.0128
2926	0.013
2935	0.0133
2944	0.0134
2953	0.0137
2962	0.0139
2971	0.0143
2980	0.0148
2989	0.0154
2998	0.0161
3007	0.0171
3016	0.019
3025	0.021
3034	0.0226
3043	0.0241
3052	0.025
3061	0.0257
3070	0.027
3079	0.029
3088	0.0309
3097	0.0318
3106	0.0325
3115	0.0333
3124	0.0345
3133	0.0365
3142	0.0386
3151	0.0416
3160	0.0456
3169	0.05
3178	0.0555
3187	0.0616
3196	0.0679
3205	0.0744
3214	0.081
3223	0.088
3232	0.0932
3241	0.0949
3250	0.096
3259	0.0964
3268	0.0968
3277	0.0972
3286	0.0973
3295	0.0973
3304	0.0974
3313	0.0974
3322	0.0976
3331	0.0977
3340	0.0979
3349	0.0982
3358	0.0986
3367	0.0992
3376	0.1007
3385	0.102
3394	0.103
3403	0.104
3412	0.105
3421	0.1056
3430	0.1064
3439	0.1072
3448	0.1081
3457	0.1091
3466	0.1102
3475	0.1114
3484	0.1124
3493	0.1133
3502	0.1139
3511	0.1139
3520	0.1138
3529	0.1138
3538	0.1144
3547	0.1157
3556	0.1179
3565	0.12
3574	0.1218
3583	0.123
3592	0.1242
3601	0.1247
3610	0.1248
3619	0.1248
3628	0.1246
3637	0.1242
3646	0.1239
3655	0.1235
3664	0.1232
3673	0.123
3682	0.1226
3691	0.1223
3700	0.1218
3709	0.1212
3718	0.1204
3727	0.1188
3736	0.1171
3745	0.1152
3754	0.1131
3763	0.1109
3772	0.1087
3781	0.1068
3790	0.1049
3799	0.1036
3808	0.1027
3817	0.1017
3826	0.101
3835	0.1003
3844	0.0996
3853	0.0993
3862	0.0992
3871	0.0989
3880	0.0988
3889	0.0986
3898	0.0985
3907	0.0984
3916	0.0983
3925	0.0982
3934	0.0981
3943	0.0981
3952	0.0981
3961	0.098
3970	0.098
3979	0.098
3988	0.0979
3997	0.0979
