Infrared Spectrum: PCP, Methyl ether
Formula: C 7 H 3 Cl 5 O
CAS: 1825-21-4
State: gas
Instrument: HP-GC/MS/IRD
Origin: NIST Mass Spectrometry Data Center
1/CM	ABSORBANCE
550	0.0003402
562	0.0002592
574	0.0002322
586	0.000297
598	0.0002592
610	0.0001458
622	0.0002646
634	0.0004212
646	0.0011286
658	0.000837
670	0.0008478
682	0.0012744
694	0.0030186
706	0.008154
718	0.0118152
730	0.0071928
742	0.004023
754	0.0075168
766	0.0075762
778	0.001944
790	0.0010044
802	0.0009936
814	0.0007344
826	0.0004266
838	0.000513
850	0.0003996
862	0.000405
874	0.0003402
886	0.0004158
898	0.000621
910	0.0016632
922	0.003348
934	0.0021816
946	0.0010476
958	0.0008154
970	0.0009126
982	0.0009288
994	0.0009396
1006	0.0017874
1018	0.0063396
1030	0.0161082
1042	0.013473
1054	0.0048492
1066	0.0017712
1078	0.0009234
1090	0.0008424
1102	0.000702
1114	0.000756
1126	0.0010962
1138	0.0013608
1150	0.000891
1162	0.0008262
1174	0.0008748
1186	0.0011124
1198	0.001269
1210	0.0013176
1222	0.0011016
1234	0.0012204
1246	0.001431
1258	0.0012798
1270	0.0011772
1282	0.0011826
1294	0.0018846
1306	0.0031752
1318	0.0057078
1330	0.0075114
1342	0.0107244
1354	0.0212976
1366	0.0428922
1378	0.047061
1390	0.012042
1402	0.003537
1414	0.0021438
1426	0.001674
1438	0.002457
1450	0.006102
1462	0.003078
1474	0.0017982
1486	0.0015066
1498	0.001431
1510	0.001566
1522	0.0019224
1534	0.0024786
1546	0.0022842
1558	0.0009666
1570	0.0006642
1582	0.0006372
1594	0.000567
1606	0.000513
1618	0.0004158
1630	0.0003672
1642	0.0003078
1654	0.000297
1666	0.0003186
1678	0.0003078
1690	0.0002862
1702	0.0002808
1714	0.0003024
1726	0.0003726
1738	0.0004212
1750	0.000378
1762	0.0003294
1774	0.0003186
1786	0.0003618
1798	0.0003348
1810	0.0002808
1822	0.0002592
1834	0.0003024
1846	0.000378
1858	0.0003186
1870	0.000243
1882	0.0002376
1894	0.0002106
1906	0.0002376
1918	0.000297
1930	0.0003024
1942	0.000432
1954	0.0004914
1966	0.000405
1978	0.000324
1990	0.0003078
2002	0.0003024
2014	0.0003618
2026	0.0003186
2038	0.0002862
2050	0.0003024
2062	0.0003186
2074	0.0002808
2086	0.0002106
2098	0.0002376
2110	0.0001998
2122	0.0002484
2134	0.0002052
2146	0.0002376
2158	0.0001998
2170	0.0001998
2182	0.000216
2194	0.0002268
2206	0.0002052
2218	0.000162
2230	0.000216
2242	0.0002214
2254	0.0002052
2266	0.0002322
2278	0.0002754
2290	0.000324
2302	0.0002808
2314	0.0002268
2326	0.0001674
2338	0.0001134
2350	0.0001458
2362	0.0001404
2374	0.0001998
2386	0.0001728
2398	0.0001836
2410	0.0001674
2422	0.0001782
2434	0.0001728
2446	0.0001296
2458	0.000162
2470	0.0001512
2482	0.0001458
2494	0.0001674
2506	0.0001674
2518	0.0001026
2530	0.0001134
2542	0.0001404
2554	0.0001134
2566	0.0001458
2578	0.0001458
2590	0.0001566
2602	0.0001512
2614	0.0001566
2626	0.0002106
2638	0.0001728
2650	0.0001512
2662	0.000108
2674	0.0001458
2686	5.94e-05
2698	5.4e-05
2710	0.0001296
2722	0.0001566
2734	0.0001728
2746	0.0001026
2758	0.000135
2770	0.0001674
2782	9.72e-05
2794	0.0001512
2806	0.0002646
2818	0.000351
2830	0.0003402
2842	0.0005886
2854	0.0014256
2866	0.002295
2878	0.0011286
2890	0.000729
2902	0.0007938
2914	0.000945
2926	0.001161
2938	0.0025596
2950	0.004887
2962	0.0025434
2974	0.0018684
2986	0.0014688
2998	0.0011502
3010	0.0013446
3022	0.0015984
3034	0.0011718
3046	0.0008478
3058	0.0006426
3070	0.0005994
3082	0.000513
3094	0.0003618
3106	0.0002646
3118	0.000297
3130	0.0002106
3142	0.0001998
3154	0.0001836
3166	9.72e-05
3178	0.0001296
3190	7.02e-05
3202	8.1e-05
3214	0.000135
3226	0.0001458
3238	0.0001026
3250	2.7e-05
3262	0
3274	3.78e-05
3286	0.000108
3298	0.0001944
3310	7.56e-05
3322	0.0001134
3334	0.0001404
3346	9.18e-05
3358	7.56e-05
3370	0.0001242
3382	7.02e-05
3394	0.0001296
3406	0.0001296
3418	0.000108
3430	0.0001674
3442	5.94e-05
3454	9.18e-05
3466	0.000135
3478	0.0001512
3490	9.72e-05
3502	0.000108
3514	0.0001728
3526	0.0001458
3538	0.0002106
3550	5.94e-05
3562	0.0001026
3574	0.0001782
3586	0.0001458
3598	0.000108
3610	4.86e-05
3622	0.0001782
3634	0.0001404
3646	7.56e-05
3658	8.64e-05
3670	0.000135
3682	0.0001134
3694	5.94e-05
3706	0.0001404
3718	0.0001188
3730	5.4e-05
3742	0.0001728
3754	4.86e-05
3766	0.000162
3778	8.64e-05
3790	0.0001296
3802	9.72e-05
3814	0.0001782
3826	0.0002052
3838	0.0001134
