Infrared Spectrum: TRIMETHYL ETHOXY SILANE
Formula: C5 H14 O Si
CAS: 1825-62-3
State: LIQUID
Class: COBLENTZ
Instrument: Not specified, most likely a prism, grating, or hybrid spectrometer.
Sampling: TRANSMISSION
Path length: 0.003 CM
Resolution: 4
Origin: WYANDOTTE CHEMICALS CORP., WYANDOTTE, MICHIGAN, USA
MICROMETERS	TRANSMITTANCE
2.028	0.98
2.06686	0.98
2.10572	0.975
2.14458	0.977
2.18344	0.965
2.2223	0.946
2.26116	0.957
2.30002	0.956
2.33888	0.957
2.37775	0.954
2.41661	0.957
2.45547	0.959
2.49433	0.965
2.53319	0.969
2.57205	0.967
2.61091	0.957
2.64977	0.959
2.68863	0.959
2.72749	0.959
2.76635	0.961
2.80521	0.957
2.84407	0.944
2.88293	0.941
2.92179	0.951
2.96065	0.964
2.99951	0.97
3.03837	0.97
3.07724	0.964
3.1161	0.952
3.15496	0.938
3.19382	0.925
3.23268	0.889
3.27154	0.844
3.3104	0.569
3.34926	0.118
3.38812	0.25
3.42698	0.282
3.46584	0.25
3.5047	0.454
3.54356	0.74
3.58242	0.831
3.62128	0.86
3.66014	0.85
3.699	0.91
3.73787	0.941
3.77673	0.946
3.81559	0.948
3.85445	0.954
3.89331	0.962
3.93217	0.967
3.97103	0.97
4.00989	0.969
4.04875	0.954
4.08761	0.954
4.12647	0.954
4.16533	0.956
4.20419	0.969
4.24305	0.97
4.28191	0.98
4.32077	0.982
4.35963	0.98
4.3985	0.972
4.43736	0.97
4.47622	0.967
4.51508	0.962
4.55394	0.965
4.5928	0.962
4.63166	0.954
4.67052	0.951
4.70938	0.962
4.74824	0.957
4.7871	0.949
4.82596	0.951
4.86482	0.954
4.90368	0.964
4.94254	0.97
4.9814	0.967
5.02026	0.954
5.05912	0.944
5.09799	0.944
5.13685	0.939
5.17571	0.926
5.21457	0.918
5.25343	0.938
5.29229	0.951
5.33115	0.949
5.37001	0.939
5.40887	0.909
5.44773	0.905
5.48659	0.9
5.52545	0.902
5.56431	0.913
5.60317	0.925
5.64203	0.935
5.68089	0.939
5.71975	0.944
5.75862	0.941
5.79748	0.935
5.83634	0.935
5.8752	0.936
5.91406	0.928
5.95292	0.925
5.99178	0.925
6.03064	0.925
6.0695	0.931
6.10836	0.938
6.14722	0.935
6.18608	0.935
6.22494	0.933
6.2638	0.928
6.30266	0.925
6.34152	0.925
6.38038	0.917
6.41924	0.913
6.45811	0.907
6.49697	0.904
6.53583	0.894
6.57469	0.889
6.61355	0.87
6.65241	0.837
6.69127	0.761
6.73013	0.79
6.76899	0.771
6.80785	0.683
6.84671	0.603
6.88557	0.553
6.92443	0.602
6.96329	0.657
7.00215	0.657
7.04101	0.631
7.07987	0.587
7.11874	0.493
7.1576	0.266
7.19646	0.613
7.23532	0.702
7.27418	0.727
7.31304	0.746
7.3519	0.756
7.39076	0.767
7.42962	0.782
7.46848	0.795
7.50734	0.798
7.5462	0.79
7.58506	0.748
7.62392	0.67
7.66278	0.561
7.70164	0.508
7.7405	0.519
7.77937	0.55
7.81823	0.508
7.85709	0.292
7.89595	0.061
7.93481	0.029
7.97367	0.043
8.01253	0.311
8.05139	0.56
8.09025	0.665
8.12911	0.724
8.16797	0.753
8.20683	0.767
8.24569	0.775
8.28455	0.771
8.32341	0.748
8.36227	0.712
8.40113	0.65
8.43999	0.56
8.47886	0.451
8.51772	0.323
8.55658	0.303
8.59544	0.353
8.6343	0.402
8.67316	0.418
8.71202	0.405
8.75088	0.321
8.78974	0.227
8.8286	0.123
8.86746	0.05
8.90632	0.029
8.94518	0.025
8.98404	0.03
9.0229	0.047
9.06176	0.086
9.10062	0.063
9.13949	0.035
9.17835	0.03
9.21721	0.034
9.25607	0.048
9.29493	0.115
9.33379	0.219
9.37265	0.3
9.41151	0.404
9.45037	0.464
9.48923	0.538
9.52809	0.59
9.56695	0.633
9.60581	0.678
9.64467	0.714
9.68353	0.754
9.72239	0.78
9.76125	0.801
9.80012	0.811
9.83898	0.818
9.87784	0.821
9.9167	0.826
9.95556	0.829
9.99442	0.831
10.0333	0.824
10.0721	0.818
10.111	0.798
10.1499	0.782
10.1887	0.745
10.2276	0.709
10.2664	0.65
10.3053	0.573
10.3442	0.5
10.383	0.392
10.4219	0.25
10.4607	0.137
10.4996	0.068
10.5385	0.048
10.5773	0.045
10.6162	0.053
10.655	0.086
10.6939	0.149
10.7328	0.227
10.7716	0.319
10.8105	0.422
10.8494	0.534
10.8882	0.594
10.9271	0.631
10.9659	0.642
11.0048	0.654
11.0437	0.65
11.0825	0.634
11.1214	0.612
11.1602	0.582
11.1991	0.538
11.238	0.5
11.2768	0.452
11.3157	0.405
11.3545	0.334
11.3934	0.262
11.4323	0.189
11.4711	0.12
11.51	0.074
11.5488	0.043
11.5877	0.032
11.6266	0.029
11.6654	0.03
11.7043	0.029
11.7431	0.03
11.782	0.03
11.8209	0.03
11.8597	0.029
11.8986	0.029
11.9374	0.029
11.9763	0.03
12.0152	0.035
12.054	0.043
12.0929	0.071
12.1317	0.113
12.1706	0.173
12.2095	0.246
12.2483	0.298
12.2872	0.352
12.3261	0.4
12.3649	0.443
12.4038	0.482
12.4426	0.514
12.4815	0.543
12.5204	0.55
12.5592	0.551
12.5981	0.56
12.6369	0.59
12.6758	0.613
12.7147	0.628
12.7535	0.628
12.7924	0.625
12.8312	0.615
12.8701	0.597
12.909	0.56
12.9478	0.524
12.9867	0.485
13.0255	0.415
13.0644	0.334
13.1033	0.264
13.1421	0.201
13.181	0.17
13.2198	0.168
13.2587	0.17
13.2976	0.173
13.3364	0.173
13.3753	0.172
13.4141	0.191
13.453	0.24
13.4919	0.303
13.5307	0.373
13.5696	0.435
13.6085	0.469
13.6473	0.493
13.6862	0.503
13.725	0.501
13.7639	0.49
13.8028	0.488
13.8416	0.485
13.8805	0.491
13.9193	0.509
13.9582	0.524
13.9971	0.542
14.0359	0.569
14.0748	0.579
14.1136	0.595
14.1525	0.615
14.1914	0.626
14.2302	0.633
14.2691	0.639
14.3079	0.641
14.3468	0.636
14.3857	0.629
14.4245	0.613
14.4634	0.599
14.5022	0.582
14.5411	0.573
14.58	0.561
14.6188	0.558
14.6577	0.563
14.6965	0.573
14.7354	0.6
14.7743	0.637
14.8131	0.685
14.852	0.724
14.8909	0.759
14.9297	0.782
14.9686	0.803
15.0074	0.81
15.0463	0.816
15.0852	0.84
15.124	0.858
15.1629	0.863
15.2017	0.865
15.2406	0.865
15.2795	0.865
15.3183	0.865
15.3572	0.855
15.396	0.86
15.4349	0.86
15.4738	0.857
15.5126	0.855
15.5515	0.853
15.5903	0.852
15.6292	0.85
15.6681	0.847
15.7069	0.84
15.7458	0.84
15.7846	0.84
15.8235	0.837
15.8624	0.836
15.9012	0.832
15.9401	0.829
15.9789	0.821
