Infrared Spectrum: ACETOPHENONE, 2,4'-DIHYDROXY-3'-METHOXY-
Formula: C9 H10 O4
CAS: 18256-48-9
State: SOLID (SPLIT MULL), FLUOROLUBE FOR 3800-1330 CM^-^1, NUJOL FOR 1330-400 CM^-^1
Class: COBLENTZ III
Instrument: DOW KBr FOREPRISM-GRATING
Instrument parameters: BLAZED AT 3.5, 12.0, 20.0 MICRON AND CHANGED AT 5.0, 7.5, 14.9 MICRON
Sampling: TRANSMISSION
Resolution: 2
Origin: DOW CHEMICAL COMPANY
1/CM	TRANSMITTANCE
383	0.7922
392	0.7942
401	0.7997
410	0.8043
419	0.8083
428	0.8107
437	0.8083
446	0.8025
455	0.7961
464	0.8117
473	0.8496
482	0.8565
491	0.8528
500	0.8403
509	0.8261
518	0.8293
527	0.7982
536	0.7835
545	0.7906
554	0.7992
563	0.8125
572	0.8389
581	0.8663
590	0.8744
599	0.8764
608	0.8702
617	0.7928
626	0.7728
635	0.8405
644	0.8751
653	0.8765
662	0.8784
671	0.8415
680	0.8228
689	0.8021
698	0.7736
707	0.7421
716	0.7422
725	0.7311
734	0.7239
743	0.6948
752	0.7006
761	0.6152
770	0.4119
779	0.7561
788	0.7481
797	0.6495
806	0.6938
815	0.7065
824	0.8586
833	0.8589
842	0.8521
851	0.8428
860	0.8275
869	0.5725
878	0.4082
887	0.6565
896	0.8528
905	0.8574
914	0.8531
923	0.8197
932	0.84
941	0.8359
950	0.8384
959	0.8291
968	0.8202
977	0.8072
986	0.7828
995	0.7026
1004	0.5843
1013	0.3507
1022	0.694
1031	0.4823
1040	0.7756
1049	0.7842
1058	0.7647
1067	0.7314
1076	0.6561
1085	0.544
1094	0.2034
1103	0.4086
1112	0.6317
1121	0.7306
1130	0.6419
1139	0.6174
1148	0.6356
1157	0.6266
1166	0.4859
1175	0.3794
1184	0.4116
1193	0.3296
1202	0.3024
1211	0.2602
1220	0.4191
1229	0.4714
1238	0.4578
1247	0.3872
1256	0.3432
1265	0.3899
1274	0.2651
1283	0.1617
1292	0.0471
1301	0.1654
1310	0.343
1319	0.5918
1328	0.688
1337	0.5427
1346	0.5762
1355	0.6274
1364	0.6057
1373	0.5376
1382	0.4871
1391	0.3734
1400	0.2051
1409	0.3189
1418	0.3134
1427	0.0506
1436	0.1576
1445	0.4649
1454	0.2329
1463	0.1725
1472	0.2224
1481	0.5632
1490	0.5544
1499	0.4493
1508	0.1784
1517	0.08
1526	0.287
1535	0.6818
1544	0.6932
1553	0.6806
1562	0.639
1571	0.5528
1580	0.3527
1589	0.1072
1598	0.1785
1607	0.1442
1616	0.6475
1625	0.7514
1634	0.7175
1643	0.6958
1652	0.6489
1661	0.5908
1670	0.2316
1679	0.0316
1688	0.5036
1697	0.7675
1706	0.8596
1715	0.8614
1724	0.8442
1733	0.8135
1742	0.8235
1751	0.8244
1760	0.8191
1769	0.8254
1778	0.8371
1787	0.8346
1796	0.8305
1805	0.8251
1814	0.822
1823	0.8193
1832	0.8165
1841	0.8108
1850	0.7985
1859	0.7983
1868	0.7861
1877	0.7985
1886	0.8069
1895	0.8018
1904	0.7895
1913	0.7918
1922	0.79
1931	0.7867
1940	0.7826
1949	0.7771
1958	0.7725
1967	0.7692
1976	0.7665
1985	0.7638
1994	0.7536
2003	0.6918
2012	0.6889
2021	0.686
2030	0.6828
2039	0.6797
2048	0.6758
2057	0.6718
2066	0.669
2075	0.6675
2084	0.6667
2093	0.6658
2102	0.6649
2111	0.6638
2120	0.6622
2129	0.66
2138	0.6565
2147	0.6528
2156	0.6494
2165	0.6451
2174	0.6372
2183	0.6324
2192	0.6289
2201	0.6256
2210	0.622
2219	0.6188
2228	0.6158
2237	0.6119
2246	0.6074
2255	0.6033
2264	0.5982
2273	0.5912
2282	0.5886
2291	0.5882
2300	0.5854
2309	0.5777
2318	0.5688
2327	0.5654
2336	0.5647
2345	0.5639
2354	0.5637
2363	0.5638
2372	0.564
2381	0.5635
2390	0.5631
2399	0.5619
2408	0.5605
2417	0.5579
2426	0.5553
2435	0.5512
2444	0.5475
2453	0.5444
2462	0.5426
2471	0.5424
2480	0.5431
2489	0.5425
2498	0.5412
2507	0.5409
2516	0.5378
2525	0.5331
2534	0.5272
2543	0.5224
2552	0.5187
2561	0.5165
2570	0.5157
2579	0.5155
2588	0.5156
2597	0.5154
2606	0.514
2615	0.5108
2624	0.5052
2633	0.4992
2642	0.4936
2651	0.4889
2660	0.4871
2669	0.4872
2678	0.4869
2687	0.4859
2696	0.4834
2705	0.4781
2714	0.4712
2723	0.4609
2732	0.4498
2741	0.4419
2750	0.4384
2759	0.4365
2768	0.4358
2777	0.4349
2786	0.4319
2795	0.4273
2804	0.4207
2813	0.4112
2822	0.3984
2831	0.3759
2840	0.3614
2849	0.3573
2858	0.3586
2867	0.3647
2876	0.3659
2885	0.3595
2894	0.3496
2903	0.3359
2912	0.3255
2921	0.3156
2930	0.3002
2939	0.293
2948	0.3005
2957	0.3185
2966	0.3161
2975	0.3045
2984	0.2759
2993	0.258
3002	0.2527
3011	0.2921
3020	0.2842
3029	0.2678
3038	0.2447
3047	0.2163
3056	0.1979
3065	0.1936
3074	0.2064
3083	0.2032
3092	0.1916
3101	0.18
3110	0.1689
3119	0.1606
3128	0.1541
3137	0.1492
3146	0.146
3155	0.1441
3164	0.1438
3173	0.1436
3182	0.1439
3191	0.1445
3200	0.1465
3209	0.1485
3218	0.1509
3227	0.1538
3236	0.1614
3245	0.1691
3254	0.1762
3263	0.1836
3272	0.1925
3281	0.2031
3290	0.2133
3299	0.2228
3308	0.2324
3317	0.242
3326	0.2519
3335	0.262
3344	0.2729
3353	0.278
3362	0.2788
3371	0.2763
3380	0.26
3389	0.2252
3398	0.1899
3407	0.2407
3416	0.2442
3425	0.1959
3434	0.2539
3443	0.3814
3452	0.4658
3461	0.511
3470	0.5212
3479	0.5264
3488	0.5297
3497	0.5321
3506	0.5344
3515	0.5369
3524	0.5376
3533	0.5364
3542	0.5347
3551	0.5328
3560	0.5303
3569	0.5259
3578	0.5212
3587	0.5224
3596	0.5215
3605	0.5173
3614	0.5137
3623	0.5104
3632	0.5074
3641	0.5041
3650	0.5004
3659	0.4966
3668	0.4928
3677	0.488
3686	0.4833
3695	0.4786
3704	0.4738
3713	0.469
3722	0.4642
3731	0.4595
3740	0.4548
3749	0.4499
3758	0.4472
3767	0.4468
3776	0.4465
3785	0.446
3794	0.4459
