Infrared Spectrum: NAPHTHALENE, 1,4-DICHLORO-
Formula: C10 H6 Cl2
CAS: 1825-31-6
State: SOLUTION (10% IN CCl4 FOR 3800-1330 AND 10% IN CS2 FOR 1330-400 CM^-^1)
Class: COBLENTZ III
Instrument: BECKMAN IR-9 (GRATING)
Instrument parameters: ORDER CHANGES AT 670, 1200, 2000 CM^-^1
Sampling: TRANSMISSION
Path length: 0.011, 0.011 CM
Resolution: 4
Origin: DOW CHEMICAL COMPANY
1/CM	TRANSMITTANCE
400	0.451
408.686	0.36
417.372	0.374
426.059	0.559
434.745	0.662
443.431	0.698
452.117	0.748
460.804	0.822
469.49	0.858
478.176	0.88
486.862	0.873
495.548	0.887
504.235	0.926
512.921	0.943
521.607	0.949
530.293	0.944
538.979	0.953
547.666	0.955
556.352	0.959
565.038	0.944
573.724	0.88
582.411	0.932
591.097	0.373
599.783	0.827
608.469	0.932
617.155	0.947
625.842	0.951
634.528	0.947
643.214	0.924
651.9	0.909
660.586	0.906
669.273	0.921
677.959	0.613
686.645	0.947
695.331	0.955
704.018	0.956
712.704	0.955
721.39	0.948
730.076	0.944
738.762	0.929
747.449	0.823
756.135	0.18
764.821	0.34
773.507	0.864
782.194	0.873
790.88	0.9
799.566	0.913
808.252	0.883
816.938	0.253
825.625	0.5791
834.311	0.875
842.997	0.857
851.683	0.789
860.369	0.742
869.056	0.815
877.742	0.853
886.428	0.892
895.114	0.854
903.801	0.858
912.487	0.926
921.173	0.905
929.859	0.934
938.545	0.948
947.232	0.936
955.918	0.861
964.604	0.911
973.29	0.838
981.977	0.127
990.663	0.754
999.349	0.902
1008.04	0.928
1016.72	0.925
1025.41	0.843
1034.09	0.891
1042.78	0.955
1051.47	0.963
1060.15	0.97
1068.84	0.972
1077.52	0.972
1086.21	0.962
1094.9	0.957
1103.58	0.948
1112.27	0.96
1120.96	0.96
1129.64	0.947
1138.33	0.849
1147.01	0.4881
1155.7	0.776
1164.39	0.831
1173.07	0.856
1181.76	0.3089
1190.45	0.188
1199.13	0.791
1207.82	0.883
1216.5	0.917
1225.19	0.94
1233.88	0.947
1242.56	0.932
1251.25	0.237
1259.94	0.871
1268.62	0.833
1277.31	0.929
1285.99	0.956
1294.68	0.952
1303.37	0.77
1312.05	0.951
1320.74	0.934
1329.43	0.91
1338.11	0.757
1346.8	0.905
1355.48	0.877
1364.17	0.4148
1372.86	0.347
1381.54	0.671
1390.23	0.739
1398.91	0.905
1407.6	0.909
1416.29	0.704
1424.97	0.909
1433.66	0.9
1442.35	0.93
1451.03	0.6278
1459.72	0.915
1468.4	0.911
1477.09	0.91
1485.78	0.89
1494.46	0.748
1503.15	0.672
1511.84	0.747
1520.52	0.705
1529.21	0.655
1537.89	0.573
1546.58	0.491
1555.27	0.492
1563.95	0.54
1572.64	0.534
1581.33	0.392
1590.01	0.468
1598.7	0.77
1607.38	0.849
1616.07	0.85
1624.76	0.871
1633.44	0.894
1642.13	0.857
1650.82	0.909
1659.5	0.926
1668.19	0.945
1676.87	0.947
1685.56	0.948
1694.25	0.94
1702.93	0.944
1711.62	0.907
1720.3	0.913
1728.99	0.941
1737.68	0.945
1746.36	0.922
1755.05	0.948
1763.74	0.956
1772.42	0.955
1781.11	0.955
1789.79	0.953
1798.48	0.944
1807.17	0.936
1815.85	0.88
1824.54	0.932
1833.23	0.911
1841.91	0.85
1850.6	0.803
1859.28	0.922
1867.97	0.943
1876.66	0.952
1885.34	0.952
1894.03	0.955
1902.72	0.947
1911.4	0.928
1920.09	0.947
1928.77	0.932
1937.46	0.913
1946.15	0.947
1954.83	0.924
1963.52	0.913
1972.21	0.949
1980.89	0.955
1989.58	0.955
1998.26	0.952
2006.95	0.953
2015.64	0.955
2024.32	0.956
2033.01	0.956
2041.69	0.956
2050.38	0.956
2059.07	0.956
2067.75	0.957
2076.44	0.957
2085.13	0.957
2093.81	0.9589
2102.5	0.96
2111.18	0.96
2119.87	0.96
2128.56	0.959
2137.24	0.956
2145.93	0.956
2154.62	0.957
2163.3	0.957
2171.99	0.959
2180.67	0.959
2189.36	0.959
2198.05	0.9561
2206.73	0.956
2215.42	0.956
2224.11	0.956
2232.79	0.956
2241.48	0.9533
2250.16	0.953
2258.85	0.9493
2267.54	0.944
2276.22	0.9402
2284.91	0.934
2293.6	0.93
2302.28	0.9328
2310.97	0.933
2319.65	0.9362
2328.34	0.941
2337.03	0.943
2345.71	0.9448
2354.4	0.9488
2363.08	0.948
2371.77	0.9488
2380.46	0.953
2389.14	0.956
2397.83	0.955
2406.52	0.952
2415.2	0.9527
2423.89	0.9575
2432.57	0.9597
2441.26	0.9589
2449.95	0.956
2458.63	0.96
2467.32	0.959
2476.01	0.9563
2484.69	0.956
2493.38	0.96
2502.06	0.959
2510.75	0.957
2519.44	0.959
2528.12	0.96
2536.81	0.959
2545.5	0.959
2554.18	0.9563
2562.87	0.957
2571.55	0.957
2580.24	0.9583
2588.93	0.96
2597.61	0.959
2606.3	0.956
2614.99	0.9564
2623.67	0.957
2632.36	0.9572
2641.04	0.9596
2649.73	0.96
2658.42	0.96
2667.1	0.959
2675.79	0.96
2684.47	0.9624
2693.16	0.96
2701.85	0.963
2710.53	0.963
2719.22	0.962
2727.91	0.96
2736.59	0.96
2745.28	0.9595
2753.96	0.956
2762.65	0.9595
2771.34	0.962
2780.02	0.96
2788.71	0.961
2797.4	0.962
2806.08	0.962
2814.77	0.96
2823.45	0.9625
2832.14	0.9635
2840.83	0.964
2849.51	0.964
2858.2	0.964
2866.89	0.962
2875.57	0.962
2884.26	0.962
2892.94	0.963
2901.63	0.9611
2910.32	0.9624
2919	0.964
2927.69	0.968
2936.38	0.967
2945.06	0.96
2953.75	0.959
2962.43	0.96
2971.12	0.9566
2979.81	0.9526
2988.49	0.9457
2997.18	0.9326
3005.86	0.94
3014.55	0.9423
3023.24	0.9236
3031.92	0.919
3040.61	0.9018
3049.3	0.831
3057.98	0.863
3066.67	0.8654
3075.35	0.736
3084.04	0.8359
3092.73	0.9034
3101.41	0.9302
3110.1	0.94
3118.79	0.934
3127.47	0.9333
3136.16	0.9433
3144.84	0.947
3153.53	0.9496
3162.22	0.955
3170.9	0.9563
3179.59	0.957
3188.28	0.957
3196.96	0.9592
3205.65	0.96
3214.33	0.9605
3223.02	0.9622
3231.71	0.9632
3240.39	0.966
3249.08	0.967
3257.77	0.968
3266.45	0.968
3275.14	0.968
3283.82	0.968
3292.51	0.968
3301.2	0.968
3309.88	0.9696
3318.57	0.9702
3327.26	0.968
3335.94	0.9683
3344.63	0.9702
3353.31	0.971
3362	0.9669
3370.69	0.9677
3379.37	0.968
3388.06	0.968
3396.74	0.964
3405.43	0.97
3414.12	0.968
3422.8	0.968
3431.49	0.97
3440.18	0.968
3448.86	0.967
3457.55	0.968
3466.23	0.968
3474.92	0.9669
3483.61	0.966
3492.29	0.9671
3500.98	0.968
3509.67	0.967
3518.35	0.968
3527.04	0.968
3535.72	0.968
3544.41	0.968
3553.1	0.968
3561.78	0.968
3570.47	0.97
3579.16	0.968
3587.84	0.967
3596.53	0.97
3605.21	0.97
3613.9	0.967
3622.59	0.967
3631.27	0.967
3639.96	0.967
3648.65	0.968
3657.33	0.967
3666.02	0.9659
3674.7	0.966
3683.39	0.968
3692.08	0.9681
3700.76	0.967
3709.45	0.9708
3718.13	0.9682
3726.82	0.97
3735.51	0.97
3744.19	0.9682
3752.88	0.9661
3761.57	0.964
3770.25	0.966
3778.94	0.967
