Infrared Spectrum: 4-Fluoro-.alpha.-methylbenzyl isothiocyanate
Formula: C 9 H 8 F N S
CAS: 182565-27-1
State: gas
Origin: EPA-IR VAPOR PHASE LIBRARY
1/CM	ABSORBANCE
549.8	0.01955
559.445	0.01297
569.09	0.01133
578.734	0.00998
588.379	0.008
598.024	0.00575
607.669	0.00436
617.313	0.00364
626.958	0.00364
636.603	0.0032
646.248	0.00311
655.893	0.00329
665.537	0.00405
675.182	0.00532
684.827	0.00582
694.472	0.0052
704.116	0.00427
713.761	0.00479
723.406	0.00653
733.051	0.00851
742.695	0.007
752.34	0.00397
761.985	0.00235
771.63	0.00216
781.275	0.0018
790.919	0.00207
800.564	0.00414
810.209	0.0096
819.854	0.01673
829.498	0.03368
839.143	0.04015
848.788	0.01944
858.433	0.0073
868.078	0.00346
877.722	0.00196
887.367	0.0017
897.012	0.00154
906.657	0.00167
916.301	0.00183
925.946	0.00209
935.591	0.00334
945.236	0.00575
954.88	0.00705
964.525	0.00553
974.17	0.00376
983.815	0.00282
993.46	0.00239
1003.1	0.00384
1012.75	0.0106
1022.39	0.01081
1032.04	0.01246
1041.68	0.00658
1051.33	0.00429
1060.97	0.00442
1070.62	0.00579
1080.26	0.00622
1089.91	0.00714
1099.55	0.00971
1109.2	0.00831
1118.84	0.00751
1128.49	0.00567
1138.13	0.00402
1147.78	0.00558
1157.42	0.02422
1167.07	0.02046
1176.71	0.00453
1186.36	0.00438
1196	0.00608
1205.64	0.00858
1215.29	0.01469
1224.93	0.02865
1234.58	0.08529
1244.22	0.09377
1253.87	0.02559
1263.51	0.01556
1273.16	0.01626
1282.8	0.01503
1292.45	0.01872
1302.09	0.02614
1311.74	0.03305
1321.38	0.03903
1331.03	0.03357
1340.67	0.02047
1350.32	0.01244
1359.96	0.0079
1369.61	0.00708
1379.25	0.00892
1388.9	0.00814
1398.54	0.00604
1408.18	0.00638
1417.83	0.00689
1427.47	0.00555
1437.12	0.00485
1446.76	0.0061
1456.41	0.00704
1466.05	0.00626
1475.7	0.0064
1485.34	0.00797
1494.99	0.01656
1504.63	0.05206
1514.28	0.08825
1523.92	0.03653
1533.57	0.00836
1543.21	0.00433
1552.86	0.00319
1562.5	0.00301
1572.15	0.00373
1581.79	0.0063
1591.44	0.01316
1601.08	0.02478
1610.73	0.02166
1620.37	0.01097
1630.01	0.00593
1639.66	0.00443
1649.3	0.00353
1658.95	0.00242
1668.59	0.00192
1678.24	0.00169
1687.88	0.00171
1697.53	0.001524
1707.17	0.0014863
1716.82	0.0013372
1726.46	0.0013795
1736.11	0.0016
1745.75	0.0022
1755.4	0.00316
1765.04	0.00248
1774.69	0.0016
1784.33	0.0014114
1793.98	0.0014057
1803.62	0.0013851
1813.27	0.0014044
1822.91	0.0014626
1832.55	0.0016
1842.2	0.00194
1851.84	0.00243
1861.49	0.0034
1871.13	0.00461
1880.78	0.00594
1890.42	0.0066
1900.07	0.00729
1909.71	0.00868
1919.36	0.01096
1929	0.01446
1938.65	0.01924
1948.29	0.02599
1957.94	0.03537
1967.58	0.0475
1977.23	0.06171
1986.87	0.07783
1996.52	0.10036
2006.16	0.1319
2015.81	0.16894
2025.45	0.20351
2035.1	0.225
2044.74	0.22174
2054.38	0.20045
2064.03	0.18244
2073.67	0.16149
2083.32	0.12623
2092.96	0.08915
2102.61	0.06695
2112.25	0.05874
2121.9	0.05809
2131.54	0.05839
2141.19	0.0545
2150.83	0.04848
2160.48	0.039
2170.12	0.0277
2179.77	0.01984
2189.41	0.01557
2199.06	0.0134
2208.7	0.01218
2218.35	0.01149
2227.99	0.01038
2237.64	0.00896
2247.28	0.00748
2256.92	0.00587
2266.57	0.0045
2276.21	0.00348
2285.86	0.00277
2295.5	0.00238
2305.15	0.00227
2314.79	0.00207
2324.44	0.00204
2334.08	0.00184
2343.73	0.00172
2353.37	0.00162
2363.02	0.0014178
2372.66	0.001339
2382.31	0.0013016
2391.95	0.0014363
2401.6	0.00166
2411.24	0.0015292
2420.89	0.0014538
2430.53	0.0015005
2440.18	0.00164
2449.82	0.00164
2459.47	0.00176
2469.11	0.00186
2478.75	0.00183
2488.4	0.0015009
2498.04	0.0014037
2507.69	0.0014085
2517.33	0.0014808
2526.98	0.0015314
2536.62	0.00174
2546.27	0.00166
2555.91	0.00204
2565.56	0.00217
2575.2	0.00214
2584.85	0.00213
2594.49	0.00209
2604.14	0.00196
2613.78	0.00188
2623.43	0.00172
2633.07	0.00162
2642.72	0.00155
2652.36	0.0013447
2662.01	0.0013306
2671.65	0.0015255
2681.29	0.00144
2690.94	0.0015241
2700.58	0.00176
2710.23	0.00191
2719.87	0.00189
2729.52	0.00205
2739.16	0.00224
2748.81	0.00247
2758.45	0.00257
2768.1	0.00251
2777.74	0.00233
2787.39	0.00224
2797.03	0.002
2806.68	0.0018
2816.32	0.0015123
2825.97	0.0013671
2835.61	0.0012981
2845.26	0.0012687
2854.9	0.0012697
2864.55	0.00179
2874.19	0.00277
2883.84	0.00361
2893.48	0.00387
2903.12	0.00496
2912.77	0.00758
2922.41	0.00852
2932.06	0.00814
2941.7	0.00853
2951.35	0.00643
2960.99	0.00374
2970.64	0.00387
2980.28	0.01034
2989.93	0.02867
2999.57	0.01752
3009.22	0.00501
3018.86	0.00316
3028.51	0.00304
3038.15	0.00465
3047.8	0.00602
3057.44	0.00475
3067.09	0.00327
3076.73	0.00338
3086.38	0.0029
3096.02	0.00191
3105.67	0.00165
3115.31	0.00174
3124.95	0.0014364
3134.6	0.0011338
3144.24	0.00071
3153.89	0.00058179
3163.53	0.0004
3173.18	0.0004525
3182.82	0.0004727
3192.47	0.00060178
3202.11	0.000497
3211.76	0.000425
3221.4	0.000326
3231.05	0.000545874
3240.69	0.000345
3250.34	0.000191
3259.98	0.000301
3269.63	0.000231
3279.27	0.000174
3288.92	6.6e-05
3298.56	4.1e-05
3308.21	0.000102
3317.85	0.000137
3327.49	0.000257
3337.14	0.000178
3346.78	0.00016
3356.43	0.000203
3366.07	0.00022
3375.72	0.000155
3385.36	0.000161
3395.01	0.000225
3404.65	0.000122
3414.3	0.000249
3423.94	0.000291
3433.59	0.000261
3443.23	0.000392
3452.88	0.000361
3462.52	0.000359
3472.17	0.000269
3481.81	0.000218
3491.46	0.000408
3501.1	0.000322
3510.75	0.000404
3520.39	0.000438
3530.04	0.000289
3539.68	0.0003
3549.32	0.000285
3558.97	0.000256
3568.61	0.000188
3578.26	0.000251
3587.9	0.000137
3597.55	0.00021
3607.19	0.000267
3616.84	0.000291
3626.48	0.000333
3636.13	0.000275
3645.77	0.000193
3655.42	0.000177
3665.06	0.000287
3674.71	0.00043
3684.35	0.000314
3694	0.0004576
3703.64	0.00033
3713.29	0.000361
3722.93	0.000403
3732.58	0.000417
3742.22	0.000407
3751.86	0.000365
3761.51	0.000269
3771.15	0.000295
3780.8	0.000146
3790.44	0.000197
3800.09	0.000321
3809.73	0.000303
3819.38	0.00033
3829.02	0.00036
3838.67	0.000249
3848.31	0.0004652
3857.96	0.00060968
3867.6	0.0004404
3877.25	0.00055008
3886.89	0.000545992
3896.54	0.00062838
3906.18	0.0007405
3915.83	0.00057543
3925.47	0.0007315
3935.12	0.0007954
3944.76	0.0008365
3954.41	0.0010205
3964.05	0.0011166
3973.69	0.0010361
3983.34	0.001159
3992.98	0.0012843
