Infrared Spectrum: 1-AMINO-3-NITROGUANIDINE
Formula: C H5 N5 O2
CAS: 18264-75-0
State: SOLID (MINERAL OIL MULL)
Melting point: 209 C DECOMPOSES
Class: COBLENTZ
Instrument: Not specified, most likely a prism, grating, or hybrid spectrometer.
Sampling: TRANSMISSION
Resolution: 4
Origin: WYANDOTTE CHEMICALS CORP., WYANDOTTE, MICHIGAN, USA
MICROMETERS	TRANSMITTANCE
2.014	0.604
2.05488	0.614
2.09575	0.624
2.13663	0.638
2.1775	0.631
2.21838	0.624
2.25926	0.645
2.30013	0.663
2.34101	0.677
2.38188	0.694
2.42276	0.716
2.46364	0.73
2.50451	0.738
2.54539	0.755
2.58626	0.783
2.62714	0.81
2.66802	0.824
2.70889	0.848
2.74977	0.868
2.79064	0.873
2.83152	0.827
2.8724	0.542
2.91327	0.298
2.95415	0.295
2.99502	0.281
3.0359	0.249
3.07678	0.221
3.11765	0.192
3.15853	0.177
3.1994	0.196
3.24028	0.22
3.28116	0.232
3.32203	0.163
3.36291	0.039
3.40378	0.023
3.44466	0.029
3.48554	0.034
3.52641	0.129
3.56729	0.298
3.60816	0.341
3.64904	0.361
3.68992	0.36
3.73079	0.365
3.77167	0.377
3.81255	0.392
3.85342	0.395
3.8943	0.407
3.93517	0.421
3.97605	0.438
4.01693	0.455
4.0578	0.455
4.09868	0.47
4.13955	0.486
4.18043	0.498
4.22131	0.506
4.26218	0.496
4.30306	0.525
4.34393	0.571
4.38481	0.614
4.42569	0.609
4.46656	0.617
4.50744	0.627
4.54831	0.646
4.58919	0.651
4.63007	0.656
4.67094	0.67
4.71182	0.689
4.75269	0.696
4.79357	0.699
4.83445	0.677
4.87532	0.703
4.9162	0.721
4.95707	0.742
4.99795	0.773
5.03883	0.796
5.0797	0.81
5.12058	0.822
5.16145	0.848
5.20233	0.87
5.24321	0.883
5.28408	0.904
5.32496	0.911
5.36583	0.914
5.40671	0.918
5.44759	0.899
5.48846	0.93
5.52934	0.933
5.57021	0.923
5.61109	0.89
5.65197	0.878
5.69284	0.877
5.73372	0.815
5.77459	0.774
5.81547	0.709
5.85635	0.6
5.89722	0.5
5.9381	0.337
5.97897	0.16
6.01985	0.22
6.06073	0.242
6.1016	0.197
6.14248	0.242
6.18335	0.286
6.22423	0.433
6.26511	0.511
6.30598	0.523
6.34686	0.474
6.38773	0.402
6.42861	0.322
6.46949	0.254
6.51036	0.184
6.55124	0.191
6.59211	0.194
6.63299	0.269
6.67387	0.319
6.71474	0.337
6.75562	0.245
6.79649	0.098
6.83737	0.138
6.87825	0.187
6.91912	0.235
6.96	0.24
7.00087	0.197
7.04175	0.158
7.08263	0.138
7.1235	0.139
7.16438	0.158
7.20525	0.143
7.24613	0.107
7.28701	0.163
7.32788	0.209
7.36876	0.244
7.40964	0.247
7.45051	0.235
7.49139	0.22
7.53226	0.197
7.57314	0.184
7.61402	0.17
7.65489	0.156
7.69577	0.162
7.73664	0.163
7.77752	0.163
7.8184	0.153
7.85927	0.167
7.90015	0.194
7.94102	0.211
7.9819	0.23
8.02278	0.249
8.06365	0.262
8.10453	0.269
8.1454	0.273
8.18628	0.276
8.22716	0.284
8.26803	0.281
8.30891	0.279
8.34978	0.271
8.39066	0.264
8.43154	0.252
8.47241	0.235
8.51329	0.218
8.55416	0.201
8.59504	0.197
8.63592	0.175
8.67679	0.163
8.71767	0.172
8.75854	0.189
8.79942	0.206
8.8403	0.22
8.88117	0.237
8.92205	0.245
8.96292	0.254
9.0038	0.254
9.04468	0.247
9.08555	0.245
9.12643	0.238
9.1673	0.23
9.20818	0.221
9.24906	0.209
9.28993	0.209
9.33081	0.204
9.37168	0.196
9.41256	0.191
9.45344	0.186
9.49431	0.18
9.53519	0.174
9.57606	0.158
9.61694	0.153
9.65782	0.156
9.69869	0.156
9.73957	0.16
9.78044	0.165
9.82132	0.172
9.8622	0.179
9.90307	0.191
9.94395	0.199
9.98482	0.213
10.0257	0.23
10.0666	0.247
10.1075	0.266
10.1483	0.281
10.1892	0.295
10.2301	0.305
10.271	0.322
10.3118	0.313
10.3527	0.286
10.3936	0.295
10.4345	0.303
10.4753	0.322
10.5162	0.334
10.5571	0.341
10.598	0.346
10.6388	0.348
10.6797	0.351
10.7206	0.366
10.7615	0.382
10.8023	0.404
10.8432	0.412
10.8841	0.423
10.925	0.438
10.9658	0.452
11.0067	0.462
11.0476	0.476
11.0885	0.488
11.1294	0.5
11.1702	0.505
11.2111	0.515
11.252	0.523
11.2929	0.53
11.3337	0.54
11.3746	0.552
11.4155	0.566
11.4564	0.571
11.4972	0.576
11.5381	0.585
11.579	0.587
11.6199	0.595
11.6607	0.6
11.7016	0.602
11.7425	0.605
11.7834	0.61
11.8242	0.619
11.8651	0.621
11.906	0.629
11.9469	0.639
11.9877	0.648
12.0286	0.653
12.0695	0.655
12.1104	0.66
12.1513	0.665
12.1921	0.672
12.233	0.679
12.2739	0.679
12.3148	0.68
12.3556	0.68
12.3965	0.687
12.4374	0.689
12.4783	0.687
12.5191	0.679
12.56	0.663
12.6009	0.634
12.6418	0.609
12.6826	0.59
12.7235	0.54
12.7644	0.43
12.8053	0.36
12.8461	0.583
12.887	0.674
12.9279	0.709
12.9688	0.725
13.0097	0.728
13.0505	0.73
13.0914	0.738
13.1323	0.737
13.1732	0.738
13.214	0.728
13.2549	0.72
13.2958	0.708
13.3367	0.696
13.3775	0.684
13.4184	0.674
13.4593	0.668
13.5002	0.663
13.541	0.665
13.5819	0.667
13.6228	0.668
13.6637	0.67
13.7045	0.667
13.7454	0.65
13.7863	0.622
13.8272	0.602
13.868	0.598
13.9089	0.624
13.9498	0.665
13.9907	0.692
14.0316	0.723
14.0724	0.738
14.1133	0.757
14.1542	0.759
14.1951	0.769
14.2359	0.776
14.2768	0.779
14.3177	0.781
14.3586	0.784
14.3994	0.786
14.4403	0.786
14.4812	0.784
14.5221	0.781
14.5629	0.776
14.6038	0.771
14.6447	0.764
14.6856	0.764
14.7264	0.752
14.7673	0.74
14.8082	0.735
14.8491	0.726
14.8899	0.72
14.9308	0.711
14.9717	0.697
15.0126	0.65
15.0535	0.593
15.0943	0.559
15.1352	0.563
15.1761	0.58
15.217	0.6
15.2578	0.602
15.2987	0.595
15.3396	0.58
15.3805	0.563
15.4213	0.539
15.4622	0.51
15.5031	0.481
15.544	0.447
15.5848	0.419
15.6257	0.401
15.6666	0.395
15.7075	0.395
15.7483	0.397
15.7892	0.399
15.8301	0.402
15.871	0.411
15.9118	0.407
15.9527	0.402
15.9936	0.401
