Infrared Spectrum: Phenyl-2-pyridyl ketoxime
Formula: C 12 H 10 N 2 O
CAS: 1826-28-4
State: gas
Instrument: HP-GC/MS/IRD
Origin: NIST Mass Spectrometry Data Center
1/CM	ABSORBANCE
550	0.0002562
562	0.0003199
574	0.0002548
586	0.0001442
598	0.0002268
610	0.0006524
622	0.0007798
634	0.0006951
646	0.0011081
658	0.0023898
670	0.0035686
682	0.0048783
694	0.0056084
706	0.0026138
718	0.0012971
730	0.0015575
742	0.0029624
754	0.0023576
766	0.0024654
778	0.0021798
790	0.0023541
802	0.0014952
814	0.0007371
826	0.0003969
838	0.0003591
850	0.0003374
862	0.0004263
874	0.0006251
886	0.0010577
898	0.0026775
910	0.0052857
922	0.0063245
934	0.0049602
946	0.0023954
958	0.0013615
970	0.0010717
982	0.0023807
994	0.0040719
1006	0.0017815
1018	0.0008477
1030	0.0009548
1042	0.0007917
1054	0.0004564
1066	0.0004326
1078	0.0004431
1090	0.0007644
1102	0.0004116
1114	0.0001302
1126	4.62e-05
1138	0.0002884
1150	0.0005523
1162	0.0004298
1174	0.0010787
1186	0.0006111
1198	0.0001169
1210	1.4e-05
1222	6.51e-05
1234	0.000301
1246	0.0002212
1258	0.0001988
1270	0.0005033
1282	0.0015631
1294	0.001778
1306	0.0028357
1318	0.0031668
1330	0.0018291
1342	0.001729
1354	0.0023387
1366	0.0009541
1378	0.0004312
1390	0.0004928
1402	0.0004501
1414	0.0007266
1426	0.0021147
1438	0.0019789
1450	0.0013986
1462	0.002226
1474	0.0019698
1486	0.0010003
1498	0.0009975
1510	0.0004102
1522	0.0004242
1534	0.0005474
1546	0.0008085
1558	0.0015911
1570	0.0031661
1582	0.0041552
1594	0.0019691
1606	0.0007616
1618	0.0005152
1630	0.0003654
1642	0.0002695
1654	0.0001904
1666	0.0002184
1678	0.0002324
1690	0.0001799
1702	0.0001666
1714	0.0001393
1726	0.0001722
1738	0.000217
1750	0.0002268
1762	0.0002492
1774	0.0002261
1786	0.0002604
1798	0.0003206
1810	0.0002618
1822	0.0002478
1834	0.0002562
1846	0.0002709
1858	0.0002947
1870	0.0003906
1882	0.0003836
1894	0.0003185
1906	0.000322
1918	0.0003318
1930	0.0003794
1942	0.000441
1954	0.0004284
1966	0.000364
1978	0.0002947
1990	0.0002016
2002	0.0002107
2014	0.0001827
2026	0.0001855
2038	0.0001729
2050	0.0001813
2062	0.0001715
2074	0.0001687
2086	0.0001764
2098	0.0001827
2110	0.0001484
2122	0.0001995
2134	0.0001757
2146	0.0001939
2158	0.0001631
2170	0.0001827
2182	0.0002114
2194	0.0002212
2206	0.0001764
2218	0.0001792
2230	0.0001911
2242	0.0001869
2254	0.0001953
2266	0.0001918
2278	0.0001701
2290	0.0002268
2302	0.0002016
2314	0.0002415
2326	0.000231
2338	0.0002317
2350	0.0002037
2362	0.0001953
2374	0.000189
2386	0.0001617
2398	0.0001358
2410	0.0001505
2422	0.0001428
2434	0.0001722
2446	0.0001547
2458	0.0001582
2470	0.0001862
2482	0.0001547
2494	0.0001757
2506	0.000203
2518	0.0001652
2530	0.0001722
2542	0.0002135
2554	0.0001554
2566	0.0001855
2578	0.0001918
2590	0.0002149
2602	0.0002345
2614	0.0002632
2626	0.0002471
2638	0.0002065
2650	0.0002359
2662	0.0002478
2674	0.0002352
2686	0.0002128
2698	0.0001897
2710	0.0002352
2722	0.000196
2734	0.0002212
2746	0.0002233
2758	0.0002401
2770	0.0002821
2782	0.0002779
2794	0.0002093
2806	0.0002513
2818	0.0002184
2830	0.000238
2842	0.0002695
2854	0.0002646
2866	0.0003136
2878	0.0003374
2890	0.0003878
2902	0.0004116
2914	0.0004032
2926	0.0003836
2938	0.0003983
2950	0.0003836
2962	0.000378
2974	0.0003997
2986	0.0004844
2998	0.0006664
3010	0.0011291
3022	0.0014931
3034	0.0018102
3046	0.00217
3058	0.003563
3070	0.0047145
3082	0.0029932
3094	0.0020076
3106	0.0011606
3118	0.0006846
3130	0.0005754
3142	0.0004529
3154	0.0004095
3166	0.000357
3178	0.0003115
3190	0.0003115
3202	0.0002975
3214	0.0003108
3226	0.0002898
3238	0.0002989
3250	0.0002737
3262	0.000294
3274	0.0002751
3286	0.0002541
3298	0.0001624
3310	0.0002842
3322	0.0002282
3334	0.0001792
3346	0.0002422
3358	0.0001932
3370	0.0001967
3382	0.0001988
3394	0.0002807
3406	0.0002464
3418	0.0003325
3430	0.0006244
3442	0.0003381
3454	0.0002415
3466	0.0002044
3478	0.0001652
3490	0.0002037
3502	0.0001519
3514	0.0001379
3526	0.0002268
3538	0.0001582
3550	0.000182
3562	0.0001939
3574	0.0002919
3586	0.0002975
3598	0.0004172
3610	0.000952
3622	0.0037163
3634	0.007
3646	0.0025851
3658	0.0005887
3670	0.0002345
3682	0.0003374
3694	0.0001897
3706	0.0002212
3718	0.0001442
3730	0.0002233
3742	0.0002093
3754	0.0001554
3766	0.0002149
3778	0.0001876
3790	0.0001918
3802	0.0001918
3814	0.0001372
3826	0.0001834
3838	0.0001841
