Infrared Spectrum: 4-Hydroxy-2-methoxybenzaldehyde
Formula: C 8 H 8 O 3
CAS: 18278-34-7
State: gas
Origin: EPA-IR VAPOR PHASE LIBRARY
1/CM	ABSORBANCE
549.8	0.000357
559.445	0.0006128
569.09	0.0010538
578.734	0.0006025
588.379	0.0008647
598.024	0.0013146
607.669	0.0010743
617.313	0.0012815
626.958	0.002182
636.603	0.001812
646.248	0.002672
655.893	0.002212
665.537	0.0015099
675.182	0.0009556
684.827	0.0013029
694.472	0.0005642
704.116	0.0012944
713.761	0.0011029
723.406	0.000799
733.051	0.000364
742.695	0.0009433
752.34	0.0012617
761.985	0.0011415
771.63	0.0012732
781.275	0.0015754
790.919	0.003302
800.564	0.004432
810.209	0.004762
819.854	0.004392
829.498	0.004022
839.143	0.003392
848.788	0.002222
858.433	0.0014783
868.078	0.0015844
877.722	0.0012594
887.367	0.001301
897.012	0.0009662
906.657	0.0013048
916.301	0.0013523
925.946	0.001762
935.591	0.002472
945.236	0.004642
954.88	0.005092
964.525	0.003332
974.17	0.001692
983.815	0.0016477
993.46	0.001772
1003.1	0.0015487
1012.75	0.001952
1022.39	0.004412
1032.04	0.005662
1041.68	0.005022
1051.33	0.0016167
1060.97	0.0015526
1070.62	0.001962
1080.26	0.002912
1089.91	0.004192
1099.55	0.009592
1109.2	0.009322
1118.84	0.005892
1128.49	0.005622
1138.13	0.007722
1147.78	0.010552
1157.42	0.013042
1167.07	0.013192
1176.71	0.012742
1186.36	0.013152
1196	0.010582
1205.64	0.007882
1215.29	0.005902
1224.93	0.005202
1234.58	0.003342
1244.22	0.004962
1253.87	0.009852
1263.51	0.013922
1273.16	0.012222
1282.8	0.009272
1292.45	0.010492
1302.09	0.012282
1311.74	0.009002
1321.38	0.004862
1331.03	0.002462
1340.67	0.001762
1350.32	0.001422
1359.96	0.0014344
1369.61	0.001692
1379.25	0.002412
1388.9	0.004792
1398.54	0.005302
1408.18	0.003612
1417.83	0.004002
1427.47	0.006892
1437.12	0.006892
1446.76	0.004682
1456.41	0.005522
1466.05	0.007912
1475.7	0.006662
1485.34	0.004712
1494.99	0.005382
1504.63	0.005162
1514.28	0.002992
1523.92	0.001772
1533.57	0.001932
1543.21	0.001962
1552.86	0.002622
1562.5	0.003542
1572.15	0.006862
1581.79	0.012782
1591.44	0.019502
1601.08	0.023922
1610.73	0.023822
1620.37	0.015172
1630.01	0.006552
1639.66	0.003432
1649.3	0.002402
1658.95	0.002382
1668.59	0.002632
1678.24	0.003522
1687.88	0.007012
1697.53	0.021732
1707.17	0.024832
1716.82	0.010572
1726.46	0.005552
1736.11	0.002592
1745.75	0.0015255
1755.4	0.0011766
1765.04	0.0011383
1774.69	0.0011958
1784.33	0.0011198
1793.98	0.0010671
1803.62	0.0010107
1813.27	0.0009921
1822.91	0.0008733
1832.55	0.0009891
1842.2	0.0010427
1851.84	0.0009037
1861.49	0.0008782
1871.13	0.0009813
1880.78	0.0009876
1890.42	0.0009718
1900.07	0.0009934
1909.71	0.0010135
1919.36	0.0009587
1929	0.0011449
1938.65	0.0008286
1948.29	0.0009192
1957.94	0.0010129
1967.58	0.0010037
1977.23	0.0010459
1986.87	0.0010388
1996.52	0.0010951
2006.16	0.0010259
2015.81	0.0008667
2025.45	0.0010101
2035.1	0.0009965
2044.74	0.0007679
2054.38	0.0009331
2064.03	0.0009122
2073.67	0.0010549
2083.32	0.0010569
2092.96	0.0010094
2102.61	0.0009263
2112.25	0.0009769
2121.9	0.0009606
2131.54	0.0011073
2141.19	0.0009101
2150.83	0.00072735
2160.48	0.0008269
2170.12	0.0010498
2179.77	0.00087
2189.41	0.0009655
2199.06	0.00074242
2208.7	0.0008805
2218.35	0.000866
2227.99	0.0009295
2237.64	0.0007939
2247.28	0.0008402
2256.92	0.0010807
2266.57	0.0009163
2276.21	0.0008809
2285.86	0.0010676
2295.5	0.0008645
2305.15	0.0009667
2314.79	0.0009615
2324.44	0.0008608
2334.08	0.0008747
2343.73	0.0009645
2353.37	0.0009162
2363.02	0.0009312
2372.66	0.0009044
2382.31	0.0008517
2391.95	0.0010661
2401.6	0.0009782
2411.24	0.0009001
2420.89	0.0011628
2430.53	0.0009159
2440.18	0.0009613
2449.82	0.0007958
2459.47	0.00075646
2469.11	0.0007996
2478.75	0.00068095
2488.4	0.0009784
2498.04	0.0011177
2507.69	0.0010404
2517.33	0.0010349
2526.98	0.0010947
2536.62	0.0009285
2546.27	0.00075685
2555.91	0.0009685
2565.56	0.0010521
2575.2	0.001023
2584.85	0.0008737
2594.49	0.0007956
2604.14	0.0010236
2613.78	0.0010507
2623.43	0.0008432
2633.07	0.0008437
2642.72	0.0008682
2652.36	0.0010446
2662.01	0.000972
2671.65	0.0011043
2681.29	0.0011701
2690.94	0.0013238
2700.58	0.0016366
2710.23	0.001762
2719.87	0.001732
2729.52	0.0012823
2739.16	0.0012608
2748.81	0.001762
2758.45	0.002222
2768.1	0.002102
2777.74	0.001469
2787.39	0.0014712
2797.03	0.0012401
2806.68	0.0013006
2816.32	0.0015457
2825.97	0.001832
2835.61	0.002662
2845.26	0.004322
2854.9	0.006162
2864.55	0.005062
2874.19	0.002752
2883.84	0.002012
2893.48	0.001752
2903.12	0.001922
2912.77	0.002062
2922.41	0.002142
2932.06	0.002162
2941.7	0.002502
2951.35	0.003472
2960.99	0.003352
2970.64	0.002632
2980.28	0.001922
2989.93	0.002032
2999.57	0.001812
3009.22	0.002652
3018.86	0.002492
3028.51	0.001972
3038.15	0.0015953
3047.8	0.0016141
3057.44	0.0012009
3067.09	0.0011873
3076.73	0.0013679
3086.38	0.0014419
3096.02	0.0013946
3105.67	0.0007921
3115.31	0.0009291
3124.95	0.0007975
3134.6	0.0012233
3144.24	0.00056
3153.89	0.000834
3163.53	0.0008337
3173.18	0.0008178
3182.82	0.000669619
3192.47	0.0009986
3202.11	0.0009017
3211.76	0.0008812
3221.4	0.0010195
3231.05	0.0007843
3240.69	0.0007961
3250.34	0.00053
3259.98	0.0006232
3269.63	0.0009954
3279.27	0.00074653
3288.92	0.000537
3298.56	0.000344
3308.21	0.0006155
3317.85	0.0006231
3327.49	0.0008311
3337.14	0.000788
3346.78	0.00073865
3356.43	0.00071236
3366.07	0.00073156
3375.72	0.0008556
3385.36	0.0012863
3395.01	0.0011869
3404.65	0.0008953
3414.3	0.00068731
3423.94	0.0006127
3433.59	0.0005632
3443.23	0.0007832
3452.88	0.0006285
3462.52	0.00073602
3472.17	0.00074779
3481.81	0.000378
3491.46	0.0008487
3501.1	0.0007307
3510.75	0.00073934
3520.39	0.0007825
3530.04	0.0006048
3539.68	0.000463
3549.32	0.00069383
3558.97	0.0006345
3568.61	0.00068226
3578.26	0.0006357
3587.9	0.00072497
3597.55	0.000926
3607.19	0.00065245
3616.84	0.0010575
3626.48	0.001792
3636.13	0.005602
3645.77	0.009532
3655.42	0.006152
3665.06	0.0013205
3674.71	0.0010102
3684.35	0.00046
3694	0.00069518
3703.64	0.0008632
3713.29	0.000528
3722.93	0.0008105
3732.58	0.0008657
3742.22	0.000762
3751.86	0.000521
3761.51	0.000139
3771.15	0.00015
3780.8	0.000373
3790.44	0.0006187
3800.09	0.000631
3809.73	0.0006275
3819.38	0.00065467
3829.02	0.0013302
3838.67	0.0008271
3848.31	0.00075376
3857.96	0.000353
3867.6	0.000125
3877.25	0.0006284
3886.89	0.00065885
3896.54	0.000445
3906.18	0.00036
3915.83	0.0006409
3925.47	0.000393
3935.12	0.0005
3944.76	0.0006185
3954.41	0.0009119
3964.05	0.0007682
3973.69	0.00067964
3983.34	0.0008937
3992.98	0.000488
