Infrared Spectrum: 1,4-DIHYDRONAPHTHALENE-1,4-DICARBOXYLIC ACID
Formula: C12 H10 O4
CAS: 18274-34-5
State: SOLID (OIL MULL)
Boiling point: 229 C
Class: COBLENTZ III
Instrument: BAIRD (GRATING)
Instrument parameters: NaCl PRISM
Sampling: TRANSMISSION
Resolution: 2
Origin: WYANDOTTE CHEMICALS CORP.
1/CM	TRANSMITTANCE
4000	0.8199
3991	0.8208
3982	0.8227
3973	0.8247
3964	0.8266
3955	0.8283
3946	0.8298
3937	0.8308
3928	0.8313
3919	0.8312
3910	0.8295
3901	0.8271
3892	0.8251
3883	0.8235
3874	0.8237
3865	0.8252
3856	0.8268
3847	0.8288
3838	0.8302
3829	0.8307
3820	0.8312
3811	0.8311
3802	0.8304
3793	0.8288
3784	0.827
3775	0.8252
3766	0.8225
3757	0.8194
3748	0.816
3739	0.8128
3730	0.8096
3721	0.8062
3712	0.8044
3703	0.8028
3694	0.803
3685	0.8031
3676	0.8025
3667	0.8015
3658	0.7993
3649	0.7958
3640	0.7925
3631	0.7892
3622	0.7857
3613	0.7821
3604	0.7786
3595	0.775
3586	0.7712
3577	0.7676
3568	0.7647
3559	0.7619
3550	0.7593
3541	0.7565
3532	0.7542
3523	0.7519
3514	0.7499
3505	0.7476
3496	0.7455
3487	0.7433
3478	0.7411
3469	0.7387
3460	0.7362
3451	0.7328
3442	0.7292
3433	0.7256
3424	0.7208
3415	0.7157
3406	0.7105
3397	0.7048
3388	0.6971
3379	0.6891
3370	0.6811
3361	0.6728
3352	0.6642
3343	0.6556
3334	0.6484
3325	0.6415
3316	0.6348
3307	0.626
3298	0.6156
3289	0.6053
3280	0.5953
3271	0.585
3262	0.5717
3253	0.5582
3244	0.545
3235	0.5287
3226	0.5103
3217	0.4923
3208	0.4849
3199	0.4764
3190	0.4614
3181	0.4473
3172	0.435
3163	0.4238
3154	0.4164
3145	0.3998
3136	0.3777
3127	0.3504
3118	0.34
3109	0.339
3100	0.3372
3091	0.3345
3082	0.3309
3073	0.3254
3064	0.3163
3055	0.304
3046	0.2884
3037	0.2679
3028	0.2463
3019	0.2231
3010	0.1728
3001	0.1222
2992	0.0785
2983	0.0712
2974	0.0687
2965	0.0677
2956	0.0711
2947	0.091
2938	0.1179
2929	0.1321
2920	0.1371
2911	0.1396
2902	0.1409
2893	0.1416
2884	0.1459
2875	0.1748
2866	0.2529
2857	0.3346
2848	0.3838
2839	0.4016
2830	0.4219
2821	0.4439
2812	0.4694
2803	0.4951
2794	0.5143
2785	0.5266
2776	0.5316
2767	0.5341
2758	0.5342
2749	0.5275
2740	0.5117
2731	0.4855
2722	0.4717
2713	0.4706
2704	0.4849
2695	0.503
2686	0.5154
2677	0.5208
2668	0.5234
2659	0.5232
2650	0.521
2641	0.5184
2632	0.5177
2623	0.5184
2614	0.522
2605	0.5293
2596	0.5426
2587	0.561
2578	0.5825
2569	0.6041
2560	0.6185
2551	0.631
2542	0.6401
2533	0.6433
2524	0.6421
2515	0.64
2506	0.6417
2497	0.649
2488	0.6642
2479	0.6815
2470	0.6991
2461	0.7144
2452	0.7286
2443	0.7419
2434	0.754
2425	0.7656
2416	0.7758
2407	0.7833
2398	0.7906
2389	0.7982
2380	0.8046
2371	0.8065
2362	0.8086
2353	0.8135
2344	0.8216
2335	0.8315
2326	0.8418
2317	0.8557
2308	0.8703
2299	0.8801
2290	0.8871
2281	0.8914
2272	0.8944
2263	0.8978
2254	0.9015
2245	0.9049
2236	0.9083
2227	0.911
2218	0.9137
2209	0.9167
2200	0.9196
2191	0.9228
2182	0.9263
2173	0.9299
2164	0.9335
2155	0.9365
2146	0.9398
2137	0.9438
2128	0.9471
2119	0.9502
2110	0.9535
2101	0.9544
2092	0.9521
2083	0.9503
2074	0.9468
2065	0.9451
2056	0.9503
2047	0.9521
2038	0.9501
2029	0.9486
2020	0.9507
2011	0.9546
2002	0.9575
1993	0.9584
1984	0.9578
1975	0.956
1966	0.9468
1957	0.9412
1948	0.9366
1939	0.9312
1930	0.9271
1921	0.9328
1912	0.9368
1903	0.9334
1894	0.925
1885	0.9152
1876	0.907
1867	0.9107
1858	0.8977
1849	0.8914
1840	0.8767
1831	0.8625
1822	0.8551
1813	0.8506
1804	0.8466
1795	0.8345
1786	0.825
1777	0.8165
1768	0.7571
1759	0.7043
1750	0.5627
1741	0.2627
1732	0.1488
1723	0.0809
1714	0.076
1705	0.128
1696	0.2532
1687	0.3721
1678	0.4941
1669	0.626
1660	0.6918
1651	0.7418
1642	0.7878
1633	0.7969
1624	0.8004
1615	0.8708
1606	0.851
1597	0.9109
1588	0.9145
1579	0.9245
1570	0.9248
1561	0.9183
1552	0.9273
1543	0.9198
1534	0.9375
1525	0.6728
1516	0.826
1507	0.8665
1498	0.8065
1489	0.6554
1480	0.5338
1471	0.5508
1462	0.6525
1453	0.7371
1444	0.6408
1435	0.4148
1426	0.3714
1417	0.5418
1408	0.6748
1399	0.5617
1390	0.6064
1381	0.7604
1372	0.8316
1363	0.8258
1354	0.7793
1345	0.7153
1336	0.6658
1327	0.541
1318	0.3497
1309	0.2373
1300	0.2489
1291	0.4116
1282	0.611
1273	0.7138
1264	0.6721
1255	0.6037
1246	0.5031
1237	0.5992
1228	0.3495
1219	0.1694
1210	0.4072
1201	0.6408
1192	0.6734
1183	0.6851
1174	0.7975
1165	0.8616
1156	0.9031
1147	0.9347
1138	0.9454
1129	0.8886
1120	0.9346
1111	0.9524
1102	0.9466
1093	0.9361
1084	0.9324
1075	0.9333
1066	0.9304
1057	0.8923
1048	0.6719
1039	0.8495
1030	0.8937
1021	0.8916
1012	0.8735
1003	0.8135
994	0.8373
985	0.7847
976	0.7347
967	0.6433
958	0.5232
949	0.4869
940	0.4276
931	0.4342
922	0.5302
913	0.6333
904	0.6492
895	0.4322
886	0.7278
877	0.7886
868	0.8352
859	0.8636
850	0.88
841	0.8795
832	0.8803
823	0.897
814	0.8892
805	0.8542
796	0.6983
787	0.7642
778	0.8361
769	0.5618
760	0.4256
751	0.5585
742	0.2444
733	0.4782
724	0.7526
715	0.8639
706	0.9078
697	0.9216
688	0.8975
679	0.8813
670	0.8762
661	0.8597
652	0.7404
643	0.7401
634	0.7465
625	0.705
