Infrared Spectrum: 2-sec-Butylthiazole
Formula: C 7 H 11 N S
CAS: 18277-27-5
State: gas
Origin: EPA-IR VAPOR PHASE LIBRARY
1/CM	ABSORBANCE
549.8	0.00587
559.445	0.00511
569.09	0.00377
578.734	0.00354
588.379	0.00521
598.024	0.00302
607.669	0.00236
617.313	0.00363
626.958	0.00479
636.603	0.00546
646.248	0.00733
655.893	0.0069
665.537	0.00607
675.182	0.00592
684.827	0.00703
694.472	0.01267
704.116	0.02574
713.761	0.04225
723.406	0.03269
733.051	0.01558
742.695	0.00741
752.34	0.0064
761.985	0.00647
771.63	0.0054
781.275	0.00454
790.919	0.00579
800.564	0.00562
810.209	0.0051
819.854	0.0047
829.498	0.00438
839.143	0.00428
848.788	0.00431
858.433	0.00336
868.078	0.00537
877.722	0.00684
887.367	0.00489
897.012	0.0018
906.657	0.00126
916.301	0.00144
925.946	0.00242
935.591	0.00318
945.236	0.00533
954.88	0.00681
964.525	0.00753
974.17	0.00768
983.815	0.01063
993.46	0.01359
1003.1	0.01643
1012.75	0.01591
1022.39	0.01541
1032.04	0.02043
1041.68	0.02691
1051.33	0.02815
1060.97	0.0248
1070.62	0.01993
1080.26	0.01584
1089.91	0.00952
1099.55	0.00999
1109.2	0.00393
1118.84	0.00589
1128.49	0.00616
1138.13	0.00896
1147.78	0.01594
1157.42	0.02141
1167.07	0.01859
1176.71	0.01557
1186.36	0.01492
1196	0.01182
1205.64	0.00989
1215.29	0.00805
1224.93	0.00611
1234.58	0.00407
1244.22	0.00686
1253.87	0.00749
1263.51	0.00817
1273.16	0.00823
1282.8	0.00781
1292.45	0.0073
1302.09	0.00809
1311.74	0.0112
1321.38	0.01179
1331.03	0.0088
1340.67	0.00609
1350.32	0.00569
1359.96	0.00693
1369.61	0.00974
1379.25	0.01345
1388.9	0.01365
1398.54	0.00954
1408.18	0.00779
1417.83	0.01105
1427.47	0.01301
1437.12	0.01298
1446.76	0.01555
1456.41	0.02085
1466.05	0.02132
1475.7	0.01724
1485.34	0.01694
1494.99	0.02219
1504.63	0.02275
1514.28	0.01427
1523.92	0.00599
1533.57	0.00285
1543.21	0.002
1552.86	0.00195
1562.5	0.00191
1572.15	0.00223
1581.79	0.00352
1591.44	0.00473
1601.08	0.00411
1610.73	0.00365
1620.37	0.00218
1630.01	0.00225
1639.66	0.0015
1649.3	0.00151
1658.95	0.00187
1668.59	0.0017
1678.24	0.00174
1687.88	0.00166
1697.53	0.00154
1707.17	0.00137
1716.82	0.00141
1726.46	0.00191
1736.11	0.00254
1745.75	0.00391
1755.4	0.00419
1765.04	0.0034
1774.69	0.00178
1784.33	0.00153
1793.98	0.00125
1803.62	0.0013
1813.27	0.0011
1822.91	0.00105
1832.55	0.00112
1842.2	0.0007258
1851.84	0.0009641
1861.49	0.0007466
1871.13	0.00107
1880.78	0.0007977
1890.42	0.0008149
1900.07	0.0008515
1909.71	0.0008698
1919.36	0.00142
1929	0.00142
1938.65	0.00116
1948.29	0.00105
1957.94	0.0008321
1967.58	0.00121
1977.23	0.00106
1986.87	0.0006898
1996.52	0.0008344
2006.16	0.0007443
2015.81	0.0009559
2025.45	0.00102
2035.1	0.0008504
2044.74	0.000724
2054.38	0.001
2064.03	0.00116
2073.67	0.0009945
2083.32	0.00123
2092.96	0.00112
2102.61	0.00117
2112.25	0.00129
2121.9	0.00111
2131.54	0.0009562
2141.19	0.00108
2150.83	0.00115
2160.48	0.00108
2170.12	0.00114
2179.77	0.00116
2189.41	0.00112
2199.06	0.00105
2208.7	0.0009551
2218.35	0.00102
2227.99	0.00112
2237.64	0.0007877
2247.28	0.0011
2256.92	0.00101
2266.57	0.0013
2276.21	0.0009019
2285.86	0.00126
2295.5	0.00138
2305.15	0.00144
2314.79	0.00133
2324.44	0.00106
2334.08	0.0008089
2343.73	0.00138
2353.37	0.00159
2363.02	0.00126
2372.66	0.00158
2382.31	0.00158
2391.95	0.0016
2401.6	0.00118
2411.24	0.00148
2420.89	0.0009447
2430.53	0.00119
2440.18	0.0009756
2449.82	0.00155
2459.47	0.00119
2469.11	0.00127
2478.75	0.00116
2488.4	0.00117
2498.04	0.00166
2507.69	0.00149
2517.33	0.00122
2526.98	0.00115
2536.62	0.00119
2546.27	0.00144
2555.91	0.00141
2565.56	0.00149
2575.2	0.00165
2584.85	0.00141
2594.49	0.00142
2604.14	0.00112
2613.78	0.00155
2623.43	0.00123
2633.07	0.00135
2642.72	0.00141
2652.36	0.0014
2662.01	0.0009633
2671.65	0.0009767
2681.29	0.00177
2690.94	0.00131
2700.58	0.00169
2710.23	0.00136
2719.87	0.00199
2729.52	0.00192
2739.16	0.00217
2748.81	0.0025
2758.45	0.00229
2768.1	0.0026
2777.74	0.00224
2787.39	0.00234
2797.03	0.00271
2806.68	0.00372
2816.32	0.00377
2825.97	0.00441
2835.61	0.00549
2845.26	0.00681
2854.9	0.01073
2864.55	0.018
2874.19	0.02775
2883.84	0.03511
2893.48	0.03496
2903.12	0.03016
2912.77	0.03294
2922.41	0.04365
2932.06	0.05776
2941.7	0.05961
2951.35	0.05397
2960.99	0.0641
2970.64	0.09246
2980.28	0.08931
2989.93	0.0509
2999.57	0.02058
3009.22	0.01047
3018.86	0.00605
3028.51	0.00492
3038.15	0.00444
3047.8	0.00419
3057.44	0.00354
3067.09	0.00454
3076.73	0.0058
3086.38	0.01108
3096.02	0.01195
3105.67	0.00743
3115.31	0.00459
3124.95	0.00488
3134.6	0.0042
3144.24	0.00284
3153.89	0.0029
3163.53	0.00197
3173.18	0.00239
3182.82	0.00247
3192.47	0.0026
3202.11	0.00217
3211.76	0.00165
3221.4	0.00203
3231.05	0.00139
3240.69	0.00134
3250.34	0.00172
3259.98	0.00126
3269.63	0.0008121
3279.27	0.0007287
3288.92	0.00112
3298.56	0.00104
3308.21	0.00109
3317.85	0.00134
3327.49	0.0005622
3337.14	0.0008885
3346.78	0.00107
3356.43	0.0009933
3366.07	0.00146
3375.72	0.0007518
3385.36	0.0009548
3395.01	0.00129
3404.65	0.00115
3414.3	0.00123
3423.94	0.00158
3433.59	0.00125
3443.23	0.00102
3452.88	0.0007276
3462.52	0.0008965
3472.17	0.00108
3481.81	0.00227
3491.46	0.00112
3501.1	0.00146
3510.75	0.00192
3520.39	0.0011
3530.04	0.00139
3539.68	0.00223
3549.32	0.0006466
3558.97	0.0007459
3568.61	0.00119
3578.26	0.00102
3587.9	0.00112
3597.55	0.00135
3607.19	0.00109
3616.84	0.0008269
3626.48	0.0008514
3636.13	0.0013
3645.77	0.00137
3655.42	0.0009981
3665.06	0.00166
3674.71	0.0009976
3684.35	0.00182
3694	0.0009395
3703.64	0.0018
3713.29	0.0007942
3722.93	0.00153
3732.58	0.00118
3742.22	0.00112
3751.86	0.00179
3761.51	0.0003888
3771.15	0.0013
3780.8	0.0005656
3790.44	0.0005967
3800.09	0.00186
3809.73	0.00118
3819.38	0.0004448
3829.02	0.00182
3838.67	0.00146
3848.31	0.00144
3857.96	0.00112
3867.6	0.0006565
3877.25	0.00222
3886.89	0.00118
3896.54	0.0007423
3906.18	0.00172
3915.83	0.0016
3925.47	0.00173
3935.12	0.00131
3944.76	0.00179
3954.41	0.00131
3964.05	0.00162
3973.69	0.0024
3983.34	0.00131
3992.98	0.00222
