Infrared Spectrum: 5-Octadecanone
Formula: C 18 H 36 O
CAS: 18276-99-8
State: gas
Instrument: HP-GC/MS/IRD
Origin: NIST Mass Spectrometry Data Center
1/CM	ABSORBANCE
550	0.0002745
562	0.000198
574	9.9e-05
586	1.35e-05
598	6.75e-05
610	0.0001395
622	0.0002025
634	0.0001935
646	0.000144
658	6.3e-05
670	0.000207
682	0.0001485
694	0.0002745
706	0.0005535
718	0.0008055
730	0.000846
742	0.0007065
754	0.000576
766	0.000459
778	0.000423
790	0.000297
802	0.0002475
814	0.000216
826	0.0001485
838	0.000261
850	0.00018
862	0.0002655
874	0.0002745
886	0.0003015
898	0.000324
910	0.0003285
922	0.0002835
934	0.0003465
946	0.000423
958	0.0004275
970	0.0004815
982	0.0005355
994	0.000639
1006	0.000801
1018	0.0010665
1030	0.0013725
1042	0.0015435
1054	0.0014805
1066	0.0013005
1078	0.0011835
1090	0.0011115
1102	0.00108
1114	0.001314
1126	0.001755
1138	0.001701
1150	0.0014715
1162	0.0013455
1174	0.0012195
1186	0.001125
1198	0.001035
1210	0.0010755
1222	0.001107
1234	0.0011205
1246	0.001161
1258	0.0012645
1270	0.001224
1282	0.001305
1294	0.001476
1306	0.0016695
1318	0.0017055
1330	0.002034
1342	0.002709
1354	0.003366
1366	0.002952
1378	0.0020295
1390	0.001566
1402	0.001341
1414	0.001629
1426	0.001791
1438	0.002187
1450	0.0033345
1462	0.004077
1474	0.00252
1486	0.001125
1498	0.000594
1510	0.0003195
1522	0.000234
1534	0.0002295
1546	0.000171
1558	8.1e-05
1570	0.000162
1582	0.0001395
1594	0.0001575
1606	0.000144
1618	0.0001305
1630	0.0001575
1642	0.0002025
1654	0.000198
1666	0.000405
1678	0.0006525
1690	0.001224
1702	0.002592
1714	0.0062145
1726	0.0091665
1738	0.004464
1750	0.0014985
1762	0.0006705
1774	0.0003645
1786	0.000234
1798	0.0001395
1810	0.0001395
1822	9e-05
1834	5.85e-05
1846	5.4e-05
1858	5.85e-05
1870	3.6e-05
1882	3.15e-05
1894	3.6e-05
1906	3.15e-05
1918	9e-06
1930	1.35e-05
1942	1.35e-05
1954	1.8e-05
1966	2.25e-05
1978	3.15e-05
1990	3.15e-05
2002	4.05e-05
2014	4.05e-05
2026	8.1e-05
2038	6.75e-05
2050	6.3e-05
2062	6.75e-05
2074	5.4e-05
2086	5.4e-05
2098	5.85e-05
2110	5.85e-05
2122	5.85e-05
2134	2.7e-05
2146	6.75e-05
2158	6.75e-05
2170	5.85e-05
2182	4.95e-05
2194	5.85e-05
2206	6.3e-05
2218	4.5e-05
2230	7.65e-05
2242	5.4e-05
2254	4.95e-05
2266	4.95e-05
2278	4.95e-05
2290	5.85e-05
2302	4.5e-05
2314	4.05e-05
2326	4.5e-05
2338	2.25e-05
2350	4.95e-05
2362	3.15e-05
2374	4.05e-05
2386	2.25e-05
2398	4.95e-05
2410	3.15e-05
2422	4.95e-05
2434	5.85e-05
2446	2.25e-05
2458	5.4e-05
2470	6.75e-05
2482	4.5e-05
2494	5.85e-05
2506	6.3e-05
2518	9.9e-05
2530	0.0001305
2542	0.000135
2554	0.0001215
2566	0.0001665
2578	0.0001485
2590	0.0001755
2602	0.000225
2614	0.0002385
2626	0.0002475
2638	0.0003105
2650	0.0003645
2662	0.000396
2674	0.0004815
2686	0.000495
2698	0.000459
2710	0.0004455
2722	0.0004365
2734	0.000531
2746	0.000603
2758	0.0006615
2770	0.000738
2782	0.0009135
2794	0.00117
2806	0.0015255
2818	0.002079
2830	0.002907
2842	0.0048105
2854	0.0111645
2866	0.016893
2878	0.013113
2890	0.0120375
2902	0.0143325
2914	0.021762
2926	0.038358
2938	0.042048
2950	0.0260055
2962	0.0196785
2974	0.014436
2986	0.006588
2998	0.003519
3010	0.00225
3022	0.001602
3034	0.001206
3046	0.0009045
3058	0.000747
3070	0.000657
3082	0.0005445
3094	0.000495
3106	0.000432
3118	0.000387
3130	0.000315
3142	0.0002835
3154	0.000252
3166	0.0002205
3178	0.000216
3190	0.0002115
3202	9.45e-05
3214	0.000153
3226	0.000135
3238	0.000108
3250	0.0001125
3262	4.95e-05
3274	9.9e-05
3286	0.0001125
3298	9.9e-05
3310	3.15e-05
3322	5.4e-05
3334	9e-05
3346	9e-05
3358	0.0001035
3370	0.000126
3382	0.000117
3394	0.000162
3406	0.0001755
3418	0.0002025
3430	0.000225
3442	0.00018
3454	0.000126
3466	9e-05
3478	7.65e-05
3490	8.55e-05
3502	2.25e-05
3514	4.95e-05
3526	4.95e-05
3538	0.0001125
3550	5.4e-05
3562	4.5e-05
3574	6.75e-05
3586	2.7e-05
3598	4.95e-05
3610	2.7e-05
3622	0.000108
3634	0.000153
3646	7.65e-05
3658	0.000126
3670	7.65e-05
3682	0.0001305
3694	0.0001305
3706	0.000117
3718	8.1e-05
3730	6.3e-05
3742	5.4e-05
3754	6.3e-05
3766	0.0001035
3778	0.0001125
3790	0.0001755
3802	0.000135
3814	0.0001575
3826	0.0001935
3838	0.000144
