Infrared Spectrum: TETRABORANE
Formula: B4 H10
CAS: 18283-93-7
State: VAPOR AT 100 mmHg PRESSURE;
Class: COBLENTZ
Instrument: Not specified, most likely a prism, grating, or hybrid spectrometer.
Sampling: TRANSMISSION
Path length: 5 CM
Resolution: 4
Origin: KALLERY CHEMICAL COMPANY
MICROMETERS	TRANSMITTANCE
2	0.979
2.03382	0.973
2.06764	0.973
2.10146	0.978
2.13528	0.979
2.1691	0.983
2.20292	0.984
2.23673	0.989
2.27055	0.994
2.30437	0.996
2.33819	0.984
2.37201	0.927
2.40583	0.852
2.43965	0.922
2.47347	0.959
2.50729	0.988
2.54111	0.996
2.57493	1
2.60875	1
2.64257	0.996
2.67639	0.994
2.7102	0.996
2.74402	0.994
2.77784	0.989
2.81166	0.979
2.84548	0.973
2.8793	0.974
2.91312	0.973
2.94694	0.966
2.98076	0.961
3.01458	0.961
3.0484	0.961
3.08222	0.958
3.11604	0.958
3.14986	0.963
3.18367	0.964
3.21749	0.963
3.25131	0.954
3.28513	0.932
3.31895	0.906
3.35277	0.87
3.38659	0.864
3.42041	0.882
3.45423	0.88
3.48805	0.88
3.52187	0.884
3.55569	0.875
3.58951	0.882
3.62332	0.897
3.65714	0.906
3.69096	0.911
3.72478	0.899
3.7586	0.882
3.79242	0.647
3.82624	0.325
3.86006	0.065
3.89388	0.013
3.9277	0.045
3.96152	0.367
3.99534	0.199
4.02916	0.026
4.06298	0.139
4.09679	0.58
4.13061	0.855
4.16443	0.884
4.19825	0.899
4.23207	0.895
4.26589	0.892
4.29971	0.895
4.33353	0.874
4.36735	0.783
4.40117	0.748
4.43499	0.796
4.46881	0.817
4.50263	0.761
4.53645	0.724
4.57026	0.575
4.60408	0.29
4.6379	0.053
4.67172	0.025
4.70554	0.063
4.73936	0.107
4.77318	0.273
4.807	0.496
4.84082	0.645
4.87464	0.729
4.90846	0.768
4.94228	0.783
4.9761	0.796
5.00991	0.818
5.04373	0.843
5.07755	0.872
5.11137	0.885
5.14519	0.89
5.17901	0.897
5.21283	0.902
5.24665	0.901
5.28047	0.892
5.31429	0.869
5.34811	0.835
5.38193	0.828
5.41575	0.837
5.44957	0.843
5.48338	0.847
5.5172	0.852
5.55102	0.857
5.58484	0.86
5.61866	0.864
5.65248	0.862
5.6863	0.857
5.72012	0.845
5.75394	0.842
5.78776	0.838
5.82158	0.838
5.8554	0.842
5.88922	0.847
5.92304	0.855
5.95685	0.865
5.99067	0.882
6.02449	0.887
6.05831	0.882
6.09213	0.852
6.12595	0.83
6.15977	0.812
6.19359	0.83
6.22741	0.796
6.26123	0.798
6.29505	0.798
6.32887	0.8
6.36269	0.808
6.3965	0.813
6.43032	0.827
6.46414	0.822
6.49796	0.808
6.53178	0.793
6.5656	0.761
6.59942	0.733
6.63324	0.714
6.66706	0.667
6.70088	0.656
6.7347	0.666
6.76852	0.686
6.80234	0.723
6.83616	0.718
6.86997	0.728
6.90379	0.731
6.93761	0.719
6.97143	0.699
7.00525	0.637
7.03907	0.583
7.07289	0.503
7.10671	0.412
7.14053	0.374
7.17435	0.343
7.20817	0.359
7.24199	0.377
7.27581	0.372
7.30963	0.449
7.34344	0.488
7.37726	0.577
7.41108	0.684
7.4449	0.756
7.47872	0.785
7.51254	0.808
7.54636	0.82
7.58018	0.822
7.614	0.817
7.64782	0.805
7.68164	0.793
7.71546	0.776
7.74928	0.756
7.78309	0.731
7.81691	0.672
7.85073	0.676
7.88455	0.679
7.91837	0.669
7.95219	0.679
7.98601	0.692
8.01983	0.706
8.05365	0.723
8.08747	0.736
8.12129	0.734
8.15511	0.719
8.18893	0.691
8.22275	0.652
8.25656	0.597
8.29038	0.523
8.3242	0.471
8.35802	0.431
8.39184	0.395
8.42566	0.359
8.45948	0.34
8.4933	0.32
8.52712	0.298
8.56094	0.291
8.59476	0.28
8.62858	0.25
8.6624	0.189
8.69621	0.13
8.73003	0.13
8.76385	0.125
8.79767	0.112
8.83149	0.105
8.86531	0.147
8.89913	0.169
8.93295	0.223
8.96677	0.266
9.00059	0.337
9.03441	0.536
9.06823	0.615
9.10205	0.659
9.13587	0.625
9.16968	0.553
9.2035	0.51
9.23732	0.484
9.27114	0.461
9.30496	0.39
9.33878	0.38
9.3726	0.385
9.40642	0.389
9.44024	0.424
9.47406	0.471
9.50788	0.489
9.5417	0.506
9.57552	0.521
9.60934	0.533
9.64315	0.541
9.67697	0.545
9.71079	0.543
9.74461	0.536
9.77843	0.525
9.81225	0.51
9.84607	0.505
9.87989	0.498
9.91371	0.481
9.94753	0.453
9.98135	0.421
10.0152	0.372
10.049	0.296
10.0828	0.246
10.1166	0.186
10.1504	0.157
10.1843	0.135
10.2181	0.119
10.2519	0.105
10.2857	0.095
10.3195	0.08
10.3534	0.078
10.3872	0.088
10.421	0.13
10.4548	0.167
10.4886	0.206
10.5225	0.261
10.5563	0.325
10.5901	0.384
10.6239	0.437
10.6577	0.481
10.6916	0.511
10.7254	0.533
10.7592	0.538
10.793	0.53
10.8268	0.491
10.8606	0.449
10.8945	0.406
10.9283	0.37
10.9621	0.359
10.9959	0.359
11.0297	0.36
11.0636	0.359
11.0974	0.34
11.1312	0.273
11.165	0.243
11.1988	0.302
11.2327	0.332
11.2665	0.36
11.3003	0.37
11.3341	0.384
11.3679	0.395
11.4018	0.411
11.4356	0.419
11.4694	0.401
11.5032	0.357
11.537	0.295
11.5709	0.251
11.6047	0.226
11.6385	0.214
11.6723	0.216
11.7061	0.226
11.7399	0.204
11.7738	0.184
11.8076	0.154
11.8414	0.13
11.8752	0.206
11.909	0.204
11.9429	0.192
11.9767	0.196
12.0105	0.214
12.0443	0.246
12.0781	0.295
12.112	0.362
12.1458	0.466
12.1796	0.541
12.2134	0.605
12.2472	0.649
12.2811	0.677
12.3149	0.699
12.3487	0.721
12.3825	0.736
12.4163	0.744
12.4502	0.751
12.484	0.756
12.5178	0.756
12.5516	0.758
12.5854	0.76
12.6193	0.763
12.6531	0.766
12.6869	0.77
12.7207	0.773
12.7545	0.778
12.7883	0.783
12.8222	0.791
12.856	0.803
12.8898	0.818
12.9236	0.825
12.9574	0.835
12.9913	0.847
13.0251	0.86
13.0589	0.872
13.0927	0.882
13.1265	0.887
13.1604	0.894
13.1942	0.899
13.228	0.904
13.2618	0.909
13.2956	0.911
13.3295	0.914
13.3633	0.917
13.3971	0.921
13.4309	0.922
13.4647	0.926
13.4986	0.929
13.5324	0.931
13.5662	0.932
13.6	0.934
13.6338	0.937
13.6676	0.939
13.7015	0.941
13.7353	0.942
13.7691	0.944
13.8029	0.946
13.8367	0.947
13.8706	0.949
13.9044	0.951
13.9382	0.953
13.972	0.954
14.0058	0.954
14.0397	0.956
14.0735	0.956
14.1073	0.958
14.1411	0.956
14.1749	0.956
14.2088	0.954
14.2426	0.953
14.2764	0.953
14.3102	0.953
14.344	0.956
14.3779	0.961
14.4117	0.961
14.4455	0.961
14.4793	0.959
14.5131	0.959
14.5469	0.956
14.5808	0.956
14.6146	0.954
14.6484	0.954
14.6822	0.956
14.716	0.958
