Infrared Spectrum: 1-Ethyl-2-iodobenzene
Formula: C 8 H 9 I
CAS: 18282-40-1
State: gas
Origin: EPA-IR VAPOR PHASE LIBRARY
1/CM	ABSORBANCE
549.8	0.0009901
559.445	0.001542
569.09	0.002292
578.734	0.001262
588.379	0.0003447
598.024	0.0004473
607.669	0.0004628
617.313	0.0007139
626.958	0.0008518
636.603	0.004982
646.248	0.011532
655.893	0.005932
665.537	0.001212
675.182	0.0010373
684.827	0.0006575
694.472	0.000886
704.116	0.001652
713.761	0.003812
723.406	0.009222
733.051	0.023552
742.695	0.043122
752.34	0.031082
761.985	0.011862
771.63	0.004872
781.275	0.004382
790.919	0.004222
800.564	0.002862
810.209	0.001702
819.854	0.001482
829.498	0.001372
839.143	0.0008936
848.788	0.0011907
858.433	0.001422
868.078	0.0009268
877.722	0.0009659
887.367	0.0005535
897.012	0.0007045
906.657	0.0006966
916.301	0.0008327
925.946	0.0010446
935.591	0.001272
945.236	0.001332
954.88	0.001592
964.525	0.001892
974.17	0.002092
983.815	0.002592
993.46	0.007792
1003.1	0.027682
1012.75	0.036382
1022.39	0.015082
1032.04	0.009002
1041.68	0.010302
1051.33	0.006102
1060.97	0.004262
1070.62	0.002882
1080.26	0.001512
1089.91	0.0011494
1099.55	0.0002254
1109.2	0.0006369
1118.84	0.000605
1128.49	0.0005063
1138.13	0.0004818
1147.78	0.0005481
1157.42	0.000498
1167.07	0.0005335
1176.71	0.0004562
1186.36	0.0006822
1196	0.0007887
1205.64	0.0008837
1215.29	0.0008549
1224.93	0.001632
1234.58	0.002152
1244.22	0.001242
1253.87	0.000823
1263.51	0.0009703
1273.16	0.001232
1282.8	0.001692
1292.45	0.002062
1302.09	0.001972
1311.74	0.002042
1321.38	0.002372
1331.03	0.002312
1340.67	0.001742
1350.32	0.001612
1359.96	0.001812
1369.61	0.002572
1379.25	0.003822
1388.9	0.003232
1398.54	0.003032
1408.18	0.003492
1417.83	0.004722
1427.47	0.011062
1437.12	0.016742
1446.76	0.014612
1456.41	0.020352
1466.05	0.027962
1475.7	0.018762
1485.34	0.007002
1494.99	0.003222
1504.63	0.001962
1514.28	0.001472
1523.92	0.001342
1533.57	0.001352
1543.21	0.001892
1552.86	0.004412
1562.5	0.008052
1572.15	0.006942
1581.79	0.006042
1591.44	0.005552
1601.08	0.002782
1610.73	0.001522
1620.37	0.0009895
1630.01	0.0008098
1639.66	0.0007622
1649.3	0.0007428
1658.95	0.0007724
1668.59	0.0011584
1678.24	0.001482
1687.88	0.001362
1697.53	0.0009124
1707.17	0.0009024
1716.82	0.000793
1726.46	0.0006181
1736.11	0.0003938
1745.75	0.000405
1755.4	0.0003588
1765.04	0.0004338
1774.69	0.0007544
1784.33	0.001442
1793.98	0.001662
1803.62	0.0010412
1813.27	0.0009733
1822.91	0.001232
1832.55	0.0011098
1842.2	0.0005297
1851.84	0.0003948
1861.49	0.0006509
1871.13	0.000884
1880.78	0.000906
1890.42	0.0009357
1900.07	0.001902
1909.71	0.002252
1919.36	0.001342
1929	0.0011006
1938.65	0.001712
1948.29	0.001452
1957.94	0.0007041
1967.58	0.0003791
1977.23	0.0003463
1986.87	0.000382
1996.52	0.0004811
2006.16	0.0004163
2015.81	0.0005665
2025.45	0.0005302
2035.1	0.0004984
2044.74	0.0004945
2054.38	0.0004063
2064.03	0.0003349
2073.67	0.0003511
2083.32	0.0004628
2092.96	0.0003987
2102.61	0.0004353
2112.25	0.0003766
2121.9	0.0003263
2131.54	0.0003127
2141.19	0.0003203
2150.83	0.0003983
2160.48	0.0004574
2170.12	0.000353
2179.77	0.00027896
2189.41	0.0003277
2199.06	0.0003468
2208.7	0.0003712
2218.35	0.0004187
2227.99	0.0004182
2237.64	0.0004988
2247.28	0.0005486
2256.92	0.0005794
2266.57	0.0004404
2276.21	0.000488
2285.86	0.0005489
2295.5	0.0004848
2305.15	0.0005163
2314.79	0.0006098
2324.44	0.0006623
2334.08	0.0007474
2343.73	0.0006477
2353.37	0.0006294
2363.02	0.0004837
2372.66	0.0004299
2382.31	0.000443
2391.95	0.000523
2401.6	0.0004606
2411.24	0.0005529
2420.89	0.0005642
2430.53	0.0005835
2440.18	0.0007098
2449.82	0.0005579
2459.47	0.0005422
2469.11	0.0005256
2478.75	0.0005317
2488.4	0.000552
2498.04	0.0006656
2507.69	0.0005445
2517.33	0.0006327
2526.98	0.0006431
2536.62	0.0006332
2546.27	0.000745
2555.91	0.0008189
2565.56	0.0009362
2575.2	0.0009395
2584.85	0.0008917
2594.49	0.0007604
2604.14	0.0007553
2613.78	0.0006298
2623.43	0.0006561
2633.07	0.0007166
2642.72	0.000727
2652.36	0.0005478
2662.01	0.0005402
2671.65	0.0004467
2681.29	0.0006166
2690.94	0.0004961
2700.58	0.0006197
2710.23	0.0006429
2719.87	0.0005906
2729.52	0.0007394
2739.16	0.0009412
2748.81	0.0009627
2758.45	0.0009569
2768.1	0.0010196
2777.74	0.0010286
2787.39	0.0011914
2797.03	0.001292
2806.68	0.001352
2816.32	0.001602
2825.97	0.001752
2835.61	0.002012
2845.26	0.002542
2854.9	0.003292
2864.55	0.005482
2874.19	0.010132
2883.84	0.014442
2893.48	0.013272
2903.12	0.010652
2912.77	0.010032
2922.41	0.011472
2932.06	0.016562
2941.7	0.022852
2951.35	0.021442
2960.99	0.020182
2970.64	0.036652
2980.28	0.038502
2989.93	0.016732
2999.57	0.008972
3009.22	0.008732
3018.86	0.007312
3028.51	0.004992
3038.15	0.005202
3047.8	0.009412
3057.44	0.017282
3067.09	0.024272
3076.73	0.018312
3086.38	0.008112
3096.02	0.004142
3105.67	0.002572
3115.31	0.002512
3124.95	0.002632
3134.6	0.002312
3144.24	0.001472
3153.89	0.001232
3163.53	0.001222
3173.18	0.0010011
3182.82	0.0008605
3192.47	0.0007718
3202.11	0.0007571
3211.76	0.0004356
3221.4	0.0004384
3231.05	0.0005974
3240.69	0.0003664
3250.34	0.0004102
3259.98	0.00037
3269.63	0.0004182
3279.27	0.0006537
3288.92	0.000556
3298.56	0.0003186
3308.21	0.0003613
3317.85	0.0004474
3327.49	0.00024433
3337.14	0.0004075
3346.78	0.0003236
3356.43	0.00028092
3366.07	0.0003183
3375.72	0.0003132
3385.36	0.0004572
3395.01	0.000195431
3404.65	0.0004061
3414.3	0.0002086
3423.94	9.2e-05
3433.59	0.00023758
3443.23	0.00024878
3452.88	0.00023915
3462.52	0.00022109
3472.17	0.00021141
3481.81	0.0004268
3491.46	0.0001565
3501.1	0.0001236
3510.75	0.0001798
3520.39	0.0003257
3530.04	0.0003171
3539.68	0.0003709
3549.32	0.00018745
3558.97	0.0001202
3568.61	0.00020376
3578.26	0.0002585
3587.9	0.00023358
3597.55	0.0001343
3607.19	0.0003024
3616.84	0.00022346
3626.48	0.00026004
3636.13	0.0001668
3645.77	0.000128
3655.42	0.0003555
3665.06	0.0004718
3674.71	0.0004206
3684.35	0.0003673
3694	0.00019065
3703.64	0.00028633
3713.29	0.000416
3722.93	0.00023765
3732.58	0.0004508
3742.22	0.0005148
3751.86	0.0004601
3761.51	0.00029089
3771.15	0.0003392
3780.8	0.0003517
3790.44	0.00021081
3800.09	0.00022372
3809.73	0.0004234
3819.38	0.0003024
3829.02	0.0003433
3838.67	0.0003658
3848.31	0.0005864
3857.96	0.0003936
3867.6	0.00025342
3877.25	0.00023291
3886.89	0.0003051
3896.54	0.00024645
3906.18	0.000325
3915.83	0.0003168
3925.47	0.0003779
3935.12	0.00026541
3944.76	0.0004508
3954.41	0.00023549
3964.05	0.0003421
3973.69	0.0004585
3983.34	0.0005777
3992.98	0.0005188
