Infrared Spectrum: STANNIC OXIDE
Formula: Sn O2
CAS: 18282-10-5
State: SOLID (MINERAL OIL MULL)
Class: COBLENTZ
Instrument: Not specified, most likely a prism, grating, or hybrid spectrometer.
Sampling: TRANSMISSION
Resolution: 4
MICROMETERS	TRANSMITTANCE
2.013	0.4
2.05293	0.402
2.09285	0.425
2.13278	0.452
2.1727	0.469
2.21263	0.48
2.25255	0.494
2.29248	0.522
2.33241	0.53
2.37233	0.535
2.41226	0.545
2.45218	0.552
2.49211	0.565
2.53203	0.58
2.57196	0.597
2.61188	0.604
2.65181	0.614
2.69174	0.627
2.73166	0.639
2.77159	0.651
2.81151	0.661
2.85144	0.659
2.89136	0.654
2.93129	0.656
2.97122	0.651
3.01114	0.651
3.05107	0.659
3.09099	0.666
3.13092	0.679
3.17084	0.682
3.21077	0.694
3.2507	0.699
3.29062	0.704
3.33055	0.721
3.37047	0.719
3.4104	0.595
3.45032	0.165
3.49025	0.083
3.53018	0.115
3.5701	0.178
3.61003	0.601
3.64995	0.774
3.68988	0.813
3.7298	0.813
3.76973	0.829
3.80965	0.841
3.84958	0.851
3.88951	0.858
3.92943	0.866
3.96936	0.873
4.00928	0.881
4.04921	0.891
4.08913	0.898
4.12906	0.901
4.16899	0.901
4.20891	0.903
4.24884	0.903
4.28876	0.903
4.32869	0.904
4.36861	0.904
4.40854	0.906
4.44847	0.919
4.48839	0.921
4.52832	0.924
4.56824	0.924
4.60817	0.926
4.64809	0.931
4.68802	0.931
4.72795	0.934
4.76787	0.939
4.8078	0.941
4.84772	0.946
4.88765	0.949
4.92757	0.958
4.9675	0.958
5.00742	0.961
5.04735	0.961
5.08728	0.969
5.1272	0.973
5.16713	0.981
5.20705	0.983
5.24698	0.989
5.2869	0.991
5.32683	0.994
5.36676	0.994
5.40668	1
5.44661	1.001
5.48653	1.005
5.52646	1.01
5.56638	1.01
5.60631	1.006
5.64624	1.011
5.68616	1.013
5.72609	1.008
5.76601	1.011
5.80594	1.008
5.84586	1.003
5.88579	1.001
5.92572	0.998
5.96564	1.003
6.00557	1.003
6.04549	1.001
6.08542	0.993
6.12534	0.976
6.16527	0.976
6.20519	0.968
6.24512	0.968
6.28505	0.974
6.32497	0.976
6.3649	0.979
6.40482	0.981
6.44475	0.983
6.48467	0.983
6.5246	0.978
6.56453	0.986
6.60445	0.981
6.64438	0.983
6.6843	0.984
6.72423	0.983
6.76415	0.979
6.80408	0.923
6.84401	0.769
6.88393	0.589
6.92386	0.601
6.96378	0.682
7.00371	0.772
7.04363	0.904
7.08356	0.951
7.12349	0.981
7.16341	0.986
7.20334	0.989
7.24326	0.974
7.28319	0.868
7.32311	0.717
7.36304	0.806
7.40296	0.884
7.44289	0.929
7.48282	0.946
7.52274	0.953
7.56267	0.961
7.60259	0.971
7.64252	0.973
7.68244	0.981
7.72237	0.958
7.7623	0.968
7.80222	0.966
7.84215	0.981
7.88207	0.963
7.922	1.003
7.96192	0.974
8.00185	0.996
8.04178	0.969
8.0817	0.984
8.12163	1.003
8.16155	0.966
8.20148	1
8.2414	0.966
8.28133	0.958
8.32126	0.961
8.36118	0.974
8.40111	0.956
8.44103	0.943
8.48096	0.928
8.52088	0.899
8.56081	0.886
8.60073	0.864
8.64066	0.854
8.68059	0.846
8.72051	0.839
8.76044	0.838
8.80036	0.819
8.84029	0.803
8.88021	0.801
8.92014	0.814
8.96007	0.804
8.99999	0.786
9.03992	0.803
9.07984	0.854
9.11977	0.893
9.15969	0.903
9.19962	0.911
9.23955	0.919
9.27947	0.923
9.3194	0.921
9.35932	0.926
9.39925	0.931
9.43917	0.933
9.4791	0.931
9.51903	0.931
9.55895	0.933
9.59888	0.928
9.6388	0.929
9.67873	0.928
9.71865	0.921
9.75858	0.921
9.7985	0.918
9.83843	0.921
9.87836	0.919
9.91828	0.921
9.95821	0.928
9.99813	0.931
10.0381	0.933
10.078	0.931
10.1179	0.933
10.1578	0.936
10.1978	0.936
10.2377	0.929
10.2776	0.928
10.3175	0.929
10.3575	0.931
10.3974	0.929
10.4373	0.929
10.4772	0.934
10.5172	0.939
10.5571	0.938
10.597	0.941
10.6369	0.944
10.6769	0.946
10.7168	0.953
10.7567	0.953
10.7966	0.951
10.8366	0.954
10.8765	0.958
10.9164	0.958
10.9563	0.958
10.9963	0.968
11.0362	0.964
11.0761	0.964
11.1161	0.966
11.156	0.973
11.1959	0.968
11.2358	0.968
11.2758	0.966
11.3157	0.966
11.3556	0.966
11.3955	0.973
11.4355	0.976
11.4754	0.974
11.5153	0.969
11.5552	0.971
11.5952	0.968
11.6351	0.969
11.675	0.968
11.7149	0.966
11.7549	0.966
11.7948	0.964
11.8347	0.959
11.8746	0.958
11.9146	0.961
11.9545	0.964
11.9944	0.956
12.0343	0.954
12.0743	0.951
12.1142	0.956
12.1541	0.956
12.194	0.949
12.234	0.948
12.2739	0.948
12.3138	0.948
12.3537	0.946
12.3937	0.944
12.4336	0.944
12.4735	0.946
12.5135	0.948
12.5534	0.941
12.5933	0.938
12.6332	0.939
12.6732	0.938
12.7131	0.929
12.753	0.928
12.7929	0.921
12.8329	0.913
12.8728	0.904
12.9127	0.898
12.9526	0.889
12.9926	0.884
13.0325	0.873
13.0724	0.863
13.1123	0.849
13.1523	0.838
13.1922	0.814
13.2321	0.787
13.272	0.766
13.312	0.739
13.3519	0.719
13.3918	0.696
13.4317	0.666
13.4717	0.647
13.5116	0.621
13.5515	0.589
13.5914	0.58
13.6314	0.559
13.6713	0.539
13.7112	0.52
13.7511	0.5
13.7911	0.485
13.831	0.469
13.8709	0.459
13.9108	0.449
13.9508	0.435
13.9907	0.417
14.0306	0.407
14.0706	0.395
14.1105	0.387
14.1504	0.37
14.1903	0.355
14.2303	0.342
14.2702	0.33
14.3101	0.328
14.35	0.312
14.39	0.315
14.4299	0.302
14.4698	0.297
14.5097	0.295
14.5497	0.293
14.5896	0.302
14.6295	0.293
14.6694	0.285
14.7094	0.285
14.7493	0.282
14.7892	0.283
14.8291	0.288
14.8691	0.283
14.909	0.283
14.9489	0.288
14.9888	0.302
15.0288	0.333
15.0687	0.337
15.1086	0.307
15.1485	0.302
15.1885	0.3
15.2284	0.307
15.2683	0.308
15.3082	0.318
15.3482	0.322
15.3881	0.327
15.428	0.342
15.4679	0.347
15.5079	0.352
15.5478	0.355
15.5877	0.358
15.6277	0.365
15.6676	0.387
15.7075	0.4
15.7474	0.414
15.7874	0.43
15.8273	0.45
15.8672	0.47
15.9071	0.494
15.9471	0.507
15.987	0.522
