Infrared Spectrum: BENZENE, 1-BROMO-3,4-DICHLORO-
Formula: C6 H3 Br Cl2
CAS: 18282-59-2
State: SOLUTION (10% IN CCl4 FOR 3800-1333 AND 10% IN CS2 FOR 1333-400 CM^-^1)
Class: COBLENTZ III
Instrument: DOW KBr FOREPRISM-GRATING
Instrument parameters: BLAZED AT 3.5, 12.0, 20.0 MICRON, CHANGED AT 5.0, 7.5, 14.9 MICRON
Sampling: TRANSMISSION
Path length: 0.011, 0.011 CM
Resolution: 4
Origin: DOW CHEMICAL COMPANY
1/CM	TRANSMITTANCE
380.87	0.567
389.566	0.572
398.261	0.612
406.957	0.737
415.653	0.85
424.348	0.853
433.044	0.654
441.74	0.957
450.435	0.91
459.131	1.025
467.827	1.039
476.522	1.047
485.218	1.047
493.914	1.05
502.609	1.051
511.305	1.044
520.001	1.027
528.696	0.995
537.392	0.583
546.088	0.908
554.783	1.048
563.479	1.053
572.175	1.053
580.87	1.048
589.566	1.042
598.262	1.048
606.957	1.053
615.653	1.043
624.349	1.032
633.044	1.023
641.74	1.002
650.436	0.98
659.131	0.991
667.827	0.9889
676.523	0.979
685.218	1.013
693.914	1.035
702.609	1.036
711.305	1.032
720.001	1.034
728.696	1.031
737.392	1.035
746.088	1.032
754.783	1.031
763.479	1.016
772.175	1.005
780.87	0.941
789.566	0.4479
798.262	0.785
806.957	0.4267
815.653	0.828
824.349	0.949
833.044	0.979
841.74	0.946
850.436	0.854
859.131	0.775
867.827	0.214
876.523	0.884
885.218	0.97
893.914	1.008
902.61	1.019
911.305	1.024
920.001	1.029
928.697	1.024
937.392	1.005
946.088	1.016
954.784	1.028
963.479	1.027
972.175	1.02
980.871	1.02
989.566	1.012
998.262	1.021
1006.96	1.024
1015.65	0.991
1024.35	0.794
1033.04	0.0292
1041.74	0.926
1050.44	0.933
1059.13	0.978
1067.83	0.854
1076.52	0.295
1085.22	0.6779
1093.91	0.941
1102.61	0.951
1111.31	0.957
1120	0.702
1128.7	0.787
1137.39	0.2309
1146.09	0.937
1154.78	0.985
1163.48	0.94
1172.18	1.009
1180.87	1.014
1189.57	1.021
1198.26	1.019
1206.96	1.013
1215.65	1.01
1224.35	0.991
1233.04	0.982
1241.74	0.884
1250.44	0.974
1259.13	0.983
1267.83	1.006
1276.52	1.008
1285.22	1.012
1293.91	1.009
1302.61	1.005
1311.31	1.006
1320	1.001
1328.7	0.997
1337.39	0.989
1346.09	0.956
1354.78	0.846
1363.48	0.563
1372.18	0.795
1380.87	0.836
1389.57	0.961
1398.26	0.964
1406.96	0.85
1415.65	0.862
1424.35	0.96
1433.05	0.955
1441.74	0.8729
1450.44	0.3379
1459.13	0.1032
1467.83	0.8211
1476.52	0.931
1485.22	0.812
1493.91	0.892
1502.61	0.862
1511.31	0.812
1520	0.759
1528.7	0.708
1537.39	0.625
1546.09	0.515
1554.78	0.398
1563.48	0.323
1572.18	0.576
1580.87	0.717
1589.57	0.771
1598.26	0.862
1606.96	0.931
1615.65	0.933
1624.35	0.96
1633.05	0.985
1641.74	1.001
1650.44	1.001
1659.13	0.998
1667.83	1
1676.52	0.989
1685.22	1
1693.91	1.005
1702.61	0.998
1711.31	1
1720	0.993
1728.7	0.963
1737.39	0.97
1746.09	0.979
1754.78	0.997
1763.48	1.002
1772.18	1.002
1780.87	1.002
1789.57	1.004
1798.26	0.998
1806.96	0.986
1815.65	0.994
1824.35	1.001
1833.05	1
1841.74	1
1850.44	0.998
1859.13	0.997
1867.83	0.993
1876.52	0.976
1885.22	0.941
1893.92	0.993
1902.61	0.995
1911.31	0.997
1920	0.998
1928.7	0.998
1937.39	1
1946.09	1.001
1954.78	1.002
1963.48	1
1972.18	0.993
1980.87	0.991
1989.57	0.989
1998.26	0.985
2006.96	0.974
2015.65	0.972
2024.35	0.972
2033.05	0.9789
2041.74	0.974
2050.44	0.9759
2059.13	0.978
2067.83	0.9702
2076.52	0.978
2085.22	0.978
2093.92	0.9789
2102.61	0.979
2111.31	0.979
2120	0.976
2128.7	0.9714
2137.39	0.9757
2146.09	0.9788
2154.79	0.974
2163.48	0.975
2172.18	0.974
2180.87	0.974
2189.57	0.978
2198.26	0.9776
2206.96	0.978
2215.65	0.978
2224.35	0.976
2233.05	0.976
2241.74	0.974
2250.44	0.972
2259.13	0.9686
2267.83	0.9656
2276.52	0.9593
2285.22	0.9536
2293.92	0.9517
2302.61	0.9597
2311.31	0.9581
2320	0.9894
2328.7	0.9842
2337.39	0.9636
2346.09	0.9646
2354.79	0.9716
2363.48	0.9854
2372.18	0.9784
2380.87	0.975
2389.57	0.9771
2398.26	0.9795
2406.96	0.982
2415.65	0.9841
2424.35	0.986
2433.05	0.987
2441.74	0.986
2450.44	0.988
2459.13	0.989
2467.83	0.989
2476.52	0.987
2485.22	0.986
2493.92	0.986
2502.61	0.9811
2511.31	0.9839
2520	0.9864
2528.7	0.987
2537.39	0.989
2546.09	0.9866
2554.79	0.987
2563.48	0.986
2572.18	0.985
2580.87	0.983
2589.57	0.9807
2598.26	0.983
2606.96	0.979
2615.66	0.979
2624.35	0.979
2633.05	0.982
2641.74	0.9797
2650.44	0.9823
2659.13	0.9853
2667.83	0.985
2676.52	0.982
2685.22	0.9758
2693.92	0.9724
2702.61	0.9792
2711.31	0.983
2720	0.985
2728.7	0.983
2737.39	0.9852
2746.09	0.983
2754.79	0.982
2763.48	0.983
2772.18	0.979
2780.87	0.979
2789.57	0.976
2798.26	0.9736
2806.96	0.9679
2815.66	0.9711
2824.35	0.9791
2833.05	0.98
2841.74	0.9821
2850.44	0.9819
2859.13	0.979
2867.83	0.979
2876.53	0.979
2885.22	0.978
2893.92	0.979
2902.61	0.979
2911.31	0.979
2920	0.9761
2928.7	0.975
2937.39	0.975
2946.09	0.975
2954.79	0.975
2963.48	0.975
2972.18	0.974
2980.87	0.974
2989.57	0.9711
2998.26	0.9652
3006.96	0.9679
3015.66	0.9749
3024.35	0.9741
3033.05	0.971
3041.74	0.972
3050.44	0.9702
3059.13	0.9606
3067.83	0.9426
3076.53	0.9362
3085.22	0.9262
3093.92	0.895
3102.61	0.9391
3111.31	0.953
3120	0.957
3128.7	0.9597
3137.39	0.963
3146.09	0.9677
3154.79	0.9694
3163.48	0.972
3172.18	0.9747
3180.87	0.974
3189.57	0.974
3198.26	0.9743
3206.96	0.9747
3215.66	0.976
3224.35	0.975
3233.05	0.9756
3241.74	0.978
3250.44	0.978
3259.13	0.975
3267.83	0.975
3276.53	0.975
3285.22	0.974
3293.92	0.9756
3302.61	0.9771
3311.31	0.9769
3320	0.9745
3328.7	0.974
3337.4	0.976
3346.09	0.976
3354.79	0.972
3363.48	0.975
3372.18	0.9755
3380.87	0.975
3389.57	0.9745
3398.26	0.9769
3406.96	0.9749
3415.66	0.972
3424.35	0.972
3433.05	0.9716
3441.74	0.9712
3450.44	0.971
3459.13	0.968
3467.83	0.9704
3476.53	0.968
3485.22	0.968
3493.92	0.968
3502.61	0.967
3511.31	0.9677
3520	0.967
3528.7	0.9647
3537.4	0.964
3546.09	0.963
3554.79	0.964
3563.48	0.963
3572.18	0.9647
3580.87	0.963
3589.57	0.9642
3598.26	0.9632
3606.96	0.9608
3615.66	0.96
3624.35	0.963
3633.05	0.9626
3641.74	0.961
3650.44	0.959
3659.13	0.96
3667.83	0.963
3676.53	0.9573
3685.22	0.964
3693.92	0.964
3702.61	0.967
3711.31	0.965
3720	0.9671
3728.7	0.9679
3737.4	0.9668
3746.09	0.9641
3754.79	0.963
3763.48	0.957
3772.18	0.961
3780.87	0.965
