Infrared Spectrum: Trimethylsilyl bromoacetate
Formula: C 5 H 11 Br O 2 Si
CAS: 18291-80-0
State: gas
Origin: EPA-IR VAPOR PHASE LIBRARY
1/CM	ABSORBANCE
549.8	0.0006728
559.445	0.0006596
569.09	0.000326
578.735	0.0009001
588.38	0.0009443
598.025	0.0010101
607.67	0.001449
617.315	0.0009763
626.96	0.0011182
636.605	0.0011454
646.251	0.0014003
655.896	0.002139
665.541	0.002399
675.186	0.003619
684.831	0.004909
694.476	0.005479
704.121	0.006209
713.766	0.005419
723.411	0.004419
733.056	0.003619
742.701	0.004069
752.346	0.005299
761.991	0.006109
771.636	0.005889
781.281	0.004669
790.926	0.003799
800.571	0.003309
810.216	0.003619
819.861	0.005649
829.507	0.009699
839.152	0.017569
848.797	0.029689
858.442	0.032949
868.087	0.018939
877.732	0.011029
887.377	0.007939
897.022	0.006429
906.667	0.005609
916.312	0.004689
925.957	0.005879
935.602	0.010219
945.247	0.013549
954.892	0.008849
964.537	0.003819
974.182	0.002169
983.827	0.0014107
993.472	0.0012343
1003.12	0.0009741
1012.76	0.000876
1022.41	0.0007548
1032.05	0.0007396
1041.7	0.0007721
1051.34	0.0009667
1060.99	0.0008768
1070.63	0.001085
1080.28	0.001759
1089.92	0.002379
1099.57	0.003859
1109.21	0.005809
1118.86	0.006599
1128.5	0.005439
1138.15	0.004949
1147.79	0.005999
1157.44	0.009299
1167.08	0.011559
1176.73	0.007399
1186.37	0.004819
1196.02	0.004199
1205.66	0.005079
1215.31	0.005939
1224.95	0.004009
1234.6	0.003969
1244.24	0.007259
1253.89	0.014389
1263.53	0.021279
1273.18	0.026819
1282.82	0.036029
1292.47	0.034719
1302.11	0.022459
1311.76	0.014109
1321.4	0.007789
1331.05	0.004139
1340.69	0.002629
1350.34	0.002059
1359.98	0.001699
1369.63	0.001449
1379.27	0.0013481
1388.92	0.0013047
1398.56	0.001689
1408.21	0.002539
1417.85	0.003999
1427.5	0.003569
1437.14	0.002009
1446.79	0.0014207
1456.43	0.0011249
1466.08	0.0010784
1475.73	0.0009683
1485.37	0.0008555
1495.02	0.0007283
1504.66	0.000576
1514.31	0.0006455
1523.95	0.0006186
1533.6	0.0006334
1543.24	0.0005888
1552.89	0.0006456
1562.53	0.00052315
1572.18	0.0006121
1581.82	0.0005873
1591.47	0.0005448
1601.11	0.0006582
1610.76	0.0007337
1620.4	0.0006934
1630.05	0.000812
1639.69	0.0007856
1649.34	0.0008219
1658.98	0.0008592
1668.63	0.0008469
1678.27	0.0010111
1687.92	0.0014059
1697.56	0.001899
1707.21	0.003179
1716.85	0.007129
1726.5	0.015329
1736.14	0.019999
1745.79	0.014819
1755.43	0.008679
1765.08	0.005069
1774.72	0.003059
1784.37	0.002009
1794.01	0.0013819
1803.66	0.0011962
1813.3	0.0009302
1822.95	0.0008534
1832.59	0.0007979
1842.24	0.0007541
1851.88	0.0008111
1861.53	0.0006163
1871.17	0.0006909
1880.82	0.0006644
1890.46	0.0006369
1900.11	0.0005608
1909.75	0.00049936
1919.4	0.00047603
1929.04	0.00052119
1938.69	0.000534
1948.33	0.00050858
1957.98	0.0005755
1967.62	0.00052683
1977.27	0.0005637
1986.91	0.00049507
1996.56	0.00046699
2006.2	0.00044901
2015.85	0.0005415
2025.49	0.00048722
2035.14	0.00046834
2044.78	0.0004516
2054.43	0.00043942
2064.07	0.00042055
2073.72	0.000429359
2083.36	0.0003449
2093.01	0.00042217
2102.65	0.0004056
2112.3	0.0003554
2121.94	0.00044161
2131.59	0.00047222
2141.23	0.00042056
2150.88	0.0003404
2160.52	0.0004026
2170.17	0.0003696
2179.81	0.0004115
2189.46	0.0003449
2199.1	0.0003576
2208.75	0.00045125
2218.39	0.00043205
2228.04	0.0003816
2237.68	0.00050466
2247.33	0.0003773
2256.97	0.0003537
2266.62	0.0003714
2276.26	0.00042739
2285.91	0.000299
2295.55	0.000394
2305.2	0.000321
2314.84	0.000324
2324.49	0.00047861
2334.13	0.0004069
2343.78	0.000319
2353.42	0.0003433
2363.07	0.0003453
2372.72	0.0003504
2382.36	0.00045979
2392.01	0.0003756
2401.65	0.0003486
2411.3	0.000279
2420.94	0.00025
2430.59	0.0003456
2440.23	0.000261
2449.88	0.0003345
2459.52	0.0004014
2469.17	0.000278
2478.81	0.0004076
2488.46	0.000294
2498.1	0.000352
2507.75	0.000328
2517.39	0.000273
2527.04	0.000295
2536.68	0.0003492
2546.33	0.0003374
2555.97	0.000313
2565.62	0.0003326
2575.26	0.000351
2584.91	0.000308
2594.55	0.00029
2604.2	0.000318
2613.84	0.0003338
2623.49	0.000333
2633.13	0.000285
2642.78	0.000282
2652.42	0.00027
2662.07	0.0003746
2671.71	0.0003597
2681.36	0.0003562
2691	0.000293
2700.65	0.000264
2710.29	0.0003311
2719.94	0.000273
2729.58	0.000293
2739.23	0.0003813
2748.87	0.0003372
2758.52	0.00025
2768.16	0.000307
2777.81	0.0003808
2787.45	0.00037
2797.1	0.00042671
2806.74	0.00051887
2816.39	0.00049881
2826.03	0.0006507
2835.68	0.0005716
2845.32	0.0005647
2854.97	0.0007305
2864.61	0.0005765
2874.26	0.0006652
2883.9	0.0007852
2893.55	0.0009612
2903.19	0.0013673
2912.84	0.001739
2922.48	0.0011762
2932.13	0.0009373
2941.77	0.001141
2951.42	0.001819
2961.06	0.003939
2970.71	0.004829
2980.35	0.003379
2990	0.002089
2999.64	0.0010417
3009.29	0.0007612
3018.93	0.0007402
3028.58	0.0005379
3038.22	0.0007945
3047.87	0.00066
3057.51	0.0008651
3067.16	0.0007026
3076.8	0.0006661
3086.45	0.0006011
3096.09	0.000699
3105.74	0.0005652
3115.38	0.0006265
3125.03	0.00048245
3134.67	0.0003844
3144.32	0.00024
3153.96	0.000299
3163.61	0.000254
3173.25	0.000299
3182.9	0.0003341
3192.54	0.00044724
3202.19	0.000171
3211.83	0.000287
3221.48	0.000178
3231.12	0.0003379
3240.77	0.0003301
3250.41	0.0003596
3260.06	0.000203
3269.7	0.00042073
3279.35	5.9e-05
3289	0.000251
3298.64	0.000327
3308.29	0.000204
3317.93	0.000256
3327.58	0.000261
3337.22	0.00045283
3346.87	5e-05
3356.51	0.0003571
3366.16	0.00022
3375.8	0.000202
3385.45	0.000294
3395.09	0.000221
3404.74	0.000288
3414.38	0.000302
3424.03	0.0006202
3433.67	0.0004104
3443.32	0.0003851
3452.96	0.000322
3462.61	0.00047107
3472.25	0.0003918
3481.9	0.0004471
3491.54	0.000274
3501.19	0.00050654
3510.83	0.000245
3520.48	0.00026
3530.12	0.000247
3539.77	0.000149
3549.41	0.0005519
3559.06	0.0004147
3568.7	0.00028
3578.35	0.0003292
3587.99	0.00048961
3597.64	0.0005419
3607.28	0.0004017
3616.93	0.000187
3626.57	0.000184
3636.22	0.00043068
3645.86	0.0004161
3655.51	0.0004119
3665.15	0.0003916
3674.8	0.0003933
3684.44	0.0004039
3694.09	0.00045377
3703.73	0.000253
3713.38	0.00050043
3723.02	0.000235
3732.67	0.00045638
3742.31	0.00051058
3751.96	0.0004156
3761.6	0.0003464
3771.25	0.000299
3780.89	0.00049081
3790.54	0.00052867
3800.18	0.000435533
3809.83	0.0003696
3819.47	0.000433427
3829.12	0.000326
3838.76	0.00042455
3848.41	0.0003647
3858.05	0.0003895
3867.7	0.0003402
3877.34	0.00022
3886.99	0.00016
3896.63	0.0004138
3906.28	0.0003808
3915.92	0.000207
3925.57	0.0003807
3935.21	4.3e-05
3944.86	0.0003637
3954.5	0
3964.15	0.0003604
3973.79	0.00044246
3983.44	0.00052289
3993.08	0.000214
