Infrared Spectrum: N-P-NITRO-PHENYL-BENZENE-SULFONAMIDE
Formula: C12 H10 N2 O4 S
CAS: 1829-81-8
State: SOLID (1.0% IN KBr PELLET)
Class: COBLENTZ
Instrument: Not specified, most likely a prism, grating, or hybrid spectrometer.
Sampling: TRANSMISSION
Path length: 0.0355 CM
Resolution: 4
Origin: ANDERSON PHYSICAL LABORATORY
1/CM	TRANSMITTANCE
672.897	0.3
681.308	0.1487
689.719	0.059
698.131	0.5634
706.542	0.5761
714.953	0.1513
723.364	0.3198
731.775	0.547
740.187	0.529
748.598	0.1401
757.009	0.324
765.42	0.615
773.831	0.598
782.243	0.534
790.654	0.4111
799.065	0.1991
807.476	0.2389
815.887	0.574
824.299	0.502
832.71	0.441
841.121	0.498
849.532	0.2702
857.944	0.097
866.355	0.3319
874.766	0.447
883.177	0.395
891.588	0.294
900	0.143
908.411	0.043
916.822	0.049
925.233	0.221
933.644	0.416
942.056	0.5649
950.467	0.586
958.878	0.588
967.289	0.531
975.7	0.543
984.112	0.549
992.523	0.525
1000.93	0.365
1009.35	0.441
1017.76	0.446
1026.17	0.404
1034.58	0.422
1042.99	0.413
1051.4	0.404
1059.81	0.381
1068.22	0.327
1076.63	0.264
1085.05	0.167
1093.46	0.056
1101.87	0.194
1110.28	0.0821
1118.69	0.2747
1127.1	0.1072
1135.51	0.3149
1143.92	0.284
1152.34	0.097
1160.75	0.043
1169.16	0.049
1177.57	0.25
1185.98	0.13
1194.39	0.2509
1202.8	0.4378
1211.21	0.491
1219.63	0.429
1228.04	0.351
1236.45	0.0971
1244.86	0.136
1253.27	0.287
1261.68	0.398
1270.09	0.3571
1278.5	0.272
1286.92	0.1841
1295.33	0.052
1303.74	0.1699
1312.15	0.098
1320.56	0.059
1328.97	0.055
1337.38	0.04
1345.79	0.04
1354.2	0.041
1362.62	0.079
1371.03	0.2469
1379.44	0.2901
1387.85	0.248
1396.26	0.288
1404.67	0.109
1413.08	0.2
1421.49	0.559
1429.91	0.694
1438.32	0.6331
1446.73	0.369
1455.14	0.232
1463.55	0.1822
1471.96	0.059
1480.37	0.2389
1488.78	0.308
1497.2	0.098
1505.61	0.167
1514.02	0.115
1522.43	0.052
1530.84	0.052
1539.25	0.1869
1547.66	0.5079
1556.07	0.6549
1564.48	0.679
1572.9	0.589
1581.31	0.416
1589.72	0.163
1598.13	0.068
1606.54	0.178
1614.95	0.2349
1623.36	0.6249
1631.77	0.757
1640.19	0.8739
1648.6	0.928
1657.01	0.938
1665.42	0.934
1673.83	0.922
1682.24	0.845
1690.65	0.823
1699.06	0.877
1707.48	0.899
1715.89	0.892
1724.3	0.907
1732.71	0.886
1741.12	0.881
1749.53	0.875
1757.94	0.874
1766.35	0.856
1774.76	0.797
1783.18	0.803
1791.59	0.793
1800	0.764
1808.41	0.794
1816.82	0.793
1825.23	0.8
1833.64	0.823
1842.05	0.815
1850.47	0.811
1858.88	0.8
1867.29	0.796
1875.7	0.791
1884.11	0.782
1892.52	0.775
1900.93	0.744
1909.34	0.726
1917.76	0.732
1926.17	0.718
1934.58	0.688
1942.99	0.654
1951.4	0.7149
1959.81	0.735
1968.22	0.73
1976.63	0.7
1985.05	0.691
1993.46	0.717
2001.87	0.721
2010.28	0.7178
2018.69	0.714
2027.1	0.715
2035.51	0.7175
2043.92	0.718
2052.33	0.717
2060.75	0.7076
2069.16	0.6996
2077.57	0.6895
2085.98	0.676
2094.39	0.673
2102.8	0.674
2111.21	0.6757
2119.62	0.675
2128.04	0.6638
2136.45	0.6576
2144.86	0.6525
2153.27	0.651
2161.68	0.6488
2170.09	0.6465
2178.5	0.6378
2186.91	0.633
2195.33	0.6213
2203.74	0.617
2212.15	0.6123
2220.56	0.6071
2228.97	0.6033
2237.38	0.601
2245.79	0.603
2254.2	0.606
2262.61	0.607
2271.03	0.6065
2279.44	0.5988
2287.85	0.594
2296.26	0.5718
2304.67	0.566
2313.08	0.5643
2321.49	0.565
2329.9	0.567
2338.32	0.5675
2346.73	0.567
2355.14	0.565
2363.55	0.5648
2371.96	0.564
2380.37	0.562
2388.78	0.561
2397.19	0.5575
2405.61	0.5511
2414.02	0.5385
2422.43	0.5201
2430.84	0.5108
2439.25	0.5105
2447.66	0.526
2456.07	0.525
2464.48	0.5213
2472.9	0.5101
2481.31	0.5055
2489.72	0.504
2498.13	0.5042
2506.54	0.506
2514.95	0.5077
2523.36	0.511
2531.77	0.5115
2540.18	0.513
2548.6	0.513
2557.01	0.513
2565.42	0.5108
2573.83	0.5085
2582.24	0.5043
2590.65	0.501
2599.06	0.4965
2607.47	0.4885
2615.89	0.486
2624.3	0.486
2632.71	0.486
2641.12	0.4825
2649.53	0.4793
2657.94	0.4711
2666.35	0.4678
2674.76	0.465
2683.18	0.467
2691.59	0.468
2700	0.47
2708.41	0.469
2716.82	0.4673
2725.23	0.464
2733.64	0.4603
2742.05	0.454
2750.46	0.4505
2758.88	0.449
2767.29	0.4378
2775.7	0.4345
2784.11	0.4258
2792.52	0.422
2800.93	0.4183
2809.34	0.409
2817.75	0.399
2826.17	0.395
2834.58	0.3965
2842.99	0.4039
2851.4	0.4159
2859.81	0.42
2868.22	0.42
2876.63	0.418
2885.04	0.4133
2893.46	0.4041
2901.87	0.39
2910.28	0.383
2918.69	0.3967
2927.1	0.41
2935.51	0.4078
2943.92	0.403
2952.33	0.3983
2960.74	0.3861
2969.16	0.3825
2977.57	0.379
2985.98	0.375
2994.39	0.3591
3002.8	0.3501
3011.21	0.343
3019.62	0.3395
3028.03	0.3261
3036.45	0.3172
3044.86	0.2956
3053.27	0.2745
3061.68	0.263
3070.09	0.264
3078.5	0.2739
3086.91	0.287
3095.32	0.299
3103.74	0.3224
3112.15	0.3354
3120.56	0.3417
3128.97	0.347
3137.38	0.345
3145.79	0.343
3154.2	0.3413
3162.61	0.329
3171.03	0.315
3179.44	0.3065
3187.85	0.2978
3196.26	0.294
3204.67	0.2903
3213.08	0.2845
3221.49	0.2706
3229.9	0.2502
3238.31	0.2398
3246.73	0.229
3255.14	0.218
3263.55	0.2021
3271.96	0.1805
3280.37	0.1426
3288.78	0.1158
3297.19	0.1001
3305.6	0.088
3314.02	0.094
3322.43	0.1667
3330.84	0.2507
3339.25	0.3393
3347.66	0.433
3356.07	0.4732
3364.48	0.471
3372.89	0.4635
3381.31	0.4456
3389.72	0.4305
3398.13	0.4131
3406.54	0.3973
3414.95	0.391
3423.36	0.3848
3431.77	0.38
3440.18	0.3763
3448.59	0.372
3457.01	0.372
3465.42	0.371
3473.83	0.371
3482.24	0.3715
3490.65	0.372
3499.06	0.372
3507.47	0.372
3515.88	0.372
3524.3	0.374
3532.71	0.374
3541.12	0.375
3549.53	0.375
3557.94	0.377
3566.35	0.375
3574.76	0.374
3583.17	0.374
3591.59	0.374
3600	0.374
3608.41	0.3755
3616.82	0.377
3625.23	0.378
3633.64	0.378
3642.05	0.378
3650.46	0.377
3658.88	0.377
3667.29	0.375
3675.7	0.375
3684.11	0.374
3692.52	0.374
3700.93	0.374
3709.34	0.3735
3717.75	0.372
3726.16	0.371
3734.58	0.371
3742.99	0.3688
3751.4	0.3656
3759.81	0.3598
3768.22	0.357
3776.63	0.3525
3785.04	0.35
3793.45	0.348
3801.87	0.345
3810.28	0.3448
3818.69	0.342
3827.1	0.341
3835.51	0.342
3843.92	0.3442
3852.33	0.3475
3860.74	0.348
3869.16	0.348
3877.57	0.347
3885.98	0.345
3894.39	0.342
3902.8	0.341
3911.21	0.341
3919.62	0.34
3928.03	0.3383
3936.44	0.338
3944.86	0.3345
3953.27	0.332
3961.68	0.332
3970.09	0.332
3978.5	0.332
