Infrared Spectrum: CROTONALDEHYDE 2,4-DINITROPHENYLHYDRAZONE
Formula: C10 H10 N4 O4
CAS: 18318-80-4
Class: COBLENTZ
Instrument: Not specified, most likely a grating spectrometer.
Sampling: TRANSMISSION
Resolution: 4
Origin: ABBOTT LABORATORIES
MICROMETERS	TRANSMITTANCE
2.007	0.906
2.03566	0.906
2.06433	0.902
2.09299	0.901
2.12166	0.901
2.15032	0.897
2.17899	0.895
2.20765	0.897
2.23632	0.897
2.26498	0.901
2.29365	0.901
2.32231	0.897
2.35098	0.899
2.37964	0.901
2.40831	0.902
2.43697	0.904
2.46564	0.904
2.4943	0.906
2.52297	0.906
2.55163	0.906
2.5803	0.904
2.60896	0.904
2.63763	0.901
2.66629	0.899
2.69496	0.89
2.72362	0.895
2.75229	0.901
2.78095	0.893
2.80962	0.885
2.83828	0.89
2.86695	0.897
2.89561	0.897
2.92427	0.895
2.95294	0.888
2.9816	0.867
3.01027	0.754
3.03893	0.577
3.0676	0.669
3.09626	0.8
3.12493	0.848
3.15359	0.863
3.18226	0.86
3.21092	0.782
3.23959	0.759
3.26825	0.768
3.29692	0.773
3.32558	0.772
3.35425	0.793
3.38291	0.798
3.41158	0.791
3.44024	0.786
3.46891	0.798
3.49757	0.793
3.52624	0.796
3.5549	0.818
3.58357	0.84
3.61223	0.851
3.6409	0.853
3.66956	0.853
3.69823	0.855
3.72689	0.86
3.75555	0.855
3.78422	0.856
3.81288	0.86
3.84155	0.865
3.87021	0.869
3.89888	0.874
3.92754	0.869
3.95621	0.867
3.98487	0.872
4.01354	0.874
4.0422	0.869
4.07087	0.862
4.09953	0.855
4.1282	0.853
4.15686	0.856
4.18553	0.863
4.21419	0.872
4.24286	0.872
4.27152	0.874
4.30019	0.878
4.32885	0.878
4.35752	0.879
4.38618	0.879
4.41485	0.879
4.44351	0.881
4.47218	0.879
4.50084	0.881
4.52951	0.883
4.55817	0.885
4.58684	0.885
4.6155	0.886
4.64416	0.886
4.67283	0.886
4.70149	0.89
4.73016	0.893
4.75882	0.89
4.78749	0.888
4.81615	0.888
4.84482	0.883
4.87348	0.883
4.90215	0.885
4.93081	0.886
4.95948	0.881
4.98814	0.883
5.01681	0.886
5.04547	0.886
5.07414	0.883
5.1028	0.886
5.13147	0.879
5.16013	0.872
5.1888	0.881
5.21746	0.886
5.24613	0.881
5.27479	0.879
5.30346	0.886
5.33212	0.881
5.36079	0.867
5.38945	0.867
5.41812	0.865
5.44678	0.853
5.47545	0.848
5.50411	0.865
5.53277	0.867
5.56144	0.871
5.5901	0.881
5.61877	0.878
5.64743	0.869
5.6761	0.863
5.70476	0.863
5.73343	0.865
5.76209	0.858
5.79076	0.848
5.81942	0.851
5.84809	0.849
5.87675	0.842
5.90542	0.832
5.93408	0.816
5.96275	0.791
5.99141	0.759
6.02008	0.699
6.04874	0.593
6.07741	0.295
6.10607	0.249
6.13474	0.393
6.1634	0.252
6.19207	0.019
6.22073	0.003
6.2494	0.038
6.27806	0.033
6.30673	0.035
6.33539	0.054
6.36405	0.102
6.39272	0.609
6.42138	0.627
6.45005	0.56
6.47871	0.492
6.50738	0.438
6.53604	0.388
6.56471	0.335
6.59337	0.27
6.62204	0.217
6.6507	0.157
6.67937	0.13
6.70803	0.208
6.7367	0.381
6.76536	0.485
6.79403	0.602
6.82269	0.669
6.85136	0.692
6.88002	0.634
6.90869	0.531
6.93735	0.466
6.96602	0.418
6.99468	0.369
7.02335	0.3
7.05201	0.22
7.08068	0.22
7.10934	0.586
7.13801	0.68
7.16667	0.734
7.19534	0.75
7.224	0.749
7.25266	0.651
7.28133	0.56
7.30999	0.515
7.33866	0.507
7.36732	0.5
7.39599	0.454
7.42465	0.337
7.45332	0.148
7.48198	0.054
7.51065	0.014
7.53931	0.005
7.56798	0.005
7.59664	0.01
7.62531	0.045
7.65397	0.097
7.68264	0.03
7.7113	0.015
7.73997	0.12
7.76863	0.201
7.7973	0.245
7.82596	0.196
7.85463	0.132
7.88329	0.128
7.91196	0.15
7.94062	0.196
7.96929	0.21
7.99795	0.277
8.02662	0.362
8.05528	0.425
8.08395	0.468
8.11261	0.48
8.14127	0.482
8.16994	0.482
8.1986	0.48
8.22727	0.478
8.25593	0.478
8.2846	0.477
8.31326	0.477
8.34193	0.482
8.37059	0.489
8.39926	0.501
8.42792	0.545
8.45659	0.607
8.48525	0.674
8.51392	0.733
8.54258	0.761
8.57125	0.787
8.59991	0.8
8.62858	0.802
8.65724	0.796
8.68591	0.779
8.71457	0.729
8.74324	0.653
8.7719	0.505
8.80057	0.238
8.82923	0.09
8.8579	0.079
8.88656	0.139
8.91523	0.215
8.94389	0.233
8.97255	0.256
9.00122	0.27
9.02988	0.263
9.05855	0.238
9.08721	0.224
9.11588	0.268
9.14454	0.484
9.17321	0.547
9.20187	0.563
9.23054	0.551
9.2592	0.51
9.28787	0.436
9.31653	0.326
9.3452	0.257
9.37386	0.28
9.40253	0.385
9.43119	0.542
9.45986	0.581
9.48852	0.565
9.51719	0.522
9.54585	0.524
9.57452	0.54
9.60318	0.583
9.63185	0.662
9.66051	0.713
9.68918	0.752
9.71784	0.798
9.74651	0.826
9.77517	0.846
9.80384	0.855
9.8325	0.858
9.86116	0.858
9.88983	0.855
9.91849	0.853
9.94716	0.849
9.97582	0.846
10.0045	0.844
10.0332	0.839
10.0618	0.832
10.0905	0.821
10.1191	0.802
10.1478	0.782
10.1765	0.662
10.2051	0.533
10.2338	0.339
10.2625	0.16
10.2911	0.187
10.3198	0.477
10.3485	0.68
10.3771	0.713
10.4058	0.759
10.4345	0.78
10.4631	0.789
10.4918	0.795
10.5205	0.791
10.5491	0.787
10.5778	0.779
10.6065	0.763
10.6351	0.736
10.6638	0.699
10.6924	0.65
10.7211	0.609
10.7498	0.616
10.7784	0.625
10.8071	0.609
10.8358	0.563
10.8644	0.498
10.8931	0.469
10.9218	0.595
10.9504	0.674
10.9791	0.726
11.0078	0.777
11.0364	0.81
11.0651	0.83
11.0938	0.84
11.1224	0.851
11.1511	0.855
11.1797	0.858
11.2084	0.86
11.2371	0.863
11.2657	0.872
11.2944	0.878
11.3231	0.881
11.3517	0.89
11.3804	0.895
11.4091	0.902
11.4377	0.901
11.4664	0.895
11.4951	0.892
11.5237	0.888
11.5524	0.881
11.5811	0.878
11.6097	0.878
11.6384	0.876
11.667	0.872
11.6957	0.867
11.7244	0.863
11.753	0.855
11.7817	0.844
11.8104	0.814
11.839	0.807
11.8677	0.796
11.8964	0.779
11.925	0.743
11.9537	0.637
11.9824	0.542
12.011	0.252
12.0397	0.312
12.0684	0.507
12.097	0.674
12.1257	0.738
12.1544	0.779
12.183	0.795
12.2117	0.809
12.2403	0.823
12.269	0.837
12.2977	0.846
12.3263	0.853
12.355	0.86
12.3837	0.86
12.4123	0.863
12.441	0.867
