Infrared Spectrum: METHYL PHOSPHONIC ACID, o-ETHYL ESTER
Formula: C3 H9 O3 P
CAS: 1832-53-7
State: LIQUID
Class: COBLENTZ
Instrument: Not specified, most likely a prism, grating, or hybrid spectrometer.
Sampling: TRANSMISSION
Path length: LIQUID FILM BETWEEN KBr PLATES
Resolution: 4
Origin: G. A. M. S.
1/CM	TRANSMITTANCE
625.824	0.792
634.236	0.793
642.648	0.796
651.059	0.796
659.471	0.795
667.883	0.792
676.295	0.787
684.707	0.78
693.118	0.769
701.53	0.749
709.942	0.715
718.354	0.687
726.765	0.69
735.177	0.706
743.589	0.716
752.001	0.749
760.413	0.755
768.824	0.744
777.236	0.713
785.648	0.6461
794.06	0.569
802.472	0.593
810.883	0.616
819.295	0.669
827.707	0.683
836.119	0.678
844.53	0.669
852.942	0.658
861.354	0.638
869.766	0.609
878.178	0.592
886.589	0.583
895.001	0.576
903.413	0.6
911.825	0.604
920.237	0.592
928.648	0.564
937.06	0.501
945.472	0.453
953.884	0.416
962.295	0.393
970.707	0.387
979.119	0.358
987.531	0.31
995.943	0.3
1004.35	0.316
1012.77	0.338
1021.18	0.367
1029.59	0.355
1038	0.323
1046.41	0.32
1054.83	0.346
1063.24	0.39
1071.65	0.447
1080.06	0.464
1088.47	0.456
1096.88	0.449
1105.3	0.449
1113.71	0.447
1122.12	0.443
1130.53	0.436
1138.94	0.426
1147.35	0.416
1155.77	0.415
1164.18	0.416
1172.59	0.423
1181	0.423
1189.41	0.42
1197.83	0.418
1206.24	0.421
1214.65	0.436
1223.06	0.461
1231.47	0.492
1239.88	0.53
1248.3	0.575
1256.71	0.621
1265.12	0.66
1273.53	0.683
1281.94	0.696
1290.36	0.69
1298.77	0.663
1307.18	0.57
1315.59	0.52
1324	0.666
1332.41	0.729
1340.83	0.749
1349.24	0.755
1357.65	0.746
1366.06	0.727
1374.47	0.729
1382.88	0.712
1391.3	0.676
1399.71	0.706
1408.12	0.715
1416.53	0.7
1424.94	0.71
1433.36	0.709
1441.77	0.698
1450.18	0.701
1458.59	0.707
1467	0.704
1475.41	0.698
1483.83	0.696
1492.24	0.703
1500.65	0.7
1509.06	0.695
1517.47	0.69
1525.89	0.684
1534.3	0.675
1542.71	0.67
1551.12	0.667
1559.53	0.661
1567.94	0.653
1576.36	0.644
1584.77	0.635
1593.18	0.626
1601.59	0.618
1610	0.61
1618.41	0.6
1626.83	0.59
1635.24	0.583
1643.65	0.573
1652.06	0.569
1660.47	0.567
1668.89	0.567
1677.3	0.567
1685.71	0.569
1694.12	0.573
1702.53	0.58
1710.94	0.586
1719.36	0.592
1727.77	0.596
1736.18	0.6
1744.59	0.604
1753	0.61
1761.42	0.616
1769.83	0.626
1778.24	0.635
1786.65	0.644
1795.06	0.65
1803.47	0.655
1811.89	0.663
1820.3	0.666
1828.71	0.67
1837.12	0.675
1845.53	0.68
1853.94	0.684
1862.36	0.689
1870.77	0.692
1879.18	0.692
1887.59	0.692
1896	0.692
1904.42	0.692
1912.83	0.693
1921.24	0.693
1929.65	0.693
1938.06	0.692
1946.47	0.686
1954.89	0.683
1963.3	0.687
1971.71	0.684
1980.12	0.684
1988.53	0.681
1996.95	0.68
2005.36	0.676
2013.77	0.673
2022.18	0.6697
2030.59	0.667
2039	0.6632
2047.42	0.659
2055.83	0.6545
2064.24	0.65
2072.65	0.6462
2081.06	0.6419
2089.47	0.6374
2097.89	0.6349
2106.3	0.6304
2114.71	0.6279
2123.12	0.6254
2131.53	0.623
2139.95	0.6202
2148.36	0.616
2156.77	0.613
2165.18	0.61
2173.59	0.6073
2182	0.6064
2190.42	0.6036
2198.83	0.601
2207.24	0.601
2215.65	0.6
2224.06	0.598
2232.48	0.596
2240.89	0.596
2249.3	0.595
2257.71	0.595
2266.12	0.595
2274.53	0.595
2282.95	0.595
2291.36	0.5954
2299.77	0.598
2308.18	0.6009
2316.59	0.6037
2325	0.6079
2333.42	0.6134
2341.83	0.6198
2350.24	0.6237
2358.65	0.6283
2367.06	0.6356
2375.48	0.6429
2383.89	0.6467
2392.3	0.65
2400.71	0.652
2409.12	0.652
2417.53	0.652
2425.95	0.652
2434.36	0.6515
2442.77	0.65
2451.18	0.649
2459.59	0.647
2468.01	0.646
2476.42	0.644
2484.83	0.6415
2493.24	0.6389
2501.65	0.6374
2510.06	0.633
2518.48	0.632
2526.89	0.6294
2535.3	0.6284
2543.71	0.626
2552.12	0.6244
2560.54	0.623
2568.95	0.621
2577.36	0.62
2585.77	0.62
2594.18	0.62
2602.59	0.62
2611.01	0.62
2619.42	0.6209
2627.83	0.6222
2636.24	0.6234
2644.65	0.626
2653.06	0.6269
2661.48	0.627
2669.89	0.629
2678.3	0.63
2686.71	0.632
2695.12	0.6343
2703.54	0.6354
2711.95	0.6383
2720.36	0.6409
2728.77	0.643
2737.18	0.6448
2745.59	0.647
2754.01	0.649
2762.42	0.65
2770.83	0.652
2779.24	0.6522
2787.65	0.6549
2796.07	0.655
2804.48	0.655
2812.89	0.655
2821.3	0.655
2829.71	0.6523
2838.12	0.65
2846.54	0.6485
2854.95	0.646
2863.36	0.6433
2871.77	0.639
2880.18	0.6345
2888.59	0.632
2897.01	0.6315
2905.42	0.634
2913.83	0.6385
2922.24	0.641
2930.65	0.643
2939.07	0.6379
2947.48	0.6258
2955.89	0.6149
2964.3	0.6092
2972.71	0.6081
2981.12	0.6205
2989.54	0.6468
2997.95	0.6844
3006.36	0.7105
3014.77	0.7257
3023.18	0.7383
3031.6	0.7455
3040.01	0.7538
3048.42	0.7604
3056.83	0.7663
3065.24	0.7717
3073.65	0.7772
3082.07	0.7817
3090.48	0.7861
3098.89	0.7899
3107.3	0.7956
3115.71	0.7988
3124.12	0.8013
3132.54	0.8039
3140.95	0.8067
3149.36	0.8094
3157.77	0.812
3166.18	0.8148
3174.6	0.8173
3183.01	0.8204
3191.42	0.823
3199.83	0.824
3208.24	0.827
3216.65	0.8294
3225.07	0.832
3233.48	0.833
3241.89	0.8374
3250.3	0.84
3258.71	0.843
3267.13	0.846
3275.54	0.847
3283.95	0.849
3292.36	0.8505
3300.77	0.852
3309.18	0.8545
3317.6	0.8555
3326.01	0.858
3334.42	0.86
3342.83	0.86
3351.24	0.861
3359.65	0.8616
3368.07	0.863
3376.48	0.8656
3384.89	0.866
3393.3	0.867
3401.71	0.869
3410.13	0.869
3418.54	0.87
3426.95	0.872
3435.36	0.873
3443.77	0.8758
3452.18	0.8772
3460.6	0.88
3469.01	0.881
3477.42	0.883
3485.83	0.8852
3494.24	0.8864
3502.66	0.8872
3511.07	0.889
3519.48	0.89
3527.89	0.892
3536.3	0.893
3544.71	0.8948
3553.13	0.896
3561.54	0.898
3569.95	0.9
3578.36	0.9009
3586.77	0.901
3595.18	0.901
3603.6	0.903
3612.01	0.903
3620.42	0.9037
3628.83	0.904
3637.24	0.904
3645.66	0.906
3654.07	0.906
3662.48	0.906
3670.89	0.906
3679.3	0.906
3687.71	0.906
3696.13	0.906
3704.54	0.906
3712.95	0.906
3721.36	0.9067
3729.77	0.907
3738.19	0.907
3746.6	0.907
3755.01	0.907
3763.42	0.907
3771.83	0.907
3780.24	0.907
3788.66	0.907
3797.07	0.907
3805.48	0.907
3813.89	0.907
3822.3	0.907
3830.71	0.907
3839.13	0.907
3847.54	0.907
3855.95	0.907
3864.36	0.907
3872.77	0.907
3881.19	0.9072
3889.6	0.909
3898.01	0.909
3906.42	0.909
3914.83	0.909
3923.24	0.909
3931.66	0.907
3940.07	0.907
3948.48	0.907
3956.89	0.907
3965.3	0.904
3973.72	0.904
3982.13	0.904
