Infrared Spectrum: Silane, (chloromethyl)dimethylphenyl-
Formula: C9 H13 Cl Si
CAS: 1833-51-8
State: SOLUTION (10% CCl4 FOR 3800-1300, 2% CS2 FOR 1300-650, AND 10% CCl4 FOR 650-260) VS SOLVENT
Boiling point: 225 C
Class: COBLENTZ III
Instrument: PERKIN-ELMER 521 (GRATING)
Instrument parameters: FILTERS AT 3150, 2500, 2000, 1150, 700, 410. GRATING CHANGES: 2000, 630
Path length: 0.012 CM, 0.010 CM, AND 0.009 CM
Resolution: 2
Origin: DOW CORNING CORP.
1/CM	TRANSMITTANCE
263	0.8024
272	0.8047
281	0.8111
290	0.8127
299	0.84
308	0.8477
317	0.8478
326	0.8451
335	0.8752
344	0.9129
353	0.8989
362	0.8538
371	0.6289
380	0.8586
389	0.8169
398	0.5037
407	0.7365
416	0.8702
425	0.8929
434	0.8928
443	0.8822
452	0.861
461	0.6489
470	0.5624
479	0.8583
488	0.8945
497	0.9087
506	0.9115
515	0.9107
524	0.9074
533	0.9036
542	0.9
551	0.8993
560	0.8991
569	0.8938
578	0.8805
587	0.8008
596	0.537
605	0.7926
614	0.866
623	0.8721
632	0.8692
641	0.8445
650	0.8017
659	0.8232
668	0.8033
677	0.8325
686	0.8445
695	0.705
704	0.5812
713	0.7535
722	0.8195
731	0.656
740	0.7395
749	0.79
758	0.8713
767	0.8979
776	0.8838
785	0.7463
794	0.7435
803	0.7534
812	0.4994
821	0.5164
830	0.5402
839	0.3608
848	0.6861
857	0.848
866	0.8872
875	0.9166
884	0.9293
893	0.9325
902	0.9367
911	0.9413
920	0.9426
929	0.944
938	0.9459
947	0.9449
956	0.9413
965	0.9457
974	0.9474
983	0.947
992	0.9422
1001	0.9596
1010	0.9655
1019	0.9661
1028	0.9639
1037	0.962
1046	0.9615
1055	0.9614
1064	0.9624
1073	0.9619
1082	0.9528
1091	0.9403
1100	0.9356
1109	0.8521
1118	0.5631
1127	0.968
1136	0.9761
1145	0.9671
1154	0.9609
1163	0.9422
1172	0.9277
1181	0.9467
1190	0.9458
1199	0.9488
1208	0.947
1217	0.9411
1226	0.9315
1235	0.9029
1244	0.6703
1253	0.7384
1262	0.8708
1271	0.9278
1280	0.9306
1289	0.925
1298	0.8159
1307	0.7181
1316	0.7972
1325	0.8251
1334	0.7433
1343	0.8317
1352	0.8317
1361	0.8223
1370	0.7749
1379	0.7536
1388	0.6424
1397	0.5071
1406	0.6233
1415	0.6534
1424	0.5197
1433	0.6248
1442	0.7835
1451	0.82
1460	0.8307
1469	0.8322
1478	0.8219
1487	0.7173
1496	0.8607
1505	0.8684
1514	0.87
1523	0.8695
1532	0.8674
1541	0.8651
1550	0.8655
1559	0.8705
1568	0.8631
1577	0.8355
1586	0.7784
1595	0.8408
1604	0.87
1613	0.8734
1622	0.8831
1631	0.8768
1640	0.868
1649	0.8655
1658	0.8812
1667	0.8855
1676	0.8892
1685	0.8897
1694	0.8932
1703	0.8978
1712	0.8982
1721	0.8978
1730	0.8973
1739	0.8954
1748	0.889
1757	0.8722
1766	0.8785
1775	0.8774
1784	0.8982
1793	0.8974
1802	0.8832
1811	0.8461
1820	0.8573
1829	0.8737
1838	0.8867
1847	0.8902
1856	0.8821
1865	0.8818
1874	0.8577
1883	0.8445
1892	0.857
1901	0.853
1910	0.8883
1919	0.893
1928	0.8974
1937	0.8846
1946	0.8486
1955	0.8219
1964	0.8676
1973	0.863
1982	0.8969
1991	0.8926
2000	0.9069
2009	0.9109
2018	0.9119
2027	0.9121
2036	0.912
2045	0.9111
2054	0.9111
2063	0.9118
2072	0.9125
2081	0.9114
2090	0.9121
2099	0.9144
2108	0.9183
2117	0.9198
2126	0.9195
2135	0.9182
2144	0.9165
2153	0.9159
2162	0.917
2171	0.9169
2180	0.916
2189	0.9153
2198	0.9137
2207	0.9117
2216	0.9097
2225	0.9085
2234	0.9074
2243	0.9074
2252	0.9086
2261	0.9104
2270	0.9123
2279	0.9137
2288	0.9151
2297	0.9162
2306	0.9173
2315	0.9183
2324	0.9187
2333	0.9191
2342	0.9194
2351	0.9194
2360	0.9195
2369	0.9195
2378	0.9194
2387	0.9193
2396	0.9192
2405	0.9197
2414	0.9203
2423	0.9207
2432	0.9206
2441	0.9204
2450	0.9197
2459	0.9185
2468	0.9168
2477	0.9149
2486	0.9099
2495	0.9119
2504	0.9156
2513	0.9186
2522	0.9186
2531	0.9174
2540	0.9154
2549	0.9135
2558	0.9119
2567	0.911
2576	0.9117
2585	0.9123
2594	0.9126
2603	0.9129
2612	0.9129
2621	0.9126
2630	0.9125
2639	0.9123
2648	0.9122
2657	0.9121
2666	0.9121
2675	0.9119
2684	0.9108
2693	0.9095
2702	0.9057
2711	0.9113
2720	0.912
2729	0.9115
2738	0.9103
2747	0.9085
2756	0.9051
2765	0.8975
2774	0.8872
2783	0.8801
2792	0.8759
2801	0.8743
2810	0.8743
2819	0.8766
2828	0.8794
2837	0.8801
2846	0.8762
2855	0.8723
2864	0.8687
2873	0.8654
2882	0.8581
2891	0.8272
2900	0.7876
2909	0.7382
2918	0.7401
2927	0.6532
2936	0.5793
2945	0.7175
2954	0.7029
2963	0.5499
2972	0.3969
2981	0.4641
2990	0.7549
2999	0.7589
3008	0.6463
3017	0.6578
3026	0.6279
3035	0.6063
3044	0.7235
3053	0.6833
3062	0.5534
3071	0.6166
3080	0.4916
3089	0.7506
3098	0.7538
3107	0.8351
3116	0.8696
3125	0.8839
3134	0.8792
3143	0.8701
3152	0.8996
3161	0.9076
3170	0.9077
3179	0.9102
3188	0.9158
3197	0.9215
3206	0.9237
3215	0.9245
3224	0.9252
3233	0.9259
3242	0.9264
3251	0.9265
3260	0.9266
3269	0.9266
3278	0.9267
3287	0.9267
3296	0.9265
3305	0.926
3314	0.9252
3323	0.924
3332	0.9224
3341	0.9207
3350	0.9218
3359	0.9183
3368	0.9176
3377	0.9179
3386	0.9181
3395	0.9182
3404	0.9181
3413	0.918
3422	0.9182
3431	0.919
3440	0.9198
3449	0.9211
3458	0.9228
3467	0.9236
3476	0.924
3485	0.9241
3494	0.924
3503	0.9235
3512	0.922
3521	0.9195
3530	0.9211
3539	0.9203
3548	0.9191
3557	0.917
3566	0.9149
3575	0.9132
3584	0.9114
3593	0.9094
3602	0.9076
3611	0.9062
3620	0.9059
3629	0.9057
3638	0.9035
3647	0.902
3656	0.9076
3665	0.9074
3674	0.9052
3683	0.904
3692	0.9038
3701	0.9016
3710	0.9017
3719	0.9006
3728	0.8991
3737	0.9011
3746	0.8959
3755	0.894
3764	0.8933
3773	0.8969
3782	0.9067
3791	0.9092
3800	0.9099
3809	0.9093
3818	0.9077
