Infrared Spectrum: Methyl 4-methylaminobenzoate
Formula: C 9 H 11 N O 2
CAS: 18358-63-9
State: gas
Origin: EPA-IR VAPOR PHASE LIBRARY
1/CM	ABSORBANCE
549.9	0.003041
559.547	0.003371
569.193	0.003791
578.84	0.004291
588.486	0.004601
598.133	0.004631
607.779	0.004441
617.426	0.003231
627.072	0.002071
636.719	0.001961
646.365	0.0015766
656.012	0.0015367
665.658	0.001801
675.305	0.002311
684.951	0.003071
694.598	0.003751
704.245	0.003311
713.891	0.002631
723.538	0.002151
733.184	0.002021
742.831	0.002131
752.477	0.003331
762.124	0.005861
771.77	0.007521
781.417	0.004901
791.063	0.002541
800.71	0.001971
810.356	0.002441
820.003	0.003931
829.649	0.005671
839.296	0.005311
848.943	0.003231
858.589	0.001761
868.236	0.0013761
877.882	0.0013295
887.529	0.0012669
897.175	0.001192
906.822	0.0011189
916.468	0.0010198
926.115	0.0010076
935.761	0.0010876
945.408	0.0011412
955.054	0.0013732
964.701	0.001871
974.347	0.001981
983.994	0.0015125
993.64	0.0012578
1003.29	0.001711
1012.93	0.001951
1022.58	0.0014166
1032.23	0.0015372
1041.87	0.001941
1051.52	0.002861
1061.17	0.004721
1070.81	0.006271
1080.46	0.008171
1090.11	0.014111
1099.75	0.022181
1109.4	0.026901
1119.05	0.020651
1128.69	0.010311
1138.34	0.006441
1147.99	0.006101
1157.63	0.006911
1167.28	0.014831
1176.92	0.046761
1186.57	0.028471
1196.22	0.010311
1205.86	0.006841
1215.51	0.005981
1225.16	0.005911
1234.8	0.007461
1244.45	0.014791
1254.1	0.036881
1263.74	0.062531
1273.39	0.072631
1283.04	0.057471
1292.68	0.022201
1302.33	0.013831
1311.98	0.015791
1321.62	0.017761
1331.27	0.013331
1340.92	0.006461
1350.56	0.004001
1360.21	0.003151
1369.86	0.002541
1379.5	0.002451
1389.15	0.002771
1398.79	0.003801
1408.44	0.004261
1418.09	0.003541
1427.73	0.006491
1437.38	0.012591
1447.03	0.007221
1456.67	0.004871
1466.32	0.004801
1475.97	0.005391
1485.61	0.006991
1495.26	0.006481
1504.91	0.006281
1514.55	0.013891
1524.2	0.019841
1533.85	0.011271
1543.49	0.004881
1553.14	0.003461
1562.79	0.003541
1572.43	0.004691
1582.08	0.006891
1591.73	0.014021
1601.37	0.030841
1611.02	0.042741
1620.67	0.027531
1630.31	0.009561
1639.96	0.004801
1649.6	0.003421
1659.25	0.002751
1668.9	0.002461
1678.54	0.002451
1688.19	0.002831
1697.84	0.003461
1707.48	0.004801
1717.13	0.010601
1726.78	0.029581
1736.42	0.051631
1746.07	0.032581
1755.72	0.010191
1765.36	0.003931
1775.01	0.002461
1784.66	0.002111
1794.3	0.001901
1803.95	0.0014811
1813.6	0.0012108
1823.24	0.0009945
1832.89	0.0008938
1842.54	0.0009423
1852.18	0.0008828
1861.83	0.0009264
1871.47	0.0009967
1881.12	0.0010637
1890.77	0.0012556
1900.41	0.0014473
1910.06	0.0013875
1919.71	0.00131
1929.35	0.0012076
1939	0.0010807
1948.65	0.0009302
1958.29	0.0007558
1967.94	0.00072213
1977.59	0.00072265
1987.23	0.00070115
1996.88	0.00068928
2006.53	0.00073641
2016.17	0.0008111
2025.82	0.0007978
2035.47	0.00074807
2045.11	0.00074531
2054.76	0.0008598
2064.41	0.0009972
2074.05	0.0010667
2083.7	0.0010897
2093.35	0.0010269
2102.99	0.000943
2112.64	0.0008987
2122.28	0.0007917
2131.93	0.00072708
2141.58	0.0006195
2151.22	0.00059
2160.87	0.000536
2170.52	0.000539
2180.16	0.000538
2189.81	0.000517
2199.46	0.000506
2209.1	0.000531
2218.75	0.000537
2228.4	0.000523
2238.04	0.000536
2247.69	0.000495
2257.34	0.00054
2266.98	0.000549
2276.63	0.00054
2286.28	0.000532
2295.92	0.000528
2305.57	0.0006262
2315.22	0.0006074
2324.86	0.000564
2334.51	0.000527
2344.16	0.000519
2353.8	0.000537
2363.45	0.0005957
2373.09	0.000565
2382.74	0.0005909
2392.39	0.0005845
2402.03	0.000617
2411.68	0.000558
2421.33	0.000514
2430.97	0.000545
2440.62	0.00055
2450.27	0.000508
2459.91	0.000505
2469.56	0.000466
2479.21	0.000496
2488.85	0.000547
2498.5	0.000506
2508.15	0.000516
2517.79	0.000554
2527.44	0.0006483
2537.09	0.00074073
2546.73	0.0007844
2556.38	0.0008709
2566.03	0.0008959
2575.67	0.0010107
2585.32	0.0011125
2594.96	0.0010124
2604.61	0.0008286
2614.26	0.000675774
2623.9	0.0005942
2633.55	0.000551
2643.2	0.00052
2652.84	0.000443
2662.49	0.000361
2672.14	0.000392
2681.78	0.000391
2691.43	0.000391
2701.08	0.000455
2710.72	0.000437
2720.37	0.000525
2730.02	0.0006515
2739.66	0.0005762
2749.31	0.0006458
2758.96	0.0006485
2768.6	0.0008551
2778.25	0.0009135
2787.9	0.0011097
2797.54	0.001294
2807.19	0.001711
2816.84	0.002541
2826.48	0.003711
2836.13	0.004041
2845.77	0.004081
2855.42	0.003271
2865.07	0.002361
2874.71	0.002591
2884.36	0.003481
2894.01	0.004741
2903.65	0.006041
2913.3	0.006401
2922.95	0.006141
2932.59	0.005861
2942.24	0.006811
2951.89	0.010181
2961.53	0.011301
2971.18	0.005951
2980.83	0.004811
2990.47	0.005691
3000.12	0.004851
3009.77	0.003781
3019.41	0.003871
3029.06	0.004281
3038.71	0.003381
3048.35	0.002091
3058	0.001981
3067.64	0.002381
3077.29	0.002651
3086.94	0.001971
3096.58	0.0014271
3106.23	0.0011835
3115.88	0.0009805
3125.52	0.00069722
3135.17	0.00068118
3144.82	0.000492
3154.46	0.000409
3164.11	0.000305
3173.76	0.000257
3183.4	0.000224
3193.05	0.000143
3202.7	0.000104
3212.34	0.000178
3221.99	5.7e-05
3231.64	0.000152
3241.28	0.000106
3250.93	0.000132
3260.58	2.4e-05
3270.22	0.000172
3279.87	0.000218
3289.52	5.9e-05
3299.16	0.00019
3308.81	0.000135
3318.45	0.000188
3328.1	0.000282
3337.75	0.000339
3347.39	0.000205
3357.04	0.000199
3366.69	0.000121
3376.33	0.000111
3385.98	0.000113
3395.63	0.000158
3405.27	0.000352
3414.92	0.000456
3424.57	0.000525
3434.21	0.0010914
3443.86	0.001911
3453.51	0.003041
3463.15	0.003291
3472.8	0.002071
3482.45	0.0012119
3492.09	0.00072731
3501.74	0.000522
3511.39	0.000426
3521.03	0.000432
3530.68	0.000413
3540.33	0.000422
3549.97	0.000363
3559.62	0.000387
3569.26	0.000384
3578.91	0.000332
3588.56	0.000254
3598.2	0.000281
3607.85	0.000372
3617.5	0.000309
3627.14	0.0005
3636.79	0.000366
3646.44	0.000369
3656.08	0.00036
3665.73	0.000311
3675.38	0.00045
3685.02	0.000366
3694.67	0.000422
3704.32	0.000365
3713.96	0.000396
3723.61	0.000367
3733.26	0.000269
3742.9	0.000468
3752.55	0.000405
3762.2	0.000427
3771.84	0.000405
3781.49	0.000304
3791.13	0.000358
3800.78	0.000404
3810.43	0.000331
3820.07	0.000392
3829.72	0.000331
3839.37	0.000395
3849.01	0.000453
3858.66	0.000404
3868.31	0.000489
3877.95	0.000407
3887.6	0.000501
3897.25	0.000417
3906.89	0.000473
3916.54	0.000372
3926.19	0.000395
3935.83	0.000417
3945.48	0.000453
3955.13	0.000348
3964.77	0.000415
3974.42	0.0004
3984.07	0.000462
3993.71	0.000428
