Infrared Spectrum: 2,3-Difluorobenzoylchloride
Formula: C 7 H 3 Cl F 2 O
CAS: 18355-73-2
State: gas
Origin: EPA-IR VAPOR PHASE LIBRARY
1/CM	ABSORBANCE
549.8	0.003494
559.445	0.007784
569.09	0.011324
578.734	0.007464
588.379	0.002344
598.024	0.002014
607.669	0.003014
617.313	0.007624
626.958	0.011554
636.603	0.009704
646.248	0.006424
655.893	0.004594
665.537	0.004844
675.182	0.003744
684.827	0.003014
694.472	0.003524
704.116	0.005424
713.761	0.013104
723.406	0.029254
733.051	0.037394
742.695	0.050054
752.34	0.070594
761.985	0.061894
771.63	0.040374
781.275	0.035014
790.919	0.028124
800.564	0.016714
810.209	0.015854
819.854	0.018744
829.498	0.023944
839.143	0.045604
848.788	0.051564
858.433	0.025984
868.078	0.007864
877.722	0.003834
887.367	0.002754
897.012	0.003354
906.657	0.003234
916.301	0.003074
925.946	0.001994
935.591	0.002414
945.236	0.003014
954.88	0.003524
964.525	0.004784
974.17	0.007444
983.815	0.013914
993.46	0.023014
1003.1	0.027124
1012.75	0.025184
1022.39	0.020064
1032.04	0.012374
1041.68	0.007384
1051.33	0.006064
1060.97	0.007314
1070.62	0.009224
1080.26	0.008014
1089.91	0.004704
1099.55	0.003944
1109.2	0.005404
1118.84	0.002494
1128.49	0.002454
1138.13	0.002284
1147.78	0.003304
1157.42	0.003174
1167.07	0.004264
1176.71	0.003884
1186.36	0.004244
1196	0.006244
1205.64	0.007604
1215.29	0.014924
1224.93	0.043104
1234.58	0.076364
1244.22	0.057804
1253.87	0.026554
1263.51	0.026784
1273.16	0.052934
1282.8	0.059084
1292.45	0.035194
1302.09	0.018354
1311.74	0.007264
1321.38	0.004064
1331.03	0.004024
1340.67	0.003924
1350.32	0.002934
1359.96	0.001874
1369.61	0.001784
1379.25	0.001595
1388.9	0.001994
1398.54	0.001924
1408.18	0.001914
1417.83	0.002284
1427.47	0.002874
1437.12	0.003664
1446.76	0.006474
1456.41	0.012894
1466.05	0.027454
1475.7	0.066814
1485.34	0.114594
1494.99	0.091824
1504.63	0.031944
1514.28	0.013704
1523.92	0.008454
1533.57	0.005794
1543.21	0.004614
1552.86	0.003854
1562.5	0.004174
1572.15	0.005374
1581.79	0.009494
1591.44	0.013844
1601.08	0.012674
1610.73	0.010404
1620.37	0.010434
1630.01	0.006524
1639.66	0.003294
1649.3	0.002114
1658.95	0.0016261
1668.59	0.001954
1678.24	0.002264
1687.88	0.002984
1697.53	0.003224
1707.17	0.003014
1716.82	0.004024
1726.46	0.006844
1736.11	0.011204
1745.75	0.018574
1755.4	0.033404
1765.04	0.048914
1774.69	0.048954
1784.33	0.048204
1793.98	0.066634
1803.62	0.068944
1813.27	0.042284
1822.91	0.021344
1832.55	0.012954
1842.2	0.007544
1851.84	0.005674
1861.49	0.005114
1871.13	0.004214
1880.78	0.002624
1890.42	0.001994
1900.07	0.001734
1909.71	0.001724
1919.36	0.002264
1929	0.002144
1938.65	0.001934
1948.29	0.0014541
1957.94	0.0009864
1967.58	0.0011422
1977.23	0.0013523
1986.87	0.0012519
1996.52	0.0013384
2006.16	0.0011297
2015.81	0.0012285
2025.45	0.0013125
2035.1	0.0013049
2044.74	0.0011469
2054.38	0.0010437
2064.03	0.0011832
2073.67	0.0012193
2083.32	0.0014133
2092.96	0.001204
2102.61	0.0009942
2112.25	0.0010625
2121.9	0.0012256
2131.54	0.000999
2141.19	0.00074242
2150.83	0.0009343
2160.48	0.0008502
2170.12	0.0009868
2179.77	0.0009715
2189.41	0.0009592
2199.06	0.000898
2208.7	0.0010189
2218.35	0.0009734
2227.99	0.0010687
2237.64	0.0011872
2247.28	0.00116
2256.92	0.001181
2266.57	0.0009392
2276.21	0.0009824
2285.86	0.0011879
2295.5	0.0011014
2305.15	0.0011582
2314.79	0.0011517
2324.44	0.0011464
2334.08	0.0011245
2343.73	0.0010896
2353.37	0.00074654
2363.02	0.0008545
2372.66	0.0008959
2382.31	0.00070211
2391.95	0.00072111
2401.6	0.000506
2411.24	0.000812
2420.89	0.0009165
2430.53	0.0008876
2440.18	0.0011291
2449.82	0.0012279
2459.47	0.0012074
2469.11	0.0013165
2478.75	0.0012202
2488.4	0.0013382
2498.04	0.0011446
2507.69	0.0011968
2517.33	0.0011757
2526.98	0.0012491
2536.62	0.0011337
2546.27	0.0014841
2555.91	0.0012289
2565.56	0.0012714
2575.2	0.0014498
2584.85	0.0015014
2594.49	0.001094
2604.14	0.001247
2613.78	0.0011143
2623.43	0.0008331
2633.07	0.0011236
2642.72	0.0009647
2652.36	0.0011641
2662.01	0.000603
2671.65	0.00071888
2681.29	0.0009394
2690.94	0.00068841
2700.58	0.0009087
2710.23	0.0010431
2719.87	0.0010581
2729.52	0.0011884
2739.16	0.0009533
2748.81	0.000867
2758.45	0.001468
2768.1	0.0008236
2777.74	0.00067105
2787.39	0.0008415
2797.03	0.0009289
2806.68	0.0013192
2816.32	0.001006
2825.97	0.001147
2835.61	0.0010754
2845.26	0.0012481
2854.9	0.0009721
2864.55	0.0010529
2874.19	0.0009191
2883.84	0.0008337
2893.48	0.0008978
2903.12	0.0006176
2912.77	0.0007631
2922.41	0.00071418
2932.06	0.0010208
2941.7	0.000515
2951.35	0.00067581
2960.99	0.000533
2970.64	0.000374
2980.28	0.000303
2989.93	0.000492
2999.57	0.0006428
3009.22	0.00066668
3018.86	0.0007655
3028.51	0.0010429
3038.15	0.0011946
3047.8	0.0014172
3057.44	0.0015898
3067.09	0.001954
3076.73	0.002094
3086.38	0.002204
3096.02	0.002134
3105.67	0.001864
3115.31	0.001018
3124.95	0.0011692
3134.6	0.00073361
3144.24	0.0009251
3153.89	0.0011905
3163.53	0.0008928
3173.18	0.000502
3182.82	0.000532
3192.47	0.0006418
3202.11	0.000548
3211.76	0.0005553
3221.4	0.0008316
3231.05	0.00043
3240.69	0.0009232
3250.34	0.00070014
3259.98	0.0006169
3269.63	0.000953
3279.27	0.00071815
3288.92	0.000654029
3298.56	0.0007574
3308.21	0.000543
3317.85	0.000198
3327.49	0.0007274
3337.14	0.0008367
3346.78	0.00070143
3356.43	0.00042
3366.07	0.001025
3375.72	0.0006095
3385.36	7.5e-05
3395.01	0.0006155
3404.65	0.0010923
3414.3	0.000146
3423.94	0.000173
3433.59	0.000381
3443.23	0.0011639
3452.88	0.0005551
3462.52	0.00074285
3472.17	0.0008388
3481.81	0.0009199
3491.46	0.0011375
3501.1	0.001704
3510.75	0.0008784
3520.39	0.0011012
3530.04	0.0012536
3539.68	0.0011449
3549.32	0.001914
3558.97	0.001794
3568.61	0.0015405
3578.26	0.0013897
3587.9	0.0015595
3597.55	0.0014063
3607.19	0.0010674
3616.84	0.0012002
3626.48	0.000926
3636.13	0.00075329
3645.77	0.0008104
3655.42	0.000423
3665.06	0.0014343
3674.71	0.0013382
3684.35	0.00074374
3694	0.0005684
3703.64	0.0008608
3713.29	0.0008048
3722.93	0.00053
3732.58	0.00072404
3742.22	0.0010004
3751.86	0.0006361
3761.51	0.000908
3771.15	0.0010913
3780.8	0.0007621
3790.44	0.00072961
3800.09	0.0006431
3809.73	0.0005624
3819.38	0.0011423
3829.02	0.0005839
3838.67	0.0009693
3848.31	0.0009976
3857.96	0.00074564
3867.6	0.0006247
3877.25	0.0013425
3886.89	8e-06
3896.54	0.0007558
3906.18	0.00075166
3915.83	0.001223
3925.47	0.000462
3935.12	0.0011138
3944.76	0.0007998
3954.41	0.000506
3964.05	0.0010787
3973.69	0.0008234
3983.34	0.000524
3992.98	0.0009388
