Infrared Spectrum: 4-Benzyloxy-3-methoxyacetophenone
Formula: C 16 H 16 O 3
CAS: 1835-11-6
State: gas
Origin: EPA-IR VAPOR PHASE LIBRARY
1/CM	ABSORBANCE
549.8	0.004811
559.445	0.009211
569.09	0.013031
578.734	0.010181
588.379	0.009571
598.024	0.012141
607.669	0.010681
617.313	0.006611
626.958	0.004711
636.603	0.005781
646.248	0.007481
655.893	0.005861
665.537	0.005421
675.182	0.008601
684.827	0.013111
694.472	0.020101
704.116	0.015201
713.761	0.012021
723.406	0.015161
733.051	0.017351
742.695	0.014691
752.34	0.013321
761.985	0.012661
771.63	0.010461
781.275	0.008871
790.919	0.008371
800.564	0.011931
810.209	0.012501
819.854	0.011671
829.498	0.009571
839.143	0.009711
848.788	0.009531
858.433	0.008081
868.078	0.010761
877.722	0.014441
887.367	0.011411
897.012	0.008911
906.657	0.008171
916.301	0.006571
925.946	0.005611
935.591	0.006451
945.236	0.009321
954.88	0.016041
964.525	0.018881
974.17	0.024101
983.815	0.027021
993.46	0.030351
1003.1	0.035851
1012.75	0.042101
1022.39	0.047771
1032.04	0.042001
1041.68	0.026631
1051.33	0.013441
1060.97	0.009821
1070.62	0.013541
1080.26	0.013621
1089.91	0.009471
1099.55	0.008901
1109.2	0.013631
1118.84	0.028761
1128.49	0.048581
1138.13	0.043901
1147.78	0.031311
1157.42	0.020731
1167.07	0.032801
1176.71	0.050951
1186.36	0.039611
1196	0.051661
1205.64	0.079541
1215.29	0.078201
1224.93	0.049711
1234.58	0.039611
1244.22	0.050271
1253.87	0.080551
1263.51	0.141581
1273.16	0.172731
1282.8	0.165681
1292.45	0.102621
1302.09	0.055711
1311.74	0.035711
1321.38	0.026381
1331.03	0.020651
1340.67	0.018861
1350.32	0.026991
1359.96	0.043131
1369.61	0.026961
1379.25	0.021611
1388.9	0.019561
1398.54	0.031561
1408.18	0.052241
1417.83	0.043181
1427.47	0.021511
1437.12	0.016621
1446.76	0.018971
1456.41	0.025301
1466.05	0.029531
1475.7	0.022611
1485.34	0.025311
1494.99	0.056571
1504.63	0.090071
1514.28	0.047221
1523.92	0.020301
1533.57	0.012791
1543.21	0.011011
1552.86	0.012821
1562.5	0.018771
1572.15	0.029411
1581.79	0.038541
1591.44	0.053861
1601.08	0.046781
1610.73	0.020321
1620.37	0.010201
1630.01	0.007381
1639.66	0.006771
1649.3	0.007671
1658.95	0.009661
1668.59	0.010101
1678.24	0.014691
1687.88	0.039781
1697.53	0.110131
1707.17	0.059581
1716.82	0.015551
1726.46	0.008481
1736.11	0.008351
1745.75	0.008201
1755.4	0.005161
1765.04	0.003351
1774.69	0.002921
1784.33	0.002911
1793.98	0.003261
1803.62	0.003091
1813.27	0.002351
1822.91	0.002241
1832.55	0.002271
1842.2	0.002161
1851.84	0.002341
1861.49	0.002561
1871.13	0.002721
1880.78	0.002571
1890.42	0.002281
1900.07	0.002101
1909.71	0.001981
1919.36	0.002081
1929	0.002241
1938.65	0.002601
1948.29	0.003031
1957.94	0.003101
1967.58	0.002341
1977.23	0.002001
1986.87	0.002041
1996.52	0.002131
2006.16	0.002191
2015.81	0.002321
2025.45	0.002341
2035.1	0.002481
2044.74	0.002361
2054.38	0.002351
2064.03	0.002041
2073.67	0.001791
2083.32	0.001721
2092.96	0.001561
2102.61	0.001331
2112.25	0.0010594
2121.9	0.0009208
2131.54	0.0010123
2141.19	0.0009579
2150.83	0.0010639
2160.48	0.0010411
2170.12	0.0009832
2179.77	0.0010788
2189.41	0.0009457
2199.06	0.0008584
2208.7	0.0008931
2218.35	0.0009638
2227.99	0.0010449
2237.64	0.0011836
2247.28	0.0010898
2256.92	0.0012601
2266.57	0.001281
2276.21	0.0011806
2285.86	0.0012199
2295.5	0.0010513
2305.15	0.0010788
2314.79	0.0011586
2324.44	0.0010015
2334.08	0.0008757
2343.73	0.0011261
2353.37	0.0009957
2363.02	0.0009299
2372.66	0.0008646
2382.31	0.0009275
2391.95	0.0008579
2401.6	0.0008624
2411.24	0.0010051
2420.89	0.0009144
2430.53	0.0009999
2440.18	0.0010843
2449.82	0.0011672
2459.47	0.001331
2469.11	0.001421
2478.75	0.001401
2488.4	0.001341
2498.04	0.0012583
2507.69	0.001361
2517.33	0.001351
2526.98	0.001491
2536.62	0.001401
2546.27	0.001731
2555.91	0.001871
2565.56	0.002081
2575.2	0.002381
2584.85	0.002411
2594.49	0.002171
2604.14	0.002001
2613.78	0.001801
2623.43	0.001531
2633.07	0.001501
2642.72	0.001245
2652.36	0.0011266
2662.01	0.0011352
2671.65	0.0010703
2681.29	0.0010629
2690.94	0.0008575
2700.58	0.0009855
2710.23	0.0010222
2719.87	0.0010734
2729.52	0.0012073
2739.16	0.0011789
2748.81	0.0012267
2758.45	0.0011561
2768.1	0.001291
2777.74	0.001481
2787.39	0.001641
2797.03	0.001821
2806.68	0.002521
2816.32	0.003601
2825.97	0.005151
2835.61	0.007871
2845.26	0.009221
2854.9	0.008881
2864.55	0.009891
2874.19	0.011241
2883.84	0.011611
2893.48	0.011301
2903.12	0.011071
2912.77	0.012271
2922.41	0.014241
2932.06	0.017941
2941.7	0.023151
2951.35	0.022941
2960.99	0.020101
2970.64	0.016801
2980.28	0.012531
2989.93	0.010901
2999.57	0.013551
3009.22	0.017701
3018.86	0.014831
3028.51	0.015001
3038.15	0.017541
3047.8	0.014421
3057.44	0.013681
3067.09	0.019841
3076.73	0.021521
3086.38	0.013461
3096.02	0.009351
3105.67	0.006831
3115.31	0.004731
3124.95	0.002531
3134.6	0.001761
3144.24	0.001381
3153.89	0.0011761
3163.53	0.001361
3173.18	0.001132
3182.82	0.0008645
3192.47	0.0007942
3202.11	0.0007268
3211.76	0.0004941
3221.4	0.0003935
3231.05	0.0003914
3240.69	0.00033072
3250.34	0.00034096
3259.98	0.00030965
3269.63	0.000155
3279.27	0.0002838
3288.92	0.000260776
3298.56	0.0003457
3308.21	0.0004516
3317.85	0.0003845
3327.49	0.0002288
3337.14	0.00030484
3346.78	0.00032641
3356.43	0.0007535
3366.07	0.0010731
3375.72	0.001761
3385.36	0.001661
3395.01	0.001097
3404.65	0.0005382
3414.3	0.0004751
3423.94	0.00027099
3433.59	0.00033937
3443.23	0.0001915
3452.88	0.00032426
3462.52	7.5e-05
3472.17	0.0002495
3481.81	0.0001901
3491.46	9.6e-05
3501.1	0.0002907
3510.75	0.0001718
3520.39	0.000127
3530.04	6.6e-05
3539.68	0.0001946
3549.32	0.0002062
3558.97	0.00028048
3568.61	0.0004773
3578.26	0.0004412
3587.9	0.0001982
3597.55	0.0002392
3607.19	0.0001851
3616.84	0.0002282
3626.48	0.000146
3636.13	0.0005068
3645.77	0.0002234
3655.42	0.0002487
3665.06	0.00034471
3674.71	0.0002348
3684.35	0.000131
3694	0.0002264
3703.64	0.0002218
3713.29	0.0002174
3722.93	0.000121
3732.58	0.0004396
3742.22	0.0003435
3751.86	9.7e-05
3761.51	0.000151
3771.15	0.0002106
3780.8	0.00033797
3790.44	0.0004523
3800.09	0.000264967
3809.73	0.000117
3819.38	0.000151
3829.02	0.0004738
3838.67	0.0001882
3848.31	0.00028976
3857.96	0.00027286
3867.6	0.00027943
3877.25	0.0005919
3886.89	0.000260051
3896.54	0.0003619
3906.18	0.00033163
3915.83	0.0005557
3925.47	0.0004253
3935.12	0.0004713
3944.76	0.00033832
3954.41	0.0006422
3964.05	0.000621
3973.69	0.0005691
3983.34	0.0005028
3992.98	0.0005576
