Infrared Spectrum: 2,3-Difluoroacetophenone
Formula: C 8 H 6 F 2 O
CAS: 18355-80-1
State: gas
Origin: EPA-IR VAPOR PHASE LIBRARY
1/CM	ABSORBANCE
549.8	0.016996
559.445	0.016226
569.09	0.008866
578.734	0.006026
588.379	0.008456
598.024	0.014236
607.669	0.014346
617.313	0.008136
626.958	0.004136
636.603	0.004846
646.248	0.014646
655.893	0.020876
665.537	0.012346
675.182	0.002696
684.827	0.002616
694.472	0.002896
704.116	0.008316
713.761	0.019656
723.406	0.031816
733.051	0.017336
742.695	0.006576
752.34	0.004286
761.985	0.005576
771.63	0.017306
781.275	0.038456
790.919	0.042986
800.564	0.023286
810.209	0.014836
819.854	0.021486
829.498	0.019176
839.143	0.008776
848.788	0.003836
858.433	0.002796
868.078	0.002876
877.722	0.006776
887.367	0.012486
897.012	0.022226
906.657	0.037216
916.301	0.033446
925.946	0.012816
935.591	0.007536
945.236	0.005526
954.88	0.007856
964.525	0.012246
974.17	0.012926
983.815	0.008966
993.46	0.006616
1003.1	0.005796
1012.75	0.005746
1022.39	0.005546
1032.04	0.005346
1041.68	0.006276
1051.33	0.009416
1060.97	0.015866
1070.62	0.013376
1080.26	0.008026
1089.91	0.004596
1099.55	0.004316
1109.2	0.007836
1118.84	0.017156
1128.49	0.013146
1138.13	0.006276
1147.78	0.004626
1157.42	0.006346
1167.07	0.005866
1176.71	0.006236
1186.36	0.006336
1196	0.008696
1205.64	0.017516
1215.29	0.035596
1224.93	0.045776
1234.58	0.048826
1244.22	0.072256
1253.87	0.116216
1263.51	0.178746
1273.16	0.218456
1282.8	0.169846
1292.45	0.096686
1302.09	0.065196
1311.74	0.026226
1321.38	0.014126
1331.03	0.013926
1340.67	0.014736
1350.32	0.020256
1359.96	0.042696
1369.61	0.050196
1379.25	0.028066
1388.9	0.012456
1398.54	0.010386
1408.18	0.010246
1417.83	0.012286
1427.47	0.014886
1437.12	0.017746
1446.76	0.023866
1456.41	0.043466
1466.05	0.095306
1475.7	0.185986
1485.34	0.184666
1494.99	0.097216
1504.63	0.033196
1514.28	0.017176
1523.92	0.010886
1533.57	0.007036
1543.21	0.006106
1552.86	0.007316
1562.5	0.010006
1572.15	0.016466
1581.79	0.030806
1591.44	0.037686
1601.08	0.028456
1610.73	0.021796
1620.37	0.022606
1630.01	0.015066
1639.66	0.008756
1649.3	0.008266
1658.95	0.009696
1668.59	0.013796
1678.24	0.020596
1687.88	0.030546
1697.53	0.065676
1707.17	0.134536
1716.82	0.139026
1726.46	0.061466
1736.11	0.031526
1745.75	0.022746
1755.4	0.014116
1765.04	0.007576
1774.69	0.005076
1784.33	0.004146
1793.98	0.003936
1803.62	0.003826
1813.27	0.003826
1822.91	0.003126
1832.55	0.002906
1842.2	0.002756
1851.84	0.003126
1861.49	0.003406
1871.13	0.003576
1880.78	0.002836
1890.42	0.002176
1900.07	0.002246
1909.71	0.002416
1919.36	0.002846
1929	0.003286
1938.65	0.003076
1948.29	0.002616
1957.94	0.0017608
1967.58	0.0012233
1977.23	0.0011723
1986.87	0.0012513
1996.52	0.0009724
2006.16	0.0013466
2015.81	0.0013484
2025.45	0.0014588
2035.1	0.001896
2044.74	0.0017301
2054.38	0.0013749
2064.03	0.0011837
2073.67	0.0014568
2083.32	0.0014634
2092.96	0.0013053
2102.61	0.0013977
2112.25	0.001531
2121.9	0.0013827
2131.54	0.0016607
2141.19	0.0015994
2150.83	0.0014331
2160.48	0.0015341
2170.12	0.0015114
2179.77	0.0017247
2189.41	0.0015805
2199.06	0.00097
2208.7	0.0012604
2218.35	0.0012518
2227.99	0.0011313
2237.64	0.0012078
2247.28	0.0012826
2256.92	0.0012145
2266.57	0.001266
2276.21	0.001473
2285.86	0.0016526
2295.5	0.001886
2305.15	0.0014785
2314.79	0.0016155
2324.44	0.0013686
2334.08	0.0014179
2343.73	0.0015705
2353.37	0.0011888
2363.02	0.0015051
2372.66	0.0013866
2382.31	0.001493
2391.95	0.0013215
2401.6	0.000977
2411.24	0.0012674
2420.89	0.0014795
2430.53	0.0016143
2440.18	0.002196
2449.82	0.0017588
2459.47	0.0013173
2469.11	0.0015435
2478.75	0.001221
2488.4	0.0015621
2498.04	0.0009828
2507.69	0.0015619
2517.33	0.0014985
2526.98	0.001856
2536.62	0.002126
2546.27	0.0016676
2555.91	0.0016949
2565.56	0.002306
2575.2	0.002076
2584.85	0.0014916
2594.49	0.002046
2604.14	0.0013796
2613.78	0.001333
2623.43	0.0014042
2633.07	0.0012449
2642.72	0.0009717
2652.36	0.0011768
2662.01	0.0012759
2671.65	0.0015147
2681.29	0.0013279
2690.94	0.001275
2700.58	0.0010293
2710.23	0.0012586
2719.87	0.00092268
2729.52	0.0014867
2739.16	0.0017006
2748.81	0.0017716
2758.45	0.00091255
2768.1	0.0010745
2777.74	0.0011929
2787.39	0.0011227
2797.03	0.0012405
2806.68	0.0013406
2816.32	0.0009827
2825.97	0.0010804
2835.61	0.0017232
2845.26	0.0012692
2854.9	0.0014748
2864.55	0.001377
2874.19	0.0016551
2883.84	0.002046
2893.48	0.0017262
2903.12	0.002106
2912.77	0.002156
2922.41	0.001956
2932.06	0.002206
2941.7	0.002746
2951.35	0.003126
2960.99	0.002846
2970.64	0.003216
2980.28	0.003926
2989.93	0.003616
2999.57	0.004246
3009.22	0.006366
3018.86	0.006406
3028.51	0.005186
3038.15	0.004746
3047.8	0.005246
3057.44	0.004936
3067.09	0.005436
3076.73	0.006606
3086.38	0.007296
3096.02	0.006236
3105.67	0.004146
3115.31	0.002736
3124.95	0.0014971
3134.6	0.002076
3144.24	0.0013176
3153.89	0.00092076
3163.53	0.0010973
3173.18	0.0014653
3182.82	0.0012055
3192.47	0.0011048
3202.11	0.0012451
3211.76	0.0007828
3221.4	0.0011073
3231.05	0.000715
3240.69	0.0011594
3250.34	0.001223
3259.98	0.0010894
3269.63	0.0008248
3279.27	0.000621
3288.92	0.000295
3298.56	0.0010153
3308.21	0.000573
3317.85	0.000588
3327.49	0.0012216
3337.14	0.000558
3346.78	0.00089961
3356.43	0.000548
3366.07	0.0013471
3375.72	0.0017591
3385.36	0.001996
3395.01	0.003016
3404.65	0.003116
3414.3	0.002376
3423.94	0.001896
3433.59	0.0013818
3443.23	0.000694
3452.88	0.0011627
3462.52	0.0010077
3472.17	0.0013684
3481.81	0.0008107
3491.46	0.000574
3501.1	0.0008061
3510.75	0.0007873
3520.39	0.001083
3530.04	0.0015033
3539.68	0.0009776
3549.32	0.000971
3558.97	0.000633
3568.61	0.000467
3578.26	0.00087653
3587.9	0.000366
3597.55	0.00069
3607.19	0.0008145
3616.84	0.0010659
3626.48	0.000532
3636.13	0.0010852
3645.77	0.00032
3655.42	0.0007845
3665.06	0.000351
3674.71	0.0007859
3684.35	0.0009861
3694	0.0011638
3703.64	0.0007673
3713.29	0.0011215
3722.93	0.000492
3732.58	0
3742.22	0.0007766
3751.86	0.000532
3761.51	0.00092258
3771.15	0.00090998
3780.8	0.001031
3790.44	0.0010391
3800.09	0.000387
3809.73	0.00088053
3819.38	0.0015504
3829.02	0.000328
3838.67	0.0009765
3848.31	0.0012153
3857.96	0.0010363
3867.6	0.0010624
3877.25	0.0009683
3886.89	0.0013096
3896.54	0.000158
3906.18	0.001836
3915.83	0.00057
3925.47	0.0012731
3935.12	0.0011152
3944.76	0.0013367
3954.41	0.0013557
3964.05	0.0011679
3973.69	0.00089856
3983.34	0.00092749
3992.98	0.0011989
