Infrared Spectrum: 9H-PURINE, 2,6-DIFLUORO-9-Beta-D-XYLOFURANOSYL-, 2',3',5'-TRIACETATE
Formula: C16 H16 F2 N4 O7
CAS: 18354-15-9
State: SOLID (NEAT, CsBr PLATE)
Class: COBLENTZ III
Instrument: PERKIN-ELMER 521 (GRATING)
Instrument parameters: GRATING CHANGES AT 2000, 620, FILTERS AT 3130, 2475, 2000, 1150, 700, 410 CM^-^1
Sampling: TRANSMISSION
Resolution: 4
Origin: SOUTHERN RESEARCH INSTITUTE
1/CM	TRANSMITTANCE
253.668	0.757
263.251	0.7738
272.834	0.7858
282.417	0.788
292	0.7783
301.583	0.7674
311.166	0.769
320.749	0.7717
330.332	0.7973
339.915	0.809
349.498	0.8136
359.081	0.8083
368.664	0.813
378.247	0.8191
387.829	0.7866
397.412	0.7682
406.995	0.799
416.578	0.7877
426.161	0.7971
435.744	0.8259
445.327	0.8464
454.91	0.8593
464.493	0.8691
474.076	0.8761
483.659	0.881
493.242	0.878
502.825	0.8721
512.408	0.8676
521.991	0.8757
531.574	0.8765
541.157	0.8669
550.74	0.8682
560.323	0.8703
569.906	0.8508
579.489	0.8558
589.072	0.7767
598.655	0.6928
608.238	0.806
617.821	0.7462
627.404	0.61
636.987	0.7273
646.569	0.788
656.152	0.792
665.735	0.8027
675.318	0.8235
684.901	0.8378
694.484	0.832
704.067	0.792
713.65	0.741
723.233	0.6339
732.816	0.8312
742.399	0.7828
751.982	0.7156
761.565	0.7216
771.148	0.759
780.731	0.69
790.314	0.7413
799.897	0.7288
809.48	0.8001
819.063	0.8136
828.646	0.7999
838.229	0.7588
847.812	0.7425
857.395	0.7224
866.978	0.6848
876.561	0.6342
886.144	0.5998
895.727	0.5523
905.309	0.5326
914.892	0.613
924.475	0.6608
934.058	0.6833
943.641	0.7125
953.224	0.7551
962.807	0.7431
972.39	0.6817
981.973	0.6444
991.556	0.6185
1001.14	0.5378
1010.72	0.4097
1020.31	0.417
1029.89	0.364
1039.47	0.1963
1049.05	0.2146
1058.64	0.2587
1068.22	0.3943
1077.8	0.4265
1087.39	0.4561
1096.97	0.4652
1106.55	0.4618
1116.13	0.5804
1125.72	0.6401
1135.3	0.6655
1144.88	0.682
1154.47	0.678
1164.05	0.6594
1173.63	0.577
1183.22	0.3996
1192.8	0.3336
1202.38	0.2392
1211.96	0.1839
1221.55	0.178
1231.13	0.179
1240.71	0.2005
1250.3	0.2525
1259.88	0.3327
1269.46	0.4641
1279.05	0.5498
1288.63	0.6125
1298.21	0.653
1307.79	0.6273
1317.38	0.5626
1326.96	0.5133
1336.54	0.596
1346.13	0.5945
1355.71	0.5571
1365.29	0.397
1374.87	0.2415
1384.46	0.213
1394.04	0.31
1403.62	0.4966
1413.21	0.5779
1422.79	0.5626
1432.37	0.515
1441.96	0.5313
1451.54	0.4263
1461.12	0.5002
1470.7	0.528
1480.29	0.7556
1489.87	0.7635
1499.45	0.6858
1509.04	0.465
1518.62	0.5628
1528.2	0.7554
1537.79	0.7871
1547.37	0.7905
1556.95	0.7451
1566.53	0.6862
1576.12	0.5287
1585.7	0.262
1595.28	0.5014
1604.87	0.6055
1614.45	0.403
1624.03	0.15
1633.61	0.4161
1643.2	0.6505
1652.78	0.7464
1662.36	0.77
1671.95	0.761
1681.53	0.7512
1691.11	0.7077
1700.7	0.6716
1710.28	0.5896
1719.86	0.3999
1729.44	0.187
1739.03	0.098
1748.61	0.109
1758.19	0.1739
1767.78	0.3189
1777.36	0.6215
1786.94	0.735
1796.52	0.7722
1806.11	0.7983
1815.69	0.8131
1825.27	0.8307
1834.86	0.8396
1844.44	0.8463
1854.02	0.851
1863.61	0.8552
1873.19	0.8601
1882.77	0.862
1892.35	0.863
1901.94	0.863
1911.52	0.864
1921.1	0.864
1930.69	0.861
1940.27	0.81
1949.85	0.8598
1959.44	0.862
1969.02	0.865
1978.6	0.8653
1988.18	0.8634
1997.77	0.858
2007.35	0.855
2016.93	0.854
2026.52	0.855
2036.1	0.856
2045.68	0.856
2055.26	0.856
2064.85	0.8544
2074.43	0.853
2084.01	0.851
2093.6	0.851
2103.18	0.851
2112.76	0.852
2122.35	0.856
2131.93	0.858
2141.51	0.8596
2151.09	0.862
2160.68	0.864
2170.26	0.866
2179.84	0.866
2189.43	0.866
2199.01	0.866
2208.59	0.866
2218.18	0.865
2227.76	0.8656
2237.34	0.866
2246.92	0.866
2256.51	0.866
2266.09	0.866
2275.67	0.866
2285.26	0.866
2294.84	0.8644
2304.42	0.8624
2314	0.8614
2323.59	0.8554
2333.17	0.8566
2342.75	0.858
2352.34	0.8554
2361.92	0.856
2371.5	0.859
2381.09	0.8548
2390.67	0.8504
2400.25	0.8464
2409.83	0.845
2419.42	0.846
2429	0.846
2438.58	0.846
2448.17	0.8434
2457.75	0.8424
2467.33	0.8426
2476.92	0.847
2486.5	0.8496
2496.08	0.851
2505.66	0.8516
2515.25	0.8526
2524.83	0.853
2534.41	0.853
2544	0.854
2553.58	0.855
2563.16	0.8534
2572.74	0.852
2582.33	0.851
2591.91	0.852
2601.49	0.853
2611.08	0.853
2620.66	0.852
2630.24	0.851
2639.83	0.851
2649.41	0.8516
2658.99	0.852
2668.57	0.851
2678.16	0.851
2687.74	0.85
2697.32	0.8494
2706.91	0.848
2716.49	0.848
2726.07	0.847
2735.66	0.847
2745.24	0.8454
2754.82	0.843
2764.4	0.8446
2773.99	0.8466
2783.57	0.847
2793.15	0.846
2802.74	0.844
2812.32	0.843
2821.9	0.843
2831.48	0.8414
2841.07	0.832
2850.65	0.8246
2860.23	0.828
2869.82	0.8254
2879.4	0.8204
2888.98	0.8084
2898.57	0.7968
2908.15	0.7828
2917.73	0.7708
2927.31	0.7618
2936.9	0.755
2946.48	0.755
2956.06	0.7586
2965.65	0.763
2975.23	0.767
2984.81	0.7662
2994.4	0.7548
3003.98	0.7536
3013.56	0.7596
3023.14	0.7764
3032.73	0.7942
3042.31	0.8074
3051.89	0.8196
3061.48	0.821
3071.06	0.819
3080.64	0.819
3090.22	0.8154
3099.81	0.8062
3109.39	0.7902
3118.97	0.7784
3128.56	0.7816
3138.14	0.7986
3147.72	0.8086
3157.31	0.8228
3166.89	0.8366
3176.47	0.8426
3186.05	0.8436
3195.64	0.845
3205.22	0.845
3214.8	0.845
3224.39	0.845
3233.97	0.845
3243.55	0.845
3253.14	0.845
3262.72	0.846
3272.3	0.847
3281.88	0.848
3291.47	0.849
3301.05	0.849
3310.63	0.849
3320.22	0.849
3329.8	0.849
3339.38	0.849
3348.96	0.848
3358.55	0.847
3368.13	0.847
3377.71	0.846
3387.3	0.845
3396.88	0.845
3406.46	0.845
3416.05	0.844
3425.63	0.843
3435.21	0.843
3444.79	0.8418
3454.38	0.8354
3463.96	0.8314
3473.54	0.8264
3483.13	0.825
3492.71	0.8276
3502.29	0.8326
3511.88	0.839
3521.46	0.843
3531.04	0.8446
3540.62	0.847
3550.21	0.848
3559.79	0.849
3569.37	0.8474
3578.96	0.847
3588.54	0.847
3598.12	0.847
3607.7	0.849
3617.29	0.847
3626.87	0.848
3636.45	0.848
3646.04	0.847
3655.62	0.846
3665.2	0.846
3674.79	0.8466
3684.37	0.8476
3693.95	0.849
3703.53	0.85
3713.12	0.849
3722.7	0.848
3732.28	0.848
3741.87	0.848
3751.45	0.848
3761.03	0.848
3770.62	0.848
3780.2	0.848
3789.78	0.847
3799.36	0.846
