Infrared Spectrum: TEREPHTHALONITRILE, TETRAFLUORO-
Formula: C8 F4 N2
CAS: 1835-49-0
State: SOLID (SPLIT MULL), FLUOROLUBE FOR 3800-1330 CM^-^1, NUJOL FOR 1330-460 CM^-^1
Class: COBLENTZ III
Instrument: DOW KBr FOREPRISM-GRATING
Instrument parameters: BLAZED AT 3.5, 12.0, 20.0 MICRON AND CHANGED AT 5.0, 7.5, 14.9 MICRON
Sampling: TRANSMISSION
Resolution: 2
Origin: DOW CHEMICAL COMPANY
1/CM	TRANSMITTANCE
465.934	0.874
474.725	0.828
483.516	0.861
492.308	0.942
501.099	0.939
509.89	0.942
518.681	0.946
527.473	0.947
536.264	0.949
545.055	0.947
553.846	0.936
562.637	0.916
571.429	0.943
580.22	0.942
589.011	0.938
597.802	0.925
606.594	0.924
615.385	0.916
624.176	0.927
632.967	0.933
641.758	0.924
650.55	0.804
659.341	0.928
668.132	0.935
676.923	0.933
685.715	0.917
694.506	0.859
703.297	0.924
712.088	0.917
720.879	0.884
729.671	0.887
738.462	0.896
747.253	0.902
756.044	0.906
764.836	0.905
773.627	0.9
782.418	0.907
791.209	0.911
800.001	0.914
808.792	0.914
817.583	0.914
826.374	0.909
835.165	0.9
843.957	0.888
852.748	0.881
861.539	0.862
870.33	0.762
879.122	0.566
887.913	0.555
896.704	0.8
905.495	0.785
914.286	0.299
923.078	0.778
931.869	0.814
940.66	0.79
949.451	0.7
958.243	0.76
967.034	0.693
975.825	0.57
984.616	0.324
993.407	0.074
1002.2	0.328
1010.99	0.3811
1019.78	0.726
1028.57	0.818
1037.36	0.85
1046.15	0.863
1054.95	0.856
1063.74	0.8
1072.53	0.872
1081.32	0.891
1090.11	0.895
1098.9	0.895
1107.69	0.892
1116.48	0.889
1125.28	0.887
1134.07	0.885
1142.86	0.88
1151.65	0.84
1160.44	0.861
1169.23	0.862
1178.02	0.856
1186.81	0.856
1195.61	0.858
1204.4	0.862
1213.19	0.859
1221.98	0.858
1230.77	0.854
1239.56	0.832
1248.35	0.764
1257.14	0.561
1265.94	0.704
1274.73	0.5149
1283.52	0.661
1292.31	0.632
1301.1	0.58
1309.89	0.4139
1318.68	0.0481
1327.47	0.907
1336.27	0.954
1345.06	0.968
1353.85	0.962
1362.64	0.957
1371.43	0.946
1380.22	0.918
1389.01	0.845
1397.8	0.9
1406.59	0.907
1415.39	0.9
1424.18	0.898
1432.97	0.891
1441.76	0.872
1450.55	0.848
1459.34	0.796
1468.13	0.763
1476.92	0.671
1485.72	0.3649
1494.51	0.2989
1503.3	0.074
1512.09	0.0681
1520.88	0.382
1529.67	0.5141
1538.46	0.691
1547.25	0.83
1556.05	0.885
1564.84	0.902
1573.63	0.916
1582.42	0.928
1591.21	0.954
1600	0.973
1608.79	0.984
1617.58	0.983
1626.38	0.98
1635.17	0.988
1643.96	0.988
1652.75	0.984
1661.54	0.991
1670.33	0.986
1679.12	0.988
1687.91	0.988
1696.71	0.986
1705.5	0.976
1714.29	0.957
1723.08	0.955
1731.87	0.969
1740.66	0.979
1749.45	0.98
1758.24	0.982
1767.04	0.986
1775.83	0.983
1784.62	0.98
1793.41	0.979
1802.2	0.983
1810.99	0.984
1819.78	0.984
1828.57	0.983
1837.36	0.986
1846.16	0.983
1854.95	0.983
1863.74	0.982
1872.53	0.979
1881.32	0.979
1890.11	0.973
1898.9	0.975
1907.69	0.977
1916.49	0.977
1925.28	0.979
1934.07	0.977
1942.86	0.976
1951.65	0.977
1960.44	0.976
1969.23	0.973
1978.02	0.969
1986.82	0.968
1995.61	0.966
2004.4	0.968
2013.19	0.9685
2021.98	0.9655
2030.77	0.9615
2039.56	0.945
2048.35	0.956
2057.15	0.9545
2065.94	0.953
2074.73	0.9505
2083.52	0.944
2092.31	0.943
2101.1	0.9465
2109.89	0.946
2118.68	0.9435
2127.48	0.941
2136.27	0.9385
2145.06	0.935
2153.85	0.933
2162.64	0.931
2171.43	0.931
2180.22	0.9285
2189.01	0.925
2197.81	0.9205
2206.6	0.916
2215.39	0.91
2224.18	0.9046
2232.97	0.899
2241.76	0.8897
2250.55	0.8688
2259.34	0.6325
2268.13	0.917
2276.93	0.9017
2285.72	0.8931
2294.51	0.8901
2303.3	0.887
2312.09	0.8836
2320.88	0.88
2329.67	0.876
2338.46	0.876
2347.26	0.874
2356.05	0.874
2364.84	0.876
2373.63	0.876
2382.42	0.876
2391.21	0.876
2400	0.874
2408.79	0.8681
2417.59	0.8492
2426.38	0.8607
2435.17	0.8694
2443.96	0.87
2452.75	0.8696
2461.54	0.8656
2470.33	0.8616
2479.12	0.8538
2487.92	0.8504
2496.71	0.869
2505.5	0.869
2514.29	0.867
2523.08	0.866
2531.87	0.8642
2540.66	0.8626
2549.45	0.861
2558.25	0.859
2567.04	0.8552
2575.83	0.852
2584.62	0.851
2593.41	0.851
2602.2	0.852
2610.99	0.8516
2619.78	0.85
2628.58	0.845
2637.37	0.841
2646.16	0.8297
2654.95	0.8301
2663.74	0.843
2672.53	0.843
2681.32	0.843
2690.11	0.841
2698.9	0.84
2707.7	0.841
2716.49	0.84
2725.28	0.8383
2734.07	0.8353
2742.86	0.833
2751.65	0.8334
2760.44	0.834
2769.23	0.833
2778.03	0.832
2786.82	0.83
2795.61	0.8296
2804.4	0.8273
2813.19	0.8243
2821.98	0.8217
2830.77	0.8186
2839.56	0.8147
2848.36	0.8043
2857.15	0.7967
2865.94	0.797
2874.73	0.797
2883.52	0.797
2892.31	0.7957
2901.1	0.7887
2909.89	0.7763
2918.69	0.7627
2927.48	0.7517
2936.27	0.7553
2945.06	0.7653
2953.85	0.7757
2962.64	0.7826
2971.43	0.7853
2980.22	0.7906
2989.02	0.793
2997.81	0.792
3006.6	0.792
3015.39	0.79
3024.18	0.79
3032.97	0.79
3041.76	0.788
3050.55	0.788
3059.35	0.788
3068.14	0.786
3076.93	0.7847
3085.72	0.782
3094.51	0.7804
3103.3	0.778
3112.09	0.778
3120.88	0.778
3129.67	0.777
3138.47	0.777
3147.26	0.775
3156.05	0.774
3164.84	0.771
3173.63	0.771
3182.42	0.77
3191.21	0.768
3200	0.767
3208.8	0.764
3217.59	0.7637
3226.38	0.763
3235.17	0.762
3243.96	0.7597
3252.75	0.759
3261.54	0.757
3270.33	0.7567
3279.13	0.756
3287.92	0.755
3296.71	0.753
3305.5	0.751
3314.29	0.751
3323.08	0.749
3331.87	0.7475
3340.66	0.745
3349.46	0.744
3358.25	0.744
3367.04	0.7435
3375.83	0.742
3384.62	0.7418
3393.41	0.741
3402.2	0.741
3410.99	0.741
3419.79	0.74
3428.58	0.738
3437.37	0.737
3446.16	0.735
3454.95	0.7338
3463.74	0.733
3472.53	0.733
3481.32	0.731
3490.12	0.73
3498.91	0.729
3507.7	0.727
3516.49	0.727
3525.28	0.727
3534.07	0.727
3542.86	0.727
3551.65	0.726
3560.44	0.724
3569.24	0.724
3578.03	0.724
3586.82	0.724
3595.61	0.724
3604.4	0.723
3613.19	0.7228
3621.98	0.72
3630.77	0.7198
3639.57	0.7188
3648.36	0.716
3657.15	0.7146
3665.94	0.7118
3674.73	0.709
3683.52	0.709
3692.31	0.709
3701.1	0.709
3709.9	0.708
3718.69	0.7078
3727.48	0.707
3736.27	0.705
3745.06	0.705
3753.85	0.704
3762.64	0.702
3771.43	0.701
3780.23	0.7
3789.02	0.698
3797.81	0.6968
