Infrared Spectrum: 2,3-Difluorobenzamide
Formula: C 7 H 5 F 2 N O
CAS: 18355-75-4
State: gas
Origin: EPA-IR VAPOR PHASE LIBRARY
1/CM	ABSORBANCE
549.9	0.0014554
559.547	0.001828
569.193	0.002658
578.84	0.002608
588.486	0.002478
598.133	0.002388
607.779	0.001708
617.426	0.0009597
627.072	0.0006119
636.719	0.00055179
646.365	0.00055735
656.012	0.0010166
665.658	0.001528
675.305	0.002738
684.951	0.002918
694.598	0.001808
704.245	0.001316
713.891	0.001568
723.538	0.002078
733.184	0.003258
742.831	0.005858
752.477	0.010478
762.124	0.005578
771.77	0.002818
781.417	0.002248
791.063	0.002758
800.71	0.003338
810.356	0.003648
820.003	0.004048
829.649	0.003908
839.296	0.002748
848.943	0.002188
858.589	0.002128
868.236	0.002038
877.882	0.001838
887.529	0.001748
897.175	0.001948
906.822	0.002098
916.468	0.002838
926.115	0.004208
935.761	0.003758
945.408	0.001978
955.054	0.0014354
964.701	0.0013348
974.347	0.0011806
983.994	0.0010159
993.64	0.001087
1003.29	0.0010603
1012.93	0.001022
1022.58	0.0009524
1032.23	0.0009593
1041.87	0.0013347
1051.52	0.002548
1061.17	0.002708
1070.81	0.001738
1080.46	0.0008035
1090.11	0.0007604
1099.75	0.0008361
1109.4	0.0008582
1119.05	0.0007377
1128.69	0.00053735
1138.34	0.000354
1147.99	0.0005729
1157.63	0.0007297
1167.28	0.0007011
1176.92	0.0012507
1186.57	0.001608
1196.22	0.001152
1205.86	0.001648
1215.51	0.002978
1225.16	0.003158
1234.8	0.001898
1244.45	0.001518
1254.1	0.002908
1263.74	0.008448
1273.39	0.012638
1283.04	0.010168
1292.68	0.004028
1302.33	0.002788
1311.98	0.002638
1321.62	0.003408
1331.27	0.004768
1340.92	0.009678
1350.56	0.020968
1360.21	0.024548
1369.86	0.013198
1379.5	0.003888
1389.15	0.002088
1398.79	0.0014384
1408.44	0.0009945
1418.09	0.000901
1427.73	0.0008499
1437.38	0.001011
1447.03	0.001638
1456.67	0.003868
1466.32	0.009198
1475.97	0.018958
1485.61	0.018178
1495.26	0.009548
1504.91	0.003608
1514.55	0.002128
1524.2	0.001498
1533.85	0.0011544
1543.49	0.0011435
1553.14	0.001548
1562.79	0.002588
1572.43	0.005578
1582.08	0.012938
1591.73	0.016628
1601.37	0.011608
1611.02	0.005528
1620.67	0.003248
1630.31	0.002478
1639.96	0.001698
1649.6	0.001498
1659.25	0.001758
1668.9	0.002548
1678.54	0.003798
1688.19	0.004698
1697.84	0.006118
1707.48	0.014828
1717.13	0.031968
1726.78	0.031658
1736.42	0.011248
1746.07	0.005418
1755.72	0.004868
1765.36	0.003958
1775.01	0.002058
1784.66	0.0010938
1794.3	0.0008029
1803.95	0.000703
1813.6	0.0006102
1823.24	0.0005891
1832.89	0.00052714
1842.54	0.00051891
1852.18	0.0005507
1861.83	0.0006618
1871.47	0.0006261
1881.12	0.0006624
1890.77	0.00046441
1900.41	0.0003791
1910.06	0.0004062
1919.71	0.0004543
1929.35	0.00053696
1939	0.00053852
1948.65	0.0005371
1958.29	0.0004531
1967.94	0.000322
1977.59	0.000331
1987.23	0.000331
1996.88	0.000361
2006.53	0.0003696
2016.17	0.0003843
2025.82	0.0003711
2035.47	0.0004461
2045.11	0.0004109
2054.76	0.0004014
2064.41	0.000332
2074.05	0.000365
2083.7	0.000348
2093.35	0.000342
2102.99	0.000348
2112.64	0.000364
2122.28	0.000346
2131.93	0.0003721
2141.58	0.0003917
2151.22	0.0004081
2160.87	0.000404
2170.52	0.0004086
2180.16	0.0004231
2189.81	0.0004311
2199.46	0.000469353
2209.1	0.00045861
2218.75	0.0003828
2228.4	0.0004129
2238.04	0.0004352
2247.69	0.0004046
2257.34	0.0004496
2266.98	0.0004235
2276.63	0.00050161
2286.28	0.00048563
2295.92	0.00050782
2305.57	0.00048571
2315.22	0.0004515
2324.86	0.0004017
2334.51	0.0003767
2344.16	0.0003945
2353.8	0.0003781
2363.45	0.0004282
2373.09	0.0004406
2382.74	0.0004373
2392.39	0.00048692
2402.03	0.00047712
2411.68	0.00053727
2421.33	0.00055536
2430.97	0.00054693
2440.62	0.0005718
2450.27	0.000536
2459.91	0.00051695
2469.56	0.00053254
2479.21	0.00048929
2488.85	0.00049092
2498.5	0.00049257
2508.15	0.00050547
2517.79	0.00051133
2527.44	0.0005692
2537.09	0.0005618
2546.73	0.0005681
2556.38	0.0006045
2566.03	0.0005971
2575.67	0.0005846
2585.32	0.0005934
2594.96	0.0005967
2604.61	0.00051293
2614.26	0.0005081
2623.9	0.00051083
2633.55	0.00051208
2643.2	0.00053387
2652.84	0.00051933
2662.49	0.00055911
2672.14	0.00051746
2681.78	0.0005833
2691.43	0.00055124
2701.08	0.00053881
2710.72	0.000607
2720.37	0.00053442
2730.02	0.00056358
2739.66	0.00054804
2749.31	0.0005961
2758.96	0.0005518
2768.6	0.0006453
2778.25	0.00056636
2787.9	0.0006079
2797.54	0.000671
2807.19	0.0006545
2816.84	0.0006089
2826.48	0.00053567
2836.13	0.0005869
2845.77	0.0006102
2855.42	0.000584
2865.07	0.0006098
2874.71	0.00056353
2884.36	0.00056698
2894.01	0.00052819
2903.65	0.0006757
2913.3	0.0005784
2922.95	0.00053716
2932.59	0.00054316
2942.24	0.00053993
2951.89	0.0005928
2961.53	0.00055016
2971.18	0.00056451
2980.83	0.00049599
2990.47	0.0004417
3000.12	0.00053846
3009.77	0.00049173
3019.41	0.00046564
3029.06	0.00049953
3038.71	0.0006789
3048.35	0.0006858
3058	0.0008575
3067.64	0.0008322
3077.29	0.0009628
3086.94	0.0011037
3096.58	0.0008869
3106.23	0.0008184
3115.88	0.0006789
3125.52	0.0006452
3135.17	0.0004109
3144.82	0.0004549
3154.46	0.0003866
3164.11	0.0004323
3173.76	0.000264
3183.4	0.000325
3193.05	0.000311
3202.7	0.000331
3212.34	0.00045937
3221.99	0.000283
3231.64	0.000233
3241.28	0.0003903
3250.93	0.000233
3260.58	0.00016
3270.22	0.000143
3279.87	0.000257
3289.52	0.000269
3299.16	0.000358
3308.81	0.00018
3318.45	0.000256
3328.1	0
3337.75	0.000177
3347.39	0.000238
3357.04	0.0004007
3366.69	0.000276
3376.33	0.0003682
3385.98	0.0004356
3395.63	0.00052622
3405.27	0.0009906
3414.92	0.001848
3424.57	0.002498
3434.21	0.003288
3443.86	0.003678
3453.51	0.002478
3463.15	0.0008929
3472.8	0.000471473
3482.45	0.0004378
3492.09	0.0004131
3501.74	0.0006494
3511.39	0.0009145
3521.03	0.0012111
3530.68	0.001708
3540.33	0.002198
3549.97	0.002808
3559.62	0.004338
3569.26	0.004628
3578.91	0.002278
3588.56	0.0006354
3598.2	0.0003826
3607.85	0.0004362
3617.5	0.000284
3627.14	0.000315
3636.79	0.000261
3646.44	0.000295
3656.08	0.000192
3665.73	0.000343
3675.38	0.000283
3685.02	0.00024
3694.67	0.000255
3704.32	0.000243
3713.96	0.000322
3723.61	0.000248
3733.26	0.000239
3742.9	0.00026
3752.55	0.000324
3762.2	0.0004095
3771.84	0.000343
3781.49	0.000358
3791.13	0.000332
3800.78	0.000349
3810.43	0.000239
3820.07	0.000295
3829.72	0.0003804
3839.37	0.0003788
3849.01	0.0004036
3858.66	0.000364
3868.31	0.00037
3877.95	0.0003823
3887.6	0.0004054
3897.25	0.0003885
3906.89	0.00034
3916.54	0.000427
3926.19	0.00036
3935.83	0.0004254
3945.48	0.0004202
3955.13	0.00050178
3964.77	0.00046235
3974.42	0.0004414
3984.07	0.0004543
3993.71	0.0004972
