Infrared Spectrum: 9-Benzylidenefluorene
Formula: C 20 H 14
CAS: 1836-87-9
State: gas
Origin: EPA-IR VAPOR PHASE LIBRARY
1/CM	ABSORBANCE
549.8	0.001758
559.445	0.0010763
569.09	0.0011393
578.734	0.004588
588.379	0.008138
598.024	0.001898
607.669	0.002328
617.313	0.006828
626.958	0.004068
636.603	0.001438
646.248	0.001568
655.893	0.002158
665.537	0.003788
675.182	0.005518
684.827	0.008588
694.472	0.025088
704.116	0.018718
713.761	0.018448
723.406	0.053948
733.051	0.039598
742.695	0.017878
752.34	0.013038
761.985	0.018598
771.63	0.048058
781.275	0.022178
790.919	0.005488
800.564	0.002838
810.209	0.002158
819.854	0.002028
829.498	0.002348
839.143	0.004278
848.788	0.006248
858.433	0.003858
868.078	0.003438
877.722	0.002848
887.367	0.002508
897.012	0.002108
906.657	0.002278
916.301	0.002168
925.946	0.002908
935.591	0.006098
945.236	0.005398
954.88	0.001838
964.525	0.001398
974.17	0.002248
983.815	0.002638
993.46	0.003138
1003.1	0.005438
1012.75	0.004278
1022.39	0.004778
1032.04	0.006188
1041.68	0.001888
1051.33	0.001888
1060.97	0.002328
1070.62	0.003428
1080.26	0.001838
1089.91	0.001084
1099.55	0.001055
1109.2	0.001528
1118.84	0.0009379
1128.49	0.0009508
1138.13	0.001648
1147.78	0.002568
1157.42	0.003268
1167.07	0.001468
1176.71	0.002638
1186.36	0.002068
1196	0.001198
1205.64	0.001428
1215.29	0.002238
1224.93	0.001938
1234.58	0.001568
1244.22	0.0010952
1253.87	0.001228
1263.51	0.002808
1273.16	0.005728
1282.8	0.004998
1292.45	0.003628
1302.09	0.003208
1311.74	0.001958
1321.38	0.002268
1331.03	0.004248
1340.67	0.007108
1350.32	0.005458
1359.96	0.002598
1369.61	0.001468
1379.25	0.001578
1388.9	0.001948
1398.54	0.001958
1408.18	0.002498
1417.83	0.004878
1427.47	0.008068
1437.12	0.019848
1446.76	0.038318
1456.41	0.017328
1466.05	0.004658
1475.7	0.005878
1485.34	0.008638
1494.99	0.014208
1504.63	0.004378
1514.28	0.001768
1523.92	0.001368
1533.57	0.001448
1543.21	0.001578
1552.86	0.001738
1562.5	0.002268
1572.15	0.005018
1581.79	0.008508
1591.44	0.010188
1601.08	0.011528
1610.73	0.006098
1620.37	0.002898
1630.01	0.002998
1639.66	0.003528
1649.3	0.002538
1658.95	0.002438
1668.59	0.002688
1678.24	0.002638
1687.88	0.002918
1697.53	0.002838
1707.17	0.003368
1716.82	0.002848
1726.46	0.002078
1736.11	0.001988
1745.75	0.001798
1755.4	0.001438
1765.04	0.001288
1774.69	0.001778
1784.33	0.002038
1793.98	0.002948
1803.62	0.003408
1813.27	0.002448
1822.91	0.002118
1832.55	0.001958
1842.2	0.001598
1851.84	0.001498
1861.49	0.002368
1871.13	0.002508
1880.78	0.002228
1890.42	0.002268
1900.07	0.003418
1909.71	0.003068
1919.36	0.001928
1929	0.003398
1938.65	0.004748
1948.29	0.002798
1957.94	0.001898
1967.58	0.0010056
1977.23	0.0006717
1986.87	0.0006127
1996.52	0.0005631
2006.16	0.0005319
2015.81	0.0005855
2025.45	0.0005292
2035.1	0.0004603
2044.74	0.000497
2054.38	0.0005429
2064.03	0.0005012
2073.67	0.0004878
2083.32	0.0004933
2092.96	0.0004677
2102.61	0.0005528
2112.25	0.0005519
2121.9	0.0005041
2131.54	0.0004233
2141.19	0.0004971
2150.83	0.0004472
2160.48	0.000453
2170.12	0.0005007
2179.77	0.0004654
2189.41	0.0004811
2199.06	0.000356
2208.7	0.0004126
2218.35	0.0005296
2227.99	0.0005308
2237.64	0.0005014
2247.28	0.0005262
2256.92	0.0006259
2266.57	0.0006325
2276.21	0.0006211
2285.86	0.0005701
2295.5	0.0006991
2305.15	0.0008862
2314.79	0.001268
2324.44	0.0009645
2334.08	0.0007892
2343.73	0.0007661
2353.37	0.0006789
2363.02	0.000642
2372.66	0.0006284
2382.31	0.0005574
2391.95	0.0005362
2401.6	0.0004795
2411.24	0.0005807
2420.89	0.0006848
2430.53	0.0006138
2440.18	0.0006514
2449.82	0.0006535
2459.47	0.0005885
2469.11	0.0004897
2478.75	0.0005056
2488.4	0.0005604
2498.04	0.0005531
2507.69	0.0004746
2517.33	0.0004321
2526.98	0.0004698
2536.62	0.0004202
2546.27	0.0005099
2555.91	0.0005126
2565.56	0.0005205
2575.2	0.0006407
2584.85	0.0006241
2594.49	0.0006036
2604.14	0.0006298
2613.78	0.000717
2623.43	0.0006882
2633.07	0.0006713
2642.72	0.0005883
2652.36	0.000606
2662.01	0.0004836
2671.65	0.000465
2681.29	0.0004875
2690.94	0.0004685
2700.58	0.000436
2710.23	0.0004475
2719.87	0.0004188
2729.52	0.0004175
2739.16	0.0004639
2748.81	0.0003978
2758.45	0.0004397
2768.1	0.0004399
2777.74	0.0006044
2787.39	0.0005295
2797.03	0.0006269
2806.68	0.0005442
2816.32	0.000645
2825.97	0.0005751
2835.61	0.0006179
2845.26	0.0005996
2854.9	0.0006935
2864.55	0.0007419
2874.19	0.0008703
2883.84	0.0008486
2893.48	0.0009035
2903.12	0.0010104
2912.77	0.001388
2922.41	0.001348
2932.06	0.001288
2941.7	0.001448
2951.35	0.001548
2960.99	0.001878
2970.64	0.002088
2980.28	0.001978
2989.93	0.002488
2999.57	0.003888
3009.22	0.008038
3018.86	0.015878
3028.51	0.020088
3038.15	0.019458
3047.8	0.019288
3057.44	0.033868
3067.09	0.058738
3076.73	0.039368
3086.38	0.025038
3096.02	0.013198
3105.67	0.006508
3115.31	0.002908
3124.95	0.001798
3134.6	0.001698
3144.24	0.001818
3153.89	0.001878
3163.53	0.001218
3173.18	0.0008072
3182.82	0.0006251
3192.47	0.0005829
3202.11	0.0005503
3211.76	0.0005147
3221.4	0.0004133
3231.05	0.0003302
3240.69	0.0003285
3250.34	0.0002833
3259.98	0.00019346
3269.63	0.0003531
3279.27	0.00024278
3288.92	0.00019391
3298.56	0.00025611
3308.21	0.0004751
3317.85	0.0002856
3327.49	0.00022907
3337.14	0.000171163
3346.78	0.00018749
3356.43	0.00020546
3366.07	0.000153
3375.72	0.0002526
3385.36	0.00023145
3395.01	0.0003385
3404.65	9.25e-05
3414.3	0.00022695
3423.94	0.0002712
3433.59	0.00023753
3443.23	0.0003233
3452.88	0.0003654
3462.52	0.00025998
3472.17	0.00019642
3481.81	0.0003715
3491.46	0.00025864
3501.1	0.00025936
3510.75	0.00019859
3520.39	0.00020459
3530.04	0.0002842
3539.68	0.0002682
3549.32	0.0002874
3558.97	0.0003179
3568.61	0.0003034
3578.26	0.0001321
3587.9	0.0003654
3597.55	0.0002765
3607.19	0.0003603
3616.84	0.0002688
3626.48	0.000279
3636.13	0.0003645
3645.77	0.0003439
3655.42	0.0002914
3665.06	0.0003244
3674.71	0.0003308
3684.35	0.0005353
3694	0.0004323
3703.64	0.0004216
3713.29	0.0004205
3722.93	0.0003664
3732.58	0.0004136
3742.22	0.00026724
3751.86	0.0003348
3761.51	0.000327
3771.15	0.0003315
3780.8	0.0003809
3790.44	0.0003357
3800.09	0.0004453
3809.73	0.00023894
3819.38	0.0003301
3829.02	0.0002684
3838.67	0.0003123
3848.31	0.00022489
3857.96	0.0003199
3867.6	0.0003661
3877.25	0.0003246
3886.89	0.000418
3896.54	0.000411
3906.18	0.0003543
3915.83	0.00026403
3925.47	0.0003493
3935.12	0.0003272
3944.76	0.00026173
3954.41	0.00023866
3964.05	0.00022629
3973.69	0.0004865
3983.34	0.0003224
3992.98	0.0003166
