Infrared Spectrum: .alpha.-Chlorocinnamaldehyde
Formula: C 9 H 7 Cl O
CAS: 18365-42-9
State: gas
Origin: EPA-IR VAPOR PHASE LIBRARY
1/CM	ABSORBANCE
549.9	0.00786
559.547	0.00591
569.193	0.00463
578.84	0.00471
588.486	0.00639
598.133	0.01195
607.779	0.01596
617.426	0.01393
627.072	0.01498
636.719	0.02481
646.365	0.04413
656.012	0.05204
665.658	0.0453
675.305	0.05243
684.951	0.07759
694.598	0.07598
704.245	0.057
713.891	0.03982
723.538	0.03718
733.184	0.04044
742.831	0.04302
752.477	0.04706
762.124	0.03453
771.77	0.01791
781.417	0.00943
791.063	0.00661
800.71	0.00553
810.356	0.00503
820.003	0.00625
829.649	0.00981
839.296	0.01372
848.943	0.01698
858.589	0.02195
868.236	0.02975
877.882	0.03478
887.529	0.02781
897.175	0.01683
906.822	0.0144
916.468	0.01631
926.115	0.01538
935.761	0.01008
945.408	0.00706
955.054	0.00635
964.701	0.00615
974.347	0.00651
983.994	0.00783
993.64	0.01137
1003.29	0.0143
1012.93	0.01392
1022.58	0.02706
1032.23	0.05449
1041.87	0.09782
1051.52	0.11838
1061.17	0.07068
1070.81	0.05508
1080.46	0.04537
1090.11	0.05905
1099.75	0.10089
1109.4	0.16207
1119.05	0.13208
1128.69	0.0253
1138.34	0.01298
1147.99	0.01252
1157.63	0.01291
1167.28	0.01026
1176.92	0.00966
1186.57	0.01064
1196.22	0.00668
1205.86	0.00639
1215.51	0.00627
1225.16	0.00621
1234.8	0.0071
1244.45	0.00919
1254.1	0.0144
1263.74	0.02249
1273.39	0.03266
1283.04	0.03885
1292.68	0.0313
1302.33	0.02609
1311.98	0.02996
1321.62	0.02728
1331.27	0.02371
1340.92	0.01855
1350.56	0.0113
1360.21	0.00915
1369.86	0.01225
1379.5	0.02566
1389.15	0.0233
1398.79	0.0098
1408.44	0.0067
1418.09	0.00702
1427.73	0.00978
1437.38	0.01852
1447.03	0.02869
1456.67	0.02204
1466.32	0.01011
1475.97	0.0097
1485.61	0.02362
1495.26	0.02978
1504.91	0.01413
1514.55	0.00771
1524.2	0.00592
1533.85	0.00561
1543.49	0.00621
1553.14	0.00799
1562.79	0.01294
1572.43	0.02339
1582.08	0.02978
1591.73	0.05207
1601.37	0.12612
1611.02	0.18164
1620.67	0.10308
1630.31	0.0282
1639.96	0.01389
1649.6	0.01136
1659.25	0.01075
1668.9	0.01212
1678.54	0.01793
1688.19	0.02343
1697.84	0.04258
1707.48	0.14229
1717.13	0.41887
1726.78	0.38456
1736.42	0.09958
1746.07	0.04186
1755.72	0.0342
1765.36	0.02977
1775.01	0.02125
1784.66	0.01408
1794.3	0.01331
1803.95	0.00996
1813.6	0.00653
1823.24	0.00562
1832.89	0.00532
1842.54	0.00532
1852.18	0.00502
1861.83	0.00453
1871.47	0.00463
1881.12	0.00527
1890.77	0.00581
1900.41	0.00602
1910.06	0.00484
1919.71	0.00426
1929.35	0.00561
1939	0.00742
1948.65	0.00804
1958.29	0.00778
1967.94	0.00607
1977.59	0.0033821
1987.23	0.0025904
1996.88	0.002353
2006.53	0.002244
2016.17	0.002089
2025.82	0.002046
2035.47	0.002058
2045.11	0.002193
2054.76	0.002253
2064.41	0.0023823
2074.05	0.0026494
2083.7	0.0029309
2093.35	0.0030544
2102.99	0.0028256
2112.64	0.0024053
2122.28	0.002236
2131.93	0.001993
2141.58	0.001872
2151.22	0.001804
2160.87	0.001799
2170.52	0.00189
2180.16	0.002139
2189.81	0.0023924
2199.46	0.002808
2209.1	0.0032036
2218.75	0.0030897
2228.4	0.00256567
2238.04	0.001837
2247.69	0.001531
2257.34	0.001655
2266.98	0.001581
2276.63	0.001526
2286.28	0.001482
2295.92	0.00142
2305.57	0.00146
2315.22	0.002207
2324.86	0.002206
2334.51	0.001735
2344.16	0.00189
2353.8	0.001822
2363.45	0.001559
2373.09	0.001626
2382.74	0.001581
2392.39	0.001514
2402.03	0.00137
2411.68	0.00131
2421.33	0.00125
2430.97	0.00117
2440.62	0.00105
2450.27	0.00107
2459.91	0.00103
2469.56	0.0011
2479.21	0.00116
2488.85	0.00115
2498.5	0.00117
2508.15	0.00121
2517.79	0.00122
2527.44	0.00128
2537.09	0.00128
2546.73	0.00134
2556.38	0.00143
2566.03	0.0014
2575.67	0.00147
2585.32	0.001571
2594.96	0.001924
2604.61	0.001971
2614.26	0.001937
2623.9	0.002249
2633.55	0.0026538
2643.2	0.0033802
2652.84	0.00419
2662.49	0.00521
2672.14	0.00579
2681.78	0.00717
2691.43	0.00952
2701.08	0.01212
2710.72	0.01366
2720.37	0.01514
2730.02	0.02015
2739.66	0.02587
2749.31	0.01992
2758.96	0.01155
2768.6	0.00831
2778.25	0.00837
2787.9	0.01168
2797.54	0.02042
2807.19	0.03462
2816.84	0.04417
2826.48	0.05273
2836.13	0.08722
2845.77	0.06431
2855.42	0.01555
2865.07	0.00662
2874.71	0.00457
2884.36	0.00379
2894.01	0.0031484
2903.65	0.0026286
2913.3	0.00248462
2922.95	0.0023837
2932.59	0.0024442
2942.24	0.00255763
2951.89	0.0028495
2961.53	0.00362
2971.18	0.00494
2980.83	0.00601
2990.47	0.00628
3000.12	0.0067
3009.77	0.0107
3019.41	0.01776
3029.06	0.02663
3038.71	0.02601
3048.35	0.01924
3058	0.02927
3067.64	0.05082
3077.29	0.04785
3086.94	0.02972
3096.58	0.02323
3106.23	0.01659
3115.88	0.00866
3125.52	0.0037
3135.17	0.002103
3144.82	0.002024
3154.46	0.001925
3164.11	0.00103
3173.76	0.00061
3183.4	0.00072
3193.05	0.00074
3202.7	0.00084
3212.34	0.00107
3221.99	0.00076
3231.64	0.00036
3241.28	0.00021
3250.93	0.00017
3260.58	7e-05
3270.22	4e-05
3279.87	0.00012
3289.52	0.00015
3299.16	0.00026
3308.81	0.00035
3318.45	0.00057
3328.1	0.00066
3337.75	0.00073
3347.39	0.0006
3357.04	0.00058
3366.69	0.00065
3376.33	0.00083
3385.98	0.0013
3395.63	0.001882
3405.27	0.00386
3414.92	0.00843
3424.57	0.01091
3434.21	0.0058
3443.86	0.0023957
3453.51	0.001807
3463.15	0.0013
3472.8	0.00126
3482.45	0.00115
3492.09	0.0012
3501.74	0.00102
3511.39	0.00091
3521.03	0.00095
3530.68	0.00105
3540.33	0.00104
3549.97	0.0009
3559.62	0.00092
3569.26	0.00092
3578.91	0.00091
3588.56	0.00082
3598.2	0.00104
3607.85	0.00105
3617.5	0.00117
3627.14	0.00126
3636.79	0.00142
3646.44	0.001595
3656.08	0.00139
3665.73	0.00143
3675.38	0.001507
3685.02	0.00135
3694.67	0.001516
3704.32	0.001662
3713.96	0.001567
3723.61	0.001537
3733.26	0.00133
3742.9	0.0013
3752.55	0.00125
3762.2	0.00135
3771.84	0.00124
3781.49	0.0013
3791.13	0.00129
3800.78	0.00125
3810.43	0.00127
3820.07	0.00124
3829.72	0.00122
3839.37	0.0013
3849.01	0.00119
3858.66	0.0011
3868.31	0.00136
3877.95	0.00129
3887.6	0.00133
3897.25	0.001601
3906.89	0.001558
3916.54	0.00144
3926.19	0.00147
3935.83	0.00136
3945.48	0.00138
3955.13	0.00141
3964.77	0.00137
3974.42	0.00144
3984.07	0.00131
3993.71	0.00144
