Infrared Spectrum: N-Methyl-p-toluamide
Formula: C 9 H 11 N O
CAS: 18370-11-1
State: gas
Origin: EPA-IR VAPOR PHASE LIBRARY
1/CM	ABSORBANCE
549.8	0.0009096
559.445	0.00126
569.09	0.000477
578.734	0.0009349
588.379	0.0006758
598.024	0.0009656
607.669	0.0008411
617.313	0.0007519
626.958	0.0007045
636.603	0.0008101
646.248	0.0004677
655.893	0.0004805
665.537	0.0008253
675.182	0.0005501
684.827	0.0010468
694.472	0.00119
704.116	0.0008307
713.761	0.0008824
723.406	0.00153
733.051	0.0034
742.695	0.00611
752.34	0.00679
761.985	0.0048
771.63	0.00304
781.275	0.0022
790.919	0.00165
800.564	0.00214
810.209	0.0025
819.854	0.00352
829.498	0.00417
839.143	0.00401
848.788	0.00274
858.433	0.00183
868.078	0.00148
877.722	0.00136
887.367	0.00116
897.012	0.00122
906.657	0.00125
916.301	0.00127
925.946	0.0013
935.591	0.0010241
945.236	0.0010857
954.88	0.00124
964.525	0.00124
974.17	0.00119
983.815	0.00157
993.46	0.00253
1003.1	0.00307
1012.75	0.00232
1022.39	0.00182
1032.04	0.0009732
1041.68	0.0009794
1051.33	0.0009538
1060.97	0.0007408
1070.62	0.0004556
1080.26	0.0007815
1089.91	0.00141
1099.55	0.0012
1109.2	0.00225
1118.84	0.0023
1128.49	0.00262
1138.13	0.00357
1147.78	0.00398
1157.42	0.00208
1167.07	0.00205
1176.71	0.00425
1186.36	0.0063
1196	0.00451
1205.64	0.00332
1215.29	0.00359
1224.93	0.00382
1234.58	0.00475
1244.22	0.00601
1253.87	0.01165
1263.51	0.02373
1273.16	0.02422
1282.8	0.01297
1292.45	0.0079
1302.09	0.00445
1311.74	0.00278
1321.38	0.00222
1331.03	0.00202
1340.67	0.00226
1350.32	0.00222
1359.96	0.00213
1369.61	0.00212
1379.25	0.00235
1388.9	0.00265
1398.54	0.00314
1408.18	0.00466
1417.83	0.0064
1427.47	0.00639
1437.12	0.00562
1446.76	0.00679
1456.41	0.00984
1466.05	0.01532
1475.7	0.02458
1485.34	0.03589
1494.99	0.03427
1504.63	0.02067
1514.28	0.01532
1523.92	0.01506
1533.57	0.01141
1543.21	0.00789
1552.86	0.00596
1562.5	0.0051
1572.15	0.00509
1581.79	0.00468
1591.44	0.00449
1601.08	0.00563
1610.73	0.00778
1620.37	0.00658
1630.01	0.0036
1639.66	0.00277
1649.3	0.0032
1658.95	0.00426
1668.59	0.0063
1678.24	0.01086
1687.88	0.02388
1697.53	0.04355
1707.17	0.04278
1716.82	0.01873
1726.46	0.00789
1736.11	0.00475
1745.75	0.00305
1755.4	0.00178
1765.04	0.00119
1774.69	0.0009296
1784.33	0.0009217
1793.98	0.0008782
1803.62	0.0008257
1813.27	0.000698
1822.91	0.0005974
1832.55	0.000493
1842.2	0.0004426
1851.84	0.0003271
1861.49	0.0004371
1871.13	0.0005568
1880.78	0.0006305
1890.42	0.0005111
1900.07	0.0005499
1909.71	0.0005676
1919.36	0.0005765
1929	0.000455
1938.65	0.0004125
1948.29	0.0003898
1957.94	0.0002744
1967.58	0.0003118
1977.23	0.0003293
1986.87	0.0003282
1996.52	0.0003351
2006.16	0.0002529
2015.81	0.000254
2025.45	0.00023224
2035.1	0.0003025
2044.74	0.00017835
2054.38	0.00022284
2064.03	0.00014792
2073.67	0.00018139
2083.32	0.0001007
2092.96	0.00021569
2102.61	0.00020322
2112.25	0.00022606
2121.9	0.00021313
2131.54	0.0002734
2141.19	0.0002525
2150.83	0.0002737
2160.48	0.0002957
2170.12	0.00020399
2179.77	9.64e-05
2189.41	0.00014797
2199.06	0.00020833
2208.7	9.82e-05
2218.35	9.78e-05
2227.99	0.00019433
2237.64	0.00021664
2247.28	0.00018962
2256.92	0.000152112
2266.57	0.00023744
2276.21	0.0002753
2285.86	0.0002746
2295.5	0.0002961
2305.15	0.0002712
2314.79	0.000363
2324.44	0.0001339
2334.08	0.0002709
2343.73	0.0002674
2353.37	0.00021913
2363.02	0.00018897
2372.66	0.0001201
2382.31	0.00017308
2391.95	0.00021471
2401.6	0.00021165
2411.24	0.00022805
2420.89	0.000151898
2430.53	0.00021164
2440.18	0.0002688
2449.82	0.00020861
2459.47	0.00023739
2469.11	0.00018966
2478.75	0.00020968
2488.4	0.0002514
2498.04	0.00021268
2507.69	0.00021411
2517.33	0.0003148
2526.98	0.000353
2536.62	0.0004222
2546.27	0.0003123
2555.91	0.0003309
2565.56	0.0002911
2575.2	0.000313
2584.85	0.0003747
2594.49	0.0002996
2604.14	0.0002811
2613.78	0.00019499
2623.43	0.0003349
2633.07	0.00021101
2642.72	0.00023547
2652.36	0.00018747
2662.01	0.00019679
2671.65	0.0003046
2681.29	9.12e-05
2690.94	0.0003504
2700.58	0.0002703
2710.23	0.0002672
2719.87	0.00022798
2729.52	0.0003683
2739.16	0.0004647
2748.81	0.0005057
2758.45	0.0004197
2768.1	0.0004805
2777.74	0.0003836
2787.39	0.0005887
2797.03	0.0008746
2806.68	0.00125
2816.32	0.00177
2825.97	0.00154
2835.61	0.0013
2845.26	0.0013
2854.9	0.00186
2864.55	0.00276
2874.19	0.00404
2883.84	0.00484
2893.48	0.00528
2903.12	0.00593
2912.77	0.00674
2922.41	0.00809
2932.06	0.01004
2941.7	0.01017
2951.35	0.00834
2960.99	0.00687
2970.64	0.00489
2980.28	0.004
2989.93	0.004
2999.57	0.00414
3009.22	0.00421
3018.86	0.00518
3028.51	0.0072
3038.15	0.0063
3047.8	0.0049
3057.44	0.00426
3067.09	0.00384
3076.73	0.00305
3086.38	0.00237
3096.02	0.00185
3105.67	0.00128
3115.31	0.0009904
3124.95	0.0008358
3134.6	0.000657
3144.24	0.0004814
3153.89	0.0004878
3163.53	0.0003346
3173.18	0.0003582
3182.82	0.00023079
3192.47	0.00014174
3202.11	0.00023166
3211.76	0.00019753
3221.4	0.00021071
3231.05	0.0001142
3240.69	0.0002555
3250.34	0.0003185
3259.98	0.0002502
3269.63	0.00023731
3279.27	0.00016383
3288.92	0.00016552
3298.56	0.00014736
3308.21	0.0002359
3317.85	0.00018017
3327.49	0.0003155
3337.14	0.0003233
3346.78	0.00019757
3356.43	0.00021155
3366.07	0.0004996
3375.72	0.0006511
3385.36	0.000651
3395.01	0.0005797
3404.65	0.0004755
3414.3	0.00045
3423.94	0.000543
3433.59	0.0003806
3443.23	0.0005277
3452.88	0.000656
3462.52	0.0011232
3472.17	0.00165
3481.81	0.0025
3491.46	0.00286
3501.1	0.00202
3510.75	0.0010936
3520.39	0.000492
3530.04	0.0004476
3539.68	0.0002713
3549.32	0.0002772
3558.97	0.00032
3568.61	0.0001193
3578.26	0.00019332
3587.9	0.00024118
3597.55	0.00020191
3607.19	0.0001278
3616.84	0.0001126
3626.48	0.0002942
3636.13	0.00022648
3645.77	8.21e-05
3655.42	0.0001298
3665.06	0.000267
3674.71	0.00019563
3684.35	0.0003042
3694	0.00021449
3703.64	0.0001389
3713.29	0.00018884
3722.93	0.0002503
3732.58	0.0001748
3742.22	0.0002881
3751.86	0.0002737
3761.51	0.0001283
3771.15	0.00014019
3780.8	9.17e-05
3790.44	0.0003322
3800.09	0.00023653
3809.73	0.000292
3819.38	0.00018657
3829.02	0.00019197
3838.67	0.00016686
3848.31	7.27e-05
3857.96	0.0004073
3867.6	2.9e-05
3877.25	0.0003036
3886.89	0.0004158
3896.54	0.0001388
3906.18	0.0002954
3915.83	0.000157577
3925.47	0.0003022
3935.12	0.00018613
3944.76	0
3954.41	0.00018241
3964.05	0.00016745
3973.69	4.5e-05
3983.34	0.00024005
3992.98	0.0003313
