Infrared Spectrum: Octadecylamine hydrochloride
Formula: C18 H40 Cl N
CAS: 1838-08-0
State: gas
Origin: EPA-IR VAPOR PHASE LIBRARY
1/CM	ABSORBANCE
549.8	0.000364441
559.445	0.00045489
569.09	0.00046197
578.734	0.0005343
588.379	0.0007849
598.024	0.0006753
607.669	0.00039683
617.313	0.0006575
626.958	0.0006934
636.603	0.0008101
646.248	0.0006449
655.893	0.0006966
665.537	0.0010563
675.182	0.0010141
684.827	0.0009218
694.472	0.0011125
704.116	0.001473
713.761	0.001563
723.406	0.002043
733.051	0.002133
742.695	0.002473
752.34	0.002753
761.985	0.003083
771.63	0.002923
781.275	0.002753
790.919	0.002553
800.564	0.001603
810.209	0.001423
819.854	0.0012392
829.498	0.0013134
839.143	0.0012007
848.788	0.000883
858.433	0.0010239
868.078	0.00043255
877.722	0.00041189
887.367	0.0006241
897.012	0.0005879
906.657	0.0005639
916.301	0.0007185
925.946	0.0008004
935.591	0.0006241
945.236	0.0007089
954.88	0.0006135
964.525	0.00045237
974.17	0.0006163
983.815	0.0006176
993.46	0.0003889
1003.1	0.0007423
1012.75	0.0008499
1022.39	0.00043128
1032.04	0.0008477
1041.68	0.0005261
1051.33	0.0006088
1060.97	0.001095
1070.62	0.0009488
1080.26	0.0010032
1089.91	0.0005111
1099.55	0.0005058
1109.2	0.0007715
1118.84	0.000599
1128.49	0.000155
1138.13	0.000276
1147.78	0.0002799
1157.42	0.0002823
1167.07	0.000243
1176.71	0.0009793
1186.36	0.0004959
1196	0.0007063
1205.64	0.0005625
1215.29	0.0007846
1224.93	0.0008959
1234.58	0.0008131
1244.22	0.0008951
1253.87	0.0008123
1263.51	0.0007913
1273.16	0.0010895
1282.8	0.0009974
1292.45	0.0011847
1302.09	0.0011286
1311.74	0.0011902
1321.38	0.0011807
1331.03	0.0011606
1340.67	0.001453
1350.32	0.001833
1359.96	0.001883
1369.61	0.001643
1379.25	0.001503
1388.9	0.0012602
1398.54	0.0011082
1408.18	0.0009186
1417.83	0.000903
1427.47	0.0010124
1437.12	0.001503
1446.76	0.002413
1456.41	0.003313
1466.05	0.003393
1475.7	0.002093
1485.34	0.0011476
1494.99	0.0007752
1504.63	0.0006556
1514.28	0.0005598
1523.92	0.0005524
1533.57	0.0005677
1543.21	0.00039641
1552.86	0.00043832
1562.5	0.0005064
1572.15	0.0005665
1581.79	0.0005573
1591.44	0.000714
1601.08	0.0008096
1610.73	0.0010155
1620.37	0.0011643
1630.01	0.0010473
1639.66	0.0009164
1649.3	0.000622
1658.95	0.0005927
1668.59	0.0004908
1678.24	0.0006046
1687.88	0.0006087
1697.53	0.0005856
1707.17	0.0004632
1716.82	0.00043762
1726.46	0.0003414
1736.11	0.000496
1745.75	0.0005071
1755.4	0.0004844
1765.04	0.0004525
1774.69	0.00045583
1784.33	0.00040494
1793.98	0.0004821
1803.62	0.00036712
1813.27	0.0004633
1822.91	0.0004785
1832.55	0.00038641
1842.2	0.0004139
1851.84	0.00043861
1861.49	0.0004742
1871.13	0.000366917
1880.78	0.000369693
1890.42	0.00038821
1900.07	0.000370911
1909.71	0.00038373
1919.36	0.00042945
1929	0.000372031
1938.65	0.000372785
1948.29	0.0003513
1957.94	0.000362509
1967.58	0.00042684
1977.23	0.00045292
1986.87	0.0003935
1996.52	0.0004811
2006.16	0.00043267
2015.81	0.00043685
2025.45	0.00037744
2035.1	0.00040632
2044.74	0.0005013
2054.38	0.00038248
2064.03	0.0003235
2073.67	0.00040819
2083.32	0.00041784
2092.96	0.0004767
2102.61	0.00040144
2112.25	0.00036498
2121.9	0.00041943
2131.54	0.00040988
2141.19	0.00041537
2150.83	0.00044361
2160.48	0.00039949
2170.12	0.00038935
2179.77	0.00046274
2189.41	0.00044244
2199.06	0.00035905
2208.7	0.000494
2218.35	0.000464
2227.99	0.00046026
2237.64	0.00044566
2247.28	0.0004682
2256.92	0.00042684
2266.57	0.00045212
2276.21	0.00037903
2285.86	0.00038912
2295.5	0.0006047
2305.15	0.0004743
2314.79	0.000484
2324.44	0.00041845
2334.08	0.000515
2343.73	0.0003482
2353.37	0.00043123
2363.02	0.00041882
2372.66	0.0004734
2382.31	0.0003223
2391.95	0.00045742
2401.6	0.00041178
2411.24	0.0004938
2420.89	0.0004665
2430.53	0.00035675
2440.18	0.00042004
2449.82	0.00040431
2459.47	0.00040047
2469.11	0.0005155
2478.75	0.00040225
2488.4	0.00042054
2498.04	0.000479
2507.69	0.0004647
2517.33	0.0005051
2526.98	0.0004547
2536.62	0.0005302
2546.27	0.0005927
2555.91	0.0005399
2565.56	0.0006263
2575.2	0.0005916
2584.85	0.0005466
2594.49	0.0006188
2604.14	0.0006553
2613.78	0.000663
2623.43	0.0006498
2633.07	0.0007704
2642.72	0.0007356
2652.36	0.0008123
2662.01	0.0008648
2671.65	0.0009516
2681.29	0.0008244
2690.94	0.0010092
2700.58	0.0009957
2710.23	0.0008255
2719.87	0.0008731
2729.52	0.0008968
2739.16	0.0010821
2748.81	0.0009727
2758.45	0.0011289
2768.1	0.001217
2777.74	0.0012926
2787.39	0.001463
2797.03	0.001573
2806.68	0.002043
2816.32	0.002413
2825.97	0.003033
2835.61	0.004323
2845.26	0.007223
2854.9	0.014953
2864.55	0.020323
2874.19	0.013873
2883.84	0.010353
2893.48	0.010323
2903.12	0.013893
2912.77	0.021353
2922.41	0.036583
2932.06	0.054593
2941.7	0.038333
2951.35	0.019343
2960.99	0.012373
2970.64	0.009663
2980.28	0.005403
2989.93	0.003273
2999.57	0.002433
3009.22	0.001883
3018.86	0.001543
3028.51	0.001533
3038.15	0.0012177
3047.8	0.0010538
3057.44	0.0008815
3067.09	0.0006143
3076.73	0.0008428
3086.38	0.0008555
3096.02	0.0008166
3105.67	0.0007185
3115.31	0.000713
3124.95	0.000538
3134.6	0.0006689
3144.24	0.00045105
3153.89	0.0004843
3163.53	0.000766
3173.18	0.0007319
3182.82	0.0006426
3192.47	0.0006977
3202.11	0.0002842
3211.76	0.0004751
3221.4	0.000524
3231.05	0.0005286
3240.69	0.0002929
3250.34	0.0005789
3259.98	0.0005299
3269.63	0.0004349
3279.27	0.0004364
3288.92	0.0003393
3298.56	0.000226
3308.21	0.0007693
3317.85	0.0005025
3327.49	0.0006885
3337.14	0.000584
3346.78	0.00042066
3356.43	0.0003419
3366.07	0.0004887
3375.72	0.000175
3385.36	0.0002936
3395.01	0.00044471
3404.65	0.0003317
3414.3	0.0005541
3423.94	0.0003376
3433.59	0.000372815
3443.23	0.00048
3452.88	0.0004986
3462.52	0.000253
3472.17	0.000369984
3481.81	0.0004735
3491.46	0.000519
3501.1	0.0004684
3510.75	0.0003003
3520.39	0.000506
3530.04	0.0003146
3539.68	0.000255
3549.32	0.0002685
3558.97	0.0002684
3568.61	0.0003076
3578.26	0.0006487
3587.9	0.000262
3597.55	0.00037619
3607.19	0.000257
3616.84	0.0003
3626.48	0.0006092
3636.13	0.00043918
3645.77	0.00043267
3655.42	0.0005464
3665.06	0.00041745
3674.71	0
3684.35	0.00041998
3694	0.0004206
3703.64	0.00043945
3713.29	0.0005683
3722.93	0.0003181
3732.58	0.00045792
3742.22	0.000365783
3751.86	0.00046298
3761.51	0.0003266
3771.15	0.00044132
3780.8	0.00023
3790.44	0.000475
3800.09	0.0002706
3809.73	0.000344
3819.38	0.00044801
3829.02	0.00042537
3838.67	0.0003375
3848.31	0.000196
3857.96	0.00017
3867.6	0.0006676
3877.25	0.000364064
3886.89	0.000165
3896.54	0.000195
3906.18	0.0005793
3915.83	0.0005279
3925.47	0.0003212
3935.12	0.00035584
3944.76	0.000364717
3954.41	0.000209
3964.05	0.0003503
3973.69	0.0005683
3983.34	0.0003387
3992.98	0.0006692
