Infrared Spectrum: 2-METHYL-2-NITRO-1,3-PROPANEDIOL-DI-p-TOLUENESULFONATE
Formula: C18 H21 N O8 S2
CAS: 18386-50-0
State: SOLID
Melting point: 98.5-99.5 C
Class: COBLENTZ
Instrument: Not specified, most likely a prism, grating, or hybrid spectrometer.
Sampling: TRANSMISSION
Path length: MELT
Resolution: 4
Origin: ARTHUR D. LITTLE, INC.
1/CM	TRANSMITTANCE
655.079	0.2
663.227	0.356
671.374	0.524
679.522	0.573
687.67	0.738
695.818	0.734
703.965	0.823
712.113	0.68
720.261	0.417
728.409	0.604
736.556	0.808
744.704	0.736
752.852	0.561
761	0.398
769.147	0.267
777.295	0.219
785.443	0.242
793.591	0.202
801.738	0.143
809.886	0.147
818.034	0.179
826.182	0.258
834.329	0.328
842.477	0.398
850.625	0.553
858.773	0.671
866.92	0.731
875.068	0.871
883.216	0.973
891.364	0.994
899.511	0.998
907.659	0.967
915.807	0.917
923.955	0.893
932.102	0.882
940.25	0.793
948.398	0.575
956.546	0.402
964.693	0.271
972.841	0.202
980.989	0.189
989.137	0.18
997.284	0.178
1005.43	0.189
1013.58	0.215
1021.73	0.426
1029.88	0.616
1038.02	0.749
1046.17	0.841
1054.32	0.9
1062.47	0.908
1070.61	0.875
1078.76	0.756
1086.91	0.45
1095.06	0.632
1103.2	0.794
1111.35	0.764
1119.5	0.843
1127.65	0.909
1135.8	0.898
1143.94	0.842
1152.09	0.698
1160.24	0.345
1168.39	0.095
1176.53	0.138
1184.68	0.171
1192.83	0.486
1200.98	0.638
1209.13	0.728
1217.27	0.835
1225.42	0.894
1233.57	0.926
1241.72	0.952
1249.86	0.956
1258.01	0.934
1266.16	0.871
1274.31	0.773
1282.46	0.645
1290.6	0.601
1298.75	0.62
1306.9	0.684
1315.05	0.705
1323.19	0.631
1331.34	0.401
1339.49	0.201
1347.64	0.145
1355.79	0.12
1363.93	0.156
1372.08	0.232
1380.23	0.382
1388.38	0.505
1396.52	0.527
1404.67	0.619
1412.82	0.682
1420.97	0.649
1429.11	0.587
1437.26	0.479
1445.41	0.353
1453.56	0.33
1461.71	0.368
1469.85	0.527
1478	0.672
1486.15	0.656
1494.3	0.553
1502.44	0.716
1510.59	0.752
1518.74	0.732
1526.89	0.708
1535.04	0.636
1543.18	0.402
1551.33	0.119
1559.48	0.116
1567.63	0.339
1575.77	0.582
1583.92	0.619
1592.07	0.449
1600.22	0.349
1608.37	0.687
1616.51	0.76
1624.66	0.793
1632.81	0.819
1640.96	0.834
1649.1	0.815
1657.25	0.835
1665.4	0.86
1673.55	0.884
1681.69	0.9
1689.84	0.908
1697.99	0.904
1706.14	0.915
1714.29	0.916
1722.43	0.917
1730.58	0.917
1738.73	0.905
1746.88	0.902
1755.02	0.902
1763.17	0.897
1771.32	0.905
1779.47	0.912
1787.62	0.91
1795.76	0.904
1803.91	0.897
1812.06	0.894
1820.21	0.904
1828.35	0.915
1836.5	0.92
1844.65	0.916
1852.8	0.919
1860.95	0.919
1869.09	0.916
1877.24	0.92
1885.39	0.919
1893.54	0.915
1901.68	0.91
1909.83	0.897
1917.98	0.871
1926.13	0.856
1934.27	0.88
1942.42	0.901
1950.57	0.913
1958.72	0.917
1966.87	0.919
1975.01	0.917
1983.16	0.917
1991.31	0.919
1999.46	0.921
2007.6	0.926
2015.75	0.932
2023.9	0.935
2032.05	0.938
2040.2	0.939
2048.34	0.942
2056.49	0.942
2064.64	0.945
2072.79	0.945
2080.93	0.946
2089.08	0.946
2097.23	0.943
2105.38	0.941
2113.53	0.934
2121.67	0.934
2129.82	0.936
2137.97	0.939
2146.12	0.936
2154.26	0.936
2162.41	0.932
2170.56	0.931
2178.71	0.928
2186.86	0.92
2195	0.917
2203.15	0.927
2211.3	0.934
2219.45	0.936
2227.59	0.939
2235.74	0.939
2243.89	0.938
2252.04	0.936
2260.18	0.931
2268.33	0.926
2276.48	0.912
2284.63	0.905
2292.78	0.909
2300.92	0.909
2309.07	0.912
2317.22	0.91
2325.37	0.905
2333.51	0.9
2341.66	0.902
2349.81	0.904
2357.96	0.905
2366.11	0.906
2374.25	0.91
2382.4	0.916
2390.55	0.919
2398.7	0.919
2406.84	0.913
2414.99	0.91
2423.14	0.912
2431.29	0.916
2439.44	0.924
2447.58	0.927
2455.73	0.92
2463.88	0.917
2472.03	0.92
2480.17	0.923
2488.32	0.92
2496.47	0.924
2504.62	0.923
2512.76	0.919
2520.91	0.916
2529.06	0.913
2537.21	0.912
2545.36	0.909
2553.5	0.909
2561.65	0.909
2569.8	0.913
2577.95	0.905
2586.09	0.895
2594.24	0.89
2602.39	0.895
2610.54	0.908
2618.69	0.913
2626.83	0.916
2634.98	0.921
2643.13	0.924
2651.28	0.923
2659.42	0.921
2667.57	0.917
2675.72	0.91
2683.87	0.904
2692.02	0.898
2700.16	0.9
2708.31	0.908
2716.46	0.913
2724.61	0.915
2732.75	0.906
2740.9	0.902
2749.05	0.9
2757.2	0.902
2765.34	0.904
2773.49	0.904
2781.64	0.902
2789.79	0.9
2797.94	0.897
2806.08	0.894
2814.23	0.891
2822.38	0.89
2830.53	0.884
2838.67	0.873
2846.82	0.861
2854.97	0.824
2863.12	0.82
2871.27	0.808
2879.41	0.791
2887.56	0.768
2895.71	0.739
2903.86	0.745
2912	0.756
2920.15	0.738
2928.3	0.697
2936.45	0.704
2944.6	0.739
2952.74	0.724
2960.89	0.686
2969.04	0.691
2977.19	0.716
2985.33	0.741
2993.48	0.746
3001.63	0.747
3009.78	0.749
3017.93	0.75
3026.07	0.758
3034.22	0.754
3042.37	0.753
3050.52	0.764
3058.66	0.758
3066.81	0.754
3074.96	0.76
3083.11	0.791
3091.25	0.827
3099.4	0.82
3107.55	0.826
3115.7	0.839
3123.85	0.853
3131.99	0.865
3140.14	0.873
3148.29	0.882
3156.44	0.884
3164.58	0.887
3172.73	0.894
3180.88	0.898
3189.03	0.9
3197.18	0.902
3205.32	0.904
3213.47	0.908
3221.62	0.912
3229.77	0.916
3237.91	0.917
3246.06	0.919
3254.21	0.919
3262.36	0.919
3270.51	0.919
3278.65	0.92
3286.8	0.921
3294.95	0.923
3303.1	0.921
3311.24	0.921
3319.39	0.92
3327.54	0.92
3335.69	0.92
3343.83	0.92
3351.98	0.92
3360.13	0.919
3368.28	0.916
3376.43	0.915
3384.57	0.919
3392.72	0.919
3400.87	0.92
3409.02	0.921
3417.16	0.921
3425.31	0.923
3433.46	0.923
3441.61	0.923
3449.76	0.923
3457.9	0.923
3466.05	0.923
3474.2	0.923
3482.35	0.923
3490.49	0.923
3498.64	0.923
