Infrared Spectrum: 3-Methyl-4-heptanol
Formula: C 8 H 18 O
CAS: 1838-73-9
State: gas
Instrument: HP-GC/MS/IRD
Origin: NIST Mass Spectrometry Data Center
1/CM	ABSORBANCE
550	0.0004981
562	0.0002312
574	0.0001802
586	0.0001088
598	0.0001326
610	6.63e-05
622	0.0001088
634	0.0001292
646	7.14e-05
658	0.0001564
670	2.21e-05
682	0.0001071
694	8.5e-05
706	0.0001309
718	0.0001088
730	0.0001428
742	0.0001836
754	0.0002652
766	0.0003128
778	0.0004454
790	0.0004131
802	0.0003655
814	0.0003723
826	0.0003978
838	0.000595
850	0.0006477
862	0.0005202
874	0.0004641
886	0.0004488
898	0.0006188
910	0.0005423
922	0.0004675
934	0.0005542
946	0.00102
958	0.0014535
970	0.0017986
982	0.0024225
994	0.0029393
1006	0.0027251
1018	0.0020145
1030	0.0013294
1042	0.0010744
1054	0.0012206
1066	0.0013056
1078	0.0014297
1090	0.0015198
1102	0.0015708
1114	0.0016065
1126	0.0015674
1138	0.0015504
1150	0.0014365
1162	0.0010336
1174	0.0008891
1186	0.0008721
1198	0.0010472
1210	0.0013073
1222	0.0013685
1234	0.0012869
1246	0.0012818
1258	0.0013022
1270	0.0013175
1282	0.0011883
1294	0.0010336
1306	0.0009435
1318	0.0008959
1330	0.0009367
1342	0.0009809
1354	0.0011764
1366	0.0015878
1378	0.0022984
1390	0.0023324
1402	0.0014042
1414	0.0009044
1426	0.0008177
1438	0.001088
1450	0.0017731
1462	0.0025007
1474	0.0020519
1486	0.001037
1498	0.0005338
1510	0.0003128
1522	0.0002958
1534	0.0002414
1546	0.0001989
1558	0.0001547
1570	0.0001513
1582	0.0001819
1594	0.0001309
1606	0.0001428
1618	0.0001088
1630	0.0001411
1642	0.0001241
1654	8.33e-05
1666	0.000102
1678	0.0001088
1690	9.35e-05
1702	9.35e-05
1714	7.48e-05
1726	0.0001207
1738	9.35e-05
1750	5.61e-05
1762	4.93e-05
1774	6.97e-05
1786	5.1e-05
1798	7.48e-05
1810	4.42e-05
1822	6.46e-05
1834	3.91e-05
1846	5.27e-05
1858	6.97e-05
1870	6.97e-05
1882	6.46e-05
1894	6.29e-05
1906	4.93e-05
1918	4.08e-05
1930	4.25e-05
1942	2.89e-05
1954	6.46e-05
1966	5.78e-05
1978	4.76e-05
1990	4.93e-05
2002	5.1e-05
2014	7.82e-05
2026	5.61e-05
2038	4.08e-05
2050	5.95e-05
2062	5.95e-05
2074	4.59e-05
2086	6.12e-05
2098	4.76e-05
2110	2.55e-05
2122	4.08e-05
2134	4.25e-05
2146	6.8e-06
2158	5.27e-05
2170	7.31e-05
2182	4.93e-05
2194	3.06e-05
2206	4.59e-05
2218	3.57e-05
2230	3.23e-05
2242	4.42e-05
2254	1.53e-05
2266	2.55e-05
2278	4.76e-05
2290	5.44e-05
2302	5.1e-05
2314	7.82e-05
2326	8.16e-05
2338	6.97e-05
2350	9.69e-05
2362	0.0001054
2374	6.63e-05
2386	9.52e-05
2398	7.14e-05
2410	8.84e-05
2422	9.52e-05
2434	7.82e-05
2446	0.0001224
2458	0.0001241
2470	0.0001088
2482	9.69e-05
2494	9.52e-05
2506	0.0001071
2518	7.14e-05
2530	0.0001054
2542	0.0001105
2554	0.0001207
2566	0.0001513
2578	0.0002023
2590	0.0001785
2602	0.0002261
2614	0.0002227
2626	0.0002312
2638	0.0002176
2650	0.0002244
2662	0.0002788
2674	0.000289
2686	0.0002992
2698	0.0003077
2710	0.00034
2722	0.0003553
2734	0.0004488
2746	0.0004998
2758	0.0005168
2770	0.0004913
2782	0.0005627
2794	0.0006528
2806	0.0007854
2818	0.0009707
2830	0.0013345
2842	0.0020638
2854	0.0033609
2866	0.0055148
2878	0.008432
2890	0.0089675
2902	0.0075786
2914	0.00833
2926	0.0105553
2938	0.0126123
2950	0.0125137
2962	0.0155465
2974	0.0158423
2986	0.0077129
2998	0.0030668
3010	0.0016983
3022	0.0011968
3034	0.0009367
3046	0.0008058
3058	0.0006409
3070	0.0005134
3082	0.0004862
3094	0.0004369
3106	0.000408
3118	0.0003366
3130	0.0002771
3142	0.0002601
3154	0.0002448
3166	0.000238
3178	0.0002448
3190	0.0001904
3202	0.0001683
3214	5.44e-05
3226	8.16e-05
3238	7.48e-05
3250	4.76e-05
3262	3.06e-05
3274	3.23e-05
3286	8.5e-05
3298	4.76e-05
3310	3.4e-05
3322	7.14e-05
3334	3.91e-05
3346	5.1e-05
3358	3.4e-06
3370	2.89e-05
3382	6.97e-05
3394	8.67e-05
3406	5.27e-05
3418	7.14e-05
3430	0.0001207
3442	5.27e-05
3454	0.0001377
3466	6.46e-05
3478	0.0001292
3490	7.14e-05
3502	7.99e-05
3514	6.8e-05
3526	1.19e-05
3538	7.65e-05
3550	8.84e-05
3562	6.97e-05
3574	0.0001411
3586	0.000119
3598	0.0001207
3610	0.0001275
3622	0.0002465
3634	0.0003927
3646	0.000748
3658	0.0009775
3670	0.0006426
3682	0.0002805
3694	0.0001921
3706	0.0001445
3718	9.86e-05
3730	8.16e-05
3742	6.97e-05
3754	5.95e-05
3766	3.74e-05
3778	7.31e-05
3790	0.0001054
3802	9.52e-05
3814	0.000119
3826	9.01e-05
3838	1.87e-05
