Infrared Spectrum: ALLYLDIETHOXYMETHYLSILANE
Formula: C8 H18 O2 Si
CAS: 18388-45-9
State: SOLUTION (10% CCl4 FOR 3800-1300, 2% CS2 FOR 1300-650, AND 10% CCl4 FOR 650-250) VS SOLVENT
Boiling point: 155 C
Class: COBLENTZ III
Instrument: PERKIN-ELMER 521 (GRATING)
Instrument parameters: FILTERS AT 3150, 2500, 2000, 1150, 700, 410. GRATING CHANGES: 2000, 630
Path length: 0.011 CM, 0.011 CM, AND 0.010 CM
Resolution: 2
Origin: DOW CORNING CORP.
1/CM	TRANSMITTANCE
250	0.8165
259	0.8163
268	0.8151
277	0.8135
286	0.8118
295	0.8031
304	0.781
313	0.7651
322	0.7427
331	0.7242
340	0.7281
349	0.7469
358	0.7652
367	0.7751
376	0.7718
385	0.7698
394	0.7254
403	0.6888
412	0.6412
421	0.6148
430	0.6323
439	0.6655
448	0.7285
457	0.7669
466	0.826
475	0.8326
484	0.865
493	0.8715
502	0.8739
511	0.8742
520	0.8719
529	0.8674
538	0.8564
547	0.8385
556	0.7802
565	0.6079
574	0.5183
583	0.7508
592	0.8475
601	0.8711
610	0.8743
619	0.8632
628	0.8325
637	0.7896
646	0.6077
655	0.7685
664	0.7851
673	0.8322
682	0.8322
691	0.8132
700	0.7964
709	0.7729
718	0.7314
727	0.6931
736	0.7333
745	0.7754
754	0.7269
763	0.6819
772	0.6369
781	0.4008
790	0.442
799	0.4844
808	0.4694
817	0.4465
826	0.3933
835	0.585
844	0.7584
853	0.7927
862	0.8016
871	0.798
880	0.7319
889	0.4437
898	0.755
907	0.762
916	0.7225
925	0.5426
934	0.4989
943	0.4297
952	0.4539
961	0.7124
970	0.7668
979	0.7106
988	0.7205
997	0.7767
1006	0.7578
1015	0.7142
1024	0.6619
1033	0.6226
1042	0.6163
1051	0.5717
1060	0.4572
1069	0.2029
1078	0.1666
1087	0.3074
1096	0.1824
1105	0.1846
1114	0.2961
1123	0.5076
1132	0.5991
1141	0.5993
1150	0.4852
1159	0.4048
1168	0.6785
1177	0.7329
1186	0.7574
1195	0.7946
1204	0.8095
1213	0.8101
1222	0.8071
1231	0.79
1240	0.7315
1249	0.3686
1258	0.7709
1267	0.7974
1276	0.7882
1285	0.769
1294	0.804
1303	0.7508
1312	0.7732
1321	0.7786
1330	0.7697
1339	0.7533
1348	0.734
1357	0.6849
1366	0.5908
1375	0.4847
1384	0.1782
1393	0.3985
1402	0.581
1411	0.5274
1420	0.6426
1429	0.601
1438	0.5232
1447	0.6237
1456	0.7235
1465	0.7382
1474	0.658
1483	0.789
1492	0.8248
1501	0.8386
1510	0.8461
1519	0.8552
1528	0.8644
1537	0.8646
1546	0.8625
1555	0.8609
1564	0.8542
1573	0.8527
1582	0.8427
1591	0.8353
1600	0.7996
1609	0.7812
1618	0.6245
1627	0.2154
1636	0.7957
1645	0.8331
1654	0.8385
1663	0.8399
1672	0.8399
1681	0.835
1690	0.8267
1699	0.8155
1708	0.7598
1717	0.8213
1726	0.8267
1735	0.8412
1744	0.8426
1753	0.8416
1762	0.8397
1771	0.8358
1780	0.8178
1789	0.7869
1798	0.7959
1807	0.8188
1816	0.8236
1825	0.8284
1834	0.8367
1843	0.8429
1852	0.8476
1861	0.8507
1870	0.8488
1879	0.8383
1888	0.8371
1897	0.8374
1906	0.8466
1915	0.855
1924	0.8599
1933	0.8602
1942	0.8592
1951	0.8589
1960	0.8588
1969	0.8627
1978	0.8656
1987	0.8684
1996	0.87
2005	0.8701
2014	0.8693
2023	0.8688
2032	0.8714
2041	0.8741
2050	0.8759
2059	0.8754
2068	0.8738
2077	0.8721
2086	0.8704
2095	0.8694
2104	0.8691
2113	0.8686
2122	0.8675
2131	0.8665
2140	0.8673
2149	0.8649
2158	0.861
2167	0.8571
2176	0.8545
2185	0.8577
2194	0.8618
2203	0.8655
2212	0.8674
2221	0.8684
2230	0.8687
2239	0.8689
2248	0.8689
2257	0.8687
2266	0.8685
2275	0.8681
2284	0.8671
2293	0.8661
2302	0.864
2311	0.8615
2320	0.8596
2329	0.8587
2338	0.8643
2347	0.8692
2356	0.8736
2365	0.8756
2374	0.8762
2383	0.8767
2392	0.8766
2401	0.8758
2410	0.873
2419	0.8691
2428	0.8658
2437	0.8646
2446	0.8644
2455	0.8646
2464	0.8672
2473	0.8688
2482	0.8653
2491	0.866
2500	0.8683
2509	0.8675
2518	0.8663
2527	0.8641
2536	0.8608
2545	0.8581
2554	0.8584
2563	0.8602
2572	0.8619
2581	0.8611
2590	0.8582
2599	0.8548
2608	0.8514
2617	0.8457
2626	0.8458
2635	0.8531
2644	0.8539
2653	0.8525
2662	0.8519
2671	0.8498
2680	0.846
2689	0.8383
2698	0.8287
2707	0.8069
2716	0.7796
2725	0.7372
2734	0.7394
2743	0.7829
2752	0.778
2761	0.7578
2770	0.7793
2779	0.7833
2788	0.7781
2797	0.7664
2806	0.748
2815	0.7313
2824	0.7288
2833	0.6985
2842	0.6393
2851	0.5725
2860	0.4434
2869	0.3002
2878	0.1811
2887	0.1591
2896	0.1901
2905	0.2114
2914	0.2223
2923	0.1979
2932	0.2109
2941	0.376
2950	0.4098
2959	0.369
2968	0.1218
2977	0.0222
2986	0.1008
2995	0.3182
3004	0.505
3013	0.6051
3022	0.692
3031	0.7436
3040	0.7548
3049	0.7407
3058	0.6771
3067	0.6966
3076	0.5793
3085	0.6895
3094	0.8099
3103	0.8358
3112	0.8437
3121	0.8468
3130	0.8588
3139	0.8668
3148	0.8675
3157	0.8675
3166	0.8684
3175	0.8673
3184	0.8673
3193	0.8674
3202	0.8675
3211	0.8681
3220	0.8692
3229	0.8702
3238	0.8714
3247	0.8729
3256	0.8748
3265	0.8762
3274	0.877
3283	0.8772
3292	0.877
3301	0.8768
3310	0.8765
3319	0.8761
3328	0.8758
3337	0.8753
3346	0.875
3355	0.8745
3364	0.8741
3373	0.8737
3382	0.8733
3391	0.873
3400	0.8728
3409	0.8726
3418	0.8723
3427	0.872
3436	0.8717
3445	0.8708
3454	0.8697
3463	0.8683
3472	0.867
3481	0.8647
3490	0.8627
3499	0.8617
3508	0.8608
3517	0.8618
3526	0.8641
3535	0.8671
3544	0.8708
3553	0.8728
3562	0.8733
3571	0.8735
3580	0.8772
3589	0.8847
3598	0.8745
3607	0.8706
3616	0.8684
3625	0.8639
3634	0.8589
3643	0.86
3652	0.8705
3661	0.8723
3670	0.8721
3679	0.8723
3688	0.8675
3697	0.8673
3706	0.8707
3715	0.8715
3724	0.8729
3733	0.877
3742	0.8806
3751	0.884
3760	0.8843
3769	0.8831
3778	0.8809
3787	0.8803
3796	0.8825
3805	0.8858
3814	0.8926
