Infrared Spectrum: Propionaldehyde, 3-cyano-, diethyl acetal
Formula: C8 H15 N O2
CAS: 18381-45-8
State: LIQUID (NEAT)
Class: COBLENTZ III
Instrument: CARY 90 (GRATING)
Instrument parameters: GRATING CHANGES: 3000, 2000, 1200 CM^-^1
Sampling: TRANSMISSION
Path length: 0.003 CM
Resolution: 2
Origin: WESTERN REGIONAL RES. USDA
1/CM	TRANSMITTANCE
457	0.4104
466	0.4134
475	0.4334
484	0.4735
493	0.4946
502	0.5114
511	0.527
520	0.5424
529	0.5587
538	0.5765
547	0.5906
556	0.5953
565	0.5964
574	0.5934
583	0.5791
592	0.5437
601	0.5513
610	0.6307
619	0.6767
628	0.7056
637	0.7155
646	0.7203
655	0.7154
664	0.7057
673	0.72
682	0.7467
691	0.7625
700	0.7749
709	0.7827
718	0.7938
727	0.7852
736	0.7726
745	0.7584
754	0.7443
763	0.7321
772	0.7119
781	0.6908
790	0.6949
799	0.6641
808	0.6584
817	0.6352
826	0.6367
835	0.5997
844	0.6731
853	0.6576
862	0.5192
871	0.3234
880	0.4236
889	0.5271
898	0.6502
907	0.6727
916	0.6068
925	0.5378
934	0.3915
943	0.1613
952	0.1658
961	0.1537
970	0.2971
979	0.4662
988	0.5004
997	0.3801
1006	0.2576
1015	0.156
1024	0.0752
1033	0.0333
1042	0.0107
1051	0.0038
1060	0.0023
1069	0.0024
1078	0.0042
1087	0.008
1096	0.0128
1105	0.0141
1114	0.0075
1123	0.0039
1132	0.0024
1141	0.0042
1150	0.0183
1159	0.0378
1168	0.047
1177	0.1208
1186	0.2954
1195	0.2738
1204	0.1707
1213	0.2492
1222	0.4168
1231	0.5395
1240	0.4986
1249	0.5182
1258	0.4695
1267	0.4853
1276	0.5177
1285	0.5124
1294	0.4141
1303	0.423
1312	0.4778
1321	0.456
1330	0.4102
1339	0.2559
1348	0.1147
1357	0.1839
1366	0.2266
1375	0.032
1384	0.0561
1393	0.1539
1402	0.2426
1411	0.2865
1420	0.3183
1429	0.188
1438	0.1873
1447	0.077
1456	0.2055
1465	0.3959
1474	0.4794
1483	0.3729
1492	0.6115
1501	0.7424
1510	0.7956
1519	0.8183
1528	0.8422
1537	0.8528
1546	0.862
1555	0.8811
1564	0.8847
1573	0.8831
1582	0.882
1591	0.8777
1600	0.8689
1609	0.8574
1618	0.8448
1627	0.8309
1636	0.8334
1645	0.8503
1654	0.8779
1663	0.8887
1672	0.896
1681	0.9009
1690	0.9005
1699	0.9085
1708	0.8892
1717	0.8948
1726	0.9061
1735	0.91
1744	0.9135
1753	0.9157
1762	0.9183
1771	0.9208
1780	0.9236
1789	0.9237
1798	0.9219
1807	0.9183
1816	0.9132
1825	0.9088
1834	0.9075
1843	0.9063
1852	0.9131
1861	0.9175
1870	0.9161
1879	0.9114
1888	0.9032
1897	0.8954
1906	0.8884
1915	0.8816
1924	0.8747
1933	0.8677
1942	0.8706
1951	0.8798
1960	0.8823
1969	0.8822
1978	0.8824
1987	0.8821
1996	0.8787
2005	0.8216
2014	0.8388
2023	0.848
2032	0.8542
2041	0.8614
2050	0.8692
2059	0.8746
2068	0.8732
2077	0.8682
2086	0.864
2095	0.8661
2104	0.8745
2113	0.8725
2122	0.8773
2131	0.8799
2140	0.8749
2149	0.8692
2158	0.8676
2167	0.8581
2176	0.8509
2185	0.8449
2194	0.8459
2203	0.8512
2212	0.8544
2221	0.8501
2230	0.8033
2239	0.6921
2248	0.2165
2257	0.5253
2266	0.7682
2275	0.829
2284	0.8554
2293	0.8713
2302	0.883
2311	0.8911
2320	0.8969
2329	0.9015
2338	0.906
2347	0.912
2356	0.9238
2365	0.9257
2374	0.9063
2383	0.8947
2392	0.8894
2401	0.887
2410	0.886
2419	0.8859
2428	0.886
2437	0.8864
2446	0.8867
2455	0.8868
2464	0.8869
2473	0.8864
2482	0.886
2491	0.8855
2500	0.8851
2509	0.8847
2518	0.8843
2527	0.8842
2536	0.8842
2545	0.8844
2554	0.8888
2563	0.8854
2572	0.8852
2581	0.88
2590	0.8691
2599	0.8547
2608	0.8376
2617	0.823
2626	0.8188
2635	0.816
2644	0.8049
2653	0.7993
2662	0.8006
2671	0.8028
2680	0.8019
2689	0.7948
2698	0.7832
2707	0.7684
2716	0.7529
2725	0.7365
2734	0.7151
2743	0.6924
2752	0.6657
2761	0.6406
2770	0.6318
2779	0.6254
2788	0.5773
2797	0.541
2806	0.5235
2815	0.5146
2824	0.4752
2833	0.4028
2842	0.3131
2851	0.1735
2860	0.0692
2869	0.032
2878	0.0238
2887	0.0232
2896	0.0275
2905	0.05
2914	0.0622
2923	0.0413
2932	0.0316
2941	0.0453
2950	0.0797
2959	0.0354
2968	0.0045
2977	0.0043
2986	0.081
2995	0.2348
3004	0.4143
3013	0.5459
3022	0.6391
3031	0.6869
3040	0.7215
3049	0.7457
3058	0.766
3067	0.7838
3076	0.7987
3085	0.8112
3094	0.8225
3103	0.8306
3112	0.8372
3121	0.841
3130	0.8448
3139	0.846
3148	0.8473
3157	0.8485
3166	0.8499
3175	0.8521
3184	0.8545
3193	0.8585
3202	0.8652
3211	0.8734
3220	0.8796
3229	0.8842
3238	0.887
3247	0.8897
3256	0.8919
3265	0.894
3274	0.8961
3283	0.898
3292	0.8999
3301	0.9017
3310	0.9032
3319	0.9046
3328	0.9057
3337	0.9062
3346	0.9068
3355	0.9073
3364	0.9078
3373	0.9081
3382	0.9084
3391	0.9082
3400	0.9071
3409	0.906
3418	0.9041
3427	0.9018
3436	0.8996
3445	0.895
3454	0.8903
3463	0.8833
3472	0.8758
3481	0.8657
3490	0.853
3499	0.8387
3508	0.8243
3517	0.8114
3526	0.8017
3535	0.8009
3544	0.8064
3553	0.8132
3562	0.8192
3571	0.8228
3580	0.8256
3589	0.8245
3598	0.8241
3607	0.8244
3616	0.8266
3625	0.8311
3634	0.8365
3643	0.8419
3652	0.8478
3661	0.8568
3670	0.8711
3679	0.8873
3688	0.9003
3697	0.9117
3706	0.9212
3715	0.9276
3724	0.932
3733	0.9338
3742	0.935
3751	0.9324
3760	0.9287
3769	0.925
3778	0.9229
3787	0.9216
3796	0.9226
3805	0.9269
3814	0.9322
3823	0.9371
3832	0.9415
3841	0.9446
3850	0.9477
3859	0.9495
3868	0.9509
3877	0.9501
3886	0.948
3895	0.9451
3904	0.9416
3913	0.9377
3922	0.9334
3931	0.9289
3940	0.9238
3949	0.9189
3958	0.9142
3967	0.9096
3976	0.9057
3985	0.9018
3994	0.8983
