Infrared Spectrum: 1,3,5,-Trimethylcyclohexane
Formula: C 9 H 18
CAS: 1839-63-0
State: gas
Instrument: HP-GC/MS/IRD
Origin: NIST Mass Spectrometry Data Center
1/CM	ABSORBANCE
550	0.000108
562	0.000248
574	0.000176
586	0.000104
598	0.000148
610	0.000124
622	0.000184
634	0.00014
646	9.2e-05
658	0.00016
670	1.2e-05
682	0.000188
694	0.000152
706	0.000144
718	0.000144
730	0.000172
742	0.000152
754	0.00014
766	0.000156
778	0.000136
790	0.000216
802	0.000104
814	0.000136
826	0.000292
838	0.000588
850	0.000688
862	0.000376
874	0.000168
886	0.000128
898	0.00016
910	0.00014
922	0.000236
934	0.00048
946	0.00054
958	0.000236
970	0.000152
982	0.000168
994	0.00026
1006	0.000296
1018	0.000184
1030	0.000152
1042	0.000152
1054	0.000184
1066	0.000128
1078	0.000108
1090	0.000156
1102	0.000244
1114	0.00024
1126	0.000312
1138	0.000152
1150	0.000188
1162	0.000304
1174	0.00074
1186	0.000324
1198	0.0002
1210	0.000188
1222	0.0002
1234	0.000268
1246	0.000508
1258	0.000872
1270	0.000872
1282	0.00048
1294	0.0003
1306	0.000308
1318	0.000504
1330	0.000888
1342	0.001364
1354	0.002368
1366	0.002912
1378	0.002732
1390	0.00168
1402	0.00062
1414	0.000504
1426	0.000748
1438	0.00192
1450	0.004268
1462	0.00568
1474	0.003364
1486	0.001104
1498	0.000464
1510	0.000256
1522	0.000148
1534	0.000144
1546	0.00012
1558	0.000124
1570	0.000132
1582	0.000172
1594	0.000196
1606	0.000224
1618	0.000196
1630	0.000168
1642	0.000124
1654	0.000132
1666	0.000164
1678	0.00016
1690	0.000148
1702	0.000128
1714	8.8e-05
1726	8e-05
1738	8e-05
1750	6e-05
1762	5.6e-05
1774	0.0001
1786	0.000104
1798	9.6e-05
1810	8e-05
1822	6.4e-05
1834	6.8e-05
1846	7.6e-05
1858	4.4e-05
1870	4e-05
1882	6.4e-05
1894	5.2e-05
1906	4.8e-05
1918	4.8e-05
1930	2.4e-05
1942	4.4e-05
1954	1.6e-05
1966	8e-06
1978	4e-05
1990	3.6e-05
2002	1.2e-05
2014	1.6e-05
2026	5.6e-05
2038	2e-05
2050	4e-06
2062	8e-06
2074	1.6e-05
2086	3.6e-05
2098	3.2e-05
2110	4.4e-05
2122	3.2e-05
2134	2.4e-05
2146	3.6e-05
2158	4.8e-05
2170	3.6e-05
2182	7.6e-05
2194	0.0001
2206	9.2e-05
2218	6.8e-05
2230	6.8e-05
2242	4.8e-05
2254	1.6e-05
2266	4e-06
2278	6e-05
2290	7.2e-05
2302	8.4e-05
2314	0.000124
2326	0.000104
2338	5.2e-05
2350	6e-05
2362	6e-05
2374	6.8e-05
2386	0.000112
2398	0.000156
2410	0.000172
2422	0.000196
2434	0.000188
2446	0.000148
2458	0.000132
2470	0.0001
2482	9.2e-05
2494	0.00012
2506	0.000164
2518	0.000136
2530	0.00012
2542	0.000132
2554	0.000112
2566	0.000108
2578	0.000156
2590	0.000324
2602	0.000508
2614	0.000576
2626	0.000528
2638	0.00042
2650	0.000436
2662	0.0004
2674	0.000396
2686	0.000404
2698	0.00054
2710	0.00068
2722	0.000912
2734	0.000976
2746	0.000844
2758	0.000724
2770	0.00078
2782	0.001012
2794	0.001448
2806	0.00188
2818	0.002492
2830	0.006
2842	0.011156
2854	0.009808
2866	0.012264
2878	0.01984
2890	0.025736
2902	0.031212
2914	0.04
2926	0.029168
2938	0.019388
2950	0.028136
2962	0.034816
2974	0.014628
2986	0.002732
2998	0.001204
3010	0.000852
3022	0.0008
3034	0.000824
3046	0.000896
3058	0.000904
3070	0.000916
3082	0.000892
3094	0.000896
3106	0.000812
3118	0.000604
3130	0.000536
3142	0.000448
3154	0.000496
3166	0.000496
3178	0.000508
3190	0.000432
3202	0.00036
3214	0.000296
3226	0.000144
3238	0.000152
3250	0.000128
3262	0.000108
3274	0.00016
3286	0.000132
3298	0.000156
3310	0.000208
3322	0.000208
3334	0.000192
3346	0.000204
3358	0.000188
3370	0.000196
3382	0.000188
3394	0.000128
3406	0.00022
3418	0.000164
3430	0.00016
3442	7.6e-05
3454	8.4e-05
3466	2.8e-05
3478	5.6e-05
3490	5.2e-05
3502	4e-05
3514	7.6e-05
3526	8.4e-05
3538	9.2e-05
3550	8.4e-05
3562	7.6e-05
3574	5.6e-05
3586	6.8e-05
3598	3.2e-05
3610	0.000124
3622	0.0001
3634	8e-05
3646	2.8e-05
3658	5.2e-05
3670	8.4e-05
3682	7.6e-05
3694	0.000112
3706	0.000144
3718	0.000124
3730	0.000124
3742	0.000108
3754	0.000148
3766	0.00016
3778	0.000176
3790	0.000188
3802	0.000112
3814	0.000184
3826	0.000184
3838	0.000192
