Infrared Spectrum: cis,cis,cis-1,2,3-Trimethylcyclohexane
Formula: C 9 H 18
CAS: 1839-88-9
State: gas
Instrument: HP-GC/MS/IRD
Origin: NIST Mass Spectrometry Data Center
1/CM	ABSORBANCE
550	0.0003024
562	0.0001512
574	0.00027
586	0.000486
598	0.0002592
610	0.0001944
622	9.72e-05
634	2.7e-05
646	0.0001026
658	4.86e-05
670	9.18e-05
682	0.000108
694	0.0001404
706	0.000108
718	0.0001404
730	0.0001782
742	8.64e-05
754	0.000108
766	0.0001296
778	9.18e-05
790	8.64e-05
802	0.0001458
814	0.0001998
826	0.0003834
838	0.000405
850	0.0002862
862	0.0001836
874	0.0002322
886	0.0002484
898	0.0002106
910	0.0002538
922	0.0004212
934	0.0005562
946	0.0007074
958	0.000729
970	0.0007722
982	0.0006804
994	0.000594
1006	0.0005994
1018	0.000891
1030	0.0009288
1042	0.0012312
1054	0.0012852
1066	0.0006426
1078	0.0002646
1090	0.000216
1102	0.000243
1114	0.0003456
1126	0.0002862
1138	0.0003132
1150	0.0008748
1162	0.0010746
1174	0.0005778
1186	0.000297
1198	0.0002268
1210	0.0002268
1222	0.0002862
1234	0.0003456
1246	0.0003834
1258	0.000405
1270	0.0002538
1282	0.0002754
1294	0.000378
1306	0.0005454
1318	0.0006156
1330	0.0006534
1342	0.0007344
1354	0.001296
1366	0.0026028
1378	0.0048438
1390	0.0047142
1402	0.0018144
1414	0.0008424
1426	0.0013122
1438	0.0031212
1450	0.0055404
1462	0.0063828
1474	0.0042714
1486	0.0017334
1498	0.0006696
1510	0.0004104
1522	0.0002538
1534	0.0002052
1546	0.0001782
1558	0.0001674
1570	0.000216
1582	0.0002214
1594	0.000243
1606	0.0002484
1618	0.0002268
1630	0.0002052
1642	0.0001728
1654	0.0001404
1666	0.000162
1678	0.0001458
1690	0.0001512
1702	0.0001242
1714	9.72e-05
1726	8.1e-05
1738	9.18e-05
1750	8.1e-05
1762	6.48e-05
1774	7.56e-05
1786	6.48e-05
1798	5.4e-05
1810	4.86e-05
1822	3.78e-05
1834	4.32e-05
1846	7.02e-05
1858	3.78e-05
1870	3.24e-05
1882	4.86e-05
1894	2.7e-05
1906	3.78e-05
1918	1.62e-05
1930	3.24e-05
1942	2.16e-05
1954	2.16e-05
1966	2.16e-05
1978	2.16e-05
1990	2.16e-05
2002	2.7e-05
2014	1.62e-05
2026	2.16e-05
2038	1.62e-05
2050	1.62e-05
2062	1.62e-05
2074	1.08e-05
2086	1.08e-05
2098	3.24e-05
2110	1.62e-05
2122	2.16e-05
2134	4.32e-05
2146	2.7e-05
2158	3.24e-05
2170	3.24e-05
2182	3.24e-05
2194	3.78e-05
2206	1.62e-05
2218	3.24e-05
2230	5.4e-06
2242	3.24e-05
2254	2.16e-05
2266	4.86e-05
2278	6.48e-05
2290	6.48e-05
2302	0.000108
2314	9.18e-05
2326	0.000108
2338	0.0001188
2350	0.0001026
2362	0.0001188
2374	0.0001512
2386	0.0001458
2398	0.0001404
2410	0.0001026
2422	0.0001026
2434	0.0001242
2446	0.0001404
2458	0.0001458
2470	0.0001728
2482	0.0001728
2494	0.0001944
2506	0.000162
2518	0.0001674
2530	0.0001674
2542	0.0002268
2554	0.0002322
2566	0.0002484
2578	0.0003294
2590	0.000459
2602	0.0005562
2614	0.0006588
2626	0.0007074
2638	0.0007452
2650	0.0008262
2662	0.0008964
2674	0.000864
2686	0.0007776
2698	0.0007506
2710	0.0008532
2722	0.0010098
2734	0.0010368
2746	0.0009396
2758	0.0009018
2770	0.0009774
2782	0.0010746
2794	0.0011988
2806	0.0015012
2818	0.0020358
2830	0.002862
2842	0.005643
2854	0.0159462
2866	0.0281178
2878	0.0322974
2890	0.0233712
2902	0.0189972
2914	0.0332316
2926	0.0538704
2938	0.0444258
2950	0.0345114
2962	0.0370278
2974	0.0259902
2986	0.012042
2998	0.0046764
3010	0.0023652
3022	0.0016038
3034	0.001296
3046	0.0011988
3058	0.0011664
3070	0.0011502
3082	0.0011394
3094	0.001161
3106	0.0010476
3118	0.0008748
3130	0.000729
3142	0.000594
3154	0.0006048
3166	0.000594
3178	0.0005832
3190	0.0004698
3202	0.0003942
3214	0.0002592
3226	0.0002646
3238	0.0002592
3250	0.0002052
3262	0.0001782
3274	0.0001512
3286	0.0001674
3298	0.000135
3310	0.0001242
3322	0.0001296
3334	0.0001188
3346	9.18e-05
3358	9.72e-05
3370	7.02e-05
3382	8.64e-05
3394	6.48e-05
3406	2.7e-05
3418	4.86e-05
3430	3.24e-05
3442	8.64e-05
3454	0.0001026
3466	0.0001458
3478	9.18e-05
3490	7.02e-05
3502	6.48e-05
3514	5.4e-05
3526	3.24e-05
3538	5.94e-05
3550	2.16e-05
3562	3.78e-05
3574	2.16e-05
3586	6.48e-05
3598	5.94e-05
3610	3.24e-05
3622	5.4e-05
3634	4.32e-05
3646	5.94e-05
3658	5.94e-05
3670	7.56e-05
3682	5.4e-05
3694	6.48e-05
3706	6.48e-05
3718	8.64e-05
3730	5.4e-05
3742	9.72e-05
3754	7.56e-05
3766	0.000108
3778	5.4e-05
3790	7.56e-05
3802	9.18e-05
3814	0.0001404
3826	9.72e-05
3838	0.0001242
