Infrared Spectrum: DI-Iso-BUTYLDICHLOROSILANE
Formula: C8 H18 Cl2 Si
CAS: 18395-92-1
State: SOLUTION (10% CCl4 FOR 3800-1300, 3% CS2 FOR 1300-650, AND 10% CCl4 FOR 650-250)
Class: COBLENTZ III
Instrument: PERKIN-ELMER 521 (GRATING)
Instrument parameters: FILTERS AT 3150, 2500, 2000, 1150, 700, 410. GRATING CHANGES: 2000, 630
Path length: 0.011 CM, 0.012 CM, AND 0.009 CM
Resolution: 2
Origin: DOW CORNING CORP.
1/CM	TRANSMITTANCE
236	0.9228
245	0.919
254	0.9147
263	0.9116
272	0.9092
281	0.9086
290	0.9097
299	0.9139
308	0.9173
317	0.9203
326	0.921
335	0.9164
344	0.9057
353	0.8867
362	0.8342
371	0.7867
380	0.8817
389	0.8936
398	0.882
407	0.8782
416	0.8691
425	0.8819
434	0.873
443	0.8267
452	0.7593
461	0.7825
470	0.7985
479	0.7642
488	0.5687
497	0.3652
506	0.4275
515	0.5179
524	0.5692
533	0.4129
542	0.1288
551	0.0977
560	0.2658
569	0.5114
578	0.6457
587	0.8487
596	0.8935
605	0.9141
614	0.9175
623	0.9145
632	0.9306
641	0.9636
650	0.9487
659	0.9369
668	0.9354
677	0.9104
686	0.8547
695	0.8589
704	0.8571
713	0.8256
722	0.7934
731	0.7756
740	0.7131
749	0.676
758	0.6147
767	0.58
776	0.5723
785	0.8368
794	0.8936
803	0.8946
812	0.8855
821	0.8504
830	0.7837
839	0.7018
848	0.8753
857	0.8869
866	0.8981
875	0.9136
884	0.9215
893	0.9236
902	0.9233
911	0.9212
920	0.92
929	0.9206
938	0.9183
947	0.8978
956	0.8948
965	0.9116
974	0.9198
983	0.9172
992	0.9147
1001	0.9113
1010	0.902
1019	0.8884
1028	0.8502
1037	0.7409
1046	0.7598
1055	0.8344
1064	0.8279
1073	0.8037
1082	0.7452
1091	0.6471
1100	0.6769
1109	0.8381
1118	0.8702
1127	0.8892
1136	0.9028
1145	0.9002
1154	0.8675
1163	0.7833
1172	0.8923
1181	0.9084
1190	0.904
1199	0.8925
1208	0.8713
1217	0.7867
1226	0.7664
1235	0.8882
1244	0.9166
1253	0.9185
1262	0.9199
1271	0.9205
1280	0.921
1289	0.9213
1298	0.8913
1307	0.8707
1316	0.8523
1325	0.7095
1334	0.5016
1343	0.7594
1352	0.825
1361	0.7843
1370	0.2952
1379	0.6847
1388	0.5445
1397	0.3955
1406	0.7432
1415	0.8135
1424	0.8178
1433	0.8055
1442	0.7655
1451	0.6141
1460	0.4673
1469	0.2008
1478	0.697
1487	0.8021
1496	0.8448
1505	0.8645
1514	0.876
1523	0.8829
1532	0.8878
1541	0.889
1550	0.8893
1559	0.89
1568	0.8918
1577	0.8935
1586	0.8956
1595	0.8977
1604	0.8979
1613	0.8955
1622	0.8933
1631	0.8918
1640	0.8917
1649	0.8915
1658	0.8913
1667	0.8915
1676	0.8915
1685	0.891
1694	0.8901
1703	0.8908
1712	0.8917
1721	0.8946
1730	0.8959
1739	0.8968
1748	0.8975
1757	0.8977
1766	0.8977
1775	0.8973
1784	0.8967
1793	0.8968
1802	0.8969
1811	0.8972
1820	0.8975
1829	0.8971
1838	0.8966
1847	0.8963
1856	0.8951
1865	0.894
1874	0.8925
1883	0.8909
1892	0.8893
1901	0.888
1910	0.8886
1919	0.8894
1928	0.8903
1937	0.8906
1946	0.8913
1955	0.8919
1964	0.8929
1973	0.894
1982	0.8943
1991	0.8943
2000	0.8978
2009	0.8998
2018	0.9
2027	0.8993
2036	0.8981
2045	0.8966
2054	0.8963
2063	0.8959
2072	0.8961
2081	0.8956
2090	0.8953
2099	0.8943
2108	0.894
2117	0.894
2126	0.8934
2135	0.8927
2144	0.892
2153	0.8913
2162	0.8907
2171	0.8901
2180	0.8902
2189	0.8904
2198	0.8905
2207	0.8908
2216	0.8911
2225	0.8915
2234	0.8924
2243	0.8932
2252	0.8936
2261	0.8938
2270	0.8935
2279	0.8916
2288	0.8911
2297	0.8906
2306	0.8911
2315	0.8921
2324	0.8932
2333	0.8937
2342	0.8937
2351	0.8926
2360	0.8905
2369	0.8889
2378	0.8875
2387	0.8863
2396	0.8862
2405	0.8861
2414	0.886
2423	0.8858
2432	0.8856
2441	0.8857
2450	0.8859
2459	0.8852
2468	0.8836
2477	0.8821
2486	0.8807
2495	0.881
2504	0.8827
2513	0.884
2522	0.8838
2531	0.8823
2540	0.8803
2549	0.8781
2558	0.8752
2567	0.8732
2576	0.8837
2585	0.8795
2594	0.8743
2603	0.8684
2612	0.8618
2621	0.8471
2630	0.8344
2639	0.8476
2648	0.8668
2657	0.8662
2666	0.8633
2675	0.8678
2684	0.8672
2693	0.8634
2702	0.857
2711	0.8495
2720	0.8361
2729	0.824
2738	0.8297
2747	0.843
2756	0.8368
2765	0.8208
2774	0.8173
2783	0.8183
2792	0.8169
2801	0.8107
2810	0.7969
2819	0.7782
2828	0.7658
2837	0.7581
2846	0.7256
2855	0.6708
2864	0.6206
2873	0.2057
2882	0.169
2891	0.2981
2900	0.3056
2909	0.2601
2918	0.2352
2927	0.2344
2936	0.1636
2945	0.2007
2954	0.1799
2963	0.024
2972	0.0636
2981	0.1521
2990	0.3855
2999	0.6013
3008	0.7182
3017	0.7781
3026	0.8051
3035	0.8243
3044	0.8335
3053	0.8411
3062	0.8488
3071	0.8535
3080	0.8566
3089	0.8585
3098	0.8569
3107	0.8596
3116	0.8586
3125	0.8574
3134	0.8612
3143	0.8614
3152	0.8585
3161	0.8574
3170	0.8547
3179	0.8514
3188	0.8483
3197	0.8478
3206	0.8492
3215	0.8528
3224	0.8562
3233	0.8628
3242	0.8694
3251	0.8721
3260	0.8736
3269	0.8747
3278	0.8752
3287	0.8754
3296	0.8754
3305	0.8754
3314	0.8754
3323	0.8743
3332	0.873
3341	0.8716
3350	0.8703
3359	0.8689
3368	0.8682
3377	0.8675
3386	0.8688
3395	0.8706
3404	0.8727
3413	0.8754
3422	0.8779
3431	0.8793
3440	0.8807
3449	0.8815
3458	0.8822
3467	0.8828
3476	0.8836
3485	0.8844
3494	0.8852
3503	0.8856
3512	0.8859
3521	0.8862
3530	0.8856
3539	0.8849
3548	0.8842
3557	0.8835
3566	0.8828
3575	0.8822
3584	0.8818
3593	0.8813
3602	0.8809
3611	0.8802
3620	0.8795
3629	0.8787
3638	0.8788
3647	0.8791
3656	0.8797
3665	0.8805
3674	0.8797
3683	0.8804
3692	0.881
3701	0.8766
3710	0.8747
3719	0.8762
3728	0.879
3737	0.8816
3746	0.8838
3755	0.8856
3764	0.8869
3773	0.8858
3782	0.8839
3791	0.8819
3800	0.88
3809	0.8778
