Infrared Spectrum: Di-tert-butyldichlorosilane
Formula: C 8 H 18 Cl 2 Si
CAS: 18395-90-9
State: gas
Origin: EPA-IR VAPOR PHASE LIBRARY
1/CM	ABSORBANCE
549.8	0.031109
559.445	0.099469
569.09	0.251339
578.734	0.246199
588.379	0.076769
598.024	0.087599
607.669	0.106939
617.313	0.057849
626.958	0.052719
636.603	0.068969
646.248	0.037339
655.893	0.011179
665.537	0.005209
675.182	0.003969
684.827	0.003159
694.472	0.002759
704.116	0.002889
713.761	0.002549
723.406	0.001949
733.051	0.001809
742.695	0.001669
752.34	0.001869
761.985	0.002489
771.63	0.002789
781.275	0.004489
790.919	0.008169
800.564	0.022809
810.209	0.061549
819.854	0.080209
829.498	0.032329
839.143	0.007819
848.788	0.003429
858.433	0.002879
868.078	0.003409
877.722	0.003739
887.367	0.003899
897.012	0.003819
906.657	0.004329
916.301	0.006689
925.946	0.012879
935.591	0.018739
945.236	0.011729
954.88	0.005089
964.525	0.003519
974.17	0.002739
983.815	0.002739
993.46	0.004519
1003.1	0.010939
1012.75	0.014039
1022.39	0.005759
1032.04	0.002419
1041.68	0.0015523
1051.33	0.001769
1060.97	0.001659
1070.62	0.0014799
1080.26	0.002299
1089.91	0.0010847
1099.55	0.001559
1109.2	0.0014127
1118.84	0.000245
1128.49	0.0012818
1138.13	0.0015226
1147.78	0.0011623
1157.42	0.0013432
1167.07	0.0014478
1176.71	0.0010765
1186.36	0.001639
1196	0.004109
1205.64	0.004479
1215.29	0.003559
1224.93	0.0013962
1234.58	0.001559
1244.22	0.0013732
1253.87	0.0010523
1263.51	0.0008962
1273.16	0.0007377
1282.8	0.0008888
1292.45	0.0013458
1302.09	0.0012978
1311.74	0.001839
1321.38	0.001869
1331.03	0.002109
1340.67	0.002629
1350.32	0.004549
1359.96	0.014539
1369.61	0.036029
1379.25	0.028599
1388.9	0.022899
1398.54	0.029389
1408.18	0.014919
1417.83	0.007649
1427.47	0.007079
1437.12	0.007959
1446.76	0.012229
1456.41	0.025479
1466.05	0.062739
1475.7	0.081989
1485.34	0.041919
1494.99	0.011979
1504.63	0.006699
1514.28	0.004709
1523.92	0.003589
1533.57	0.002679
1543.21	0.002219
1552.86	0.001929
1562.5	0.001789
1572.15	0.001649
1581.79	0.001599
1591.44	0.001569
1601.08	0.0015304
1610.73	0.0014509
1620.37	0.001639
1630.01	0.001719
1639.66	0.001569
1649.3	0.001569
1658.95	0.0013699
1668.59	0.0015213
1678.24	0.0014436
1687.88	0.001799
1697.53	0.001929
1707.17	0.001759
1716.82	0.0011802
1726.46	0.0009704
1736.11	0.0009806
1745.75	0.0010081
1755.4	0.0010195
1765.04	0.0008652
1774.69	0.0012145
1784.33	0.0013739
1793.98	0.0014877
1803.62	0.001599
1813.27	0.001739
1822.91	0.001589
1832.55	0.0015196
1842.2	0.0013044
1851.84	0.0011586
1861.49	0.0010204
1871.13	0.0008123
1880.78	0.0008429
1890.42	0.0008698
1900.07	0.0008099
1909.71	0.0007497
1919.36	0.000755
1929	0.0006862
1938.65	0.0009543
1948.29	0.0008315
1957.94	0.0007998
1967.58	0.0009085
1977.23	0.000922
1986.87	0.0008777
1996.52	0.0007615
2006.16	0.0008991
2015.81	0.0009267
2025.45	0.0006755
2035.1	0.000715
2044.74	0.000824
2054.38	0.0006788
2064.03	0.00060169
2073.67	0.00062443
2083.32	0.00045
2092.96	0.0006972
2102.61	0.0006978
2112.25	0.0007277
2121.9	0.0007445
2131.54	0.0008156
2141.19	0.0007549
2150.83	0.00064686
2160.48	0.0010442
2170.12	0.0010693
2179.77	0.0013111
2189.41	0.0012999
2199.06	0.000792
2208.7	0.00064181
2218.35	0.0007167
2227.99	0.000836
2237.64	0.0007643
2247.28	0.00059604
2256.92	0.0005324
2266.57	0.0005441
2276.21	0.0007673
2285.86	0.0009178
2295.5	0.0011924
2305.15	0.0011646
2314.79	0.0009818
2324.44	0.0008732
2334.08	0.0006617
2343.73	0.0008087
2353.37	0.0009054
2363.02	0.0011257
2372.66	0.0012453
2382.31	0.001316
2391.95	0.0013791
2401.6	0.0011374
2411.24	0.0012705
2420.89	0.0012553
2430.53	0.0010567
2440.18	0.0010599
2449.82	0.0009962
2459.47	0.0010216
2469.11	0.001072
2478.75	0.0011529
2488.4	0.001069
2498.04	0.0008464
2507.69	0.0009932
2517.33	0.0010202
2526.98	0.001105
2536.62	0.0010829
2546.27	0.0013624
2555.91	0.0014226
2565.56	0.0014864
2575.2	0.0015488
2584.85	0.0013946
2594.49	0.001333
2604.14	0.0013601
2613.78	0.0012437
2623.43	0.001729
2633.07	0.002049
2642.72	0.002269
2652.36	0.002159
2662.01	0.001869
2671.65	0.001899
2681.29	0.001939
2690.94	0.001859
2700.58	0.002329
2710.23	0.003099
2719.87	0.004879
2729.52	0.006149
2739.16	0.004479
2748.81	0.004309
2758.45	0.004709
2768.1	0.004539
2777.74	0.005209
2787.39	0.006739
2797.03	0.007429
2806.68	0.007759
2816.32	0.008769
2825.97	0.010039
2835.61	0.012939
2845.26	0.018039
2854.9	0.033579
2864.55	0.077589
2874.19	0.133739
2883.84	0.130559
2893.48	0.109439
2903.12	0.119159
2912.77	0.111319
2922.41	0.091419
2932.06	0.108809
2941.7	0.159119
2951.35	0.169779
2960.99	0.155459
2970.64	0.146449
2980.28	0.145539
2989.93	0.068329
2999.57	0.024829
3009.22	0.014469
3018.86	0.010999
3028.51	0.007749
3038.15	0.006139
3047.8	0.004639
3057.44	0.004069
3067.09	0.004019
3076.73	0.003729
3086.38	0.003749
3096.02	0.003779
3105.67	0.004139
3115.31	0.004029
3124.95	0.004109
3134.6	0.003909
3144.24	0.003589
3153.89	0.004189
3163.53	0.004219
3173.18	0.004409
3182.82	0.004439
3192.47	0.004229
3202.11	0.003599
3211.76	0.003559
3221.4	0.002969
3231.05	0.002879
3240.69	0.002669
3250.34	0.002459
3259.98	0.002009
3269.63	0.001819
3279.27	0.0014034
3288.92	0.0013111
3298.56	0.0013714
3308.21	0.001181
3317.85	0.0010024
3327.49	0.0013689
3337.14	0.0013041
3346.78	0.0015385
3356.43	0.001809
3366.07	0.002119
3375.72	0.001939
3385.36	0.001589
3395.01	0.0015384
3404.65	0.0013573
3414.3	0.000837
3423.94	0.0009316
3433.59	0.0009269
3443.23	0.0008694
3452.88	0.0012238
3462.52	0.0008924
3472.17	0.0008437
3481.81	0.0007841
3491.46	0.0008481
3501.1	0.0008114
3510.75	0.0007973
3520.39	0.0008345
3530.04	0.00065627
3539.68	0.0006473
3549.32	0.0007566
3558.97	0.0007582
3568.61	0.0007443
3578.26	0.0008021
3587.9	0.0007683
3597.55	0.000439
3607.19	0.0008356
3616.84	0.00064132
3626.48	0.0005002
3636.13	0.0004814
3645.77	0.0007738
3655.42	0.0008897
3665.06	0.000889
3674.71	0.0006886
3684.35	0.00059624
3694	0.00062684
3703.64	0.0008369
3713.29	0.000662
3722.93	0.0010922
3732.58	0.0006404
3742.22	0.0008512
3751.86	0.0009661
3761.51	0.00063464
3771.15	0.0011611
3780.8	0.0010373
3790.44	0.0010559
3800.09	0.0011451
3809.73	0.001286
3819.38	0.0009492
3829.02	0.0014495
3838.67	0.0011836
3848.31	0.0013891
3857.96	0.0010109
3867.6	0.0011322
3877.25	0.0011133
3886.89	0.0011629
3896.54	0.0012019
3906.18	0.0011542
3915.83	0.0009879
3925.47	0.0011664
3935.12	0.0007325
3944.76	0.000708
3954.41	0.0009299
3964.05	0.0008277
3973.69	0.0008921
3983.34	0.0007599
3992.98	0.000458
