Infrared Spectrum: ADENINE, 2-CHLORO-
Formula: C5 H4 Cl N5
CAS: 1839-18-5
State: SOLID (KBr DISC)
Class: COBLENTZ III
Instrument: PERKIN-ELMER 221 (GRATING)
Instrument parameters: FILTER AT 980 CM^-^1. GRATING 4000-1428 CM^-^1, NaCl PRISM 1428-650 CM^-^1
Sampling: TRANSMISSION
Resolution: 2
Origin: SOUTHERN RESEARCH INSTITUTE
1/CM	TRANSMITTANCE
597.925	0.6
606.93	0.635
615.935	0.5971
624.94	0.5257
633.946	0.6692
642.951	0.8381
651.956	0.8345
660.961	0.8034
669.966	0.7229
678.971	0.6217
687.976	0.8097
696.982	0.8654
705.987	0.8703
714.992	0.868
723.997	0.875
733.002	0.8843
742.007	0.884
751.013	0.883
760.018	0.8711
769.023	0.8078
778.028	0.6189
787.033	0.6793
796.038	0.796
805.043	0.8003
814.049	0.7684
823.054	0.7279
832.059	0.724
841.064	0.748
850.069	0.7904
859.074	0.7478
868.079	0.8497
877.085	0.8702
886.09	0.873
895.095	0.871
904.1	0.8659
913.105	0.852
922.11	0.8002
931.116	0.6301
940.121	0.4341
949.126	0.5645
958.131	0.3561
967.136	0.8459
976.141	0.8796
985.146	0.8885
994.152	0.894
1003.16	0.8901
1012.16	0.883
1021.17	0.8777
1030.17	0.8672
1039.18	0.8594
1048.18	0.8537
1057.19	0.8373
1066.19	0.847
1075.2	0.847
1084.2	0.8322
1093.21	0.8016
1102.21	0.715
1111.22	0.7529
1120.22	0.8
1129.23	0.7974
1138.23	0.7746
1147.24	0.65
1156.24	0.7676
1165.25	0.79
1174.25	0.7867
1183.26	0.778
1192.26	0.7713
1201.27	0.7548
1210.28	0.7365
1219.28	0.7078
1228.29	0.6289
1237.29	0.4052
1246.3	0.4723
1255.3	0.4085
1264.31	0.4429
1273.31	0.6303
1282.32	0.6904
1291.32	0.5919
1300.33	0.3098
1309.33	0.1895
1318.34	0.4617
1327.34	0.6637
1336.35	0.6768
1345.35	0.5557
1354.36	0.3766
1363.36	0.5213
1372.37	0.7322
1381.37	0.756
1390.38	0.7431
1399.38	0.6672
1408.39	0.724
1417.39	0.5669
1426.4	0.6817
1435.4	0.7571
1444.41	0.796
1453.41	0.7741
1462.42	0.7169
1471.42	0.6849
1480.43	0.7917
1489.43	0.8097
1498.44	0.7994
1507.45	0.7862
1516.45	0.836
1525.46	0.8268
1534.46	0.8037
1543.47	0.773
1552.47	0.7207
1561.48	0.6568
1570.48	0.598
1579.49	0.4173
1588.49	0.2
1597.5	0.105
1606.5	0.0784
1615.51	0.2939
1624.51	0.463
1633.52	0.5723
1642.52	0.5222
1651.53	0.4813
1660.53	0.4792
1669.54	0.3627
1678.54	0.1307
1687.55	0.1531
1696.55	0.4566
1705.56	0.6686
1714.56	0.7131
1723.57	0.6987
1732.57	0.842
1741.58	0.8893
1750.58	0.9104
1759.59	0.9156
1768.59	0.9236
1777.6	0.9275
1786.6	0.9309
1795.61	0.9334
1804.61	0.9376
1813.62	0.937
1822.63	0.935
1831.63	0.9386
1840.64	0.941
1849.64	0.941
1858.65	0.941
1867.65	0.941
1876.66	0.9381
1885.66	0.9353
1894.67	0.932
1903.67	0.93
1912.68	0.93
1921.68	0.93
1930.69	0.93
1939.69	0.93
1948.7	0.928
1957.7	0.9246
1966.71	0.9207
1975.71	0.9175
1984.72	0.912
1993.72	0.9087
2002.73	0.907
2011.73	0.912
2020.74	0.915
2029.74	0.915
2038.75	0.914
2047.75	0.912
2056.76	0.914
2065.76	0.91
2074.77	0.9069
2083.77	0.9029
2092.78	0.9029
2101.78	0.9
2110.79	0.896
2119.8	0.896
2128.8	0.896
2137.81	0.8928
2146.81	0.889
2155.82	0.8889
2164.82	0.8879
2173.83	0.886
2182.83	0.884
2191.84	0.884
2200.84	0.884
2209.85	0.882
2218.85	0.8789
2227.86	0.877
2236.86	0.873
2245.87	0.8699
2254.87	0.8637
2263.88	0.8609
2272.88	0.86
2281.89	0.857
2290.89	0.8538
2299.9	0.848
2308.9	0.846
2317.91	0.842
2326.91	0.8316
2335.92	0.8299
2344.92	0.828
2353.93	0.8249
2362.93	0.82
2371.94	0.818
2380.94	0.816
2389.95	0.813
2398.95	0.8068
2407.96	0.802
2416.97	0.801
2425.97	0.8
2434.98	0.797
2443.98	0.795
2452.99	0.7929
2461.99	0.7767
2471	0.7678
2480	0.7628
2489.01	0.7549
2498.01	0.7334
2507.02	0.7136
2516.02	0.71
2525.03	0.709
2534.03	0.7112
2543.04	0.711
2552.04	0.705
2561.05	0.6959
2570.05	0.687
2579.06	0.683
2588.06	0.685
2597.07	0.6786
2606.07	0.6628
2615.08	0.6549
2624.08	0.649
2633.09	0.6446
2642.09	0.627
2651.1	0.6058
2660.1	0.586
2669.11	0.574
2678.11	0.5729
2687.12	0.569
2696.12	0.5708
2705.13	0.5677
2714.14	0.5419
2723.14	0.531
2732.15	0.528
2741.15	0.5239
2750.16	0.5126
2759.16	0.496
2768.17	0.4777
2777.17	0.4626
2786.18	0.4489
2795.18	0.446
2804.19	0.455
2813.19	0.4848
2822.2	0.5103
2831.2	0.5283
2840.21	0.532
2849.21	0.5298
2858.22	0.5229
2867.22	0.518
2876.23	0.509
2885.23	0.5034
2894.24	0.4829
2903.24	0.48
2912.25	0.473
2921.25	0.468
2930.26	0.4549
2939.26	0.4366
2948.27	0.4138
2957.27	0.3977
2966.28	0.393
2975.28	0.3962
2984.29	0.4273
2993.29	0.466
3002.3	0.4669
3011.3	0.4498
3020.31	0.4064
3029.32	0.3724
3038.32	0.3549
3047.33	0.3549
3056.33	0.35
3065.34	0.3435
3074.34	0.3354
3083.35	0.3209
3092.35	0.311
3101.36	0.2998
3110.36	0.2836
3119.37	0.2564
3128.37	0.2245
3137.38	0.217
3146.38	0.1913
3155.39	0.166
3164.39	0.1832
3173.4	0.2161
3182.4	0.2566
3191.41	0.2996
3200.41	0.3581
3209.42	0.4094
3218.42	0.4497
3227.43	0.4781
3236.43	0.5095
3245.44	0.5169
3254.44	0.5139
3263.45	0.516
3272.45	0.517
3281.46	0.512
3290.46	0.498
3299.47	0.4684
3308.47	0.4211
3317.48	0.3522
3326.49	0.2533
3335.49	0.2161
3344.5	0.2551
3353.5	0.3141
3362.51	0.3727
3371.51	0.4832
3380.52	0.5681
3389.52	0.6176
3398.53	0.6426
3407.53	0.6565
3416.54	0.6761
3425.54	0.686
3434.55	0.7001
3443.55	0.7101
3452.56	0.7221
3461.56	0.7292
3470.57	0.733
3479.57	0.734
3488.58	0.736
3497.58	0.7457
3506.59	0.7664
3515.59	0.7833
3524.6	0.791
3533.6	0.7998
3542.61	0.8022
3551.61	0.8101
3560.62	0.818
3569.62	0.82
3578.63	0.8291
3587.63	0.836
3596.64	0.8358
3605.64	0.8538
3614.65	0.8601
3623.66	0.862
3632.66	0.8663
3641.67	0.8745
3650.67	0.8829
3659.68	0.8821
3668.68	0.886
3677.69	0.883
3686.69	0.883
3695.7	0.886
3704.7	0.8842
3713.71	0.8879
3722.71	0.886
3731.72	0.888
3740.72	0.884
3749.73	0.884
3758.73	0.884
3767.74	0.884
3776.74	0.883
3785.75	0.882
3794.75	0.882
3803.76	0.8789
3812.76	0.8779
3821.77	0.877
3830.77	0.877
3839.78	0.877
3848.78	0.877
3857.79	0.8739
3866.79	0.873
3875.8	0.871
3884.8	0.8709
3893.81	0.87
3902.81	0.869
3911.82	0.869
3920.82	0.869
3929.83	0.868
3938.84	0.866
3947.84	0.862
3956.85	0.864
3965.85	0.861
3974.86	0.862
3983.86	0.86
3992.87	0.857
4001.87	0.856
