Infrared Spectrum: 3-(Trifluoromethyl)phenyl isothiocyanate
Formula: C 8 H 4 F 3 N S
CAS: 1840-19-3
State: gas
Origin: EPA-IR VAPOR PHASE LIBRARY
1/CM	ABSORBANCE
549.8	0.019984
559.445	0.018504
569.09	0.016424
578.734	0.012694
588.379	0.013514
598.024	0.009644
607.669	0.006224
617.313	0.004794
626.958	0.004154
636.603	0.005234
646.248	0.010074
655.893	0.020454
665.537	0.015804
675.182	0.017594
684.827	0.032604
694.472	0.056794
704.116	0.057024
713.761	0.062514
723.406	0.012234
733.051	0.002944
742.695	0.003074
752.34	0.003354
761.985	0.003304
771.63	0.006604
781.275	0.028044
790.919	0.076104
800.564	0.061904
810.209	0.016544
819.854	0.006694
829.498	0.004084
839.143	0.004024
848.788	0.003464
858.433	0.002504
868.078	0.003404
877.722	0.010384
887.367	0.028134
897.012	0.026694
906.657	0.010944
916.301	0.006024
925.946	0.005074
935.591	0.005644
945.236	0.005984
954.88	0.008924
964.525	0.013474
974.17	0.013834
983.815	0.008854
993.46	0.006044
1003.1	0.005764
1012.75	0.005054
1022.39	0.004654
1032.04	0.004164
1041.68	0.005394
1051.33	0.015654
1060.97	0.048924
1070.62	0.061314
1080.26	0.050084
1089.91	0.051754
1099.55	0.025034
1109.2	0.014104
1118.84	0.022004
1128.49	0.047694
1138.13	0.124954
1147.78	0.275464
1157.42	0.307594
1167.07	0.165074
1176.71	0.241214
1186.36	0.206804
1196	0.061304
1205.64	0.027204
1215.29	0.031084
1224.93	0.072464
1234.58	0.093244
1244.22	0.045094
1253.87	0.019594
1263.51	0.019334
1273.16	0.027744
1282.8	0.028554
1292.45	0.029364
1302.09	0.050464
1311.74	0.091984
1321.38	0.284324
1331.03	0.495594
1340.67	0.157724
1350.32	0.032594
1359.96	0.013974
1369.61	0.007524
1379.25	0.005774
1388.9	0.006114
1398.54	0.007574
1408.18	0.013034
1417.83	0.022794
1427.47	0.024894
1437.12	0.049724
1446.76	0.091544
1456.41	0.039134
1466.05	0.014314
1475.7	0.017814
1485.34	0.028024
1494.99	0.023334
1504.63	0.008824
1514.28	0.004204
1523.92	0.003274
1533.57	0.003324
1543.21	0.003894
1552.86	0.004714
1562.5	0.007084
1572.15	0.014254
1581.79	0.032614
1591.44	0.045624
1601.08	0.040654
1610.73	0.045854
1620.37	0.027274
1630.01	0.010134
1639.66	0.006254
1649.3	0.005024
1658.95	0.004764
1668.59	0.004604
1678.24	0.004074
1687.88	0.004014
1697.53	0.005604
1707.17	0.004854
1716.82	0.002794
1726.46	0.002404
1736.11	0.002634
1745.75	0.003334
1755.4	0.004524
1765.04	0.006384
1774.69	0.007404
1784.33	0.006654
1793.98	0.005374
1803.62	0.005604
1813.27	0.006744
1822.91	0.005804
1832.55	0.004174
1842.2	0.004254
1851.84	0.004894
1861.49	0.006134
1871.13	0.008484
1880.78	0.012024
1890.42	0.013194
1900.07	0.017184
1909.71	0.024514
1919.36	0.035734
1929	0.051794
1938.65	0.070484
1948.29	0.087104
1957.94	0.102674
1967.58	0.129814
1977.23	0.172434
1986.87	0.228044
1996.52	0.292944
2006.16	0.353774
2015.81	0.418814
2025.45	0.530554
2035.1	0.609174
2044.74	0.445604
2054.38	0.278174
2064.03	0.252204
2073.67	0.324124
2083.32	0.368184
2092.96	0.308304
2102.61	0.209754
2112.25	0.156484
2121.9	0.132304
2131.54	0.108274
2141.19	0.086194
2150.83	0.064344
2160.48	0.047414
2170.12	0.036944
2179.77	0.031434
2189.41	0.031784
2199.06	0.033674
2208.7	0.029204
2218.35	0.018904
2227.99	0.012274
2237.64	0.009774
2247.28	0.008804
2256.92	0.007484
2266.57	0.005884
2276.21	0.004994
2285.86	0.004684
2295.5	0.004614
2305.15	0.004364
2314.79	0.003904
2324.44	0.003714
2334.08	0.003394
2343.73	0.003164
2353.37	0.003014
2363.02	0.003354
2372.66	0.003674
2382.31	0.004204
2391.95	0.004564
2401.6	0.004634
2411.24	0.004524
2420.89	0.004194
2430.53	0.003954
2440.18	0.004634
2449.82	0.005404
2459.47	0.005874
2469.11	0.005224
2478.75	0.004344
2488.4	0.003934
2498.04	0.004334
2507.69	0.004994
2517.33	0.005264
2526.98	0.005164
2536.62	0.005624
2546.27	0.006314
2555.91	0.007534
2565.56	0.009474
2575.2	0.011144
2584.85	0.008584
2594.49	0.005014
2604.14	0.003344
2613.78	0.002724
2623.43	0.002044
2633.07	0.001814
2642.72	0.001904
2652.36	0.002294
2662.01	0.002184
2671.65	0.001754
2681.29	0.001764
2690.94	0.001764
2700.58	0.002084
2710.23	0.002604
2719.87	0.003184
2729.52	0.003884
2739.16	0.004644
2748.81	0.005264
2758.45	0.004484
2768.1	0.003494
2777.74	0.003344
2787.39	0.003554
2797.03	0.003734
2806.68	0.003474
2816.32	0.003174
2825.97	0.002964
2835.61	0.002954
2845.26	0.002314
2854.9	0.001794
2864.55	0.001564
2874.19	0.001774
2883.84	0.001824
2893.48	0.001614
2903.12	0.001644
2912.77	0.001994
2922.41	0.002214
2932.06	0.002384
2941.7	0.002344
2951.35	0.002124
2960.99	0.001994
2970.64	0.002184
2980.28	0.002094
2989.93	0.002124
2999.57	0.002394
3009.22	0.002414
3018.86	0.002424
3028.51	0.002364
3038.15	0.002674
3047.8	0.003884
3057.44	0.003894
3067.09	0.003944
3076.73	0.006114
3086.38	0.006844
3096.02	0.004514
3105.67	0.002504
3115.31	0.001634
3124.95	0.0008678
3134.6	0.000553505
3144.24	0.000359
3153.89	0.000363
3163.53	0.000284
3173.18	0.000242
3182.82	0.00056132
3192.47	0.000349
3202.11	0.00022
3211.76	0.000259
3221.4	0.000197
3231.05	0.000277
3240.69	0.000357
3250.34	0.000177
3259.98	0.000212
3269.63	0.000164
3279.27	0.000147
3288.92	0.000102
3298.56	0.000136
3308.21	0.000106
3317.85	0.000207
3327.49	0.000118
3337.14	0.000209
3346.78	0.000176
3356.43	0.000339
3366.07	0.000191
3375.72	0.000355
3385.36	0.000175
3395.01	6.5e-05
3404.65	0.00015
3414.3	0.0004512
3423.94	0.000378
3433.59	0.000288
3443.23	0.00056173
3452.88	0.000388
3462.52	0.000355
3472.17	0.000335
3481.81	0.00043
3491.46	0.000335
3501.1	0.000429
3510.75	0.000389
3520.39	0.0005182
3530.04	0.000428
3539.68	0.0004977
3549.32	0.000432
3558.97	0.000369
3568.61	0.000222
3578.26	0.000255
3587.9	0.000407
3597.55	0.000223
3607.19	0.000316
3616.84	0.000368
3626.48	0.000355
3636.13	0.000392
3645.77	0.000416
3655.42	0.00024
3665.06	0.000377
3674.71	0.000425
3684.35	0.0004561
3694	0.0007487
3703.64	0.0004577
3713.29	0.0007397
3722.93	0.0006603
3732.58	0.00063388
3742.22	0.00056849
3751.86	0.0006851
3761.51	0.0008342
3771.15	0.000688
3780.8	0.0007765
3790.44	0.00060788
3800.09	0.000767
3809.73	0.0007264
3819.38	0.0007523
3829.02	0.0007843
3838.67	0.0009554
3848.31	0.0009526
3857.96	0.0010675
3867.6	0.0009806
3877.25	0.0011975
3886.89	0.0014594
3896.54	0.0014387
3906.18	0.0014304
3915.83	0.001504
3925.47	0.0015376
3935.12	0.001814
3944.76	0.001844
3954.41	0.001654
3964.05	0.001954
3973.69	0.002234
3983.34	0.002274
3992.98	0.002204
