Infrared Spectrum: 1,3-BIS(CYCLOPENTADIENYL)-1,1,3,3-TETRAMETHYL DISILOXANE
Formula: C14 H22 Si2 O
CAS: 18402-76-1
State: LIQUID
Class: COBLENTZ
Instrument: Not specified, most likely a prism, grating, or hybrid spectrometer.
Sampling: TRANSMISSION
Path length: 0.003 CM
Resolution: 4
Origin: WYANDOTTE CHEMICALS CORP., WYANDOTTE, MICHIGAN, USA
MICROMETERS	TRANSMITTANCE
2.046	0.985
2.08568	0.983
2.12536	0.983
2.16504	0.978
2.20472	0.975
2.2444	0.976
2.28408	0.97
2.32376	0.975
2.36344	0.975
2.40312	0.981
2.4428	0.971
2.48248	0.975
2.52216	0.953
2.56184	0.976
2.60151	0.966
2.64119	0.966
2.68087	0.963
2.72055	0.958
2.76023	0.958
2.79991	0.97
2.83959	0.976
2.87927	0.978
2.91895	0.98
2.95863	0.978
2.99831	0.983
3.03799	0.978
3.07767	0.975
3.11735	0.97
3.15703	0.96
3.19671	0.893
3.23639	0.558
3.27607	0.862
3.31575	0.814
3.35543	0.376
3.39511	0.597
3.43479	0.663
3.47447	0.789
3.51415	0.888
3.55383	0.923
3.59351	0.936
3.63318	0.973
3.67286	0.966
3.71254	0.98
3.75222	0.986
3.7919	0.985
3.83158	0.99
3.87126	0.991
3.91094	0.983
3.95062	0.986
3.9903	0.985
4.02998	0.981
4.06966	0.976
4.10934	0.98
4.14902	0.98
4.1887	0.983
4.22838	0.986
4.26806	0.996
4.30774	1
4.34742	1.004
4.3871	0.996
4.42678	0.981
4.46646	0.985
4.50614	0.98
4.54582	0.985
4.5855	0.986
4.62518	0.97
4.66485	0.978
4.70453	0.983
4.74421	0.983
4.78389	0.971
4.82357	0.98
4.86325	0.981
4.90293	0.976
4.94261	0.971
4.98229	0.976
5.02197	0.978
5.06165	0.978
5.10133	0.973
5.14101	0.968
5.18069	0.951
5.22037	0.941
5.26005	0.963
5.29973	0.958
5.33941	0.975
5.37909	0.98
5.41877	0.968
5.45845	0.961
5.49813	0.913
5.53781	0.933
5.57749	0.96
5.61717	0.96
5.65685	0.956
5.69653	0.963
5.7362	0.956
5.77588	0.951
5.81556	0.951
5.85524	0.953
5.89492	0.956
5.9346	0.946
5.97428	0.93
6.01396	0.923
6.05364	0.892
6.09332	0.774
6.133	0.757
6.17268	0.817
6.21236	0.868
6.25204	0.905
6.29172	0.885
6.3314	0.859
6.37108	0.89
6.41076	0.912
6.45044	0.915
6.49012	0.918
6.5298	0.908
6.56948	0.907
6.60916	0.872
6.64884	0.855
6.68852	0.792
6.7282	0.854
6.76787	0.688
6.80755	0.733
6.84723	0.84
6.88691	0.834
6.92659	0.822
6.96627	0.804
7.00595	0.776
7.04563	0.666
7.08531	0.641
7.12499	0.706
7.16467	0.764
7.20435	0.615
7.24403	0.764
7.28371	0.708
7.32339	0.814
7.36307	0.859
7.40275	0.686
7.44243	0.786
7.48211	0.864
7.52179	0.875
7.56147	0.882
7.60115	0.877
7.64083	0.859
7.68051	0.809
7.72019	0.708
7.75987	0.764
7.79955	0.719
7.83922	0.608
7.8789	0.273
7.91858	0.033
7.95826	0.031
7.99794	0.243
8.03762	0.588
8.0773	0.741
8.11698	0.799
8.15666	0.794
8.19634	0.82
8.23602	0.812
8.2757	0.766
8.31538	0.794
8.35506	0.847
8.39474	0.862
8.43442	0.868
8.4741	0.862
8.51378	0.845
8.55346	0.834
8.59314	0.812
8.63282	0.794
8.6725	0.752
8.71218	0.716
8.75186	0.661
8.79154	0.585
8.83122	0.47
8.87089	0.344
8.91057	0.28
8.95025	0.217
8.98993	0.167
9.02961	0.096
9.06929	0.064
9.10897	0.041
9.14865	0.038
9.18833	0.034
9.22801	0.033
9.26769	0.031
9.30737	0.031
9.34705	0.031
9.38673	0.029
9.42641	0.031
9.46609	0.031
9.50577	0.036
9.54545	0.039
9.58513	0.051
9.62481	0.074
9.66449	0.117
9.70417	0.162
9.74385	0.237
9.78353	0.28
9.82321	0.243
9.86289	0.228
9.90256	0.298
9.94224	0.285
9.98192	0.215
10.0216	0.147
10.0613	0.124
10.101	0.091
10.1406	0.067
10.1803	0.041
10.22	0.038
10.2597	0.039
10.2994	0.053
10.339	0.114
10.3787	0.195
10.4184	0.23
10.4581	0.127
10.4978	0.046
10.5374	0.041
10.5771	0.116
10.6168	0.29
10.6565	0.449
10.6962	0.538
10.7358	0.567
10.7755	0.595
10.8152	0.623
10.8549	0.628
10.8946	0.6
10.9342	0.54
10.9739	0.391
11.0136	0.268
11.0533	0.328
11.093	0.393
11.1326	0.358
11.1723	0.427
11.212	0.532
11.2517	0.547
11.2914	0.53
11.331	0.524
11.3707	0.454
11.4104	0.429
11.4501	0.393
11.4897	0.326
11.5294	0.242
11.5691	0.169
11.6088	0.112
11.6485	0.081
11.6881	0.074
11.7278	0.102
11.7675	0.119
11.8072	0.147
11.8469	0.157
11.8865	0.185
11.9262	0.223
11.9659	0.266
12.0056	0.295
12.0453	0.296
12.0849	0.273
12.1246	0.185
12.1643	0.106
12.204	0.049
12.2437	0.044
12.2833	0.049
12.323	0.058
12.3627	0.066
12.4024	0.072
12.4421	0.054
12.4817	0.043
12.5214	0.041
12.5611	0.036
12.6008	0.034
12.6405	0.036
12.6801	0.041
12.7198	0.046
12.7595	0.061
12.7992	0.091
12.8389	0.122
12.8785	0.185
12.9182	0.237
12.9579	0.253
12.9976	0.207
13.0373	0.14
13.0769	0.087
13.1166	0.069
13.1563	0.072
13.196	0.111
13.2357	0.157
13.2753	0.205
13.315	0.213
13.3547	0.175
13.3944	0.142
13.4341	0.134
13.4737	0.169
13.5134	0.227
13.5531	0.285
13.5928	0.308
13.6324	0.321
13.6721	0.305
13.7118	0.271
13.7515	0.218
13.7912	0.175
13.8308	0.149
13.8705	0.147
13.9102	0.17
13.9499	0.194
13.9896	0.222
14.0292	0.235
14.0689	0.242
14.1086	0.232
14.1483	0.205
14.188	0.177
14.2276	0.14
14.2673	0.121
14.307	0.116
14.3467	0.116
14.3864	0.119
14.426	0.121
14.4657	0.135
14.5054	0.15
14.5451	0.187
14.5848	0.205
14.6244	0.227
14.6641	0.253
14.7038	0.28
14.7435	0.303
14.7832	0.351
14.8228	0.401
14.8625	0.444
14.9022	0.497
14.9419	0.532
14.9816	0.567
15.0212	0.606
15.0609	0.64
15.1006	0.641
15.1403	0.658
15.18	0.676
15.2196	0.699
15.2593	0.721
15.299	0.734
15.3387	0.746
15.3784	0.751
15.418	0.752
15.4577	0.746
15.4974	0.744
15.5371	0.749
15.5768	0.761
15.6164	0.767
15.6561	0.781
15.6958	0.804
15.7355	0.8
15.7751	0.814
15.8148	0.82
15.8545	0.82
15.8942	0.824
15.9339	0.82
15.9735	0.817
