Infrared Spectrum: n-Tetradecyltrichlorosilane
Formula: C 14 H 29 Cl 3 Si
CAS: 18402-22-7
State: gas
Origin: EPA-IR VAPOR PHASE LIBRARY
1/CM	ABSORBANCE
549.8	0.008049
559.445	0.020989
569.09	0.045889
578.734	0.047309
588.379	0.059309
598.024	0.045469
607.669	0.012969
617.313	0.005279
626.958	0.003899
636.603	0.003189
646.248	0.003009
655.893	0.002859
665.537	0.003719
675.182	0.006709
684.827	0.012719
694.472	0.015499
704.116	0.011289
713.761	0.009559
723.406	0.009199
733.051	0.009629
742.695	0.010319
752.34	0.010969
761.985	0.010019
771.63	0.005999
781.275	0.003849
790.919	0.003289
800.564	0.002299
810.209	0.002259
819.854	0.0016087
829.498	0.001517
839.143	0.001889
848.788	0.001749
858.433	0.001619
868.078	0.0013197
877.722	0.001829
887.367	0.0011288
897.012	0.001819
906.657	0.0014092
916.301	0.0014782
925.946	0.001819
935.591	0.0011752
945.236	0.001939
954.88	0.001939
964.525	0.001969
974.17	0.002069
983.815	0.002089
993.46	0.001859
1003.1	0.002349
1012.75	0.002319
1022.39	0.002249
1032.04	0.002089
1041.68	0.002139
1051.33	0.0010966
1060.97	0.001919
1070.62	0.001689
1080.26	0.001629
1089.91	0.0012598
1099.55	0.000363
1109.2	0.000726
1118.84	0.0011073
1128.49	0.002189
1138.13	0.0009374
1147.78	0.0015608
1157.42	0.0008543
1167.07	0.001659
1176.71	0.002419
1186.36	0.001619
1196	0.003299
1205.64	0.002079
1215.29	0.002039
1224.93	0.001719
1234.58	0.0014195
1244.22	0.00134
1253.87	0.001819
1263.51	0.001859
1273.16	0.001699
1282.8	0.001879
1292.45	0.002449
1302.09	0.002439
1311.74	0.002629
1321.38	0.002549
1331.03	0.002499
1340.67	0.003469
1350.32	0.004649
1359.96	0.004189
1369.61	0.003329
1379.25	0.002969
1388.9	0.002749
1398.54	0.002989
1408.18	0.002569
1417.83	0.002259
1427.47	0.002379
1437.12	0.003199
1446.76	0.005929
1456.41	0.008779
1466.05	0.008729
1475.7	0.004749
1485.34	0.002559
1494.99	0.001709
1504.63	0.0012529
1514.28	0.0011047
1523.92	0.0010922
1533.57	0.0008812
1543.21	0.0009535
1552.86	0.0008976
1562.5	0.0009607
1572.15	0.000762
1581.79	0.0007926
1591.44	0.0007989
1601.08	0.0006064
1610.73	0.00070424
1620.37	0.00068921
1630.01	0.0009075
1639.66	0.00064108
1649.3	0.00042
1658.95	0.00061671
1668.59	0.0005579
1678.24	0.000620759
1687.88	0.000621629
1697.53	0.000603
1707.17	0.0005196
1716.82	0.000476
1726.46	0.0005669
1736.11	0.00069656
1745.75	0.00067372
1755.4	0.000582
1765.04	0.00064605
1774.69	0.00065494
1784.33	0.0005674
1793.98	0.0005353
1803.62	0.00061277
1813.27	0.0005428
1822.91	0.0006088
1832.55	0.0005506
1842.2	0.0005601
1851.84	0.000497
1861.49	0.000621907
1871.13	0.000495
1880.78	0.000466
1890.42	0.00067406
1900.07	0.00062395
1909.71	0.0005994
1919.36	0.0005666
1929	0.000620662
1938.65	0.00066235
1948.29	0.00065575
1957.94	0.00062907
1967.58	0.00070978
1977.23	0.00062947
1986.87	0.00063
1996.52	0.0005839
2006.16	0.00066951
2015.81	0.000583
2025.45	0.0007907
2035.1	0.00071202
2044.74	0.00064975
2054.38	0.00067132
2064.03	0.0008363
2073.67	0.00063686
2083.32	0.0007515
2092.96	0.000518
2102.61	0.0005868
2112.25	0.00067865
2121.9	0.000593
2131.54	0.0006774
2141.19	0.00062473
2150.83	0.0005984
2160.48	0.0009126
2170.12	0.0008133
2179.77	0.0008804
2189.41	0.00064902
2199.06	0.00069902
2208.7	0.00070526
2218.35	0.0007333
2227.99	0.00067199
2237.64	0.000558
2247.28	0.00071163
2256.92	0.000628948
2266.57	0.0005621
2276.21	0.0005667
2285.86	0.0006038
2295.5	0.00069085
2305.15	0.0007701
2314.79	0.0007944
2324.44	0.0005838
2334.08	0.0006827
2343.73	0.0008387
2353.37	0.00069156
2363.02	0.0007254
2372.66	0.00066719
2382.31	0.00070861
2391.95	0.00070224
2401.6	0.0007448
2411.24	0.0005998
2420.89	0.000628543
2430.53	0.00061307
2440.18	0.00066764
2449.82	0.00064611
2459.47	0.0006864
2469.11	0.0006523
2478.75	0.0005621
2488.4	0.00067743
2498.04	0.0005542
2507.69	0.00068679
2517.33	0.00069288
2526.98	0.000806
2536.62	0.0009402
2546.27	0.0009761
2555.91	0.0009492
2565.56	0.0008719
2575.2	0.0008784
2584.85	0.0010336
2594.49	0.0009233
2604.14	0.0010681
2613.78	0.0013398
2623.43	0.0012279
2633.07	0.0012967
2642.72	0.0012993
2652.36	0.001601
2662.01	0.0014785
2671.65	0.0015366
2681.29	0.001649
2690.94	0.001769
2700.58	0.0015676
2710.23	0.001629
2719.87	0.001719
2729.52	0.0015702
2739.16	0.0016184
2748.81	0.001879
2758.45	0.001919
2768.1	0.001739
2777.74	0.002419
2787.39	0.002669
2797.03	0.003159
2806.68	0.003419
2816.32	0.004199
2825.97	0.005409
2835.61	0.007539
2845.26	0.013209
2854.9	0.029489
2864.55	0.044319
2874.19	0.031849
2883.84	0.023879
2893.48	0.023589
2903.12	0.029579
2912.77	0.044689
2922.41	0.077969
2932.06	0.121829
2941.7	0.093709
2951.35	0.048529
2960.99	0.031919
2970.64	0.025949
2980.28	0.014269
2989.93	0.008149
2999.57	0.005629
3009.22	0.004419
3018.86	0.003299
3028.51	0.002899
3038.15	0.002609
3047.8	0.001959
3057.44	0.001919
3067.09	0.001699
3076.73	0.0014806
3086.38	0.0015759
3096.02	0.0011659
3105.67	0.0011806
3115.31	0.001006
3124.95	0.0009144
3134.6	0.001428
3144.24	0.0010337
3153.89	0.0010854
3163.53	0.0011428
3173.18	0.0010308
3182.82	0.0012443
3192.47	0.0011278
3202.11	0.0011779
3211.76	0.00067768
3221.4	0.0009641
3231.05	0.0009325
3240.69	0.00064048
3250.34	0.000487
3259.98	0.000697
3269.63	0.00031
3279.27	0.000394
3288.92	0.0008599
3298.56	0.0009232
3308.21	0.0006052
3317.85	0.0007623
3327.49	0.0006009
3337.14	0.00067418
3346.78	0.0008812
3356.43	0.0009569
3366.07	0.000938
3375.72	0.0005789
3385.36	0.0008051
3395.01	0.000373
3404.65	0.000335
3414.3	0.00069606
3423.94	0.000473
3433.59	0.0005702
3443.23	0.00065597
3452.88	0.00065146
3462.52	0.00063666
3472.17	0.000417
3481.81	0.000399
3491.46	0.00066804
3501.1	0.00070845
3510.75	0.000495
3520.39	0.0007238
3530.04	0.000488
3539.68	0.0009185
3549.32	0.000393
3558.97	0.0007311
3568.61	0.0005258
3578.26	0.000457
3587.9	0.0008334
3597.55	0.0005464
3607.19	0.000404
3616.84	0.00066336
3626.48	0.0008942
3636.13	0.0007107
3645.77	0.000443
3655.42	0.000425
3665.06	0.000245
3674.71	0.00065039
3684.35	0.0008698
3694	0.0008786
3703.64	0.0007347
3713.29	0.00065834
3722.93	0.0009105
3732.58	0.0005462
3742.22	0.000466
3751.86	0.00063172
3761.51	0.0008347
3771.15	0.000499
3780.8	0.0009861
3790.44	0.0007706
3800.09	0.0005766
3809.73	0.0008942
3819.38	0.0006717
3829.02	0.0007814
3838.67	0.0008332
3848.31	0.00067384
3857.96	0.00066969
3867.6	0.00071037
3877.25	0.00071223
3886.89	0.000512
3896.54	0.000439
3906.18	0.00063557
3915.83	0.000498
3925.47	0.00065045
3935.12	0.0005556
3944.76	0.0009225
3954.41	0.0005601
3964.05	0.0008198
3973.69	0.0010509
3983.34	0.0009835
3992.98	0.000951
