Infrared Spectrum: Diisobutyl sebacate
Formula: C18 H34 O4
CAS: 18420-46-7
State: SOLUTION (10% CCl4 FOR 2.7-7.5, 10% CS2 FOR 7.5-26 MICRON) VS SOLVENT
Class: COBLENTZ III
Instrument: DOW KBr FOREPRISM-GRATING
Instrument parameters: BLAZED AT 3.5, 12.0, 20.0 MICRON AND CHANGED AT 5.0, 7.5, 14.9 MICRON
Sampling: TRANSMISSION
Path length: 0.011 CM, 0.011 CM
Resolution: 2
Origin: DOW CHEMICAL COMPANY
1/CM	TRANSMITTANCE
3794	0.8395
3785	0.8401
3776	0.8408
3767	0.8415
3758	0.8421
3749	0.843
3740	0.8437
3731	0.8439
3722	0.8441
3713	0.8443
3704	0.844
3695	0.8436
3686	0.8433
3677	0.8428
3668	0.8428
3659	0.8427
3650	0.8428
3641	0.843
3632	0.8433
3623	0.8441
3614	0.8457
3605	0.8471
3596	0.8485
3587	0.8499
3578	0.8514
3569	0.8573
3560	0.86
3551	0.8602
3542	0.8603
3533	0.8607
3524	0.8612
3515	0.8625
3506	0.8638
3497	0.8645
3488	0.8649
3479	0.8649
3470	0.8627
3461	0.855
3452	0.8433
3443	0.839
3434	0.8407
3425	0.8475
3416	0.8571
3407	0.8659
3398	0.8707
3389	0.8727
3380	0.8734
3371	0.874
3362	0.8752
3353	0.8764
3344	0.8774
3335	0.8783
3326	0.879
3317	0.8795
3308	0.8801
3299	0.8806
3290	0.8812
3281	0.8818
3272	0.8821
3263	0.8823
3254	0.8824
3245	0.882
3236	0.8815
3227	0.8811
3218	0.8789
3209	0.8763
3200	0.8733
3191	0.8705
3182	0.8678
3173	0.8649
3164	0.8625
3155	0.8618
3146	0.8618
3137	0.8624
3128	0.8633
3119	0.863
3110	0.8625
3101	0.8618
3092	0.8609
3083	0.8588
3074	0.8558
3065	0.8518
3056	0.847
3047	0.8411
3038	0.8343
3029	0.8232
3020	0.8051
3011	0.7818
3002	0.7414
2993	0.5472
2984	0.3325
2975	0.0822
2966	0.0433
2957	0.0419
2948	0.0552
2939	0.0548
2930	0.041
2921	0.0524
2912	0.108
2903	0.176
2894	0.244
2885	0.312
2876	0.1798
2867	0.2514
2858	0.2253
2849	0.2622
2840	0.6189
2831	0.6811
2822	0.711
2813	0.7383
2804	0.7632
2795	0.7828
2786	0.7967
2777	0.8078
2768	0.8171
2759	0.8204
2750	0.8208
2741	0.8203
2732	0.8175
2723	0.8133
2714	0.8151
2705	0.8228
2696	0.8292
2687	0.8301
2678	0.8306
2669	0.8308
2660	0.8312
2651	0.8315
2642	0.8318
2633	0.8327
2624	0.8344
2615	0.8361
2606	0.8381
2597	0.8407
2588	0.8433
2579	0.8458
2570	0.8484
2561	0.8508
2552	0.853
2543	0.8549
2534	0.8568
2525	0.8589
2516	0.8597
2507	0.8603
2498	0.861
2489	0.8615
2480	0.8623
2471	0.863
2462	0.8638
2453	0.8646
2444	0.8653
2435	0.8657
2426	0.8655
2417	0.8646
2408	0.863
2399	0.8612
2390	0.8596
2381	0.8582
2372	0.8594
2363	0.8614
2354	0.8635
2345	0.8642
2336	0.8643
2327	0.8623
2318	0.8592
2309	0.8566
2300	0.8557
2291	0.8565
2282	0.8587
2273	0.8603
2264	0.8618
2255	0.863
2246	0.8639
2237	0.8649
2228	0.8662
2219	0.8674
2210	0.8678
2201	0.8684
2192	0.8692
2183	0.8728
2174	0.8784
2165	0.8725
2156	0.8705
2147	0.8693
2138	0.8686
2129	0.8678
2120	0.8673
2111	0.8668
2102	0.8664
2093	0.8659
2084	0.8654
2075	0.8647
2066	0.8642
2057	0.8637
2048	0.8632
2039	0.8624
2030	0.8624
2021	0.8632
2012	0.8648
2003	0.8662
1994	0.8685
1985	0.8693
1976	0.8702
1967	0.871
1958	0.8718
1949	0.8724
1940	0.872
1931	0.8704
1922	0.869
1913	0.8675
1904	0.8668
1895	0.8665
1886	0.8654
1877	0.8638
1868	0.8621
1859	0.8604
1850	0.8584
1841	0.8555
1832	0.8513
1823	0.8466
1814	0.8409
1805	0.8312
1796	0.8155
1787	0.7982
1778	0.7758
1769	0.7282
1760	0.5986
1751	0.3696
1742	0.0785
1733	0.0031
1724	0.0045
1715	0.2413
1706	0.4801
1697	0.5949
1688	0.6493
1679	0.7208
1670	0.7667
1661	0.7925
1652	0.8119
1643	0.8243
1634	0.8324
1625	0.8387
1616	0.8433
1607	0.8478
1598	0.8518
1589	0.8541
1580	0.8554
1571	0.8548
1562	0.8558
1553	0.8593
1544	0.8632
1535	0.859
1526	0.8527
1517	0.8435
1508	0.832
1499	0.815
1490	0.7861
1481	0.6841
1472	0.1556
1463	0.2578
1454	0.388
1445	0.5207
1436	0.5719
1427	0.5703
1418	0.5268
1409	0.661
1400	0.4909
1391	0.5394
1382	0.1922
1373	0.3277
1364	0.4459
1355	0.3816
1346	0.4084
1337	0.4653
1328	0.4848
1319	0.4451
1310	0.4238
1301	0.4068
1292	0.3772
1283	0.3268
1274	0.3326
1265	0.2944
1256	0.2583
1247	0.2153
1238	0.1812
1229	0.1884
1220	0.2071
1211	0.208
1202	0.1857
1193	0.1332
1184	0.0935
1175	0.0676
1166	0.0527
1157	0.0766
1148	0.1667
1139	0.2838
1130	0.3088
1121	0.3529
1112	0.4544
1103	0.4084
1094	0.375
1085	0.4355
1076	0.6033
1067	0.6498
1058	0.6615
1049	0.661
1040	0.6252
1031	0.5507
1022	0.4288
1013	0.3552
1004	0.3516
995	0.3716
986	0.48
977	0.6432
968	0.714
959	0.7174
950	0.7051
941	0.6358
932	0.6876
923	0.6818
914	0.6964
905	0.7146
896	0.7544
887	0.7864
878	0.8072
869	0.8021
860	0.8033
851	0.8225
842	0.8427
833	0.8299
824	0.7804
815	0.8051
806	0.8404
797	0.8503
788	0.8512
779	0.8471
770	0.8349
761	0.833
752	0.8321
743	0.8273
734	0.8139
725	0.7525
716	0.7899
707	0.8264
698	0.8435
689	0.8575
680	0.8645
671	0.8727
662	0.8688
653	0.8491
644	0.8425
635	0.8377
626	0.8344
617	0.8263
608	0.8141
599	0.8135
590	0.8126
581	0.8118
572	0.8138
563	0.8225
554	0.8299
545	0.8312
536	0.829
527	0.8206
518	0.816
509	0.8158
500	0.8168
491	0.8188
482	0.8218
473	0.8227
464	0.8218
455	0.8191
446	0.8121
437	0.7893
428	0.7808
419	0.783
410	0.7855
401	0.7884
