Infrared Spectrum: 2-MORPHOLINONE, 4-PHENYL-
Formula: C10 H11 N O2
CAS: 18425-34-8
State: SOLID (OIL MULL)
Class: COBLENTZ III
Instrument: BAIRD (GRATING)
Instrument parameters: NaCl PRISM
Sampling: TRANSMISSION
Resolution: 2
Origin: WYANDOTTE CHEMICALS CORP.
1/CM	TRANSMITTANCE
4000	0.469
3991	0.4701
3982	0.4712
3973	0.4727
3964	0.4744
3955	0.476
3946	0.4777
3937	0.4795
3928	0.4814
3919	0.4833
3910	0.4853
3901	0.4872
3892	0.4889
3883	0.4899
3874	0.4901
3865	0.4903
3856	0.4906
3847	0.4908
3838	0.491
3829	0.492
3820	0.4933
3811	0.4946
3802	0.496
3793	0.4975
3784	0.499
3775	0.5006
3766	0.5022
3757	0.5037
3748	0.505
3739	0.506
3730	0.5072
3721	0.5084
3712	0.5094
3703	0.5102
3694	0.511
3685	0.5119
3676	0.5126
3667	0.5134
3658	0.5143
3649	0.5152
3640	0.5162
3631	0.5171
3622	0.518
3613	0.5189
3604	0.5198
3595	0.5205
3586	0.5212
3577	0.522
3568	0.5227
3559	0.5232
3550	0.5236
3541	0.5241
3532	0.5232
3523	0.5208
3514	0.5186
3505	0.5164
3496	0.5142
3487	0.5129
3478	0.512
3469	0.511
3460	0.5106
3451	0.5103
3442	0.51
3433	0.5108
3424	0.5125
3415	0.5143
3406	0.5168
3397	0.5194
3388	0.5206
3379	0.5212
3370	0.5221
3361	0.523
3352	0.5241
3343	0.5251
3334	0.5272
3325	0.5294
3316	0.5322
3307	0.5351
3298	0.5367
3289	0.5377
3280	0.5382
3271	0.5388
3262	0.5393
3253	0.5396
3244	0.5398
3235	0.5401
3226	0.5403
3217	0.5405
3208	0.5406
3199	0.5407
3190	0.5405
3181	0.5404
3172	0.5401
3163	0.5393
3154	0.5384
3145	0.5366
3136	0.5343
3127	0.5301
3118	0.5236
3109	0.5182
3100	0.5121
3091	0.5053
3082	0.4994
3073	0.4926
3064	0.4844
3055	0.4492
3046	0.4043
3037	0.3592
3028	0.3138
3019	0.268
3010	0.222
3001	0.1758
2992	0.1292
2983	0.0829
2974	0.0646
2965	0.0559
2956	0.0529
2947	0.0519
2938	0.0526
2929	0.0637
2920	0.0829
2911	0.1046
2902	0.1169
2893	0.1259
2884	0.1267
2875	0.11
2866	0.0982
2857	0.1021
2848	0.2019
2839	0.3649
2830	0.523
2821	0.5915
2812	0.6209
2803	0.639
2794	0.6533
2785	0.6631
2776	0.6689
2767	0.6703
2758	0.6706
2749	0.6674
2740	0.6625
2731	0.6586
2722	0.6568
2713	0.6583
2704	0.6644
2695	0.6696
2686	0.6735
2677	0.6771
2668	0.6805
2659	0.6838
2650	0.6868
2641	0.6903
2632	0.6935
2623	0.6968
2614	0.7003
2605	0.7046
2596	0.7088
2587	0.7128
2578	0.7164
2569	0.7192
2560	0.7207
2551	0.7221
2542	0.7244
2533	0.7272
2524	0.7308
2515	0.7347
2506	0.738
2497	0.741
2488	0.7434
2479	0.7456
2470	0.7465
2461	0.7469
2452	0.7468
2443	0.7481
2434	0.7496
2425	0.7519
2416	0.7548
2407	0.758
2398	0.7607
2389	0.7624
2380	0.7595
2371	0.7544
2362	0.751
2353	0.7501
2344	0.7524
2335	0.758
2326	0.7664
2317	0.7782
2308	0.7891
2299	0.8025
2290	0.8111
2281	0.8119
2272	0.8098
2263	0.8085
2254	0.8095
2245	0.8126
2236	0.8161
2227	0.8194
2218	0.8224
2209	0.8253
2200	0.8282
2191	0.8305
2182	0.8321
2173	0.8341
2164	0.8362
2155	0.8382
2146	0.8404
2137	0.8443
2128	0.8488
2119	0.854
2110	0.8584
2101	0.8617
2092	0.8642
2083	0.8663
2074	0.8685
2065	0.8707
2056	0.8728
2047	0.8751
2038	0.8745
2029	0.8715
2020	0.8692
2011	0.8733
2002	0.8839
1993	0.8904
1984	0.8928
1975	0.901
1966	0.9041
1957	0.8986
1948	0.8951
1939	0.8923
1930	0.8915
1921	0.9088
1912	0.9205
1903	0.9221
1894	0.9184
1885	0.9254
1876	0.9307
1867	0.9323
1858	0.9331
1849	0.9335
1840	0.934
1831	0.9533
1822	0.9799
1813	0.9768
1804	0.9557
1795	0.8939
1786	0.8189
1777	0.7719
1768	0.6971
1759	0.2218
1750	0.087
1741	0.1279
1732	0.1446
1723	0.3582
1714	0.5087
1705	0.6069
1696	0.6407
1687	0.7135
1678	0.7415
1669	0.7499
1660	0.809
1651	0.8171
1642	0.8158
1633	0.7904
1624	0.3992
1615	0.3015
1606	0.6095
1597	0.6255
1588	0.6611
1579	0.7583
1570	0.8246
1561	0.8158
1552	0.8434
1543	0.8404
1534	0.7803
1525	0.546
1516	0.2634
1507	0.3276
1498	0.4915
1489	0.4979
1480	0.2234
1471	0.2113
1462	0.2701
1453	0.432
1444	0.4318
1435	0.4909
1426	0.391
1417	0.4632
1408	0.6393
1399	0.612
1390	0.3398
1381	0.3426
1372	0.4634
1363	0.4094
1354	0.5969
1345	0.6753
1336	0.5495
1327	0.5365
1318	0.636
1309	0.5064
1300	0.4293
1291	0.2134
1282	0.171
1273	0.3102
1264	0.4169
1255	0.279
1246	0.1531
1237	0.0869
1228	0.2338
1219	0.3739
1210	0.4125
1201	0.431
1192	0.5562
1183	0.6396
1174	0.6821
1165	0.7107
1156	0.605
1147	0.7847
1138	0.8192
1129	0.8399
1120	0.7598
1111	0.6518
1102	0.353
1093	0.1314
1084	0.2335
1075	0.5028
1066	0.6504
1057	0.7121
1048	0.7382
1039	0.562
1030	0.7001
1021	0.7342
1012	0.6808
1003	0.533
994	0.5878
985	0.5816
976	0.5244
967	0.3249
958	0.589
949	0.7078
940	0.6643
931	0.5451
922	0.7558
913	0.8021
904	0.8236
895	0.8362
886	0.8378
877	0.7558
868	0.8188
859	0.8585
850	0.8659
841	0.8696
832	0.8761
823	0.8708
814	0.8621
805	0.6915
796	0.8355
787	0.8393
778	0.7619
769	0.4075
760	0.1995
751	0.4225
742	0.7451
733	0.8162
724	0.8398
715	0.8618
706	0.8654
697	0.7246
688	0.3548
679	0.7617
670	0.7665
661	0.6219
652	0.6911
643	0.6707
634	0.628
