Infrared Spectrum: 2-Morpholinone, 4-methyl-,
Formula: C5 H9 N O2
CAS: 18424-96-9
State: LIQUID(NEAT)
Class: COBLENTZ III
Instrument: BAIRD (GRATING)
Instrument parameters: NaCl PRISM
Path length: 0.003 CM
Resolution: 2
Origin: WYANDOTTE CHEMICALS CORP.
1/CM	TRANSMITTANCE
626	0.7391
635	0.7661
644	0.7595
653	0.5837
662	0.5881
671	0.8084
680	0.8513
689	0.888
698	0.9113
707	0.9221
716	0.9228
725	0.9343
734	0.9259
743	0.9305
752	0.9345
761	0.9319
770	0.9059
779	0.8402
788	0.5264
797	0.5119
806	0.7859
815	0.8177
824	0.768
833	0.1472
842	0.5583
851	0.792
860	0.912
869	0.937
878	0.9452
887	0.9402
896	0.928
905	0.8677
914	0.8326
923	0.4474
932	0.3856
941	0.8276
950	0.8572
959	0.8336
968	0.5402
977	0.4109
986	0.8244
995	0.8553
1004	0.7626
1013	0.4003
1022	0.6155
1031	0.7823
1040	0.7058
1049	0.554
1058	0.0933
1067	0.0449
1076	0.0285
1085	0.2557
1094	0.3166
1103	0.5126
1112	0.6971
1121	0.6169
1130	0.4138
1139	0.1219
1148	0.0276
1157	0.1245
1166	0.4094
1175	0.4863
1184	0.3055
1193	0.0454
1202	0.0781
1211	0.3605
1220	0.2873
1229	0.0738
1238	0.028
1247	0.0319
1256	0.033
1265	0.1345
1274	0.0785
1283	0.1505
1292	0.168
1301	0.0514
1310	0.3164
1319	0.5579
1328	0.6722
1337	0.6798
1346	0.3257
1355	0.0579
1364	0.3875
1373	0.57
1382	0.3971
1391	0.6671
1400	0.5715
1409	0.2546
1418	0.0796
1427	0.3097
1436	0.5114
1445	0.4841
1454	0.3459
1463	0.1059
1472	0.0844
1481	0.2551
1490	0.4749
1499	0.7011
1508	0.7999
1517	0.8641
1526	0.8842
1535	0.8899
1544	0.8946
1553	0.8986
1562	0.8987
1571	0.8892
1580	0.8863
1589	0.8707
1598	0.8721
1607	0.8836
1616	0.882
1625	0.8565
1634	0.8098
1643	0.7951
1652	0.8235
1661	0.7912
1670	0.7319
1679	0.6977
1688	0.6852
1697	0.6344
1706	0.5313
1715	0.4478
1724	0.2669
1733	0.0591
1742	0.0287
1751	0.029
1760	0.0319
1769	0.106
1778	0.352
1787	0.5976
1796	0.7615
1805	0.8198
1814	0.8607
1823	0.8778
1832	0.8675
1841	0.8562
1850	0.8694
1859	0.8993
1868	0.9199
1877	0.9228
1886	0.9274
1895	0.9544
1904	0.9694
1913	0.9636
1922	0.9607
1931	0.968
1940	0.9698
1949	0.9562
1958	0.941
1967	0.9265
1976	0.9336
1985	0.9553
1994	0.9614
2003	0.9571
2012	0.9568
2021	0.9651
2030	0.9738
2039	0.9741
2048	0.9712
2057	0.9669
2066	0.9633
2075	0.9655
2084	0.969
2093	0.9677
2102	0.9668
2111	0.9702
2120	0.9748
2129	0.9762
2138	0.9766
2147	0.9737
2156	0.9698
2165	0.9657
2174	0.9639
2183	0.9683
2192	0.9732
2201	0.9751
2210	0.9712
2219	0.9695
2228	0.9681
2237	0.9668
2246	0.9659
2255	0.9653
2264	0.965
2273	0.9652
2282	0.9644
2291	0.9618
2300	0.9582
2309	0.9546
2318	0.9514
2327	0.9484
2336	0.9453
2345	0.942
2354	0.9388
2363	0.9371
2372	0.9363
2381	0.9381
2390	0.9403
2399	0.9427
2408	0.9454
2417	0.948
2426	0.9511
2435	0.9534
2444	0.9517
2453	0.946
2462	0.9394
2471	0.934
2480	0.9344
2489	0.9366
2498	0.9393
2507	0.9415
2516	0.9435
2525	0.9445
2534	0.9453
2543	0.9455
2552	0.9449
2561	0.9429
2570	0.9397
2579	0.9366
2588	0.9329
2597	0.9292
2606	0.9298
2615	0.9315
2624	0.9318
2633	0.9266
2642	0.9182
2651	0.9044
2660	0.8911
2669	0.8297
2678	0.7518
2687	0.7333
2696	0.7295
2705	0.728
2714	0.7126
2723	0.6614
2732	0.6105
2741	0.5598
2750	0.5413
2759	0.401
2768	0.1969
2777	0.1592
2786	0.1433
2795	0.1388
2804	0.1382
2813	0.1605
2822	0.2328
2831	0.3047
2840	0.3344
2849	0.3368
2858	0.3581
2867	0.3992
2876	0.44
2885	0.4653
2894	0.4688
2903	0.4594
2912	0.4388
2921	0.419
2930	0.4159
2939	0.4161
2948	0.4162
2957	0.3426
2966	0.2588
2975	0.2031
2984	0.2028
2993	0.3104
3002	0.3992
3011	0.4875
3020	0.5752
3029	0.65
3038	0.6922
3047	0.8108
3056	0.8442
3065	0.8758
3074	0.8899
3083	0.8989
3092	0.9056
3101	0.9119
3110	0.918
3119	0.9228
3128	0.9261
3137	0.9293
3146	0.9319
3155	0.9339
3164	0.9358
3173	0.9375
3182	0.939
3191	0.9405
3200	0.942
3209	0.9434
3218	0.9447
3227	0.946
3236	0.9472
3245	0.9485
3254	0.9499
3263	0.9513
3272	0.9528
3281	0.9543
3290	0.9553
3299	0.9563
3308	0.9573
3317	0.9574
3326	0.9573
3335	0.9572
3344	0.9568
3353	0.9562
3362	0.9557
3371	0.9551
3380	0.9541
3389	0.9524
3398	0.9506
3407	0.9487
3416	0.9455
3425	0.942
3434	0.9356
3443	0.9281
3452	0.9192
3461	0.9099
3470	0.8979
3479	0.8861
3488	0.8801
3497	0.8804
3506	0.8806
3515	0.8867
3524	0.9014
3533	0.9158
3542	0.9295
3551	0.941
3560	0.952
3569	0.9599
3578	0.9648
3587	0.9673
3596	0.9693
3605	0.9712
3614	0.9731
3623	0.974
3632	0.9751
3641	0.976
3650	0.9768
3659	0.9774
3668	0.9779
3677	0.9785
3686	0.979
3695	0.9794
3704	0.9798
3713	0.9801
3722	0.9804
3731	0.9808
3740	0.9812
3749	0.9815
3758	0.9818
3767	0.982
3776	0.9822
3785	0.9825
3794	0.9828
3803	0.983
3812	0.9832
3821	0.9833
3830	0.9831
3839	0.9831
3848	0.983
3857	0.9829
3866	0.9828
3875	0.9824
3884	0.9819
3893	0.9814
3902	0.9809
3911	0.9802
3920	0.9793
3929	0.9786
3938	0.9779
3947	0.977
3956	0.9759
3965	0.9749
3974	0.9738
3983	0.9728
3992	0.9717
