Infrared Spectrum: Dibenzyl selenide
Formula: C 14 H 14 Se
CAS: 1842-38-2
State: gas
Origin: EPA-IR VAPOR PHASE LIBRARY
1/CM	ABSORBANCE
549.8	0.00696
559.445	0.00587
569.09	0.00329
578.734	0.00317
588.379	0.00378
598.024	0.00731
607.669	0.01315
617.313	0.01207
626.958	0.01233
636.603	0.00982
646.248	0.00716
655.893	0.00884
665.537	0.01278
675.182	0.01889
684.827	0.04223
694.472	0.0956
704.116	0.04783
713.761	0.02392
723.406	0.02006
733.051	0.02496
742.695	0.04022
752.34	0.04621
761.985	0.02467
771.63	0.01204
781.275	0.00739
790.919	0.00667
800.564	0.00686
810.209	0.00512
819.854	0.00454
829.498	0.00465
839.143	0.00635
848.788	0.00654
858.433	0.00546
868.078	0.00358
877.722	0.00287
887.367	0.00322
897.012	0.00431
906.657	0.0077
916.301	0.0043
925.946	0.00218
935.591	0.00136
945.236	0.0007911
954.88	0.00144
964.525	0.00187
974.17	0.00141
983.815	0.00151
993.46	0.00152
1003.1	0.00268
1012.75	0.00274
1022.39	0.0089
1032.04	0.01357
1041.68	0.00465
1051.33	0.00681
1060.97	0.01167
1070.62	0.01042
1080.26	0.00527
1089.91	0.00358
1099.55	0.00375
1109.2	0.00316
1118.84	0.00258
1128.49	0.00294
1138.13	0.00343
1147.78	0.0044
1157.42	0.00626
1167.07	0.0185
1176.71	0.03495
1186.36	0.02071
1196	0.00886
1205.64	0.01038
1215.29	0.00871
1224.93	0.0046
1234.58	0.00194
1244.22	0.00206
1253.87	0.00275
1263.51	0.00181
1273.16	0.00171
1282.8	0.00214
1292.45	0.00224
1302.09	0.00214
1311.74	0.00251
1321.38	0.00243
1331.03	0.00264
1340.67	0.0021
1350.32	0.0017
1359.96	0.00199
1369.61	0.00237
1379.25	0.00238
1388.9	0.00235
1398.54	0.00283
1408.18	0.00463
1417.83	0.00826
1427.47	0.01055
1437.12	0.01224
1446.76	0.01736
1456.41	0.01755
1466.05	0.00811
1475.7	0.00684
1485.34	0.01918
1494.99	0.04578
1504.63	0.01331
1514.28	0.00398
1523.92	0.00291
1533.57	0.00304
1543.21	0.00274
1552.86	0.00324
1562.5	0.00313
1572.15	0.00443
1581.79	0.00835
1591.44	0.01485
1601.08	0.02126
1610.73	0.0125
1620.37	0.00411
1630.01	0.00253
1639.66	0.00254
1649.3	0.00252
1658.95	0.00289
1668.59	0.00212
1678.24	0.00126
1687.88	0.00121
1697.53	0.00131
1707.17	0.00157
1716.82	0.00173
1726.46	0.0023
1736.11	0.00282
1745.75	0.00276
1755.4	0.00223
1765.04	0.0021
1774.69	0.0028
1784.33	0.00413
1793.98	0.00515
1803.62	0.00375
1813.27	0.00282
1822.91	0.00201
1832.55	0.00153
1842.2	0.0017
1851.84	0.00217
1861.49	0.00334
1871.13	0.00413
1880.78	0.00452
1890.42	0.00329
1900.07	0.0018
1909.71	0.00181
1919.36	0.00274
1929	0.00418
1938.65	0.00577
1948.29	0.00571
1957.94	0.00456
1967.58	0.00195
1977.23	0.00136
1986.87	0.00106
1996.52	0.0008506
2006.16	0.0007162
2015.81	0.0006331
2025.45	0.0007321
2035.1	0.0005246
2044.74	0.0004881
2054.38	0.0005611
2064.03	0.0005818
2073.67	0.0005466
2083.32	0.0005638
2092.96	0.0003814
2102.61	0.0002929
2112.25	0.0004394
2121.9	0.0005195
2131.54	0.000506
2141.19	0.0006823
2150.83	0.0004161
2160.48	0.0006751
2170.12	0.0004912
2179.77	0.0005802
2189.41	0.0005407
2199.06	0.0005847
2208.7	0.000653
2218.35	0.0007885
2227.99	0.0008055
2237.64	0.0007748
2247.28	0.0005857
2256.92	0.0006694
2266.57	0.0009503
2276.21	0.0008138
2285.86	0.0009664
2295.5	0.0009924
2305.15	0.00127
2314.79	0.00158
2324.44	0.00113
2334.08	0.00124
2343.73	0.0015
2353.37	0.00135
2363.02	0.00135
2372.66	0.0009544
2382.31	0.00111
2391.95	0.00103
2401.6	0.0007862
2411.24	0.0008111
2420.89	0.000538
2430.53	0.0006701
2440.18	0.0006123
2449.82	0.0004676
2459.47	0.0007143
2469.11	0.0004705
2478.75	0.0004611
2488.4	0.0005083
2498.04	0.0004537
2507.69	0.0005673
2517.33	0.0006542
2526.98	0.0006319
2536.62	0.0004429
2546.27	0.0003379
2555.91	0.0004776
2565.56	0.0005235
2575.2	0.0008268
2584.85	0.0009609
2594.49	0.00137
2604.14	0.00162
2613.78	0.00166
2623.43	0.0014
2633.07	0.0014
2642.72	0.0008532
2652.36	0.0006892
2662.01	0.0005146
2671.65	0.000437
2681.29	0.0006204
2690.94	0.0003911
2700.58	0.0002793
2710.23	0.0003097
2719.87	0.0005649
2729.52	0.0004797
2739.16	0.0002771
2748.81	0.0001535
2758.45	0.0006648
2768.1	0.0005776
2777.74	0.00106
2787.39	0.0009049
2797.03	0.0009535
2806.68	0.00165
2816.32	0.00204
2825.97	0.00224
2835.61	0.00272
2845.26	0.00259
2854.9	0.00288
2864.55	0.0027
2874.19	0.00248
2883.84	0.00272
2893.48	0.00312
2903.12	0.00409
2912.77	0.00636
2922.41	0.01275
2932.06	0.02217
2941.7	0.01832
2951.35	0.01084
2960.99	0.00923
2970.64	0.01006
2980.28	0.00833
2989.93	0.00647
2999.57	0.0079
3009.22	0.01332
3018.86	0.02421
3028.51	0.04763
3038.15	0.04856
3047.8	0.02787
3057.44	0.03336
3067.09	0.06158
3076.73	0.05434
3086.38	0.03513
3096.02	0.02307
3105.67	0.01537
3115.31	0.0082
3124.95	0.00327
3134.6	0.00201
3144.24	0.00149
3153.89	0.00157
3163.53	0.00151
3173.18	0.00135
3182.82	0.0006004
3192.47	0.000484
3202.11	0.0008309
3211.76	0.0005721
3221.4	0.0004026
3231.05	0.0003984
3240.69	0.0002033
3250.34	0.000371
3259.98	0.0005035
3269.63	0.0003151
3279.27	0.0006167
3288.92	0.0005384
3298.56	0.0004467
3308.21	0.0005419
3317.85	0.0006163
3327.49	0.0004565
3337.14	0.0002838
3346.78	0.0005697
3356.43	0.0004899
3366.07	0.0002986
3375.72	0.0003021
3385.36	0.0003509
3395.01	0.000201
3404.65	0.0003475
3414.3	0.0002512
3423.94	0.0004622
3433.59	0.0003227
3443.23	0.000632
3452.88	0.0004777
3462.52	0.0005361
3472.17	0.0003177
3481.81	0.0004284
3491.46	0.0003264
3501.1	0.0002092
3510.75	0.0005798
3520.39	0.0005205
3530.04	0.000215
3539.68	0.0008386
3549.32	0.0004745
3558.97	0.0005614
3568.61	0.00056
3578.26	0.0002053
3587.9	0.0008278
3597.55	0.000588
3607.19	0.0005324
3616.84	0.0005725
3626.48	0.0007004
3636.13	0.0009947
3645.77	0.0009464
3655.42	0.0005686
3665.06	0.0005672
3674.71	0.000437
3684.35	0.0005327
3694	0.0008182
3703.64	0.0006931
3713.29	0.0005516
3722.93	0.0004133
3732.58	0.0005564
3742.22	0.0004956
3751.86	0.0006036
3761.51	0.0008236
3771.15	0.0007161
3780.8	0.0004289
3790.44	0.0008177
3800.09	0.0005299
3809.73	0.0008905
3819.38	0.0007265
3829.02	0.000526
3838.67	0.0007597
3848.31	0.0008766
3857.96	0.0002807
3867.6	0.00124
3877.25	0.0009014
3886.89	0.0011
3896.54	0.0005927
3906.18	0.0003146
3915.83	0.0004528
3925.47	0.0001989
3935.12	0.0002196
3944.76	0.0006029
3954.41	0.0004226
3964.05	0.0008626
3973.69	0.0003713
3983.34	0.0006636
3992.98	0.0006079
