Infrared Spectrum: 4,4'-(6-t-BUTYL-m-CRESOL)ISOBUTYLIDENE
Formula: C26 H38 O2
CAS: 1843-24-9
State: SOLID (KBr PELLET)
Class: COBLENTZ
Instrument: Not specified, most likely a prism, grating, or hybrid spectrometer.
Sampling: TRANSMISSION
Resolution: 4
Origin: TENNESSEE EASTMAN COMPANY, RESEARCH LABORATORIES
MICROMETERS	TRANSMITTANCE
2.013	0.434
2.05298	0.444
2.09297	0.459
2.13295	0.479
2.17293	0.501
2.21291	0.506
2.2529	0.518
2.29288	0.536
2.33286	0.553
2.37285	0.566
2.41283	0.578
2.45281	0.59
2.49279	0.608
2.53278	0.62
2.57276	0.625
2.61274	0.632
2.65272	0.643
2.69271	0.652
2.73269	0.648
2.77267	0.58
2.81266	0.364
2.85264	0.158
2.89262	0.232
2.9326	0.454
2.97259	0.56
3.01257	0.617
3.05255	0.662
3.09254	0.693
3.13252	0.714
3.1725	0.73
3.21248	0.744
3.25247	0.745
3.29245	0.712
3.33243	0.342
3.37241	0.207
3.4124	0.361
3.45238	0.463
3.49236	0.779
3.53235	0.804
3.57233	0.834
3.61231	0.841
3.65229	0.842
3.69228	0.849
3.73226	0.866
3.77224	0.872
3.81223	0.879
3.85221	0.889
3.89219	0.892
3.93217	0.899
3.97216	0.906
4.01214	0.913
4.05212	0.918
4.0921	0.921
4.13209	0.923
4.17207	0.931
4.21205	0.934
4.25204	0.934
4.29202	0.936
4.332	0.949
4.37198	0.969
4.41197	0.979
4.45195	0.984
4.49193	0.986
4.53192	0.986
4.5719	0.989
4.61188	0.991
4.65186	0.991
4.69185	0.993
4.73183	0.993
4.77181	0.994
4.81179	0.994
4.85178	0.991
4.89176	0.988
4.93174	0.989
4.97173	0.989
5.01171	0.993
5.05169	0.989
5.09167	0.988
5.13166	0.988
5.17164	0.988
5.21162	0.988
5.25161	0.988
5.29159	0.989
5.33157	0.989
5.37155	0.993
5.41154	0.994
5.45152	0.993
5.4915	0.994
5.53148	0.979
5.57147	0.974
5.61145	0.976
5.65143	0.969
5.69142	0.954
5.7314	0.931
5.77138	0.921
5.81136	0.911
5.85135	0.906
5.89133	0.909
5.93131	0.919
5.9713	0.928
6.01128	0.928
6.05126	0.921
6.09124	0.892
6.13123	0.851
6.17121	0.765
6.21119	0.757
6.25117	0.866
6.29116	0.887
6.33114	0.801
6.37112	0.847
6.41111	0.876
6.45109	0.882
6.49107	0.856
6.53105	0.76
6.57104	0.341
6.61102	0.506
6.651	0.657
6.69099	0.642
6.73097	0.553
6.77095	0.526
6.81093	0.501
6.85092	0.469
6.8909	0.558
6.93088	0.622
6.97086	0.665
7.01085	0.66
7.05083	0.349
7.09081	0.152
7.1308	0.2
7.17078	0.198
7.21076	0.272
7.25074	0.239
7.29073	0.466
7.33071	0.372
7.37069	0.558
7.41068	0.64
7.45066	0.64
7.49064	0.602
7.53062	0.581
7.57061	0.568
7.61059	0.458
7.65057	0.456
7.69055	0.566
7.73054	0.479
7.77052	0.538
7.8105	0.411
7.85049	0.339
7.89047	0.374
7.93045	0.451
7.97043	0.473
8.01042	0.516
8.0504	0.54
8.09038	0.585
8.13037	0.603
8.17035	0.603
8.21033	0.545
8.25031	0.389
8.2903	0.205
8.33028	0.153
8.37026	0.113
8.41024	0.066
8.45023	0.148
8.49021	0.302
8.53019	0.403
8.57018	0.468
8.61016	0.533
8.65014	0.541
8.69012	0.454
8.73011	0.453
8.77009	0.404
8.81007	0.404
8.85006	0.55
8.89004	0.62
8.93002	0.652
8.97	0.652
9.00999	0.662
9.04997	0.655
9.08995	0.598
9.12993	0.638
9.16992	0.673
9.2099	0.682
9.24988	0.685
9.28987	0.692
9.32985	0.692
9.36983	0.693
9.40981	0.695
9.4498	0.693
9.48978	0.683
9.52976	0.665
9.56975	0.585
9.60973	0.362
9.64971	0.319
9.68969	0.441
9.72968	0.526
9.76966	0.568
9.80964	0.617
9.84962	0.63
9.88961	0.63
9.92959	0.622
9.96957	0.648
10.0096	0.675
10.0495	0.697
10.0895	0.702
10.1295	0.705
10.1695	0.712
10.2095	0.715
10.2495	0.717
10.2894	0.719
10.3294	0.722
10.3694	0.722
10.4094	0.722
10.4494	0.722
10.4893	0.722
10.5293	0.72
10.5693	0.722
10.6093	0.722
10.6493	0.724
10.6893	0.724
10.7292	0.705
10.7692	0.692
10.8092	0.688
10.8492	0.698
10.8892	0.717
10.9292	0.724
10.9691	0.709
11.0091	0.583
11.0491	0.478
11.0891	0.494
11.1291	0.625
11.1691	0.702
11.209	0.722
11.249	0.727
11.289	0.73
11.329	0.732
11.369	0.73
11.409	0.729
11.4489	0.712
11.4889	0.678
11.5289	0.602
11.5689	0.401
11.6089	0.397
11.6488	0.479
11.6888	0.528
11.7288	0.575
11.7688	0.617
11.8088	0.665
11.8488	0.707
11.8887	0.719
11.9287	0.729
11.9687	0.739
12.0087	0.742
12.0487	0.742
12.0887	0.744
12.1286	0.744
12.1686	0.745
12.2086	0.745
12.2486	0.747
12.2886	0.745
12.3286	0.747
12.3685	0.747
12.4085	0.749
12.4485	0.749
12.4885	0.75
12.5285	0.75
12.5685	0.752
12.6084	0.752
12.6484	0.752
12.6884	0.752
12.7284	0.754
12.7684	0.754
12.8084	0.755
12.8483	0.757
12.8883	0.757
12.9283	0.759
12.9683	0.76
13.0083	0.762
13.0482	0.765
13.0882	0.767
13.1282	0.769
13.1682	0.772
13.2082	0.772
13.2482	0.772
13.2881	0.77
13.3281	0.752
13.3681	0.749
13.4081	0.749
13.4481	0.724
13.4881	0.668
13.528	0.628
13.568	0.593
13.608	0.613
13.648	0.663
13.688	0.735
13.728	0.752
13.7679	0.762
13.8079	0.772
13.8479	0.777
13.8879	0.779
13.9279	0.784
13.9679	0.785
14.0078	0.787
14.0478	0.787
14.0878	0.79
14.1278	0.792
14.1678	0.792
14.2077	0.792
14.2477	0.794
14.2877	0.794
14.3277	0.794
14.3677	0.794
14.4077	0.792
14.4476	0.792
14.4876	0.784
14.5276	0.779
14.5676	0.775
14.6076	0.775
14.6476	0.775
14.6875	0.777
14.7275	0.777
14.7675	0.777
14.8075	0.777
14.8475	0.777
14.8875	0.777
14.9274	0.772
14.9674	0.75
15.0074	0.737
15.0474	0.734
15.0874	0.734
15.1274	0.734
15.1673	0.727
15.2073	0.719
15.2473	0.705
15.2873	0.69
15.3273	0.683
15.3672	0.68
15.4072	0.672
15.4472	0.667
15.4872	0.663
15.5272	0.658
15.5672	0.653
15.6071	0.645
15.6471	0.64
15.6871	0.627
15.7271	0.615
15.7671	0.607
15.8071	0.598
15.847	0.591
15.887	0.586
15.927	0.576
15.967	0.568
16.007	0.566
