Infrared Spectrum: 1-Nonadecene
Formula: C 19 H 38
CAS: 18435-45-5
State: gas
Instrument: HP-GC/MS/IRD
Origin: NIST Mass Spectrometry Data Center
1/CM	ABSORBANCE
550	0.0001245
562	7.47e-05
574	9.96e-05
586	0.0001328
598	0.0001992
610	0.000332
622	0.0004399
634	0.0005146
646	0.0003984
658	0.0002739
670	0.0002988
682	0.0002822
694	0.0005478
706	0.00083
718	0.0012699
730	0.001079
742	0.0007968
754	0.0005893
766	0.000498
778	0.0004565
790	0.0003486
802	0.0003652
814	0.000332
826	0.0003818
838	0.0004316
850	0.0004897
862	0.0006059
874	0.0007387
886	0.0010707
898	0.0018758
910	0.0038761
922	0.0027888
934	0.0014857
946	0.0010624
958	0.0009379
970	0.0009877
982	0.0013861
994	0.0018011
1006	0.0012533
1018	0.0008217
1030	0.0006474
1042	0.0005146
1054	0.0004897
1066	0.0004233
1078	0.000415
1090	0.0003486
1102	0.0003486
1114	0.000332
1126	0.0002822
1138	0.0002822
1150	0.0002573
1162	0.0002656
1174	0.0002739
1186	0.0003237
1198	0.0003237
1210	0.0003486
1222	0.0004233
1234	0.0004648
1246	0.000498
1258	0.0005893
1270	0.0006723
1282	0.0008549
1294	0.0011122
1306	0.0013031
1318	0.0011703
1330	0.001245
1342	0.0018094
1354	0.0022493
1366	0.0017762
1378	0.0012865
1390	0.0009711
1402	0.0008383
1414	0.000996
1426	0.001328
1438	0.002407
1450	0.0044405
1462	0.0055112
1474	0.0031623
1486	0.0012782
1498	0.000664
1510	0.0003569
1522	0.0002905
1534	0.0002739
1546	0.0002158
1558	0.000166
1570	0.0001909
1582	0.0002075
1594	0.0002158
1606	0.0003154
1618	0.0005312
1630	0.0010375
1642	0.00166
1654	0.0006142
1666	0.0002656
1678	0.0001162
1690	8.3e-05
1702	4.98e-05
1714	2.49e-05
1726	4.98e-05
1738	8.3e-06
1750	8.3e-06
1762	1.66e-05
1774	3.32e-05
1786	2.49e-05
1798	6.64e-05
1810	0.0001577
1822	0.0003403
1834	0.0003403
1846	0.0001411
1858	9.13e-05
1870	2.49e-05
1882	4.98e-05
1894	2.49e-05
1906	3.32e-05
1918	0
1930	2.49e-05
1942	0
1954	3.32e-05
1966	4.98e-05
1978	4.98e-05
1990	4.98e-05
2002	3.32e-05
2014	7.47e-05
2026	0.0001162
2038	9.13e-05
2050	9.13e-05
2062	8.3e-05
2074	6.64e-05
2086	4.98e-05
2098	4.98e-05
2110	4.15e-05
2122	3.32e-05
2134	4.15e-05
2146	5.81e-05
2158	7.47e-05
2170	7.47e-05
2182	5.81e-05
2194	7.47e-05
2206	6.64e-05
2218	6.64e-05
2230	5.81e-05
2242	4.15e-05
2254	5.81e-05
2266	4.98e-05
2278	4.98e-05
2290	8.3e-05
2302	6.64e-05
2314	4.98e-05
2326	7.47e-05
2338	6.64e-05
2350	5.81e-05
2362	7.47e-05
2374	7.47e-05
2386	9.13e-05
2398	9.13e-05
2410	8.3e-05
2422	9.13e-05
2434	9.13e-05
2446	9.96e-05
2458	9.13e-05
2470	0.0001162
2482	9.13e-05
2494	0.0001162
2506	0.0001411
2518	0.0001743
2530	0.0001992
2542	0.0002324
2554	0.0002324
2566	0.0002573
2578	0.0002656
2590	0.0003071
2602	0.0003569
2614	0.0004067
2626	0.0004731
2638	0.0005478
2650	0.0005976
2662	0.0006806
2674	0.0007885
2686	0.00083
2698	0.0007221
2710	0.0006972
2722	0.0006889
2734	0.0007387
2746	0.0008466
2758	0.0009213
2770	0.0010707
2782	0.0013197
2794	0.0017181
2806	0.002241
2818	0.0031291
2830	0.0046231
2842	0.0082585
2854	0.0208828
2866	0.0295646
2878	0.0183264
2890	0.0154463
2902	0.0209575
2914	0.035939
2926	0.0707409
2938	0.0739032
2950	0.0344367
2962	0.0197374
2974	0.0136452
2986	0.0076443
2998	0.005146
3010	0.0038678
3022	0.0026394
3034	0.0020169
3046	0.0017596
3058	0.0018011
3070	0.0020667
3082	0.0029631
3094	0.0020999
3106	0.0010209
3118	0.0007055
3130	0.0005478
3142	0.000498
3154	0.0004067
3166	0.0003984
3178	0.0003237
3190	0.0002739
3202	0.0002241
3214	0.0001826
3226	0.000166
3238	0.000166
3250	0.0001411
3262	0.0001162
3274	0.0001328
3286	0.0001079
3298	0.0001079
3310	9.13e-05
3322	9.13e-05
3334	0.0001079
3346	0.0001079
3358	0.0001245
3370	0.0001162
3382	0.0001328
3394	9.96e-05
3406	9.96e-05
3418	0.0001079
3430	9.96e-05
3442	9.13e-05
3454	8.3e-05
3466	7.47e-05
3478	5.81e-05
3490	4.15e-05
3502	2.49e-05
3514	4.98e-05
3526	2.49e-05
3538	6.64e-05
3550	4.15e-05
3562	7.47e-05
3574	8.3e-05
3586	4.98e-05
3598	7.47e-05
3610	0.0001162
3622	0.0001079
3634	0.0001494
3646	9.96e-05
3658	0.0001826
3670	0.0001328
3682	0.0001577
3694	0.0001494
3706	0.000166
3718	0.0001494
3730	0.0001411
3742	0.0001411
3754	0.0001328
3766	0.0001826
3778	0.0002324
3790	0.0001909
3802	0.0001743
3814	0.0001743
3826	0.0001909
3838	0.0001577
