Infrared Spectrum: Phenol, 4,4'-(diphenylmethylene)di-
Formula: C25 H20 O2
CAS: 1844-01-5
State: SOLID (SPLIT MULL), FLUOROLUBE FOR 3800-1330 CM^-^1, NUJOL FOR 1330-470 CM^-^1
Class: COBLENTZ III
Instrument: DOW KBr FOREPRISM-GRATING
Instrument parameters: BLAZED AT 3.5, 12.0, 20.0 MICRON AND CHANGED AT 5.0, 7.5, 14.9 MICRON
Sampling: TRANSMISSION
Resolution: 2
Origin: DOW CHEMICAL COMPANY
1/CM	TRANSMITTANCE
467	0.8175
476	0.8065
485	0.797
494	0.7858
503	0.7643
512	0.7734
521	0.7104
530	0.6561
539	0.7614
548	0.7486
557	0.7616
566	0.7515
575	0.7085
584	0.5399
593	0.5598
602	0.722
611	0.7568
620	0.7566
629	0.5166
638	0.7896
647	0.7482
656	0.8311
665	0.8207
674	0.8189
683	0.8007
692	0.7776
701	0.4893
710	0.4118
719	0.7631
728	0.6927
737	0.7932
746	0.7063
755	0.476
764	0.5731
773	0.6752
782	0.861
791	0.8645
800	0.8465
809	0.71
818	0.4719
827	0.3912
836	0.5181
845	0.6292
854	0.8417
863	0.8797
872	0.8839
881	0.8776
890	0.843
899	0.858
908	0.8692
917	0.8746
926	0.8654
935	0.8464
944	0.8354
953	0.8578
962	0.8483
971	0.8356
980	0.831
989	0.8488
998	0.8256
1007	0.8288
1016	0.6778
1025	0.8003
1034	0.6903
1043	0.8329
1052	0.8394
1061	0.8392
1070	0.8314
1079	0.7559
1088	0.8257
1097	0.8083
1106	0.6167
1115	0.7921
1124	0.7783
1133	0.7347
1142	0.6198
1151	0.4408
1160	0.2553
1169	0.2872
1178	0.1693
1187	0.4717
1196	0.4759
1205	0.5134
1214	0.647
1223	0.6898
1232	0.6766
1241	0.6095
1250	0.4587
1259	0.4257
1268	0.6131
1277	0.6098
1286	0.6223
1295	0.6708
1304	0.7643
1313	0.7718
1322	0.7136
1331	0.5663
1340	0.6542
1349	0.7192
1358	0.7653
1367	0.7863
1376	0.8033
1385	0.8196
1394	0.7874
1403	0.7565
1412	0.7807
1421	0.6862
1430	0.6733
1439	0.6936
1448	0.6559
1457	0.7972
1466	0.7883
1475	0.7305
1484	0.6946
1493	0.578
1502	0.5813
1511	0.2324
1520	0.7514
1529	0.8563
1538	0.852
1547	0.8486
1556	0.8476
1565	0.843
1574	0.8181
1583	0.7846
1592	0.6874
1601	0.7496
1610	0.6501
1619	0.7248
1628	0.8491
1637	0.8493
1646	0.8521
1655	0.86
1664	0.8614
1673	0.8601
1682	0.8565
1691	0.8521
1700	0.8486
1709	0.8491
1718	0.8531
1727	0.8515
1736	0.8498
1745	0.8481
1754	0.8472
1763	0.8471
1772	0.8477
1781	0.8488
1790	0.8506
1799	0.8524
1808	0.8542
1817	0.8536
1826	0.8525
1835	0.8518
1844	0.851
1853	0.8498
1862	0.8484
1871	0.8475
1880	0.8468
1889	0.8458
1898	0.8445
1907	0.8441
1916	0.8506
1925	0.8543
1934	0.8565
1943	0.8566
1952	0.8547
1961	0.8638
1970	0.8483
1979	0.8497
1988	0.8498
1997	0.8461
2006	0.8472
2015	0.8223
2024	0.8211
2033	0.82
2042	0.8185
2051	0.8165
2060	0.814
2069	0.8121
2078	0.8109
2087	0.8096
2096	0.8083
2105	0.8067
2114	0.8054
2123	0.8042
2132	0.8028
2141	0.801
2150	0.7991
2159	0.797
2168	0.7948
2177	0.7925
2186	0.7903
2195	0.7881
2204	0.786
2213	0.7838
2222	0.7814
2231	0.7788
2240	0.7761
2249	0.7735
2258	0.7708
2267	0.7683
2276	0.7665
2285	0.7651
2294	0.7655
2303	0.7662
2312	0.7681
2321	0.7733
2330	0.7779
2339	0.7776
2348	0.7774
2357	0.7771
2366	0.7749
2375	0.7723
2384	0.7697
2393	0.7685
2402	0.7682
2411	0.7683
2420	0.7691
2429	0.7704
2438	0.7719
2447	0.7733
2456	0.7755
2465	0.7773
2474	0.7781
2483	0.7786
2492	0.7788
2501	0.7789
2510	0.779
2519	0.7789
2528	0.7789
2537	0.7787
2546	0.7784
2555	0.7779
2564	0.7775
2573	0.7769
2582	0.7763
2591	0.7756
2600	0.7748
2609	0.7736
2618	0.7724
2627	0.7712
2636	0.77
2645	0.7689
2654	0.7683
2663	0.7676
2672	0.767
2681	0.7663
2690	0.7653
2699	0.764
2708	0.7628
2717	0.7616
2726	0.7602
2735	0.7581
2744	0.7561
2753	0.754
2762	0.7521
2771	0.7502
2780	0.7483
2789	0.7468
2798	0.7464
2807	0.7447
2816	0.7423
2825	0.74
2834	0.7378
2843	0.7355
2852	0.7334
2861	0.731
2870	0.7281
2879	0.7259
2888	0.7236
2897	0.7213
2906	0.7179
2915	0.7124
2924	0.707
2933	0.7031
2942	0.7073
2951	0.7084
2960	0.7077
2969	0.7064
2978	0.7049
2987	0.7031
2996	0.6971
3005	0.6879
3014	0.6767
3023	0.6621
3032	0.6444
3041	0.6651
3050	0.6682
3059	0.6642
3068	0.6789
3077	0.68
3086	0.6747
3095	0.6976
3104	0.6981
3113	0.6961
3122	0.6944
3131	0.6926
3140	0.6922
3149	0.692
3158	0.6918
3167	0.6912
3176	0.689
3185	0.6866
3194	0.6838
3203	0.6811
3212	0.6786
3221	0.676
3230	0.6733
3239	0.6707
3248	0.6679
3257	0.6648
3266	0.6617
3275	0.6587
3284	0.6557
3293	0.6526
3302	0.6485
3311	0.6442
3320	0.64
3329	0.6356
3338	0.6311
3347	0.625
3356	0.619
3365	0.6119
3374	0.6043
3383	0.5931
3392	0.581
3401	0.5672
3410	0.5501
3419	0.5316
3428	0.5137
3437	0.5013
3446	0.4984
3455	0.5039
3464	0.5241
3473	0.5474
3482	0.5618
3491	0.5605
3500	0.5524
3509	0.5286
3518	0.4975
3527	0.4518
3536	0.4184
3545	0.4176
3554	0.4417
3563	0.5551
3572	0.6763
3581	0.6934
3590	0.6964
3599	0.6963
3608	0.694
3617	0.6914
3626	0.6887
3635	0.6869
3644	0.6852
3653	0.6837
3662	0.6827
3671	0.6815
3680	0.6783
3689	0.676
3698	0.6742
3707	0.673
3716	0.6719
3725	0.6711
3734	0.67
3743	0.6676
3752	0.6644
3761	0.6617
3770	0.6595
3779	0.6575
3788	0.6569
3797	0.6566
