Infrared Spectrum: N,N',N''-TRIS(p-NITROPHENYL)GUANIDINE
Formula: C19 H14 N6 O6
CAS: 18440-30-7
State: SOLID (NUJOL MULL)
Class: COBLENTZ
Instrument: PERKIN-ELMER
Sampling: TRANSMISSION
Resolution: 4
Origin: ABBOTT LABORATORIES - WASHBURN
MICROMETERS	TRANSMITTANCE
2.031	0.218
2.06497	0.225
2.09893	0.237
2.1329	0.2449
2.16686	0.252
2.20083	0.2589
2.23479	0.2679
2.26876	0.2779
2.30272	0.2849
2.33669	0.2929
2.37065	0.3018
2.40462	0.3099
2.43858	0.3209
2.47255	0.3279
2.50651	0.3359
2.54048	0.3497
2.57444	0.3548
2.60841	0.3636
2.64237	0.3756
2.67634	0.3858
2.7103	0.3928
2.74427	0.4027
2.77823	0.4118
2.8122	0.4234
2.84616	0.432
2.88013	0.448
2.91409	0.46
2.94806	0.439
2.98202	0.302
3.01599	0.31
3.04995	0.281
3.08392	0.3498
3.11788	0.3809
3.15185	0.3949
3.18581	0.4
3.21978	0.4001
3.25374	0.3998
3.28771	0.4069
3.32167	0.3955
3.35564	0.2452
3.3896	0.1019
3.42357	0.029
3.45753	0.162
3.4915	0.1509
3.52546	0.3965
3.55943	0.5112
3.59339	0.541
3.62736	0.5489
3.66132	0.556
3.69529	0.5598
3.72925	0.5628
3.76322	0.5679
3.79718	0.573
3.83115	0.573
3.86511	0.577
3.89908	0.591
3.93304	0.603
3.96701	0.618
4.00097	0.618
4.03494	0.627
4.0689	0.632
4.10287	0.6201
4.13683	0.615
4.1708	0.6199
4.20476	0.6489
4.23873	0.646
4.27269	0.647
4.30666	0.6609
4.34062	0.6631
4.37459	0.6709
4.40855	0.675
4.44252	0.6798
4.47648	0.682
4.51045	0.682
4.54441	0.6888
4.57838	0.6938
4.61234	0.699
4.64631	0.7038
4.68027	0.709
4.71424	0.709
4.7482	0.7186
4.78217	0.7277
4.81613	0.73
4.8501	0.7309
4.88406	0.7379
4.91803	0.74
4.95199	0.74
4.98596	0.742
5.01992	0.747
5.05389	0.75
5.08785	0.75
5.12182	0.747
5.15578	0.749
5.18975	0.7491
5.22371	0.7493
5.25768	0.764
5.29164	0.7729
5.32561	0.778
5.35957	0.7753
5.39354	0.78
5.4275	0.783
5.46147	0.783
5.49543	0.783
5.5294	0.7805
5.56336	0.7849
5.59733	0.7859
5.63129	0.79
5.66526	0.7943
5.69922	0.8
5.73319	0.7869
5.76715	0.7625
5.80112	0.769
5.83508	0.768
5.86905	0.7611
5.90301	0.754
5.93698	0.7545
5.97094	0.7091
6.00491	0.5878
6.03887	0.4486
6.07284	0.3819
6.1068	0.5382
6.14077	0.63
6.17473	0.5284
6.2087	0.3715
6.24266	0.3171
6.27663	0.2712
6.31059	0.2376
6.34456	0.2358
6.37852	0.269
6.41249	0.1987
6.44645	0.1082
6.48042	0.1484
6.51438	0.2444
6.54835	0.2724
6.58231	0.3235
6.61628	0.1985
6.65024	0.1309
6.68421	0.1054
6.71817	0.1142
6.75214	0.1883
6.7861	0.2008
6.82007	0.2591
6.85403	0.2678
6.888	0.3032
6.92196	0.394
6.95593	0.4352
6.98989	0.5571
7.02386	0.6508
7.05782	0.6302
7.09179	0.5078
7.12575	0.5166
7.15972	0.6251
7.19368	0.6701
7.22765	0.6703
7.26161	0.5835
7.29558	0.4928
7.32954	0.5419
7.36351	0.561
7.39747	0.5047
7.43144	0.2754
7.4654	0.1465
7.49937	0.1451
7.53333	0.0892
7.5673	0.0406
7.60126	0.0361
7.63523	0.0525
7.66919	0.084
7.70316	0.0616
7.73712	0.0852
7.77109	0.1916
7.80505	0.2722
7.83902	0.3287
7.87298	0.374
7.90695	0.3695
7.94091	0.3507
7.97488	0.2714
8.00884	0.2433
8.04281	0.1958
8.07677	0.1362
8.11074	0.1625
8.14471	0.2208
8.17867	0.286
8.21264	0.2951
8.2466	0.2615
8.28057	0.2656
8.31453	0.3207
8.3485	0.3781
8.38246	0.4227
8.41643	0.4502
8.45039	0.4132
8.48436	0.3386
8.51832	0.2938
8.55229	0.3246
8.58625	0.3977
8.62022	0.4686
8.65418	0.5307
8.68815	0.5661
8.72211	0.5933
8.75608	0.6131
8.79004	0.6385
8.82401	0.6655
8.85797	0.668
8.89194	0.6704
8.9259	0.6385
8.95987	0.5107
8.99383	0.3596
9.0278	0.1947
9.06176	0.1728
9.09573	0.2668
9.12969	0.3825
9.16366	0.4856
9.19762	0.5358
9.23159	0.5647
9.26555	0.5872
9.29952	0.6031
9.33348	0.618
9.36745	0.623
9.40141	0.6272
9.43538	0.628
9.46934	0.639
9.50331	0.656
9.53727	0.6617
9.57124	0.6757
9.6052	0.685
9.63917	0.689
9.67313	0.6856
9.7071	0.675
9.74106	0.6912
9.77503	0.7015
9.80899	0.707
9.84296	0.707
9.87692	0.7005
9.91089	0.6608
9.94485	0.6231
9.97882	0.6227
10.0128	0.632
10.0467	0.6331
10.0807	0.6713
10.1147	0.6932
10.1486	0.7068
10.1826	0.716
10.2166	0.721
10.2505	0.725
10.2845	0.725
10.3185	0.7257
10.3524	0.726
10.3864	0.726
10.4204	0.7256
10.4543	0.7314
10.4883	0.738
10.5223	0.738
10.5562	0.738
10.5902	0.7476
10.6242	0.7533
10.6581	0.752
10.6921	0.752
10.726	0.7526
10.76	0.754
10.794	0.756
10.8279	0.757
10.8619	0.7587
10.8959	0.764
10.9298	0.7631
10.9638	0.762
10.9978	0.7672
11.0317	0.766
11.0657	0.768
11.0997	0.768
11.1336	0.7562
11.1676	0.756
11.2016	0.752
11.2355	0.752
11.2695	0.754
11.3035	0.754
11.3374	0.746
11.3714	0.7215
11.4053	0.6475
11.4393	0.6427
11.4733	0.6951
11.5072	0.706
11.5412	0.6558
11.5752	0.646
11.6091	0.6289
11.6431	0.4631
11.6771	0.4621
11.711	0.494
11.745	0.4618
11.779	0.4426
11.8129	0.4242
11.8469	0.3039
11.8809	0.3191
11.9148	0.3961
11.9488	0.5257
11.9828	0.6458
12.0167	0.6793
12.0507	0.689
12.0846	0.6826
12.1186	0.701
12.1526	0.7118
12.1865	0.7138
12.2205	0.713
12.2545	0.711
12.2884	0.709
12.3224	0.7106
12.3564	0.713
12.3903	0.7203
12.4243	0.734
12.4583	0.74
12.4922	0.737
12.5262	0.7381
12.5602	0.7468
12.5941	0.752
12.6281	0.7568
12.6621	0.7628
12.696	0.762
12.73	0.7649
12.7639	0.7666
12.7979	0.766
12.8319	0.766
12.8658	0.7689
12.8998	0.766
12.9338	0.7646
12.9677	0.761
13.0017	0.759
13.0357	0.759
13.0696	0.7535
13.1036	0.7456
13.1376	0.743
13.1715	0.7337
13.2055	0.6786
13.2395	0.6144
13.2734	0.5199
13.3074	0.5714
13.3414	0.5808
13.3753	0.4274
13.4093	0.429
13.4432	0.5076
13.4772	0.5757
13.5112	0.6446
13.5451	0.6896
13.5791	0.6959
13.6131	0.704
13.647	0.707
13.681	0.707
13.715	0.706
13.7489	0.702
13.7829	0.6976
13.8169	0.695
13.8508	0.6859
13.8848	0.6732
13.9188	0.668
13.9527	0.668
13.9867	0.668
14.0207	0.668
14.0546	0.6589
14.0886	0.6187
14.1225	0.5518
14.1565	0.5089
14.1905	0.5555
14.2244	0.5977
14.2584	0.6168
14.2924	0.63
14.3263	0.6271
14.3603	0.5747
14.3943	0.5277
14.4282	0.524
14.4622	0.5338
14.4962	0.5417
14.5301	0.5267
14.5641	0.517
14.5981	0.5291
14.632	0.5569
14.666	0.5865
14.7	0.6114
14.7339	0.617
14.7679	0.6219
14.8019	0.627
14.8358	0.6233
14.8698	0.6229
14.9037	0.611
14.9377	0.609
14.9717	0.6104
15.0056	0.6241
15.0396	0.5987
15.0736	0.5638
15.1075	0.5755
15.1415	0.5818
15.1755	0.5722
15.2094	0.563
15.2434	0.5619
15.2774	0.554
15.3113	0.552
15.3453	0.5445
15.3793	0.5297
15.4132	0.5248
