Infrared Spectrum: 2,3-XYLENOL, 6-ETHYL-
Formula: C10 H14 O
CAS: 18441-55-9
State: SOLUTION (10% CCl4 FOR 3800-1330, 9.5% CS2 FOR 1330-460 CM^-^1)
Class: COBLENTZ III
Instrument: DOW KBr FOREPRISM-GRATING
Instrument parameters: BLAZED AT 3.5, 12.0, 20.0 MICRON AND CHANGED AT 5.0, 7.5, 14.9 MICRON
Sampling: TRANSMISSION
Path length: 0.011 CM, 0.011 CM
Resolution: 2
Origin: DOW CHEMICAL COMPANY
1/CM	TRANSMITTANCE
459	0.7845
468	0.7864
477	0.7886
486	0.809
495	0.7967
504	0.7596
513	0.8088
522	0.8185
531	0.7741
540	0.8053
549	0.8225
558	0.8358
567	0.8559
576	0.8435
585	0.819
594	0.7265
603	0.8694
612	0.8789
621	0.8842
630	0.8861
639	0.8697
648	0.7997
657	0.8208
666	0.8552
675	0.9051
684	0.9271
693	0.9261
702	0.8677
711	0.7775
720	0.8404
729	0.9237
738	0.9205
747	0.8223
756	0.8668
765	0.6045
774	0.4866
783	0.7385
792	0.7815
801	0.5456
810	0.4715
819	0.7141
828	0.8907
837	0.8844
846	0.8273
855	0.7436
864	0.6485
873	0.6415
882	0.8411
891	0.8513
900	0.7899
909	0.9101
918	0.8701
927	0.8311
936	0.9146
945	0.9271
954	0.925
963	0.9139
972	0.8262
981	0.7691
990	0.8202
999	0.8017
1008	0.7667
1017	0.7619
1026	0.8368
1035	0.8203
1044	0.7756
1053	0.5657
1062	0.2982
1071	0.5048
1080	0.2901
1089	0.3022
1098	0.5881
1107	0.8349
1116	0.8778
1125	0.885
1134	0.8575
1143	0.7758
1152	0.6537
1161	0.626
1170	0.6472
1179	0.4744
1188	0.2595
1197	0.1435
1206	0.1758
1215	0.1834
1224	0.5025
1233	0.6793
1242	0.7221
1251	0.5965
1260	0.2785
1269	0.1967
1278	0.3818
1287	0.6086
1296	0.5591
1305	0.5409
1314	0.5214
1323	0.6301
1332	0.6751
1341	0.6984
1350	0.7399
1359	0.7539
1368	0.7385
1377	0.653
1386	0.6074
1395	0.7121
1404	0.701
1413	0.6507
1422	0.4066
1431	0.3442
1440	0.367
1449	0.257
1458	0.1283
1467	0.1739
1476	0.3152
1485	0.4942
1494	0.3702
1503	0.4328
1512	0.5551
1521	0.5453
1530	0.5236
1539	0.4656
1548	0.4151
1557	0.4265
1566	0.4469
1575	0.3855
1584	0.277
1593	0.4178
1602	0.5938
1611	0.6193
1620	0.6445
1629	0.7333
1638	0.7719
1647	0.7757
1656	0.7939
1665	0.824
1674	0.8335
1683	0.8361
1692	0.8361
1701	0.8335
1710	0.8301
1719	0.8263
1728	0.8237
1737	0.8227
1746	0.8296
1755	0.8377
1764	0.8423
1773	0.8441
1782	0.8444
1791	0.8441
1800	0.842
1809	0.8408
1818	0.8407
1827	0.8412
1836	0.8412
1845	0.8385
1854	0.8211
1863	0.7992
1872	0.8309
1881	0.8438
1890	0.8441
1899	0.8425
1908	0.844
1917	0.8491
1926	0.8527
1935	0.852
1944	0.8525
1953	0.8525
1962	0.8528
1971	0.8535
1980	0.8527
1989	0.8503
1998	0.8428
2007	0.8487
2016	0.8504
2025	0.851
2034	0.852
2043	0.853
2052	0.8536
2061	0.8538
2070	0.854
2079	0.8541
2088	0.8542
2097	0.854
2106	0.8538
2115	0.8536
2124	0.8538
2133	0.8543
2142	0.8549
2151	0.8554
2160	0.856
2169	0.8565
2178	0.857
2187	0.8575
2196	0.8583
2205	0.8592
2214	0.86
2223	0.8583
2232	0.8562
2241	0.8537
2250	0.8508
2259	0.8468
2268	0.8425
2277	0.8382
2286	0.8335
2295	0.8358
2304	0.8383
2313	0.8416
2322	0.8443
2331	0.8441
2340	0.8418
2349	0.8438
2358	0.8474
2367	0.8508
2376	0.8528
2385	0.8533
2394	0.8532
2403	0.8521
2412	0.8508
2421	0.8499
2430	0.8493
2439	0.8507
2448	0.8521
2457	0.852
2466	0.8516
2475	0.8509
2484	0.8499
2493	0.8501
2502	0.851
2511	0.8525
2520	0.8543
2529	0.8551
2538	0.8559
2547	0.857
2556	0.8586
2565	0.8594
2574	0.8597
2583	0.8594
2592	0.8585
2601	0.8564
2610	0.8541
2619	0.8517
2628	0.8497
2637	0.8508
2646	0.8537
2655	0.8568
2664	0.8586
2673	0.8593
2682	0.8584
2691	0.8574
2700	0.8564
2709	0.8521
2718	0.8367
2727	0.8141
2736	0.8024
2745	0.8323
2754	0.8424
2763	0.8406
2772	0.8368
2781	0.8313
2790	0.8246
2799	0.8165
2808	0.8076
2817	0.7965
2826	0.7758
2835	0.7292
2844	0.639
2853	0.4874
2862	0.373
2871	0.3512
2880	0.4347
2889	0.4594
2898	0.419
2907	0.3818
2916	0.3518
2925	0.2506
2934	0.2302
2943	0.2789
2952	0.3212
2961	0.23
2970	0.1713
2979	0.2743
2988	0.4443
2997	0.5844
3006	0.625
3015	0.6192
3024	0.5825
3033	0.5595
3042	0.6086
3051	0.6791
3060	0.7225
3069	0.7496
3078	0.7737
3087	0.8068
3096	0.8258
3105	0.8335
3114	0.84
3123	0.8459
3132	0.8516
3141	0.8535
3150	0.8545
3159	0.856
3168	0.858
3177	0.8591
3186	0.8601
3195	0.8613
3204	0.862
3213	0.8621
3222	0.8614
3231	0.8598
3240	0.8586
3249	0.8574
3258	0.8562
3267	0.8546
3276	0.8521
3285	0.8496
3294	0.8462
3303	0.8427
3312	0.8378
3321	0.8328
3330	0.8277
3339	0.8225
3348	0.8171
3357	0.8111
3366	0.8034
3375	0.7955
3384	0.7875
3393	0.7796
3402	0.7717
3411	0.7631
3420	0.7544
3429	0.7455
3438	0.7354
3447	0.7253
3456	0.7149
3465	0.7044
3474	0.695
3483	0.6858
3492	0.6791
3501	0.6728
3510	0.6662
3519	0.6589
3528	0.6511
3537	0.6535
3546	0.6596
3555	0.653
3564	0.6357
3573	0.6155
3582	0.5968
3591	0.5325
3600	0.368
3609	0.2014
3618	0.2356
3627	0.7506
3636	0.8281
3645	0.86
3654	0.8693
3663	0.8745
3672	0.8781
3681	0.8802
3690	0.8835
3699	0.8902
3708	0.8938
3717	0.8946
3726	0.8954
3735	0.8964
3744	0.8967
3753	0.8966
3762	0.8962
3771	0.896
3780	0.8957
3789	0.8952
