Infrared Spectrum: CHROME ORANGE (MEDIUM)
Formula: Pb Cr O4, Pb O, Si O2
CAS: 18454-12-1
State: SOLID (1.2 mg / 300 mg CsI PELLET)
Class: COBLENTZ
Instrument: Not specified, most likely a grating spectrometer.
Sampling: TRANSMISSION
Resolution: 4
Origin: DESOTO CHEMICAL COATINGS, INC.
1/CM	TRANSMITTANCE
200	0.952
210.651	0.956
221.302	0.97
231.953	0.982
242.604	0.997
253.255	1
263.905	1
274.556	0.982
285.207	0.98
295.858	0.97
306.509	0.949
317.16	0.916
327.811	0.858
338.462	0.834
349.113	0.817
359.764	0.778
370.415	0.6051
381.065	0.6239
391.716	0.682
402.367	0.6049
413.018	0.769
423.669	0.757
434.32	0.7101
444.971	0.588
455.622	0.414
466.273	0.429
476.924	0.474
487.574	0.548
498.225	0.565
508.876	0.557
519.527	0.616
530.178	0.7489
540.829	0.822
551.48	0.854
562.131	0.901
572.782	0.916
583.433	0.932
594.084	0.944
604.734	0.952
615.385	0.957
626.036	0.957
636.687	0.961
647.338	0.96
657.989	0.953
668.64	0.957
679.291	0.956
689.942	0.9291
700.593	0.862
711.244	0.929
721.894	0.932
732.545	0.91
743.196	0.91
753.847	0.89
764.498	0.838
775.149	0.674
785.8	0.629
796.451	0.5611
807.102	0.6209
817.753	0.78
828.403	0.778
839.054	0.672
849.705	0.56
860.356	0.498
871.007	0.508
881.658	0.532
892.309	0.549
902.96	0.6209
913.611	0.682
924.262	0.69
934.913	0.662
945.563	0.642
956.214	0.612
966.865	0.564
977.516	0.526
988.167	0.544
998.818	0.56
1009.47	0.569
1020.12	0.528
1030.77	0.5
1041.42	0.441
1052.07	0.389
1062.72	0.3221
1073.37	0.277
1084.03	0.238
1094.68	0.244
1105.33	0.28
1115.98	0.329
1126.63	0.372
1137.28	0.398
1147.93	0.41
1158.58	0.438
1169.23	0.438
1179.88	0.454
1190.53	0.501
1201.19	0.546
1211.84	0.58
1222.49	0.613
1233.14	0.63
1243.79	0.648
1254.44	0.658
1265.09	0.668
1275.74	0.674
1286.39	0.68
1297.04	0.689
1307.69	0.696
1318.35	0.7
1329	0.706
1339.65	0.709
1350.3	0.714
1360.95	0.72
1371.6	0.72
1382.25	0.722
1392.9	0.728
1403.55	0.728
1414.2	0.732
1424.85	0.73
1435.51	0.734
1446.16	0.736
1456.81	0.737
1467.46	0.737
1478.11	0.74
1488.76	0.741
1499.41	0.746
1510.06	0.742
1520.71	0.742
1531.36	0.742
1542.01	0.74
1552.67	0.738
1563.32	0.734
1573.97	0.738
1584.62	0.732
1595.27	0.718
1605.92	0.7
1616.57	0.686
1627.22	0.696
1637.87	0.713
1648.52	0.724
1659.17	0.726
1669.83	0.732
1680.48	0.734
1691.13	0.737
1701.78	0.742
1712.43	0.75
1723.08	0.742
1733.73	0.749
1744.38	0.752
1755.03	0.756
1765.68	0.756
1776.33	0.76
1786.99	0.753
1797.64	0.753
1808.29	0.754
1818.94	0.756
1829.59	0.757
1840.24	0.757
1850.89	0.76
1861.54	0.752
1872.19	0.752
1882.84	0.75
1893.49	0.746
1904.15	0.748
1914.8	0.748
1925.45	0.748
1936.1	0.748
1946.75	0.749
1957.4	0.745
1968.05	0.746
1978.7	0.745
1989.35	0.742
2000	0.744
2010.65	0.741
2021.31	0.738
2031.96	0.738
2042.61	0.736
2053.26	0.736
2063.91	0.7371
2074.56	0.738
2085.21	0.74
2095.86	0.738
2106.51	0.736
2117.16	0.7371
2127.81	0.736
2138.46	0.7371
2149.12	0.737
2159.77	0.7383
2170.42	0.738
2181.07	0.74
2191.72	0.7368
2202.37	0.736
2213.02	0.736
2223.67	0.7328
2234.32	0.73
2244.97	0.7315
2255.62	0.73
2266.28	0.7287
2276.93	0.728
2287.58	0.728
2298.23	0.7286
2308.88	0.7297
2319.53	0.7271
2330.18	0.721
2340.83	0.7217
2351.48	0.7193
2362.13	0.7127
2372.78	0.7093
2383.44	0.7094
2394.09	0.72
2404.74	0.721
2415.39	0.721
2426.04	0.721
2436.69	0.72
2447.34	0.718
2457.99	0.7176
2468.64	0.716
2479.29	0.717
2489.94	0.718
2500.6	0.718
2511.25	0.718
2521.9	0.7165
2532.55	0.716
2543.2	0.713
2553.85	0.71
2564.5	0.709
2575.15	0.708
2585.8	0.7084
2596.45	0.7069
2607.1	0.705
2617.76	0.704
2628.41	0.704
2639.06	0.7028
2649.71	0.702
2660.36	0.7006
2671.01	0.7
2681.66	0.7
2692.31	0.7
2702.96	0.698
2713.61	0.6993
2724.26	0.698
2734.92	0.696
2745.57	0.693
2756.22	0.6906
2766.87	0.689
2777.52	0.689
2788.17	0.688
2798.82	0.688
2809.47	0.688
2820.12	0.6865
2830.77	0.6824
2841.42	0.68
2852.08	0.6784
2862.73	0.6762
2873.38	0.676
2884.03	0.6762
2894.68	0.673
2905.33	0.673
2915.98	0.6681
2926.63	0.6583
2937.28	0.6579
2947.93	0.661
2958.58	0.662
2969.24	0.664
2979.89	0.664
2990.54	0.665
3001.19	0.666
3011.84	0.666
3022.49	0.665
3033.14	0.664
3043.79	0.661
3054.44	0.661
3065.09	0.662
3075.74	0.66
3086.4	0.66
3097.05	0.66
3107.7	0.658
3118.35	0.6571
3129	0.657
3139.65	0.656
3150.3	0.653
3160.95	0.65
3171.6	0.648
3182.25	0.644
3192.9	0.641
3203.56	0.638
3214.21	0.637
3224.86	0.6357
3235.51	0.6328
3246.16	0.6298
3256.81	0.628
3267.46	0.6236
3278.11	0.62
3288.76	0.617
3299.41	0.6121
3310.06	0.6075
3320.72	0.6043
3331.37	0.5967
3342.02	0.5875
3352.67	0.5792
3363.32	0.5711
3373.97	0.5607
3384.62	0.5474
3395.27	0.5394
3405.92	0.5297
3416.57	0.5167
3427.22	0.5097
3437.88	0.5056
3448.53	0.504
3459.18	0.502
3469.83	0.504
3480.48	0.506
3491.13	0.5084
3501.78	0.5134
3512.43	0.5174
3523.08	0.522
3533.73	0.529
3544.38	0.5365
3555.04	0.5434
3565.69	0.5495
3576.34	0.5565
3586.99	0.568
3597.64	0.577
3608.29	0.585
3618.94	0.5946
3629.59	0.5991
3640.24	0.608
3650.89	0.609
3661.54	0.6094
3672.2	0.6068
3682.85	0.609
3693.5	0.608
3704.15	0.61
3714.8	0.61
3725.45	0.609
3736.1	0.609
3746.75	0.61
3757.4	0.612
3768.05	0.6093
3778.7	0.608
3789.36	0.6066
3800.01	0.606
3810.66	0.606
3821.31	0.605
3831.96	0.605
3842.61	0.6043
3853.26	0.602
3863.91	0.6002
3874.56	0.6
3885.21	0.598
3895.86	0.598
3906.52	0.597
3917.17	0.596
3927.82	0.596
3938.47	0.594
3949.12	0.594
3959.77	0.592
3970.42	0.589
3981.07	0.5881
