Infrared Spectrum: 3-n-Butyrylcoumarin
Formula: C 13 H 12 O 3
CAS: 1846-73-7
State: gas
Origin: EPA-IR VAPOR PHASE LIBRARY
1/CM	ABSORBANCE
549.8	0.00595
559.445	0.00532
569.09	0.0067
578.734	0.00679
588.379	0.00435
598.024	0.00272
607.669	0.00198
617.313	0.00333
626.958	0.00482
636.603	0.0054
646.248	0.00315
655.893	0.00336
665.537	0.00215
675.182	0.00262
684.827	0.00194
694.472	0.00253
704.116	0.00274
713.761	0.00307
723.406	0.00489
733.051	0.00861
742.695	0.02077
752.34	0.04127
761.985	0.02175
771.63	0.00939
781.275	0.00923
790.919	0.00896
800.564	0.00536
810.209	0.00334
819.854	0.00294
829.498	0.00405
839.143	0.00351
848.788	0.00431
858.433	0.00504
868.078	0.00403
877.722	0.0037
887.367	0.00492
897.012	0.00701
906.657	0.00748
916.301	0.00892
925.946	0.01116
935.591	0.01171
945.236	0.01957
954.88	0.03628
964.525	0.03337
974.17	0.01551
983.815	0.00773
993.46	0.00482
1003.1	0.00421
1012.75	0.00323
1022.39	0.00516
1032.04	0.00593
1041.68	0.0036
1051.33	0.00349
1060.97	0.00436
1070.62	0.0034
1080.26	0.00513
1089.91	0.00652
1099.55	0.01164
1109.2	0.01538
1118.84	0.01873
1128.49	0.01254
1138.13	0.01263
1147.78	0.0164
1157.42	0.02792
1167.07	0.06499
1176.71	0.07929
1186.36	0.04988
1196	0.02838
1205.64	0.01595
1215.29	0.01561
1224.93	0.01764
1234.58	0.02173
1244.22	0.02364
1253.87	0.01735
1263.51	0.01348
1273.16	0.01328
1282.8	0.01304
1292.45	0.01195
1302.09	0.01037
1311.74	0.00974
1321.38	0.00843
1331.03	0.00663
1340.67	0.0073
1350.32	0.01102
1359.96	0.01479
1369.61	0.01253
1379.25	0.00894
1388.9	0.0072
1398.54	0.0068
1408.18	0.00622
1417.83	0.00606
1427.47	0.00755
1437.12	0.00908
1446.76	0.01407
1456.41	0.0177
1466.05	0.0105
1475.7	0.00758
1485.34	0.00779
1494.99	0.00614
1504.63	0.00416
1514.28	0.00384
1523.92	0.00444
1533.57	0.00528
1543.21	0.00787
1552.86	0.01891
1562.5	0.05069
1572.15	0.03645
1581.79	0.01285
1591.44	0.01761
1601.08	0.04321
1610.73	0.07747
1620.37	0.04737
1630.01	0.0143
1639.66	0.0077
1649.3	0.00634
1658.95	0.00671
1668.59	0.00828
1678.24	0.01192
1687.88	0.02169
1697.53	0.04044
1707.17	0.04312
1716.82	0.02757
1726.46	0.02456
1736.11	0.03101
1745.75	0.05204
1755.4	0.14292
1765.04	0.24019
1774.69	0.07926
1784.33	0.0238
1793.98	0.01272
1803.62	0.0086
1813.27	0.00666
1822.91	0.00576
1832.55	0.005
1842.2	0.00447
1851.84	0.00457
1861.49	0.0041
1871.13	0.00384
1880.78	0.00363
1890.42	0.00386
1900.07	0.00427
1909.71	0.00468
1919.36	0.00389
1929	0.00331
1938.65	0.00327
1948.29	0.00317
1957.94	0.00241
1967.58	0.00208
1977.23	0.00223
1986.87	0.00234
1996.52	0.00224
2006.16	0.00192
2015.81	0.00196
2025.45	0.00166
2035.1	0.00163
2044.74	0.00151
2054.38	0.00165
2064.03	0.0019
2073.67	0.0015
2083.32	0.00161
2092.96	0.00153
2102.61	0.00137
2112.25	0.00132
2121.9	0.0009556
2131.54	0.00133
2141.19	0.00116
2150.83	0.00127
2160.48	0.00116
2170.12	0.00118
2179.77	0.0013
2189.41	0.00134
2199.06	0.00139
2208.7	0.00126
2218.35	0.0009743
2227.99	0.00113
2237.64	0.0009927
2247.28	0.0008721
2256.92	0.0011
2266.57	0.00123
2276.21	0.00145
2285.86	0.00123
2295.5	0.0009399
2305.15	0.0009432
2314.79	0.00125
2324.44	0.00136
2334.08	0.00136
2343.73	0.00135
2353.37	0.00123
2363.02	0.00141
2372.66	0.00133
2382.31	0.00151
2391.95	0.00135
2401.6	0.00123
2411.24	0.00126
2420.89	0.00116
2430.53	0.0009362
2440.18	0.00101
2449.82	0.00124
2459.47	0.00136
2469.11	0.00133
2478.75	0.00158
2488.4	0.00129
2498.04	0.0012
2507.69	0.00172
2517.33	0.00105
2526.98	0.00151
2536.62	0.00122
2546.27	0.0007826
2555.91	0.00106
2565.56	0.00131
2575.2	0.00131
2584.85	0.0014
2594.49	0.0007254
2604.14	0.00103
2613.78	0.00106
2623.43	0.00106
2633.07	0.00112
2642.72	0.0011
2652.36	0.00102
2662.01	0.00135
2671.65	0.0009004
2681.29	0.000845
2690.94	0.0008347
2700.58	0.00105
2710.23	0.00104
2719.87	0.00111
2729.52	0.00121
2739.16	0.00102
2748.81	0.00144
2758.45	0.00107
2768.1	0.00132
2777.74	0.0016
2787.39	0.0013
2797.03	0.00151
2806.68	0.00145
2816.32	0.00163
2825.97	0.00173
2835.61	0.00176
2845.26	0.00256
2854.9	0.00355
2864.55	0.00477
2874.19	0.00752
2883.84	0.0107
2893.48	0.00946
2903.12	0.00795
2912.77	0.00865
2922.41	0.00949
2932.06	0.01178
2941.7	0.01624
2951.35	0.01669
2960.99	0.01791
2970.64	0.02503
2980.28	0.01926
2989.93	0.00937
2999.57	0.00573
3009.22	0.00393
3018.86	0.00319
3028.51	0.00282
3038.15	0.0037
3047.8	0.00449
3057.44	0.00479
3067.09	0.00555
3076.73	0.0078
3086.38	0.00555
3096.02	0.00374
3105.67	0.00249
3115.31	0.00206
3124.95	0.00162
3134.6	0.00139
3144.24	0.00145
3153.89	0.00114
3163.53	0.00106
3173.18	0.0008047
3182.82	0.00114
3192.47	0.00125
3202.11	0.00104
3211.76	0.00128
3221.4	0.00117
3231.05	0.0009655
3240.69	0.0006786
3250.34	0.0009738
3259.98	0.0012
3269.63	0.0011
3279.27	0.0006212
3288.92	0.0001817
3298.56	0.0009154
3308.21	0.00111
3317.85	0.0008782
3327.49	0.00136
3337.14	0.0009764
3346.78	0.00109
3356.43	0.0008189
3366.07	0.00172
3375.72	0.00169
3385.36	0.00162
3395.01	0.00174
3404.65	0.00111
3414.3	0.00111
3423.94	0.0009573
3433.59	0.0007334
3443.23	0.00111
3452.88	0.00104
3462.52	0.00128
3472.17	0.0009596
3481.81	0.00179
3491.46	0.00284
3501.1	0.00342
3510.75	0.00255
3520.39	0.0023
3530.04	0.00133
3539.68	0.00113
3549.32	0.00118
3558.97	0.00123
3568.61	0.00156
3578.26	0.0009322
3587.9	0.00138
3597.55	0.0008429
3607.19	0.0007036
3616.84	0.0007179
3626.48	0.0006876
3636.13	0.0009027
3645.77	0.00129
3655.42	0.000872
3665.06	0.00124
3674.71	0.00109
3684.35	0.00109
3694	0.0007528
3703.64	0.000268
3713.29	0.0004695
3722.93	0.00107
3732.58	0.00111
3742.22	0.0008505
3751.86	0.00118
3761.51	0.0009952
3771.15	0.0009304
3780.8	0.0006985
3790.44	0.00123
3800.09	0.000704
3809.73	0.00114
3819.38	0.0007951
3829.02	0.0004751
3838.67	0.0004152
3848.31	0.00107
3857.96	0.0009056
3867.6	0.00101
3877.25	0.001
3886.89	0.0009387
3896.54	0.000943
3906.18	0.00114
3915.83	0.0005971
3925.47	0.0008274
3935.12	0.0011
3944.76	0.00138
3954.41	0.0007218
3964.05	0.00117
3973.69	0.00129
3983.34	0.0008824
3992.98	0.00141
