Infrared Spectrum: D-Glucose, 4,6-O-ethylidene
Formula: C8 H14 O6
CAS: 18465-50-4
State: SOLID (SPLIT MULL), FLUOROLUBE FOR 3800-1330 CM^-^1, NUJOL FOR 1330-450 CM^-^1
Class: COBLENTZ III
Instrument: DOW KBr FOREPRISM-GRATING
Instrument parameters: BLAZED AT 3.5, 12.0, 20.0 MICRON AND CHANGED AT 5.0, 7.5, 14.9 MICRON
Sampling: TRANSMISSION
Resolution: 2
Origin: DOW CHEMICAL COMPANY
1/CM	TRANSMITTANCE
456	0.6278
465	0.6408
474	0.6532
483	0.6608
492	0.661
501	0.6564
510	0.6269
519	0.5253
528	0.5854
537	0.5406
546	0.5298
555	0.368
564	0.5984
573	0.5947
582	0.546
591	0.4003
600	0.6322
609	0.6456
618	0.6606
627	0.6468
636	0.5562
645	0.6961
654	0.7301
663	0.7444
672	0.641
681	0.7165
690	0.7693
699	0.8021
708	0.803
717	0.7658
726	0.7822
735	0.801
744	0.7608
753	0.4345
762	0.6668
771	0.8011
780	0.841
789	0.8502
798	0.8491
807	0.8464
816	0.8421
825	0.8243
834	0.5973
843	0.7901
852	0.7868
861	0.7517
870	0.527
879	0.1478
888	0.5504
897	0.7645
906	0.7558
915	0.5103
924	0.7728
933	0.6857
942	0.8021
951	0.7915
960	0.76
969	0.6968
978	0.5859
987	0.1299
996	0.398
1005	0.5282
1014	0.1664
1023	0.0351
1032	0.2354
1041	0.4872
1050	0.3532
1059	0.0724
1068	0.1842
1077	0.0768
1086	0.1604
1095	0.1587
1104	0.0284
1113	0.1346
1122	0.0879
1131	0.0979
1140	0.1739
1149	0.4248
1158	0.1476
1167	0.4094
1176	0.6046
1185	0.7296
1194	0.7422
1203	0.7282
1212	0.6483
1221	0.6461
1230	0.4737
1239	0.5827
1248	0.4818
1257	0.6665
1266	0.7203
1275	0.6655
1284	0.4819
1293	0.7167
1302	0.7249
1311	0.6594
1320	0.6986
1329	0.7095
1338	0.2599
1347	0.341
1356	0.5476
1365	0.4384
1374	0.2194
1383	0.3925
1392	0.3394
1401	0.4318
1410	0.4103
1419	0.6242
1428	0.6421
1437	0.6543
1446	0.6584
1455	0.6678
1464	0.7062
1473	0.7097
1482	0.7837
1491	0.82
1500	0.8358
1509	0.8454
1518	0.8523
1527	0.8574
1536	0.8617
1545	0.8638
1554	0.8653
1563	0.8667
1572	0.8662
1581	0.8671
1590	0.868
1599	0.8654
1608	0.861
1617	0.8555
1626	0.8536
1635	0.854
1644	0.8525
1653	0.8538
1662	0.8468
1671	0.8459
1680	0.851
1689	0.8506
1698	0.8474
1707	0.8401
1716	0.8289
1725	0.8302
1734	0.8325
1743	0.8237
1752	0.8285
1761	0.8344
1770	0.8344
1779	0.833
1788	0.8327
1797	0.8325
1806	0.8325
1815	0.8325
1824	0.8315
1833	0.8304
1842	0.8288
1851	0.8261
1860	0.8239
1869	0.8241
1878	0.8218
1887	0.8204
1896	0.8186
1905	0.8148
1914	0.8128
1923	0.8201
1932	0.8198
1941	0.8157
1950	0.8135
1959	0.8223
1968	0.8008
1977	0.8007
1986	0.7998
1995	0.8072
2004	0.8396
2013	0.8381
2022	0.8362
2031	0.8325
2040	0.8268
2049	0.8185
2058	0.8186
2067	0.8188
2076	0.8171
2085	0.8134
2094	0.8087
2103	0.8004
2112	0.7954
2121	0.7965
2130	0.7972
2139	0.796
2148	0.7925
2157	0.7883
2166	0.7832
2175	0.7776
2184	0.7732
2193	0.7747
2202	0.774
2211	0.7703
2220	0.7641
2229	0.7571
2238	0.75
2247	0.743
2256	0.7369
2265	0.7311
2274	0.7261
2283	0.7218
2292	0.7178
2301	0.7158
2310	0.718
2319	0.72
2328	0.7201
2337	0.7187
2346	0.7178
2355	0.7155
2364	0.7133
2373	0.7115
2382	0.7115
2391	0.711
2400	0.7096
2409	0.7064
2418	0.7033
2427	0.7
2436	0.6965
2445	0.6925
2454	0.6888
2463	0.6848
2472	0.681
2481	0.6788
2490	0.6782
2499	0.6765
2508	0.6744
2517	0.6703
2526	0.6656
2535	0.6651
2544	0.6654
2553	0.6653
2562	0.6642
2571	0.6607
2580	0.6562
2589	0.6511
2598	0.6453
2607	0.6384
2616	0.6308
2625	0.623
2634	0.615
2643	0.6069
2652	0.5975
2661	0.5879
2670	0.5804
2679	0.5815
2688	0.581
2697	0.5751
2706	0.5664
2715	0.5582
2724	0.5504
2733	0.5442
2742	0.538
2751	0.5324
2760	0.529
2769	0.5248
2778	0.5169
2787	0.5034
2796	0.4905
2805	0.4769
2814	0.4747
2823	0.4715
2832	0.4467
2841	0.4076
2850	0.3293
2859	0.2657
2868	0.2664
2877	0.2863
2886	0.2564
2895	0.3775
2904	0.3553
2913	0.255
2922	0.3033
2931	0.227
2940	0.3716
2949	0.2898
2958	0.4201
2967	0.4831
2976	0.2712
2985	0.5244
2994	0.52
3003	0.4477
3012	0.5149
3021	0.5257
3030	0.5212
3039	0.51
3048	0.4969
3057	0.48
3066	0.4651
3075	0.4477
3084	0.4281
3093	0.4062
3102	0.3844
3111	0.3656
3120	0.3471
3129	0.3248
3138	0.3026
3147	0.2804
3156	0.2582
3165	0.2359
3174	0.2137
3183	0.1914
3192	0.1729
3201	0.1532
3210	0.1318
3219	0.1184
3228	0.1056
3237	0.0937
3246	0.0843
3255	0.0786
3264	0.0758
3273	0.0746
3282	0.0744
3291	0.0759
3300	0.079
3309	0.0826
3318	0.0888
3327	0.0954
3336	0.1032
3345	0.1112
3354	0.1171
3363	0.1212
3372	0.1228
3381	0.1228
3390	0.1219
3399	0.1209
3408	0.121
3417	0.1269
3426	0.1414
3435	0.1534
3444	0.1486
3453	0.1285
3462	0.0925
3471	0.054
3480	0.0389
3489	0.056
3498	0.1538
3507	0.3063
3516	0.4385
3525	0.5552
3534	0.6143
3543	0.6844
3552	0.7292
3561	0.7645
3570	0.7625
3579	0.7871
3588	0.7942
3597	0.7928
3606	0.7896
3615	0.7854
3624	0.7807
3633	0.7753
3642	0.77
3651	0.7647
3660	0.7592
3669	0.7533
3678	0.7474
3687	0.7417
3696	0.7362
3705	0.7319
3714	0.7271
3723	0.7215
3732	0.7161
3741	0.7106
3750	0.7065
3759	0.7028
3768	0.699
3777	0.6949
3786	0.6914
3795	0.6878
