Infrared Spectrum: Ethyl coumarin-3-carboxylate
Formula: C 12 H 10 O 4
CAS: 1846-76-0
State: gas
Origin: EPA-IR VAPOR PHASE LIBRARY
1/CM	ABSORBANCE
549.8	0.001765
559.445	0.002235
569.09	0.002435
578.734	0.006165
588.379	0.006095
598.024	0.003705
607.669	0.003375
617.313	0.005055
626.958	0.005695
636.603	0.002835
646.248	0.001725
655.893	0.0012707
665.537	0.0013396
675.182	0.0013492
684.827	0.0011043
694.472	0.001575
704.116	0.0014817
713.761	0.001885
723.406	0.002405
733.051	0.004685
742.695	0.017605
752.34	0.035365
761.985	0.021565
771.63	0.009325
781.275	0.008475
790.919	0.010435
800.564	0.009555
810.209	0.006615
819.854	0.004815
829.498	0.003935
839.143	0.004845
848.788	0.006865
858.433	0.007835
868.078	0.005625
877.722	0.003905
887.367	0.002915
897.012	0.003085
906.657	0.004105
916.301	0.008845
925.946	0.009525
935.591	0.007505
945.236	0.012245
954.88	0.018685
964.525	0.023795
974.17	0.028395
983.815	0.022205
993.46	0.015005
1003.1	0.016085
1012.75	0.027085
1022.39	0.044655
1032.04	0.049445
1041.68	0.026075
1051.33	0.013435
1060.97	0.009015
1070.62	0.007025
1080.26	0.007875
1089.91	0.010185
1099.55	0.013845
1109.2	0.015825
1118.84	0.018035
1128.49	0.014805
1138.13	0.008985
1147.78	0.009515
1157.42	0.011425
1167.07	0.009525
1176.71	0.010045
1186.36	0.016015
1196	0.034045
1205.64	0.067745
1215.29	0.086555
1224.93	0.043395
1234.58	0.068205
1244.22	0.126065
1253.87	0.083415
1263.51	0.076705
1273.16	0.027055
1282.8	0.022825
1292.45	0.046225
1302.09	0.054835
1311.74	0.032355
1321.38	0.013625
1331.03	0.008075
1340.67	0.006165
1350.32	0.007125
1359.96	0.012625
1369.61	0.020505
1379.25	0.011435
1388.9	0.006505
1398.54	0.005755
1408.18	0.004975
1417.83	0.004435
1427.47	0.004785
1437.12	0.005675
1446.76	0.010355
1456.41	0.014765
1466.05	0.011665
1475.7	0.009645
1485.34	0.008705
1494.99	0.006425
1504.63	0.004265
1514.28	0.003715
1523.92	0.003525
1533.57	0.003265
1543.21	0.003785
1552.86	0.005925
1562.5	0.016065
1572.15	0.026415
1581.79	0.012455
1591.44	0.011925
1601.08	0.023995
1610.73	0.035125
1620.37	0.045135
1630.01	0.038555
1639.66	0.013535
1649.3	0.007385
1658.95	0.005885
1668.59	0.006065
1678.24	0.007145
1687.88	0.008695
1697.53	0.010595
1707.17	0.014985
1716.82	0.025655
1726.46	0.045555
1736.11	0.051915
1745.75	0.039855
1755.4	0.037095
1765.04	0.057395
1774.69	0.142975
1784.33	0.186315
1793.98	0.098415
1803.62	0.055165
1813.27	0.023985
1822.91	0.012395
1832.55	0.008035
1842.2	0.006185
1851.84	0.005385
1861.49	0.005045
1871.13	0.004635
1880.78	0.004145
1890.42	0.003785
1900.07	0.004115
1909.71	0.003995
1919.36	0.003885
1929	0.003565
1938.65	0.003755
1948.29	0.003825
1957.94	0.002595
1967.58	0.002385
1977.23	0.002105
1986.87	0.001965
1996.52	0.001815
2006.16	0.001695
2015.81	0.001595
2025.45	0.0014777
2035.1	0.001595
2044.74	0.001595
2054.38	0.001695
2064.03	0.001685
2073.67	0.001785
2083.32	0.001875
2092.96	0.001735
2102.61	0.001685
2112.25	0.001665
2121.9	0.0013364
2131.54	0.001625
2141.19	0.001482
2150.83	0.0014534
2160.48	0.0014609
2170.12	0.0014306
2179.77	0.0014107
2189.41	0.0013528
2199.06	0.0011595
2208.7	0.0010158
2218.35	0.0010948
2227.99	0.0010254
2237.64	0.0011375
2247.28	0.0011128
2256.92	0.0009409
2266.57	0.0010967
2276.21	0.001015
2285.86	0.0011413
2295.5	0.0008427
2305.15	0.0009485
2314.79	0.0009919
2324.44	0.0009513
2334.08	0.0007612
2343.73	0.0009067
2353.37	0.0010691
2363.02	0.0011447
2372.66	0.0013511
2382.31	0.0012052
2391.95	0.0011995
2401.6	0.0011448
2411.24	0.001059
2420.89	0.0014024
2430.53	0.0011522
2440.18	0.0010328
2449.82	0.0010875
2459.47	0.0013421
2469.11	0.0013876
2478.75	0.001565
2488.4	0.0013273
2498.04	0.0013576
2507.69	0.0011667
2517.33	0.0009845
2526.98	0.0009096
2536.62	0.001303
2546.27	0.0008453
2555.91	0.0010638
2565.56	0.0012039
2575.2	0.0010898
2584.85	0.0012856
2594.49	0.0009986
2604.14	0.000999
2613.78	0.0008027
2623.43	0.0008956
2633.07	0.000883
2642.72	0.0007689
2652.36	0.0010709
2662.01	0.000806
2671.65	0.00060672
2681.29	0.00061822
2690.94	0.0009965
2700.58	0.0009706
2710.23	0.0009157
2719.87	0.0009936
2729.52	0.0010206
2739.16	0.0012788
2748.81	0.0012695
2758.45	0.0008996
2768.1	0.0011249
2777.74	0.001174
2787.39	0.0011481
2797.03	0.000764
2806.68	0.0011491
2816.32	0.0009662
2825.97	0.0013955
2835.61	0.0011143
2845.26	0.0012494
2854.9	0.001625
2864.55	0.001805
2874.19	0.002235
2883.84	0.002895
2893.48	0.003495
2903.12	0.003715
2912.77	0.004555
2922.41	0.004375
2932.06	0.005375
2941.7	0.008295
2951.35	0.007665
2960.99	0.005985
2970.64	0.008125
2980.28	0.012785
2989.93	0.015345
2999.57	0.009605
3009.22	0.006935
3018.86	0.004585
3028.51	0.003445
3038.15	0.004035
3047.8	0.004075
3057.44	0.004965
3067.09	0.005625
3076.73	0.006795
3086.38	0.006145
3096.02	0.003195
3105.67	0.002215
3115.31	0.0012868
3124.95	0.001076
3134.6	0.0009327
3144.24	0.001016
3153.89	0.0010052
3163.53	0.0008373
3173.18	0.0007091
3182.82	0.000423
3192.47	0.0007733
3202.11	0.000406
3211.76	0.0007247
3221.4	0.0007077
3231.05	0.0008801
3240.69	0.0005231
3250.34	0.0007745
3259.98	0.000369
3269.63	0.000299
3279.27	0.000388
3288.92	0.00053255
3298.56	0.000451
3308.21	0.000277
3317.85	0.00055049
3327.49	0.000317
3337.14	0.000354
3346.78	0.000285
3356.43	0.0004774
3366.07	0.00043
3375.72	0.00055364
3385.36	0.0006738
3395.01	0.00074
3404.65	0.0007883
3414.3	0.0004989
3423.94	0.000376
3433.59	0.0011039
3443.23	0.0007375
3452.88	0.0004517
3462.52	0.0008764
3472.17	0.0013468
3481.81	0.0014635
3491.46	0.0009204
3501.1	0.0009796
3510.75	0.001068
3520.39	0.0012966
3530.04	0.001545
3539.68	0.002125
3549.32	0.002085
3558.97	0.0015235
3568.61	0.0011896
3578.26	0.0011808
3587.9	0.0010241
3597.55	0.0008477
3607.19	0.0007513
3616.84	0.000768
3626.48	0.0007907
3636.13	0.000418
3645.77	0.000408
3655.42	0.0007524
3665.06	0.0007265
3674.71	0.000535524
3684.35	0.0007083
3694	0.00048
3703.64	0.000355
3713.29	0.0006407
3722.93	0.000585
3732.58	0.00058085
3742.22	0.000540884
3751.86	0.0004868
3761.51	0.00053291
3771.15	0.0005201
3780.8	0.000495
3790.44	0.00062085
3800.09	0.0004461
3809.73	0.000232
3819.38	0.000236
3829.02	0.000249
3838.67	0.00056192
3848.31	0.000206
3857.96	0.000213
3867.6	0.0007037
3877.25	0.000714
3886.89	0.0010701
3896.54	0.000267
3906.18	0.000534129
3915.83	0.0007502
3925.47	0.0006519
3935.12	0.0008478
3944.76	0.0004599
3954.41	0.000426
3964.05	0.0007136
3973.69	0.0006868
3983.34	0.0010791
3992.98	0.0009705
