Infrared Spectrum: 2-Morpholinone, 4,6-dimethyl-,
Formula: C6 H11 N O2
CAS: 18484-89-4
State: LIQUID (NEAT)
Boiling point: 116 C
Class: COBLENTZ III
Instrument: BAIRD (GRATING)
Instrument parameters: NaCl PRISM
Path length: 0.003 CM
Resolution: 2
Origin: WYANDOTTE CHEMICALS CORP.
1/CM	TRANSMITTANCE
626	0.6544
635	0.7338
644	0.7769
653	0.8067
662	0.8028
671	0.836
680	0.805
689	0.8715
698	0.8888
707	0.8997
716	0.9086
725	0.9204
734	0.9253
743	0.9235
752	0.9252
761	0.9273
770	0.9261
779	0.9224
788	0.8796
797	0.7731
806	0.5334
815	0.4012
824	0.8143
833	0.8824
842	0.8934
851	0.8699
860	0.7752
869	0.8349
878	0.7845
887	0.3974
896	0.3242
905	0.316
914	0.7493
923	0.8256
932	0.8136
941	0.697
950	0.8067
959	0.8015
968	0.7203
977	0.5154
986	0.0576
995	0.2075
1004	0.669
1013	0.7868
1022	0.7974
1031	0.7531
1040	0.5444
1049	0.3682
1058	0.2304
1067	0.0591
1076	0.2213
1085	0.5733
1094	0.5668
1103	0.345
1112	0.4626
1121	0.4896
1130	0.2605
1139	0.0884
1148	0.0439
1157	0.0459
1166	0.0826
1175	0.4498
1184	0.5284
1193	0.3523
1202	0.0884
1211	0.366
1220	0.4969
1229	0.2001
1238	0.054
1247	0.0432
1256	0.0524
1265	0.039
1274	0.0679
1283	0.053
1292	0.1187
1301	0.3756
1310	0.4675
1319	0.3236
1328	0.5309
1337	0.6486
1346	0.4588
1355	0.1372
1364	0.1155
1373	0.1361
1382	0.1497
1391	0.1985
1400	0.3404
1409	0.5286
1418	0.6443
1427	0.5492
1436	0.5873
1445	0.507
1454	0.2096
1463	0.1203
1472	0.189
1481	0.4505
1490	0.7608
1499	0.8219
1508	0.8578
1517	0.8695
1526	0.8597
1535	0.8745
1544	0.8867
1553	0.9057
1562	0.9057
1571	0.8985
1580	0.8895
1589	0.8835
1598	0.889
1607	0.8903
1616	0.8732
1625	0.8195
1634	0.7917
1643	0.8017
1652	0.8061
1661	0.7918
1670	0.7499
1679	0.7125
1688	0.6445
1697	0.5595
1706	0.4844
1715	0.3478
1724	0.1527
1733	0.0428
1742	0.0392
1751	0.0353
1760	0.181
1769	0.3305
1778	0.4107
1787	0.4437
1796	0.5389
1805	0.7146
1814	0.8124
1823	0.8717
1832	0.8972
1841	0.9046
1850	0.9065
1859	0.9058
1868	0.9069
1877	0.9128
1886	0.9298
1895	0.9527
1904	0.9646
1913	0.9627
1922	0.9599
1931	0.9541
1940	0.9463
1949	0.9491
1958	0.961
1967	0.9646
1976	0.9603
1985	0.9643
1994	0.9638
2003	0.9584
2012	0.9495
2021	0.9398
2030	0.9373
2039	0.9483
2048	0.9574
2057	0.965
2066	0.9708
2075	0.9727
2084	0.9732
2093	0.9731
2102	0.9712
2111	0.9665
2120	0.9616
2129	0.9536
2138	0.9417
2147	0.9385
2156	0.9477
2165	0.9596
2174	0.9611
2183	0.9593
2192	0.957
2201	0.9568
2210	0.9607
2219	0.9645
2228	0.9654
2237	0.9604
2246	0.954
2255	0.9476
2264	0.9455
2273	0.9459
2282	0.9463
2291	0.9461
2300	0.9459
2309	0.9456
2318	0.945
2327	0.9442
2336	0.9429
2345	0.9376
2354	0.9338
2363	0.9344
2372	0.9376
2381	0.9417
2390	0.9423
2399	0.9422
2408	0.9414
2417	0.9407
2426	0.9381
2435	0.935
2444	0.9298
2453	0.9234
2462	0.9159
2471	0.9112
2480	0.9113
2489	0.9137
2498	0.9204
2507	0.9284
2516	0.93
2525	0.9306
2534	0.9301
2543	0.9292
2552	0.9271
2561	0.9212
2570	0.9122
2579	0.9093
2588	0.9073
2597	0.9048
2606	0.9014
2615	0.8959
2624	0.8854
2633	0.8656
2642	0.8256
2651	0.8037
2660	0.7961
2669	0.7898
2678	0.7753
2687	0.7504
2696	0.6972
2705	0.6241
2714	0.5413
2723	0.459
2732	0.3772
2741	0.296
2750	0.2004
2759	0.1716
2768	0.1637
2777	0.1595
2786	0.188
2795	0.3711
2804	0.4289
2813	0.4185
2822	0.3938
2831	0.3765
2840	0.4206
2849	0.4557
2858	0.4686
2867	0.4826
2876	0.496
2885	0.4979
2894	0.4456
2903	0.3767
2912	0.3083
2921	0.2404
2930	0.1811
2939	0.1777
2948	0.2241
2957	0.284
2966	0.2591
2975	0.2015
2984	0.2968
2993	0.4272
3002	0.5569
3011	0.6859
3020	0.7971
3029	0.8353
3038	0.8647
3047	0.8763
3056	0.8851
3065	0.8902
3074	0.8941
3083	0.8965
3092	0.8982
3101	0.9004
3110	0.9062
3119	0.9128
3128	0.9153
3137	0.9163
3146	0.9154
3155	0.9127
3164	0.9091
3173	0.9075
3182	0.9082
3191	0.9093
3200	0.9106
3209	0.9132
3218	0.916
3227	0.9189
3236	0.9215
3245	0.9235
3254	0.9254
3263	0.9267
3272	0.9277
3281	0.9289
3290	0.9276
3299	0.927
3308	0.9258
3317	0.9241
3326	0.9221
3335	0.9201
3344	0.9177
3353	0.9134
3362	0.9076
3371	0.8981
3380	0.8871
3389	0.8758
3398	0.8648
3407	0.8555
3416	0.8515
3425	0.8513
3434	0.8525
3443	0.8578
3452	0.8741
3461	0.8876
3470	0.9001
3479	0.9118
3488	0.9197
3497	0.9241
3506	0.9271
3515	0.9291
3524	0.9305
3533	0.9336
3542	0.9396
3551	0.9465
3560	0.9514
3569	0.9545
3578	0.9561
3587	0.9578
3596	0.9585
3605	0.9591
3614	0.9596
3623	0.9599
3632	0.9602
3641	0.9605
3650	0.9608
3659	0.961
3668	0.9611
3677	0.9613
3686	0.9613
3695	0.9615
3704	0.9616
3713	0.9617
3722	0.9619
3731	0.9626
3740	0.9637
3749	0.9655
3758	0.9667
3767	0.9672
3776	0.9669
3785	0.9664
3794	0.9656
3803	0.9646
3812	0.9635
3821	0.962
3830	0.9604
3839	0.9589
3848	0.9572
3857	0.9553
3866	0.9534
3875	0.9516
3884	0.9498
3893	0.9485
3902	0.9473
3911	0.9462
3920	0.9452
3929	0.9446
3938	0.9447
3947	0.9447
3956	0.9447
3965	0.9446
3974	0.9443
3983	0.944
3992	0.9429
