Infrared Spectrum: BENZENETHIOL, 4-NITRO-
Formula: C6 H5 N O2 S
CAS: 1849-36-1
State: SOLUTION (SATURATED IN CS2 FOR 3800-450 CM^-^1)
Class: COBLENTZ
Instrument: DOW KBr FOREPRISM-GRATING
Instrument parameters: BLAZED AT 3.5, 12.0, 20.0 MICRON AND CHANGED AT 5.0, 7.5, 14.9 MICRON
Sampling: TRANSMISSION
Path length: 0.011 CM
Resolution: 2
Origin: DOW CHEMICAL COMPANY
1/CM	TRANSMITTANCE
450	0.7887
459	0.7906
468	0.8124
477	0.8757
486	0.8935
495	0.893
504	0.8897
513	0.8825
522	0.8593
531	0.745
540	0.9274
549	0.9477
558	0.9517
567	0.9521
576	0.9518
585	0.9525
594	0.9538
603	0.9521
612	0.9471
621	0.9368
630	0.9259
639	0.9148
648	0.8951
657	0.8937
666	0.9336
675	0.8858
684	0.8827
693	0.9593
702	0.9593
711	0.9539
720	0.9401
729	0.8778
738	0.4425
747	0.872
756	0.9667
765	0.9766
774	0.9745
783	0.9675
792	0.9595
801	0.9528
810	0.9407
819	0.9175
828	0.8871
837	0.4862
846	0.5582
855	0.2984
864	0.8058
873	0.8539
882	0.8881
891	0.9267
900	0.9414
909	0.9352
918	0.9007
927	0.8766
936	0.9381
945	0.9411
954	0.9186
963	0.9689
972	0.9748
981	0.9765
990	0.976
999	0.9735
1008	0.9431
1017	0.7621
1026	0.9731
1035	0.9618
1044	0.9518
1053	0.9478
1062	0.9477
1071	0.9447
1080	0.922
1089	0.9157
1098	0.5951
1107	0.6475
1116	0.9287
1125	0.9713
1134	0.9743
1143	0.9709
1152	0.9721
1161	0.9652
1170	0.9536
1179	0.8549
1188	0.9423
1197	0.9489
1206	0.9504
1215	0.9578
1224	0.9678
1233	0.9787
1242	0.9704
1251	0.9645
1260	0.9587
1269	0.9508
1278	0.932
1287	0.9378
1296	0.9424
1305	0.9251
1314	0.8054
1323	0.7598
1332	0.5512
1341	0.0091
1350	0.4474
1359	0.5896
1368	0.7595
1377	0.7826
1386	0.7083
1395	0.7381
1404	0.6296
1413	0.4844
1422	0.348
1431	0.2036
1440	0.0568
1449	0.0114
1458	0.0052
1467	0.0055
1476	0.0057
1485	0.0059
1494	0.0061
1503	0.0062
1512	0.0064
1521	0.0066
1530	0.0068
1539	0.007
1548	0.0072
1557	0.0073
1566	0.0077
1575	0.0109
1584	0.0259
1593	0.1331
1602	0.104
1611	0.5412
1620	0.6919
1629	0.7591
1638	0.7911
1647	0.8061
1656	0.8628
1665	0.9002
1674	0.9335
1683	0.9481
1692	0.9575
1701	0.9639
1710	0.9661
1719	0.9682
1728	0.9714
1737	0.9731
1746	0.9748
1755	0.9744
1764	0.9731
1773	0.9691
1782	0.9615
1791	0.9809
1800	0.9834
1809	0.9835
1818	0.9815
1827	0.9713
1836	0.9675
1845	0.9823
1854	0.9816
1863	0.9802
1872	0.9782
1881	0.9766
1890	0.9748
1899	0.969
1908	0.9488
1917	0.9508
1926	0.9824
1935	0.986
1944	0.9858
1953	0.9832
1962	1.0071
1971	0.988
1980	0.9889
1989	0.9859
1998	0.9828
2007	0.9808
2016	0.9808
2025	0.9803
2034	0.9797
2043	0.9785
2052	0.9764
2061	0.9687
2070	0.9578
2079	0.9447
2088	0.9197
2097	0.8734
2106	0.8213
2115	0.6704
2124	0.5665
2133	0.3107
2142	0.0341
2151	0.0123
2160	0.0075
2169	0.0092
2178	0.0171
2187	0.0398
2196	0.162
2205	0.4571
2214	0.7031
2223	0.8172
2232	0.8585
2241	0.9177
2250	0.9315
2259	0.9292
2268	0.9148
2277	0.8707
2286	0.765
2295	0.4924
2304	0.2705
2313	0.5343
2322	0.6712
2331	0.7457
2340	0.8203
2349	0.8986
2358	0.9453
2367	0.9606
2376	0.9714
2385	0.9738
2394	0.9739
2403	0.9738
2412	0.9736
2421	0.9715
2430	0.9654
2439	0.9582
2448	0.9575
2457	0.9642
2466	0.9734
2475	0.9755
2484	0.9755
2493	0.9755
2502	0.9753
2511	0.974
2520	0.9731
2529	0.9723
2538	0.9714
2547	0.9696
2556	0.9625
2565	0.9399
2574	0.8915
2583	0.9073
2592	0.9546
2601	0.9612
2610	0.9653
2619	0.9645
2628	0.9684
2637	0.9765
2646	0.9762
2655	0.9743
2664	0.9721
2673	0.9702
2682	0.9694
2691	0.9695
2700	0.9701
2709	0.9714
2718	0.9741
2727	0.9736
2736	0.9691
2745	0.9612
2754	0.9528
2763	0.9447
2772	0.9362
2781	0.9247
2790	0.9128
2799	0.8771
2808	0.8937
2817	0.9301
2826	0.9321
2835	0.9308
2844	0.9323
2853	0.9385
2862	0.9458
2871	0.9478
2880	0.9468
2889	0.943
2898	0.9361
2907	0.919
2916	0.8992
2925	0.8989
2934	0.9157
2943	0.9377
2952	0.946
2961	0.9478
2970	0.9503
2979	0.9531
2988	0.9551
2997	0.9556
3006	0.956
3015	0.9545
3024	0.9509
3033	0.9465
3042	0.9412
3051	0.933
3060	0.921
3069	0.9009
3078	0.9146
3087	0.9254
3096	0.9077
3105	0.9175
3114	0.933
3123	0.9394
3132	0.9451
3141	0.9486
3150	0.9506
3159	0.9509
3168	0.9505
3177	0.9491
3186	0.9471
3195	0.9464
3204	0.951
3213	0.9547
3222	0.9584
3231	0.9607
3240	0.9624
3249	0.9635
3258	0.967
3267	0.9649
3276	0.965
3285	0.9651
3294	0.9645
3303	0.9635
3312	0.9624
3321	0.9613
3330	0.9602
3339	0.959
3348	0.9578
3357	0.9564
3366	0.9555
3375	0.9552
3384	0.9549
3393	0.9548
3402	0.9557
3411	0.9566
3420	0.958
3429	0.96
3438	0.9621
3447	0.9633
3456	0.9643
3465	0.9653
3474	0.9662
3483	0.9671
3492	0.9685
3501	0.9698
3510	0.9735
3519	0.9763
3528	0.9773
3537	0.9775
3546	0.978
3555	0.9793
3564	0.9807
3573	0.982
3582	0.9834
3591	0.9845
3600	0.9853
3609	0.9862
3618	0.9873
3627	0.9893
3636	0.9915
3645	0.9927
3654	0.9918
3663	0.9884
3672	0.984
3681	0.9817
3690	0.9809
3699	0.9824
3708	0.9858
3717	0.9875
3726	0.9886
3735	0.9899
3744	0.9896
3753	0.9785
3762	0.9846
3771	0.9895
3780	0.9902
3789	0.9613
3798	0.8742
