Infrared Spectrum: Spiro[2.5]octane
Formula: C 8 H 14
CAS: 185-65-9
State: gas
Instrument: HP-GC/MS/IRD
Origin: NIST Mass Spectrometry Data Center
1/CM	ABSORBANCE
550	0.0001824
562	0.0001653
574	0.000114
586	0.0001368
598	3.99e-05
610	7.41e-05
622	4.56e-05
634	5.7e-06
646	4.56e-05
658	0.0001596
670	0.0004047
682	0.0005529
694	0.000342
706	0.000114
718	6.27e-05
730	2.85e-05
742	3.99e-05
754	1.14e-05
766	8.55e-05
778	7.41e-05
790	0.0001425
802	0.0002394
814	0.000399
826	0.0007524
838	0.0012768
850	0.0009405
862	0.0005016
874	0.0007182
886	0.0010203
898	0.0013224
910	0.0015561
922	0.002337
934	0.0020976
946	0.0009918
958	0.0005643
970	0.0004959
982	0.000399
994	0.0012312
1006	0.0026334
1018	0.002508
1030	0.0011856
1042	0.0006327
1054	0.0002508
1066	0.0001596
1078	0.000114
1090	7.98e-05
1102	0.0002622
1114	0.0004161
1126	0.000342
1138	0.000228
1150	0.0001995
1162	0.000171
1174	0.0001254
1186	8.55e-05
1198	0.0001083
1210	6.84e-05
1222	0.0001083
1234	0.0002679
1246	0.0004959
1258	0.0006213
1270	0.0004503
1282	0.000342
1294	0.0004104
1306	0.0005814
1318	0.0005814
1330	0.0003306
1342	0.0001995
1354	0.0002451
1366	0.0003819
1378	0.0004332
1390	0.0003306
1402	0.0004275
1414	0.0009462
1426	0.0022116
1438	0.0038133
1450	0.0047994
1462	0.0036537
1474	0.0017556
1486	0.0004446
1498	0.0001539
1510	7.41e-05
1522	4.56e-05
1534	3.42e-05
1546	6.84e-05
1558	9.69e-05
1570	9.69e-05
1582	8.55e-05
1594	5.13e-05
1606	2.85e-05
1618	2.28e-05
1630	1.71e-05
1642	2.28e-05
1654	2.85e-05
1666	2.85e-05
1678	5.7e-05
1690	5.13e-05
1702	6.27e-05
1714	5.7e-05
1726	6.27e-05
1738	5.7e-05
1750	3.99e-05
1762	3.42e-05
1774	7.41e-05
1786	0.0001254
1798	0.0001539
1810	0.0001425
1822	0.000114
1834	0.0001254
1846	8.55e-05
1858	5.13e-05
1870	3.99e-05
1882	4.56e-05
1894	5.7e-05
1906	0.0001254
1918	0.0001767
1930	0.0001881
1942	0.0001539
1954	0.0001254
1966	9.12e-05
1978	7.98e-05
1990	6.27e-05
2002	0.0001026
2014	0.0001596
2026	0.0002223
2038	0.0003021
2050	0.0003363
2062	0.0001995
2074	0.0001596
2086	0.0001311
2098	7.41e-05
2110	3.99e-05
2122	5.7e-05
2134	3.99e-05
2146	6.27e-05
2158	5.7e-05
2170	5.7e-05
2182	5.13e-05
2194	3.99e-05
2206	3.99e-05
2218	3.99e-05
2230	3.42e-05
2242	3.99e-05
2254	3.42e-05
2266	1.71e-05
2278	1.14e-05
2290	3.42e-05
2302	3.42e-05
2314	3.99e-05
2326	3.99e-05
2338	2.85e-05
2350	1.71e-05
2362	4.56e-05
2374	6.27e-05
2386	8.55e-05
2398	5.7e-05
2410	5.7e-05
2422	2.85e-05
2434	3.42e-05
2446	6.27e-05
2458	9.12e-05
2470	9.69e-05
2482	9.12e-05
2494	7.41e-05
2506	2.28e-05
2518	1.14e-05
2530	1.14e-05
2542	6.27e-05
2554	4.56e-05
2566	7.98e-05
2578	0.0001026
2590	0.0001425
2602	0.0001539
2614	0.0001767
2626	0.0002223
2638	0.0003021
2650	0.000456
2662	0.0005472
2674	0.0005244
2686	0.0003648
2698	0.0003135
2710	0.0002964
2722	0.0002793
2734	0.0002223
2746	0.0002337
2758	0.0002907
2770	0.0005187
2782	0.0007638
2794	0.0008949
2806	0.0009576
2818	0.0013509
2830	0.0031635
2842	0.0088293
2854	0.0172995
2866	0.0160569
2878	0.0101118
2890	0.0083049
2902	0.0138054
2914	0.0272916
2926	0.0496869
2938	0.0505932
2950	0.0271434
2962	0.0064125
2974	0.0027816
2986	0.004389
2998	0.0064467
3010	0.006156
3022	0.0031236
3034	0.0012426
3046	0.0014079
3058	0.0038646
3070	0.0056544
3082	0.0046227
3094	0.0014022
3106	0.0003648
3118	0.0002679
3130	0.0002052
3142	0.0001083
3154	6.27e-05
3166	5.7e-05
3178	6.84e-05
3190	5.7e-05
3202	7.41e-05
3214	0.0001311
3226	0.0001311
3238	6.84e-05
3250	5.13e-05
3262	3.42e-05
3274	6.84e-05
3286	5.7e-05
3298	9.69e-05
3310	7.41e-05
3322	5.7e-05
3334	3.42e-05
3346	0.000114
3358	0.0001767
3370	0.000171
3382	9.12e-05
3394	4.56e-05
3406	2.85e-05
3418	4.56e-05
3430	7.98e-05
3442	6.84e-05
3454	9.69e-05
3466	0.0001026
3478	9.69e-05
3490	7.41e-05
3502	6.84e-05
3514	5.13e-05
3526	2.85e-05
3538	1.14e-05
3550	3.42e-05
3562	2.28e-05
3574	3.99e-05
3586	5.7e-05
3598	4.56e-05
3610	6.27e-05
3622	5.13e-05
3634	4.56e-05
3646	7.98e-05
3658	4.56e-05
3670	4.56e-05
3682	6.27e-05
3694	9.69e-05
3706	9.69e-05
3718	0.0001254
3730	0.0001026
3742	9.69e-05
3754	0.0001596
3766	0.0001596
3778	0.000114
3790	0.0001311
3802	0.0001596
3814	0.0001425
3826	0.000171
3838	0.000171
