Infrared Spectrum: Tetramethyl orthocarbonate
Formula: C 5 H 12 O 4
CAS: 1850-14-2
State: gas
Origin: EPA-IR VAPOR PHASE LIBRARY
1/CM	ABSORBANCE
549.8	0.0027077
559.445	0.0045277
569.09	0.0081077
578.734	0.0114877
588.379	0.0103177
598.024	0.0058877
607.669	0.0027977
617.313	0.0013677
626.958	0.0012677
636.603	0.0009154
646.248	0.0012877
655.893	0.0014777
665.537	0.0016477
675.182	0.0015677
684.827	0.0010777
694.472	0.0006854
704.116	0.0007853
713.761	0.0004452
723.406	0.0003866
733.051	0.0002651
742.695	0.0005263
752.34	0.0003514
761.985	0.0003612
771.63	0.0005479
781.275	0.0005685
790.919	0.0005065
800.564	0.0005542
810.209	0.0004923
819.854	0.000799
829.498	0.0007456
839.143	0.0006888
848.788	0.000843
858.433	0.0008148
868.078	0.0010877
877.722	0.0008962
887.367	0.0015177
897.012	0.0016577
906.657	0.0020677
916.301	0.0021677
925.946	0.0023877
935.591	0.0025677
945.236	0.0028377
954.88	0.0030177
964.525	0.0039577
974.17	0.0055777
983.815	0.0088677
993.46	0.0131677
1003.1	0.0168877
1012.75	0.0197177
1022.39	0.0251677
1032.04	0.0304077
1041.68	0.0335377
1051.33	0.0365177
1060.97	0.0438077
1070.62	0.0597977
1080.26	0.0862077
1089.91	0.133538
1099.55	0.228538
1109.2	0.410188
1118.84	0.672878
1128.49	0.752478
1138.13	0.527158
1147.78	0.308728
1157.42	0.203638
1167.07	0.159298
1176.71	0.123218
1186.36	0.100938
1196	0.108318
1205.64	0.133808
1215.29	0.135448
1224.93	0.100518
1234.58	0.0679477
1244.22	0.0511977
1253.87	0.0411077
1263.51	0.0301477
1273.16	0.0205477
1282.8	0.0149677
1292.45	0.0120177
1302.09	0.0108777
1311.74	0.0110977
1321.38	0.0120077
1331.03	0.0118977
1340.67	0.0098977
1350.32	0.0077377
1359.96	0.0063577
1369.61	0.0058777
1379.25	0.0058777
1388.9	0.0060577
1398.54	0.0065477
1408.18	0.0071577
1417.83	0.0081177
1427.47	0.0123777
1437.12	0.0269777
1446.76	0.0396577
1456.41	0.0337177
1466.05	0.0214177
1475.7	0.0163677
1485.34	0.0129077
1494.99	0.0094877
1504.63	0.0070477
1514.28	0.0058277
1523.92	0.0051377
1533.57	0.0049477
1543.21	0.0048477
1552.86	0.0045877
1562.5	0.0041477
1572.15	0.0036077
1581.79	0.0032077
1591.44	0.0029277
1601.08	0.0027477
1610.73	0.0026177
1620.37	0.0024977
1630.01	0.0022077
1639.66	0.0020577
1649.3	0.0019077
1658.95	0.0020577
1668.59	0.0023377
1678.24	0.0026777
1687.88	0.0030077
1697.53	0.0033177
1707.17	0.0032877
1716.82	0.0029577
1726.46	0.0024477
1736.11	0.0021577
1745.75	0.0021877
1755.4	0.0024777
1765.04	0.0028077
1774.69	0.0029677
1784.33	0.0028877
1793.98	0.0026677
1803.62	0.0021977
1813.27	0.0017977
1822.91	0.0017277
1832.55	0.0019177
1842.2	0.0022977
1851.84	0.0030577
1861.49	0.0038677
1871.13	0.0042477
1880.78	0.0036377
1890.42	0.0025977
1900.07	0.0019577
1909.71	0.0016777
1919.36	0.0014377
1929	0.0011177
1938.65	0.0010977
1948.29	0.0010277
1957.94	0.0011277
1967.58	0.0010119
1977.23	0.0008281
1986.87	0.0007846
1996.52	0.0008188
2006.16	0.0009555
2015.81	0.0011477
2025.45	0.0015077
2035.1	0.0020177
2044.74	0.0024477
2054.38	0.0028477
2064.03	0.0029977
2073.67	0.0029777
2083.32	0.0028277
2092.96	0.0028877
2102.61	0.0031677
2112.25	0.0035277
2121.9	0.0034677
2131.54	0.0029477
2141.19	0.0022977
2150.83	0.0018377
2160.48	0.0015977
2170.12	0.0014877
2179.77	0.0013877
2189.41	0.0014077
2199.06	0.0015977
2208.7	0.0016677
2218.35	0.0017777
2227.99	0.0019977
2237.64	0.0021477
2247.28	0.0020177
2256.92	0.0018277
2266.57	0.0017477
2276.21	0.0014877
2285.86	0.0013777
2295.5	0.0014577
2305.15	0.0015477
2314.79	0.0015577
2324.44	0.0015577
2334.08	0.0014477
2343.73	0.0013777
2353.37	0.0012577
2363.02	0.0010877
2372.66	0.0009874
2382.31	0.0008619
2391.95	0.0008322
2401.6	0.0006677
2411.24	0.0007072
2420.89	0.0005591
2430.53	0.000544
2440.18	0.0005305
2449.82	0.0004995
2459.47	0.0004848
2469.11	0.0004291
2478.75	0.0002898
2488.4	0.0002998
2498.04	0.0003105
2507.69	0.0002077
2517.33	0.000278
2526.98	0.0003069
2536.62	0.0004471
2546.27	0.0005345
2555.91	0.0005399
2565.56	0.0007239
2575.2	0.0009603
2584.85	0.0010677
2594.49	0.0012777
2604.14	0.0013677
2613.78	0.0012877
2623.43	0.0011477
2633.07	0.0010277
2642.72	0.000963
2652.36	0.0009143
2662.01	0.0010777
2671.65	0.0010977
2681.29	0.0010477
2690.94	0.0011177
2700.58	0.0008743
2710.23	0.0008903
2719.87	0.0008646
2729.52	0.0009777
2739.16	0.0011277
2748.81	0.0013277
2758.45	0.0014477
2768.1	0.0018577
2777.74	0.0022177
2787.39	0.0027977
2797.03	0.0038677
2806.68	0.0054177
2816.32	0.0083277
2825.97	0.0138277
2835.61	0.0295277
2845.26	0.0482977
2854.9	0.0520677
2864.55	0.0345177
2874.19	0.0186277
2883.84	0.0184677
2893.48	0.0226477
2903.12	0.0278477
2912.77	0.0353677
2922.41	0.0435177
2932.06	0.0541077
2941.7	0.0844077
2951.35	0.119858
2960.99	0.121518
2970.64	0.0922377
2980.28	0.0704977
2989.93	0.0669177
2999.57	0.0607177
3009.22	0.0498177
3018.86	0.0356477
3028.51	0.0241577
3038.15	0.0180277
3047.8	0.0151077
3057.44	0.0138577
3067.09	0.0132477
3076.73	0.0129677
3086.38	0.0114577
3096.02	0.0097477
3105.67	0.0076777
3115.31	0.0059677
3124.95	0.0046877
3134.6	0.0034377
3144.24	0.0028577
3153.89	0.0020677
3163.53	0.0015777
3173.18	0.0012577
3182.82	0.0011877
3192.47	0.0009089
3202.11	0.0006709
3211.76	0.000669
3221.4	0.0006367
3231.05	0.00053
3240.69	0.0004846
3250.34	0.0003785
3259.98	0.0004934
3269.63	0.000181
3279.27	0.0005675
3288.92	0.0004494
3298.56	0.0004027
3308.21	0.0004274
3317.85	0.0002288
3327.49	0.0002713
3337.14	0.0001992
3346.78	0.0003825
3356.43	0.0004204
3366.07	0.0001967
3375.72	0.000261
3385.36	0.0003885
3395.01	0.0003124
3404.65	0.0003567
3414.3	0.0002938
3423.94	0.0003896
3433.59	0.000333
3443.23	0.0005234
3452.88	0.0003516
3462.52	0.0003432
3472.17	0.0003428
3481.81	0.0004183
3491.46	0.0004323
3501.1	0.0003542
3510.75	0.0002565
3520.39	0.0002629
3530.04	0.0004258
3539.68	0.0002986
3549.32	0.0002829
3558.97	0.0003215
3568.61	0.0002758
3578.26	0.0001708
3587.9	0.0004809
3597.55	0.00032
3607.19	0.0002142
3616.84	0.0003451
3626.48	0
3636.13	0.0001945
3645.77	0.0003066
3655.42	0.0003227
3665.06	0.0004652
3674.71	0.0002634
3684.35	0.0002727
3694	0.0002898
3703.64	0.0002309
3713.29	0.0003018
3722.93	0.0002175
3732.58	0.0004126
3742.22	0.000495
3751.86	0.0004433
3761.51	0.0005283
3771.15	0.0003954
3780.8	0.0004666
3790.44	0.0003001
3800.09	0.0003517
3809.73	0.0002438
3819.38	0.0002117
3829.02	0.0004654
3838.67	0.0002289
3848.31	0.000469
3857.96	0.0003322
3867.6	0.0005897
3877.25	0.0006188
3886.89	0.0007475
3896.54	0.0006168
3906.18	0.0004942
3915.83	0.0005038
3925.47	0.000458
3935.12	0.0007686
3944.76	0.0005894
3954.41	0.0008469
3964.05	0.0009816
3973.69	0.0013177
3983.34	0.0014277
3992.98	0.0012377
