Infrared Spectrum: 6Beta-FLUORO-17Beta-HYDROXYANDROST-4-EN-3-ONE
Formula: C19 H27 F O2
CAS: 1852-58-0
State: SOLID (KBr DISC)
Class: COBLENTZ III
Instrument: BECKMAN IR-7
Sampling: TRANSMISSION
Resolution: 4
Origin: THE WORCESTER FOUNDATION FOR EXPERIMENTAL BIOLOGY, Neal L. McNiven
1/CM	TRANSMITTANCE
591.996	0.542
600.728	0.532
609.46	0.545
618.191	0.58
626.923	0.623
635.655	0.709
644.387	0.725
653.119	0.784
661.851	0.804
670.582	0.82
679.314	0.844
688.046	0.847
696.778	0.75
705.51	0.796
714.242	0.672
722.973	0.852
731.705	0.898
740.437	0.907
749.169	0.868
757.901	0.741
766.633	0.907
775.364	0.921
784.096	0.914
792.828	0.82
801.56	0.91
810.292	0.872
819.024	0.885
827.755	0.781
836.487	0.6928
845.219	0.9
853.951	0.902
862.683	0.875
871.415	0.765
880.146	0.4491
888.878	0.776
897.61	0.708
906.342	0.733
915.074	0.549
923.806	0.728
932.537	0.771
941.269	0.676
950.001	0.633
958.733	0.594
967.465	0.566
976.197	0.614
984.928	0.682
993.66	0.573
1002.39	0.266
1011.12	0.412
1019.86	0.39
1028.59	0.399
1037.32	0.511
1046.05	0.403
1054.78	0.453
1063.51	0.261
1072.25	0.282
1080.98	0.529
1089.71	0.496
1098.44	0.614
1107.17	0.61
1115.91	0.575
1124.64	0.426
1133.37	0.48
1142.1	0.678
1150.83	0.684
1159.56	0.5609
1168.3	0.535
1177.03	0.694
1185.76	0.582
1194.49	0.4609
1203.22	0.5401
1211.96	0.636
1220.69	0.63
1229.42	0.49
1238.15	0.492
1246.88	0.5961
1255.62	0.482
1264.35	0.573
1273.08	0.598
1281.81	0.7079
1290.54	0.796
1299.27	0.778
1308.01	0.725
1316.74	0.586
1325.47	0.508
1334.2	0.569
1342.93	0.653
1351.67	0.626
1360.4	0.56
1369.13	0.514
1377.86	0.408
1386.59	0.503
1395.32	0.613
1404.06	0.402
1412.79	0.3519
1421.52	0.348
1430.25	0.573
1438.98	0.598
1447.72	0.62
1456.45	0.668
1465.18	0.612
1473.91	0.783
1482.64	0.838
1491.37	0.859
1500.11	0.869
1508.84	0.875
1517.57	0.882
1526.3	0.882
1535.03	0.883
1543.77	0.878
1552.5	0.878
1561.23	0.872
1569.96	0.858
1578.69	0.833
1587.42	0.816
1596.16	0.812
1604.89	0.786
1613.62	0.713
1622.35	0.649
1631.08	0.614
1639.82	0.496
1648.55	0.295
1657.28	0.115
1666.01	0.061
1674.74	0.083
1683.47	0.4881
1692.21	0.711
1700.94	0.762
1709.67	0.801
1718.4	0.825
1727.13	0.826
1735.87	0.852
1744.6	0.863
1753.33	0.904
1762.06	0.91
1770.79	0.931
1779.52	0.938
1788.26	0.945
1796.99	0.956
1805.72	0.96
1814.45	0.958
1823.18	0.961
1831.92	0.957
1840.65	0.955
1849.38	0.959
1858.11	0.963
1866.84	0.963
1875.58	0.965
1884.31	0.965
1893.04	0.963
1901.77	0.963
1910.5	0.964
1919.23	0.967
1927.97	0.965
1936.7	0.963
1945.43	0.962
1954.16	0.964
1962.89	0.964
1971.63	0.962
1980.36	0.958
1989.09	0.954
1997.82	0.958
2006.55	0.96
2015.28	0.96
2024.02	0.96
2032.75	0.9587
2041.48	0.958
2050.21	0.958
2058.94	0.958
2067.68	0.958
2076.41	0.958
2085.14	0.958
2093.87	0.958
2102.6	0.957
2111.33	0.957
2120.07	0.957
2128.8	0.956
2137.53	0.9563
2146.26	0.957
2154.99	0.9567
2163.73	0.9547
2172.46	0.952
2181.19	0.9484
2189.92	0.944
2198.65	0.941
2207.38	0.9397
2216.12	0.9377
2224.85	0.936
2233.58	0.935
2242.31	0.934
2251.04	0.9337
2259.78	0.932
2268.51	0.931
2277.24	0.931
2285.97	0.931
2294.7	0.931
2303.43	0.932
2312.17	0.9317
2320.9	0.931
2329.63	0.9274
2338.36	0.924
2347.09	0.9224
2355.83	0.9194
2364.56	0.917
2373.29	0.9157
2382.02	0.915
2390.75	0.9137
2399.48	0.91
2408.22	0.909
2416.95	0.907
2425.68	0.905
2434.41	0.902
2443.14	0.899
2451.88	0.897
2460.61	0.8967
2469.34	0.8947
2478.07	0.8907
2486.8	0.889
2495.54	0.8877
2504.27	0.8857
2513	0.883
2521.73	0.881
2530.46	0.879
2539.19	0.878
2547.93	0.8767
2556.66	0.8747
2565.39	0.872
2574.12	0.8707
2582.85	0.8663
2591.59	0.8636
2600.32	0.8617
2609.05	0.86
2617.78	0.8559
2626.51	0.849
2635.24	0.849
2643.98	0.8514
2652.71	0.853
2661.44	0.852
2670.17	0.8493
2678.9	0.8409
2687.64	0.8353
2696.37	0.8326
2705.1	0.832
2713.83	0.8324
2722.56	0.8337
2731.29	0.8364
2740.03	0.8366
2748.76	0.8299
2757.49	0.8242
2766.22	0.8192
2774.95	0.8101
2783.69	0.7571
2792.42	0.703
2801.15	0.6585
2809.88	0.5585
2818.61	0.5269
2827.34	0.4936
2836.08	0.4633
2844.81	0.428
2853.54	0.4096
2862.27	0.4639
2871	0.4676
2879.74	0.3644
2888.47	0.2667
2897.2	0.2424
2905.93	0.2598
2914.66	0.2837
2923.39	0.2135
2932.13	0.1852
2940.86	0.184
2949.59	0.2132
2958.32	0.4453
2967.05	0.5321
2975.79	0.6802
2984.52	0.7266
2993.25	0.7591
3001.98	0.7894
3010.71	0.796
3019.44	0.7974
3028.18	0.799
3036.91	0.799
3045.64	0.8004
3054.37	0.8006
3063.1	0.7976
3071.84	0.7927
3080.57	0.788
3089.3	0.786
3098.03	0.7836
3106.76	0.783
3115.5	0.782
3124.23	0.7796
3132.96	0.778
3141.69	0.776
3150.42	0.7736
3159.15	0.7696
3167.89	0.7661
3176.62	0.7615
3185.35	0.7581
3194.08	0.7506
3202.81	0.7421
3211.55	0.7355
3220.28	0.7311
3229.01	0.7295
3237.74	0.7236
3246.47	0.7161
3255.2	0.7111
3263.94	0.7041
3272.67	0.6937
3281.4	0.6816
3290.13	0.6745
3298.86	0.6696
3307.6	0.6571
3316.33	0.651
3325.06	0.649
3333.79	0.6446
3342.52	0.639
3351.25	0.6305
3359.99	0.6081
3368.72	0.5955
3377.45	0.577
3386.18	0.5591
3394.91	0.5181
3403.65	0.4595
3412.38	0.4186
3421.11	0.3711
3429.84	0.3305
3438.57	0.263
3447.3	0.223
3456.04	0.1899
3464.77	0.1825
3473.5	0.2031
3482.23	0.2381
3490.96	0.2777
3499.7	0.3466
3508.43	0.4042
3517.16	0.4851
3525.89	0.5833
3534.62	0.6202
3543.35	0.6832
3552.09	0.7193
3560.82	0.7502
3569.55	0.7655
3578.28	0.7826
3587.01	0.7881
3595.75	0.7966
3604.48	0.802
3613.21	0.8035
3621.94	0.8065
3630.67	0.8136
3639.4	0.817
3648.14	0.819
3656.87	0.819
3665.6	0.82
3674.33	0.822
3683.06	0.823
3691.8	0.825
3700.53	0.8301
3709.26	0.8355
3717.99	0.8396
3726.72	0.841
3735.45	0.842
3744.19	0.842
3752.92	0.842
3761.65	0.842
3770.38	0.842
3779.11	0.841
3787.85	0.841
3796.58	0.8416
3805.31	0.842
3814.04	0.842
3822.77	0.841
3831.51	0.841
3840.24	0.8394
3848.97	0.8359
3857.7	0.8324
3866.43	0.831
3875.16	0.831
3883.9	0.831
3892.63	0.831
3901.36	0.833
3910.09	0.8314
3918.82	0.831
3927.56	0.83
3936.29	0.829
3945.02	0.828
3953.75	0.8274
3962.48	0.825
3971.21	0.825
3979.95	0.824
3988.68	0.823
3997.41	0.823
4006.14	0.8226
