Infrared Spectrum: 3-Bromophenacyl bromide
Formula: C 8 H 6 Br 2 O
CAS: 18523-22-3
State: gas
Origin: EPA-IR VAPOR PHASE LIBRARY
1/CM	ABSORBANCE
549.8	0.00288
559.445	0.00315
569.09	0.00364
578.734	0.00285
588.379	0.00345
598.024	0.00502
607.669	0.01224
617.313	0.02545
626.958	0.01515
636.603	0.00914
646.248	0.00651
655.893	0.01921
665.537	0.03015
675.182	0.02171
684.827	0.01199
694.472	0.00735
704.116	0.00485
713.761	0.00466
723.406	0.00555
733.051	0.00799
742.695	0.00866
752.34	0.00693
761.985	0.00892
771.63	0.01536
781.275	0.01902
790.919	0.01824
800.564	0.01308
810.209	0.00527
819.854	0.00294
829.498	0.00302
839.143	0.00284
848.788	0.00243
858.433	0.0021327
868.078	0.00401
877.722	0.00514
887.367	0.00443
897.012	0.00399
906.657	0.00402
916.301	0.00374
925.946	0.00298
935.591	0.00235
945.236	0.00227
954.88	0.0019551
964.525	0.00334
974.17	0.00357
983.815	0.00631
993.46	0.01053
1003.1	0.01315
1012.75	0.01691
1022.39	0.01678
1032.04	0.00879
1041.68	0.00745
1051.33	0.00673
1060.97	0.01055
1070.62	0.01144
1080.26	0.0095
1089.91	0.00961
1099.55	0.00761
1109.2	0.00959
1118.84	0.01349
1128.49	0.00873
1138.13	0.00579
1147.78	0.00544
1157.42	0.00709
1167.07	0.01175
1176.71	0.01673
1186.36	0.02452
1196	0.02412
1205.64	0.02145
1215.29	0.01199
1224.93	0.01508
1234.58	0.02116
1244.22	0.04436
1253.87	0.08582
1263.51	0.07089
1273.16	0.05007
1282.8	0.04104
1292.45	0.02031
1302.09	0.01322
1311.74	0.00722
1321.38	0.00407
1331.03	0.00291
1340.67	0.00264
1350.32	0.00256
1359.96	0.0026
1369.61	0.00293
1379.25	0.00366
1388.9	0.00486
1398.54	0.00789
1408.18	0.01476
1417.83	0.02237
1427.47	0.02865
1437.12	0.01796
1446.76	0.00575
1456.41	0.00474
1466.05	0.00745
1475.7	0.00953
1485.34	0.00468
1494.99	0.00244
1504.63	0.00246
1514.28	0.00265
1523.92	0.00348
1533.57	0.00446
1543.21	0.00637
1552.86	0.01178
1562.5	0.02343
1572.15	0.02559
1581.79	0.01139
1591.44	0.00626
1601.08	0.00421
1610.73	0.00307
1620.37	0.00256
1630.01	0.00283
1639.66	0.00289
1649.3	0.0035
1658.95	0.00487
1668.59	0.00682
1678.24	0.01126
1687.88	0.02459
1697.53	0.07115
1707.17	0.08798
1716.82	0.04122
1726.46	0.02223
1736.11	0.01142
1745.75	0.0067
1755.4	0.00511
1765.04	0.00364
1774.69	0.00299
1784.33	0.00264
1793.98	0.00264
1803.62	0.0027
1813.27	0.00264
1822.91	0.0021446
1832.55	0.0018919
1842.2	0.0018484
1851.84	0.0017937
1861.49	0.0021212
1871.13	0.00248
1880.78	0.0021151
1890.42	0.00229
1900.07	0.0021312
1909.71	0.00181
1919.36	0.0016741
1929	0.0017932
1938.65	0.0019368
1948.29	0.0019191
1957.94	0.0016207
1967.58	0.0014834
1977.23	0.00118398
1986.87	0.00121284
1996.52	0.0012975
2006.16	0.0011396
2015.81	0.0013051
2025.45	0.0013133
2035.1	0.0013707
2044.74	0.0015241
2054.38	0.001016
2064.03	0.001303
2073.67	0.000927
2083.32	0.000966
2092.96	0.0010915
2102.61	0.00118039
2112.25	0.000841
2121.9	0.001013
2131.54	0.000982
2141.19	0.0011038
2150.83	0.0013526
2160.48	0.000947
2170.12	0.0011854
2179.77	0.0010888
2189.41	0.000738
2199.06	0.0012025
2208.7	0.001132
2218.35	0.00115887
2227.99	0.000946
2237.64	0.00105
2247.28	0.0011373
2256.92	0.001377
2266.57	0.000954
2276.21	0.000962
2285.86	0.000861
2295.5	0.0012931
2305.15	0.0013651
2314.79	0.0015255
2324.44	0.0013487
2334.08	0.001021
2343.73	0.00123114
2353.37	0.00125234
2363.02	0.0013375
2372.66	0.00117026
2382.31	0.0011341
2391.95	0.0013061
2401.6	0.001045
2411.24	0.000996
2420.89	0.000749
2430.53	0.0011121
2440.18	0.000969
2449.82	0.00123085
2459.47	0.000813
2469.11	0.00117734
2478.75	0.001002
2488.4	0.0011041
2498.04	0.0012711
2507.69	0.00117256
2517.33	0.0013989
2526.98	0.0013588
2536.62	0.00122234
2546.27	0.000665
2555.91	0.0010747
2565.56	0.0010693
2575.2	0.0011347
2584.85	0.00102
2594.49	0.001051
2604.14	0.000814
2613.78	0.000901
2623.43	0.000683
2633.07	0.001051
2642.72	0.0011463
2652.36	0.000377
2662.01	0.0013653
2671.65	0.000819
2681.29	0.000945
2690.94	0.000888
2700.58	0.00124048
2710.23	0.000803
2719.87	0.0011199
2729.52	0.000907
2739.16	0.000959
2748.81	0.00095
2758.45	0.00097
2768.1	0.000553
2777.74	0.0013082
2787.39	0.000619
2797.03	0.0010896
2806.68	0.000818
2816.32	0.000984
2825.97	0.0011095
2835.61	0.00124289
2845.26	0.000868
2854.9	0.0011239
2864.55	0.0011393
2874.19	0.000835
2883.84	0.000848
2893.48	0.0011088
2903.12	0.000296
2912.77	0.0011062
2922.41	0.000804
2932.06	0.001024
2941.7	0.0020733
2951.35	0.00311
2960.99	0.00326
2970.64	0.00292
2980.28	0.00368
2989.93	0.00284
2999.57	0.00125418
3009.22	0.0019022
3018.86	0.0015848
3028.51	0.0019876
3038.15	0.0019883
3047.8	0.0024
3057.44	0.00259
3067.09	0.00558
3076.73	0.00802
3086.38	0.00538
3096.02	0.0031
3105.67	0.0019879
3115.31	0.0017921
3124.95	0.0014428
3134.6	0.000768
3144.24	0.0011262
3153.89	0.0010944
3163.53	0.001015
3173.18	0.000589
3182.82	0.001088
3192.47	0.000732
3202.11	0.000254
3211.76	0.001012
3221.4	0.000677
3231.05	0.000702
3240.69	0.00071
3250.34	0.0014047
3259.98	0.000711
3269.63	0.000522
3279.27	0.000876
3288.92	0.00119247
3298.56	0.000854
3308.21	0.001048
3317.85	0.000201
3327.49	0.00103
3337.14	0.00028
3346.78	0.0012897
3356.43	0.0014457
3366.07	0.001037
3375.72	0.0019117
3385.36	0.00263
3395.01	0.0018941
3404.65	0.0012658
3414.3	0.00116036
3423.94	0.0017649
3433.59	0.00169
3443.23	0.001056
3452.88	0.000436
3462.52	0.000867
3472.17	0.000792
3481.81	0.000319
3491.46	0.00124439
3501.1	0.0016143
3510.75	0.000996
3520.39	0.000615
3530.04	0.0015327
3539.68	0.000948
3549.32	0.000885
3558.97	0.00118767
3568.61	0.000725
3578.26	0.000928
3587.9	0.000685
3597.55	0.000711
3607.19	0.000739
3616.84	0.0013034
3626.48	0.000571
3636.13	0.0013094
3645.77	0.000291
3655.42	0.00118117
3665.06	0.000692
3674.71	0.000501
3684.35	0.00034
3694	0.00123648
3703.64	0.0014378
3713.29	0.0015141
3722.93	0.0013508
3732.58	0.0013497
3742.22	0.00119568
3751.86	0.0016045
3761.51	0.000726
3771.15	0.0010881
3780.8	0.0012906
3790.44	0.000852
3800.09	0.0015203
3809.73	0.00054
3819.38	0.0014224
3829.02	0.000278
3838.67	0.001345
3848.31	0.000315
3857.96	0.00116388
3867.6	0.0014552
3877.25	0.001264
3886.89	0.0014557
3896.54	0.000927
3906.18	0.00058
3915.83	0.00079
3925.47	0.000956
3935.12	0.0019111
3944.76	0.000815
3954.41	0.00119587
3964.05	0.000407
3973.69	0.000907
3983.34	0.000941
3992.98	0.000376
