Infrared Spectrum: ANDROST-4-ENE-3Alpha,17Beta-DIOL
Formula: C19 H30 O2
CAS: 1852-61-5
State: SOLID (KBr DISC)
Class: COBLENTZ III
Instrument: BECKMAN IR-7
Sampling: TRANSMISSION
Resolution: 4
Origin: THE WORCESTER FOUNDATION FOR EXPERIMENTAL BIOLOGY, Neal L. McNiven
1/CM	TRANSMITTANCE
601.458	0.423
610.203	0.452
618.949	0.5
627.694	0.531
636.44	0.573
645.185	0.616
653.931	0.632
662.676	0.66
671.422	0.676
680.167	0.698
688.913	0.744
697.658	0.748
706.404	0.71
715.149	0.708
723.895	0.748
732.64	0.742
741.386	0.726
750.131	0.723
758.877	0.728
767.622	0.762
776.368	0.803
785.113	0.836
793.858	0.851
802.604	0.89
811.349	0.906
820.095	0.898
828.84	0.864
837.586	0.866
846.331	0.874
855.077	0.686
863.822	0.682
872.568	0.896
881.313	0.926
890.059	0.903
898.804	0.6991
907.55	0.876
916.295	0.854
925.041	0.9
933.786	0.88
942.532	0.7871
951.277	0.84
960.023	0.753
968.768	0.843
977.513	0.854
986.259	0.66
995.004	0.717
1003.75	0.584
1012.5	0.498
1021.24	0.472
1029.99	0.652
1038.73	0.616
1047.48	0.359
1056.22	0.372
1064.97	0.633
1073.71	0.566
1082.46	0.768
1091.2	0.818
1099.95	0.846
1108.7	0.802
1117.44	0.798
1126.19	0.6939
1134.93	0.757
1143.68	0.848
1152.42	0.848
1161.17	0.801
1169.91	0.82
1178.66	0.827
1187.4	0.853
1196.15	0.873
1204.9	0.844
1213.64	0.811
1222.39	0.83
1231.13	0.866
1239.88	0.832
1248.62	0.805
1257.37	0.756
1266.11	0.681
1274.86	0.671
1283.61	0.706
1292.35	0.725
1301.1	0.716
1309.84	0.734
1318.59	0.668
1327.33	0.746
1336.08	0.708
1344.82	0.627
1353.57	0.638
1362.31	0.694
1371.06	0.78
1379.81	0.718
1388.55	0.772
1397.3	0.777
1406.04	0.73
1414.79	0.67
1423.53	0.655
1432.28	0.58
1441.02	0.592
1449.77	0.704
1458.51	0.766
1467.26	0.755
1476.01	0.883
1484.75	0.914
1493.5	0.924
1502.24	0.924
1510.99	0.926
1519.73	0.933
1528.48	0.935
1537.22	0.929
1545.97	0.942
1554.71	0.945
1563.46	0.944
1572.21	0.934
1580.95	0.942
1589.7	0.939
1598.44	0.93
1607.19	0.924
1615.93	0.92
1624.68	0.92
1633.42	0.914
1642.17	0.902
1650.92	0.827
1659.66	0.885
1668.41	0.916
1677.15	0.929
1685.9	0.934
1694.64	0.941
1703.39	0.945
1712.13	0.932
1720.88	0.94
1729.62	0.937
1738.37	0.946
1747.12	0.949
1755.86	0.954
1764.61	0.957
1773.35	0.955
1782.1	0.96
1790.84	0.965
1799.59	0.97
1808.33	0.968
1817.08	0.968
1825.82	0.968
1834.57	0.968
1843.32	0.966
1852.06	0.965
1860.81	0.963
1869.55	0.966
1878.3	0.966
1887.04	0.964
1895.79	0.967
1904.53	0.964
1913.28	0.963
1922.02	0.963
1930.77	0.965
1939.52	0.967
1948.26	0.966
1957.01	0.957
1965.75	0.958
1974.5	0.962
1983.24	0.965
1991.99	0.964
2000.73	0.962
2009.48	0.962
2018.23	0.962
2026.97	0.961
2035.72	0.961
2044.46	0.961
2053.21	0.96
2061.95	0.96
2070.7	0.96
2079.44	0.96
2088.19	0.96
2096.93	0.959
2105.68	0.959
2114.43	0.958
2123.17	0.958
2131.92	0.958
2140.66	0.956
2149.41	0.955
2158.15	0.9534
2166.9	0.953
2175.64	0.953
2184.39	0.953
2193.13	0.953
2201.88	0.9524
2210.63	0.952
2219.37	0.9513
2228.12	0.951
2236.86	0.951
2245.61	0.951
2254.35	0.95
2263.1	0.9482
2271.84	0.9454
2280.59	0.9412
2289.33	0.94
2298.08	0.9392
2306.83	0.939
2315.57	0.9353
2324.32	0.9302
2333.06	0.929
2341.81	0.9261
2350.55	0.9182
2359.3	0.91
2368.04	0.909
2376.79	0.913
2385.54	0.921
2394.28	0.928
2403.03	0.93
2411.77	0.9311
2420.52	0.932
2429.26	0.9319
2438.01	0.9288
2446.75	0.9249
2455.5	0.924
2464.24	0.923
2472.99	0.9218
2481.74	0.9208
2490.48	0.9178
2499.23	0.916
2507.97	0.9125
2516.72	0.9107
2525.46	0.908
2534.21	0.9057
2542.95	0.9037
2551.7	0.903
2560.44	0.901
2569.19	0.9
2577.94	0.9
2586.68	0.8972
2595.43	0.8898
2604.17	0.8811
2612.92	0.8762
2621.66	0.8695
2630.41	0.865
2639.15	0.8489
2647.9	0.8334
2656.64	0.8269
2665.39	0.822
2674.14	0.821
2682.88	0.822
2691.63	0.824
2700.37	0.8266
2709.12	0.827
2717.86	0.8287
2726.61	0.83
2735.35	0.83
2744.1	0.83
2752.85	0.8293
2761.59	0.8273
2770.34	0.8207
2779.08	0.804
2787.83	0.7812
2796.57	0.7447
2805.32	0.7334
2814.06	0.6781
2822.81	0.6117
2831.55	0.4849
2840.3	0.417
2849.05	0.4141
2857.79	0.3984
2866.54	0.3687
2875.28	0.352
2884.03	0.3441
2892.77	0.328
2901.52	0.3019
2910.26	0.2675
2919.01	0.2158
2927.75	0.199
2936.5	0.2457
2945.25	0.2849
2953.99	0.3361
2962.74	0.3937
2971.48	0.4969
2980.23	0.6005
2988.97	0.683
2997.72	0.7743
3006.46	0.8082
3015.21	0.809
3023.95	0.809
3032.7	0.813
3041.45	0.8303
3050.19	0.837
3058.94	0.8347
3067.68	0.8313
3076.43	0.8265
3085.17	0.8116
3093.92	0.8022
3102.66	0.7957
3111.41	0.7867
3120.16	0.7758
3128.9	0.7617
3137.65	0.7426
3146.39	0.7245
3155.14	0.7004
3163.88	0.6823
3172.63	0.6689
3181.37	0.6514
3190.12	0.6138
3198.86	0.569
3207.61	0.5319
3216.36	0.5099
3225.1	0.4744
3233.85	0.436
3242.59	0.3868
3251.34	0.3593
3260.08	0.3361
3268.83	0.3092
3277.57	0.2877
3286.32	0.2706
3295.06	0.2519
3303.81	0.2348
3312.56	0.2272
3321.3	0.2212
3330.05	0.219
3338.79	0.2218
3347.54	0.2337
3356.28	0.2567
3365.03	0.2941
3373.77	0.3203
3382.52	0.3605
3391.26	0.3978
3400.01	0.464
3408.76	0.4931
3417.5	0.5163
3426.25	0.5506
3434.99	0.5831
3443.74	0.6333
3452.48	0.6788
3461.23	0.6995
3469.97	0.7186
3478.72	0.7545
3487.47	0.7677
3496.21	0.7881
3504.96	0.8016
3513.7	0.8151
3522.45	0.8312
3531.19	0.847
3539.94	0.8568
3548.68	0.8613
3557.43	0.864
3566.17	0.866
3574.92	0.8754
3583.67	0.887
3592.41	0.8894
3601.16	0.8958
3609.9	0.9018
3618.65	0.9094
3627.39	0.9114
3636.14	0.913
3644.88	0.919
3653.63	0.9155
3662.37	0.9105
3671.12	0.908
3679.87	0.9115
3688.61	0.9146
3697.36	0.916
3706.1	0.916
3714.85	0.916
3723.59	0.913
3732.34	0.908
3741.08	0.9067
3749.83	0.9101
3758.57	0.913
3767.32	0.9204
3776.07	0.9193
3784.81	0.9168
3793.56	0.9135
3802.3	0.9112
3811.05	0.9084
3819.79	0.906
3828.54	0.9068
3837.28	0.9109
3846.03	0.9071
3854.78	0.9041
3863.52	0.903
3872.27	0.9039
3881.01	0.9069
3889.76	0.91
3898.5	0.91
3907.25	0.91
3915.99	0.907
3924.74	0.904
3933.48	0.908
3942.23	0.9069
3950.98	0.9029
3959.72	0.902
3968.47	0.9011
3977.21	0.903
3985.96	0.903
3994.7	0.903
4003.45	0.902
4012.19	0.902
