Infrared Spectrum: HEPTANOIC ACID, 2,2,4-TRIMETHYL-3-HYDROXY-, Beta-LACTONE
Formula: C10 H18 O2
CAS: 18523-60-9
Boiling point: 50 C AT 1.2 mmHg
Class: COBLENTZ
Instrument: Not specified, most likely a prism, grating, or hybrid spectrometer.
Sampling: TRANSMISSION
Path length: SMEAR
Resolution: 4
Origin: TENNESSEE EASTMAN COMPANY, RESEARCH LABORATORIES
MICROMETERS	TRANSMITTANCE
2.068	0.993
2.1088	0.996
2.14959	1
2.19039	1
2.23119	0.994
2.27199	0.953
2.31278	0.927
2.35358	0.941
2.39438	0.946
2.43517	0.95
2.47597	0.955
2.51677	0.969
2.55756	0.975
2.59836	0.975
2.63916	0.979
2.67996	0.981
2.72075	0.943
2.76155	0.84
2.80235	0.898
2.84314	0.917
2.88394	0.941
2.92474	0.948
2.96554	0.95
3.00633	0.946
3.04713	0.938
3.08793	0.929
3.12872	0.921
3.16952	0.909
3.21032	0.921
3.25111	0.915
3.29191	0.867
3.33271	0.547
3.37351	0.01
3.4143	0.178
3.4551	0.185
3.4959	0.569
3.53669	0.787
3.57749	0.878
3.61829	0.905
3.65909	0.902
3.69988	0.926
3.74068	0.939
3.78148	0.951
3.82227	0.951
3.86307	0.95
3.90387	0.938
3.94466	0.957
3.98546	0.97
4.02626	0.981
4.06706	0.979
4.10785	0.979
4.14865	0.981
4.18945	0.974
4.23024	0.975
4.27104	0.972
4.31184	0.96
4.35264	0.96
4.39343	0.972
4.43423	0.977
4.47503	0.969
4.51582	0.941
4.55662	0.95
4.59742	0.962
4.63822	0.974
4.67901	0.974
4.71981	0.974
4.76061	0.977
4.8014	0.977
4.8422	0.969
4.883	0.96
4.92379	0.953
4.96459	0.926
5.00539	0.926
5.04619	0.89
5.08698	0.845
5.12778	0.849
5.16858	0.773
5.20937	0.782
5.25017	0.794
5.29097	0.701
5.33177	0.643
5.37256	0.389
5.41336	0.118
5.45416	0.006
5.49495	0.006
5.53575	0.078
5.57655	0.337
5.61734	0.421
5.65814	0.603
5.69894	0.662
5.73974	0.73
5.78053	0.787
5.82133	0.809
5.86213	0.833
5.90292	0.84
5.94372	0.847
5.98452	0.842
6.02532	0.842
6.06611	0.816
6.10691	0.818
6.14771	0.835
6.1885	0.861
6.2293	0.891
6.2701	0.902
6.31089	0.914
6.35169	0.903
6.39249	0.9
6.43329	0.888
6.47408	0.869
6.51488	0.885
6.55568	0.862
6.59647	0.855
6.63727	0.831
6.67807	0.771
6.71887	0.545
6.75966	0.138
6.80046	0.114
6.84126	0.291
6.88205	0.384
6.92285	0.61
6.96365	0.627
7.00444	0.723
7.04524	0.753
7.08604	0.626
7.12684	0.322
7.16763	0.252
7.20843	0.394
7.24923	0.451
7.29002	0.432
7.33082	0.701
7.37162	0.744
7.41242	0.708
7.45321	0.749
7.49401	0.753
7.53481	0.643
7.5756	0.507
7.6164	0.497
7.6572	0.526
7.69799	0.629
7.73879	0.78
7.77959	0.84
7.82039	0.85
7.86118	0.801
7.90198	0.777
7.94278	0.725
7.98357	0.65
8.02437	0.662
8.06517	0.602
8.10597	0.464
8.14676	0.608
8.18756	0.672
8.22836	0.581
8.26915	0.346
8.30995	0.195
8.35075	0.283
8.39155	0.389
8.43234	0.492
8.47314	0.598
8.51394	0.655
8.55473	0.655
8.59553	0.615
8.63633	0.499
8.67712	0.259
8.71792	0.099
8.75872	0.054
8.79952	0.101
8.84031	0.226
8.88111	0.286
8.92191	0.164
8.9627	0.048
9.0035	0.022
9.0443	0.065
9.0851	0.178
9.12589	0.216
9.16669	0.255
9.20749	0.329
9.24828	0.339
9.28908	0.233
9.32988	0.094
9.37067	0.094
9.41147	0.25
9.45227	0.439
9.49307	0.583
9.53386	0.61
9.57466	0.554
9.61546	0.586
9.65625	0.617
9.69705	0.603
9.73785	0.658
9.77865	0.74
9.81944	0.77
9.86024	0.771
9.90104	0.763
9.94183	0.782
9.98263	0.797
10.0234	0.785
10.0642	0.742
10.105	0.636
10.1458	0.59
10.1866	0.655
10.2274	0.74
10.2682	0.794
10.309	0.813
10.3498	0.813
10.3906	0.794
10.4314	0.782
10.4722	0.801
10.513	0.823
10.5538	0.835
10.5946	0.838
10.6354	0.835
10.6762	0.823
10.717	0.795
10.7578	0.756
10.7986	0.653
10.8394	0.452
10.8802	0.284
10.921	0.217
10.9618	0.142
11.0026	0.185
11.0434	0.262
11.0842	0.276
11.1249	0.392
11.1657	0.481
11.2065	0.495
11.2473	0.454
11.2881	0.367
11.3289	0.238
11.3697	0.207
11.4105	0.293
11.4513	0.413
11.4921	0.536
11.5329	0.602
11.5737	0.638
11.6145	0.655
11.6553	0.68
11.6961	0.704
11.7369	0.72
11.7777	0.723
11.8185	0.71
11.8593	0.672
11.9001	0.607
11.9409	0.499
11.9817	0.281
12.0225	0.094
12.0633	0.039
12.1041	0.034
12.1449	0.075
12.1857	0.162
12.2265	0.279
12.2673	0.372
12.3081	0.487
12.3489	0.614
12.3897	0.667
12.4305	0.708
12.4713	0.751
12.512	0.778
12.5528	0.795
12.5936	0.801
12.6344	0.794
12.6752	0.778
12.716	0.751
12.7568	0.701
12.7976	0.667
12.8384	0.67
12.8792	0.691
12.92	0.727
12.9608	0.775
13.0016	0.801
13.0424	0.814
13.0832	0.816
13.124	0.818
13.1648	0.818
13.2056	0.804
13.2464	0.783
13.2872	0.754
13.328	0.706
13.3688	0.656
13.4096	0.632
13.4504	0.627
13.4912	0.629
13.532	0.641
13.5728	0.686
13.6136	0.739
13.6544	0.78
13.6952	0.801
13.736	0.811
13.7768	0.813
13.8176	0.816
13.8584	0.818
13.8991	0.821
13.9399	0.825
13.9807	0.826
14.0215	0.828
14.0623	0.828
14.1031	0.825
14.1439	0.819
14.1847	0.819
14.2255	0.814
14.2663	0.804
14.3071	0.806
14.3479	0.802
14.3887	0.795
14.4295	0.792
14.4703	0.785
14.5111	0.782
14.5519	0.775
14.5927	0.771
14.6335	0.765
14.6743	0.758
14.7151	0.751
14.7559	0.742
14.7967	0.732
14.8375	0.725
14.8783	0.716
14.9191	0.696
14.9599	0.662
15.0007	0.648
15.0415	0.643
15.0823	0.641
15.1231	0.644
15.1639	0.648
15.2047	0.65
15.2455	0.651
15.2862	0.651
15.327	0.651
15.3678	0.651
15.4086	0.644
15.4494	0.643
15.4902	0.641
15.531	0.639
15.5718	0.632
15.6126	0.629
15.6534	0.629
15.6942	0.627
15.735	0.624
15.7758	0.624
15.8166	0.624
15.8574	0.622
15.8982	0.62
15.939	0.62
