Infrared Spectrum: exo-2-Norbornyl isothiocyanate
Formula: C 8 H 11 N S
CAS: 18530-33-1
State: gas
Origin: EPA-IR VAPOR PHASE LIBRARY
1/CM	ABSORBANCE
549.8	0.007905
559.445	0.005335
569.09	0.003935
578.734	0.003265
588.379	0.002395
598.024	0.002895
607.669	0.002815
617.313	0.002835
626.958	0.002915
636.603	0.002505
646.248	0.002185
655.893	0.003045
665.537	0.004025
675.182	0.006015
684.827	0.008795
694.472	0.007795
704.116	0.004045
713.761	0.002305
723.406	0.002135
733.051	0.002385
742.695	0.002775
752.34	0.004505
761.985	0.006815
771.63	0.004465
781.275	0.002605
790.919	0.003205
800.564	0.005545
810.209	0.005115
819.854	0.003185
829.498	0.003185
839.143	0.003705
848.788	0.003505
858.433	0.004975
868.078	0.006995
877.722	0.005645
887.367	0.004345
897.012	0.003625
906.657	0.003555
916.301	0.004855
925.946	0.005485
935.591	0.008975
945.236	0.012665
954.88	0.006935
964.525	0.003545
974.17	0.002825
983.815	0.002545
993.46	0.002725
1003.1	0.003195
1012.75	0.002515
1022.39	0.003805
1032.04	0.004315
1041.68	0.003565
1051.33	0.002455
1060.97	0.001955
1070.62	0.002095
1080.26	0.002485
1089.91	0.003375
1099.55	0.004345
1109.2	0.004795
1118.84	0.004545
1128.49	0.003925
1138.13	0.002875
1147.78	0.002835
1157.42	0.002575
1167.07	0.002515
1176.71	0.002615
1186.36	0.002145
1196	0.002845
1205.64	0.003375
1215.29	0.003995
1224.93	0.002715
1234.58	0.002405
1244.22	0.002625
1253.87	0.003245
1263.51	0.004145
1273.16	0.004985
1282.8	0.007025
1292.45	0.010995
1302.09	0.018115
1311.74	0.016645
1321.38	0.011665
1331.03	0.021135
1340.67	0.050375
1350.32	0.045815
1359.96	0.015295
1369.61	0.006335
1379.25	0.004155
1388.9	0.003015
1398.54	0.002165
1408.18	0.001745
1417.83	0.001845
1427.47	0.002375
1437.12	0.004255
1446.76	0.007535
1456.41	0.009605
1466.05	0.007845
1475.7	0.006635
1485.34	0.005585
1494.99	0.002705
1504.63	0.0015385
1514.28	0.0011747
1523.92	0.0009443
1533.57	0.0008701
1543.21	0.0009784
1552.86	0.0010863
1562.5	0.0010895
1572.15	0.0010722
1581.79	0.0011656
1591.44	0.0012055
1601.08	0.0011078
1610.73	0.0010321
1620.37	0.0008315
1630.01	0.0010586
1639.66	0.001039
1649.3	0.0008631
1658.95	0.0008356
1668.59	0.0009948
1678.24	0.0010097
1687.88	0.0012084
1697.53	0.0013789
1707.17	0.001387
1716.82	0.0013743
1726.46	0.0012972
1736.11	0.0012432
1745.75	0.0012504
1755.4	0.0012456
1765.04	0.0013006
1774.69	0.0014183
1784.33	0.001414
1793.98	0.0015083
1803.62	0.0015024
1813.27	0.0015059
1822.91	0.0014884
1832.55	0.0014834
1842.2	0.001715
1851.84	0.001815
1861.49	0.002075
1871.13	0.002465
1880.78	0.003055
1890.42	0.004095
1900.07	0.005235
1909.71	0.006195
1919.36	0.008105
1929	0.010685
1938.65	0.014545
1948.29	0.019935
1957.94	0.027235
1967.58	0.035285
1977.23	0.042985
1986.87	0.054355
1996.52	0.073645
2006.16	0.102635
2015.81	0.142075
2025.45	0.185235
2035.1	0.219485
2044.74	0.245425
2054.38	0.259885
2064.03	0.260795
2073.67	0.240655
2083.32	0.166975
2092.96	0.104045
2102.61	0.079905
2112.25	0.078745
2121.9	0.085865
2131.54	0.092605
2141.19	0.087655
2150.83	0.062615
2160.48	0.037985
2170.12	0.026645
2179.77	0.023455
2189.41	0.022615
2199.06	0.022885
2208.7	0.022985
2218.35	0.018615
2227.99	0.011425
2237.64	0.007305
2247.28	0.005995
2256.92	0.005955
2266.57	0.005665
2276.21	0.005065
2285.86	0.004155
2295.5	0.002835
2305.15	0.002345
2314.79	0.002235
2324.44	0.002245
2334.08	0.001985
2343.73	0.001745
2353.37	0.001685
2363.02	0.001595
2372.66	0.001855
2382.31	0.002035
2391.95	0.002035
2401.6	0.002045
2411.24	0.002095
2420.89	0.002075
2430.53	0.001865
2440.18	0.0015508
2449.82	0.0014315
2459.47	0.0013513
2469.11	0.0014723
2478.75	0.001551
2488.4	0.001595
2498.04	0.001725
2507.69	0.001695
2517.33	0.001705
2526.98	0.001765
2536.62	0.001875
2546.27	0.002045
2555.91	0.002275
2565.56	0.002265
2575.2	0.002335
2584.85	0.001995
2594.49	0.001745
2604.14	0.0013419
2613.78	0.0012838
2623.43	0.0013365
2633.07	0.0014176
2642.72	0.0015393
2652.36	0.0014883
2662.01	0.001565
2671.65	0.0015038
2681.29	0.0014716
2690.94	0.001595
2700.58	0.001705
2710.23	0.002085
2719.87	0.002235
2729.52	0.002515
2739.16	0.002675
2748.81	0.002875
2758.45	0.002885
2768.1	0.002575
2777.74	0.002145
2787.39	0.001925
2797.03	0.001965
2806.68	0.001905
2816.32	0.002055
2825.97	0.002015
2835.61	0.002465
2845.26	0.002875
2854.9	0.004155
2864.55	0.008665
2874.19	0.021035
2883.84	0.034045
2893.48	0.025955
2903.12	0.015215
2912.77	0.015555
2922.41	0.021925
2932.06	0.032275
2941.7	0.044965
2951.35	0.061835
2960.99	0.107165
2970.64	0.142225
2980.28	0.089545
2989.93	0.033465
2999.57	0.011925
3009.22	0.005625
3018.86	0.003355
3028.51	0.001995
3038.15	0.0014773
3047.8	0.0011936
3057.44	0.0010934
3067.09	0.0013165
3076.73	0.0012893
3086.38	0.0014252
3096.02	0.0012407
3105.67	0.0009801
3115.31	0.0007009
3124.95	0.00065823
3134.6	0.000218
3144.24	0.0005082
3153.89	0.0004981
3163.53	0.000439
3173.18	0.000419
3182.82	0.0005282
3192.47	0.000423
3202.11	0.000567557
3211.76	0.000419
3221.4	0.00036
3231.05	0.000326
3240.69	0.000351
3250.34	0.000358
3259.98	0.0004771
3269.63	0.00035
3279.27	0
3288.92	0.000234
3298.56	0.000229
3308.21	0.000335
3317.85	0.000425
3327.49	0.000342
3337.14	0.000262
3346.78	0.000227
3356.43	0.000258
3366.07	0.0005017
3375.72	0.000568984
3385.36	0.000294
3395.01	0.000372
3404.65	0.0004787
3414.3	0.0004837
3423.94	0.00055634
3433.59	0.0005322
3443.23	0.0005547
3452.88	0.000437
3462.52	0.0005128
3472.17	0.000265
3481.81	0.000254
3491.46	0.000238
3501.1	0.000184
3510.75	0.000308
3520.39	0.000411
3530.04	0.000354
3539.68	0.000463
3549.32	0.000387
3558.97	0.000403
3568.61	0.000337
3578.26	0.000302
3587.9	0.000159
3597.55	0.000458
3607.19	0.000257
3616.84	0.000308
3626.48	0.000438
3636.13	0.000318
3645.77	0.000279
3655.42	0.000375
3665.06	0.000389
3674.71	0.000545
3684.35	0.0005148
3694	0.000264
3703.64	0.000338
3713.29	0.00062595
3722.93	0.0008455
3732.58	0.0007996
3742.22	0.0008758
3751.86	0.0007067
3761.51	0.000353
3771.15	0.000574091
3780.8	0.0007289
3790.44	0.0005115
3800.09	0.00068
3809.73	0.00057894
3819.38	0.000566593
3829.02	0.0008576
3838.67	0.0008724
3848.31	0.00059021
3857.96	0.0005496
3867.6	0.0007787
3877.25	0.0009526
3886.89	0.0010002
3896.54	0.0011606
3906.18	0.0009491
3915.83	0.0011571
3925.47	0.0010362
3935.12	0.00063522
3944.76	0.0012228
3954.41	0.0010527
3964.05	0.0008928
3973.69	0.001008
3983.34	0.0012623
3992.98	0.0010991
