Infrared Spectrum: 1,2-o-Isopropylidene-D-glucofuranose
Formula: C9 H16 O6
CAS: 18549-40-1
State: SOLID (SPLIT MULL), FLUOROLUBE FOR 3800-1330 CM^-^1, NUJOL FOR 1330-400 CM^-^1
Melting point: 159 C
Class: COBLENTZ II
Instrument: BECKMAN IR-9 (GRATING)
Instrument parameters: ORDER CHANGES: 670, 1200, 2000 CM^-^1
Resolution: 2
Origin: DOW CHEMICAL COMPANY
1/CM	TRANSMITTANCE
386	0.4439
395	0.4457
404	0.4498
413	0.4611
422	0.4922
431	0.5719
440	0.6555
449	0.6737
458	0.6999
467	0.7375
476	0.7421
485	0.7362
494	0.7199
503	0.6889
512	0.693
521	0.7043
530	0.7026
539	0.6806
548	0.6589
557	0.7062
566	0.7261
575	0.7524
584	0.7387
593	0.7184
602	0.6986
611	0.6863
620	0.6722
629	0.5888
638	0.7017
647	0.6882
656	0.6171
665	0.5204
674	0.6547
683	0.6809
692	0.7281
701	0.7597
710	0.7744
719	0.7582
728	0.755
737	0.7943
746	0.8184
755	0.83
764	0.8373
773	0.8385
782	0.8306
791	0.6859
800	0.6413
809	0.8373
818	0.8526
827	0.8493
836	0.837
845	0.7958
854	0.476
863	0.5599
872	0.4808
881	0.6559
890	0.5936
899	0.6559
908	0.8143
917	0.8152
926	0.8023
935	0.7784
944	0.5989
953	0.7038
962	0.3657
971	0.6174
980	0.7474
989	0.6881
998	0.6144
1007	0.2666
1016	0.2862
1025	0.5239
1034	0.5436
1043	0.2801
1052	0.379
1061	0.378
1070	0.1985
1079	0.3802
1088	0.1879
1097	0.3126
1106	0.5083
1115	0.6104
1124	0.5842
1133	0.7301
1142	0.7491
1151	0.6149
1160	0.4461
1169	0.4258
1178	0.7252
1187	0.7582
1196	0.7493
1205	0.7079
1214	0.5706
1223	0.3673
1232	0.3002
1241	0.459
1250	0.4323
1259	0.5621
1268	0.5854
1277	0.481
1286	0.4866
1295	0.6441
1304	0.7261
1313	0.6762
1322	0.7217
1331	0.6606
1340	0.6697
1349	0.6423
1358	0.6966
1367	0.7299
1376	0.51
1385	0.582
1394	0.5923
1403	0.5365
1412	0.6089
1421	0.6105
1430	0.6197
1439	0.7024
1448	0.7387
1457	0.6838
1466	0.6884
1475	0.7817
1484	0.8011
1493	0.8075
1502	0.8109
1511	0.8172
1520	0.8158
1529	0.8176
1538	0.8193
1547	0.8205
1556	0.8215
1565	0.822
1574	0.8223
1583	0.822
1592	0.8217
1601	0.8203
1610	0.8179
1619	0.815
1628	0.812
1637	0.8135
1646	0.815
1655	0.8188
1664	0.8229
1673	0.8264
1682	0.8289
1691	0.8292
1700	0.8293
1709	0.829
1718	0.8303
1727	0.8317
1736	0.8335
1745	0.8352
1754	0.8366
1763	0.8371
1772	0.8368
1781	0.8358
1790	0.8351
1799	0.8351
1808	0.8352
1817	0.8352
1826	0.8353
1835	0.8356
1844	0.8359
1853	0.8362
1862	0.8363
1871	0.8364
1880	0.8368
1889	0.8372
1898	0.8377
1907	0.8378
1916	0.8372
1925	0.8366
1934	0.8361
1943	0.8371
1952	0.8383
1961	0.8393
1970	0.8401
1979	0.8409
1988	0.8414
1997	0.8414
2006	0.8414
2015	0.8409
2024	0.8401
2033	0.839
2042	0.8377
2051	0.8362
2060	0.8347
2069	0.8331
2078	0.8317
2087	0.831
2096	0.8305
2105	0.8298
2114	0.829
2123	0.8281
2132	0.8272
2141	0.8258
2150	0.8242
2159	0.8226
2168	0.821
2177	0.8192
2186	0.8171
2195	0.815
2204	0.8129
2213	0.8109
2222	0.8089
2231	0.8069
2240	0.805
2249	0.8026
2258	0.8003
2267	0.798
2276	0.7957
2285	0.7933
2294	0.7911
2303	0.7888
2312	0.7867
2321	0.7842
2330	0.7813
2339	0.7784
2348	0.7773
2357	0.7766
2366	0.7761
2375	0.781
2384	0.7902
2393	0.8043
2402	0.81
2411	0.8091
2420	0.8082
2429	0.8073
2438	0.8064
2447	0.8055
2456	0.8047
2465	0.8038
2474	0.8029
2483	0.8026
2492	0.8031
2501	0.8035
2510	0.804
2519	0.8043
2528	0.8047
2537	0.8045
2546	0.8041
2555	0.8036
2564	0.8031
2573	0.8026
2582	0.8021
2591	0.8003
2600	0.7981
2609	0.795
2618	0.7903
2627	0.7854
2636	0.7809
2645	0.7783
2654	0.7813
2663	0.7855
2672	0.786
2681	0.783
2690	0.7803
2699	0.7791
2708	0.7816
2717	0.7845
2726	0.7861
2735	0.7868
2744	0.7882
2753	0.7895
2762	0.7906
2771	0.7902
2780	0.7899
2789	0.7845
2798	0.7774
2807	0.7712
2816	0.7658
2825	0.762
2834	0.76
2843	0.7592
2852	0.7582
2861	0.7502
2870	0.734
2879	0.7099
2888	0.6702
2897	0.6946
2906	0.7308
2915	0.7287
2924	0.7041
2933	0.5767
2942	0.5651
2951	0.6055
2960	0.6257
2969	0.6543
2978	0.6462
2987	0.5382
2996	0.5446
3005	0.5877
3014	0.7566
3023	0.771
3032	0.776
3041	0.7773
3050	0.7766
3059	0.7751
3068	0.7731
3077	0.7702
3086	0.767
3095	0.7634
3104	0.7596
3113	0.7546
3122	0.7496
3131	0.7428
3140	0.7354
3149	0.7266
3158	0.7178
3167	0.7093
3176	0.6996
3185	0.6881
3194	0.6766
3203	0.6639
3212	0.6338
3221	0.6063
3230	0.5789
3239	0.5456
3248	0.502
3257	0.4681
3266	0.4344
3275	0.4035
3284	0.3754
3293	0.3393
3302	0.304
3311	0.2756
3320	0.2594
3329	0.2534
3338	0.2541
3347	0.2659
3356	0.3037
3365	0.3328
3374	0.3275
3383	0.3154
3392	0.2943
3401	0.2639
3410	0.2346
3419	0.1968
3428	0.1396
3437	0.0966
3446	0.0938
3455	0.1669
3464	0.2474
3473	0.2926
3482	0.3726
3491	0.4348
3500	0.5012
3509	0.5584
3518	0.6226
3527	0.6876
3536	0.7137
3545	0.7351
3554	0.7515
3563	0.7657
3572	0.7786
3581	0.791
3590	0.8027
3599	0.814
3608	0.8232
3617	0.8283
3626	0.831
3635	0.8322
3644	0.8332
3653	0.8338
3662	0.8339
3671	0.8339
3680	0.834
3689	0.8341
3698	0.8343
3707	0.8342
3716	0.8338
3725	0.8333
3734	0.833
3743	0.8329
3752	0.8328
3761	0.8327
3770	0.8327
3779	0.8327
3788	0.8327
3797	0.8327
