Infrared Spectrum: GLUTARIC ACID, 2-METHYL-, DIETHYL ESTER
Formula: C10 H18 O4
CAS: 18545-83-0
State: SOLUTION (10% CCl4 FOR 3800-1335, 10% CS2 FOR 1335-460 CM^-^1)
Class: COBLENTZ III
Instrument: DOW KBr FOREPRISM-GRATING
Instrument parameters: BLAZED AT 3.5, 12.0, 20.0 MICRON AND CHANGED AT 5.0, 7.5, 14.9 MICRON
Sampling: TRANSMISSION
Path length: 0.012 CM, 0.011 CM
Resolution: 2
Origin: DOW CHEMICAL COMPANY
1/CM	TRANSMITTANCE
459	0.8011
468	0.7887
477	0.7768
486	0.7703
495	0.7699
504	0.7712
513	0.7592
522	0.743
531	0.7481
540	0.7611
549	0.7735
558	0.7845
567	0.7871
576	0.7711
585	0.7475
594	0.7288
603	0.7276
612	0.7406
621	0.7594
630	0.7775
639	0.79
648	0.7919
657	0.789
666	0.8238
675	0.8072
684	0.7878
693	0.7718
702	0.7601
711	0.7847
720	0.8051
729	0.7987
738	0.7794
747	0.7454
756	0.7068
765	0.7074
774	0.7224
783	0.7348
792	0.7264
801	0.7407
810	0.7469
819	0.7388
828	0.6732
837	0.6251
846	0.6788
855	0.5747
864	0.5941
873	0.6715
882	0.7331
891	0.7712
900	0.7691
909	0.7569
918	0.7487
927	0.7438
936	0.7299
945	0.7368
954	0.7424
963	0.7276
972	0.7225
981	0.6855
990	0.6122
999	0.6204
1008	0.6058
1017	0.4077
1026	0.2323
1035	0.225
1044	0.2413
1053	0.2912
1062	0.2955
1071	0.3678
1080	0.3326
1089	0.3602
1098	0.2333
1107	0.2624
1116	0.2529
1125	0.2002
1134	0.1388
1143	0.081
1152	0.0151
1161	0.0104
1170	0.0115
1179	0.022
1188	0.0354
1197	0.0247
1206	0.0279
1215	0.0483
1224	0.0534
1233	0.0405
1242	0.0183
1251	0.026
1260	0.0522
1269	0.0592
1278	0.0597
1287	0.1451
1296	0.1882
1305	0.1475
1314	0.1571
1323	0.1732
1332	0.2141
1341	0.3308
1350	0.3916
1359	0.4396
1368	0.2515
1377	0.2659
1386	0.4021
1395	0.4659
1404	0.626
1413	0.6821
1422	0.6708
1431	0.4701
1440	0.1693
1449	0.2558
1458	0.2431
1467	0.2064
1476	0.4626
1485	0.6736
1494	0.7515
1503	0.7751
1512	0.7893
1521	0.8017
1530	0.813
1539	0.8263
1548	0.8416
1557	0.8411
1566	0.8347
1575	0.8281
1584	0.8289
1593	0.8205
1602	0.8125
1611	0.8047
1620	0.8003
1629	0.8017
1638	0.8048
1647	0.7999
1656	0.7883
1665	0.7687
1674	0.7455
1683	0.7065
1692	0.6353
1701	0.531
1710	0.3882
1719	0.1586
1728	0.0077
1737	0.0009
1746	0.0004
1755	0
1764	0.0164
1773	0.3022
1782	0.5446
1791	0.6302
1800	0.6767
1809	0.7176
1818	0.7498
1827	0.7805
1836	0.8037
1845	0.8182
1854	0.8284
1863	0.8358
1872	0.8377
1881	0.8375
1890	0.8381
1899	0.8387
1908	0.8406
1917	0.8454
1926	0.8524
1935	0.8525
1944	0.8528
1953	0.8523
1962	0.8565
1971	0.8474
1980	0.8484
1989	0.8505
1998	0.878
2007	0.8978
2016	0.896
2025	0.8952
2034	0.8937
2043	0.8934
2052	0.8955
2061	0.8997
2070	0.9018
2079	0.9015
2088	0.9006
2097	0.901
2106	0.9018
2115	0.9031
2124	0.9044
2133	0.9055
2142	0.9068
2151	0.9078
2160	0.9087
2169	0.9091
2178	0.9093
2187	0.9094
2196	0.9087
2205	0.9078
2214	0.9061
2223	0.9041
2232	0.9017
2241	0.9001
2250	0.8989
2259	0.8975
2268	0.8962
2277	0.8947
2286	0.8934
2295	0.8925
2304	0.8916
2313	0.8911
2322	0.8909
2331	0.8904
2340	0.8899
2349	0.8912
2358	0.9018
2367	0.8994
2376	0.8924
2385	0.8873
2394	0.8857
2403	0.8858
2412	0.8864
2421	0.8868
2430	0.887
2439	0.8871
2448	0.8862
2457	0.8858
2466	0.8857
2475	0.8856
2484	0.8855
2493	0.8859
2502	0.8865
2511	0.887
2520	0.8875
2529	0.8881
2538	0.8887
2547	0.8891
2556	0.8897
2565	0.8901
2574	0.8902
2583	0.8902
2592	0.8902
2601	0.8902
2610	0.8902
2619	0.8902
2628	0.8902
2637	0.8902
2646	0.8902
2655	0.8902
2664	0.8898
2673	0.8894
2682	0.889
2691	0.8885
2700	0.8878
2709	0.8866
2718	0.8854
2727	0.8841
2736	0.8825
2745	0.8811
2754	0.882
2763	0.8818
2772	0.8787
2781	0.8774
2790	0.8767
2799	0.8737
2808	0.8671
2817	0.8585
2826	0.8438
2835	0.8149
2844	0.7468
2853	0.7605
2862	0.7858
2871	0.7525
2880	0.6225
2889	0.65
2898	0.6418
2907	0.537
2916	0.5591
2925	0.5885
2934	0.5332
2943	0.3332
2952	0.3484
2961	0.3244
2970	0.3534
2979	0.2882
2988	0.1374
2997	0.2069
3006	0.3134
3015	0.5727
3024	0.6664
3033	0.6937
3042	0.7555
3051	0.7989
3060	0.8292
3069	0.8414
3078	0.8487
3087	0.8547
3096	0.8599
3105	0.863
3114	0.8661
3123	0.8688
3132	0.8709
3141	0.8727
3150	0.8741
3159	0.8749
3168	0.8743
3177	0.8736
3186	0.8724
3195	0.8728
3204	0.8744
3213	0.8758
3222	0.8774
3231	0.8791
3240	0.8808
3249	0.8825
3258	0.8839
3267	0.8851
3276	0.8863
3285	0.8871
3294	0.8878
3303	0.8887
3312	0.8888
3321	0.8888
3330	0.8889
3339	0.8887
3348	0.8885
3357	0.8883
3366	0.8881
3375	0.8878
3384	0.8873
3393	0.8859
3402	0.8846
3411	0.8834
3420	0.8787
3429	0.8698
3438	0.8581
3447	0.8452
3456	0.8343
3465	0.8288
3474	0.8335
3483	0.8488
3492	0.8639
3501	0.8714
3510	0.8755
3519	0.8781
3528	0.8782
3537	0.8768
3546	0.8749
3555	0.8725
3564	0.8712
3573	0.8721
3582	0.8751
3591	0.8785
3600	0.8815
3609	0.8832
3618	0.8831
3627	0.8816
3636	0.8798
3645	0.8797
3654	0.8802
3663	0.88
3672	0.8768
3681	0.8694
3690	0.871
3699	0.8771
3708	0.8824
3717	0.8853
3726	0.8865
3735	0.8863
3744	0.8859
3753	0.8846
3762	0.8833
3771	0.8828
3780	0.8825
3789	0.8843
3798	0.8875
