Infrared Spectrum: Methyl m-trifluoromethylcarbanilate
Formula: C 9 H 8 F 3 N O 2
CAS: 18584-93-5
State: gas
Origin: EPA-IR VAPOR PHASE LIBRARY
1/CM	ABSORBANCE
551.7	0.009397
563.274	0.007177
574.848	0.005797
586.421	0.004657
597.995	0.003517
609.569	0.003827
621.143	0.005937
632.717	0.005227
644.291	0.005667
655.864	0.020197
667.438	0.020647
679.012	0.009277
690.586	0.023857
702.16	0.029097
713.734	0.010757
725.307	0.010027
736.881	0.008827
748.455	0.009007
760.029	0.016087
771.603	0.022827
783.177	0.029607
794.75	0.032957
806.324	0.012487
817.898	0.005267
829.472	0.004227
841.046	0.004617
852.619	0.005967
864.193	0.010207
875.767	0.018647
887.341	0.031977
898.915	0.029997
910.489	0.025967
922.062	0.012357
933.636	0.011287
945.21	0.017767
956.784	0.017147
968.358	0.008717
979.932	0.006017
991.505	0.006647
1003.08	0.009857
1014.65	0.006827
1026.23	0.007847
1037.8	0.011607
1049.37	0.025407
1060.95	0.065487
1072.52	0.098727
1084.1	0.066007
1095.67	0.056107
1107.24	0.044287
1118.82	0.040007
1130.39	0.087477
1141.97	0.218897
1153.54	0.222837
1165.11	0.149267
1176.69	0.242037
1188.26	0.255307
1199.83	0.370637
1211.41	0.328357
1222.98	0.142247
1234.56	0.133897
1246.13	0.083407
1257.7	0.052557
1269.28	0.052337
1280.85	0.066847
1292.42	0.076407
1304	0.093977
1315.57	0.125057
1327.15	0.279517
1338.72	0.260967
1350.29	0.059667
1361.87	0.026737
1373.44	0.016527
1385.02	0.014757
1396.59	0.016997
1408.16	0.026657
1419.74	0.045477
1431.31	0.072097
1442.88	0.110597
1454.46	0.117367
1466.03	0.049017
1477.61	0.057887
1489.18	0.094657
1500.75	0.103677
1512.33	0.133567
1523.9	0.207387
1535.48	0.189187
1547.05	0.070827
1558.62	0.038367
1570.2	0.027327
1581.77	0.027597
1593.34	0.040917
1604.92	0.049327
1616.49	0.043347
1628.07	0.026377
1639.64	0.011137
1651.21	0.008367
1662.79	0.008627
1674.36	0.009377
1685.93	0.010087
1697.51	0.010967
1709.08	0.012717
1720.66	0.018007
1732.23	0.029247
1743.8	0.051267
1755.38	0.134697
1766.95	0.241067
1778.53	0.119897
1790.1	0.045767
1801.67	0.029627
1813.25	0.015117
1824.82	0.010327
1836.39	0.007827
1847.97	0.006007
1859.54	0.005167
1871.12	0.004837
1882.69	0.004397
1894.26	0.003317
1905.84	0.003247
1917.41	0.003477
1928.99	0.004027
1940.56	0.003717
1952.13	0.002887
1963.71	0.002297
1975.28	0.001977
1986.85	0.001607
1998.43	0.001507
2010	0.001417
2021.58	0.001447
2033.15	0.001417
2044.72	0.001347
2056.3	0.001337
2067.87	0.001467
2079.44	0.001707
2091.02	0.002177
2102.59	0.002207
2114.17	0.002307
2125.74	0.002777
2137.31	0.003297
2148.89	0.003847
2160.46	0.003497
2172.04	0.002627
2183.61	0.002277
2195.18	0.002117
2206.76	0.002027
2218.33	0.002177
2229.9	0.002517
2241.48	0.003387
2253.05	0.004707
2264.63	0.007017
2276.2	0.009017
2287.77	0.006037
2299.35	0.003007
2310.92	0.002257
2322.5	0.002167
2334.07	0.002117
2345.64	0.002067
2357.22	0.001967
2368.79	0.001867
2380.36	0.001777
2391.94	0.001847
2403.51	0.001777
2415.09	0.001567
2426.66	0.001407
2438.23	0.001217
2449.81	0.0011148
2461.38	0.0011364
2472.96	0.001387
2484.53	0.001557
2496.1	0.001467
2507.68	0.001287
2519.25	0.001217
2530.82	0.0011043
2542.4	0.0009897
2553.97	0.0008866
2565.55	0.0009521
2577.12	0.0009821
2588.69	0.0010896
2600.27	0.001347
2611.84	0.001347
2623.41	0.001247
2634.99	0.0010502
2646.56	0.0011325
2658.14	0.001337
2669.71	0.001126
2681.28	0.0007962
2692.86	0.0007922
2704.43	0.0008938
2716.01	0.0011043
2727.58	0.0010785
2739.15	0.0009968
2750.73	0.0007904
2762.3	0.0007761
2773.87	0.000714
2785.45	0.0007298
2797.02	0.0007739
2808.6	0.0009496
2820.17	0.001287
2831.74	0.002207
2843.32	0.004637
2854.89	0.004987
2866.47	0.003737
2878.04	0.003607
2889.61	0.003787
2901.19	0.005157
2912.76	0.006227
2924.33	0.007117
2935.91	0.007747
2947.48	0.012057
2959.06	0.027127
2970.63	0.026177
2982.2	0.012097
2993.78	0.008447
3005.35	0.008727
3016.92	0.008407
3028.5	0.009777
3040.07	0.009457
3051.65	0.008757
3063.22	0.008197
3074.79	0.007157
3086.37	0.007247
3097.94	0.006637
3109.52	0.004697
3121.09	0.003277
3132.66	0.002277
3144.24	0.001577
3155.81	0.001197
3167.38	0.0008851
3178.96	0.0007838
3190.53	0.0007496
3202.11	0.000605
3213.68	0.0005671
3225.25	0.000487
3236.83	0.0003462
3248.4	0.00024009
3259.98	0.0002115
3271.55	0.00022869
3283.12	0.0001397
3294.7	0.00021884
3306.27	0.00024569
3317.84	0.0001493
3329.42	0.0001221
3340.99	0.0001252
3352.57	0.000166527
3364.14	0.0003608
3375.71	0.0003016
3387.29	0.0003896
3398.86	0.0006117
3410.43	0.0010934
3422.01	0.002197
3433.58	0.004997
3445.16	0.009857
3456.73	0.019057
3468.3	0.024937
3479.88	0.012177
3491.45	0.004297
3503.03	0.002907
3514.6	0.002397
3526.17	0.002007
3537.75	0.0010782
3549.32	0.0005736
3560.89	0.000334
3572.47	0.000181
3584.04	0.0001059
3595.62	7.49e-05
3607.19	1.2e-05
3618.76	0.0001039
3630.34	0.0001048
3641.91	2.9e-05
3653.49	0.00018876
3665.06	0.0002355
3676.63	8.35e-05
3688.21	0.00019061
3699.78	0.00022346
3711.35	0.0001472
3722.93	0.00019523
3734.5	0.0001475
3746.08	0.000103
3757.65	0.0001073
3769.22	0
3780.8	0.000170327
3792.37	3.9e-05
3803.94	1.8e-05
3815.52	2.2e-05
3827.09	7.99e-05
3838.67	0.0001262
3850.24	6e-05
3861.81	2.9e-05
3873.39	3.4e-05
3884.96	1.9e-05
3896.54	0.000144
3908.11	0.00019556
3919.68	0.0002712
3931.26	0.00024673
3942.83	0.00017909
3954.4	0.0001308
3965.98	0.0002938
3977.55	0.0003195
3989.13	0.0003264
4000.7	0.00023806
