Infrared Spectrum: Ethyl 4-chloro-3-trifluoromethylcarbanilate
Formula: C 10 H 9 Cl F 3 N O 2
CAS: 18585-06-3
State: gas
Origin: EPA-IR VAPOR PHASE LIBRARY
1/CM	ABSORBANCE
549.8	0.009535
559.445	0.006905
569.09	0.005045
578.734	0.004555
588.379	0.004015
598.024	0.003495
607.669	0.002775
617.313	0.002765
626.958	0.002665
636.603	0.003125
646.248	0.003985
655.893	0.009895
665.537	0.015055
675.182	0.005825
684.827	0.005605
694.472	0.009625
704.116	0.004705
713.761	0.003435
723.406	0.003965
733.051	0.005305
742.695	0.006355
752.34	0.008745
761.985	0.012345
771.63	0.012935
781.275	0.007775
790.919	0.006445
800.564	0.005885
810.209	0.010175
819.854	0.015475
829.498	0.014875
839.143	0.007715
848.788	0.004595
858.433	0.006075
868.078	0.013345
877.722	0.020395
887.367	0.012435
897.012	0.011675
906.657	0.009375
916.301	0.006845
925.946	0.007335
935.591	0.007805
945.236	0.005455
954.88	0.004545
964.525	0.005265
974.17	0.006895
983.815	0.008135
993.46	0.009555
1003.1	0.008855
1012.75	0.009445
1022.39	0.016565
1032.04	0.041855
1041.68	0.042305
1051.33	0.040365
1060.97	0.061745
1070.62	0.060075
1080.26	0.042935
1089.91	0.038935
1099.55	0.046045
1109.2	0.076705
1118.84	0.079545
1128.49	0.045055
1138.13	0.075815
1147.78	0.100945
1157.42	0.168145
1167.07	0.196435
1176.71	0.232185
1186.36	0.271185
1196	0.314745
1205.64	0.279605
1215.29	0.113445
1224.93	0.094715
1234.58	0.118075
1244.22	0.077295
1253.87	0.067125
1263.51	0.053895
1273.16	0.050275
1282.8	0.062175
1292.45	0.076435
1302.09	0.087335
1311.74	0.117665
1321.38	0.179075
1331.03	0.099375
1340.67	0.029775
1350.32	0.016815
1359.96	0.014855
1369.61	0.019345
1379.25	0.025855
1388.9	0.033965
1398.54	0.040625
1408.18	0.056695
1417.83	0.078075
1427.47	0.041145
1437.12	0.023465
1446.76	0.022945
1456.41	0.026875
1466.05	0.038535
1475.7	0.078515
1485.34	0.121475
1494.99	0.121375
1504.63	0.172505
1514.28	0.217485
1523.92	0.154935
1533.57	0.065675
1543.21	0.035855
1552.86	0.024955
1562.5	0.019415
1572.15	0.018355
1581.79	0.026255
1591.44	0.030565
1601.08	0.019545
1610.73	0.024905
1620.37	0.017905
1630.01	0.008835
1639.66	0.006425
1649.3	0.005565
1658.95	0.005145
1668.59	0.004765
1678.24	0.004965
1687.88	0.005945
1697.53	0.007345
1707.17	0.009625
1716.82	0.013255
1726.46	0.016325
1736.11	0.027315
1745.75	0.057505
1755.4	0.145695
1765.04	0.174785
1774.69	0.066935
1784.33	0.029425
1793.98	0.017005
1803.62	0.011755
1813.27	0.009615
1822.91	0.007375
1832.55	0.005515
1842.2	0.004265
1851.84	0.003255
1861.49	0.002735
1871.13	0.002555
1880.78	0.002715
1890.42	0.002455
1900.07	0.002515
1909.71	0.002765
1919.36	0.002625
1929	0.002245
1938.65	0.002015
1948.29	0.001715
1957.94	0.001555
1967.58	0.001495
1977.23	0.001405
1986.87	0.001335
1996.52	0.001215
2006.16	0.0011462
2015.81	0.0011429
2025.45	0.001185
2035.1	0.0010862
2044.74	0.0010614
2054.38	0.00111
2064.03	0.001265
2073.67	0.001495
2083.32	0.001605
2092.96	0.001605
2102.61	0.001605
2112.25	0.001655
2121.9	0.001285
2131.54	0.001205
2141.19	0.0011777
2150.83	0.001235
2160.48	0.001505
2170.12	0.001935
2179.77	0.002305
2189.41	0.002465
2199.06	0.002475
2208.7	0.002435
2218.35	0.002315
2227.99	0.002565
2237.64	0.002805
2247.28	0.003815
2256.92	0.005425
2266.57	0.008695
2276.21	0.011215
2285.86	0.007245
2295.5	0.003755
2305.15	0.002695
2314.79	0.002355
2324.44	0.002005
2334.08	0.002075
2343.73	0.002155
2353.37	0.002095
2363.02	0.001725
2372.66	0.001435
2382.31	0.001375
2391.95	0.001245
2401.6	0.001235
2411.24	0.001215
2420.89	0.001225
2430.53	0.001295
2440.18	0.0011407
2449.82	0.0010986
2459.47	0.0010414
2469.11	0.0010128
2478.75	0.0009916
2488.4	0.0011497
2498.04	0.001057
2507.69	0.0010877
2517.33	0.0010746
2526.98	0.0011052
2536.62	0.0008718
2546.27	0.0008928
2555.91	0.0008296
2565.56	0.0008582
2575.2	0.0008095
2584.85	0.0008169
2594.49	0.0007508
2604.14	0.0007448
2613.78	0.0007047
2623.43	0.0007002
2633.07	0.0006616
2642.72	0.0007022
2652.36	0.0006402
2662.01	0.0006296
2671.65	0.0005773
2681.29	0.0006439
2690.94	0.0007493
2700.58	0.0008139
2710.23	0.0008486
2719.87	0.001079
2729.52	0.0010193
2739.16	0.0010014
2748.81	0.0011336
2758.45	0.0009579
2768.1	0.000935
2777.74	0.0010309
2787.39	0.0009279
2797.03	0.0011115
2806.68	0.0009803
2816.32	0.001285
2825.97	0.001415
2835.61	0.001515
2845.26	0.001655
2854.9	0.001855
2864.55	0.002325
2874.19	0.003135
2883.84	0.004495
2893.48	0.004825
2903.12	0.005415
2912.77	0.006255
2922.41	0.006745
2932.06	0.007765
2941.7	0.011975
2951.35	0.011395
2960.99	0.010645
2970.64	0.014515
2980.28	0.020375
2989.93	0.024945
2999.57	0.016215
3009.22	0.011495
3018.86	0.007565
3028.51	0.005005
3038.15	0.004225
3047.8	0.003485
3057.44	0.002915
3067.09	0.002505
3076.73	0.002565
3086.38	0.001945
3096.02	0.002525
3105.67	0.002715
3115.31	0.002585
3124.95	0.002325
3134.6	0.001895
3144.24	0.001455
3153.89	0.001098
3163.53	0.0008839
3173.18	0.0008752
3182.82	0.0008906
3192.47	0.0007356
3202.11	0.0006766
3211.76	0.0006559
3221.4	0.0006033
3231.05	0.0004991
3240.69	0.0005236
3250.34	0.00034
3259.98	0.0002972
3269.63	0.000375
3279.27	7.2e-05
3288.92	0.00028074
3298.56	0.00022988
3308.21	0.00019915
3317.85	0.000188821
3327.49	0.00024592
3337.14	9.65e-05
3346.78	0.0002862
3356.43	0.000188333
3366.07	0.000519
3375.72	0.0003872
3385.36	0.0002933
3395.01	0.0005408
3404.65	0.0007228
3414.3	0.0008544
3423.94	0.001445
3433.59	0.002945
3443.23	0.006135
3452.88	0.012135
3462.52	0.019735
3472.17	0.015965
3481.81	0.005175
3491.46	0.002695
3501.1	0.002295
3510.75	0.002185
3520.39	0.001415
3530.04	0.0009144
3539.68	0.0005211
3549.32	0.0005623
3558.97	0.00025646
3568.61	0.0003574
3578.26	0.0004834
3587.9	0.0003506
3597.55	0.0003585
3607.19	0.0002931
3616.84	0.0003006
3626.48	0.000187263
3636.13	0.00025107
3645.77	0.0003468
3655.42	0.000187716
3665.06	0.0001417
3674.71	0.0002965
3684.35	0.00027321
3694	0.0003035
3703.64	0.0001013
3713.29	0.0001574
3722.93	0.0002053
3732.58	0.0003411
3742.22	0.000184422
3751.86	0.0003028
3761.51	0.00019612
3771.15	0.00024032
3780.8	0.0003252
3790.44	0.0002707
3800.09	0.0005025
3809.73	0.0001465
3819.38	0.00022546
3829.02	0.00028095
3838.67	0.00019697
3848.31	0.0002906
3857.96	0.0003295
3867.6	0.00017718
3877.25	0.00023055
3886.89	0.00020983
3896.54	0.0001614
3906.18	0.000192593
3915.83	0.00022103
3925.47	0.00028202
3935.12	0.00024023
3944.76	0.0001693
3954.41	0.000325
3964.05	0.000417
3973.69	0.0001307
3983.34	0.0003716
3992.98	0.0003734
