Infrared Spectrum: Benfluralin
Formula: C 13 H 16 F 3 N 3 O 4
CAS: 1861-40-1
State: gas
Instrument: HP-GC/MS/IRD
Origin: NIST Mass Spectrometry Data Center
1/CM	ABSORBANCE
550	0.0006255
562	0.0002224
574	0.0002919
586	0.0005421
598	0.000834
610	0.0009035
622	0.0009035
634	0.0011676
646	0.0018348
658	0.0026132
670	0.0026549
682	0.0013483
694	0.0021267
706	0.0088126
718	0.0185982
730	0.006394
742	0.0032109
754	0.0019738
766	0.0013622
778	0.0021823
790	0.0037113
802	0.0022935
814	0.0009591
826	0.0004031
838	0.0002085
850	0.0003197
862	0.0008757
874	0.0029746
886	0.0041839
898	0.008757
910	0.0067693
922	0.0024881
934	0.0008201
946	0.000695
958	0.001112
970	0.001529
982	0.0015707
994	0.0014873
1006	0.0020433
1018	0.0022101
1030	0.0016263
1042	0.0019043
1054	0.0028634
1066	0.0040032
1078	0.0044063
1090	0.005838
1102	0.0073948
1114	0.0103833
1126	0.026966
1138	0.0434931
1150	0.0606596
1162	0.0721271
1174	0.0384891
1186	0.04726
1198	0.0140251
1210	0.0085346
1222	0.0083539
1234	0.0081037
1246	0.0095493
1258	0.0133996
1270	0.0182785
1282	0.0178615
1294	0.0287452
1306	0.0965355
1318	0.11227
1330	0.0412691
1342	0.0365292
1354	0.0445773
1366	0.0253536
1378	0.0161935
1390	0.0145394
1402	0.0112729
1414	0.0068249
1426	0.0047816
1438	0.0051152
1450	0.0066998
1462	0.0085068
1474	0.007784
1486	0.00695
1498	0.0096744
1510	0.0123293
1522	0.0153317
1534	0.0259652
1546	0.0662752
1558	0.0804115
1570	0.0325399
1582	0.0147479
1594	0.0096744
1606	0.0094659
1618	0.0173889
1630	0.0208222
1642	0.0072697
1654	0.0028217
1666	0.001668
1678	0.0011398
1690	0.0008757
1702	0.0006811
1714	0.0005143
1726	0.0003614
1738	0.000278
1750	0.0002502
1762	0.0002919
1774	0.0003058
1786	0.0004587
1798	0.0008896
1810	0.0011676
1822	0.0007923
1834	0.0004587
1846	0.0002919
1858	0.0002502
1870	0.0002085
1882	0.0002085
1894	0.0001668
1906	0.0001529
1918	0.0001807
1930	0.0001668
1942	0.0001668
1954	0.000139
1966	0.0001112
1978	0.0001251
1990	0.0001251
2002	8.34e-05
2014	0.0001251
2026	0.0001529
2038	0.0002085
2050	0.0001946
2062	0.0001946
2074	0.0001668
2086	0.000139
2098	0.0001946
2110	0.0002502
2122	0.000139
2134	6.95e-05
2146	0.0001112
2158	8.34e-05
2170	8.34e-05
2182	9.73e-05
2194	0.0001112
2206	9.73e-05
2218	0.0001112
2230	0.0001529
2242	0.0001251
2254	0.000139
2266	0.0001807
2278	0.0002641
2290	0.0003197
2302	0.0003614
2314	0.0003058
2326	0.0002641
2338	0.0002641
2350	0.000278
2362	0.0002363
2374	0.0002085
2386	0.0001112
2398	0.0002085
2410	0.0002363
2422	0.0002224
2434	0.0002363
2446	0.0002502
2458	0.0002919
2470	0.0002919
2482	0.000278
2494	0.0002363
2506	0.0002085
2518	0.0002224
2530	0.0003197
2542	0.0003336
2554	0.0003614
2566	0.0003058
2578	0.0002919
2590	0.0003058
2602	0.0003197
2614	0.0003892
2626	0.0003753
2638	0.0003614
2650	0.0003753
2662	0.0004309
2674	0.0005421
2686	0.0006255
2698	0.0007367
2710	0.0008479
2722	0.0009174
2734	0.0009591
2746	0.0010008
2758	0.0010286
2770	0.0010286
2782	0.0010703
2794	0.001251
2806	0.0014734
2818	0.0018626
2830	0.0024186
2842	0.0033777
2854	0.0052681
2866	0.0086319
2878	0.0122598
2890	0.0121764
2902	0.0101887
2914	0.0110088
2926	0.0124683
2938	0.0167634
2950	0.0181395
2962	0.0172638
2974	0.0217535
2986	0.0136498
2998	0.0075755
3010	0.0037669
3022	0.0023352
3034	0.001668
3046	0.0012649
3058	0.0010147
3070	0.0011259
3082	0.0015429
3094	0.0018904
3106	0.0010425
3118	0.0007228
3130	0.0005421
3142	0.0004865
3154	0.0004309
3166	0.000417
3178	0.0002502
3190	0.0003058
3202	0.0002919
3214	0.0002224
3226	0.0002363
3238	0.0001807
3250	0.0002224
3262	0.000139
3274	0.0001668
3286	0.0001807
3298	9.73e-05
3310	6.95e-05
3322	6.95e-05
3334	9.73e-05
3346	0.0001112
3358	0.0001112
3370	0.0001529
3382	2.78e-05
3394	8.34e-05
3406	9.73e-05
3418	0.0001112
3430	0.0001112
3442	0.0001112
3454	6.95e-05
3466	0.0001807
3478	0.0001251
3490	0.0001529
3502	9.73e-05
3514	0.0001529
3526	6.95e-05
3538	0.0001946
3550	0.0002224
3562	8.34e-05
3574	0.0002085
3586	0.0001668
3598	0.0002085
3610	0.0001251
3622	0.0001668
3634	0.0001112
3646	0.0001807
3658	0.0001251
3670	0.0001251
3682	0.0002085
3694	0.0001807
3706	0.0002085
3718	0.0001946
3730	0.0002224
3742	0.0002363
3754	0.0002085
3766	0.0002085
3778	0.0002224
3790	0.0002085
3802	0.0001807
3814	0.0002919
3826	0.0001807
3838	0.0002363
