Infrared Spectrum: 1,4-Diacetoxy-2-butene
Formula: C 8 H 12 O 4
CAS: 18621-75-5
State: gas
Origin: EPA-IR VAPOR PHASE LIBRARY
1/CM	ABSORBANCE
549.8	0.00205
559.445	0.00276
569.09	0.0038
578.734	0.0046
588.379	0.00556
598.024	0.00707
607.669	0.00886
617.313	0.00926
626.958	0.00974
636.603	0.00963
646.248	0.00724
655.893	0.00533
665.537	0.00401
675.182	0.00377
684.827	0.00352
694.472	0.00352
704.116	0.00403
713.761	0.00402
723.406	0.00412
733.051	0.00384
742.695	0.00369
752.34	0.00319
761.985	0.0025
771.63	0.00174
781.275	0.00165
790.919	0.0016
800.564	0.00177
810.209	0.00249
819.854	0.00397
829.498	0.00627
839.143	0.00753
848.788	0.00664
858.433	0.00607
868.078	0.00603
877.722	0.00674
887.367	0.00683
897.012	0.00635
906.657	0.00579
916.301	0.00578
925.946	0.00672
935.591	0.00856
945.236	0.01164
954.88	0.01775
964.525	0.02533
974.17	0.02611
983.815	0.02388
993.46	0.02767
1003.1	0.03924
1012.75	0.05899
1022.39	0.08404
1032.04	0.09039
1041.68	0.06828
1051.33	0.04531
1060.97	0.03177
1070.62	0.02694
1080.26	0.02456
1089.91	0.02064
1099.55	0.01746
1109.2	0.01322
1118.84	0.0095
1128.49	0.00747
1138.13	0.00643
1147.78	0.00619
1157.42	0.00758
1167.07	0.01031
1176.71	0.01628
1186.36	0.02882
1196	0.06
1205.64	0.14065
1215.29	0.29089
1224.93	0.32083
1234.58	0.20892
1244.22	0.13636
1253.87	0.08365
1263.51	0.05484
1273.16	0.04261
1282.8	0.03047
1292.45	0.01798
1302.09	0.01099
1311.74	0.00788
1321.38	0.00688
1331.03	0.00722
1340.67	0.0092
1350.32	0.01464
1359.96	0.03029
1369.61	0.06168
1379.25	0.05803
1388.9	0.03166
1398.54	0.01857
1408.18	0.01209
1417.83	0.01031
1427.47	0.01027
1437.12	0.01177
1446.76	0.01373
1456.41	0.01335
1466.05	0.01156
1475.7	0.00951
1485.34	0.0075
1494.99	0.00611
1504.63	0.00535
1514.28	0.00485
1523.92	0.00448
1533.57	0.00405
1543.21	0.00374
1552.86	0.00345
1562.5	0.00329
1572.15	0.00312
1581.79	0.00307
1591.44	0.00304
1601.08	0.00304
1610.73	0.00315
1620.37	0.00329
1630.01	0.00342
1639.66	0.00378
1649.3	0.00433
1658.95	0.00468
1668.59	0.00502
1678.24	0.00548
1687.88	0.00634
1697.53	0.00823
1707.17	0.01169
1716.82	0.01806
1726.46	0.02897
1736.11	0.05043
1745.75	0.09246
1755.4	0.1606
1765.04	0.19474
1774.69	0.13853
1784.33	0.07171
1793.98	0.03528
1803.62	0.01905
1813.27	0.01171
1822.91	0.00782
1832.55	0.00564
1842.2	0.0045
1851.84	0.00381
1861.49	0.00339
1871.13	0.00302
1880.78	0.00271
1890.42	0.00254
1900.07	0.00239
1909.71	0.00238
1919.36	0.00228
1929	0.00219
1938.65	0.00209
1948.29	0.00199
1957.94	0.00191
1967.58	0.00189
1977.23	0.00183
1986.87	0.00184
1996.52	0.00175
2006.16	0.00164
2015.81	0.00169
2025.45	0.00172
2035.1	0.0019
2044.74	0.00212
2054.38	0.00227
2064.03	0.00214
2073.67	0.00188
2083.32	0.0017
2092.96	0.00168
2102.61	0.00165
2112.25	0.00173
2121.9	0.00156
2131.54	0.00133
2141.19	0.0011288
2150.83	0.0009979
2160.48	0.0009586
2170.12	0.0008668
2179.77	0.0007623
2189.41	0.0007544
2199.06	0.0008547
2208.7	0.0009431
2218.35	0.0008626
2227.99	0.0007012
2237.64	0.0007724
2247.28	0.0007596
2256.92	0.0007579
2266.57	0.0006673
2276.21	0.000618
2285.86	0.0006246
2295.5	0.0005954
2305.15	0.0004957
2314.79	0.0005536
2324.44	0.0005815
2334.08	0.0005869
2343.73	0.0007029
2353.37	0.0006289
2363.02	0.0006078
2372.66	0.0006767
2382.31	0.0006709
2391.95	0.0007192
2401.6	0.0007589
2411.24	0.0007456
2420.89	0.0008055
2430.53	0.0009477
2440.18	0.0010492
2449.82	0.0009279
2459.47	0.0009946
2469.11	0.0009027
2478.75	0.0007862
2488.4	0.0007056
2498.04	0.0006021
2507.69	0.000584
2517.33	0.0004881
2526.98	0.00033224
2536.62	0.00036176
2546.27	0.00038996
2555.91	0.00034241
2565.56	0.0004936
2575.2	0.0006288
2584.85	0.0005693
2594.49	0.0006676
2604.14	0.0005281
2613.78	0.0005552
2623.43	0.0004191
2633.07	0.0004015
2642.72	0.00040089
2652.36	0.0004277
2662.01	0.00036808
2671.65	0.0004107
2681.29	0.0004457
2690.94	0.0004449
2700.58	0.0004859
2710.23	0.0005786
2719.87	0.000641
2729.52	0.0006377
2739.16	0.0007361
2748.81	0.0006189
2758.45	0.0006972
2768.1	0.0006931
2777.74	0.000803
2787.39	0.0008563
2797.03	0.000906
2806.68	0.0010363
2816.32	0.0011215
2825.97	0.0010343
2835.61	0.0011368
2845.26	0.0015
2854.9	0.00183
2864.55	0.00238
2874.19	0.00304
2883.84	0.00386
2893.48	0.00481
2903.12	0.00548
2912.77	0.00608
2922.41	0.00681
2932.06	0.00879
2941.7	0.01232
2951.35	0.0154
2960.99	0.01487
2970.64	0.01272
2980.28	0.01058
2989.93	0.00879
2999.57	0.00705
3009.22	0.0062
3018.86	0.00655
3028.51	0.00839
3038.15	0.01102
3047.8	0.0108
3057.44	0.00716
3067.09	0.00422
3076.73	0.00328
3086.38	0.00287
3096.02	0.00246
3105.67	0.00187
3115.31	0.0014
3124.95	0.0012627
3134.6	0.0009445
3144.24	0.0007839
3153.89	0.0006576
3163.53	0.0005707
3173.18	0.0004956
3182.82	0.0004307
3192.47	0.00038329
3202.11	0.0004892
3211.76	0.0004163
3221.4	0.0002321
3231.05	0.0005035
3240.69	0.0002556
3250.34	0.00032282
3259.98	0.0002154
3269.63	0.00030276
3279.27	0.00034922
3288.92	0.0004172
3298.56	0.00030882
3308.21	0.00040225
3317.85	0.0004303
3327.49	0.0003775
3337.14	0.00033592
3346.78	0.00034205
3356.43	0.00033636
3366.07	0.00038165
3375.72	0.00040875
3385.36	0.0002155
3395.01	0.00032789
3404.65	0.0002433
3414.3	0.0004705
3423.94	0.0006265
3433.59	0.0004986
3443.23	0.0005385
3452.88	0.00038327
3462.52	0.0006251
3472.17	0.0010077
3481.81	0.0012473
3491.46	0.00191
3501.1	0.00227
3510.75	0.0024
3520.39	0.0018
3530.04	0.00144
3539.68	0.0008954
3549.32	0.0008197
3558.97	0.0005705
3568.61	0.0005558
3578.26	0.00033741
3587.9	0.0002854
3597.55	0.0002781
3607.19	0.00036055
3616.84	0.0004695
3626.48	0.00032712
3636.13	0.00040971
3645.77	0.000179
3655.42	0.0003828
3665.06	0.00040528
3674.71	0.00034619
3684.35	0.00032081
3694	0.0002111
3703.64	0.0002658
3713.29	0.000311002
3722.93	0.0002601
3732.58	0.00032194
3742.22	0
3751.86	0.00039071
3761.51	0.000208
3771.15	0.000174
3780.8	0.000217
3790.44	0.0003743
3800.09	0.00032423
3809.73	0.000232
3819.38	0.0002954
3829.02	0.0002465
3838.67	0.00030545
3848.31	0.0002678
3857.96	0.00038141
3867.6	0.00037735
3877.25	0.000192
3886.89	0.000295
3896.54	0.00037853
3906.18	0.0004843
3915.83	0.0004231
3925.47	0.0006394
3935.12	0.0006658
3944.76	0.0006188
3954.41	0.0004573
3964.05	0.0005021
3973.69	0.0005809
3983.34	0.0005334
3992.98	0.0006116
