Infrared Spectrum: 4-Phenylbenzhydrazide
Formula: C 13 H 12 N 2 O
CAS: 18622-23-6
State: gas
Origin: EPA-IR VAPOR PHASE LIBRARY
1/CM	ABSORBANCE
549.8	0.003233
559.445	0.002393
569.09	0.002083
578.734	0.001993
588.379	0.001803
598.024	0.001803
607.669	0.002003
617.313	0.001753
626.958	0.001813
636.603	0.001783
646.248	0.002283
655.893	0.001813
665.537	0.002483
675.182	0.003203
684.827	0.005623
694.472	0.008853
704.116	0.008083
713.761	0.005293
723.406	0.004493
733.051	0.007253
742.695	0.012583
752.34	0.012703
761.985	0.006683
771.63	0.004303
781.275	0.002623
790.919	0.002133
800.564	0.001963
810.209	0.002413
819.854	0.002893
829.498	0.003523
839.143	0.004973
848.788	0.006543
858.433	0.005093
868.078	0.002603
877.722	0.002173
887.367	0.002473
897.012	0.003523
906.657	0.005323
916.301	0.008643
925.946	0.013693
935.591	0.019223
945.236	0.013183
954.88	0.006003
964.525	0.003753
974.17	0.002733
983.815	0.002273
993.46	0.002363
1003.1	0.004313
1012.75	0.005543
1022.39	0.001143
1032.04	0.001203
1041.68	0.001723
1051.33	0.001283
1060.97	0.001703
1070.62	0.001663
1080.26	0.001723
1089.91	0.001683
1099.55	0.001363
1109.2	0.002173
1118.84	0.001823
1128.49	0.001363
1138.13	0.001263
1147.78	0.0011221
1157.42	0.0008781
1167.07	0.001473
1176.71	0.001263
1186.36	0.002483
1196	0.002343
1205.64	0.001263
1215.29	0.001873
1224.93	0.002173
1234.58	0.003093
1244.22	0.003953
1253.87	0.006703
1263.51	0.010003
1273.16	0.016213
1282.8	0.021853
1292.45	0.016433
1302.09	0.007923
1311.74	0.004223
1321.38	0.002963
1331.03	0.002493
1340.67	0.002233
1350.32	0.002053
1359.96	0.002013
1369.61	0.002063
1379.25	0.002243
1388.9	0.002613
1398.54	0.003463
1408.18	0.004533
1417.83	0.007013
1427.47	0.013223
1437.12	0.025573
1446.76	0.032193
1456.41	0.023483
1466.05	0.014973
1475.7	0.012563
1485.34	0.010963
1494.99	0.006743
1504.63	0.005503
1514.28	0.004803
1523.92	0.004113
1533.57	0.003343
1543.21	0.002863
1552.86	0.002943
1562.5	0.003013
1572.15	0.002803
1581.79	0.003363
1591.44	0.005903
1601.08	0.009553
1610.73	0.010583
1620.37	0.007893
1630.01	0.009003
1639.66	0.009373
1649.3	0.006843
1658.95	0.005563
1668.59	0.006363
1678.24	0.009773
1687.88	0.019283
1697.53	0.038853
1707.17	0.031443
1716.82	0.013933
1726.46	0.007433
1736.11	0.004393
1745.75	0.002803
1755.4	0.002003
1765.04	0.001673
1774.69	0.001533
1784.33	0.001403
1793.98	0.001703
1803.62	0.001273
1813.27	0.0009111
1822.91	0.0007895
1832.55	0.0006286
1842.2	0.0006045
1851.84	0.0006215
1861.49	0.0006233
1871.13	0.0007991
1880.78	0.0009408
1890.42	0.0010389
1900.07	0.0008467
1909.71	0.0007382
1919.36	0.0008702
1929	0.0008794
1938.65	0.0009701
1948.29	0.0008678
1957.94	0.0009386
1967.58	0.0004361
1977.23	0.0002691
1986.87	0.0002999
1996.52	0.0002638
2006.16	0.0003008
2015.81	0.0002538
2025.45	0.0002453
2035.1	0.00017366
2044.74	0.00016612
2054.38	0.00013727
2064.03	0.0001044
2073.67	0.00018724
2083.32	0.00011335
2092.96	0.00017931
2102.61	9.1e-05
2112.25	5.84e-05
2121.9	0.000125648
2131.54	0.0001532
2141.19	0.00016849
2150.83	0.00014388
2160.48	0.00017597
2170.12	0.00018904
2179.77	0.00012001
2189.41	7.94e-05
2199.06	7.86e-05
2208.7	0.00013456
2218.35	0.00014551
2227.99	0.00016336
2237.64	0.00015554
2247.28	0.00018736
2256.92	0.00017035
2266.57	0.000122256
2276.21	0.00019569
2285.86	0.00018667
2295.5	0.00019289
2305.15	0.0002898
2314.79	0.0003359
2324.44	0.0002652
2334.08	0.00021992
2343.73	0.000243
2353.37	0.00017586
2363.02	0.00016529
2372.66	0.000131881
2382.31	9.93e-05
2391.95	0.00017694
2401.6	0.00013569
2411.24	0.000131723
2420.89	0.00017001
2430.53	0.00017991
2440.18	0.00011818
2449.82	0.00018197
2459.47	0.000130463
2469.11	0.00015432
2478.75	9.9e-05
2488.4	7.9e-05
2498.04	0.00017971
2507.69	9.25e-05
2517.33	0.00019917
2526.98	0.0002818
2536.62	0.0002463
2546.27	0.0002485
2555.91	0.00021766
2565.56	0.0002623
2575.2	0.0002232
2584.85	0.00015808
2594.49	0.000249
2604.14	0.0002381
2613.78	0.0002429
2623.43	0.00016685
2633.07	0.0001609
2642.72	0.00016031
2652.36	0.00011358
2662.01	8.2e-05
2671.65	0.00015271
2681.29	0.00019182
2690.94	0.0002278
2700.58	0.00019103
2710.23	0.00015389
2719.87	0.000107
2729.52	0.000321
2739.16	0.0002321
2748.81	0.00014127
2758.45	0.0001855
2768.1	0.00019228
2777.74	0.0002539
2787.39	0.0002606
2797.03	0.00013741
2806.68	0.0003371
2816.32	0.0002089
2825.97	0.0002758
2835.61	0.0003591
2845.26	0.00017855
2854.9	0.00015213
2864.55	0.0004056
2874.19	0.0004382
2883.84	0.000507
2893.48	0.0004603
2903.12	0.0003545
2912.77	0.00042
2922.41	0.0003142
2932.06	0.0002714
2941.7	0.0003327
2951.35	0.0004527
2960.99	0.0004933
2970.64	0.0004184
2980.28	0.0004987
2989.93	0.0006298
2999.57	0.0008208
3009.22	0.0011084
3018.86	0.001973
3028.51	0.005013
3038.15	0.007743
3047.8	0.004483
3057.44	0.004913
3067.09	0.008233
3076.73	0.007403
3086.38	0.005343
3096.02	0.003953
3105.67	0.002353
3115.31	0.001363
3124.95	0.0010916
3134.6	0.0006728
3144.24	0.0006879
3153.89	0.0004678
3163.53	0.0004805
3173.18	0.000585
3182.82	0.000503
3192.47	0.0006501
3202.11	0.0006561
3211.76	0.0006756
3221.4	0.0005613
3231.05	0.0003492
3240.69	0.0005793
3250.34	0.0003104
3259.98	0.000507
3269.63	0.0003391
3279.27	0.0004061
3288.92	0.0005398
3298.56	0.0004142
3308.21	0.000801
3317.85	0.0005293
3327.49	0.0005329
3337.14	0.0006777
3346.78	0.0007834
3356.43	0.0006554
3366.07	0.0005885
3375.72	0.0007604
3385.36	0.0009207
3395.01	0.0007807
3404.65	0.0005303
3414.3	0.0008417
3423.94	0.000766
3433.59	0.001143
3443.23	0.001633
3452.88	0.002443
3462.52	0.004083
3472.17	0.004983
3481.81	0.004053
3491.46	0.002143
3501.1	0.001553
3510.75	0.0008596
3520.39	0.0006229
3530.04	0.0005582
3539.68	0.0004801
3549.32	0.0004831
3558.97	0.0004104
3568.61	0.000453
3578.26	0.0004227
3587.9	0.0005122
3597.55	0.0002479
3607.19	0.00019764
3616.84	0.0004058
3626.48	0.000319
3636.13	0.0004566
3645.77	0.0004877
3655.42	0.0004567
3665.06	0.000341
3674.71	0.0004511
3684.35	0.00020305
3694	0.00022057
3703.64	0.0004705
3713.29	0.0004346
3722.93	0.0002977
3732.58	0.0003193
3742.22	0.000526
3751.86	0.0003076
3761.51	0.0003112
3771.15	0.0002309
3780.8	0.000392
3790.44	0.0004821
3800.09	0.0004538
3809.73	0.0005302
3819.38	0.0003596
3829.02	0.000426
3838.67	0.0004469
3848.31	0.0005449
3857.96	0.0002658
3867.6	0.0004703
3877.25	0.0003578
3886.89	0.0003622
3896.54	0.0004031
3906.18	0.0002539
3915.83	0.0003101
3925.47	0.0003739
3935.12	0.0003459
3944.76	0.00013891
3954.41	0.0003506
3964.05	0.0003624
3973.69	0.0003872
3983.34	0.0002775
3992.98	0.0003522
