Infrared Spectrum: PENTAPHENYL BENZENE
Formula: C36 H26
CAS: 18631-82-8
State: SOLUTION (6% IN CCl4 FOR 3800-1300, 2% IN CS2 FOR 1300-650, AND 6% CCl4 FOR 650-240 CM^-^1) VERSUS SOLVENT
Class: COBLENTZ
Instrument: Not specified, most likely a grating or hybrid spectrometer.
Sampling: TRANSMISSION
Path length: 0.011, 0.010, AND 0.010 CM (CsBr CELL)
Resolution: 4
Origin: DOW CORNING CORP.
1/CM	TRANSMITTANCE
235.821	0.893
244.776	0.886
253.732	0.881
262.687	0.879
271.642	0.879
280.597	0.888
289.553	0.895
298.508	0.902
307.463	0.905
316.418	0.907
325.374	0.914
334.329	0.924
343.284	0.935
352.239	0.937
361.195	0.94
370.15	0.945
379.105	0.945
388.061	0.942
397.016	0.94
405.971	0.942
414.926	0.951
423.882	0.956
432.837	0.958
441.792	0.954
450.747	0.966
459.703	0.965
468.658	0.972
477.613	0.973
486.568	0.98
495.524	0.986
504.479	0.977
513.434	0.966
522.39	0.958
531.345	0.924
540.3	0.8182
549.255	0.649
558.211	0.938
567.166	0.965
576.121	0.97
585.076	0.975
594.032	0.982
602.987	0.966
611.942	0.919
620.897	0.968
629.853	0.986
638.808	0.98
647.763	0.931
656.719	0.858
665.674	0.863
674.629	0.867
683.584	0.872
692.54	0.827
701.495	0.5321
710.45	0.7601
719.405	0.876
728.361	0.849
737.316	0.83
746.271	0.884
755.226	0.842
764.182	0.664
773.137	0.703
782.092	0.891
791.048	0.895
800.003	0.869
808.958	0.877
817.913	0.893
826.869	0.891
835.824	0.884
844.779	0.876
853.734	0.886
862.69	0.888
871.645	0.886
880.6	0.888
889.555	0.883
898.511	0.7971
907.466	0.869
916.421	0.876
925.377	0.888
934.332	0.891
943.287	0.891
952.242	0.89
961.198	0.884
970.153	0.883
979.108	0.883
988.063	0.883
997.019	0.879
1005.97	0.874
1014.93	0.869
1023.88	0.856
1032.84	0.766
1041.8	0.877
1050.75	0.876
1059.71	0.872
1068.66	0.869
1077.62	0.797
1086.57	0.883
1095.53	0.884
1104.48	0.884
1113.44	0.883
1122.39	0.891
1131.35	0.891
1140.3	0.895
1149.26	0.898
1158.21	0.895
1167.17	0.897
1176.12	0.891
1185.08	0.897
1194.03	0.904
1202.99	0.902
1211.95	0.9
1220.9	0.897
1229.86	0.895
1238.81	0.893
1247.77	0.893
1256.72	0.893
1265.68	0.893
1274.63	0.888
1283.59	0.893
1292.54	0.893
1301.5	0.893
1310.45	0.886
1319.41	0.891
1328.36	0.876
1337.32	0.895
1346.27	0.895
1355.23	0.891
1364.18	0.891
1373.14	0.872
1382.1	0.804
1391.05	0.78
1400.01	0.867
1408.96	0.876
1417.92	0.848
1426.87	0.6869
1435.83	0.7459
1444.78	0.6539
1453.74	0.7969
1462.69	0.856
1471.65	0.869
1480.6	0.855
1489.56	0.7989
1498.51	0.631
1507.47	0.694
1516.42	0.865
1525.38	0.858
1534.33	0.842
1543.29	0.818
1552.25	0.855
1561.2	0.862
1570.16	0.832
1579.11	0.7799
1588.07	0.849
1597.02	0.787
1605.98	0.5235
1614.93	0.842
1623.89	0.876
1632.84	0.886
1641.8	0.884
1650.75	0.883
1659.71	0.883
1668.66	0.877
1677.62	0.881
1686.57	0.881
1695.53	0.886
1704.48	0.886
1713.44	0.886
1722.4	0.888
1731.35	0.886
1740.31	0.879
1749.26	0.865
1758.22	0.862
1767.17	0.877
1776.13	0.879
1785.08	0.877
1794.04	0.862
1802.99	0.828
1811.95	0.853
1820.9	0.86
1829.86	0.872
1838.81	0.883
1847.77	0.883
1856.72	0.883
1865.68	0.874
1874.63	0.841
1883.59	0.846
1892.55	0.844
1901.5	0.87
1910.46	0.883
1919.41	0.881
1928.37	0.877
1937.32	0.87
1946.28	0.802
1955.23	0.856
1964.19	0.837
1973.14	0.877
1982.1	0.883
1991.05	0.883
2000.01	0.883
2008.96	0.887
2017.92	0.886
2026.87	0.888
2035.83	0.89
2044.78	0.891
2053.74	0.89
2062.7	0.89
2071.65	0.89
2080.61	0.89
2089.56	0.89
2098.52	0.89
2107.47	0.888
2116.43	0.888
2125.38	0.888
2134.34	0.8868
2143.29	0.886
2152.25	0.886
2161.2	0.886
2170.16	0.8873
2179.11	0.8857
2188.07	0.884
2197.02	0.886
2205.98	0.884
2214.94	0.884
2223.89	0.884
2232.85	0.883
2241.8	0.883
2250.76	0.8832
2259.71	0.883
2268.67	0.886
2277.62	0.888
2286.58	0.886
2295.53	0.886
2304.49	0.884
2313.44	0.884
2322.4	0.8865
2331.35	0.888
2340.31	0.89
2349.26	0.891
2358.22	0.891
2367.17	0.8884
2376.13	0.888
2385.09	0.886
2394.04	0.886
2403	0.8877
2411.95	0.888
2420.91	0.8863
2429.86	0.8853
2438.82	0.884
2447.77	0.886
2456.73	0.886
2465.68	0.8888
2474.64	0.89
2483.59	0.89
2492.55	0.8862
2501.5	0.886
2510.46	0.886
2519.41	0.888
2528.37	0.888
2537.32	0.891
2546.28	0.89
2555.24	0.8871
2564.19	0.886
2573.15	0.884
2582.1	0.884
2591.06	0.884
2600.01	0.886
2608.97	0.886
2617.92	0.888
2626.88	0.89
2635.83	0.89
2644.79	0.891
2653.74	0.891
2662.7	0.891
2671.65	0.8929
2680.61	0.8921
2689.56	0.893
2698.52	0.8922
2707.47	0.891
2716.43	0.891
2725.39	0.891
2734.34	0.891
2743.3	0.8901
2752.25	0.891
2761.21	0.893
2770.16	0.8917
2779.12	0.893
2788.07	0.893
2797.03	0.893
2805.98	0.893
2814.94	0.8933
2823.89	0.893
2832.85	0.891
2841.8	0.891
2850.76	0.89
2859.71	0.886
2868.67	0.8838
2877.62	0.881
2886.58	0.883
2895.54	0.884
2904.49	0.884
2913.45	0.8832
2922.4	0.8799
2931.36	0.876
2940.31	0.876
2949.27	0.8724
2958.22	0.8726
2967.18	0.876
2976.13	0.8754
2985.09	0.8654
2994.04	0.863
3003	0.8501
3011.95	0.8203
3020.91	0.7474
3029.86	0.6113
3038.82	0.6067
3047.77	0.7002
3056.73	0.6234
3065.69	0.528
3074.64	0.6784
3083.6	0.6571
3092.55	0.6942
3101.51	0.8181
3110.46	0.8385
3119.42	0.8841
3128.37	0.9
3137.33	0.902
3146.28	0.9
3155.24	0.8999
3164.19	0.9099
3173.15	0.912
3182.1	0.912
3191.06	0.912
3200.01	0.912
3208.97	0.911
3217.92	0.914
3226.88	0.914
3235.84	0.914
3244.79	0.914
3253.75	0.912
3262.7	0.9118
3271.66	0.91
3280.61	0.912
3289.57	0.909
3298.52	0.909
3307.48	0.9068
3316.43	0.905
3325.39	0.904
3334.34	0.902
3343.3	0.9022
3352.25	0.902
3361.21	0.9037
3370.16	0.902
3379.12	0.9037
3388.08	0.902
3397.03	0.902
3405.99	0.902
3414.94	0.902
3423.9	0.902
3432.85	0.9036
3441.81	0.902
3450.76	0.902
3459.72	0.9034
3468.67	0.904
3477.63	0.904
3486.58	0.902
3495.54	0.904
3504.49	0.904
3513.45	0.904
3522.4	0.902
3531.36	0.907
3540.31	0.9064
3549.27	0.9066
3558.23	0.905
3567.18	0.907
3576.14	0.907
3585.09	0.907
3594.05	0.905
3603	0.905
3611.96	0.905
3620.91	0.9042
3629.87	0.905
3638.82	0.905
3647.78	0.9057
3656.73	0.907
3665.69	0.907
3674.64	0.905
3683.6	0.902
3692.55	0.9088
3701.51	0.909
3710.46	0.909
3719.42	0.912
3728.38	0.91
3737.33	0.916
3746.29	0.909
3755.24	0.912
3764.2	0.914
3773.15	0.914
3782.11	0.916
3791.06	0.914
