Infrared Spectrum: 2-Isobutylthiazole
Formula: C 7 H 11 N S
CAS: 18640-74-9
State: gas
Instrument: HP-GC/MS/IRD
Origin: NIST Mass Spectrometry Data Center
1/CM	ABSORBANCE
550	0.0003312
562	0.0001792
574	0.0003216
586	0.0008816
598	0.0012512
610	0.0013344
622	0.0010784
634	0.00064
646	0.0003888
658	0.0004864
670	0.0008144
682	0.001344
694	0.0028656
706	0.0056288
718	0.0060336
730	0.002944
742	0.0011264
754	0.0008848
766	0.0014144
778	0.0012368
790	0.0006784
802	0.0003984
814	0.0003472
826	0.000288
838	0.0001536
850	0.0002704
862	0.0006688
874	0.0011264
886	0.0009312
898	0.0003888
910	0.0003328
922	0.0005632
934	0.0007264
946	0.0005856
958	0.0004432
970	0.0002544
982	0.0002688
994	0.0003424
1006	0.0005328
1018	0.0010448
1030	0.0026176
1042	0.0048912
1054	0.0042592
1066	0.002296
1078	0.0014032
1090	0.0010784
1102	0.0011408
1114	0.001368
1126	0.0019552
1138	0.0032768
1150	0.0047376
1162	0.0051312
1174	0.003736
1186	0.0019024
1198	0.0008816
1210	0.000624
1222	0.0007952
1234	0.00112
1246	0.0011088
1258	0.0008944
1270	0.0007776
1282	0.000816
1294	0.0008448
1306	0.0009008
1318	0.0010128
1330	0.000928
1342	0.0011104
1354	0.0011888
1366	0.0015312
1378	0.0020944
1390	0.0023232
1402	0.0019264
1414	0.002088
1426	0.0025456
1438	0.0025216
1450	0.0022784
1462	0.002528
1474	0.002608
1486	0.00272
1498	0.0037056
1510	0.0033872
1522	0.0015008
1534	0.0005616
1546	0.000296
1558	0.000264
1570	0.0003568
1582	0.0005536
1594	0.000608
1606	0.000424
1618	0.0002176
1630	0.0001568
1642	0.0001584
1654	0.0001552
1666	0.000136
1678	0.00012
1690	0.0001616
1702	0.0001456
1714	0.0001488
1726	0.0001872
1738	0.0003072
1750	0.0005632
1762	0.0004992
1774	0.0002112
1786	0.0001328
1798	0.0001136
1810	0.0001184
1822	0.000104
1834	0.0001008
1846	9.44e-05
1858	8e-05
1870	8.96e-05
1882	0.0001008
1894	0.000104
1906	9.28e-05
1918	0.000104
1930	0.0001568
1942	0.0001136
1954	8.96e-05
1966	9.28e-05
1978	8.32e-05
1990	7.68e-05
2002	8.96e-05
2014	5.28e-05
2026	7.04e-05
2038	8.8e-05
2050	8.8e-05
2062	8.32e-05
2074	8.64e-05
2086	0.0001024
2098	0.0001104
2110	0.000104
2122	0.0001008
2134	0.0001104
2146	8.16e-05
2158	9.92e-05
2170	0.0001008
2182	0.0001024
2194	0.0001104
2206	0.0001312
2218	0.0001216
2230	8e-05
2242	7.2e-05
2254	8.16e-05
2266	6.4e-05
2278	0.0001024
2290	0.0001408
2302	0.0001712
2314	0.0001424
2326	0.0001328
2338	0.0001216
2350	0.0001184
2362	0.0001136
2374	0.0001408
2386	0.0001296
2398	0.00012
2410	0.0001328
2422	0.00012
2434	0.0001408
2446	0.0001056
2458	0.0001536
2470	0.0001584
2482	0.0001632
2494	0.0001424
2506	0.0001376
2518	0.0001792
2530	0.0001696
2542	0.0001888
2554	0.0001824
2566	0.0002144
2578	0.0001968
2590	0.0001648
2602	0.000232
2614	0.0002208
2626	0.0002576
2638	0.0002144
2650	0.0002032
2662	0.000208
2674	0.0002048
2686	0.0001968
2698	0.0002464
2710	0.0002624
2722	0.0003328
2734	0.0004016
2746	0.0004112
2758	0.0003696
2770	0.0004304
2782	0.0004336
2794	0.0004336
2806	0.0005568
2818	0.0006864
2830	0.000968
2842	0.0013648
2854	0.0017872
2866	0.0028096
2878	0.004936
2890	0.0056384
2902	0.0058256
2914	0.0065728
2926	0.007736
2938	0.008968
2950	0.0103568
2962	0.0148704
2974	0.0144672
2986	0.0062464
2998	0.0019968
3010	0.0009952
3022	0.0006848
3034	0.0006272
3046	0.0004768
3058	0.0004976
3070	0.0006144
3082	0.001
3094	0.0016192
3106	0.0009904
3118	0.0006128
3130	0.0005968
3142	0.0004176
3154	0.0003552
3166	0.0003568
3178	0.0002688
3190	0.00028
3202	0.0002848
3214	0.0002528
3226	0.0002304
3238	0.0001712
3250	0.0001968
3262	0.0002128
3274	0.0001744
3286	0.0001456
3298	0.0001984
3310	0.0001648
3322	0.0001216
3334	0.000184
3346	0.0001456
3358	0.0002208
3370	0.0002064
3382	0.0002688
3394	0.00016
3406	0.0001568
3418	0.0001872
3430	0.0001824
3442	0.0001648
3454	0.0001792
3466	0.0001488
3478	0.0001136
3490	0.0001472
3502	0.0001264
3514	0.0001376
3526	0.0001728
3538	0.0002096
3550	0.0001648
3562	6.56e-05
3574	0.0002096
3586	0.0001888
3598	8.64e-05
3610	0.0001456
3622	0.0001984
3634	0.0001488
3646	0.0001584
3658	0.0001616
3670	0.0001696
3682	0.0001872
3694	0.0001728
3706	6.24e-05
3718	0.000232
3730	0.0001952
3742	0.0002352
3754	0.0001872
3766	0.0001664
3778	0.0001744
3790	0.00024
3802	0.000288
3814	0.000144
3826	0.0001488
3838	0.0002096
