Infrared Spectrum: 4-Bromo-3-nitroacetophenone
Formula: C 8 H 6 Br N O 3
CAS: 18640-58-9
State: gas
Origin: EPA-IR VAPOR PHASE LIBRARY
1/CM	ABSORBANCE
549.9	0.00057024
559.547	0.0007412
569.193	0.00058379
578.84	0.0008708
588.486	0.0010646
598.133	0.002105
607.779	0.002305
617.426	0.0013152
627.072	0.0010365
636.719	0.0009243
646.365	0.0010356
656.012	0.001765
665.658	0.003615
675.305	0.001585
684.951	0.0006773
694.598	0.0006083
704.245	0.0007519
713.891	0.0005933
723.538	0.00055861
733.184	0.0007719
742.831	0.0010844
752.477	0.0013521
762.124	0.002445
771.77	0.004295
781.417	0.002755
791.063	0.0011493
800.71	0.0009526
810.356	0.001665
820.003	0.003165
829.649	0.003335
839.296	0.002415
848.943	0.0011178
858.589	0.000884
868.236	0.0012248
877.882	0.002175
887.529	0.003165
897.175	0.002175
906.822	0.001525
916.468	0.0013074
926.115	0.0009676
935.761	0.0009413
945.408	0.001675
955.054	0.003295
964.701	0.002805
974.347	0.002165
983.994	0.0013206
993.64	0.0011841
1003.29	0.0012314
1012.93	0.001915
1022.58	0.003935
1032.23	0.009545
1041.87	0.005475
1051.52	0.001805
1061.17	0.0014655
1070.81	0.002025
1080.46	0.003495
1090.11	0.002945
1099.75	0.001495
1109.4	0.0011056
1119.05	0.0008881
1128.69	0.0009939
1138.34	0.0008796
1147.99	0.0011692
1157.63	0.0014001
1167.28	0.0010754
1176.92	0.0008633
1186.57	0.0011745
1196.22	0.001525
1205.86	0.002245
1215.51	0.003645
1225.16	0.009775
1234.8	0.019095
1244.45	0.016115
1254.1	0.007455
1263.74	0.008615
1273.39	0.010545
1283.04	0.006425
1292.68	0.003425
1302.33	0.002455
1311.98	0.002555
1321.62	0.002945
1331.27	0.004175
1340.92	0.007865
1350.56	0.013995
1360.21	0.016775
1369.86	0.010515
1379.5	0.005755
1389.15	0.005075
1398.79	0.003985
1408.44	0.002725
1418.09	0.002415
1427.73	0.002525
1437.38	0.002395
1447.03	0.001895
1456.67	0.002005
1466.32	0.002255
1475.97	0.002365
1485.61	0.001965
1495.26	0.002185
1504.91	0.002815
1514.55	0.003965
1524.2	0.005745
1533.85	0.008325
1543.49	0.013735
1553.14	0.022015
1562.79	0.018105
1572.43	0.010775
1582.08	0.009535
1591.73	0.013015
1601.37	0.013255
1611.02	0.005635
1620.67	0.002505
1630.31	0.001875
1639.96	0.001715
1649.6	0.0014771
1659.25	0.001665
1668.9	0.002345
1678.54	0.002815
1688.19	0.002905
1697.84	0.006135
1707.48	0.020245
1717.13	0.021795
1726.78	0.005365
1736.42	0.002355
1746.07	0.002615
1755.72	0.002475
1765.36	0.0014443
1775.01	0.0012316
1784.66	0.0010655
1794.3	0.000965
1803.95	0.0009268
1813.6	0.0008142
1823.24	0.0007853
1832.89	0.0007629
1842.54	0.0008318
1852.18	0.0007278
1861.83	0.0007529
1871.47	0.0007371
1881.12	0.000677
1890.77	0.0007263
1900.41	0.0006963
1910.06	0.0007155
1919.71	0.0007072
1929.35	0.0006731
1939	0.0007269
1948.65	0.0006951
1958.29	0.0006735
1967.94	0.0006961
1977.59	0.0005893
1987.23	0.0006655
1996.88	0.0006113
2006.53	0.0006623
2016.17	0.0006051
2025.82	0.0006255
2035.47	0.0006025
2045.11	0.000654
2054.76	0.0006329
2064.41	0.000677
2074.05	0.0006006
2083.7	0.00057694
2093.35	0.0005942
2102.99	0.0006052
2112.64	0.000624
2122.28	0.0006325
2131.93	0.0006475
2141.58	0.0006704
2151.22	0.0006096
2160.87	0.0005995
2170.52	0.00057399
2180.16	0.00056602
2189.81	0.0006131
2199.46	0.0005882
2209.1	0.00057742
2218.75	0.0006142
2228.4	0.0006269
2238.04	0.00057911
2247.69	0.0005634
2257.34	0.0006518
2266.98	0.00054584
2276.63	0.0005761
2286.28	0.0005897
2295.92	0.0005971
2305.57	0.0006473
2315.22	0.0006607
2324.86	0.0006728
2334.51	0.0006248
2344.16	0.00056719
2353.8	0.0006194
2363.45	0.0006798
2373.09	0.0006837
2382.74	0.0005964
2392.39	0.0006514
2402.03	0.00055978
2411.68	0.0006044
2421.33	0.000605
2430.97	0.0006431
2440.62	0.0006356
2450.27	0.00058294
2459.91	0.0005897
2469.56	0.00057049
2479.21	0.0005992
2488.85	0.00055185
2498.5	0.00058332
2508.15	0.0005856
2517.79	0.00055498
2527.44	0.00055455
2537.09	0.00055722
2546.73	0.000659
2556.38	0.000636
2566.03	0.0006704
2575.67	0.0005898
2585.32	0.0006176
2594.96	0.00050264
2604.61	0.0005467
2614.26	0.0005315
2623.9	0.00056784
2633.55	0.00057445
2643.2	0.00055846
2652.84	0.00056871
2662.49	0.0005678
2672.14	0.0006086
2681.78	0.0006624
2691.43	0.0006006
2701.08	0.0006164
2710.72	0.00058311
2720.37	0.0006031
2730.02	0.000485281
2739.66	0.00051232
2749.31	0.0005062
2758.96	0.00047774
2768.6	0.0004439
2778.25	0.0004397
2787.9	0.00053905
2797.54	0.00045
2807.19	0.00052677
2816.84	0.00052784
2826.48	0.00053054
2836.13	0.00050274
2845.77	0.0005969
2855.42	0.0006642
2865.07	0.0006513
2874.71	0.0007432
2884.36	0.0007207
2894.01	0.000839
2903.65	0.0008293
2913.3	0.000735
2922.95	0.0007264
2932.59	0.0008809
2942.24	0.00054271
2951.89	0.0006338
2961.53	0.0007057
2971.18	0.0007103
2980.83	0.0008177
2990.47	0.00056313
3000.12	0.0004357
3009.77	0.0008833
3019.41	0.0011391
3029.06	0.0007827
3038.71	0.0004374
3048.35	0.0004731
3058	0.0004322
3067.64	0.0007759
3077.29	0.0010745
3086.94	0.0009154
3096.58	0.00056156
3106.23	0.0004254
3115.88	0.0004336
3125.52	0.000285
3135.17	0.00026
3144.82	0.000385
3154.46	0.000156
3164.11	0.00036
3173.76	0.000221
3183.4	0.000243
3193.05	0.000359
3202.7	0
3212.34	3.8e-05
3221.99	0.000239
3231.64	0.000114
3241.28	0.000128
3250.93	0.000353
3260.58	0.00027
3270.22	0.000287
3279.87	0.000288
3289.52	0.000106
3299.16	6.7e-05
3308.81	0.000293
3318.45	0.000184
3328.1	0.000294
3337.75	0.00037
3347.39	0.000257
3357.04	0.000353
3366.69	0.0004058
3376.33	0.000312
3385.98	0.000334
3395.63	0.0004645
3405.27	0.0008824
3414.92	0.0006094
3424.57	0.00036
3434.21	0.00051033
3443.86	0.000367
3453.51	0.000269
3463.15	0.00050224
3472.8	0.000255
3482.45	0.0004224
3492.09	0.000385
3501.74	0.00050724
3511.39	0.000596
3521.03	0.0004662
3530.68	0.00054864
3540.33	0.000298
3549.97	0.000308
3559.62	0.0003986
3569.26	0.00050513
3578.91	0.000348
3588.56	0.00056483
3598.2	0.00050424
3607.85	0.0004623
3617.5	0.00052865
3627.14	0.00053473
3636.79	0.00053439
3646.44	0.000490809
3656.08	0.0006188
3665.73	0.000334
3675.38	0.0004167
3685.02	0.0004564
3694.67	0.0004154
3704.32	0.000491677
3713.96	0.0004233
3723.61	0.00057132
3733.26	0.00051395
3742.9	0.00049501
3752.55	0.00050733
3762.2	0.000553
3771.84	0.000457
3781.49	0.0004507
3791.13	0.0004464
3800.78	0.0004151
3810.43	0.0004218
3820.07	0.000432
3829.72	0.000372
3839.37	0.00056935
3849.01	0.0006254
3858.66	0.00053618
3868.31	0.0004735
3877.95	0.00052369
3887.6	0.0006284
3897.25	0.00050453
3906.89	0.00053197
3916.54	0.00057662
3926.19	0.0004655
3935.83	0.00056964
3945.48	0.00048136
3955.13	0.00056504
3964.77	0.00050543
3974.42	0.00056174
3984.07	0.0005885
3993.71	0.00051869
