Infrared Spectrum: Dimethyl chloroterephthalate
Formula: C 10 H 9 Cl O 4
CAS: 18643-84-0
State: gas
Origin: EPA-IR VAPOR PHASE LIBRARY
1/CM	ABSORBANCE
549.8	0.002466
559.445	0.001856
569.09	0.002386
578.734	0.001246
588.379	0.0007657
598.024	0.0006951
607.669	0.000772
617.313	0.0007927
626.958	0.0005197
636.603	0.0007641
646.248	0.0011236
655.893	0.002026
665.537	0.006376
675.182	0.006166
684.827	0.002276
694.472	0.002636
704.116	0.002546
713.761	0.003206
723.406	0.004996
733.051	0.010776
742.695	0.036076
752.34	0.068916
761.985	0.039266
771.63	0.015866
781.275	0.010126
790.919	0.009506
800.564	0.014086
810.209	0.031566
819.854	0.015326
829.498	0.007586
839.143	0.011646
848.788	0.021096
858.433	0.020856
868.078	0.010926
877.722	0.005786
887.367	0.005406
897.012	0.009156
906.657	0.010266
916.301	0.006186
925.946	0.003506
935.591	0.003466
945.236	0.005876
954.88	0.012086
964.525	0.020046
974.17	0.023156
983.815	0.022546
993.46	0.010506
1003.1	0.006246
1012.75	0.006066
1022.39	0.007766
1032.04	0.013266
1041.68	0.042076
1051.33	0.081866
1060.97	0.037656
1070.62	0.023006
1080.26	0.029916
1089.91	0.056686
1099.55	0.124266
1109.2	0.207666
1118.84	0.186686
1128.49	0.120646
1138.13	0.082406
1147.78	0.066326
1157.42	0.040326
1167.07	0.031646
1176.71	0.033296
1186.36	0.042336
1196	0.047466
1205.64	0.044896
1215.29	0.064576
1224.93	0.132306
1234.58	0.303626
1244.22	0.345536
1253.87	0.159316
1263.51	0.139866
1273.16	0.264956
1282.8	0.429226
1292.45	0.319076
1302.09	0.114506
1311.74	0.048846
1321.38	0.029716
1331.03	0.021286
1340.67	0.017886
1350.32	0.017616
1359.96	0.021466
1369.61	0.035286
1379.25	0.059096
1388.9	0.057236
1398.54	0.031266
1408.18	0.019706
1417.83	0.016776
1427.47	0.028036
1437.12	0.082176
1446.76	0.038436
1456.41	0.020496
1466.05	0.019776
1475.7	0.022176
1485.34	0.024986
1494.99	0.019276
1504.63	0.012206
1514.28	0.009646
1523.92	0.009636
1533.57	0.011156
1543.21	0.014436
1552.86	0.021326
1562.5	0.023266
1572.15	0.012916
1581.79	0.007846
1591.44	0.007786
1601.08	0.009576
1610.73	0.008846
1620.37	0.006486
1630.01	0.006066
1639.66	0.005956
1649.3	0.005946
1658.95	0.006526
1668.59	0.007316
1678.24	0.008636
1687.88	0.012016
1697.53	0.017946
1707.17	0.029006
1716.82	0.043876
1726.46	0.067626
1736.11	0.145296
1745.75	0.355726
1755.4	0.324186
1765.04	0.134696
1774.69	0.069276
1784.33	0.043366
1793.98	0.026376
1803.62	0.015626
1813.27	0.010396
1822.91	0.006546
1832.55	0.004666
1842.2	0.003776
1851.84	0.003156
1861.49	0.002846
1871.13	0.002596
1880.78	0.002276
1890.42	0.002146
1900.07	0.002326
1909.71	0.003116
1919.36	0.004186
1929	0.004926
1938.65	0.004716
1948.29	0.003866
1957.94	0.003226
1967.58	0.002746
1977.23	0.002306
1986.87	0.002096
1996.52	0.002066
2006.16	0.002066
2015.81	0.001966
2025.45	0.001586
2035.1	0.001556
2044.74	0.001696
2054.38	0.002076
2064.03	0.002616
2073.67	0.003366
2083.32	0.004146
2092.96	0.004216
2102.61	0.003516
2112.25	0.002606
2121.9	0.001936
2131.54	0.001846
2141.19	0.001786
2150.83	0.001606
2160.48	0.0011989
2170.12	0.0010071
2179.77	0.0007071
2189.41	0.0008477
2199.06	0.000738
2208.7	0.0007972
2218.35	0.000767
2227.99	0.0009596
2237.64	0.0010203
2247.28	0.0011479
2256.92	0.0010691
2266.57	0.0008323
2276.21	0.0007075
2285.86	0.0007699
2295.5	0.0008551
2305.15	0.0008109
2314.79	0.0008041
2324.44	0.0008223
2334.08	0.0008327
2343.73	0.0009055
2353.37	0.0010121
2363.02	0.0010269
2372.66	0.001091
2382.31	0.0011712
2391.95	0.001256
2401.6	0.0012005
2411.24	0.0009298
2420.89	0.0009026
2430.53	0.0007055
2440.18	0.0006019
2449.82	0.0006132
2459.47	0.0006113
2469.11	0.0006372
2478.75	0.0006873
2488.4	0.000675
2498.04	0.0006825
2507.69	0.0008066
2517.33	0.0008109
2526.98	0.0009048
2536.62	0.0010141
2546.27	0.0010122
2555.91	0.001083
2565.56	0.001256
2575.2	0.001107
2584.85	0.0008377
2594.49	0.0009758
2604.14	0.0009253
2613.78	0.0007921
2623.43	0.0008327
2633.07	0.0005615
2642.72	0.0006987
2652.36	0.0007786
2662.01	0.0006347
2671.65	0.0005281
2681.29	0.0003883
2690.94	0.0003639
2700.58	0.00030064
2710.23	0.0004336
2719.87	0.0005256
2729.52	0.0004896
2739.16	0.0006178
2748.81	0.0006516
2758.45	0.0006208
2768.1	0.0006731
2777.74	0.0005667
2787.39	0.0008029
2797.03	0.0007695
2806.68	0.001038
2816.32	0.001486
2825.97	0.002376
2835.61	0.004106
2845.26	0.009856
2854.9	0.012406
2864.55	0.005056
2874.19	0.004286
2883.84	0.005296
2893.48	0.007896
2903.12	0.010206
2912.77	0.010786
2922.41	0.010416
2932.06	0.009836
2941.7	0.012926
2951.35	0.029756
2960.99	0.082626
2970.64	0.040166
2980.28	0.013416
2989.93	0.012196
2999.57	0.015106
3009.22	0.015686
3018.86	0.013296
3028.51	0.012936
3038.15	0.011676
3047.8	0.008226
3057.44	0.006426
3067.09	0.005386
3076.73	0.006346
3086.38	0.006116
3096.02	0.004466
3105.67	0.003676
3115.31	0.002876
3124.95	0.002406
3134.6	0.001816
3144.24	0.001386
3153.89	0.001336
3163.53	0.0010571
3173.18	0.001015
3182.82	0.0010481
3192.47	0.0009214
3202.11	0.0007908
3211.76	0.0006185
3221.4	0.000254221
3231.05	0.00027095
3240.69	0.000114
3250.34	0.00033975
3259.98	0.000116
3269.63	0.000128
3279.27	0.0001945
3288.92	0.0001777
3298.56	0.00033322
3308.21	0.00033413
3317.85	0.0004058
3327.49	0.000122
3337.14	0.0002575
3346.78	0.0005397
3356.43	0.0003186
3366.07	0.0003894
3375.72	0.00026465
3385.36	0.00032619
3395.01	0.0003851
3404.65	0.00030429
3414.3	0.00026996
3423.94	0.0004736
3433.59	0.0006428
3443.23	0.0007337
3452.88	0.0009955
3462.52	0.001686
3472.17	0.002766
3481.81	0.003696
3491.46	0.002636
3501.1	0.002136
3510.75	0.001386
3520.39	0.0011766
3530.04	0.0007973
3539.68	0.0005561
3549.32	0.0003456
3558.97	0.0001898
3568.61	0.0002352
3578.26	0.00026895
3587.9	0.00025696
3597.55	0.00024272
3607.19	0.00014
3616.84	0.000101
3626.48	0.0002147
3636.13	0.00029614
3645.77	0.00030518
3655.42	0.0002056
3665.06	0.0001673
3674.71	0.0002301
3684.35	0.00026203
3694	0.0003728
3703.64	0.0002129
3713.29	0.0003671
3722.93	0.00025631
3732.58	0.0002069
3742.22	0.00033372
3751.86	0.0001471
3761.51	0.00026459
3771.15	0.000486
3780.8	0.000521
3790.44	0.0004459
3800.09	0.00029915
3809.73	0.0004439
3819.38	0.0003999
3829.02	0.0003486
3838.67	0.0003256
3848.31	0.0001934
3857.96	0.000229
3867.6	0.0003909
3877.25	0.00028333
3886.89	0.0004161
3896.54	0.0004474
3906.18	0.0003981
3915.83	0.0005256
3925.47	0.0005188
3935.12	0.0006519
3944.76	0.0005347
3954.41	0.00045
3964.05	0.000539
3973.69	0.0005332
3983.34	0.00032933
3992.98	0.0003913
