Infrared Spectrum: 2,4-Dimethyl-3-hexanone
Formula: C 8 H 16 O
CAS: 18641-70-8
State: gas
Instrument: HP-GC/MS/IRD
Origin: NIST Mass Spectrometry Data Center
1/CM	ABSORBANCE
550	0.000204
562	0.0002264
574	0.0001784
586	0.000164
598	0.0001312
610	0.0001336
622	0.0001784
634	0.0001304
646	4.56e-05
658	0.0002224
670	2.8e-05
682	0.000104
694	2e-05
706	9.36e-05
718	9.6e-05
730	0.0001368
742	0.000124
754	0.0001336
766	0.0001432
778	9.92e-05
790	7.04e-05
802	0.0001696
814	0.0002112
826	0.0001848
838	0.0001216
850	0.0001
862	0.000124
874	0.0001216
886	8.48e-05
898	9.76e-05
910	0.0001328
922	0.0001272
934	0.0002136
946	0.0003456
958	0.0005336
970	0.0007632
982	0.0011
994	0.0014208
1006	0.0015776
1018	0.0016264
1030	0.0016632
1042	0.001272
1054	0.000756
1066	0.0006256
1078	0.0006928
1090	0.0006896
1102	0.000556
1114	0.000484
1126	0.000412
1138	0.000368
1150	0.0003784
1162	0.0004424
1174	0.0005096
1186	0.000432
1198	0.0002688
1210	0.0001504
1222	0.0001568
1234	0.0001416
1246	0.0002184
1258	0.0002544
1270	0.0002848
1282	0.0003128
1294	0.0003192
1306	0.0003144
1318	0.0003
1330	0.0004128
1342	0.0005808
1354	0.000804
1366	0.0010016
1378	0.0013448
1390	0.0012928
1402	0.0006128
1414	0.0003568
1426	0.0003992
1438	0.0005808
1450	0.0011136
1462	0.001752
1474	0.0015352
1486	0.000792
1498	0.000356
1510	0.0001744
1522	0.0001344
1534	0.0001072
1546	9.36e-05
1558	8.56e-05
1570	0.0001048
1582	9.2e-05
1594	9.52e-05
1606	0.0001304
1618	0.0001328
1630	0.0001488
1642	0.000144
1654	0.0001856
1666	0.000256
1678	0.0004088
1690	0.000792
1702	0.0019904
1714	0.003972
1726	0.0040456
1738	0.0016624
1750	0.0004928
1762	0.0002744
1774	0.0001592
1786	9.52e-05
1798	8.08e-05
1810	4.48e-05
1822	5.12e-05
1834	5.6e-05
1846	5.44e-05
1858	3.68e-05
1870	3.76e-05
1882	5.12e-05
1894	2.48e-05
1906	4.48e-05
1918	2.24e-05
1930	2e-05
1942	2.8e-05
1954	2.24e-05
1966	2.56e-05
1978	3.76e-05
1990	8e-06
2002	4.08e-05
2014	2.08e-05
2026	3.68e-05
2038	1.92e-05
2050	3.44e-05
2062	2.16e-05
2074	1.68e-05
2086	3.76e-05
2098	3.12e-05
2110	2.32e-05
2122	1.76e-05
2134	2.72e-05
2146	1.12e-05
2158	2.4e-06
2170	1.28e-05
2182	1.04e-05
2194	3.36e-05
2206	2.16e-05
2218	3.92e-05
2230	4.4e-05
2242	3.28e-05
2254	1.28e-05
2266	4.24e-05
2278	2.16e-05
2290	2.48e-05
2302	9.6e-06
2314	1.44e-05
2326	6.4e-06
2338	3.52e-05
2350	4.08e-05
2362	2.96e-05
2374	1.44e-05
2386	4.96e-05
2398	6.32e-05
2410	4.16e-05
2422	6.24e-05
2434	4.08e-05
2446	4.24e-05
2458	5.68e-05
2470	4.8e-05
2482	6.4e-05
2494	6.64e-05
2506	7.52e-05
2518	4.4e-05
2530	5.92e-05
2542	4.32e-05
2554	5.52e-05
2566	5.28e-05
2578	8.24e-05
2590	7.28e-05
2602	7.76e-05
2614	7.76e-05
2626	9.6e-05
2638	7.28e-05
2650	8.96e-05
2662	8.48e-05
2674	0.0001072
2686	8.64e-05
2698	0.0001184
2710	0.0001272
2722	0.0001464
2734	0.000176
2746	0.0001864
2758	0.0002096
2770	0.0001824
2782	0.0001848
2794	0.0002528
2806	0.0002736
2818	0.0003296
2830	0.0004016
2842	0.0004936
2854	0.0007848
2866	0.0013944
2878	0.0024784
2890	0.0029688
2902	0.0027472
2914	0.002912
2926	0.0036552
2938	0.0045048
2950	0.0044992
2962	0.0057192
2974	0.008
2986	0.0055448
2998	0.0021696
3010	0.0009616
3022	0.0005736
3034	0.000404
3046	0.0003392
3058	0.0002744
3070	0.0002648
3082	0.0002448
3094	0.0002416
3106	0.000224
3118	0.0001992
3130	0.0002224
3142	0.0001896
3154	0.00018
3166	0.0001672
3178	0.000164
3190	0.000144
3202	0.0001256
3214	0.000108
3226	0.0001256
3238	9.52e-05
3250	7.52e-05
3262	7.84e-05
3274	6.64e-05
3286	4.56e-05
3298	8.4e-05
3310	8.4e-05
3322	4.88e-05
3334	4.96e-05
3346	6.72e-05
3358	7.76e-05
3370	3.76e-05
3382	7.04e-05
3394	0.0001112
3406	9.84e-05
3418	0.0001424
3430	0.0001376
3442	9.68e-05
3454	8.88e-05
3466	6.4e-05
3478	5.52e-05
3490	6.72e-05
3502	6.24e-05
3514	8.88e-05
3526	2.48e-05
3538	4.08e-05
3550	6e-05
3562	2.96e-05
3574	4.88e-05
3586	2.16e-05
3598	8.32e-05
3610	5.6e-06
3622	8.4e-05
3634	5.12e-05
3646	6e-05
3658	4.64e-05
3670	9.44e-05
3682	7.52e-05
3694	0.0001176
3706	7.44e-05
3718	7.52e-05
3730	7.44e-05
3742	6.32e-05
3754	6.64e-05
3766	0.0001104
3778	7.6e-05
3790	9.6e-05
3802	0.0001024
3814	0.0001032
3826	0.000104
3838	9.04e-05
