Infrared Spectrum: Dimethyl bromoterephthalate
Formula: C 10 H 9 Br O 4
CAS: 18643-86-2
State: gas
Origin: EPA-IR VAPOR PHASE LIBRARY
1/CM	ABSORBANCE
549.8	0.001947
559.445	0.001927
569.09	0.001857
578.734	0.0011252
588.379	0.0006507
598.024	0.0007451
607.669	0.0008299
617.313	0.0005856
626.958	0.0006159
636.603	0.0010707
646.248	0.001587
655.893	0.006297
665.537	0.008667
675.182	0.002117
684.827	0.001877
694.472	0.002767
704.116	0.002707
713.761	0.003957
723.406	0.011047
733.051	0.027607
742.695	0.028407
752.34	0.046437
761.985	0.029167
771.63	0.014507
781.275	0.010967
790.919	0.009527
800.564	0.014537
810.209	0.031777
819.854	0.013067
829.498	0.008007
839.143	0.015427
848.788	0.023027
858.433	0.010397
868.078	0.004567
877.722	0.003457
887.367	0.004127
897.012	0.007057
906.657	0.009027
916.301	0.005327
925.946	0.003057
935.591	0.003237
945.236	0.005537
954.88	0.012547
964.525	0.020617
974.17	0.021977
983.815	0.013467
993.46	0.005387
1003.1	0.005217
1012.75	0.006827
1022.39	0.011237
1032.04	0.035527
1041.68	0.082587
1051.33	0.034897
1060.97	0.015947
1070.62	0.017707
1080.26	0.025767
1089.91	0.048207
1099.55	0.105777
1109.2	0.201847
1118.84	0.204497
1128.49	0.113707
1138.13	0.075237
1147.78	0.054197
1157.42	0.035937
1167.07	0.029697
1176.71	0.029327
1186.36	0.038107
1196	0.044727
1205.64	0.044077
1215.29	0.061847
1224.93	0.114307
1234.58	0.267617
1244.22	0.378597
1253.87	0.182037
1263.51	0.137217
1273.16	0.269497
1282.8	0.414997
1292.45	0.266597
1302.09	0.100217
1311.74	0.048037
1321.38	0.029587
1331.03	0.021237
1340.67	0.018837
1350.32	0.020087
1359.96	0.026267
1369.61	0.038807
1379.25	0.052827
1388.9	0.041227
1398.54	0.020677
1408.18	0.015507
1417.83	0.015037
1427.47	0.026597
1437.12	0.078317
1446.76	0.035227
1456.41	0.019397
1466.05	0.019477
1475.7	0.022057
1485.34	0.022127
1494.99	0.013957
1504.63	0.010197
1514.28	0.009187
1523.92	0.009417
1533.57	0.011377
1543.21	0.016727
1552.86	0.025167
1562.5	0.019267
1572.15	0.009667
1581.79	0.007347
1591.44	0.007787
1601.08	0.009337
1610.73	0.006977
1620.37	0.005117
1630.01	0.004987
1639.66	0.005307
1649.3	0.005607
1658.95	0.006097
1668.59	0.006467
1678.24	0.007547
1687.88	0.011257
1697.53	0.016597
1707.17	0.027797
1716.82	0.042947
1726.46	0.062417
1736.11	0.125857
1745.75	0.357527
1755.4	0.307527
1765.04	0.118287
1774.69	0.064817
1784.33	0.043337
1793.98	0.023487
1803.62	0.013887
1813.27	0.009477
1822.91	0.006297
1832.55	0.004787
1842.2	0.003937
1851.84	0.003337
1861.49	0.002567
1871.13	0.002197
1880.78	0.002087
1890.42	0.002067
1900.07	0.002437
1909.71	0.003267
1919.36	0.004447
1929	0.005357
1938.65	0.004717
1948.29	0.003747
1957.94	0.002917
1967.58	0.002327
1977.23	0.001827
1986.87	0.001547
1996.52	0.001707
2006.16	0.001787
2015.81	0.001497
2025.45	0.001347
2035.1	0.001467
2044.74	0.001897
2054.38	0.002217
2064.03	0.002877
2073.67	0.003917
2083.32	0.004657
2092.96	0.004017
2102.61	0.002937
2112.25	0.002137
2121.9	0.001977
2131.54	0.001817
2141.19	0.001497
2150.83	0.0010315
2160.48	0.0008213
2170.12	0.0007366
2179.77	0.0005779
2189.41	0.0006936
2199.06	0.0006766
2208.7	0.000893
2218.35	0.0008664
2227.99	0.0008966
2237.64	0.0010066
2247.28	0.0010137
2256.92	0.000947
2266.57	0.0007389
2276.21	0.0007692
2285.86	0.0008446
2295.5	0.0008393
2305.15	0.0007229
2314.79	0.0007435
2324.44	0.0006944
2334.08	0.000735
2343.73	0.0007412
2353.37	0.0008407
2363.02	0.0009101
2372.66	0.0009936
2382.31	0.0010689
2391.95	0.001227
2401.6	0.001178
2411.24	0.0009856
2420.89	0.0006509
2430.53	0.0006619
2440.18	0.0004597
2449.82	0.0004555
2459.47	0.000478
2469.11	0.0006383
2478.75	0.0006305
2488.4	0.0006321
2498.04	0.0006715
2507.69	0.0007564
2517.33	0.0007994
2526.98	0.0008328
2536.62	0.0008952
2546.27	0.0009268
2555.91	0.0010634
2565.56	0.0011088
2575.2	0.00102
2584.85	0.0009297
2594.49	0.0009994
2604.14	0.0010024
2613.78	0.0007444
2623.43	0.0005212
2633.07	0.0006428
2642.72	0.0007081
2652.36	0.000702
2662.01	0.0005214
2671.65	0.0004717
2681.29	0.0004413
2690.94	0.0003788
2700.58	0.0004163
2710.23	0.000392
2719.87	0.0005284
2729.52	0.0005402
2739.16	0.0004689
2748.81	0.0003664
2758.45	0.0005321
2768.1	0.0005101
2777.74	0.0005865
2787.39	0.0006969
2797.03	0.0006635
2806.68	0.0010097
2816.32	0.001467
2825.97	0.002227
2835.61	0.003767
2845.26	0.009427
2854.9	0.011937
2864.55	0.004977
2874.19	0.004097
2883.84	0.004967
2893.48	0.007417
2903.12	0.009447
2912.77	0.010057
2922.41	0.009967
2932.06	0.009337
2941.7	0.012287
2951.35	0.028177
2960.99	0.081217
2970.64	0.037727
2980.28	0.012577
2989.93	0.011447
2999.57	0.014467
3009.22	0.014937
3018.86	0.012437
3028.51	0.012457
3038.15	0.011167
3047.8	0.007687
3057.44	0.005967
3067.09	0.005527
3076.73	0.006547
3086.38	0.005607
3096.02	0.004217
3105.67	0.003437
3115.31	0.002697
3124.95	0.002297
3134.6	0.001787
3144.24	0.001397
3153.89	0.001287
3163.53	0.0009188
3173.18	0.0009597
3182.82	0.0010186
3192.47	0.0007442
3202.11	0.0005886
3211.76	0.0003381
3221.4	0.0003931
3231.05	0.00030597
3240.69	0.0002694
3250.34	0.0001321
3259.98	0.0001694
3269.63	0.000216517
3279.27	0.0001275
3288.92	4.1e-05
3298.56	0.0001517
3308.21	0.000206796
3317.85	0.0001397
3327.49	0.0001901
3337.14	0.00024099
3346.78	0.0003577
3356.43	0.0003522
3366.07	0.000164
3375.72	0.0001648
3385.36	4.2e-05
3395.01	0.00030536
3404.65	0.0004963
3414.3	0.00029166
3423.94	0.00030405
3433.59	0.0007343
3443.23	0.0007506
3452.88	0.0009968
3462.52	0.001637
3472.17	0.002807
3481.81	0.003547
3491.46	0.002527
3501.1	0.001927
3510.75	0.001317
3520.39	0.0009249
3530.04	0.0006507
3539.68	0.0005557
3549.32	0.0004545
3558.97	0.000418
3568.61	0.0004577
3578.26	0.0004439
3587.9	0.00023529
3597.55	0.00020588
3607.19	0.0001363
3616.84	0.0001421
3626.48	0.00022809
3636.13	0.0001392
3645.77	0.0001093
3655.42	0.0001794
3665.06	7.2e-05
3674.71	0.00023297
3684.35	0.00026892
3694	0.000137
3703.64	0.00020231
3713.29	0.0001682
3722.93	0.0001881
3732.58	0.00028372
3742.22	0.00022385
3751.86	0.00028674
3761.51	0.0001823
3771.15	0.0001581
3780.8	0.00019
3790.44	0.00020188
3800.09	0.0001959
3809.73	0.0001492
3819.38	2.2e-05
3829.02	0.0002722
3838.67	0.0002363
3848.31	0.0001431
3857.96	0.00020505
3867.6	0.0001615
3877.25	0.00027437
3886.89	0.00027951
3896.54	0.0004407
3906.18	8.4e-05
3915.83	0.00027951
3925.47	0.0005355
3935.12	0.0006282
3944.76	0.0004976
3954.41	0.00026333
3964.05	0.00029786
3973.69	0.00026917
3983.34	0.0004635
3992.98	0.0003086
