Infrared Spectrum: ACETOPHENONE, 5'-CHLORO-2'-NITRO-
Formula: C8 H6 Cl N O3
CAS: 18640-60-3
State: SOLUTION (10% CCl4 FOR 3800-1330, 10% CS2 FOR 1330-400 CM^-^1)
Class: COBLENTZ III
Instrument: BECKMAN IR-9 (GRATING)
Instrument parameters: ORDER CHANGES: 670, 1200, 2000 CM^-^1
Sampling: TRANSMISSION
Path length: 0.011 CM, 0.011 CM
Resolution: 2
Origin: DOW CHEMICAL COMPANY
1/CM	TRANSMITTANCE
400.881	0.68
409.692	0.479
418.502	0.439
427.313	0.489
436.123	0.567
444.934	0.643
453.745	0.724
462.555	0.804
471.366	0.853
480.176	0.891
488.987	0.904
497.797	0.897
506.608	0.693
515.419	0.73
524.229	0.813
533.04	0.645
541.85	0.609
550.661	0.853
559.472	0.912
568.282	0.904
577.093	0.889
585.903	0.968
594.714	0.973
603.525	0.976
612.335	0.879
621.146	0.787
629.956	0.931
638.767	0.968
647.578	0.956
656.388	0.913
665.199	0.956
674.009	0.953
682.82	0.797
691.63	0.817
700.441	0.526
709.252	0.809
718.062	0.928
726.873	0.976
735.683	0.991
744.494	0.986
753.305	0.9
762.115	0.382
770.926	0.946
779.736	0.99
788.547	0.875
797.358	0.915
806.168	0.954
814.979	0.943
823.789	0.956
832.6	0.368
841.411	0.438
850.221	0.668
859.032	0.3969
867.842	0.2093
876.653	0.631
885.463	0.336
894.274	0.756
903.085	0.898
911.895	0.958
920.706	0.991
929.516	1.001
938.327	1.001
947.138	0.991
955.948	0.935
964.759	0.839
973.569	0.773
982.38	0.852
991.191	0.932
1000	0.954
1008.81	0.93
1017.62	0.867
1026.43	0.935
1035.24	0.958
1044.05	0.958
1052.86	0.909
1061.68	0.838
1070.49	0.905
1079.3	0.931
1088.11	0.879
1096.92	0.4829
1105.73	0.289
1114.54	0.6161
1123.35	0.828
1132.16	0.895
1140.97	0.905
1149.78	0.82
1158.59	0.894
1167.4	0.915
1176.21	0.941
1185.02	0.946
1193.83	0.919
1202.64	0.864
1211.46	0.769
1220.27	0.6299
1229.08	0.3279
1237.89	0.056
1246.7	0.193
1255.51	0.334
1264.32	0.5781
1273.13	0.779
1281.94	0.819
1290.75	0.805
1299.56	0.5019
1308.37	0.4861
1317.18	0.76
1325.99	0.6259
1334.8	0.2609
1343.61	0.032
1352.42	0.006
1361.24	0.069
1370.05	0.238
1378.86	0.376
1387.67	0.3411
1396.48	0.569
1405.29	0.616
1414.1	0.513
1422.91	0.482
1431.72	0.4831
1440.53	0.62
1449.34	0.649
1458.15	0.619
1466.96	0.467
1475.77	0.634
1484.58	0.652
1493.39	0.612
1502.2	0.541
1511.02	0.3559
1519.83	0.098
1528.64	0.032
1537.45	0.019
1546.26	0.036
1555.07	0.098
1563.88	0.091
1572.69	0.052
1581.5	0.265
1590.31	0.4
1599.12	0.446
1607.93	0.398
1616.74	0.613
1625.55	0.686
1634.36	0.708
1643.17	0.719
1651.98	0.728
1660.8	0.738
1669.61	0.726
1678.42	0.668
1687.23	0.663
1696.04	0.638
1704.85	0.3359
1713.66	0.032
1722.47	0.013
1731.28	0.2763
1740.09	0.576
1748.9	0.686
1757.71	0.716
1766.52	0.716
1775.33	0.726
1784.14	0.756
1792.95	0.76
1801.76	0.765
1810.58	0.773
1819.39	0.782
1828.2	0.789
1837.01	0.793
1845.82	0.791
1854.63	0.789
1863.44	0.793
1872.25	0.797
1881.06	0.8
1889.87	0.802
1898.68	0.802
1907.49	0.798
1916.3	0.782
1925.11	0.775
1933.92	0.793
1942.73	0.801
1951.54	0.805
1960.36	0.805
1969.17	0.805
1977.98	0.804
1986.79	0.805
1995.6	0.806
2004.41	0.809
2013.22	0.81
2022.03	0.81
2030.84	0.81
2039.65	0.81
2048.46	0.81
2057.27	0.812
2066.08	0.813
2074.89	0.815
2083.7	0.815
2092.51	0.816
2101.32	0.816
2110.14	0.816
2118.95	0.816
2127.76	0.816
2136.57	0.815
2145.38	0.815
2154.19	0.815
2163	0.815
2171.81	0.815
2180.62	0.815
2189.43	0.815
2198.24	0.815
2207.05	0.8123
2215.86	0.81
2224.67	0.808
2233.48	0.808
2242.29	0.808
2251.11	0.809
2259.92	0.808
2268.73	0.805
2277.54	0.802
2286.35	0.7984
2295.16	0.795
2303.97	0.793
2312.78	0.791
2321.59	0.79
2330.4	0.79
2339.21	0.79
2348.02	0.791
2356.83	0.7939
2365.64	0.795
2374.45	0.797
2383.26	0.7998
2392.07	0.7998
2400.89	0.798
2409.7	0.795
2418.51	0.7979
2427.32	0.8
2436.13	0.802
2444.94	0.801
2453.75	0.8
2462.56	0.8
2471.37	0.801
2480.18	0.802
2488.99	0.802
2497.8	0.802
2506.61	0.8
2515.42	0.801
2524.23	0.8021
2533.04	0.804
2541.85	0.805
2550.67	0.805
2559.48	0.805
2568.29	0.805
2577.1	0.805
2585.91	0.802
2594.72	0.7979
2603.53	0.7926
2612.34	0.787
2621.15	0.789
2629.96	0.7932
2638.77	0.798
2647.58	0.801
2656.39	0.801
2665.2	0.801
2674.01	0.797
2682.82	0.7948
2691.63	0.7925
2700.45	0.79
2709.26	0.79
2718.07	0.7885
2726.88	0.787
2735.69	0.7903
2744.5	0.794
2753.31	0.7956
2762.12	0.798
2770.93	0.8
2779.74	0.801
2788.55	0.801
2797.36	0.8
2806.17	0.8
2814.98	0.798
2823.79	0.798
2832.6	0.797
2841.41	0.794
2850.23	0.781
2859.04	0.7598
2867.85	0.7511
2876.66	0.7479
2885.47	0.7529
2894.28	0.7654
2903.09	0.771
2911.9	0.7666
2920.71	0.7575
2929.52	0.756
2938.33	0.762
2947.14	0.772
2955.95	0.773
2964.76	0.7755
2973.57	0.776
2982.38	0.776
2991.19	0.778
3000.01	0.778
3008.82	0.7697
3017.63	0.7431
3026.44	0.7396
3035.25	0.7654
3044.06	0.7772
3052.87	0.7718
3061.68	0.763
3070.49	0.761
3079.3	0.7474
3088.11	0.743
3096.92	0.7326
3105.73	0.668
3114.54	0.7187
3123.35	0.7568
3132.16	0.7738
3140.97	0.7797
3149.79	0.7867
3158.6	0.7937
3167.41	0.795
3176.22	0.795
3185.03	0.7965
3193.84	0.801
3202.65	0.801
3211.46	0.802
3220.27	0.802
3229.08	0.8048
3237.89	0.806
3246.7	0.806
3255.51	0.806
3264.32	0.806
3273.13	0.808
3281.94	0.808
3290.75	0.808
3299.57	0.808
3308.38	0.808
3317.19	0.808
3326	0.808
3334.81	0.808
3343.62	0.808
3352.43	0.808
3361.24	0.806
3370.05	0.805
3378.86	0.804
3387.67	0.8
3396.48	0.795
3405.29	0.782
3414.1	0.7689
3422.91	0.76
3431.72	0.7731
3440.53	0.7911
3449.35	0.797
3458.16	0.8
3466.97	0.8011
3475.78	0.801
3484.59	0.801
3493.4	0.801
3502.21	0.804
3511.02	0.804
3519.83	0.804
3528.64	0.804
3537.45	0.804
3546.26	0.804
3555.07	0.804
3563.88	0.805
3572.69	0.8052
3581.5	0.806
3590.31	0.806
3599.13	0.806
3607.94	0.806
3616.75	0.806
3625.56	0.806
3634.37	0.808
3643.18	0.808
3651.99	0.808
3660.8	0.808
3669.61	0.808
3678.42	0.806
3687.23	0.806
3696.04	0.805
3704.85	0.805
3713.66	0.805
3722.47	0.806
3731.28	0.8067
3740.09	0.808
3748.91	0.808
3757.72	0.808
3766.53	0.808
3775.34	0.808
3784.15	0.808
3792.96	0.808
3801.77	0.808
