Infrared Spectrum: 2,4-Dimethyl-3-heptanone
Formula: C 9 H 18 O
CAS: 18641-71-9
State: gas
Instrument: HP-GC/MS/IRD
Origin: NIST Mass Spectrometry Data Center
1/CM	ABSORBANCE
550	0.00033
562	0.0001551
574	9.57e-05
586	4.95e-05
598	0.0002673
610	0.000297
622	0.0004092
634	0.0003465
646	0.0002541
658	0.0001749
670	0.0001254
682	0.0002112
694	0.0003498
706	0.0003564
718	0.0004224
730	0.0005478
742	0.0006006
754	0.0005775
766	0.0006336
778	0.0004851
790	0.0003696
802	0.000264
814	0.0002838
826	0.0003465
838	0.0004422
850	0.0004587
862	0.0004851
874	0.0005412
886	0.000528
898	0.0005379
910	0.000726
922	0.0008547
934	0.0007953
946	0.0009768
958	0.0016005
970	0.0027621
982	0.0039336
994	0.0059697
1006	0.0072204
1018	0.0062337
1030	0.0051381
1042	0.0042867
1054	0.0029667
1066	0.0022341
1078	0.0023727
1090	0.0028479
1102	0.0025707
1114	0.0021384
1126	0.0017721
1138	0.0014157
1150	0.0014388
1162	0.0014157
1174	0.0014982
1186	0.0013596
1198	0.0009306
1210	0.0006633
1222	0.0007326
1234	0.0009669
1246	0.0008679
1258	0.0009273
1270	0.0009768
1282	0.0009999
1294	0.0011781
1306	0.0012276
1318	0.0013794
1330	0.0018942
1342	0.002607
1354	0.0030723
1366	0.0036168
1378	0.0051216
1390	0.0050325
1402	0.0021978
1414	0.0013761
1426	0.0015378
1438	0.0024123
1450	0.0044055
1462	0.0067749
1474	0.0061215
1486	0.0028809
1498	0.0013563
1510	0.0008712
1522	0.0006336
1534	0.0004851
1546	0.0004158
1558	0.0003729
1570	0.0003432
1582	0.0003168
1594	0.0003894
1606	0.000396
1618	0.0004125
1630	0.0004521
1642	0.0005346
1654	0.0006567
1666	0.0009537
1678	0.0016038
1690	0.0028677
1702	0.0070026
1714	0.0153252
1726	0.0154506
1738	0.0056727
1750	0.0018216
1762	0.00099
1774	0.0005511
1786	0.0003993
1798	0.000297
1810	0.0002145
1822	0.0001716
1834	0.0001683
1846	0.0001584
1858	0.0001518
1870	0.0001221
1882	0.0001155
1894	0.0001188
1906	9.24e-05
1918	0.0001155
1930	9.57e-05
1942	8.25e-05
1954	5.61e-05
1966	6.93e-05
1978	6.6e-05
1990	4.29e-05
2002	4.62e-05
2014	5.61e-05
2026	5.94e-05
2038	5.28e-05
2050	6.27e-05
2062	4.95e-05
2074	1.32e-05
2086	4.29e-05
2098	1.98e-05
2110	2.97e-05
2122	0
2134	2.97e-05
2146	9.9e-06
2158	3.3e-05
2170	2.31e-05
2182	9.9e-06
2194	1.65e-05
2206	2.97e-05
2218	3.63e-05
2230	8.58e-05
2242	2.97e-05
2254	3.96e-05
2266	9.9e-06
2278	3.63e-05
2290	4.62e-05
2302	5.28e-05
2314	7.59e-05
2326	5.94e-05
2338	0.0001089
2350	0.0001023
2362	0.0001221
2374	0.0001056
2386	0.0001188
2398	8.91e-05
2410	8.58e-05
2422	7.26e-05
2434	5.94e-05
2446	7.26e-05
2458	9.24e-05
2470	6.93e-05
2482	6.6e-05
2494	8.58e-05
2506	9.24e-05
2518	5.94e-05
2530	0.0001188
2542	9.9e-05
2554	0.0001023
2566	0.0001386
2578	0.0001485
2590	0.0001584
2602	0.0001518
2614	0.0002079
2626	0.0001815
2638	0.0002145
2650	0.0002145
2662	0.000231
2674	0.0002805
2686	0.0002475
2698	0.0003069
2710	0.0003399
2722	0.0004092
2734	0.0005412
2746	0.0005874
2758	0.0006006
2770	0.0006039
2782	0.0006732
2794	0.0008448
2806	0.0010593
2818	0.0013299
2830	0.0017358
2842	0.0024585
2854	0.0042273
2866	0.0071247
2878	0.0116424
2890	0.0128502
2902	0.0117678
2914	0.013233
2926	0.0167772
2938	0.0220704
2950	0.0211497
2962	0.0256344
2974	0.033
2986	0.0194766
2998	0.0075009
3010	0.0035838
3022	0.0021978
3034	0.0015972
3046	0.0012045
3058	0.0010197
3070	0.0008745
3082	0.0008151
3094	0.0007524
3106	0.0007458
3118	0.0006468
3130	0.000594
3142	0.0005808
3154	0.0005049
3166	0.0005478
3178	0.0004851
3190	0.0004323
3202	0.0003762
3214	0.0003036
3226	0.0002178
3238	0.0001749
3250	0.0001452
3262	8.25e-05
3274	9.9e-05
3286	0.0001386
3298	0.0001023
3310	0.0001287
3322	0.0001518
3334	7.26e-05
3346	8.91e-05
3358	0.0001188
3370	0.0001254
3382	0.0001452
3394	0.0002013
3406	0.0003135
3418	0.0003729
3430	0.0003234
3442	0.0002244
3454	9.24e-05
3466	0.0001023
3478	8.58e-05
3490	4.95e-05
3502	5.28e-05
3514	3.3e-05
3526	2.97e-05
3538	6.27e-05
3550	8.58e-05
3562	8.91e-05
3574	5.28e-05
3586	1.65e-05
3598	4.95e-05
3610	5.28e-05
3622	5.94e-05
3634	7.92e-05
3646	0.0001023
3658	4.29e-05
3670	6.93e-05
3682	7.59e-05
3694	6.27e-05
3706	4.29e-05
3718	6.93e-05
3730	5.28e-05
3742	2.97e-05
3754	5.28e-05
3766	5.28e-05
3778	7.26e-05
3790	7.92e-05
3802	9.57e-05
3814	0.0001254
3826	0.0001023
3838	0.0001353
