Infrared Spectrum: Phenyl formate
Formula: C 7 H 6 O 2
CAS: 1864-94-4
State: gas
Origin: EPA-IR VAPOR PHASE LIBRARY
1/CM	ABSORBANCE
549.8	0.0003
559.445	0.00039
569.09	0.0004
578.735	0.00048
588.38	0.00035
598.025	0.00075
607.67	0.00089
617.315	0.00082
626.96	0.000961
636.605	0.00073
646.251	0.00093
655.896	0.001068
665.541	0.00119
675.186	0.0018881
684.831	0.0023631
694.476	0.0022266
704.121	0.0019011
713.766	0.0020053
723.411	0.0027728
733.056	0.00298
742.701	0.0026098
752.346	0.0021847
761.991	0.00193585
771.636	0.0019184
781.281	0.001644
790.926	0.001514
800.571	0.001727
810.216	0.001749
819.861	0.0019014
829.507	0.0018962
839.152	0.001678
848.797	0.00147
858.442	0.001376
868.087	0.001585
877.732	0.001541
887.377	0.001537
897.022	0.001711
906.667	0.001747
916.312	0.001549
925.957	0.001421
935.602	0.001361
945.247	0.001247
954.892	0.00127
964.537	0.001387
974.182	0.0014
983.827	0.001471
993.472	0.001748
1003.12	0.0018531
1012.76	0.001822
1022.41	0.0018493
1032.05	0.001784
1041.7	0.001781
1051.34	0.00193464
1060.99	0.0023373
1070.63	0.00325
1080.28	0.00495
1089.92	0.00899
1099.57	0.01347
1109.21	0.01257
1118.86	0.00711
1128.5	0.0027825
1138.15	0.002264
1147.79	0.00312
1157.44	0.00676
1167.08	0.00801
1176.73	0.00934
1186.37	0.01471
1196.02	0.01722
1205.66	0.01265
1215.31	0.00596
1224.95	0.00364
1234.6	0.0027387
1244.24	0.0023596
1253.89	0.0024353
1263.53	0.0025526
1273.18	0.0022207
1282.82	0.00197364
1292.47	0.00182
1302.11	0.001788
1311.76	0.001728
1321.4	0.001709
1331.05	0.001688
1340.69	0.001608
1350.34	0.001691
1359.98	0.001738
1369.63	0.001802
1379.27	0.001688
1388.92	0.0017
1398.56	0.001681
1408.21	0.001649
1417.85	0.001717
1427.5	0.001663
1437.14	0.001814
1446.79	0.0018563
1456.43	0.002051
1466.08	0.0023551
1475.73	0.00351
1485.37	0.00576
1495.02	0.00584
1504.66	0.00397
1514.31	0.002264
1523.95	0.00197458
1533.6	0.0018891
1543.24	0.0019135
1552.89	0.0018817
1562.53	0.00197206
1572.18	0.0022926
1581.82	0.0032
1591.47	0.00432
1601.11	0.00382
1610.76	0.0023222
1620.4	0.00194229
1630.05	0.001785
1639.69	0.0018435
1649.34	0.0018818
1658.98	0.001826
1668.63	0.001799
1678.27	0.001809
1687.92	0.0018472
1697.56	0.0019971
1707.21	0.00203745
1716.85	0.0025628
1726.5	0.00304
1736.14	0.00412
1745.79	0.00623
1755.43	0.0102
1765.08	0.0125
1774.72	0.01074
1784.37	0.01025
1794.01	0.00919
1803.66	0.00519
1813.3	0.0023004
1822.95	0.00194965
1832.59	0.00196736
1842.24	0.0019028
1851.88	0.0018898
1861.53	0.00198186
1871.17	0.0020543
1880.82	0.00201397
1890.46	0.00202442
1900.11	0.0018654
1909.75	0.00196038
1919.4	0.0020664
1929.04	0.0020494
1938.69	0.00200553
1948.33	0.00201508
1957.98	0.00198254
1967.62	0.0019136
1977.27	0.0018989
1986.91	0.0019036
1996.56	0.0018976
2006.2	0.0019113
2015.85	0.0019059
2025.49	0.001872
2035.14	0.001891
2044.78	0.001833
2054.43	0.001826
2064.07	0.0018722
2073.72	0.0018609
2083.36	0.0019232
2093.01	0.0018853
2102.65	0.00194778
2112.3	0.0018596
2121.94	0.0018601
2131.59	0.0018899
2141.23	0.0018754
2150.88	0.00197971
2160.52	0.0020508
2170.17	0.00201378
2179.81	0.0020464
2189.46	0.0020903
2199.1	0.0020756
2208.75	0.0020811
2218.39	0.00200904
2228.04	0.00194234
2237.68	0.00193496
2247.33	0.0018558
2256.97	0.00195003
2266.62	0.00199587
2276.26	0.00195376
2285.91	0.00200646
2295.55	0.00203822
2305.2	0.00203533
2314.84	0.0020125
2324.49	0.0020536
2334.13	0.0021602
2343.78	0.0020701
2353.42	0.0020965
2363.07	0.0021385
2372.72	0.00203549
2382.36	0.00198541
2392.01	0.0020639
2401.65	0.00198408
2411.3	0.0019817
2420.94	0.00198599
2430.59	0.00203018
2440.23	0.00197127
2449.88	0.00200378
2459.52	0.00203001
2469.17	0.00202599
2478.81	0.00198008
2488.46	0.0020457
2498.1	0.00200203
2507.75	0.00203437
2517.39	0.00196936
2527.04	0.0019581
2536.68	0.00203914
2546.33	0.00198126
2555.97	0.0019962
2565.62	0.00202216
2575.26	0.0020348
2584.91	0.0020681
2594.55	0.0020698
2604.2	0.00202456
2613.84	0.0020566
2623.49	0.00196045
2633.13	0.00201505
2642.78	0.00198433
2652.42	0.00203197
2662.07	0.00194735
2671.71	0.00196935
2681.36	0.0020686
2691	0.00199695
2700.65	0.00202768
2710.29	0.0020905
2719.94	0.0020919
2729.58	0.0021864
2739.23	0.0021221
2748.87	0.0020004
2758.52	0.00195735
2768.16	0.0020807
2777.81	0.0020792
2787.45	0.00201453
2797.1	0.00198381
2806.74	0.00198489
2816.39	0.0020706
2826.03	0.00200879
2835.68	0.00197425
2845.32	0.0021068
2854.97	0.0019858
2864.61	0.00203052
2874.26	0.0022265
2883.9	0.0022104
2893.55	0.0021655
2903.19	0.0024297
2912.84	0.0027852
2922.48	0.00357
2932.13	0.00392
2941.77	0.00348
2951.42	0.002579
2961.06	0.0023528
2970.71	0.0022197
2980.35	0.0018431
2990	0.00196098
2999.64	0.0018844
3009.29	0.001827
3018.93	0.0020401
3028.58	0.0021269
3038.22	0.0022811
3047.87	0.0024666
3057.51	0.0024856
3067.16	0.0026386
3076.8	0.002687
3086.45	0.0028488
3096.09	0.0024909
3105.74	0.00202211
3115.38	0.00197128
3125.03	0.001778
3134.67	0.001743
3144.32	0.001628
3153.96	0.001662
3163.61	0.001685
3173.25	0.001668
3182.9	0.001738
3192.54	0.001696
3202.19	0.001548
3211.83	0.001613
3221.48	0.001515
3231.12	0.001331
3240.77	0.00145
3250.41	0.001534
3260.06	0.00155
3269.7	0.001398
3279.35	0.001343
3289	0.001291
3298.64	0.001395
3308.29	0.001381
3317.93	0.001364
3327.58	0.001494
3337.22	0.001361
3346.87	0.001354
3356.51	0.001293
3366.16	0.0013
3375.8	0.001366
3385.45	0.001203
3395.09	0.001398
3404.74	0.001375
3414.38	0.001254
3424.03	0.001266
3433.67	0.001339
3443.32	0.001273
3452.96	0.001325
3462.61	0.001303
3472.25	0.001243
3481.9	0.001406
3491.54	0.001325
3501.19	0.001322
3510.83	0.001512
3520.48	0.001394
3530.12	0.001335
3539.77	0.001205
3549.41	0.001276
3559.06	0.001329
3568.7	0.001357
3578.35	0.001271
3587.99	0.001426
3597.64	0.001265
3607.28	0.001277
3616.93	0.001288
3626.57	0.001374
3636.22	0.001464
3645.86	0.001374
3655.51	0.001411
3665.15	0.001401
3674.8	0.001303
3684.44	0.001298
3694.09	0.001329
3703.73	0.001354
3713.38	0.001529
3723.02	0.001501
3732.67	0.001455
3742.31	0.001536
3751.96	0.001307
3761.6	0.001399
3771.25	0.001391
3780.89	0.001419
3790.54	0.001325
3800.18	0.001371
3809.83	0.001517
3819.47	0.001469
3829.12	0.001349
3838.76	0.001274
3848.41	0.00144
3858.05	0.001433
3867.7	0.001599
3877.34	0.001311
3886.99	0.001513
3896.63	0.001465
3906.28	0.001495
3915.92	0.00131
3925.57	0.001449
3935.21	0.001377
3944.86	0.001442
3954.5	0.001534
3964.15	0.001377
3973.79	0.001713
3983.44	0.001599
3993.08	0.001523
