Infrared Spectrum: p-Nitrophenyl formate
Formula: C 7 H 5 N O 4
CAS: 1865-01-6
State: gas
Origin: EPA-IR VAPOR PHASE LIBRARY
1/CM	ABSORBANCE
549.8	0.0014233
559.445	0.0011433
569.09	0.0026733
578.734	0.0028833
588.379	0.0040633
598.024	0.0035133
607.669	0.0032433
617.313	0.0058833
626.958	0.0064033
636.603	0.0027933
646.248	0.0014833
655.893	0.0019133
665.537	0.0037733
675.182	0.0054233
684.827	0.0053433
694.472	0.0038633
704.116	0.0031833
713.761	0.0028333
723.406	0.0050333
733.051	0.0094133
742.695	0.0098633
752.34	0.0074333
761.985	0.0059933
771.63	0.0071533
781.275	0.0040033
790.919	0.0024533
800.564	0.0029633
810.209	0.0033033
819.854	0.0055633
829.498	0.0076733
839.143	0.0110933
848.788	0.0249833
858.433	0.0428333
868.078	0.0298533
877.722	0.0171633
887.367	0.0088633
897.012	0.0038633
906.657	0.0018133
916.301	0.0016933
925.946	0.0013333
935.591	0.0015633
945.236	0.0017533
954.88	0.0015533
964.525	0.0016533
974.17	0.0018633
983.815	0.0018333
993.46	0.0027333
1003.1	0.0043333
1012.75	0.0084233
1022.39	0.0054133
1032.04	0.0045833
1041.68	0.0057133
1051.33	0.0095733
1060.97	0.0186533
1070.62	0.0394333
1080.26	0.0802633
1089.91	0.134283
1099.55	0.0951933
1109.2	0.0425033
1118.84	0.0230133
1128.49	0.0085633
1138.13	0.0091033
1147.78	0.0174433
1157.42	0.0615333
1167.07	0.0787833
1176.71	0.0507133
1186.36	0.0600433
1196	0.0989433
1205.64	0.130173
1215.29	0.0725133
1224.93	0.0379033
1234.58	0.0232633
1244.22	0.0138533
1253.87	0.0133233
1263.51	0.0211933
1273.16	0.0225233
1282.8	0.0123033
1292.45	0.0088533
1302.09	0.0097333
1311.74	0.0104833
1321.38	0.0139433
1331.03	0.0289733
1340.67	0.0739633
1350.32	0.100723
1359.96	0.0658833
1369.61	0.0290233
1379.25	0.0126733
1388.9	0.0063133
1398.54	0.0043733
1408.18	0.0045833
1417.83	0.0053533
1427.47	0.0065033
1437.12	0.0075733
1446.76	0.0080733
1456.41	0.0094933
1466.05	0.0109133
1475.7	0.0136633
1485.34	0.0377833
1494.99	0.0576033
1504.63	0.0287833
1514.28	0.0221533
1523.92	0.0386133
1533.57	0.0698433
1543.21	0.0872833
1552.86	0.0728233
1562.5	0.0365433
1572.15	0.0205933
1581.79	0.0259433
1591.44	0.0432033
1601.08	0.0483533
1610.73	0.0359733
1620.37	0.0219833
1630.01	0.0118333
1639.66	0.0051733
1649.3	0.0030133
1658.95	0.0031233
1668.59	0.0034433
1678.24	0.0033733
1687.88	0.0033133
1697.53	0.0035433
1707.17	0.0035633
1716.82	0.0041533
1726.46	0.0067233
1736.11	0.0122933
1745.75	0.0224033
1755.4	0.0390833
1765.04	0.0730533
1774.69	0.0758933
1784.33	0.0463733
1793.98	0.0415333
1803.62	0.0349133
1813.27	0.0067033
1822.91	0.0036033
1832.55	0.0027233
1842.2	0.0023033
1851.84	0.0024233
1861.49	0.0022833
1871.13	0.0022233
1880.78	0.0026233
1890.42	0.0029433
1900.07	0.0031833
1909.71	0.0030033
1919.36	0.0026533
1929	0.0022033
1938.65	0.0017533
1948.29	0.0014033
1957.94	0.0017933
1967.58	0.0018333
1977.23	0.0018733
1986.87	0.0014333
1996.52	0.0011733
2006.16	0.0012133
2015.81	0.0013433
2025.45	0.0010933
2035.1	0.0011333
2044.74	0.0012633
2054.38	0.0017033
2064.03	0.0023933
2073.67	0.0027033
2083.32	0.0027533
2092.96	0.0026133
2102.61	0.0032633
2112.25	0.0035833
2121.9	0.0029233
2131.54	0.0026733
2141.19	0.0018633
2150.83	0.0025233
2160.48	0.0036833
2170.12	0.0046733
2179.77	0.0049833
2189.41	0.0042833
2199.06	0.0034133
2208.7	0.0028133
2218.35	0.0018933
2227.99	0.0015333
2237.64	0.0008852
2247.28	0.0009377
2256.92	0.0008878
2266.57	0.0008609
2276.21	0.000861
2285.86	0.0009602
2295.5	0.0007275
2305.15	0.0007587
2314.79	0.0006858
2324.44	0.0007852
2334.08	0.0006993
2343.73	0.0006677
2353.37	0.0008197
2363.02	0.0008843
2372.66	0.0009007
2382.31	0.0008927
2391.95	0.0010282
2401.6	0.0009631
2411.24	0.0009096
2420.89	0.0007116
2430.53	0.0009099
2440.18	0.0010733
2449.82	0.0015933
2459.47	0.0014233
2469.11	0.0011533
2478.75	0.0008697
2488.4	0.0006802
2498.04	0.0007637
2507.69	0.0005907
2517.33	0.000795
2526.98	0.0006374
2536.62	0.000761
2546.27	0.0004987
2555.91	0.0005131
2565.56	0.000733
2575.2	0.0010474
2584.85	0.0010194
2594.49	0.0007748
2604.14	0.0008664
2613.78	0.0007387
2623.43	0.0006817
2633.07	0.0006597
2642.72	0.0007572
2652.36	0.000781
2662.01	0.0008701
2671.65	0.0008845
2681.29	0.000927
2690.94	0.0010224
2700.58	0.0008959
2710.23	0.0011733
2719.87	0.0010224
2729.52	0.0008692
2739.16	0.0006363
2748.81	0.0008199
2758.45	0.0007001
2768.1	0.0008172
2777.74	0.0006436
2787.39	0.0007916
2797.03	0.0006363
2806.68	0.000525
2816.32	0.0005354
2825.97	0.0007041
2835.61	0.0008755
2845.26	0.0012933
2854.9	0.0014533
2864.55	0.0019533
2874.19	0.0022333
2883.84	0.0025633
2893.48	0.0024933
2903.12	0.0025633
2912.77	0.0024133
2922.41	0.0039333
2932.06	0.0075333
2941.7	0.0176133
2951.35	0.0146633
2960.99	0.0051833
2970.64	0.0034633
2980.28	0.0028833
2989.93	0.0015333
2999.57	0.0008187
3009.22	0.0007846
3018.86	0.0007321
3028.51	0.0008822
3038.15	0.0012833
3047.8	0.0013233
3057.44	0.0011933
3067.09	0.0017033
3076.73	0.0022333
3086.38	0.0031933
3096.02	0.0029033
3105.67	0.0013733
3115.31	0.0009198
3124.95	0.0008245
3134.6	0.0014133
3144.24	0.0011333
3153.89	0.0005643
3163.53	0.0003651
3173.18	0.0003815
3182.82	0.0003128
3192.47	0.0007491
3202.11	0.0005294
3211.76	0.0011033
3221.4	0.0006723
3231.05	0.0004677
3240.69	0.0007922
3250.34	0.0004741
3259.98	0.0006384
3269.63	0.0004014
3279.27	0.0007741
3288.92	0.0006667
3298.56	0.0006914
3308.21	0.0006083
3317.85	0.0009678
3327.49	0.0005568
3337.14	0.0006187
3346.78	0.0004172
3356.43	0.0005476
3366.07	0.0006626
3375.72	0.0003988
3385.36	0.000711
3395.01	0.0004432
3404.65	0.0005181
3414.3	0.0004974
3423.94	0.0005374
3433.59	0.0003305
3443.23	0.0007493
3452.88	0.0005961
3462.52	0.000707
3472.17	0.0007989
3481.81	0.0009187
3491.46	0.0006482
3501.1	0.0010422
3510.75	0.0013033
3520.39	0.0020033
3530.04	0.0014233
3539.68	0.0015433
3549.32	0.0007911
3558.97	0.0005783
3568.61	0.0008152
3578.26	0.0012033
3587.9	0.0013033
3597.55	0.0009021
3607.19	0.0011333
3616.84	0.0011133
3626.48	0.0022533
3636.13	0.0072133
3645.77	0.0128433
3655.42	0.0098233
3665.06	0.0022833
3674.71	0.0008652
3684.35	0.0005924
3694	0.0005577
3703.64	0.0005418
3713.29	0.0007002
3722.93	0.0005336
3732.58	0.000995
3742.22	0.000457
3751.86	0.0005858
3761.51	0.0005013
3771.15	0.0005462
3780.8	0.0006314
3790.44	0.0005713
3800.09	0.0008208
3809.73	0.0002049
3819.38	0.0006055
3829.02	0.0008548
3838.67	0.0003989
3848.31	0.00015007
3857.96	0.0003753
3867.6	0.0007326
3877.25	3.25e-05
3886.89	0.0003232
3896.54	0.0006846
3906.18	0.0006013
3915.83	0.0007405
3925.47	0.0005561
3935.12	0.0007695
3944.76	0.0004523
3954.41	0.0005022
3964.05	0.0004105
3973.69	0.000573
3983.34	0.0004975
3992.98	0.0006035
