Infrared Spectrum: Ammonium compounds, substituted:(2-mercaptoethyl)trimethyl- iodide,butyrate
Formula: C9 H20 I N O S
CAS: 1866-16-6
State: SOLID (SPLIT MULL), FLUOROLUBE FOR 3800-1330 CM^-^1, NUJOL FOR 1330-400 CM^-^1
Class: COBLENTZ III
Instrument: BECKMAN IR-9 (GRATING)
Instrument parameters: ORDER CHANGES: 670, 1200, 2000 CM^-^1
Sampling: TRANSMISSION
Resolution: 2
Origin: DOW CHEMICAL COMPANY
1/CM	TRANSMITTANCE
392	0.5606
401	0.5632
410	0.5759
419	0.622
428	0.6658
437	0.6969
446	0.7189
455	0.7249
464	0.7494
473	0.7734
482	0.7893
491	0.7967
500	0.7951
509	0.7844
518	0.8
527	0.8108
536	0.8124
545	0.8146
554	0.8168
563	0.8187
572	0.8196
581	0.8218
590	0.8258
599	0.8325
608	0.8353
617	0.8335
626	0.8343
635	0.8434
644	0.8466
653	0.8478
662	0.8465
671	0.8482
680	0.842
689	0.8356
698	0.8209
707	0.7965
716	0.7374
725	0.6062
734	0.6162
743	0.5876
752	0.5373
761	0.4632
770	0.535
779	0.6635
788	0.6924
797	0.7671
806	0.7838
815	0.7889
824	0.7886
833	0.7921
842	0.7911
851	0.7822
860	0.7718
869	0.7604
878	0.7343
887	0.6783
896	0.3775
905	0.4431
914	0.475
923	0.7058
932	0.709
941	0.638
950	0.5683
959	0.6786
968	0.582
977	0.4241
986	0.5691
995	0.4935
1004	0.3364
1013	0.2864
1022	0.5038
1031	0.2514
1040	0.5673
1049	0.6186
1058	0.6107
1067	0.6512
1076	0.6696
1085	0.6628
1094	0.6505
1103	0.6097
1112	0.4149
1121	0.3964
1130	0.5542
1139	0.6226
1148	0.613
1157	0.6788
1166	0.6938
1175	0.6997
1184	0.7087
1193	0.7175
1202	0.7015
1211	0.7149
1220	0.7107
1229	0.7001
1238	0.6868
1247	0.6939
1256	0.6964
1265	0.6106
1274	0.598
1283	0.5689
1292	0.6265
1301	0.6288
1310	0.6511
1319	0.6722
1328	0.6781
1337	0.6369
1346	0.5999
1355	0.6208
1364	0.6731
1373	0.7158
1382	0.6326
1391	0.6851
1400	0.7136
1409	0.6446
1418	0.5675
1427	0.481
1436	0.7222
1445	0.7011
1454	0.7215
1463	0.5903
1472	0.5278
1481	0.4962
1490	0.5437
1499	0.7847
1508	0.8554
1517	0.8656
1526	0.8707
1535	0.8753
1544	0.8757
1553	0.8749
1562	0.8734
1571	0.8711
1580	0.8681
1589	0.8645
1598	0.8583
1607	0.8517
1616	0.8428
1625	0.8325
1634	0.8203
1643	0.8024
1652	0.7728
1661	0.7328
1670	0.689
1679	0.646
1688	0.5427
1697	0.2244
1706	0.0352
1715	0.5243
1724	0.7489
1733	0.8018
1742	0.8232
1751	0.8368
1760	0.8427
1769	0.8507
1778	0.8627
1787	0.8657
1796	0.8653
1805	0.8671
1814	0.8703
1823	0.8743
1832	0.8789
1841	0.8812
1850	0.8795
1859	0.8773
1868	0.8734
1877	0.8695
1886	0.8662
1895	0.8638
1904	0.862
1913	0.8609
1922	0.8589
1931	0.857
1940	0.8552
1949	0.8524
1958	0.8491
1967	0.8454
1976	0.8417
1985	0.8382
1994	0.8341
2003	0.8361
2012	0.8407
2021	0.839
2030	0.8365
2039	0.8338
2048	0.8308
2057	0.827
2066	0.823
2075	0.8198
2084	0.8167
2093	0.8135
2102	0.8101
2111	0.805
2120	0.7998
2129	0.7944
2138	0.7884
2147	0.7831
2156	0.7778
2165	0.7728
2174	0.7681
2183	0.7641
2192	0.7607
2201	0.7589
2210	0.758
2219	0.7568
2228	0.7508
2237	0.744
2246	0.7358
2255	0.7288
2264	0.7225
2273	0.7168
2282	0.7122
2291	0.7095
2300	0.7067
2309	0.705
2318	0.7035
2327	0.7034
2336	0.7033
2345	0.7032
2354	0.6998
2363	0.7018
2372	0.7039
2381	0.6937
2390	0.6895
2399	0.6878
2408	0.6867
2417	0.6851
2426	0.6833
2435	0.6812
2444	0.6793
2453	0.6771
2462	0.6736
2471	0.6711
2480	0.6675
2489	0.6631
2498	0.6634
2507	0.6665
2516	0.6688
2525	0.6669
2534	0.6637
2543	0.6581
2552	0.6521
2561	0.6494
2570	0.6489
2579	0.6486
2588	0.6486
2597	0.649
2606	0.6493
2615	0.6474
2624	0.6448
2633	0.6422
2642	0.6399
2651	0.6374
2660	0.6342
2669	0.6302
2678	0.6255
2687	0.6206
2696	0.6151
2705	0.6104
2714	0.606
2723	0.601
2732	0.5962
2741	0.592
2750	0.5894
2759	0.587
2768	0.5865
2777	0.5837
2786	0.5799
2795	0.5746
2804	0.567
2813	0.557
2822	0.5457
2831	0.5372
2840	0.5415
2849	0.5328
2858	0.5193
2867	0.493
2876	0.4287
2885	0.4506
2894	0.4758
2903	0.4722
2912	0.4622
2921	0.4508
2930	0.4362
2939	0.4003
2948	0.3653
2957	0.3791
2966	0.3668
2975	0.371
2984	0.439
2993	0.414
3002	0.3621
3011	0.4131
3020	0.4972
3029	0.5732
3038	0.5722
3047	0.5669
3056	0.5622
3065	0.558
3074	0.5553
3083	0.5537
3092	0.5533
3101	0.5531
3110	0.5515
3119	0.549
3128	0.5466
3137	0.5443
3146	0.5422
3155	0.5399
3164	0.5376
3173	0.5353
3182	0.5329
3191	0.5301
3200	0.5274
3209	0.5247
3218	0.5217
3227	0.5184
3236	0.5153
3245	0.512
3254	0.5088
3263	0.5056
3272	0.5022
3281	0.4989
3290	0.4955
3299	0.4921
3308	0.4888
3317	0.4855
3326	0.4822
3335	0.4789
3344	0.4757
3353	0.4723
3362	0.4689
3371	0.4654
3380	0.4601
3389	0.4565
3398	0.4595
3407	0.466
3416	0.4693
3425	0.4695
3434	0.4686
3443	0.4674
3452	0.4662
3461	0.4649
3470	0.463
3479	0.4609
3488	0.4597
3497	0.4588
3506	0.4579
3515	0.4567
3524	0.4557
3533	0.4545
3542	0.4534
3551	0.4522
3560	0.451
3569	0.4496
3578	0.448
3587	0.4464
3596	0.4449
3605	0.4433
3614	0.442
3623	0.4405
3632	0.4392
3641	0.4378
3650	0.4365
3659	0.4352
3668	0.434
3677	0.4327
3686	0.4315
3695	0.4299
3704	0.4281
3713	0.4262
3722	0.4245
3731	0.4225
3740	0.4205
3749	0.4185
3758	0.4165
3767	0.4144
3776	0.4123
3785	0.4102
3794	0.408
