Infrared Spectrum: m-Chlorocinnamic acid
Formula: C 9 H 7 Cl O 2
CAS: 1866-38-2
State: gas
Instrument: HP-GC/MS/IRD
Origin: NIST Mass Spectrometry Data Center
1/CM	ABSORBANCE
550	0.001911
562	0.006711
574	0.008076
586	0.00321
598	0.001263
610	0.000642
622	0.000402
634	0.001149
646	0.002229
658	0.002868
670	0.002919
682	0.002697
694	0.001104
706	0.00129
718	0.000846
730	0.000252
742	0.000387
754	0.000396
766	0.000975
778	0.003573
790	0.00318
802	0.000564
814	6e-05
826	0.000171
838	0.000228
850	0.000909
862	0.001938
874	0.00153
886	0.002316
898	0.002076
910	0.001695
922	0.00093
934	0.000693
946	0.001113
958	0.001212
970	0.00279
982	0.003441
994	0.001437
1006	0.000567
1018	0.000291
1030	0.000231
1042	0.000399
1054	0.000669
1066	0.001449
1078	0.003138
1090	0.004968
1102	0.00849
1114	0.022569
1126	0.021153
1138	0.008907
1150	0.011577
1162	0.010269
1174	0.003687
1186	0.003075
1198	0.004407
1210	0.00204
1222	0.001641
1234	0.001869
1246	0.002325
1258	0.002631
1270	0.00252
1282	0.002664
1294	0.003147
1306	0.003375
1318	0.002325
1330	0.002193
1342	0.004146
1354	0.007158
1366	0.005091
1378	0.001896
1390	0.001158
1402	0.00132
1414	0.001995
1426	0.002604
1438	0.001362
1450	0.000792
1462	0.001266
1474	0.002895
1486	0.001692
1498	0.000753
1510	0.000447
1522	0.000387
1534	0.000609
1546	0.001224
1558	0.002706
1570	0.00408
1582	0.002511
1594	0.003237
1606	0.001374
1618	0.001233
1630	0.003027
1642	0.007839
1654	0.003693
1666	0.0009
1678	0.000993
1690	0.00093
1702	0.001146
1714	0.002409
1726	0.004629
1738	0.008898
1750	0.024882
1762	0.025716
1774	0.010239
1786	0.006345
1798	0.00354
1810	0.001623
1822	0.001008
1834	0.000873
1846	0.000567
1858	0.000462
1870	0.00042
1882	0.000246
1894	0.000186
1906	0.000123
1918	0.000171
1930	0.000273
1942	0.000243
1954	0.000117
1966	8.1e-05
1978	6.3e-05
1990	7.2e-05
2002	6.9e-05
2014	0.000132
2026	0.000102
2038	0.000108
2050	0.000138
2062	0.000135
2074	9.3e-05
2086	3.6e-05
2098	3.9e-05
2110	3.3e-05
2122	2.7e-05
2134	0
2146	4.2e-05
2158	3.6e-05
2170	3e-05
2182	4.8e-05
2194	6e-05
2206	6.3e-05
2218	6.9e-05
2230	9.6e-05
2242	5.7e-05
2254	2.7e-05
2266	3e-05
2278	1.8e-05
2290	1.5e-05
2302	3.3e-05
2314	4.8e-05
2326	6e-05
2338	9.9e-05
2350	8.7e-05
2362	4.5e-05
2374	5.1e-05
2386	5.7e-05
2398	9e-06
2410	9e-06
2422	4.2e-05
2434	4.8e-05
2446	4.2e-05
2458	7.8e-05
2470	5.4e-05
2482	4.5e-05
2494	6.3e-05
2506	7.5e-05
2518	4.5e-05
2530	5.1e-05
2542	2.7e-05
2554	6.3e-05
2566	7.5e-05
2578	7.2e-05
2590	0.000105
2602	8.7e-05
2614	6.3e-05
2626	4.8e-05
2638	5.4e-05
2650	9.3e-05
2662	6.9e-05
2674	9.9e-05
2686	0.000105
2698	9.3e-05
2710	9.6e-05
2722	6e-05
2734	0.000129
2746	0.000111
2758	0.00012
2770	0.000132
2782	0.000159
2794	0.000192
2806	0.000123
2818	9.9e-05
2830	0.000132
2842	0.000135
2854	0.00012
2866	0.000156
2878	0.000195
2890	0.000177
2902	0.00018
2914	0.000168
2926	0.000138
2938	0.000171
2950	0.00021
2962	0.000171
2974	0.000177
2986	0.000177
2998	0.000279
3010	0.0003
3022	0.000393
3034	0.000456
3046	0.000507
3058	0.00078
3070	0.001275
3082	0.001182
3094	0.000762
3106	0.000345
3118	0.000177
3130	0.00021
3142	0.000171
3154	0.000147
3166	0.000117
3178	0.000204
3190	8.1e-05
3202	6e-05
3214	5.7e-05
3226	9.9e-05
3238	0.000135
3250	9e-05
3262	9e-05
3274	0.000141
3286	9.6e-05
3298	4.2e-05
3310	5.4e-05
3322	3.6e-05
3334	3e-05
3346	9.6e-05
3358	6.3e-05
3370	0.000105
3382	3.9e-05
3394	0.000135
3406	0.000159
3418	0.000102
3430	0.000102
3442	6.9e-05
3454	7.8e-05
3466	0.000117
3478	0.000153
3490	0.000252
3502	0.00042
3514	0.000291
3526	0.000144
3538	0.000204
3550	0.000318
3562	0.000882
3574	0.005982
3586	0.0117
3598	0.001737
3610	0.00036
3622	0.000204
3634	9.6e-05
3646	0.000105
3658	0.000186
3670	0.000129
3682	3.9e-05
3694	3.9e-05
3706	3e-05
3718	0.000114
3730	2.7e-05
3742	0.00018
3754	0.000132
3766	7.2e-05
3778	5.4e-05
3790	0.000108
3802	6.9e-05
3814	2.1e-05
3826	6e-06
3838	0.000117
