Infrared Spectrum: 4,9-DIOXA-1,12-DODECANEDINITRILE
Formula: C10 H16 N2 O2
CAS: 18664-94-3
State: SOLID (MINERAL OIL MULL)
Class: COBLENTZ
Instrument: PERKIN-ELMER
Sampling: TRANSMISSION
Resolution: 4
Origin: STANDARD OIL OF OHIO
MICROMETERS	TRANSMITTANCE
2.046	0.699
2.08553	0.704
2.12507	0.71
2.1646	0.717
2.20414	0.725
2.24367	0.728
2.2832	0.73
2.32274	0.684
2.36227	0.679
2.40181	0.684
2.44134	0.69
2.48087	0.697
2.52041	0.709
2.55994	0.723
2.59948	0.733
2.63901	0.742
2.67854	0.752
2.71808	0.758
2.75761	0.761
2.79714	0.766
2.83668	0.773
2.87621	0.775
2.91575	0.775
2.95528	0.775
2.99481	0.771
3.03435	0.773
3.07388	0.77
3.11342	0.766
3.15295	0.758
3.19248	0.753
3.23202	0.748
3.27155	0.712
3.31109	0.654
3.35062	0.49
3.39015	0.158
3.42969	0.056
3.46922	0.041
3.50876	0.034
3.54829	0.125
3.58782	0.361
3.62736	0.606
3.66689	0.677
3.70643	0.695
3.74596	0.707
3.78549	0.735
3.82503	0.752
3.86456	0.766
3.90409	0.786
3.94363	0.811
3.98316	0.831
4.0227	0.839
4.06223	0.842
4.10176	0.851
4.1413	0.851
4.18083	0.851
4.22037	0.852
4.2599	0.854
4.29943	0.857
4.33897	0.862
4.3785	0.871
4.41804	0.879
4.45757	0.702
4.4971	0.638
4.53664	0.821
4.57617	0.841
4.61571	0.849
4.65524	0.854
4.69477	0.856
4.73431	0.854
4.77384	0.857
4.81338	0.869
4.85291	0.874
4.89244	0.874
4.93198	0.876
4.97151	0.879
5.01104	0.884
5.05058	0.889
5.09011	0.889
5.12965	0.88
5.16918	0.867
5.20871	0.884
5.24825	0.894
5.28778	0.897
5.32732	0.897
5.36685	0.899
5.40638	0.9
5.44592	0.902
5.48545	0.904
5.52499	0.905
5.56452	0.905
5.60405	0.905
5.64359	0.905
5.68312	0.905
5.72266	0.905
5.76219	0.905
5.80172	0.905
5.84126	0.905
5.88079	0.905
5.92033	0.905
5.95986	0.905
5.99939	0.907
6.03893	0.904
6.07846	0.904
6.11799	0.904
6.15753	0.904
6.19706	0.904
6.2366	0.902
6.27613	0.902
6.31566	0.904
6.3552	0.902
6.39473	0.904
6.43427	0.904
6.4738	0.904
6.51333	0.904
6.55287	0.904
6.5924	0.9
6.63194	0.876
6.67147	0.852
6.711	0.733
6.75054	0.502
6.79007	0.438
6.82961	0.242
6.86914	0.163
6.90867	0.214
6.94821	0.345
6.98774	0.472
7.02728	0.629
7.06681	0.641
7.10634	0.604
7.14588	0.49
7.18541	0.638
7.22494	0.641
7.26448	0.365
7.30401	0.256
7.34355	0.161
7.38308	0.431
7.42261	0.604
7.46215	0.651
7.50168	0.626
7.54122	0.525
7.58075	0.687
7.62028	0.727
7.65982	0.737
7.69935	0.728
7.73889	0.72
7.77842	0.755
7.81795	0.765
7.85749	0.765
7.89702	0.763
7.93656	0.722
7.97609	0.537
8.01562	0.626
8.05516	0.659
8.09469	0.676
8.13423	0.689
8.17376	0.571
8.21329	0.552
8.25283	0.641
8.29236	0.723
8.3319	0.735
8.37143	0.687
8.41096	0.728
8.4505	0.742
8.49003	0.743
8.52956	0.732
8.5691	0.704
8.60863	0.659
8.64817	0.624
8.6877	0.585
8.72723	0.547
8.76677	0.49
8.8063	0.418
8.84584	0.337
8.88537	0.254
8.9249	0.201
8.96444	0.166
9.00397	0.152
9.04351	0.143
9.08304	0.143
9.12257	0.158
9.16211	0.206
9.20164	0.282
9.24118	0.343
9.28071	0.366
9.32024	0.388
9.35978	0.451
9.39931	0.505
9.43885	0.543
9.47838	0.565
9.51791	0.568
9.55745	0.485
9.59698	0.456
9.63651	0.467
9.67605	0.355
9.71558	0.254
9.75512	0.327
9.79465	0.499
9.83418	0.609
9.87372	0.646
9.91325	0.647
9.95279	0.537
9.99232	0.332
10.0319	0.274
10.0714	0.398
10.1109	0.525
10.1505	0.598
10.19	0.639
10.2295	0.662
10.2691	0.676
10.3086	0.685
10.3481	0.7
10.3877	0.705
10.4272	0.72
10.4667	0.727
10.5063	0.737
10.5458	0.743
10.5853	0.745
10.6249	0.715
10.6644	0.71
10.7039	0.74
10.7435	0.763
10.783	0.771
10.8225	0.785
10.8621	0.791
10.9016	0.798
10.9411	0.803
10.9807	0.804
11.0202	0.806
11.0597	0.809
11.0993	0.813
11.1388	0.811
11.1783	0.813
11.2179	0.809
11.2574	0.809
11.2969	0.811
11.3365	0.821
11.376	0.831
11.4155	0.839
11.4551	0.841
11.4946	0.841
11.5341	0.842
11.5737	0.842
11.6132	0.844
11.6527	0.844
11.6923	0.844
11.7318	0.842
11.7713	0.836
11.8109	0.819
11.8504	0.755
11.8899	0.662
11.9295	0.651
11.969	0.712
12.0086	0.745
12.0481	0.776
12.0876	0.791
12.1272	0.808
12.1667	0.816
12.2062	0.828
12.2458	0.841
12.2853	0.847
12.3248	0.851
12.3644	0.856
12.4039	0.859
12.4434	0.862
12.483	0.864
12.5225	0.867
12.562	0.871
12.6016	0.872
12.6411	0.874
12.6806	0.874
12.7202	0.872
12.7597	0.871
12.7992	0.872
12.8388	0.866
12.8783	0.861
12.9178	0.857
12.9574	0.854
12.9969	0.851
13.0364	0.846
13.076	0.844
13.1155	0.842
13.155	0.838
13.1946	0.829
13.2341	0.806
13.2736	0.752
13.3132	0.705
13.3527	0.704
13.3922	0.73
13.4318	0.747
13.4713	0.753
13.5108	0.761
13.5504	0.765
13.5899	0.763
13.6294	0.763
13.669	0.763
13.7085	0.758
13.748	0.75
13.7876	0.737
13.8271	0.717
13.8666	0.697
13.9062	0.685
13.9457	0.689
13.9852	0.707
14.0248	0.745
14.0643	0.78
14.1038	0.8
14.1434	0.814
14.1829	0.831
14.2225	0.846
14.262	0.852
14.3015	0.861
14.3411	0.864
14.3806	0.871
14.4201	0.874
14.4597	0.876
14.4992	0.876
14.5387	0.877
14.5783	0.88
14.6178	0.882
14.6573	0.882
14.6969	0.882
14.7364	0.882
14.7759	0.882
14.8155	0.884
14.855	0.884
14.8945	0.882
14.9341	0.882
14.9736	0.88
15.0131	0.884
15.0527	0.884
15.0922	0.884
15.1317	0.88
15.1713	0.879
15.2108	0.876
15.2503	0.877
