Infrared Spectrum: SULFONYL CHLORIDE, 8-QUINOLINE-
Formula: C9 H6 Cl N O2 S
CAS: 18704-37-5
State: SOLID (SPLIT MULL)
Melting point: 127 C
Class: COBLENTZ III
Instrument: BECKMAN IR-9 (GRATING)
Instrument parameters: ORDER CHANGES: 670, 1200, 2000 CM^-^1
Sampling: TRANSMISSION
Resolution: 2
Origin: DOW CHEMICAL COMPANY
1/CM	TRANSMITTANCE
401	0.5212
410	0.5167
419	0.5235
428	0.5677
437	0.6489
446	0.6768
455	0.7276
464	0.7544
473	0.7725
482	0.7815
491	0.779
500	0.7028
509	0.2481
518	0.6694
527	0.7161
536	0.79
545	0.4237
554	0.809
563	0.6521
572	0.6974
581	0.5765
590	0.2481
599	0.7234
608	0.8361
617	0.7253
626	0.6556
635	0.8853
644	0.8832
653	0.8921
662	0.7647
671	0.7182
680	0.8154
689	0.7657
698	0.89
707	0.8927
716	0.8644
725	0.7954
734	0.8377
743	0.8534
752	0.8671
761	0.78
770	0.4178
779	0.7728
788	0.8164
797	0.6281
806	0.8654
815	0.8633
824	0.8185
833	0.4642
842	0.7362
851	0.8525
860	0.8768
869	0.8844
878	0.8811
887	0.8721
896	0.8511
905	0.8458
914	0.8609
923	0.8634
932	0.8487
941	0.8604
950	0.8568
959	0.8513
968	0.8361
977	0.8293
986	0.8193
995	0.8357
1004	0.8362
1013	0.832
1022	0.8343
1031	0.7819
1040	0.7791
1049	0.7021
1058	0.5669
1067	0.8239
1076	0.8277
1085	0.8478
1094	0.8383
1103	0.8425
1112	0.8468
1121	0.8397
1130	0.8212
1139	0.7149
1148	0.713
1157	0.6547
1166	0.645
1175	0.3105
1184	0.2855
1193	0.495
1202	0.577
1211	0.4537
1220	0.5581
1229	0.7039
1238	0.7395
1247	0.6468
1256	0.645
1265	0.7668
1274	0.7853
1283	0.7791
1292	0.7117
1301	0.7612
1310	0.7841
1319	0.7646
1328	0.8032
1337	0.7472
1346	0.6535
1355	0.5956
1364	0.5223
1373	0.139
1382	0.4125
1391	0.7215
1400	0.8191
1409	0.868
1418	0.887
1427	0.8873
1436	0.8891
1445	0.8578
1454	0.8251
1463	0.7783
1472	0.8531
1481	0.8457
1490	0.82
1499	0.6428
1508	0.8431
1517	0.853
1526	0.8362
1535	0.8011
1544	0.6678
1553	0.769
1562	0.7133
1571	0.8496
1580	0.8606
1589	0.7884
1598	0.5731
1607	0.8227
1616	0.7714
1625	0.7545
1634	0.7695
1643	0.8296
1652	0.8515
1661	0.8797
1670	0.8865
1679	0.8868
1688	0.887
1697	0.883
1706	0.8851
1715	0.8873
1724	0.8812
1733	0.8754
1742	0.8714
1751	0.8677
1760	0.8628
1769	0.8591
1778	0.8606
1787	0.8517
1796	0.8509
1805	0.8501
1814	0.8505
1823	0.8515
1832	0.8514
1841	0.8491
1850	0.8457
1859	0.8378
1868	0.8362
1877	0.8371
1886	0.8351
1895	0.8331
1904	0.8311
1913	0.8289
1922	0.8243
1931	0.8256
1940	0.8228
1949	0.8192
1958	0.8115
1967	0.81
1976	0.8106
1985	0.8071
1994	0.8038
2003	0.8071
2012	0.8124
2021	0.811
2030	0.8096
2039	0.808
2048	0.8058
2057	0.8028
2066	0.8
2075	0.7971
2084	0.7942
2093	0.7912
2102	0.7884
2111	0.7853
2120	0.7818
2129	0.7783
2138	0.7748
2147	0.7712
2156	0.7676
2165	0.764
2174	0.7604
2183	0.7568
2192	0.7557
2201	0.7545
2210	0.7508
2219	0.7461
2228	0.7398
2237	0.7335
2246	0.7276
2255	0.7219
2264	0.7165
2273	0.711
2282	0.7085
2291	0.7071
2300	0.7058
2309	0.704
2318	0.6993
2327	0.694
2336	0.6885
2345	0.685
2354	0.6821
2363	0.6797
2372	0.6782
2381	0.6817
2390	0.6885
2399	0.6876
2408	0.6858
2417	0.6831
2426	0.6787
2435	0.6774
2444	0.6761
2453	0.6751
2462	0.674
2471	0.6726
2480	0.6712
2489	0.6699
2498	0.6681
2507	0.6661
2516	0.6641
2525	0.6618
2534	0.6598
2543	0.6576
2552	0.6568
2561	0.6561
2570	0.655
2579	0.6534
2588	0.6518
2597	0.6499
2606	0.6475
2615	0.6451
2624	0.6426
2633	0.6401
2642	0.6375
2651	0.6349
2660	0.6323
2669	0.6298
2678	0.6272
2687	0.6246
2696	0.6216
2705	0.6185
2714	0.6155
2723	0.6124
2732	0.61
2741	0.6076
2750	0.6052
2759	0.6032
2768	0.6019
2777	0.6004
2786	0.5985
2795	0.5962
2804	0.5942
2813	0.5921
2822	0.5898
2831	0.5875
2840	0.5852
2849	0.5809
2858	0.5754
2867	0.5735
2876	0.5717
2885	0.5683
2894	0.5645
2903	0.5601
2912	0.5533
2921	0.546
2930	0.5389
2939	0.5335
2948	0.531
2957	0.5284
2966	0.5201
2975	0.5179
2984	0.5235
2993	0.522
3002	0.5026
3011	0.501
3020	0.505
3029	0.5028
3038	0.4998
3047	0.5017
3056	0.5191
3065	0.5195
3074	0.508
3083	0.4856
3092	0.4821
3101	0.5131
3110	0.5121
3119	0.5422
3128	0.5512
3137	0.5525
3146	0.5595
3155	0.5617
3164	0.56
3173	0.5542
3182	0.5521
3191	0.5512
3200	0.5508
3209	0.5487
3218	0.5394
3227	0.5379
3236	0.5371
3245	0.5365
3254	0.536
3263	0.5354
3272	0.5351
3281	0.5347
3290	0.5344
3299	0.5316
3308	0.529
3317	0.5264
3326	0.524
3335	0.5216
3344	0.5193
3353	0.5173
3362	0.5154
3371	0.5136
3380	0.5117
3389	0.5097
3398	0.5078
3407	0.5058
3416	0.5044
3425	0.5036
3434	0.5029
3443	0.5021
3452	0.5017
3461	0.5012
3470	0.5009
3479	0.5005
3488	0.5003
3497	0.5002
3506	0.5001
3515	0.5
3524	0.4993
3533	0.4982
3542	0.4971
3551	0.4959
3560	0.4947
3569	0.4934
3578	0.4921
3587	0.4905
3596	0.489
3605	0.4874
3614	0.4859
3623	0.4844
3632	0.483
3641	0.4815
3650	0.4801
3659	0.4788
3668	0.4776
3677	0.4762
3686	0.4751
3695	0.4736
3704	0.4722
3713	0.4707
3722	0.4694
3731	0.468
3740	0.4667
3749	0.4655
3758	0.4645
3767	0.4632
3776	0.4608
3785	0.4595
3794	0.4585
