Infrared Spectrum: Trans-2-Octenoic acid
Formula: C 8 H 14 O 2
CAS: 1871-67-6
State: gas
Origin: EPA-IR VAPOR PHASE LIBRARY
1/CM	ABSORBANCE
549.8	0.0258436
559.445	0.0295736
569.09	0.0279836
578.734	0.0230836
588.379	0.0152036
598.024	0.0102336
607.669	0.0101436
617.313	0.0147636
626.958	0.0175936
636.603	0.0173836
646.248	0.0213536
655.893	0.0172336
665.537	0.0105836
675.182	0.0083636
684.827	0.0084536
694.472	0.0095036
704.116	0.0109136
713.761	0.0096636
723.406	0.0078536
733.051	0.0063536
742.695	0.0050336
752.34	0.0039836
761.985	0.0034036
771.63	0.0031936
781.275	0.0028936
790.919	0.0025836
800.564	0.0026536
810.209	0.0029136
819.854	0.0040036
829.498	0.0050436
839.143	0.0059036
848.788	0.0065336
858.433	0.0074936
868.078	0.0083436
877.722	0.0082436
887.367	0.0077536
897.012	0.0070036
906.657	0.0063236
916.301	0.0062436
925.946	0.0057836
935.591	0.0057036
945.236	0.0072536
954.88	0.0112636
964.525	0.0161336
974.17	0.0193436
983.815	0.0206936
993.46	0.0182036
1003.1	0.0134336
1012.75	0.0100236
1022.39	0.0094736
1032.04	0.0115236
1041.68	0.0146736
1051.33	0.0136836
1060.97	0.0135936
1070.62	0.0173036
1080.26	0.0240136
1089.91	0.0397436
1099.55	0.0745336
1109.2	0.0910836
1118.84	0.0720836
1128.49	0.0680536
1138.13	0.0749536
1147.78	0.0729436
1157.42	0.0646036
1167.07	0.0491236
1176.71	0.0322436
1186.36	0.0241736
1196	0.0183336
1205.64	0.0143036
1215.29	0.0136636
1224.93	0.0139336
1234.58	0.0148436
1244.22	0.0159936
1253.87	0.0171836
1263.51	0.0174636
1273.16	0.0172136
1282.8	0.0165136
1292.45	0.0161336
1302.09	0.0159436
1311.74	0.0154836
1321.38	0.0161736
1331.03	0.0204436
1340.67	0.0282836
1350.32	0.0364436
1359.96	0.0399036
1369.61	0.0341936
1379.25	0.0211536
1388.9	0.0132036
1398.54	0.0085536
1408.18	0.0065436
1417.83	0.0060436
1427.47	0.0067136
1437.12	0.0086936
1446.76	0.0104936
1456.41	0.0113536
1466.05	0.0109736
1475.7	0.0079036
1485.34	0.0046936
1494.99	0.0030036
1504.63	0.0023136
1514.28	0.0018636
1523.92	0.0016736
1533.57	0.0015136
1543.21	0.0013936
1552.86	0.0013236
1562.5	0.0014036
1572.15	0.0013936
1581.79	0.0014936
1591.44	0.0015436
1601.08	0.0018536
1610.73	0.0025236
1620.37	0.0040136
1630.01	0.0074236
1639.66	0.0165536
1649.3	0.0361836
1658.95	0.0421136
1668.59	0.0168636
1678.24	0.0072336
1687.88	0.0063436
1697.53	0.0078436
1707.17	0.0119336
1716.82	0.0196736
1726.46	0.0325536
1736.11	0.0587836
1745.75	0.113284
1755.4	0.182194
1765.04	0.170324
1774.69	0.0989236
1784.33	0.0523336
1793.98	0.0273036
1803.62	0.0144036
1813.27	0.0084636
1822.91	0.0057036
1832.55	0.0041836
1842.2	0.0032836
1851.84	0.0024836
1861.49	0.0020236
1871.13	0.0016736
1880.78	0.0014336
1890.42	0.0012936
1900.07	0.0010568
1909.71	0.0009694
1919.36	0.0008814
1929	0.0008728
1938.65	0.0008546
1948.29	0.0008522
1957.94	0.0008653
1967.58	0.0009155
1977.23	0.0008453
1986.87	0.0008081
1996.52	0.0008837
2006.16	0.0009176
2015.81	0.001034
2025.45	0.0011136
2035.1	0.0010836
2044.74	0.0010736
2054.38	0.0009185
2064.03	0.0008868
2073.67	0.000822
2083.32	0.000668
2092.96	0.000716
2102.61	0.0006143
2112.25	0.0005875
2121.9	0.0005943
2131.54	0.0005038
2141.19	0.0005769
2150.83	0.0005588
2160.48	0.0005725
2170.12	0.0006218
2179.77	0.0006415
2189.41	0.0006998
2199.06	0.0007161
2208.7	0.0007308
2218.35	0.0006747
2227.99	0.0007613
2237.64	0.0007748
2247.28	0.0006445
2256.92	0.0007839
2266.57	0.000675
2276.21	0.0006789
2285.86	0.000605
2295.5	0.0006556
2305.15	0.0006488
2314.79	0.0006767
2324.44	0.0005679
2334.08	0.0005694
2343.73	0.0006163
2353.37	0.0006123
2363.02	0.0005182
2372.66	0.0005091
2382.31	0.0005921
2391.95	0.0006234
2401.6	0.0004891
2411.24	0.0005696
2420.89	0.0005824
2430.53	0.0005883
2440.18	0.0005841
2449.82	0.0005523
2459.47	0.0006044
2469.11	0.0006976
2478.75	0.0005163
2488.4	0.0005292
2498.04	0.0005704
2507.69	0.0005513
2517.33	0.000548
2526.98	0.0005552
2536.62	0.0005185
2546.27	0.0005037
2555.91	0.0006083
2565.56	0.000711
2575.2	0.0007985
2584.85	0.0005966
2594.49	0.0005468
2604.14	0.0006195
2613.78	0.0007299
2623.43	0.0007039
2633.07	0.000844
2642.72	0.000919
2652.36	0.0010159
2662.01	0.0010598
2671.65	0.0012436
2681.29	0.0012136
2690.94	0.0011336
2700.58	0.0010736
2710.23	0.0010736
2719.87	0.0011436
2729.52	0.0012336
2739.16	0.0015536
2748.81	0.0016136
2758.45	0.0016636
2768.1	0.0016036
2777.74	0.0019036
2787.39	0.0021736
2797.03	0.0027436
2806.68	0.0033436
2816.32	0.0041936
2825.97	0.0053636
2835.61	0.0078136
2845.26	0.0124936
2854.9	0.0210436
2864.55	0.0316936
2874.19	0.0355936
2883.84	0.0337036
2893.48	0.0292336
2903.12	0.0299736
2912.77	0.0396736
2922.41	0.0610036
2932.06	0.0908136
2941.7	0.0960536
2951.35	0.0697136
2960.99	0.0571836
2970.64	0.0577336
2980.28	0.0360936
2989.93	0.0178036
2999.57	0.0111436
3009.22	0.0082836
3018.86	0.0068036
3028.51	0.0058136
3038.15	0.0049636
3047.8	0.0045936
3057.44	0.0045036
3067.09	0.0040336
3076.73	0.0032636
3086.38	0.0024736
3096.02	0.0020636
3105.67	0.0016136
3115.31	0.0014536
3124.95	0.0013136
3134.6	0.0012536
3144.24	0.0010191
3153.89	0.0009049
3163.53	0.0007974
3173.18	0.0007529
3182.82	0.0007789
3192.47	0.000505
3202.11	0.0003747
3211.76	0.0004975
3221.4	0.0004174
3231.05	8.974e-05
3240.69	0.000234
3250.34	0.0002052
3259.98	0.0001873
3269.63	0.0002479
3279.27	0.0002887
3288.92	0.00012819
3298.56	0.000269
3308.21	0.0002732
3317.85	0.0003756
3327.49	0.0002056
3337.14	0.0002733
3346.78	0.00016188
3356.43	0.0003399
3366.07	0.0002782
3375.72	0.0004338
3385.36	0.0004006
3395.01	0.000586
3404.65	0.0004513
3414.3	0.0004597
3423.94	0.0004598
3433.59	0.0003746
3443.23	0.0004707
3452.88	0.0006297
3462.52	0.000703
3472.17	0.0008591
3481.81	0.0011036
3491.46	0.0016336
3501.1	0.0018436
3510.75	0.0016436
3520.39	0.0013136
3530.04	0.0012036
3539.68	0.0011736
3549.32	0.0017836
3558.97	0.0035436
3568.61	0.0131036
3578.26	0.0630136
3587.9	0.0677736
3597.55	0.0155936
3607.19	0.0042836
3616.84	0.0018736
3626.48	0.0014736
3636.13	0.0011436
3645.77	0.0009241
3655.42	0.0005892
3665.06	0.0006861
3674.71	0.0005143
3684.35	0.0007728
3694	0.0005424
3703.64	0.0004248
3713.29	0.0004322
3722.93	0.000752
3732.58	0.0003713
3742.22	0.000395
3751.86	0.0004678
3761.51	0.000243
3771.15	0.0003546
3780.8	0.000399
3790.44	0.0003417
3800.09	0.0004287
3809.73	0.0004698
3819.38	0.00015661
3829.02	0.0004511
3838.67	0.0003314
3848.31	0.0004533
3857.96	0.0003579
3867.6	0.0004567
3877.25	0.0004182
3886.89	0.0003518
3896.54	0.0005259
3906.18	0.0002922
3915.83	0.0004115
3925.47	0.0004027
3935.12	0.0004105
3944.76	0.0004091
3954.41	0.0004826
3964.05	0.0003865
3973.69	0.0005165
3983.34	0.0004891
3992.98	0.0005225
