Infrared Spectrum: OXAMIDE, N,N'-BIS-(2-HYDROXYETHYL)-
Formula: C6 H12 N2 O4
CAS: 1871-89-2
State: SOLID (OIL MULL)
Class: COBLENTZ III
Instrument: BAIRD (GRATING)
Instrument parameters: NaCl PRISM
Sampling: TRANSMISSION
Resolution: 2
Origin: WYANDOTTE CHEMICALS CORP.
1/CM	TRANSMITTANCE
4000	0.8244
3991	0.8265
3982	0.8285
3973	0.8305
3964	0.8325
3955	0.8346
3946	0.8367
3937	0.8388
3928	0.8407
3919	0.8425
3910	0.8447
3901	0.8466
3892	0.8486
3883	0.8505
3874	0.8525
3865	0.8545
3856	0.8568
3847	0.8593
3838	0.8618
3829	0.8642
3820	0.8667
3811	0.8691
3802	0.8716
3793	0.874
3784	0.8765
3775	0.879
3766	0.8815
3757	0.8837
3748	0.8859
3739	0.888
3730	0.8896
3721	0.891
3712	0.8923
3703	0.8923
3694	0.8911
3685	0.8899
3676	0.8886
3667	0.8873
3658	0.886
3649	0.8847
3640	0.8833
3631	0.8807
3622	0.878
3613	0.8753
3604	0.8709
3595	0.8643
3586	0.856
3577	0.8468
3568	0.8374
3559	0.8256
3550	0.8133
3541	0.8012
3532	0.7897
3523	0.778
3514	0.7594
3505	0.7338
3496	0.6571
3487	0.6357
3478	0.6165
3469	0.5949
3460	0.5688
3451	0.5503
3442	0.5257
3433	0.5003
3424	0.4749
3415	0.4493
3406	0.4236
3397	0.3977
3388	0.3716
3379	0.3456
3370	0.3193
3361	0.2929
3352	0.2663
3343	0.2396
3334	0.2213
3325	0.2117
3316	0.2019
3307	0.1919
3298	0.1804
3289	0.1689
3280	0.1576
3271	0.147
3262	0.1412
3253	0.1398
3244	0.1419
3235	0.1523
3226	0.1654
3217	0.1751
3208	0.1831
3199	0.1892
3190	0.1959
3181	0.2031
3172	0.2105
3163	0.2182
3154	0.2257
3145	0.2334
3136	0.2414
3127	0.2518
3118	0.2612
3109	0.2696
3100	0.2751
3091	0.2778
3082	0.2795
3073	0.2803
3064	0.2804
3055	0.2822
3046	0.2909
3037	0.3005
3028	0.3046
3019	0.3059
3010	0.3061
3001	0.2831
2992	0.2391
2983	0.1949
2974	0.1505
2965	0.1058
2956	0.0608
2947	0.0287
2938	0.0281
2929	0.0292
2920	0.0304
2911	0.0316
2902	0.0327
2893	0.0338
2884	0.0349
2875	0.036
2866	0.037
2857	0.0387
2848	0.0411
2839	0.0455
2830	0.0531
2821	0.0766
2812	0.2109
2803	0.3026
2794	0.3882
2785	0.406
2776	0.4347
2767	0.4624
2758	0.4819
2749	0.4991
2740	0.5119
2731	0.5245
2722	0.5356
2713	0.5466
2704	0.5595
2695	0.5732
2686	0.5849
2677	0.5952
2668	0.6045
2659	0.6138
2650	0.6245
2641	0.6312
2632	0.6343
2623	0.6353
2614	0.6359
2605	0.6366
2596	0.639
2587	0.6435
2578	0.6546
2569	0.668
2560	0.6775
2551	0.6861
2542	0.6928
2533	0.6965
2524	0.6962
2515	0.6898
2506	0.6776
2497	0.6742
2488	0.6754
2479	0.6848
2470	0.705
2461	0.7308
2452	0.741
2443	0.7442
2434	0.7444
2425	0.7448
2416	0.7462
2407	0.7496
2398	0.754
2389	0.7643
2380	0.7768
2371	0.7899
2362	0.7962
2353	0.7981
2344	0.8001
2335	0.8036
2326	0.8069
2317	0.8106
2308	0.815
2299	0.8194
2290	0.8243
2281	0.8297
2272	0.835
2263	0.8404
2254	0.8461
2245	0.852
2236	0.8578
2227	0.8637
2218	0.8687
2209	0.872
2200	0.8721
2191	0.8716
2182	0.8715
2173	0.8728
2164	0.8764
2155	0.8818
2146	0.8918
2137	0.8954
2128	0.8973
2119	0.8987
2110	0.9004
2101	0.9021
2092	0.9064
2083	0.9104
2074	0.9134
2065	0.9144
2056	0.9143
2047	0.9147
2038	0.9161
2029	0.9221
2020	0.9318
2011	0.9404
2002	0.9475
1993	0.9524
1984	0.9557
1975	0.9582
1966	0.9592
1957	0.9601
1948	0.9606
1939	0.9618
1930	0.9624
1921	0.9618
1912	0.9597
1903	0.9568
1894	0.9533
1885	0.9483
1876	0.94
1867	0.9312
1858	0.9213
1849	0.9087
1840	0.8948
1831	0.8768
1822	0.8261
1813	0.7683
1804	0.7512
1795	0.7349
1786	0.7107
1777	0.6871
1768	0.6588
1759	0.6057
1750	0.5503
1741	0.4733
1732	0.442
1723	0.4153
1714	0.3749
1705	0.3278
1696	0.3018
1687	0.2767
1678	0.2302
1669	0.1703
1660	0.1531
1651	0.1614
1642	0.1856
1633	0.2099
1624	0.2394
1615	0.2717
1606	0.3051
1597	0.3339
1588	0.3422
1579	0.3106
1570	0.2583
1561	0.1457
1552	0.1286
1543	0.1317
1534	0.148
1525	0.1687
1516	0.1883
1507	0.2029
1498	0.2019
1489	0.1724
1480	0.1155
1471	0.0683
1462	0.0697
1453	0.0688
1444	0.143
1435	0.2004
1426	0.2323
1417	0.235
1408	0.2408
1399	0.2582
1390	0.2096
1381	0.1727
1372	0.2665
1363	0.3791
1354	0.4127
1345	0.4435
1336	0.4752
1327	0.4394
1318	0.2749
1309	0.3542
1300	0.2693
1291	0.3868
1282	0.4266
1273	0.4459
1264	0.4315
1255	0.3166
1246	0.1704
1237	0.3258
1228	0.4515
1219	0.3166
1210	0.1548
1201	0.1882
1192	0.2733
1183	0.3414
1174	0.39
1165	0.425
1156	0.4568
1147	0.4882
1138	0.5059
1129	0.5103
1120	0.4875
1111	0.3521
1102	0.4042
1093	0.4328
1084	0.4387
1075	0.33
1066	0.2205
1057	0.1299
1048	0.2139
1039	0.1492
1030	0.3176
1021	0.3688
1012	0.3079
1003	0.521
994	0.5922
985	0.6112
976	0.612
967	0.6212
958	0.636
949	0.6493
940	0.6568
931	0.66
922	0.6607
913	0.6654
904	0.6821
895	0.6783
886	0.6642
877	0.6643
868	0.6636
859	0.6483
850	0.6218
841	0.5922
832	0.5089
823	0.2457
814	0.4287
805	0.4497
796	0.3821
787	0.3184
778	0.2634
769	0.2272
760	0.2535
751	0.3352
742	0.3603
733	0.4445
724	0.4976
715	0.5443
706	0.5828
697	0.5915
688	0.5853
679	0.5618
670	0.5272
661	0.4878
652	0.5002
643	0.5349
634	0.56
