Infrared Spectrum: SEBACONITRILE
Formula: C10 H16 N2
CAS: 1871-96-1
State: LIQUID
Melting point: 7-9 C
Class: COBLENTZ
Instrument: Not specified, most likely a prism, grating, or hybrid spectrometer.
Sampling: TRANSMISSION
Path length: 0.003 CM
Resolution: 4
Origin: WYANDOTTE CHEMICALS CORP., WYANDOTTE, MICHIGAN, USA
MICROMETERS	TRANSMITTANCE
2.071	0.983
2.11054	0.983
2.15009	0.98
2.18963	0.965
2.22917	0.928
2.26872	0.927
2.30826	0.935
2.3478	0.947
2.38735	0.958
2.42689	0.958
2.46643	0.96
2.50598	0.97
2.54552	0.98
2.58506	0.98
2.62461	0.981
2.66415	0.978
2.70369	0.927
2.74324	0.907
2.78278	0.928
2.82232	0.917
2.86187	0.945
2.90141	0.971
2.94095	0.98
2.9805	0.98
3.02004	0.98
3.05958	0.975
3.09913	0.958
3.13867	0.95
3.17822	0.933
3.21776	0.932
3.2573	0.903
3.29685	0.869
3.33639	0.533
3.37593	0.102
3.41548	0.056
3.45502	0.23
3.49456	0.107
3.53411	0.48
3.57365	0.829
3.61319	0.905
3.65274	0.918
3.69228	0.927
3.73182	0.912
3.77137	0.933
3.81091	0.94
3.85045	0.958
3.89	0.975
3.92954	0.976
3.96908	0.976
4.00863	0.981
4.04817	0.988
4.08771	0.988
4.12726	0.988
4.1668	0.986
4.20634	0.986
4.24589	0.988
4.28543	0.993
4.32497	0.976
4.36452	0.975
4.40406	0.966
4.4436	0.937
4.48315	0.741
4.52269	0.264
4.56223	0.844
4.60178	0.966
4.64132	0.981
4.68086	0.99
4.72041	0.998
4.75995	1.006
4.79949	1.009
4.83904	1.009
4.87858	1.008
4.91812	1.004
4.95767	1.003
4.99721	1.004
5.03675	1.004
5.0763	1.006
5.11584	1.008
5.15538	1.011
5.19493	1.011
5.23447	1.011
5.27402	1.011
5.31356	1.011
5.3531	1.009
5.39265	1.009
5.43219	1.008
5.47173	1.008
5.51128	1.006
5.55082	1.006
5.59036	1.008
5.62991	1.008
5.66945	1.004
5.70899	1.008
5.74854	1.004
5.78808	1.001
5.82762	0.996
5.86717	0.99
5.90671	0.976
5.94625	0.971
5.9858	0.975
6.02534	0.98
6.06488	0.955
6.10443	0.933
6.14397	0.943
6.18351	0.96
6.22306	0.975
6.2626	0.981
6.30214	0.98
6.34169	0.978
6.38123	0.976
6.42077	0.976
6.46032	0.971
6.49986	0.975
6.5394	0.958
6.57895	0.956
6.61849	0.932
6.65803	0.913
6.69758	0.87
6.73712	0.769
6.77666	0.319
6.81621	0.246
6.85575	0.374
6.89529	0.468
6.93484	0.443
6.97438	0.235
7.01392	0.369
7.05347	0.706
7.09301	0.817
7.13255	0.857
7.1721	0.879
7.21164	0.859
7.25118	0.764
7.29073	0.768
7.33027	0.751
7.36982	0.73
7.40936	0.774
7.4489	0.796
7.48845	0.735
7.52799	0.708
7.56753	0.793
7.60708	0.817
7.64662	0.829
7.68616	0.841
7.72571	0.85
7.76525	0.859
7.80479	0.869
7.84434	0.874
7.88388	0.859
7.92342	0.87
7.96297	0.882
8.00251	0.897
8.04205	0.9
8.0816	0.897
8.12114	0.892
8.16068	0.89
8.20023	0.889
8.23977	0.895
8.27931	0.907
8.31886	0.92
8.3584	0.928
8.39794	0.937
8.43749	0.94
8.47703	0.947
8.51657	0.948
8.55612	0.961
8.59566	0.973
8.6352	0.976
8.67475	0.976
8.71429	0.973
8.75383	0.965
8.79338	0.966
8.83292	0.981
8.87246	0.986
8.91201	0.983
8.95155	0.971
8.99109	0.948
9.03064	0.94
9.07018	0.94
9.10972	0.928
9.14927	0.923
9.18881	0.932
9.22835	0.938
9.2679	0.937
9.30744	0.933
9.34698	0.927
9.38653	0.92
9.42607	0.922
9.46562	0.93
9.50516	0.935
9.5447	0.935
9.58425	0.932
9.62379	0.927
9.66333	0.927
9.70288	0.927
9.74242	0.923
9.78196	0.917
9.82151	0.908
9.86105	0.91
9.90059	0.918
9.94014	0.913
9.97968	0.92
10.0192	0.923
10.0588	0.923
10.0983	0.927
10.1379	0.93
10.1774	0.933
10.2169	0.938
10.2565	0.938
10.296	0.938
10.3356	0.938
10.3751	0.938
10.4147	0.937
10.4542	0.935
10.4937	0.933
10.5333	0.93
10.5728	0.925
10.6124	0.918
10.6519	0.917
10.6915	0.908
10.731	0.903
10.7705	0.899
10.8101	0.894
10.8496	0.877
10.8892	0.864
10.9287	0.859
10.9683	0.882
11.0078	0.9
11.0474	0.908
11.0869	0.917
11.1264	0.92
11.166	0.925
11.2055	0.927
11.2451	0.925
11.2846	0.92
11.3242	0.918
11.3637	0.912
11.4032	0.905
11.4428	0.899
11.4823	0.899
11.5219	0.903
11.5614	0.897
11.601	0.899
11.6405	0.9
11.68	0.894
11.7196	0.89
11.7591	0.879
11.7987	0.865
11.8382	0.854
11.8778	0.85
11.9173	0.849
11.9568	0.854
11.9964	0.865
12.0359	0.88
12.0755	0.892
12.115	0.9
12.1546	0.903
12.1941	0.912
12.2337	0.908
12.2732	0.902
12.3127	0.907
12.3523	0.908
12.3918	0.907
12.4314	0.902
12.4709	0.894
12.5105	0.889
12.55	0.875
12.5895	0.864
12.6291	0.857
12.6686	0.867
12.7082	0.877
12.7477	0.879
12.7873	0.879
12.8268	0.875
12.8663	0.875
12.9059	0.867
12.9454	0.862
12.985	0.852
13.0245	0.842
13.0641	0.832
13.1036	0.824
13.1432	0.812
13.1827	0.802
13.2222	0.796
13.2618	0.789
13.3013	0.791
13.3409	0.793
13.3804	0.791
13.42	0.789
13.4595	0.784
13.499	0.773
13.5386	0.764
13.5781	0.753
13.6177	0.743
13.6572	0.73
13.6968	0.713
13.7363	0.678
13.7758	0.637
13.8154	0.607
13.8549	0.594
13.8945	0.617
13.934	0.663
13.9736	0.718
14.0131	0.761
14.0526	0.798
14.0922	0.829
14.1317	0.849
14.1713	0.869
14.2108	0.885
14.2504	0.894
14.2899	0.902
14.3295	0.907
14.369	0.912
14.4085	0.913
14.4481	0.913
14.4876	0.913
14.5272	0.915
14.5667	0.915
14.6063	0.915
14.6458	0.913
14.6853	0.912
14.7249	0.908
14.7644	0.907
14.804	0.905
14.8435	0.902
14.8831	0.902
14.9226	0.902
14.9621	0.897
15.0017	0.877
15.0412	0.857
15.0808	0.844
15.1203	0.87
15.1599	0.88
15.1994	0.88
15.239	0.875
15.2785	0.87
15.318	0.862
15.3576	0.86
15.3971	0.855
15.4367	0.849
15.4762	0.837
15.5158	0.834
15.5553	0.834
15.5948	0.834
15.6344	0.834
15.6739	0.832
15.7135	0.829
15.753	0.824
15.7926	0.819
15.8321	0.812
15.8716	0.804
15.9112	0.802
15.9507	0.793
15.9903	0.791
16.0298	0.791
