Infrared Spectrum: Diphenylacetyl chloride
Formula: C 14 H 11 Cl O
CAS: 1871-76-7
State: gas
Origin: EPA-IR VAPOR PHASE LIBRARY
1/CM	ABSORBANCE
549.9	0.00059026
559.547	0.000525467
569.193	0.000338
578.84	0.000456
588.486	0.000379
598.133	0.000377
607.779	0.0004654
617.426	0.0004403
627.072	0.0004409
636.719	0.00052899
646.365	0.000739
656.012	0.0011471
665.658	0.002637
675.305	0.004357
684.951	0.008007
694.598	0.011687
704.245	0.008317
713.891	0.003787
723.538	0.002127
733.184	0.003377
742.831	0.007767
752.477	0.012067
762.124	0.007527
771.77	0.002587
781.417	0.001156
791.063	0.0008634
800.71	0.00057628
810.356	0.000413
820.003	0.000434
829.649	0.0004775
839.296	0.000331
848.943	0.000299
858.589	0.000312
868.236	0.000329
877.882	0.000312
887.529	0.0004312
897.175	0.00056819
906.822	0.00057241
916.468	0.00041
926.115	0.000337
935.761	0.000295
945.408	0.000311
955.054	0.0004272
964.701	0.0004875
974.347	0.00051081
983.994	0.0004482
993.64	0.0004412
1003.29	0.0004358
1012.93	0.0006294
1022.58	0.0015079
1032.23	0.002537
1041.87	0.0008759
1051.52	0.0007831
1061.17	0.0014039
1070.81	0.001697
1080.46	0.0012049
1090.11	0.0008329
1099.75	0.0011484
1109.4	0.0013384
1119.05	0.0010863
1128.69	0.0006774
1138.34	0.000372
1147.99	0.000307
1157.63	0.000293
1167.28	0.000359
1176.92	0.0004486
1186.57	0.000525357
1196.22	0.0004654
1205.86	0.0004811
1215.51	0.0004381
1225.16	0.0004446
1234.8	0.0004553
1244.45	0.0004553
1254.1	0.00060554
1263.74	0.0009839
1273.39	0.001677
1283.04	0.002867
1292.68	0.002767
1302.33	0.001737
1311.98	0.0013963
1321.62	0.0011481
1331.27	0.0011739
1340.92	0.0009332
1350.56	0.000672
1360.21	0.00058135
1369.86	0.0006359
1379.5	0.00057877
1389.15	0.0005437
1398.79	0.00051206
1408.44	0.0005068
1418.09	0.0005125
1427.73	0.0008455
1437.38	0.001567
1447.03	0.002257
1456.67	0.002087
1466.32	0.001537
1475.97	0.002347
1485.61	0.008307
1495.26	0.013287
1504.91	0.005727
1514.55	0.002057
1524.2	0.0010792
1533.85	0.0009192
1543.49	0.0008923
1553.14	0.0009472
1562.79	0.001367
1572.43	0.002347
1582.08	0.004977
1591.73	0.010277
1601.37	0.008997
1611.02	0.003097
1620.67	0.0013776
1630.31	0.0009072
1639.96	0.000748
1649.6	0.0007439
1659.25	0.000761
1668.9	0.0006787
1678.54	0.00057453
1688.19	0.00054587
1697.84	0.00058317
1707.48	0.0006279
1717.13	0.0006182
1726.78	0.000526857
1736.42	0.0004395
1746.07	0.0004407
1755.72	0.0004208
1765.36	0.0005022
1775.01	0.0006681
1784.66	0.0008817
1794.3	0.0010364
1803.95	0.0008233
1813.6	0.0006518
1823.24	0.00059579
1832.89	0.00053551
1842.54	0.00060659
1852.18	0.000777
1861.83	0.0008802
1871.47	0.0009112
1881.12	0.0008462
1890.77	0.0006993
1900.41	0.00053744
1910.06	0.00057331
1919.71	0.000682
1929.35	0.0008859
1939	0.0011776
1948.65	0.0012388
1958.29	0.0011093
1967.94	0.0007436
1977.59	0.0006845
1987.23	0.0007844
1996.88	0.0009135
2006.53	0.0010629
2016.17	0.0013116
2025.82	0.0014222
2035.47	0.001717
2045.11	0.002677
2054.76	0.003587
2064.41	0.004137
2074.05	0.007697
2083.7	0.021467
2093.35	0.064327
2102.99	0.132607
2112.64	0.122717
2122.28	0.037227
2131.93	0.008297
2141.58	0.003797
2151.22	0.002507
2160.87	0.001957
2170.52	0.001657
2180.16	0.001767
2189.81	0.001927
2199.46	0.001847
2209.1	0.001617
2218.75	0.0013096
2228.4	0.0008565
2238.04	0.0006472
2247.69	0.00056959
2257.34	0.000484
2266.98	0.000399
2276.63	0.0004759
2286.28	0.000414
2295.92	0.000456
2305.57	0.0005499
2315.22	0.0006893
2324.86	0.0006801
2334.51	0.0007004
2344.16	0.0006998
2353.8	0.0006756
2363.45	0.000777
2373.09	0.0006591
2382.74	0.0005029
2392.39	0.000397
2402.03	0.0004338
2411.68	0.0004481
2421.33	0.0004377
2430.97	0.0004738
2440.62	0.0004172
2450.27	0.000401
2459.91	0.0004172
2469.56	0.0004565
2479.21	0.0004854
2488.85	0.00054762
2498.5	0.0006865
2508.15	0.0007653
2517.79	0.00061158
2527.44	0.0004555
2537.09	0.000381
2546.73	0.000385
2556.38	0.000381
2566.03	0.000345
2575.67	0.00038
2585.32	0.0004322
2594.96	0.0004427
2604.61	0.0004375
2614.26	0.00051184
2623.9	0.00054935
2633.55	0.00055167
2643.2	0.0004628
2652.84	0.000381
2662.49	0.000343
2672.14	0.000341
2681.78	0.000307
2691.43	0.000202
2701.08	0.000182
2710.72	0.000211
2720.37	0.000192
2730.02	0.000181
2739.66	0.000214
2749.31	0.000195
2758.96	0.000205
2768.6	0.000184
2778.25	0.000243
2787.9	0.000235
2797.54	0.000272
2807.19	0.000328
2816.84	0.000362
2826.48	0.000237
2836.13	0.000136
2845.77	0.000131
2855.42	0.000185
2865.07	0.000297
2874.71	0.000273
2884.36	0.000212
2894.01	8.1e-05
2903.65	0.000119
2913.3	0.000255
2922.95	0.000204
2932.59	0.000176
2942.24	0.000155
2951.89	0.000198
2961.53	0.000167
2971.18	0.000176
2980.83	0.000191
2990.47	0.000324
3000.12	0.0006934
3009.77	0.0014178
3019.41	0.003017
3029.06	0.004997
3038.71	0.005057
3048.35	0.003577
3058	0.005347
3067.64	0.009977
3077.29	0.008317
3086.94	0.005557
3096.58	0.003927
3106.23	0.002307
3115.88	0.000899
3125.52	0.00053399
3135.17	0.000227
3144.82	0.000249
3154.46	0.000269
3164.11	0.000208
3173.76	0.000194
3183.4	0.000214
3193.05	0.000195
3202.7	0.0004521
3212.34	0.00054436
3221.99	0.0006387
3231.64	0.0003
3241.28	0.00025
3250.93	0.000217
3260.58	0.000139
3270.22	9.2e-05
3279.87	0.000133
3289.52	0.000187
3299.16	0.000201
3308.81	0.00019
3318.45	0.00015
3328.1	0.000239
3337.75	0.000324
3347.39	9.2e-05
3357.04	0.000345
3366.69	0.000273
3376.33	0.000272
3385.98	0.000329
3395.63	0.0004599
3405.27	0.0005038
3414.92	0.000384
3424.57	0.0006294
3434.21	0.00059724
3443.86	0.0007474
3453.51	0.00059475
3463.15	0.00055026
3472.8	0.000446
3482.45	0.000342
3492.09	0.000331
3501.74	0.00026
3511.39	0.000294
3521.03	0.00029
3530.68	0.000311
3540.33	0.000271
3549.97	0.000393
3559.62	0.0004206
3569.26	0.000374
3578.91	0.000402
3588.56	0.000298
3598.2	0.0005544
3607.85	0.000366
3617.5	0.000346
3627.14	0.000378
3636.79	0.000338
3646.44	0.0004478
3656.08	0.0004627
3665.73	0.000356
3675.38	0.000408
3685.02	0.00050748
3694.67	0.000521933
3704.32	0.00057687
3713.96	0.000522029
3723.61	0.000465
3733.26	0.0004628
3742.9	0.000314
3752.55	0.00053696
3762.2	0.0004958
3771.84	0.0005681
3781.49	0.000381
3791.13	0.00050958
3800.78	0.000415
3810.43	0.0004583
3820.07	0.000397
3829.72	0.0004986
3839.37	0.000523457
3849.01	0.000397
3858.66	0.00038
3868.31	0.000341
3877.95	0.000334
3887.6	0.0004517
3897.25	0.0004462
3906.89	0.0004269
3916.54	0.0004603
3926.19	0.0004522
3935.83	0.00052693
3945.48	0.0004925
3955.13	0.0004856
3964.77	0.000516874
3974.42	0.0004729
3984.07	0.0004927
3993.71	0.000516531
