Infrared Spectrum: Tris(2-chloroethyl)orthoformate
Formula: C 7 H 13 Cl 3 O 3
CAS: 18719-58-9
State: gas
Origin: EPA-IR VAPOR PHASE LIBRARY
1/CM	ABSORBANCE
549.8	0.00442
559.445	0.00389
569.09	0.00411
578.735	0.00363
588.38	0.00336
598.025	0.00327
607.67	0.00289
617.315	0.00289
626.96	0.00338
636.605	0.00408
646.251	0.00567
655.896	0.00989
665.541	0.01809
675.186	0.02871
684.831	0.02506
694.476	0.01501
704.121	0.01082
713.766	0.00914
723.411	0.00839
733.056	0.00877
742.701	0.0115
752.346	0.0185
761.991	0.03101
771.636	0.0332
781.281	0.01848
790.926	0.00904
800.571	0.00617
810.216	0.00567
819.861	0.00543
829.507	0.00488
839.152	0.00482
848.797	0.0052
858.442	0.00525
868.087	0.00514
877.732	0.0052
887.377	0.00507
897.022	0.00565
906.667	0.00679
916.312	0.0092
925.957	0.01345
935.602	0.01948
945.247	0.02432
954.892	0.02783
964.537	0.03133
974.182	0.03606
983.827	0.04212
993.472	0.04936
1003.12	0.05514
1012.76	0.06252
1022.41	0.07056
1032.05	0.08084
1041.7	0.09904
1051.34	0.12096
1060.99	0.14294
1070.63	0.16924
1080.28	0.19888
1089.92	0.23669
1099.57	0.2604
1109.21	0.2784
1118.86	0.26925
1128.5	0.20817
1138.15	0.14844
1147.79	0.10902
1157.44	0.07486
1167.08	0.05031
1176.73	0.03743
1186.37	0.03319
1196.02	0.03622
1205.66	0.0388
1215.31	0.0308
1224.95	0.02342
1234.6	0.01875
1244.24	0.01896
1253.89	0.02333
1263.53	0.02071
1273.18	0.01722
1282.82	0.01832
1292.47	0.02587
1302.11	0.03821
1311.76	0.03048
1321.4	0.02069
1331.05	0.01954
1340.69	0.02804
1350.34	0.03184
1359.98	0.02558
1369.63	0.01837
1379.27	0.01266
1388.92	0.01347
1398.56	0.01543
1408.21	0.01206
1417.85	0.00938
1427.5	0.01208
1437.14	0.01842
1446.79	0.0148
1456.43	0.01493
1466.08	0.0122
1475.73	0.00857
1485.37	0.00579
1495.02	0.00397
1504.66	0.00311
1514.31	0.00266
1523.95	0.00239
1533.6	0.0021888
1543.24	0.0019705
1552.89	0.0018739
1562.53	0.0018204
1572.18	0.0016063
1581.82	0.0015751
1591.47	0.0014812
1601.11	0.001527
1610.76	0.0014988
1620.4	0.0016999
1630.05	0.001944
1639.69	0.0021029
1649.34	0.0021507
1658.98	0.0016571
1668.63	0.001588
1678.27	0.0014411
1687.92	0.0013976
1697.56	0.0014476
1707.21	0.0014156
1716.85	0.0015444
1726.5	0.0015337
1736.14	0.001712
1745.79	0.0019372
1755.43	0.0020677
1765.08	0.0022043
1774.72	0.0019739
1784.37	0.0017994
1794.01	0.0016551
1803.66	0.0015618
1813.3	0.0014181
1822.95	0.0014327
1832.59	0.0013537
1842.24	0.00126904
1851.88	0.00123769
1861.53	0.00126005
1871.17	0.0012167
1880.82	0.00122612
1890.46	0.00130462
1900.11	0.00127132
1909.75	0.0013349
1919.4	0.0013822
1929.04	0.0014201
1938.69	0.001617
1948.33	0.0015188
1957.98	0.001612
1967.62	0.001597
1977.27	0.0016254
1986.91	0.0016083
1996.56	0.0015957
2006.2	0.0015675
2015.85	0.0016163
2025.49	0.0016714
2035.14	0.0018647
2044.78	0.0020374
2054.43	0.0021646
2064.07	0.00237
2073.72	0.00242
2083.36	0.00244
2093.01	0.00249
2102.65	0.00253
2112.3	0.00261
2121.94	0.00254
2131.59	0.00247
2141.23	0.00239
2150.88	0.00229
2160.52	0.00226
2170.17	0.0021621
2179.81	0.0020236
2189.46	0.0019657
2199.1	0.0018944
2208.75	0.0018003
2218.39	0.001789
2228.04	0.0017992
2237.68	0.0018199
2247.33	0.0017048
2256.97	0.001621
2266.62	0.0016023
2276.26	0.0014999
2285.91	0.0013979
2295.55	0.0013815
2305.2	0.00130276
2314.84	0.00128955
2324.49	0.0011686
2334.13	0.001104
2343.78	0.0011233
2353.42	0.000962
2363.07	0.000926
2372.72	0.000901
2382.36	0.000889
2392.01	0.000814
2401.65	0.000737
2411.3	0.0007
2420.94	0.000663
2430.59	0.000681
2440.23	0.000625
2449.88	0.000671
2459.52	0.000636
2469.17	0.000684
2478.81	0.000745
2488.46	0.000745
2498.1	0.000793
2507.75	0.000752
2517.39	0.000753
2527.04	0.000731
2536.68	0.000655
2546.33	0.000616
2555.97	0.000532
2565.62	0.000491
2575.26	0.000429
2584.91	0.000552
2594.55	0.000575
2604.2	0.000579
2613.84	0.000751
2623.49	0.000894
2633.13	0.0011717
2642.78	0.0013363
2652.42	0.0015323
2662.07	0.0015606
2671.71	0.0015873
2681.36	0.0015635
2691	0.0015135
2700.65	0.0019175
2710.29	0.0021436
2719.94	0.0020862
2729.58	0.0020347
2739.23	0.0021646
2748.87	0.00237
2758.52	0.00246
2768.16	0.00301
2777.81	0.00345
2787.45	0.00333
2797.1	0.00333
2806.74	0.00314
2816.39	0.00342
2826.03	0.00419
2835.68	0.00545
2845.32	0.00752
2854.97	0.01049
2864.61	0.01488
2874.26	0.02018
2883.9	0.02694
2893.55	0.03367
2903.19	0.03287
2912.84	0.02623
2922.48	0.02396
2932.13	0.02395
2941.77	0.02583
2951.42	0.02863
2961.06	0.0379
2970.71	0.0446
2980.35	0.03113
2990	0.01765
2999.64	0.01387
3009.29	0.01481
3018.93	0.01035
3028.58	0.00614
3038.22	0.00372
3047.87	0.00237
3057.51	0.0016976
3067.16	0.0011135
3076.8	0.000843
3086.45	0.00057
3096.09	0.000607
3105.74	0.000281
3115.38	0.000249
3125.03	0.000219
3134.67	0.000423
3144.32	0.000259
3153.96	0.000227
3163.61	0.000213
3173.25	0.0002
3182.9	0.00016
3192.54	0.000241
3202.19	0.000338
3211.83	0.000252
3221.48	0.00012
3231.12	0.00014
3240.77	0.00013
3250.41	0.00017
3260.06	0.00014
3269.7	0.000394
3279.35	0.000234
3289	0.0003
3298.64	0.000215
3308.29	0.0002
3317.93	0.000423
3327.58	0.00015
3337.22	0.000284
3346.87	0.0002
3356.51	0.00016
3366.16	0.000324
3375.8	0.000249
3385.45	0.00021
3395.09	0.000285
3404.74	0.000215
3414.38	0.000436
3424.03	0.000268
3433.67	0.00034
3443.32	0.000349
3452.96	0.000358
3462.61	0.000356
3472.25	0.00017
3481.9	0.000309
3491.54	0.000274
3501.19	0.000292
3510.83	0.00026
3520.48	0.000371
3530.12	0.000427
3539.77	0.00036
3549.41	0.000301
3559.06	0.000371
3568.7	0.00019
3578.35	0.000346
3587.99	0.000326
3597.64	0.000435
3607.28	0.000306
3616.93	0.000448
3626.57	0.000539
3636.22	0.000607
3645.86	0.000522
3655.51	0.000589
3665.15	0.000482
3674.8	0.000527
3684.44	0.000536
3694.09	0.000387
3703.73	0.000579
3713.38	0.000396
3723.02	0.000389
3732.67	0.000606
3742.31	0.000563
3751.96	0.000607
3761.6	0.000527
3771.25	0.000732
3780.89	0.000665
3790.54	0.00064
3800.18	0.000582
3809.83	0.000713
3819.47	0.000628
3829.12	0.000608
3838.76	0.000493
3848.41	0.000572
3858.05	0.00068
3867.7	0.000592
3877.34	0.000553
3886.99	0.000536
3896.63	0.00076
3906.28	0.000813
3915.92	0.000612
3925.57	0.0006
3935.21	0.00085
3944.86	0.000831
3954.5	0.00081
3964.15	0.000893
3973.79	0.000909
3983.44	0.000869
3993.08	0.000981
