Infrared Spectrum: 5-Methyl-3-heptanol
Formula: C 8 H 18 O
CAS: 18720-65-5
State: gas
Instrument: HP-GC/MS/IRD
Origin: NIST Mass Spectrometry Data Center
1/CM	ABSORBANCE
550	0.000168
562	0.0002432
574	0.0001664
586	0.0002032
598	0.0002304
610	0.0001296
622	9.12e-05
634	0.0001008
646	4.8e-05
658	4.64e-05
670	0.000104
682	0.0001008
694	8.8e-05
706	0.0001472
718	5.28e-05
730	0.0001136
742	0.0001776
754	0.000224
766	0.0003056
778	0.0004256
790	0.000472
802	0.000336
814	0.000272
826	0.0003792
838	0.0005072
850	0.0004112
862	0.0004336
874	0.0004096
886	0.0004864
898	0.0006512
910	0.0006304
922	0.0006304
934	0.0007104
946	0.0012
958	0.002056
970	0.0026096
982	0.002424
994	0.0021088
1006	0.0020144
1018	0.001984
1030	0.001688
1042	0.0014592
1054	0.0013184
1066	0.0013712
1078	0.0014128
1090	0.0015776
1102	0.0016688
1114	0.001672
1126	0.0017184
1138	0.0017408
1150	0.0014992
1162	0.0010976
1174	0.0008576
1186	0.0008432
1198	0.0010816
1210	0.00128
1222	0.0013904
1234	0.0013456
1246	0.001288
1258	0.0012288
1270	0.001168
1282	0.0011152
1294	0.00104
1306	0.0009808
1318	0.0008992
1330	0.0009328
1342	0.0010464
1354	0.0014112
1366	0.0019792
1378	0.0026672
1390	0.0025104
1402	0.0015104
1414	0.0009296
1426	0.0008832
1438	0.0011808
1450	0.0018896
1462	0.002504
1474	0.002008
1486	0.0009984
1498	0.0004752
1510	0.0002768
1522	0.0001904
1534	0.0001904
1546	0.0001648
1558	8e-05
1570	0.0001536
1582	0.0001472
1594	0.0001376
1606	0.000152
1618	8.96e-05
1630	0.0001056
1642	8.8e-05
1654	2.72e-05
1666	5.92e-05
1678	8.48e-05
1690	3.68e-05
1702	2.72e-05
1714	4.96e-05
1726	9.12e-05
1738	1.12e-05
1750	3.84e-05
1762	3.36e-05
1774	5.44e-05
1786	4.48e-05
1798	1.44e-05
1810	4.48e-05
1822	4.8e-05
1834	3.04e-05
1846	2.4e-05
1858	3.2e-05
1870	3.04e-05
1882	2.56e-05
1894	5.12e-05
1906	5.28e-05
1918	2.4e-05
1930	2.88e-05
1942	4.32e-05
1954	2.4e-05
1966	4.32e-05
1978	6.56e-05
1990	4.64e-05
2002	2.4e-05
2014	4e-05
2026	4.64e-05
2038	1.28e-05
2050	2.72e-05
2062	5.28e-05
2074	3.84e-05
2086	2.72e-05
2098	2.72e-05
2110	1.6e-05
2122	4.96e-05
2134	3.36e-05
2146	3.2e-05
2158	4.64e-05
2170	4.48e-05
2182	2.72e-05
2194	2.24e-05
2206	3.84e-05
2218	4.32e-05
2230	4.16e-05
2242	4.8e-05
2254	3.52e-05
2266	1.28e-05
2278	3.2e-05
2290	5.92e-05
2302	4.96e-05
2314	8.16e-05
2326	3.52e-05
2338	4.8e-05
2350	6.88e-05
2362	8e-05
2374	0.0001056
2386	8.16e-05
2398	0.0001136
2410	9.76e-05
2422	8.64e-05
2434	8.16e-05
2446	6.72e-05
2458	7.84e-05
2470	7.68e-05
2482	8.32e-05
2494	9.44e-05
2506	8.48e-05
2518	8.8e-05
2530	8e-05
2542	0.0001024
2554	8.96e-05
2566	0.0001328
2578	0.0001552
2590	0.0001824
2602	0.0001984
2614	0.0002
2626	0.0002064
2638	0.0001632
2650	0.0002224
2662	0.00024
2674	0.0002592
2686	0.0002592
2698	0.0003072
2710	0.0003184
2722	0.000384
2734	0.000416
2746	0.000472
2758	0.0004832
2770	0.0005024
2782	0.0005312
2794	0.0006384
2806	0.0007648
2818	0.0009888
2830	0.0013792
2842	0.0021152
2854	0.0034
2866	0.0052512
2878	0.0073456
2890	0.0080128
2902	0.0078208
2914	0.010168
2926	0.0132544
2938	0.0136112
2950	0.0116544
2962	0.0143552
2974	0.0149424
2986	0.0071648
2998	0.0027344
3010	0.0014672
3022	0.0010208
3034	0.0007936
3046	0.0007056
3058	0.0006192
3070	0.0005584
3082	0.0005088
3094	0.0004848
3106	0.000416
3118	0.0003344
3130	0.00032
3142	0.0002448
3154	0.0002352
3166	0.0002704
3178	0.000216
3190	0.0002016
3202	0.0001568
3214	0.0001312
3226	0.0001472
3238	0.0001136
3250	9.92e-05
3262	5.44e-05
3274	9.44e-05
3286	4.96e-05
3298	6.08e-05
3310	4.48e-05
3322	4.48e-05
3334	5.28e-05
3346	7.04e-05
3358	7.2e-05
3370	0.000104
3382	6.88e-05
3394	8.48e-05
3406	0.0001056
3418	7.2e-05
3430	6.24e-05
3442	4e-05
3454	8.96e-05
3466	9.76e-05
3478	9.44e-05
3490	6.4e-05
3502	8.16e-05
3514	5.44e-05
3526	7.52e-05
3538	4.96e-05
3550	0.0001088
3562	7.36e-05
3574	0.000104
3586	6.24e-05
3598	1.12e-05
3610	7.36e-05
3622	0.0002736
3634	0.0004384
3646	0.00072
3658	0.0008864
3670	0.0004592
3682	0.0002448
3694	0.000144
3706	6.72e-05
3718	8.16e-05
3730	3.04e-05
3742	4.32e-05
3754	4.16e-05
3766	7.84e-05
3778	6.56e-05
3790	0.0001088
3802	3.84e-05
3814	1.6e-05
3826	3.36e-05
3838	0
