Infrared Spectrum: 3-Methylcyclopentanol
Formula: C 6 H 12 O
CAS: 18729-48-1
State: gas
Instrument: HP-GC/MS/IRD
Origin: NIST Mass Spectrometry Data Center
1/CM	ABSORBANCE
550	0.0002484
562	0.0002592
574	0.0001377
586	0
598	0.0001728
610	0.0001296
622	0.0001836
634	0.0001728
646	0.000108
658	0.0001728
670	0.0001377
682	0.000189
694	0.000108
706	0.000108
718	9.72e-05
730	0.0001323
742	0.0001296
754	0.0002106
766	0.0001863
778	0.0002511
790	0.000324
802	0.0004374
814	0.0005697
826	0.0006264
838	0.0005508
850	0.0005481
862	0.0005076
874	0.0004158
886	0.0005157
898	0.0005751
910	0.0007857
922	0.0009936
934	0.0012852
946	0.0016335
958	0.0019629
970	0.0021168
982	0.0025893
994	0.0037341
1006	0.0049599
1018	0.0051327
1030	0.0044415
1042	0.003888
1054	0.0037989
1066	0.0038421
1078	0.0036882
1090	0.0031644
1102	0.0026487
1114	0.0024219
1126	0.0024327
1138	0.0023031
1150	0.0021168
1162	0.0020574
1174	0.002268
1186	0.0024408
1198	0.0025164
1210	0.002484
1222	0.0024597
1234	0.0025299
1246	0.0026109
1258	0.002538
1270	0.0022815
1282	0.0020412
1294	0.0018765
1306	0.0019143
1318	0.0020952
1330	0.0022653
1342	0.0023058
1354	0.0021897
1366	0.0022437
1378	0.0024354
1390	0.0021357
1402	0.0014661
1414	0.0011448
1426	0.0013041
1438	0.0017712
1450	0.0021519
1462	0.0020736
1474	0.0016092
1486	0.0009396
1498	0.0005049
1510	0.0002754
1522	0.0001809
1534	0.0001242
1546	8.37e-05
1558	9.72e-05
1570	6.21e-05
1582	8.91e-05
1594	5.4e-05
1606	5.67e-05
1618	6.21e-05
1630	4.86e-05
1642	4.05e-05
1654	5.94e-05
1666	5.67e-05
1678	4.59e-05
1690	4.05e-05
1702	5.13e-05
1714	3.24e-05
1726	4.32e-05
1738	1.89e-05
1750	5.13e-05
1762	5.4e-05
1774	5.67e-05
1786	2.43e-05
1798	3.78e-05
1810	4.59e-05
1822	5.13e-05
1834	4.05e-05
1846	3.78e-05
1858	4.59e-05
1870	3.78e-05
1882	3.24e-05
1894	3.24e-05
1906	2.43e-05
1918	2.7e-06
1930	1.35e-05
1942	3.24e-05
1954	2.43e-05
1966	2.43e-05
1978	1.35e-05
1990	2.97e-05
2002	3.78e-05
2014	1.08e-05
2026	2.16e-05
2038	1.89e-05
2050	2.7e-05
2062	4.32e-05
2074	1.89e-05
2086	2.7e-05
2098	3.24e-05
2110	5.13e-05
2122	4.59e-05
2134	3.51e-05
2146	2.16e-05
2158	5.4e-05
2170	2.97e-05
2182	5.13e-05
2194	2.7e-05
2206	2.16e-05
2218	2.7e-05
2230	1.89e-05
2242	1.08e-05
2254	2.97e-05
2266	2.97e-05
2278	1.35e-05
2290	1.62e-05
2302	1.62e-05
2314	3.51e-05
2326	4.32e-05
2338	3.78e-05
2350	2.7e-05
2362	5.13e-05
2374	2.43e-05
2386	4.32e-05
2398	2.43e-05
2410	5.94e-05
2422	3.24e-05
2434	4.05e-05
2446	3.51e-05
2458	1.08e-05
2470	2.43e-05
2482	2.43e-05
2494	3.51e-05
2506	5.4e-06
2518	2.16e-05
2530	1.62e-05
2542	1.89e-05
2554	3.51e-05
2566	4.05e-05
2578	7.83e-05
2590	0.0001053
2602	0.0001107
2614	0.0001188
2626	0.0001188
2638	0.0001458
2650	0.0001485
2662	0.0001404
2674	0.0001647
2686	0.0001782
2698	0.0001782
2710	0.0002295
2722	0.00027
2734	0.0003483
2746	0.0003429
2758	0.0003186
2770	0.000324
2782	0.0003456
2794	0.0004347
2806	0.0006048
2818	0.0008478
2830	0.0013284
2842	0.0022194
2854	0.0039582
2866	0.0067122
2878	0.0088398
2890	0.0096768
2902	0.0103464
2914	0.0122121
2926	0.0151659
2938	0.0198288
2950	0.0253557
2962	0.0264195
2974	0.0169587
2986	0.0072819
2998	0.0027486
3010	0.0013365
3022	0.0007695
3034	0.0004671
3046	0.0003456
3058	0.000297
3070	0.00027
3082	0.0002376
3094	0.000216
3106	0.0002106
3118	0.0001971
3130	0.0001593
3142	0.0001539
3154	0.0001134
3166	0.0001188
3178	0.0001458
3190	0.000108
3202	8.91e-05
3214	4.32e-05
3226	1.89e-05
3238	3.78e-05
3250	2.97e-05
3262	3.78e-05
3274	2.7e-06
3286	2.43e-05
3298	4.86e-05
3310	6.48e-05
3322	4.32e-05
3334	8.1e-06
3346	4.05e-05
3358	7.56e-05
3370	5.67e-05
3382	8.64e-05
3394	9.18e-05
3406	6.75e-05
3418	8.1e-05
3430	7.29e-05
3442	5.4e-05
3454	2.7e-05
3466	5.4e-05
3478	6.21e-05
3490	4.05e-05
3502	7.29e-05
3514	5.4e-05
3526	3.78e-05
3538	4.05e-05
3550	1.89e-05
3562	3.24e-05
3574	2.43e-05
3586	4.86e-05
3598	5.13e-05
3610	0.0001971
3622	0.0003159
3634	0.0008073
3646	0.001728
3658	0.0019872
3670	0.0013473
3682	0.0004887
3694	0.0001782
3706	0.0001026
3718	0.0001107
3730	3.24e-05
3742	5.13e-05
3754	8.91e-05
3766	7.83e-05
3778	5.13e-05
3790	6.48e-05
3802	6.48e-05
3814	8.64e-05
3826	0.0001593
3838	0.0001026
