Infrared Spectrum: Methylphenylfluorosilane
Formula: C7 H9 F Si
CAS: 18720-42-8
State: SOLUTION (10% CCl4 FOR 3800-1300, 3% CS2 FOR 1300-600, AND 10% CCl4 FOR 600-250) VS SOLVENT
Class: COBLENTZ III
Instrument: PERKIN-ELMER 521 (GRATING)
Instrument parameters: FILTERS AT 3150, 2500, 2000, 1150, 700, 410. GRATING CHANGES: 2000, 630
Path length: 0.012 CM, 0.011 CM, AND 0.010 CM
Resolution: 2
Origin: DOW CORNING CORP.
1/CM	TRANSMITTANCE
247	0.6724
256	0.6804
265	0.6949
274	0.6962
283	0.6912
292	0.6962
301	0.6956
310	0.6685
319	0.6594
328	0.7688
337	0.8054
346	0.8077
355	0.7958
364	0.7858
373	0.7564
382	0.6705
391	0.4958
400	0.3661
409	0.6014
418	0.6086
427	0.74
436	0.7599
445	0.7456
454	0.6824
463	0.4037
472	0.3911
481	0.7059
490	0.7737
499	0.7936
508	0.7983
517	0.8063
526	0.8106
535	0.8198
544	0.8183
553	0.8218
562	0.829
571	0.8294
580	0.8275
589	0.827
598	0.7913
607	0.8147
616	0.8378
625	0.8497
634	0.8495
643	0.8448
652	0.8346
661	0.8151
670	0.8267
679	0.8051
688	0.6451
697	0.3263
706	0.5629
715	0.4518
724	0.5087
733	0.5556
742	0.5774
751	0.556
760	0.4004
769	0.7261
778	0.7704
787	0.7316
796	0.7582
805	0.782
814	0.7337
823	0.6661
832	0.7446
841	0.717
850	0.6429
859	0.4087
868	0.0531
877	0.0553
886	0.1135
895	0.1797
904	0.5395
913	0.6523
922	0.7949
931	0.8357
940	0.8528
949	0.8623
958	0.8678
967	0.8688
976	0.8672
985	0.8669
994	0.8577
1003	0.8598
1012	0.8548
1021	0.8549
1030	0.8574
1039	0.8431
1048	0.8362
1057	0.8263
1066	0.8204
1075	0.808
1084	0.7886
1093	0.7684
1102	0.7536
1111	0.6516
1120	0.2768
1129	0.7533
1138	0.8396
1147	0.8591
1156	0.8784
1165	0.8897
1174	0.8894
1183	0.8827
1192	0.8956
1201	0.8953
1210	0.8916
1219	0.8847
1228	0.8719
1237	0.8407
1246	0.7349
1255	0.6938
1264	0.8257
1273	0.8748
1282	0.8738
1291	0.8643
1300	0.7108
1309	0.7403
1318	0.8051
1327	0.7849
1336	0.8014
1345	0.8543
1354	0.8391
1363	0.8039
1372	0.7797
1381	0.7836
1390	0.7313
1399	0.6924
1408	0.7211
1417	0.6261
1426	0.0464
1435	0.7713
1444	0.8169
1453	0.8326
1462	0.8376
1471	0.8318
1480	0.7929
1489	0.8463
1498	0.8497
1507	0.8451
1516	0.8373
1525	0.8304
1534	0.8115
1543	0.7942
1552	0.7974
1561	0.7978
1570	0.7869
1579	0.7221
1588	0.5723
1597	0.8195
1606	0.8323
1615	0.8384
1624	0.8624
1633	0.8589
1642	0.8543
1651	0.8541
1660	0.8561
1669	0.8681
1678	0.8686
1687	0.8648
1696	0.8648
1705	0.8693
1714	0.8715
1723	0.8714
1732	0.8702
1741	0.8653
1750	0.8538
1759	0.8261
1768	0.8415
1777	0.8625
1786	0.861
1795	0.8625
1804	0.8442
1813	0.7819
1822	0.8452
1831	0.8518
1840	0.8629
1849	0.8751
1858	0.872
1867	0.8618
1876	0.8318
1885	0.7859
1894	0.8386
1903	0.8477
1912	0.8601
1921	0.8666
1930	0.8752
1939	0.8683
1948	0.8232
1957	0.7994
1966	0.8424
1975	0.8359
1984	0.8728
1993	0.8784
2002	0.8801
2011	0.883
2020	0.8891
2029	0.8894
2038	0.8893
2047	0.8886
2056	0.8874
2065	0.8838
2074	0.8778
2083	0.8708
2092	0.8587
2101	0.835
2110	0.7768
2119	0.717
2128	0.6301
2137	0.4791
2146	0.2668
2155	0.0635
2164	0.0261
2173	0.0359
2182	0.1511
2191	0.3513
2200	0.6374
2209	0.7196
2218	0.7685
2227	0.8004
2236	0.8194
2245	0.8339
2254	0.8511
2263	0.8633
2272	0.8664
2281	0.8688
2290	0.8704
2299	0.8705
2308	0.8679
2317	0.8778
2326	0.8815
2335	0.8813
2344	0.8812
2353	0.8813
2362	0.8814
2371	0.8816
2380	0.8823
2389	0.8846
2398	0.8851
2407	0.8829
2416	0.8824
2425	0.8824
2434	0.8824
2443	0.8817
2452	0.8793
2461	0.8757
2470	0.8732
2479	0.8725
2488	0.8722
2497	0.8724
2506	0.8728
2515	0.8733
2524	0.8734
2533	0.8728
2542	0.8722
2551	0.8716
2560	0.8712
2569	0.8711
2578	0.8713
2587	0.872
2596	0.8729
2605	0.8714
2614	0.869
2623	0.8707
2632	0.8722
2641	0.8728
2650	0.8723
2659	0.8708
2668	0.8689
2677	0.8664
2686	0.8645
2695	0.8629
2704	0.862
2713	0.8635
2722	0.8684
2731	0.8701
2740	0.8693
2749	0.8686
2758	0.868
2767	0.8669
2776	0.8657
2785	0.8644
2794	0.8629
2803	0.8614
2812	0.8596
2821	0.8574
2830	0.8553
2839	0.8523
2848	0.8474
2857	0.8411
2866	0.8343
2875	0.8269
2884	0.8186
2893	0.8087
2902	0.7985
2911	0.795
2920	0.7957
2929	0.8008
2938	0.7943
2947	0.7725
2956	0.7245
2965	0.5632
2974	0.5543
2983	0.7421
2992	0.7412
3001	0.6793
3010	0.5667
3019	0.56
3028	0.5594
3037	0.6486
3046	0.6551
3055	0.5658
3064	0.4837
3073	0.4971
3082	0.3641
3091	0.7026
3100	0.6907
3109	0.8262
3118	0.8402
3127	0.8579
3136	0.8397
3145	0.8195
3154	0.8475
3163	0.861
3172	0.8647
3181	0.8685
3190	0.8721
3199	0.8751
3208	0.8776
3217	0.8796
3226	0.8813
3235	0.883
3244	0.8839
3253	0.8844
3262	0.8841
3271	0.8836
3280	0.8833
3289	0.8828
3298	0.8823
3307	0.8815
3316	0.8808
3325	0.8805
3334	0.8802
3343	0.8799
3352	0.8797
3361	0.8801
3370	0.8806
3379	0.8811
3388	0.8818
3397	0.8824
3406	0.8827
3415	0.883
3424	0.8832
3433	0.883
3442	0.8829
3451	0.8827
3460	0.8825
3469	0.8824
3478	0.8824
3487	0.8823
3496	0.883
3505	0.884
3514	0.8846
3523	0.8845
3532	0.8835
3541	0.8836
3550	0.884
3559	0.8844
3568	0.8847
3577	0.8825
3586	0.8829
3595	0.8899
3604	0.8845
3613	0.8826
3622	0.883
3631	0.8783
3640	0.8734
3649	0.8751
3658	0.8777
3667	0.8787
3676	0.8786
3685	0.8785
3694	0.8785
3703	0.8779
3712	0.8758
3721	0.8736
3730	0.8729
3739	0.8755
3748	0.8785
3757	0.8797
3766	0.8792
3775	0.8776
3784	0.8766
3793	0.8768
3802	0.8775
3811	0.8805
