Infrared Spectrum: Trisiloxane, 1,1,1,3,5,5,5-heptamethyl-,
Formula: C7 H22 O2 Si3
CAS: 1873-88-7
State: SOLUTION (11% CCl4 FOR 3800-1300, 2% CS2 FOR 1300-650, AND 11% CCl4 FOR 650-250)
Class: COBLENTZ III
Instrument: PERKIN-ELMER 521 (GRATING)
Instrument parameters: FILTERS AT 3150, 2500, 2000, 1150, 700, 410. GRATING CHANGES: 2000, 630
Path length: 0.012 CM, 0.010 CM, AND 0.011 CM
Resolution: 2
Origin: DOW CORNING CORP.
1/CM	TRANSMITTANCE
261	0.6827
270	0.6847
279	0.6653
288	0.6073
297	0.5894
306	0.644
315	0.6543
324	0.5874
333	0.4032
342	0.4253
351	0.5803
360	0.5668
369	0.504
378	0.5046
387	0.6636
396	0.7749
405	0.8224
414	0.8425
423	0.8511
432	0.8597
441	0.8616
450	0.8595
459	0.8558
468	0.8533
477	0.8531
486	0.849
495	0.8346
504	0.8132
513	0.7811
522	0.7485
531	0.7446
540	0.7492
549	0.7506
558	0.7425
567	0.7448
576	0.7761
585	0.8192
594	0.8282
603	0.8291
612	0.8229
621	0.8286
630	0.8013
639	0.655
648	0.7624
657	0.8548
666	0.8627
675	0.8604
684	0.7635
693	0.7981
702	0.8317
711	0.8454
720	0.8414
729	0.8287
738	0.7873
747	0.6733
756	0.4046
765	0.3265
774	0.6786
783	0.7804
792	0.7773
801	0.7473
810	0.692
819	0.556
828	0.2912
837	0.0379
846	0.0457
855	0.2999
864	0.5117
873	0.6508
882	0.7015
891	0.7159
900	0.6632
909	0.2699
918	0.4061
927	0.7155
936	0.8082
945	0.8215
954	0.8239
963	0.82
972	0.8133
981	0.8003
990	0.7778
999	0.7348
1008	0.6682
1017	0.5877
1026	0.4779
1035	0.29
1044	0.1391
1053	0.1044
1062	0.1273
1071	0.169
1080	0.2042
1089	0.326
1098	0.4414
1107	0.5581
1116	0.63
1125	0.6929
1134	0.7334
1143	0.7739
1152	0.8037
1161	0.825
1170	0.8432
1179	0.8495
1188	0.8492
1197	0.8457
1206	0.8368
1215	0.8246
1224	0.8082
1233	0.7544
1242	0.5805
1251	0.153
1260	0.5195
1269	0.7578
1278	0.8112
1287	0.8332
1296	0.8148
1305	0.6946
1314	0.6911
1323	0.6829
1332	0.7155
1341	0.7269
1350	0.7329
1359	0.7441
1368	0.736
1377	0.7215
1386	0.6851
1395	0.5722
1404	0.4901
1413	0.4947
1422	0.6084
1431	0.6093
1440	0.5889
1449	0.605
1458	0.6766
1467	0.7685
1476	0.8009
1485	0.8071
1494	0.8118
1503	0.8179
1512	0.8287
1521	0.8408
1530	0.8406
1539	0.8397
1548	0.8339
1557	0.8265
1566	0.8088
1575	0.8015
1584	0.8033
1593	0.7916
1602	0.7718
1611	0.7779
1620	0.7977
1629	0.8121
1638	0.817
1647	0.8262
1656	0.8387
1665	0.8492
1674	0.8574
1683	0.8561
1692	0.8514
1701	0.8477
1710	0.8453
1719	0.8435
1728	0.8418
1737	0.8397
1746	0.8406
1755	0.8442
1764	0.8561
1773	0.8629
1782	0.8694
1791	0.8682
1800	0.8654
1809	0.8541
1818	0.8425
1827	0.8447
1836	0.8681
1845	0.8784
1854	0.8808
1863	0.8813
1872	0.8785
1881	0.8701
1890	0.8557
1899	0.8685
1908	0.8695
1917	0.8639
1926	0.8528
1935	0.8398
1944	0.8326
1953	0.8579
1962	0.8684
1971	0.8714
1980	0.8724
1989	0.8693
1998	0.8483
2007	0.8688
2016	0.8804
2025	0.8884
2034	0.8922
2043	0.8909
2052	0.8847
2061	0.8768
2070	0.865
2079	0.8421
2088	0.8149
2097	0.7734
2106	0.7055
2115	0.6133
2124	0.4538
2133	0.2847
2142	0.1173
2151	0.0942
2160	0.123
2169	0.2389
2178	0.3549
2187	0.5617
2196	0.6472
2205	0.7518
2214	0.7862
2223	0.815
2232	0.8501
2241	0.8692
2250	0.8827
2259	0.8935
2268	0.9014
2277	0.9062
2286	0.9088
2295	0.9106
2304	0.9117
2313	0.9116
2322	0.9105
2331	0.91
2340	0.9114
2349	0.913
2358	0.9158
2367	0.9197
2376	0.9167
2385	0.9137
2394	0.9125
2403	0.9125
2412	0.9121
2421	0.9115
2430	0.9109
2439	0.911
2448	0.91
2457	0.9083
2466	0.9058
2475	0.903
2484	0.8987
2493	0.8949
2502	0.8994
2511	0.9082
2520	0.9139
2529	0.9158
2538	0.917
2547	0.9176
2556	0.9172
2565	0.9163
2574	0.9135
2583	0.9115
2592	0.9131
2601	0.9138
2610	0.9123
2619	0.9093
2628	0.9062
2637	0.9021
2646	0.8973
2655	0.893
2664	0.8951
2673	0.8988
2682	0.9021
2691	0.9036
2700	0.9032
2709	0.9022
2718	0.901
2727	0.8982
2736	0.8926
2745	0.8858
2754	0.8806
2763	0.8757
2772	0.8682
2781	0.8532
2790	0.8351
2799	0.8151
2808	0.8057
2817	0.8033
2826	0.7982
2835	0.7875
2844	0.7764
2853	0.7705
2862	0.7657
2871	0.7479
2880	0.7237
2889	0.6896
2898	0.6142
2907	0.4608
2916	0.5176
2925	0.6249
2934	0.6214
2943	0.5614
2952	0.4246
2961	0.1826
2970	0.0083
2979	0.0487
2988	0.4302
2997	0.6549
3006	0.715
3015	0.7676
3024	0.7916
3033	0.8074
3042	0.8132
3051	0.8167
3060	0.821
3069	0.8272
3078	0.8345
3087	0.8398
3096	0.8446
3105	0.8483
3114	0.8517
3123	0.8547
3132	0.8626
3141	0.8755
3150	0.8806
3159	0.8825
3168	0.8851
3177	0.8912
3186	0.899
3195	0.904
3204	0.9054
3213	0.9074
3222	0.911
3231	0.9144
3240	0.9159
3249	0.9175
3258	0.9169
3267	0.9181
3276	0.9196
3285	0.9208
3294	0.922
3303	0.9231
3312	0.9242
3321	0.9246
3330	0.9249
3339	0.925
3348	0.9253
3357	0.9248
3366	0.9242
3375	0.9233
3384	0.9224
3393	0.9213
3402	0.9203
3411	0.9192
3420	0.9182
3429	0.9176
3438	0.9171
3447	0.9165
3456	0.916
3465	0.9154
3474	0.9149
3483	0.9144
3492	0.9139
3501	0.9132
3510	0.9127
3519	0.9121
3528	0.9115
3537	0.9107
3546	0.9099
3555	0.9099
3564	0.9077
3573	0.9021
3582	0.9014
3591	0.9026
3600	0.903
3609	0.9035
3618	0.9005
3627	0.8958
3636	0.8897
3645	0.8823
3654	0.8817
3663	0.8728
3672	0.8803
3681	0.8905
3690	0.8947
3699	0.902
3708	0.8937
3717	0.8826
3726	0.8754
3735	0.8765
3744	0.8732
3753	0.8703
3762	0.8698
3771	0.8856
3780	0.8989
3789	0.9
3798	0.8977
3807	0.8913
3816	0.88
