Infrared Spectrum: 1-Cyclohexyl-1-propyne
Formula: C 9 H 14
CAS: 18736-95-3
State: gas
Instrument: HP-GC/MS/IRD
Origin: NIST Mass Spectrometry Data Center
1/CM	ABSORBANCE
550	0.0004761
562	0.0007176
574	0.0010626
586	0.0009315
598	0.0014628
610	0.00483
622	0.0134412
634	0.0287937
646	0.0120474
658	0.0034155
670	0.0009384
682	0.0004347
694	0.0002622
706	0.000138
718	0.0001173
730	8.28e-05
742	0.0001035
754	0.0001242
766	0.0001035
778	6.9e-05
790	2.76e-05
802	3.45e-05
814	4.83e-05
826	0.0002553
838	0.0005106
850	0.000414
862	0.0002208
874	0.0002898
886	0.0003864
898	0.0005106
910	0.0004623
922	0.0004416
934	0.0002898
946	0.0001725
958	0.0002415
970	0.0004416
982	0.0003795
994	0.0001449
1006	0.0001587
1018	0.0001863
1030	0.0002484
1042	0.0002208
1054	0.0003657
1066	0.000552
1078	0.0004899
1090	0.0002829
1102	0.0001656
1114	0.0001656
1126	0.0002139
1138	0.0002277
1150	0.0002139
1162	0.0002484
1174	0.0002553
1186	0.0002829
1198	0.0004968
1210	0.0006141
1222	0.0010902
1234	0.0046023
1246	0.0072243
1258	0.0046161
1270	0.0021666
1282	0.0013593
1294	0.0007107
1306	0.0006762
1318	0.0010488
1330	0.0011454
1342	0.0010626
1354	0.0010074
1366	0.0008073
1378	0.0006072
1390	0.0003312
1402	0.0004071
1414	0.0007452
1426	0.0018699
1438	0.0038364
1450	0.0056856
1462	0.0045333
1474	0.0017595
1486	0.0004968
1498	0.0002139
1510	0.000138
1522	8.97e-05
1534	9.66e-05
1546	5.52e-05
1558	6.21e-05
1570	5.52e-05
1582	4.83e-05
1594	4.14e-05
1606	6.21e-05
1618	2.07e-05
1630	3.45e-05
1642	2.07e-05
1654	6.9e-06
1666	4.83e-05
1678	3.45e-05
1690	4.14e-05
1702	1.38e-05
1714	6.9e-06
1726	2.07e-05
1738	0
1750	1.38e-05
1762	4.83e-05
1774	5.52e-05
1786	2.76e-05
1798	2.76e-05
1810	6.9e-06
1822	6.9e-06
1834	0
1846	6.9e-06
1858	2.76e-05
1870	3.45e-05
1882	6.21e-05
1894	2.07e-05
1906	2.07e-05
1918	2.76e-05
1930	2.07e-05
1942	1.38e-05
1954	2.07e-05
1966	4.83e-05
1978	3.45e-05
1990	1.38e-05
2002	1.38e-05
2014	2.07e-05
2026	4.83e-05
2038	6.21e-05
2050	7.59e-05
2062	7.59e-05
2074	0.000138
2086	0.0002898
2098	0.0007866
2110	0.0015387
2122	0.0015249
2134	0.0005589
2146	0.0001242
2158	9.66e-05
2170	8.28e-05
2182	8.97e-05
2194	7.59e-05
2206	8.28e-05
2218	6.9e-05
2230	7.59e-05
2242	8.28e-05
2254	6.9e-05
2266	6.9e-05
2278	8.28e-05
2290	6.21e-05
2302	5.52e-05
2314	3.45e-05
2326	2.07e-05
2338	0
2350	4.14e-05
2362	5.52e-05
2374	5.52e-05
2386	8.97e-05
2398	9.66e-05
2410	8.28e-05
2422	6.21e-05
2434	5.52e-05
2446	1.38e-05
2458	6.9e-06
2470	6.9e-06
2482	4.83e-05
2494	9.66e-05
2506	0.0001035
2518	6.9e-05
2530	0.0001035
2542	6.9e-05
2554	8.28e-05
2566	0.0001173
2578	0.0001587
2590	0.000207
2602	0.000276
2614	0.0003105
2626	0.0003519
2638	0.0004554
2650	0.0006003
2662	0.0007383
2674	0.000828
2686	0.0006555
2698	0.0006072
2710	0.0004416
2722	0.0003933
2734	0.0003036
2746	0.0003381
2758	0.0003933
2770	0.0005313
2782	0.0007659
2794	0.0010626
2806	0.0011937
2818	0.0016146
2830	0.0029463
2842	0.0073002
2854	0.0171672
2866	0.0208863
2878	0.0133929
2890	0.0100671
2902	0.0162909
2914	0.0330441
2926	0.0576978
2938	0.065136
2950	0.0354729
2962	0.0081075
2974	0.0021321
2986	0.001104
2998	0.0007866
3010	0.0006348
3022	0.0004623
3034	0.000345
3046	0.000276
3058	0.0002139
3070	0.0001656
3082	0.000207
3094	0.0002208
3106	0.0001311
3118	7.59e-05
3130	8.28e-05
3142	0.0001932
3154	0.0001863
3166	0.0001794
3178	6.21e-05
3190	3.45e-05
3202	0.0001104
3214	0.0001311
3226	0.000207
3238	0.0002898
3250	0.0003726
3262	0.0005175
3274	0.0008418
3286	0.0015249
3298	0.0033465
3310	0.0054648
3322	0.0102258
3334	0.0096462
3346	0.0026841
3358	0.0011799
3370	0.000414
3382	0.0002829
3394	0.0001725
3406	0.0001863
3418	0.0001104
3430	0.000207
3442	0.000138
3454	7.59e-05
3466	6.21e-05
3478	4.14e-05
3490	9.66e-05
3502	0.0001035
3514	6.21e-05
3526	3.45e-05
3538	3.45e-05
3550	0
3562	6.21e-05
3574	6.9e-05
3586	2.76e-05
3598	4.83e-05
3610	3.45e-05
3622	8.28e-05
3634	7.59e-05
3646	5.52e-05
3658	8.97e-05
3670	0.0001035
3682	8.97e-05
3694	0.0001173
3706	9.66e-05
3718	9.66e-05
3730	0.0001104
3742	0.0001173
3754	0.000138
3766	0.0001518
3778	0.0002001
3790	0.000138
3802	0.0001173
3814	0.0001311
3826	0.0001035
3838	7.59e-05
