Infrared Spectrum: 3-Methylquinoline-1-oxide
Formula: C 10 H 9 N O
CAS: 1873-55-8
State: gas
Origin: EPA-IR VAPOR PHASE LIBRARY
1/CM	ABSORBANCE
549.8	0.00317
559.445	0.00393
569.09	0.00556
578.734	0.01202
588.379	0.0064
598.024	0.00253
607.669	0.0018232
617.313	0.000376
626.958	0.00275
636.603	0.00566
646.248	0.00556
655.893	0.0026
665.537	0.000833
675.182	0.000725
684.827	0.000734
694.472	0.0013647
704.116	0.000946
713.761	0.00111291
723.406	0.00316
733.051	0.00589
742.695	0.01031
752.34	0.01203
761.985	0.01692
771.63	0.011
781.275	0.00503
790.919	0.00211
800.564	0.0020152
810.209	0.0054
819.854	0.0145
829.498	0.01757
839.143	0.00915
848.788	0.00305
858.433	0.0019647
868.078	0.00239
877.722	0.0016323
887.367	0.0014542
897.012	0.0014505
906.657	0.000654
916.301	0.0014719
925.946	0.0011907
935.591	0.0018488
945.236	0.00265
954.88	0.00277
964.525	0.00306
974.17	0.00572
983.815	0.01033
993.46	0.00846
1003.1	0.00367
1012.75	0.00301
1022.39	0.00445
1032.04	0.0018102
1041.68	0.00205
1051.33	0.0018427
1060.97	0.0018115
1070.62	0.000737
1080.26	0.0017488
1089.91	0.0016115
1099.55	0.0025
1109.2	0.0017695
1118.84	0.00299
1128.49	0.0045
1138.13	0.00766
1147.78	0.0086
1157.42	0.00634
1167.07	0.00392
1176.71	0.00274
1186.36	0.0015713
1196	0.000471
1205.64	0.00232
1215.29	0.0162
1224.93	0.02518
1234.58	0.02104
1244.22	0.00719
1253.87	0.00554
1263.51	0.00544
1273.16	0.00487
1282.8	0.00277
1292.45	0.00227
1302.09	0.00396
1311.74	0.01055
1321.38	0.02172
1331.03	0.02076
1340.67	0.00955
1350.32	0.01108
1359.96	0.02012
1369.61	0.03669
1379.25	0.03827
1388.9	0.02428
1398.54	0.01502
1408.18	0.01031
1417.83	0.01018
1427.47	0.00868
1437.12	0.00478
1446.76	0.00402
1456.41	0.00523
1466.05	0.00529
1475.7	0.00591
1485.34	0.00799
1494.99	0.01212
1504.63	0.01063
1514.28	0.0049
1523.92	0.00342
1533.57	0.00318
1543.21	0.0031
1552.86	0.00659
1562.5	0.01577
1572.15	0.02371
1581.79	0.01953
1591.44	0.00902
1601.08	0.0046
1610.73	0.00469
1620.37	0.00444
1630.01	0.00355
1639.66	0.00276
1649.3	0.0019642
1658.95	0.0018509
1668.59	0.00254
1678.24	0.00253
1687.88	0.00267
1697.53	0.00322
1707.17	0.00275
1716.82	0.00289
1726.46	0.00239
1736.11	0.0014186
1745.75	0.0016329
1755.4	0.0012647
1765.04	0.0012185
1774.69	0.0013244
1784.33	0.0017026
1793.98	0.0019853
1803.62	0.0018493
1813.27	0.00209
1822.91	0.00213
1832.55	0.0019335
1842.2	0.0017178
1851.84	0.0015407
1861.49	0.0015221
1871.13	0.001217
1880.78	0.0015732
1890.42	0.0014544
1900.07	0.0016054
1909.71	0.0020349
1919.36	0.00211
1929	0.0022
1938.65	0.00222
1948.29	0.0019698
1957.94	0.00209
1967.58	0.0019295
1977.23	0.0016266
1986.87	0.0017169
1996.52	0.001573
2006.16	0.0012762
2015.81	0.0014928
2025.45	0.0017062
2035.1	0.0014955
2044.74	0.00112838
2054.38	0.0013575
2064.03	0.0014337
2073.67	0.0011888
2083.32	0.0016343
2092.96	0.0016379
2102.61	0.0013129
2112.25	0.001436
2121.9	0.0013232
2131.54	0.0013417
2141.19	0.0013655
2150.83	0.0015214
2160.48	0.0015078
2170.12	0.0014909
2179.77	0.0015557
2189.41	0.0015569
2199.06	0.0015909
2208.7	0.0015551
2218.35	0.0016825
2227.99	0.0015954
2237.64	0.0017144
2247.28	0.00211
2256.92	0.0017084
2266.57	0.0017153
2276.21	0.001644
2285.86	0.0015979
2295.5	0.0018206
2305.15	0.0015944
2314.79	0.00206
2324.44	0.00218
2334.08	0.0019389
2343.73	0.0017608
2353.37	0.00231
2363.02	0.0020274
2372.66	0.0019132
2382.31	0.0017042
2391.95	0.0017259
2401.6	0.0018748
2411.24	0.0017215
2420.89	0.0017911
2430.53	0.0021
2440.18	0.0019959
2449.82	0.0019325
2459.47	0.0019924
2469.11	0.0020112
2478.75	0.001658
2488.4	0.0020016
2498.04	0.0017542
2507.69	0.0018982
2517.33	0.0020006
2526.98	0.00206
2536.62	0.00209
2546.27	0.0019052
2555.91	0.0017492
2565.56	0.0018467
2575.2	0.0020087
2584.85	0.00215
2594.49	0.00223
2604.14	0.00228
2613.78	0.0019213
2623.43	0.0014122
2633.07	0.0018202
2642.72	0.001335
2652.36	0.0014929
2662.01	0.0016067
2671.65	0.0014375
2681.29	0.001979
2690.94	0.0017824
2700.58	0.001911
2710.23	0.0016278
2719.87	0.0017954
2729.52	0.00224
2739.16	0.0017945
2748.81	0.0019685
2758.45	0.0018161
2768.1	0.0017225
2777.74	0.0019624
2787.39	0.00208
2797.03	0.0018023
2806.68	0.0018301
2816.32	0.00207
2825.97	0.0015851
2835.61	0.0018919
2845.26	0.00239
2854.9	0.00259
2864.55	0.0041
2874.19	0.00415
2883.84	0.00415
2893.48	0.00341
2903.12	0.00371
2912.77	0.00412
2922.41	0.00554
2932.06	0.00914
2941.7	0.00816
2951.35	0.00591
2960.99	0.0044
2970.64	0.00397
2980.28	0.004
2989.93	0.00406
2999.57	0.00376
3009.22	0.00367
3018.86	0.0039
3028.51	0.00447
3038.15	0.00502
3047.8	0.00825
3057.44	0.01129
3067.09	0.01169
3076.73	0.01061
3086.38	0.00689
3096.02	0.0052
3105.67	0.00277
3115.31	0.00248
3124.95	0.0018632
3134.6	0.0019441
3144.24	0.0014918
3153.89	0.00212
3163.53	0.0018014
3173.18	0.0013387
3182.82	0.00110758
3192.47	0.0022
3202.11	0.0013683
3211.76	0.0014145
3221.4	0.00111888
3231.05	0.001181
3240.69	0.0011848
3250.34	0.001391
3259.98	0.0014755
3269.63	0.000763
3279.27	0.0020416
3288.92	0.0014554
3298.56	0.0017613
3308.21	0.0012853
3317.85	0.0009847
3327.49	0.0014822
3337.14	0.0015974
3346.78	0.000498
3356.43	0.0013105
3366.07	0.0013329
3375.72	0.0011829
3385.36	0.0013563
3395.01	0.0010801
3404.65	0.0015254
3414.3	0.0014565
3423.94	0.000671
3433.59	0.000721
3443.23	0.001415
3452.88	0.0012101
3462.52	0.0011847
3472.17	0.0013987
3481.81	0.0016417
3491.46	0.0012787
3501.1	0.0013649
3510.75	0.001342
3520.39	0.0012972
3530.04	0.0009814
3539.68	0.0013509
3549.32	0.0010094
3558.97	0.00108576
3568.61	0.0013822
3578.26	0.000502
3587.9	0.001369
3597.55	0.00110489
3607.19	0.00109926
3616.84	0.0012216
3626.48	0.00093
3636.13	0.0013498
3645.77	0.0011969
3655.42	0.000747
3665.06	0.00061
3674.71	0.0013589
3684.35	0.0014087
3694	0.000932
3703.64	0.0014203
3713.29	0.0013657
3722.93	0.0015373
3732.58	0.0013494
3742.22	0.0018188
3751.86	0.0013373
3761.51	0.00091
3771.15	0.0013896
3780.8	0.0018804
3790.44	0.0015237
3800.09	0.001329
3809.73	0.0014451
3819.38	0.000936
3829.02	0.0015571
3838.67	0.0010376
3848.31	0.001496
3857.96	0.0015011
3867.6	0.0014757
3877.25	0.0017007
3886.89	0.002049
3896.54	0.0009831
3906.18	0.00072
3915.83	0.0012637
3925.47	0.0014048
3935.12	0.0012085
3944.76	0.0014558
3954.41	0.0017402
3964.05	0.0015385
3973.69	0.002019
3983.34	0.0019202
3992.98	0.0016
