Infrared Spectrum: 3-Ethoxy-1,2-propanediol
Formula: C 5 H 12 O 3
CAS: 1874-62-0
State: gas
Origin: EPA-IR VAPOR PHASE LIBRARY
1/CM	ABSORBANCE
549.9	0.004561
559.547	0.004741
569.193	0.004661
578.84	0.004241
588.486	0.003461
598.133	0.003121
607.779	0.002801
617.426	0.002581
627.072	0.002841
636.719	0.003221
646.365	0.003801
656.012	0.004531
665.658	0.004561
675.305	0.003691
684.951	0.002711
694.598	0.002231
704.245	0.001981
713.891	0.001901
723.538	0.001961
733.184	0.001951
742.831	0.002071
752.477	0.001991
762.124	0.002031
771.77	0.002071
781.417	0.002211
791.063	0.002381
800.71	0.002521
810.356	0.003161
820.003	0.004041
829.649	0.005001
839.296	0.005851
848.943	0.006271
858.589	0.006401
868.236	0.006721
877.882	0.007211
887.529	0.006961
897.175	0.006741
906.822	0.007351
916.468	0.008571
926.115	0.009131
935.761	0.008801
945.408	0.008251
955.054	0.008361
964.701	0.009681
974.347	0.011871
983.994	0.013821
993.64	0.015581
1003.29	0.018301
1012.93	0.023481
1022.58	0.031981
1032.23	0.041231
1041.87	0.047631
1051.52	0.052341
1061.17	0.053451
1070.81	0.050021
1080.46	0.046601
1090.11	0.049321
1099.75	0.057851
1109.4	0.070381
1119.05	0.084141
1128.69	0.087541
1138.34	0.068751
1147.99	0.041861
1157.63	0.026551
1167.28	0.021791
1176.92	0.019331
1186.57	0.016721
1196.22	0.014341
1205.86	0.013351
1215.51	0.013011
1225.16	0.013291
1234.8	0.014041
1244.45	0.014491
1254.1	0.014231
1263.74	0.013261
1273.39	0.012451
1283.04	0.012191
1292.68	0.012371
1302.33	0.012561
1311.98	0.012961
1321.62	0.014141
1331.27	0.015331
1340.92	0.016181
1350.56	0.016911
1360.21	0.016591
1369.86	0.017511
1379.5	0.020151
1389.15	0.021031
1398.79	0.018731
1408.44	0.015781
1418.09	0.012091
1427.73	0.008951
1437.38	0.007281
1447.03	0.007401
1456.67	0.008761
1466.32	0.009211
1475.97	0.007511
1485.61	0.005351
1495.26	0.003611
1504.91	0.002401
1514.55	0.001751
1524.2	0.0014043
1533.85	0.001188
1543.49	0.0009261
1553.14	0.0008917
1562.79	0.0007809
1572.43	0.000731
1582.08	0.0006519
1591.73	0.00056647
1601.37	0.00058569
1611.02	0.000539358
1620.67	0.0005161
1630.31	0.0004796
1639.96	0.0005072
1649.6	0.000415
1659.25	0.0004564
1668.9	0.000416
1678.54	0.000344
1688.19	0.000354
1697.84	0.000299
1707.48	0.000281
1717.13	0.000357
1726.78	0.000258
1736.42	0.000294
1746.07	0.000314
1755.72	0.000295
1765.36	0.000271
1775.01	0.000228
1784.66	0.000232
1794.3	0.000215
1803.95	0.000209
1813.6	0.000193
1823.24	0.000208
1832.89	0.000211
1842.54	0.000227
1852.18	0.000257
1861.83	0.000236
1871.47	0.00023
1881.12	0.000297
1890.77	0.000355
1900.41	0.000356
1910.06	0.000395
1919.71	0.0004578
1929.35	0.000508
1939	0.00057929
1948.65	0.0006573
1958.29	0.000733
1967.94	0.000756
1977.59	0.0007898
1987.23	0.0007882
1996.88	0.0007722
2006.53	0.0008149
2016.17	0.0007069
2025.82	0.00061629
2035.47	0.00057321
2045.11	0.0004836
2054.76	0.0004938
2064.41	0.0004985
2074.05	0.0004812
2083.7	0.0005049
2093.35	0.00059346
2102.99	0.00059128
2112.64	0.0006599
2122.28	0.0006681
2131.93	0.0006139
2141.58	0.000540328
2151.22	0.0005114
2160.87	0.0005027
2170.52	0.000399
2180.16	0.000419
2189.81	0.000409
2199.46	0.000422
2209.1	0.000403
2218.75	0.0004324
2228.4	0.0004495
2238.04	0.0004493
2247.69	0.0004859
2257.34	0.0005103
2266.98	0.0004464
2276.63	0.0004377
2286.28	0.000391
2295.92	0.000422
2305.57	0.000374
2315.22	0.00027
2324.86	0.000285
2334.51	0.000254
2344.16	0.000319
2353.8	0.000343
2363.45	0.00034
2373.09	0.000341
2382.74	0.000382
2392.39	0.00043
2402.03	0.000419
2411.68	0.0004631
2421.33	0.000418
2430.97	0.000421
2440.62	0.000453
2450.27	0.000418
2459.91	0.0004447
2469.56	0.000356
2479.21	0.000407
2488.85	0.000415
2498.5	0.000403
2508.15	0.0004359
2517.79	0.000411
2527.44	0.000371
2537.09	0.000419
2546.73	0.0004404
2556.38	0.0004611
2566.03	0.000476
2575.67	0.00062021
2585.32	0.00061828
2594.96	0.000687
2604.61	0.000767
2614.26	0.0008163
2623.9	0.0008764
2633.55	0.0009261
2643.2	0.0009604
2652.84	0.0010816
2662.49	0.0011715
2672.14	0.0013041
2681.78	0.0014878
2691.43	0.001741
2701.08	0.001961
2710.72	0.002301
2720.37	0.002631
2730.02	0.002901
2739.66	0.003201
2749.31	0.003441
2758.96	0.003861
2768.6	0.004411
2778.25	0.004951
2787.9	0.005761
2797.54	0.006551
2807.19	0.007491
2816.84	0.008591
2826.48	0.010241
2836.13	0.012991
2845.77	0.018221
2855.42	0.026001
2865.07	0.036241
2874.71	0.046041
2884.36	0.050201
2894.01	0.047991
2903.65	0.043671
2913.3	0.040841
2922.95	0.041131
2932.59	0.044411
2942.24	0.045081
2951.89	0.040371
2961.53	0.033981
2971.18	0.032851
2980.83	0.032271
2990.47	0.025241
3000.12	0.014361
3009.77	0.008031
3019.41	0.005171
3029.06	0.003641
3038.71	0.002781
3048.35	0.001941
3058	0.001541
3067.64	0.0011639
3077.29	0.0008534
3086.94	0.0006968
3096.58	0.00062723
3106.23	0.0004974
3115.88	0.000423
3125.52	0.000289
3135.17	0.000282
3144.82	0.000283
3154.46	0.000262
3164.11	0.000235
3173.76	0.00015
3183.4	0.000226
3193.05	0.000248
3202.7	0.000174
3212.34	0.000303
3221.99	0.000284
3231.64	0.00014
3241.28	4.5e-05
3250.93	0.00033
3260.58	0.000257
3270.22	3.9e-05
3279.87	0.000165
3289.52	0.000263
3299.16	0.000114
3308.81	0.000196
3318.45	0.00013
3328.1	0.000275
3337.75	0.000167
3347.39	0.000199
3357.04	0.00028
3366.69	0.000264
3376.33	0.0004702
3385.98	0.000195
3395.63	0.0004753
3405.27	0.0004926
3414.92	0.0005144
3424.57	0.000538054
3434.21	0.0004692
3443.86	0.00062827
3453.51	0.0006708
3463.15	0.0006984
3472.8	0.0007054
3482.45	0.0007685
3492.09	0.0009122
3501.74	0.0011012
3511.39	0.0012878
3521.03	0.0013818
3530.68	0.001671
3540.33	0.001961
3549.97	0.002711
3559.62	0.004261
3569.26	0.005981
3578.91	0.007731
3588.56	0.009351
3598.2	0.011681
3607.85	0.014831
3617.5	0.017661
3627.14	0.017331
3636.79	0.013821
3646.44	0.010011
3656.08	0.007961
3665.73	0.007061
3675.38	0.006131
3685.02	0.005011
3694.67	0.003441
3704.32	0.002201
3713.96	0.001651
3723.61	0.0014489
3733.26	0.0011689
3742.9	0.0010514
3752.55	0.0009071
3762.2	0.0008361
3771.84	0.0008269
3781.49	0.0007654
3791.13	0.0006313
3800.78	0.0006964
3810.43	0.0006613
3820.07	0.00058777
3829.72	0.0006914
3839.37	0.0004946
3849.01	0.0006953
3858.66	0.0006731
3868.31	0.0006823
3877.95	0.00054804
3887.6	0.000535271
3897.25	0.00059874
3906.89	0.0005916
3916.54	0.00061503
3926.19	0.00052739
3935.83	0.00057819
3945.48	0.00062792
3955.13	0.0006655
3964.77	0.0008108
3974.42	0.0007365
3984.07	0.0008253
3993.71	0.0009717
