Infrared Spectrum: PURINE, 2-AMINO-6-BENZYLTHIO-
Formula: C12 H11 N5 S
CAS: 1874-58-4
State: SOLID (0.8 mg / 650 mg KBr DISC)
Class: COBLENTZ III
Instrument: PERKIN-ELMER 21 (GRATING)
Instrument parameters: FILTER CHANGE AT 1075 CM^-^1
Sampling: TRANSMISSION
Resolution: 2
Origin: SOUTHERN RESEARCH INSTITUTE
1/CM	TRANSMITTANCE
614.167	0.862
623.098	0.8163
632.03	0.7934
640.961	0.787
649.893	0.8775
658.824	0.899
667.755	0.8868
676.687	0.8673
685.618	0.7657
694.55	0.644
703.481	0.537
712.413	0.7102
721.344	0.787
730.275	0.7413
739.207	0.79
748.138	0.7879
757.07	0.7621
766.001	0.7071
774.932	0.7012
783.864	0.6854
792.795	0.635
801.727	0.7084
810.658	0.6756
819.589	0.617
828.521	0.5464
837.452	0.5325
846.384	0.6066
855.315	0.6387
864.247	0.6418
873.178	0.6432
882.109	0.695
891.041	0.6763
899.972	0.6195
908.904	0.3788
917.835	0.2143
926.766	0.5308
935.698	0.7333
944.629	0.7314
953.561	0.729
962.492	0.7523
971.423	0.7768
980.355	0.7846
989.286	0.7837
998.218	0.7768
1007.15	0.77
1016.08	0.7549
1025.01	0.6793
1033.94	0.6104
1042.87	0.7527
1051.81	0.763
1060.74	0.7461
1069.67	0.7493
1078.6	0.7608
1087.53	0.758
1096.46	0.7511
1105.39	0.74
1114.33	0.739
1123.26	0.736
1132.19	0.7244
1141.12	0.7019
1150.05	0.7373
1158.98	0.75
1167.91	0.7501
1176.85	0.7301
1185.78	0.7097
1194.71	0.6488
1203.64	0.735
1212.57	0.73
1221.5	0.7209
1230.43	0.702
1239.37	0.6127
1248.3	0.5766
1257.23	0.4777
1266.16	0.3729
1275.09	0.6115
1284.02	0.6781
1292.95	0.679
1301.89	0.6136
1310.82	0.4596
1319.75	0.624
1328.68	0.717
1337.61	0.7075
1346.54	0.631
1355.47	0.5
1364.41	0.3584
1373.34	0.5449
1382.27	0.5817
1391.2	0.4592
1400.13	0.3375
1409.06	0.5902
1417.99	0.6611
1426.93	0.6557
1435.86	0.6002
1444.79	0.5839
1453.72	0.412
1462.65	0.216
1471.58	0.4557
1480.51	0.5223
1489.45	0.5879
1498.38	0.4229
1507.31	0.2003
1516.24	0.5075
1525.17	0.564
1534.1	0.5515
1543.03	0.4397
1551.97	0.2151
1560.9	0.0957
1569.83	0.082
1578.76	0.21
1587.69	0.407
1596.62	0.3022
1605.55	0.1723
1614.49	0.1057
1623.42	0.1472
1632.35	0.252
1641.28	0.4718
1650.21	0.5765
1659.14	0.6509
1668.07	0.7088
1677.01	0.7319
1685.94	0.755
1694.87	0.755
1703.8	0.764
1712.73	0.765
1721.66	0.7591
1730.59	0.7564
1739.52	0.756
1748.46	0.758
1757.39	0.7632
1766.32	0.7776
1775.25	0.7835
1784.18	0.79
1793.11	0.79
1802.04	0.793
1810.98	0.7977
1819.91	0.8
1828.84	0.793
1837.77	0.792
1846.7	0.791
1855.63	0.792
1864.56	0.793
1873.5	0.796
1882.43	0.798
1891.36	0.793
1900.29	0.79
1909.22	0.797
1918.15	0.796
1927.08	0.7926
1936.02	0.79
1944.95	0.786
1953.88	0.783
1962.81	0.7842
1971.74	0.792
1980.67	0.796
1989.6	0.792
1998.54	0.795
2007.47	0.7922
2016.4	0.782
2025.33	0.783
2034.26	0.782
2043.19	0.783
2052.12	0.782
2061.06	0.781
2069.99	0.779
2078.92	0.7771
2087.85	0.77
2096.78	0.769
2105.71	0.7653
2114.64	0.767
2123.58	0.764
2132.51	0.763
2141.44	0.76
2150.37	0.76
2159.3	0.76
2168.23	0.759
2177.16	0.759
2186.1	0.7563
2195.03	0.754
2203.96	0.7491
2212.89	0.7452
2221.82	0.7413
2230.75	0.74
2239.68	0.7458
2248.62	0.746
2257.55	0.7441
2266.48	0.741
2275.41	0.727
2284.34	0.727
2293.27	0.727
2302.2	0.7252
2311.14	0.7221
2320.07	0.7171
2329	0.713
2337.93	0.711
2346.86	0.711
2355.79	0.707
2364.72	0.703
2373.66	0.702
2382.59	0.699
2391.52	0.6942
2400.45	0.692
2409.38	0.69
2418.31	0.6872
2427.24	0.6793
2436.18	0.671
2445.11	0.6662
2454.04	0.6602
2462.97	0.657
2471.9	0.6533
2480.83	0.6502
2489.76	0.638
2498.69	0.634
2507.63	0.632
2516.56	0.6231
2525.49	0.605
2534.42	0.5973
2543.35	0.594
2552.28	0.5891
2561.21	0.5813
2570.15	0.5555
2579.08	0.5607
2588.01	0.571
2596.94	0.572
2605.87	0.571
2614.8	0.5681
2623.73	0.5612
2632.67	0.5483
2641.6	0.539
2650.53	0.535
2659.46	0.534
2668.39	0.53
2677.32	0.5111
2686.25	0.501
2695.19	0.4871
2704.12	0.4724
2713.05	0.468
2721.98	0.4663
2730.91	0.4613
2739.84	0.458
2748.77	0.458
2757.71	0.458
2766.64	0.4511
2775.57	0.4279
2784.5	0.417
2793.43	0.414
2802.36	0.416
2811.29	0.418
2820.23	0.424
2829.16	0.4359
2838.09	0.4518
2847.02	0.458
2855.95	0.4871
2864.88	0.5168
2873.81	0.533
2882.75	0.53
2891.68	0.5262
2900.61	0.5173
2909.54	0.506
2918.47	0.4963
2927.4	0.4792
2936.33	0.4663
2945.27	0.4563
2954.2	0.4442
2963.13	0.438
2972.06	0.436
2980.99	0.433
2989.92	0.435
2998.85	0.4417
3007.79	0.4519
3016.72	0.4697
3025.65	0.4817
3034.58	0.488
3043.51	0.4882
3052.44	0.486
3061.37	0.4791
3070.31	0.4475
3079.24	0.4193
3088.17	0.41
3097.1	0.412
3106.03	0.4168
3114.96	0.4219
3123.89	0.4409
3132.83	0.4518
3141.76	0.464
3150.69	0.484
3159.62	0.487
3168.55	0.4823
3177.48	0.4721
3186.41	0.4631
3195.35	0.4658
3204.28	0.4767
3213.21	0.5017
3222.14	0.516
3231.07	0.5339
3240	0.5409
3248.93	0.5482
3257.86	0.5413
3266.8	0.5331
3275.73	0.52
3284.66	0.5122
3293.59	0.5001
3302.52	0.4786
3311.45	0.4633
3320.38	0.4364
3329.32	0.4171
3338.25	0.412
3347.18	0.4185
3356.11	0.4457
3365.04	0.442
3373.97	0.4363
3382.9	0.4347
3391.84	0.4417
3400.77	0.4529
3409.7	0.4747
3418.63	0.5017
3427.56	0.5108
3436.49	0.5269
3445.42	0.5309
3454.36	0.531
3463.29	0.527
3472.22	0.5173
3481.15	0.5103
3490.08	0.4929
3499.01	0.475
3507.94	0.4829
3516.88	0.4888
3525.81	0.5067
3534.74	0.5286
3543.67	0.5568
3552.6	0.6019
3561.53	0.6287
3570.46	0.6459
3579.4	0.6483
3588.33	0.6543
3597.26	0.669
3606.19	0.6777
3615.12	0.6838
3624.05	0.692
3632.98	0.694
3641.92	0.701
3650.85	0.704
3659.78	0.7079
3668.71	0.709
3677.64	0.709
3686.57	0.709
3695.5	0.7107
3704.44	0.711
3713.37	0.711
3722.3	0.711
3731.23	0.711
3740.16	0.711
3749.09	0.712
3758.02	0.712
3766.96	0.711
3775.89	0.711
3784.82	0.709
3793.75	0.709
3802.68	0.709
3811.61	0.708
3820.54	0.707
3829.48	0.704
3838.41	0.703
3847.34	0.702
3856.27	0.701
3865.2	0.701
3874.13	0.701
3883.06	0.701
3892	0.6971
3900.93	0.697
3909.86	0.695
3918.79	0.695
3927.72	0.694
3936.65	0.692
3945.58	0.6882
3954.52	0.687
3963.45	0.6853
3972.38	0.685
3981.31	0.685
3990.24	0.687
3999.17	0.687
4008.1	0.688
4017.03	0.688
4025.97	0.6882
