Infrared Spectrum: 2-Furoic acid, 5-nitro-, methyl ester
Formula: C6 H5 N O5
CAS: 1874-23-3
State: SOLUTION (7% CHCl3 FOR 2.5-12.5 MICRON) VS SOLVENT
Class: COBLENTZ
Instrument: PERKIN-ELMER 21 (GRATING)
Instrument parameters: FILTER AT ABOUT 10 MICRONS
Path length: 0.010 CM
Resolution: 2
Origin: ABBOTT LABORATORIES
1/CM	TRANSMITTANCE
797	0.7066
806	0.5721
815	0.3261
824	0.4302
833	0.8488
842	0.9516
851	0.9432
860	0.9223
869	0.9196
878	0.915
887	0.9112
896	0.9131
905	0.8941
914	0.7508
923	0.6596
932	0.9387
941	0.9011
950	0.8679
959	0.7948
968	0.4185
977	0.497
986	0.5694
995	0.8331
1004	0.7542
1013	0.2799
1022	0.7275
1031	0.8594
1040	0.8768
1049	0.8762
1058	0.8693
1067	0.8565
1076	0.8371
1085	0.8257
1094	0.8075
1103	0.7617
1112	0.657
1121	0.3294
1130	0.2692
1139	0.4448
1148	0.7685
1157	0.8064
1166	0.7809
1175	0.6047
1184	0.4089
1193	0.6051
1202	0.6854
1211	0.6743
1220	0.6627
1229	0.6611
1238	0.5292
1247	0.5363
1256	0.4206
1265	0.1063
1274	0.0054
1283	0.0087
1292	0.0519
1301	0.3031
1310	0.4884
1319	0.5129
1328	0.5403
1337	0.2663
1346	0.0097
1355	0.1628
1364	0.5201
1373	0.6776
1382	0.4291
1391	0.3114
1400	0.6274
1409	0.7703
1418	0.755
1427	0.4156
1436	0.4259
1445	0.6021
1454	0.6688
1463	0.7425
1472	0.7717
1481	0.6842
1490	0.4632
1499	0.5818
1508	0.6665
1517	0.4752
1526	0.246
1535	0.0592
1544	0.0484
1553	0.3628
1562	0.6263
1571	0.5918
1580	0.3775
1589	0.4525
1598	0.7424
1607	0.7651
1616	0.7582
1625	0.7603
1634	0.7808
1643	0.8065
1652	0.8195
1661	0.8221
1670	0.8183
1679	0.7936
1688	0.7594
1697	0.709
1706	0.5612
1715	0.2925
1724	0.0334
1733	0.0266
1742	0.0943
1751	0.3047
1760	0.5129
1769	0.7147
1778	0.752
1787	0.7832
1796	0.8775
1805	0.8853
1814	0.8849
1823	0.8837
1832	0.8868
1841	0.8989
1850	0.9195
1859	0.9222
1868	0.9221
1877	0.922
1886	0.9221
1895	0.9223
1904	0.9228
1913	0.9235
1922	0.9242
1931	0.925
1940	0.9258
1949	0.927
1958	0.9276
1967	0.9283
1976	0.929
1985	0.9297
1994	0.9301
2003	0.9304
2012	0.9307
2021	0.9308
2030	0.9306
2039	0.9297
2048	0.9282
2057	0.9269
2066	0.927
2075	0.9271
2084	0.9271
2093	0.9266
2102	0.927
2111	0.9281
2120	0.9291
2129	0.9326
2138	0.9367
2147	0.9373
2156	0.9378
2165	0.9381
2174	0.9385
2183	0.9383
2192	0.9382
2201	0.938
2210	0.9383
2219	0.9388
2228	0.9399
2237	0.942
2246	0.944
2255	0.9459
2264	0.9461
2273	0.9451
2282	0.9448
2291	0.9447
2300	0.9445
2309	0.945
2318	0.9463
2327	0.9477
2336	0.9496
2345	0.9531
2354	0.9576
2363	0.9625
2372	0.9695
2381	0.9694
2390	0.9632
2399	0.9567
2408	0.9501
2417	0.9435
2426	0.9377
2435	0.9335
2444	0.9307
2453	0.9281
2462	0.9266
2471	0.925
2480	0.924
2489	0.9231
2498	0.9222
2507	0.9215
2516	0.9219
2525	0.9233
2534	0.926
2543	0.9299
2552	0.932
2561	0.9322
2570	0.9309
2579	0.9279
2588	0.9239
2597	0.9188
2606	0.9138
2615	0.9089
2624	0.9044
2633	0.9006
2642	0.8969
2651	0.8953
2660	0.8942
2669	0.8932
2678	0.8925
2687	0.8919
2696	0.8899
2705	0.8876
2714	0.8855
2723	0.8844
2732	0.8835
2741	0.8842
2750	0.885
2759	0.8866
2768	0.8884
2777	0.8894
2786	0.8901
2795	0.8909
2804	0.8915
2813	0.8918
2822	0.892
2831	0.8921
2840	0.8923
2849	0.8923
2858	0.8921
2867	0.892
2876	0.8925
2885	0.8929
2894	0.8923
2903	0.8892
2912	0.8816
2921	0.8721
2930	0.8572
2939	0.8374
2948	0.8397
2957	0.8445
2966	0.8461
2975	0.8457
2984	0.8428
2993	0.8381
3002	0.8343
3011	0.8334
3020	0.8383
3029	0.8445
3038	0.8465
3047	0.8478
3056	0.8481
3065	0.8478
3074	0.8468
3083	0.8355
3092	0.8174
3101	0.7993
3110	0.7815
3119	0.7636
3128	0.7549
3137	0.766
3146	0.8014
3155	0.8367
3164	0.8717
3173	0.8999
3182	0.9011
3191	0.9019
3200	0.9024
3209	0.9027
3218	0.9029
3227	0.903
3236	0.9031
3245	0.9033
3254	0.9034
3263	0.9036
3272	0.9036
3281	0.9034
3290	0.9033
3299	0.9032
3308	0.9028
3317	0.9024
3326	0.902
3335	0.9015
3344	0.901
3353	0.9004
3362	0.8997
3371	0.899
3380	0.8984
3389	0.8978
3398	0.8972
3407	0.8967
3416	0.8961
3425	0.8957
3434	0.896
3443	0.8981
3452	0.9015
3461	0.905
3470	0.9083
3479	0.911
3488	0.9135
3497	0.9152
3506	0.9169
3515	0.9185
3524	0.9196
3533	0.9204
3542	0.9212
3551	0.922
3560	0.9228
3569	0.9236
3578	0.9243
3587	0.925
3596	0.9257
3605	0.9264
3614	0.927
3623	0.9271
3632	0.9272
3641	0.9273
3650	0.9274
3659	0.9274
3668	0.9275
3677	0.9272
3686	0.9268
3695	0.9264
3704	0.9259
3713	0.9255
3722	0.9252
3731	0.9247
3740	0.9242
3749	0.9237
3758	0.9232
3767	0.9227
3776	0.9223
3785	0.9218
3794	0.9213
3803	0.9209
3812	0.9205
3821	0.92
3830	0.9196
3839	0.9191
3848	0.9188
3857	0.9183
3866	0.9179
3875	0.9175
3884	0.9171
3893	0.9168
3902	0.9165
3911	0.9163
3920	0.916
3929	0.9157
3938	0.9155
3947	0.9152
3956	0.9149
3965	0.9148
3974	0.9145
3983	0.9142
3992	0.914
