Infrared Spectrum: N,N-Dimethylbenzylamine hydrochloride
Formula: C9 H14 Cl N
CAS: 1875-92-9
State: SOLID (SPLIT MULL), FLUOROLUBE FOR 3800-1330 CM^-^1, NUJOL FOR 1330-400 CM^-^1
Class: COBLENTZ III
Instrument: BECKMAN IR-9 (GRATING)
Instrument parameters: ORDER CHANGES: 670, 1200, 2000 CM^-^1
Sampling: TRANSMISSION
Resolution: 2
Origin: DOW CHEMICAL COMPANY
1/CM	TRANSMITTANCE
3800	0.6209
3791	0.6224
3782	0.624
3773	0.6256
3764	0.6274
3755	0.6293
3746	0.631
3737	0.6329
3728	0.6347
3719	0.6364
3710	0.6381
3701	0.6394
3692	0.6408
3683	0.6424
3674	0.6442
3665	0.6436
3656	0.6432
3647	0.643
3638	0.644
3629	0.645
3620	0.6464
3611	0.6475
3602	0.6474
3593	0.6414
3584	0.6482
3575	0.6511
3566	0.6512
3557	0.6514
3548	0.6515
3539	0.6517
3530	0.6514
3521	0.6511
3512	0.6508
3503	0.6505
3494	0.6503
3485	0.6503
3476	0.6503
3467	0.6503
3458	0.6505
3449	0.6507
3440	0.6521
3431	0.6547
3422	0.6574
3413	0.6598
3404	0.6619
3395	0.6642
3386	0.6664
3377	0.6678
3368	0.6692
3359	0.669
3350	0.6668
3341	0.6701
3332	0.6761
3323	0.68
3314	0.6826
3305	0.6844
3296	0.6856
3287	0.6865
3278	0.6901
3269	0.6948
3260	0.698
3251	0.7006
3242	0.7025
3233	0.7046
3224	0.7061
3215	0.7076
3206	0.7088
3197	0.7095
3188	0.7101
3179	0.7098
3170	0.7096
3161	0.7074
3152	0.6995
3143	0.6951
3134	0.693
3125	0.6908
3116	0.6884
3107	0.6867
3098	0.6847
3089	0.6771
3080	0.636
3071	0.6421
3062	0.6556
3053	0.6561
3044	0.6328
3035	0.6227
3026	0.6289
3017	0.3384
3008	0.4477
2999	0.586
2990	0.5376
2981	0.5119
2972	0.478
2963	0.3976
2954	0.3953
2945	0.4016
2936	0.4304
2927	0.4497
2918	0.4539
2909	0.456
2900	0.461
2891	0.4819
2882	0.5103
2873	0.521
2864	0.5268
2855	0.5667
2846	0.616
2837	0.636
2828	0.634
2819	0.6073
2810	0.6352
2801	0.6478
2792	0.6426
2783	0.6325
2774	0.6156
2765	0.5962
2756	0.5809
2747	0.5698
2738	0.5527
2729	0.5302
2720	0.5087
2711	0.4644
2702	0.4235
2693	0.3822
2684	0.344
2675	0.2962
2666	0.2093
2657	0.1981
2648	0.1749
2639	0.1022
2630	0.1119
2621	0.1155
2612	0.0982
2603	0.0648
2594	0.0574
2585	0.0353
2576	0.0351
2567	0.0686
2558	0.1175
2549	0.1303
2540	0.1192
2531	0.0764
2522	0.122
2513	0.1754
2504	0.1609
2495	0.0577
2486	0.0615
2477	0.1091
2468	0.2137
2459	0.235
2450	0.259
2441	0.3164
2432	0.3326
2423	0.372
2414	0.4018
2405	0.4104
2396	0.4155
2387	0.4231
2378	0.491
2369	0.6598
2360	0.6661
2351	0.6772
2342	0.6888
2333	0.6888
2324	0.6918
2315	0.6958
2306	0.7028
2297	0.7108
2288	0.72
2279	0.7294
2270	0.7385
2261	0.7474
2252	0.7561
2243	0.7651
2234	0.7743
2225	0.7835
2216	0.7928
2207	0.8003
2198	0.8075
2189	0.8125
2180	0.8169
2171	0.8208
2162	0.8214
2153	0.8112
2144	0.8136
2135	0.8248
2126	0.834
2117	0.8416
2108	0.8465
2099	0.8511
2090	0.856
2081	0.8589
2072	0.8593
2063	0.8593
2054	0.8599
2045	0.8607
2036	0.8614
2027	0.8612
2018	0.8651
2009	0.8665
2000	0.8598
1991	0.8602
1982	0.8575
1973	0.8561
1964	0.8611
1955	0.8663
1946	0.8739
1937	0.8751
1928	0.8718
1919	0.8718
1910	0.8631
1901	0.8647
1892	0.8777
1883	0.8866
1874	0.8904
1865	0.8931
1856	0.8946
1847	0.8871
1838	0.8792
1829	0.8768
1820	0.8787
1811	0.885
1802	0.888
1793	0.8875
1784	0.8778
1775	0.8754
1766	0.8749
1757	0.8708
1748	0.8824
1739	0.8848
1730	0.8849
1721	0.8654
1712	0.8593
1703	0.8704
1694	0.8828
1685	0.8842
1676	0.8844
1667	0.8896
1658	0.8938
1649	0.8967
1640	0.8983
1631	0.8965
1622	0.8814
1613	0.8528
1604	0.8257
1595	0.8383
1586	0.8204
1577	0.8514
1568	0.8483
1559	0.8307
1550	0.8246
1541	0.841
1532	0.848
1523	0.8581
1514	0.8616
1505	0.7412
1496	0.6989
1487	0.5929
1478	0.3918
1469	0.4219
1460	0.398
1451	0.4347
1442	0.5205
1433	0.6237
1424	0.37
1415	0.6065
1406	0.7494
1397	0.7821
1388	0.795
1379	0.7301
1370	0.7685
1361	0.8025
1352	0.7875
1343	0.7606
1334	0.784
1325	0.7989
1316	0.8081
1307	0.7736
1298	0.7974
1289	0.775
1280	0.6669
1271	0.7835
1262	0.833
1253	0.8443
1244	0.8412
1235	0.8435
1226	0.8421
1217	0.7001
1208	0.8137
1199	0.8297
1190	0.8285
1181	0.7682
1172	0.6656
1163	0.7934
1154	0.7884
1145	0.6718
1136	0.8137
1127	0.8325
1118	0.8366
1109	0.8373
1100	0.8375
1091	0.8355
1082	0.8233
1073	0.7415
1064	0.8208
1055	0.8332
1046	0.8364
1037	0.8283
1028	0.7818
1019	0.5456
1010	0.8138
1001	0.8404
992	0.8502
983	0.8515
974	0.8358
965	0.8171
956	0.6384
947	0.6368
938	0.5868
929	0.8044
920	0.6848
911	0.8264
902	0.861
893	0.872
884	0.8762
875	0.8786
866	0.8836
857	0.8791
848	0.8614
839	0.8713
830	0.835
821	0.8781
812	0.8853
803	0.8849
794	0.8816
785	0.874
776	0.8558
767	0.8227
758	0.7345
749	0.4303
740	0.3454
731	0.7949
722	0.7911
713	0.8076
704	0.655
695	0.1998
686	0.8065
677	0.8336
668	0.8621
659	0.8952
650	0.9025
641	0.9046
632	0.9056
623	0.9007
614	0.9008
605	0.8995
596	0.7508
587	0.8953
578	0.9041
569	0.9055
560	0.9013
551	0.9011
542	0.8973
533	0.8916
524	0.8821
515	0.8673
506	0.8427
497	0.5788
488	0.7818
479	0.8209
470	0.8075
461	0.7928
452	0.761
443	0.7206
434	0.7134
425	0.648
416	0.6216
407	0.6035
