Infrared Spectrum: 2,4,6,8-TETRAETHYL-2,4,6,8-TETRAPHENYLCYCLOTETRASILOXANE
Formula: C32 H40 O4 Si4
CAS: 18758-34-4
State: SOLUTION (10% CCl4 FOR 2.5-7.5, 10% CS2 FOR 7.5-15 MICRON)
Class: COBLENTZ
Instrument: Not specified, most likely a prism, grating, or hybrid spectrometer.
Sampling: TRANSMISSION
Path length: 0.01 CM, 0.01 CM
Resolution: 4
Origin: DOW CHEMICAL COMPANY
MICROMETERS	TRANSMITTANCE
1.993	0.903
2.0331	0.901
2.07321	0.901
2.11331	0.9
2.15342	0.898
2.19352	0.896
2.23363	0.896
2.27373	0.888
2.31384	0.885
2.35394	0.891
2.39405	0.891
2.43415	0.89
2.47426	0.89
2.51436	0.903
2.55447	0.906
2.59457	0.901
2.63468	0.911
2.67478	0.911
2.71489	0.91
2.75499	0.913
2.7951	0.911
2.8352	0.911
2.87531	0.916
2.91541	0.913
2.95552	0.911
2.99562	0.913
3.03573	0.913
3.07583	0.913
3.11594	0.913
3.15604	0.903
3.19615	0.878
3.23625	0.808
3.27636	0.603
3.31646	0.622
3.35657	0.648
3.39667	0.449
3.43678	0.53
3.47688	0.507
3.51699	0.85
3.55709	0.863
3.5972	0.89
3.6373	0.91
3.67741	0.905
3.71751	0.913
3.75762	0.928
3.79772	0.93
3.83783	0.928
3.87793	0.93
3.91804	0.933
3.95814	0.936
3.99824	0.936
4.03835	0.933
4.07845	0.936
4.11856	0.938
4.15866	0.931
4.19877	0.92
4.23887	0.913
4.27898	0.92
4.31908	0.923
4.35919	0.925
4.39929	0.923
4.4394	0.93
4.4795	0.931
4.51961	0.933
4.55971	0.938
4.59982	0.941
4.63992	0.941
4.68003	0.941
4.72013	0.941
4.76024	0.943
4.80034	0.95
4.84045	0.95
4.88055	0.95
4.92066	0.95
4.96076	0.948
5.00087	0.943
5.04097	0.931
5.08108	0.898
5.12118	0.883
5.16129	0.921
5.20139	0.933
5.2415	0.92
5.2816	0.875
5.32171	0.875
5.36181	0.903
5.40192	0.913
5.44202	0.885
5.48213	0.87
5.52223	0.87
5.56234	0.91
5.60244	0.92
5.64255	0.903
5.68265	0.901
5.72276	0.905
5.76286	0.913
5.80297	0.923
5.84307	0.923
5.88318	0.921
5.92328	0.923
5.96339	0.918
6.00349	0.903
6.04359	0.89
6.0837	0.891
6.1238	0.895
6.16391	0.87
6.20401	0.821
6.24412	0.75
6.28422	0.56
6.32433	0.612
6.36443	0.615
6.40454	0.567
6.44464	0.5
6.48475	0.484
6.52485	0.574
6.56496	0.623
6.60506	0.672
6.64517	0.73
6.68527	0.793
6.72538	0.801
6.76548	0.813
6.80559	0.733
6.84569	0.633
6.8858	0.76
6.9259	0.816
6.96601	0.687
7.00611	0.469
7.04622	0.662
7.08632	0.702
7.12643	0.698
7.16653	0.803
7.20664	0.84
7.24674	0.805
7.28685	0.846
7.32695	0.893
7.36706	0.898
7.40716	0.9
7.44727	0.893
7.48737	0.885
7.52748	0.856
7.56758	0.851
7.60769	0.848
7.64779	0.825
7.6879	0.825
7.728	0.84
7.76811	0.851
7.80821	0.851
7.84832	0.831
7.88842	0.8
7.92853	0.77
7.96863	0.72
8.00873	0.544
8.04884	0.434
8.08894	0.529
8.12905	0.6
8.16915	0.665
8.20926	0.76
8.24936	0.792
8.28947	0.798
8.32957	0.792
8.36968	0.758
8.40978	0.735
8.44989	0.74
8.48999	0.743
8.5301	0.742
8.5702	0.713
8.61031	0.668
8.65041	0.61
8.69052	0.572
8.73062	0.529
8.77073	0.47
8.81083	0.356
8.85094	0.199
8.89104	0.073
8.93115	0.018
8.97125	0.018
9.01136	0.038
9.05146	0.036
9.09157	0.014
9.13167	0.006
9.17178	0.004
9.21188	0.004
9.25199	0.004
9.29209	0.001
9.3322	0.004
9.3723	0.004
9.41241	0.004
9.45251	0.004
9.49262	0.006
9.53272	0.024
9.57283	0.079
9.61293	0.181
9.65304	0.267
9.69314	0.287
9.73325	0.189
9.77335	0.204
9.81346	0.259
9.85356	0.222
9.89367	0.133
9.93377	0.104
9.97387	0.232
10.014	0.286
10.0541	0.279
10.0942	0.479
10.1343	0.574
10.1744	0.625
10.2145	0.667
10.2546	0.682
10.2947	0.675
10.3348	0.663
10.3749	0.667
10.415	0.632
10.4551	0.54
10.4952	0.454
10.5353	0.515
10.5754	0.677
10.6156	0.787
10.6557	0.823
10.6958	0.841
10.7359	0.851
10.776	0.86
10.8161	0.863
10.8562	0.863
10.8963	0.858
10.9364	0.851
10.9765	0.851
11.0166	0.865
11.0567	0.873
11.0968	0.876
11.1369	0.876
11.177	0.873
11.2171	0.861
11.2572	0.85
11.2973	0.838
11.3374	0.821
11.3775	0.811
11.4177	0.797
11.4578	0.783
11.4979	0.768
11.538	0.752
11.5781	0.742
11.6182	0.728
11.6583	0.718
11.6984	0.708
11.7385	0.703
11.7786	0.71
11.8187	0.743
11.8588	0.777
11.8989	0.81
11.939	0.83
11.9791	0.838
12.0192	0.848
12.0593	0.853
12.0994	0.853
12.1395	0.855
12.1796	0.856
12.2197	0.856
12.2599	0.855
12.3	0.851
12.3401	0.85
12.3802	0.843
12.4203	0.841
12.4604	0.833
12.5005	0.828
12.5406	0.821
12.5807	0.815
12.6208	0.798
12.6609	0.787
12.701	0.762
12.7411	0.742
12.7812	0.717
12.8213	0.687
12.8614	0.653
12.9015	0.628
12.9416	0.6
12.9817	0.592
13.0218	0.592
13.062	0.595
13.1021	0.597
13.1422	0.582
13.1823	0.55
13.2224	0.502
13.2625	0.457
13.3026	0.407
13.3427	0.351
13.3828	0.284
13.4229	0.199
13.463	0.123
13.5031	0.051
13.5432	0.014
13.5833	0
13.6234	0
13.6635	0
13.7036	0
13.7437	0.003
13.7838	0.028
13.8239	0.058
13.8641	0.093
13.9042	0.116
13.9443	0.121
13.9844	0.111
14.0245	0.099
14.0646	0.103
14.1047	0.124
14.1448	0.133
14.1849	0.118
14.225	0.076
14.2651	0.036
14.3052	0.013
14.3453	0.014
14.3854	0.063
14.4255	0.139
14.4656	0.188
14.5057	0.209
14.5458	0.199
14.5859	0.169
14.626	0.139
14.6661	0.124
14.7063	0.123
14.7464	0.128
14.7865	0.141
14.8266	0.144
14.8667	0.144
14.9068	0.141
14.9469	0.133
14.987	0.133
15.0271	0.159
15.0672	0.189
15.1073	0.231
15.1474	0.262
15.1875	0.289
15.2276	0.307
15.2677	0.316
15.3078	0.326
15.3479	0.331
15.388	0.337
15.4281	0.341
15.4682	0.344
15.5084	0.349
15.5485	0.349
15.5886	0.351
15.6287	0.351
15.6688	0.351
15.7089	0.351
15.749	0.347
15.7891	0.339
15.8292	0.336
15.8693	0.332
15.9094	0.331
