Infrared Spectrum: 4-Chlorophenyl methyl carbinol
Formula: C 8 H 9 Cl O
CAS: 1875-88-3
State: gas
Origin: EPA-IR VAPOR PHASE LIBRARY
1/CM	ABSORBANCE
549.9	0.003845
559.547	0.002655
569.193	0.001605
578.84	0.0011291
588.486	0.0010585
598.133	0.0010224
607.779	0.0008544
617.426	0.0011696
627.072	0.001185
636.719	0.001475
646.365	0.001495
656.012	0.001465
665.658	0.0011265
675.305	0.0007345
684.951	0.0007027
694.598	0.0007753
704.245	0.0009668
713.891	0.0010821
723.538	0.001365
733.184	0.0012686
742.831	0.0011388
752.477	0.000973
762.124	0.001875
771.77	0.003645
781.417	0.003255
791.063	0.002245
800.71	0.002875
810.356	0.005045
820.003	0.008695
829.649	0.010615
839.296	0.006675
848.943	0.003125
858.589	0.001765
868.236	0.001575
877.882	0.002265
887.529	0.003915
897.175	0.005405
906.822	0.004355
916.468	0.002505
926.115	0.001545
935.761	0.001305
945.408	0.001104
955.054	0.0012
964.701	0.001285
974.347	0.001675
983.994	0.002555
993.64	0.003915
1003.29	0.006915
1012.93	0.011945
1022.58	0.007395
1032.23	0.002955
1041.87	0.003565
1051.52	0.005215
1061.17	0.007355
1070.81	0.010675
1080.46	0.015815
1090.11	0.022525
1099.75	0.022305
1109.4	0.010055
1119.05	0.004175
1128.69	0.002375
1138.34	0.001745
1147.99	0.001775
1157.63	0.002155
1167.28	0.002565
1176.92	0.002865
1186.57	0.003005
1196.22	0.003135
1205.86	0.002985
1215.51	0.002625
1225.16	0.003095
1234.8	0.003425
1244.45	0.004585
1254.1	0.005325
1263.74	0.004865
1273.39	0.003975
1283.04	0.003515
1292.68	0.003815
1302.33	0.003515
1311.98	0.003015
1321.62	0.003375
1331.27	0.004045
1340.92	0.004715
1350.56	0.005115
1360.21	0.005125
1369.86	0.004985
1379.5	0.005255
1389.15	0.004835
1398.79	0.004275
1408.44	0.003925
1418.09	0.003175
1427.73	0.002315
1437.38	0.002245
1447.03	0.002425
1456.67	0.002765
1466.32	0.003365
1475.97	0.005005
1485.61	0.010525
1495.26	0.013085
1504.91	0.005355
1514.55	0.001505
1524.2	0.000923
1533.85	0.0007013
1543.49	0.000591
1553.14	0.0006101
1562.79	0.0005884
1572.43	0.0009864
1582.08	0.001455
1591.73	0.002135
1601.37	0.002445
1611.02	0.001425
1620.67	0.0008023
1630.31	0.0008407
1639.96	0.0009707
1649.6	0.0010213
1659.25	0.0007092
1668.9	0.0005077
1678.54	0.0004221
1688.19	0.0004058
1697.84	0.0004195
1707.48	0.0004833
1717.13	0.0004113
1726.78	0.00034116
1736.42	0.000292232
1746.07	0.0003951
1755.72	0.0005535
1765.36	0.0006607
1775.01	0.000631
1784.66	0.0004456
1794.3	0.00032614
1803.95	0.000179
1813.6	0.000144
1823.24	0.000186
1832.89	0.000153
1842.54	0.000193
1852.18	0.0002076
1861.83	0.00031918
1871.47	0.000522
1881.12	0.0007054
1890.77	0.0009221
1900.41	0.000788
1910.06	0.0006426
1919.71	0.0003924
1929.35	0.0002086
1939	0.0002336
1948.65	0.0002565
1958.29	0.000183
1967.94	0.000177
1977.59	0.0002474
1987.23	0.000290731
1996.88	0.0002064
2006.53	0.000164
2016.17	0.000174
2025.82	0.000148
2035.47	0.000151
2045.11	0.000151
2054.76	0.000144
2064.41	0.000145
2074.05	0.000137
2083.7	0.000154
2093.35	0.000119
2102.99	0.000155
2112.64	0.000161
2122.28	0.000139
2131.93	0.000147
2141.58	9.3e-05
2151.22	0.000134
2160.87	0.000133
2170.52	0.0001938
2180.16	0.000162
2189.81	0.000154
2199.46	0.000158
2209.1	0.000159
2218.75	9.2e-05
2228.4	0.000158
2238.04	0.000161
2247.69	0.000173
2257.34	0.0002704
2266.98	0.0002318
2276.63	0.0002694
2286.28	0.0002922
2295.92	0.0002687
2305.57	0.00034057
2315.22	0.000293899
2324.86	0.0002614
2334.51	0.000197
2344.16	0.000179
2353.8	0.000216
2363.45	0.0002301
2373.09	0.0002269
2382.74	0.0002168
2392.39	0.00029572
2402.03	0.000288841
2411.68	0.0002164
2421.33	0.00027715
2430.97	0.00027954
2440.62	0.0002534
2450.27	0.0002397
2459.91	0.00033587
2469.56	0.0002718
2479.21	0.0002691
2488.85	0.0002398
2498.5	0.0003133
2508.15	0.0002059
2517.79	0.000287521
2527.44	0.0002613
2537.09	0.0001851
2546.73	0.00037063
2556.38	0.00027602
2566.03	0.000348
2575.67	0.00035622
2585.32	0.0004401
2594.96	0.0004115
2604.61	0.00036929
2614.26	0.00035885
2623.9	0.00038216
2633.55	0.0003737
2643.2	0.00038425
2652.84	0.00032413
2662.49	0.00034728
2672.14	0.00033504
2681.78	0.00033766
2691.43	0.00034676
2701.08	0.00038467
2710.72	0.0002706
2720.37	0.0004547
2730.02	0.0004427
2739.66	0.0004343
2749.31	0.0004794
2758.96	0.0004604
2768.6	0.0005372
2778.25	0.0005218
2787.9	0.0005365
2797.54	0.0005296
2807.19	0.0006628
2816.84	0.0006504
2826.48	0.000881
2836.13	0.0008383
2845.77	0.0012126
2855.42	0.001725
2865.07	0.002585
2874.71	0.003715
2884.36	0.004525
2894.01	0.004735
2903.65	0.003975
2913.3	0.003415
2922.95	0.003165
2932.59	0.003625
2942.24	0.003495
2951.89	0.002675
2961.53	0.003575
2971.18	0.006605
2980.83	0.010225
2990.47	0.008795
3000.12	0.003615
3009.77	0.002075
3019.41	0.001935
3029.06	0.002275
3038.71	0.002275
3048.35	0.001825
3058	0.001555
3067.64	0.001335
3077.29	0.001545
3086.94	0.002105
3096.58	0.001835
3106.23	0.0012461
3115.88	0.0007744
3125.52	0.0004932
3135.17	0.0004058
3144.82	0.00027993
3154.46	0.0001867
3164.11	0.000442
3173.76	0.00031332
3183.4	0.0004574
3193.05	0.0003905
3202.7	0.00037368
3212.34	0.00033036
3221.99	0.00033441
3231.64	9.8e-05
3241.28	0.0002446
3250.93	0.000118
3260.58	0.000109
3270.22	0.0002044
3279.87	0.0002327
3289.52	5.9e-05
3299.16	0.000123
3308.81	0.0002526
3318.45	4e-05
3328.1	0.0002289
3337.75	0.00031477
3347.39	0.000152
3357.04	0.0001991
3366.69	0.0001982
3376.33	0.000232
3385.98	0.00035784
3395.63	0.0002599
3405.27	0.000134
3414.92	0.0002453
3424.57	0.000127
3434.21	0.00032849
3443.86	0.0003454
3453.51	0.00030718
3463.15	0.00030544
3472.8	0.000165
3482.45	0.00029872
3492.09	0.000269
3501.74	0.000148
3511.39	0.0002072
3521.03	0.000102
3530.68	7.1e-05
3540.33	0.00027802
3549.97	0.0001875
3559.62	0.000165
3569.26	0.0002387
3578.91	0.0002566
3588.56	0.0004282
3598.2	0.000125
3607.85	0.00033646
3617.5	0.0007076
3627.14	0.0011309
3636.79	0.002235
3646.44	0.003405
3656.08	0.003235
3665.73	0.001875
3675.38	0.0009465
3685.02	0.0005737
3694.67	0.00030295
3704.32	0.000184
3713.96	0.00035694
3723.61	0.0003061
3733.26	0.00033566
3742.9	0.0002686
3752.55	0.000161
3762.2	0.000122
3771.84	0.0002577
3781.49	0.0002622
3791.13	0.0002596
3800.78	0.00036531
3810.43	0.00031091
3820.07	0.00029998
3829.72	0.00032926
3839.37	0.0002203
3849.01	0.0002225
3858.66	0.0002421
3868.31	0.00042
3877.95	0.0002337
3887.6	0.0002209
3897.25	0.00033868
3906.89	0.0004529
3916.54	0.0005072
3926.19	0.0002219
3935.83	0.0002051
3945.48	0.0002302
3955.13	0.000161
3964.77	0.00033022
3974.42	0.0003195
3984.07	0.000118
3993.71	0.0001877
