Infrared Spectrum: TRIOCTYLSILANE
Formula: C24 H52 Si
CAS: 18765-09-8
State: SOLID (BETWEEN SALTS)
Class: COBLENTZ
Instrument: BECKMAN IR-4 (HYBRID PRISM-GRATING)
Sampling: TRANSMISSION
Resolution: 4
Origin: PENINSULAR CHEMRESEARCH, INC., GAINESVILLE, FLORIDA
MICROMETERS	TRANSMITTANCE
2.02	0.937
2.05504	0.94
2.09009	0.942
2.12513	0.94
2.16017	0.939
2.19522	0.935
2.23026	0.925
2.2653	0.903
2.30035	0.907
2.33539	0.909
2.37043	0.91
2.40547	0.914
2.44052	0.922
2.47556	0.928
2.5106	0.923
2.54565	0.919
2.58069	0.927
2.61573	0.927
2.65078	0.927
2.68582	0.929
2.72086	0.925
2.75591	0.933
2.79095	0.935
2.82599	0.938
2.86104	0.939
2.89608	0.934
2.93112	0.934
2.96616	0.937
3.00121	0.935
3.03625	0.937
3.07129	0.933
3.10634	0.93
3.14138	0.924
3.17642	0.922
3.21147	0.91
3.24651	0.899
3.28155	0.868
3.3166	0.77
3.35164	0.435
3.38668	0.081
3.42173	0.023
3.45677	0.177
3.49181	0.144
3.52686	0.658
3.5619	0.781
3.59694	0.871
3.63198	0.889
3.66703	0.9
3.70207	0.898
3.73711	0.903
3.77216	0.915
3.8072	0.919
3.84224	0.93
3.87729	0.937
3.91233	0.947
3.94737	0.952
3.98242	0.952
4.01746	0.953
4.0525	0.954
4.08755	0.951
4.12259	0.949
4.15763	0.949
4.19267	0.93
4.22772	0.944
4.26276	0.949
4.2978	0.959
4.33285	0.959
4.36789	0.956
4.40293	0.954
4.43798	0.954
4.47302	0.952
4.50806	0.948
4.54311	0.948
4.57815	0.933
4.61319	0.91
4.64824	0.878
4.68328	0.767
4.71832	0.556
4.75337	0.344
4.78841	0.591
4.82345	0.874
4.85849	0.939
4.89354	0.944
4.92858	0.951
4.96362	0.952
4.99867	0.957
5.03371	0.961
5.06875	0.962
5.1038	0.959
5.13884	0.967
5.17388	0.959
5.20893	0.959
5.24397	0.962
5.27901	0.968
5.31406	0.958
5.3491	0.971
5.38414	0.953
5.41918	0.967
5.45423	0.969
5.48927	0.957
5.52431	0.962
5.55936	0.959
5.5944	0.961
5.62944	0.967
5.66449	0.963
5.69953	0.958
5.73457	0.967
5.76962	0.969
5.80466	0.957
5.8397	0.944
5.87475	0.952
5.90979	0.948
5.94483	0.961
5.97988	0.963
6.01492	0.951
6.04996	0.964
6.085	0.953
6.12005	0.956
6.15509	0.959
6.19013	0.958
6.22518	0.959
6.26022	0.962
6.29526	0.959
6.33031	0.947
6.36535	0.951
6.40039	0.945
6.43544	0.951
6.47048	0.933
6.50552	0.932
6.54057	0.928
6.57561	0.93
6.61065	0.92
6.64569	0.923
6.68074	0.905
6.71578	0.89
6.75082	0.806
6.78587	0.479
6.82091	0.412
6.85595	0.532
6.891	0.605
6.92604	0.694
6.96108	0.815
6.99613	0.853
7.03117	0.82
7.06621	0.743
7.10126	0.757
7.1363	0.85
7.17134	0.891
7.20639	0.856
7.24143	0.726
7.27647	0.825
7.31151	0.841
7.34656	0.859
7.3816	0.855
7.41664	0.835
7.45169	0.814
7.48673	0.868
7.52177	0.905
7.55682	0.9
7.59186	0.885
7.6269	0.88
7.66195	0.875
7.69699	0.876
7.73203	0.886
7.76708	0.913
7.80212	0.912
7.83716	0.893
7.8722	0.89
7.90725	0.893
7.94229	0.902
7.97733	0.922
8.01238	0.932
8.04742	0.918
8.08246	0.9
8.11751	0.889
8.15255	0.904
8.18759	0.894
8.22264	0.876
8.25768	0.864
8.29272	0.861
8.32777	0.881
8.36281	0.905
8.39785	0.893
8.4329	0.832
8.46794	0.727
8.50298	0.697
8.53802	0.736
8.57307	0.785
8.60811	0.827
8.64315	0.874
8.6782	0.893
8.71324	0.918
8.74828	0.943
8.78333	0.948
8.81837	0.951
8.85341	0.949
8.88846	0.942
8.9235	0.922
8.95854	0.874
8.99359	0.819
9.02863	0.791
9.06367	0.817
9.09871	0.859
9.13376	0.883
9.1688	0.876
9.20384	0.864
9.23889	0.847
9.27393	0.839
9.30897	0.839
9.34402	0.847
9.37906	0.864
9.4141	0.873
9.44915	0.879
9.48419	0.88
9.51923	0.883
9.55428	0.88
9.58932	0.873
9.62436	0.869
9.65941	0.856
9.69445	0.836
9.72949	0.792
9.76453	0.771
9.79958	0.75
9.83462	0.733
9.86966	0.728
9.90471	0.722
9.93975	0.714
9.97479	0.709
10.0098	0.716
10.0449	0.728
10.0799	0.758
10.115	0.786
10.15	0.822
10.1851	0.849
10.2201	0.869
10.2551	0.879
10.2902	0.884
10.3252	0.889
10.3603	0.895
10.3953	0.893
10.4304	0.9
10.4654	0.896
10.5004	0.894
10.5355	0.893
10.5705	0.891
10.6056	0.885
10.6406	0.865
10.6757	0.847
10.7107	0.83
10.7457	0.791
10.7808	0.775
10.8158	0.746
10.8509	0.736
10.8859	0.731
10.921	0.733
10.956	0.747
10.991	0.77
11.0261	0.807
11.0611	0.824
11.0962	0.816
11.1312	0.786
11.1663	0.778
11.2013	0.775
11.2363	0.771
11.2714	0.75
11.3064	0.741
11.3415	0.732
11.3765	0.713
11.4116	0.687
11.4466	0.653
11.4816	0.626
11.5167	0.614
11.5517	0.601
11.5868	0.582
11.6218	0.54
11.6569	0.511
11.6919	0.476
11.727	0.447
11.762	0.435
11.797	0.428
11.8321	0.425
11.8671	0.438
11.9022	0.454
11.9372	0.467
11.9723	0.487
12.0073	0.505
12.0423	0.518
12.0774	0.523
12.1124	0.518
12.1475	0.505
12.1825	0.487
12.2176	0.471
12.2526	0.463
12.2876	0.462
12.3227	0.464
12.3577	0.473
12.3928	0.492
12.4278	0.51
12.4629	0.536
12.4979	0.564
12.5329	0.59
12.568	0.62
12.603	0.641
12.6381	0.663
12.6731	0.68
12.7082	0.687
12.7432	0.692
12.7782	0.697
12.8133	0.697
12.8483	0.702
12.8834	0.699
12.9184	0.699
12.9535	0.699
12.9885	0.703
13.0235	0.702
13.0586	0.698
13.0936	0.697
13.1287	0.693
13.1637	0.687
13.1988	0.684
13.2338	0.677
13.2688	0.665
13.3039	0.658
13.3389	0.655
13.374	0.652
13.409	0.646
13.4441	0.648
13.4791	0.648
13.5142	0.645
13.5492	0.641
13.5842	0.638
13.6193	0.636
13.6543	0.631
13.6894	0.628
13.7244	0.611
13.7595	0.592
13.7945	0.565
13.8295	0.542
13.8646	0.538
13.8996	0.54
13.9347	0.557
13.9697	0.574
14.0048	0.589
14.0398	0.599
14.0748	0.61
14.1099	0.618
14.1449	0.631
14.18	0.646
14.215	0.658
14.2501	0.674
14.2851	0.687
14.3201	0.698
14.3552	0.707
14.3902	0.712
14.4253	0.714
14.4603	0.714
14.4954	0.716
14.5304	0.718
14.5654	0.719
14.6005	0.716
14.6355	0.721
14.6706	0.723
14.7056	0.717
14.7407	0.717
14.7757	0.708
14.8107	0.699
14.8458	0.698
14.8808	0.689
14.9159	0.678
14.9509	0.662
14.986	0.649
