Infrared Spectrum: Acetic acid, m-nitrophenyl-
Formula: C8 H7 N O4
CAS: 1877-73-2
State: SOLID (SPLIT MULL), FLUOROLUBE FOR 3800-1330 CM^-^1, NUJOL FOR 1330-400 CM^-^1
Class: COBLENTZ II
Instrument: DOW KBr FOREPRISM-GRATING
Instrument parameters: BLAZED AT 3.5, 12.0, 20.0 MICRON AND CHANGED AT 5.0, 7.5, 14.9 MICRON
Sampling: TRANSMISSION
Resolution: 2
Origin: DOW CHEMICAL COMPANY
1/CM	TRANSMITTANCE
3800	0.6801
3791	0.6801
3782	0.6801
3773	0.6819
3764	0.6834
3755	0.6846
3746	0.6865
3737	0.6881
3728	0.6881
3719	0.6881
3710	0.6889
3701	0.69
3692	0.6911
3683	0.6921
3674	0.6933
3665	0.6945
3656	0.6958
3647	0.6969
3638	0.6983
3629	0.6994
3620	0.7005
3611	0.7015
3602	0.7025
3593	0.7033
3584	0.7041
3575	0.7048
3566	0.7061
3557	0.7078
3548	0.7095
3539	0.7111
3530	0.7128
3521	0.7146
3512	0.7162
3503	0.7181
3494	0.719
3485	0.7197
3476	0.7204
3467	0.721
3458	0.7214
3449	0.7217
3440	0.7218
3431	0.7214
3422	0.7205
3413	0.7194
3404	0.7182
3395	0.7161
3386	0.7135
3377	0.7106
3368	0.705
3359	0.6935
3350	0.6851
3341	0.6808
3332	0.6778
3323	0.6744
3314	0.6693
3305	0.6597
3296	0.6484
3287	0.6348
3278	0.6194
3269	0.606
3260	0.5926
3251	0.5798
3242	0.5671
3233	0.5533
3224	0.5407
3215	0.5294
3206	0.5124
3197	0.492
3188	0.4783
3179	0.466
3170	0.4531
3161	0.4417
3152	0.4353
3143	0.4193
3134	0.4004
3125	0.3809
3116	0.3625
3107	0.3543
3098	0.2915
3089	0.3195
3080	0.3418
3071	0.1969
3062	0.3374
3053	0.3491
3044	0.3405
3035	0.344
3026	0.35
3017	0.3614
3008	0.3837
2999	0.4022
2990	0.4064
2981	0.3934
2972	0.3846
2963	0.3784
2954	0.3756
2945	0.388
2936	0.3588
2927	0.3616
2918	0.4014
2909	0.4173
2900	0.4268
2891	0.4314
2882	0.4376
2873	0.4458
2864	0.4557
2855	0.4681
2846	0.4825
2837	0.4976
2828	0.5116
2819	0.5257
2810	0.54
2801	0.5504
2792	0.5562
2783	0.5602
2774	0.566
2765	0.5712
2756	0.5644
2747	0.553
2738	0.5381
2729	0.5317
2720	0.5526
2711	0.5751
2702	0.5908
2693	0.6009
2684	0.6065
2675	0.6038
2666	0.5784
2657	0.5705
2648	0.576
2639	0.5791
2630	0.5838
2621	0.6044
2612	0.6106
2603	0.6183
2594	0.6276
2585	0.6368
2576	0.6418
2567	0.6403
2558	0.6381
2549	0.6443
2540	0.648
2531	0.6489
2522	0.6651
2513	0.6839
2504	0.7053
2495	0.7222
2486	0.7325
2477	0.7389
2468	0.7411
2459	0.7418
2450	0.7418
2441	0.7451
2432	0.7514
2423	0.7585
2414	0.7626
2405	0.7619
2396	0.766
2387	0.7794
2378	0.786
2369	0.7897
2360	0.7948
2351	0.7996
2342	0.8004
2333	0.8008
2324	0.8017
2315	0.8018
2306	0.8022
2297	0.8031
2288	0.8045
2279	0.8062
2270	0.8076
2261	0.8091
2252	0.8147
2243	0.8201
2234	0.8184
2225	0.8175
2216	0.822
2207	0.828
2198	0.8359
2189	0.8421
2180	0.8474
2171	0.8504
2162	0.8535
2153	0.8554
2144	0.8571
2135	0.8581
2126	0.8586
2117	0.8593
2108	0.8604
2099	0.8621
2090	0.8639
2081	0.8652
2072	0.8667
2063	0.8681
2054	0.8699
2045	0.8711
2036	0.8736
2027	0.8778
2018	0.8821
2009	0.8833
2000	0.8839
1991	0.8611
1982	0.8718
1973	0.8687
1964	0.877
1955	0.8799
1946	0.8797
1937	0.8747
1928	0.8775
1919	0.8703
1910	0.8775
1901	0.883
1892	0.8846
1883	0.8813
1874	0.8702
1865	0.8701
1856	0.8711
1847	0.8725
1838	0.8713
1829	0.8698
1820	0.865
1811	0.8484
1802	0.8507
1793	0.861
1784	0.8632
1775	0.8634
1766	0.8313
1757	0.7925
1748	0.784
1739	0.7687
1730	0.7128
1721	0.4628
1712	0.0453
1703	0.0215
1694	0.2638
1685	0.4469
1676	0.6555
1667	0.7354
1658	0.7768
1649	0.8156
1640	0.8398
1631	0.8484
1622	0.6754
1613	0.8011
1604	0.8387
1595	0.8605
1586	0.8186
1577	0.8115
1568	0.8602
1559	0.8169
1550	0.7887
1541	0.6933
1532	0.1727
1523	0.0473
1514	0.4644
1505	0.6458
1496	0.7289
1487	0.5983
1478	0.7018
1469	0.7841
1460	0.8223
1451	0.8257
1442	0.7988
1433	0.7036
1424	0.5162
1415	0.2263
1406	0.2714
1397	0.285
1388	0.5728
1379	0.7317
1370	0.7167
1361	0.143
1352	0.0776
1343	0.2066
1334	0.3014
1325	0.5081
1316	0.6232
1307	0.6674
1298	0.6812
1289	0.7006
1280	0.6965
1271	0.7295
1262	0.6718
1253	0.4741
1244	0.1217
1235	0.1698
1226	0.3952
1217	0.608
1208	0.2509
1199	0.451
1190	0.6578
1181	0.7483
1172	0.7641
1163	0.7662
1154	0.7911
1145	0.8072
1136	0.8211
1127	0.8318
1118	0.8409
1109	0.8227
1100	0.6828
1091	0.7608
1082	0.7114
1073	0.8286
1064	0.8564
1055	0.8651
1046	0.8681
1037	0.8684
1028	0.8671
1019	0.8657
1010	0.8652
1001	0.8616
992	0.8485
983	0.8506
974	0.8437
965	0.8353
956	0.8182
947	0.6724
938	0.5932
929	0.6974
920	0.731
911	0.5554
902	0.5442
893	0.5549
884	0.4874
875	0.6403
866	0.7225
857	0.7726
848	0.8006
839	0.8143
830	0.6454
821	0.8096
812	0.2097
803	0.7703
794	0.8649
785	0.8793
776	0.8814
767	0.8824
758	0.8821
749	0.8662
740	0.5302
731	0.7761
722	0.1979
713	0.5297
704	0.8541
695	0.8843
686	0.8903
677	0.5909
668	0.7806
659	0.6618
650	0.8527
641	0.8975
632	0.9085
623	0.9053
614	0.8534
605	0.6904
596	0.8889
587	0.9117
578	0.9241
569	0.9297
560	0.9159
551	0.9203
542	0.8832
533	0.9043
524	0.9178
515	0.9201
506	0.9135
497	0.9034
488	0.875
479	0.8362
470	0.8625
461	0.8665
452	0.8547
443	0.835
434	0.8088
425	0.7797
416	0.7551
407	0.7353
398	0.7319
389	0.7325
