Infrared Spectrum: (p-Methoxyphenoxy)acetic acid
Formula: C 9 H 10 O 4
CAS: 1877-75-4
State: gas
Origin: EPA-IR VAPOR PHASE LIBRARY
1/CM	ABSORBANCE
549.8	0.015472
559.445	0.015072
569.09	0.014472
578.734	0.013892
588.379	0.014462
598.024	0.015602
607.669	0.017602
617.313	0.017662
626.958	0.016262
636.603	0.013552
646.248	0.011332
655.893	0.009742
665.537	0.008632
675.182	0.007272
684.827	0.006122
694.472	0.005842
704.116	0.007122
713.761	0.012222
723.406	0.016252
733.051	0.013872
742.695	0.011382
752.34	0.012312
761.985	0.010322
771.63	0.005612
781.275	0.004412
790.919	0.004502
800.564	0.005642
810.209	0.009842
819.854	0.018772
829.498	0.025152
839.143	0.021122
848.788	0.014682
858.433	0.009562
868.078	0.006972
877.722	0.006022
887.367	0.004732
897.012	0.003902
906.657	0.002932
916.301	0.002562
925.946	0.002222
935.591	0.002492
945.236	0.002512
954.88	0.003012
964.525	0.003302
974.17	0.004322
983.815	0.005482
993.46	0.007212
1003.1	0.010062
1012.75	0.013252
1022.39	0.019612
1032.04	0.030292
1041.68	0.042592
1051.33	0.052462
1060.97	0.055272
1070.62	0.057772
1080.26	0.051872
1089.91	0.034142
1099.55	0.026162
1109.2	0.028942
1118.84	0.039582
1128.49	0.042332
1138.13	0.034612
1147.78	0.033172
1157.42	0.034772
1167.07	0.036132
1176.71	0.042372
1186.36	0.047602
1196	0.062582
1205.64	0.085842
1215.29	0.117252
1224.93	0.132772
1234.58	0.106632
1244.22	0.081962
1253.87	0.055332
1263.51	0.039722
1273.16	0.031952
1282.8	0.027292
1292.45	0.023962
1302.09	0.020952
1311.74	0.019832
1321.38	0.022152
1331.03	0.026982
1340.67	0.029602
1350.32	0.026062
1359.96	0.021882
1369.61	0.017722
1379.25	0.013752
1388.9	0.011502
1398.54	0.010262
1408.18	0.009382
1417.83	0.009142
1427.47	0.010692
1437.12	0.016182
1446.76	0.022692
1456.41	0.018712
1466.05	0.018702
1475.7	0.018212
1485.34	0.021772
1494.99	0.059852
1504.63	0.187552
1514.28	0.136282
1523.92	0.026102
1533.57	0.011392
1543.21	0.006902
1552.86	0.005002
1562.5	0.004372
1572.15	0.004362
1581.79	0.004592
1591.44	0.005312
1601.08	0.005062
1610.73	0.004902
1620.37	0.004312
1630.01	0.003582
1639.66	0.002932
1649.3	0.002442
1658.95	0.002312
1668.59	0.002282
1678.24	0.002392
1687.88	0.002672
1697.53	0.003062
1707.17	0.003782
1716.82	0.004702
1726.46	0.006342
1736.11	0.008982
1745.75	0.012882
1755.4	0.019242
1765.04	0.029692
1774.69	0.051182
1784.33	0.059582
1793.98	0.057242
1803.62	0.074972
1813.27	0.072392
1822.91	0.039442
1832.55	0.019932
1842.2	0.012462
1851.84	0.008392
1861.49	0.005832
1871.13	0.004252
1880.78	0.003412
1890.42	0.002742
1900.07	0.002162
1909.71	0.001932
1919.36	0.001782
1929	0.001702
1938.65	0.001742
1948.29	0.001762
1957.94	0.001882
1967.58	0.001922
1977.23	0.001992
1986.87	0.002112
1996.52	0.002072
2006.16	0.002142
2015.81	0.002212
2025.45	0.002312
2035.1	0.002542
2044.74	0.002752
2054.38	0.002782
2064.03	0.002702
2073.67	0.002602
2083.32	0.002332
2092.96	0.001872
2102.61	0.001642
2112.25	0.001392
2121.9	0.0012022
2131.54	0.0012255
2141.19	0.0011758
2150.83	0.0011954
2160.48	0.0010563
2170.12	0.0010835
2179.77	0.0011055
2189.41	0.0011936
2199.06	0.0011574
2208.7	0.0010631
2218.35	0.0009984
2227.99	0.0010506
2237.64	0.001252
2247.28	0.001242
2256.92	0.001262
2266.57	0.001312
2276.21	0.001502
2285.86	0.001622
2295.5	0.001912
2305.15	0.002192
2314.79	0.002602
2324.44	0.002892
2334.08	0.002722
2343.73	0.002492
2353.37	0.002622
2363.02	0.002752
2372.66	0.002392
2382.31	0.001632
2391.95	0.001095
2401.6	0.0010686
2411.24	0.0011801
2420.89	0.0011614
2430.53	0.0011476
2440.18	0.0011933
2449.82	0.001292
2459.47	0.001352
2469.11	0.001402
2478.75	0.001612
2488.4	0.001512
2498.04	0.001412
2507.69	0.001462
2517.33	0.001402
2526.98	0.001372
2536.62	0.001372
2546.27	0.001412
2555.91	0.001081
2565.56	0.0010717
2575.2	0.0010228
2584.85	0.0010349
2594.49	0.0010408
2604.14	0.0010327
2613.78	0.0010679
2623.43	0.0009758
2633.07	0.0007459
2642.72	0.0009087
2652.36	0.0008027
2662.01	0.0008607
2671.65	0.0008718
2681.29	0.0009044
2690.94	0.0007966
2700.58	0.0009018
2710.23	0.0009407
2719.87	0.0010141
2729.52	0.0010424
2739.16	0.0011395
2748.81	0.0011213
2758.45	0.0011475
2768.1	0.001272
2777.74	0.001542
2787.39	0.001702
2797.03	0.002232
2806.68	0.002822
2816.32	0.003702
2825.97	0.005082
2835.61	0.008922
2845.26	0.012352
2854.9	0.008452
2864.55	0.006782
2874.19	0.006212
2883.84	0.006242
2893.48	0.007242
2903.12	0.009682
2912.77	0.013262
2922.41	0.015692
2932.06	0.017892
2941.7	0.020892
2951.35	0.020002
2960.99	0.016832
2970.64	0.012612
2980.28	0.009352
2989.93	0.008992
2999.57	0.012672
3009.22	0.015322
3018.86	0.008032
3028.51	0.005352
3038.15	0.005762
3047.8	0.007912
3057.44	0.008132
3067.09	0.005742
3076.73	0.004822
3086.38	0.004092
3096.02	0.003472
3105.67	0.003172
3115.31	0.003112
3124.95	0.002462
3134.6	0.001662
3144.24	0.001412
3153.89	0.0010351
3163.53	0.0008511
3173.18	0.0008425
3182.82	0.0006596
3192.47	0.0007753
3202.11	0.000795
3211.76	0.0007166
3221.4	0.0007638
3231.05	0.0005534
3240.69	0.0006343
3250.34	0.0005454
3259.98	0.000668
3269.63	0.0005526
3279.27	0.0005748
3288.92	0.0006863
3298.56	0.0005922
3308.21	0.0005821
3317.85	0.000688
3327.49	0.0005364
3337.14	0.0004037
3346.78	0.0004041
3356.43	0.0002699
3366.07	0.0005713
3375.72	0.0004174
3385.36	0.0004501
3395.01	0.0004415
3404.65	0.000359
3414.3	0.0005031
3423.94	0.0007772
3433.59	0.0006316
3443.23	0.0007927
3452.88	0.0006725
3462.52	0.0011089
3472.17	0.001452
3481.81	0.002042
3491.46	0.003242
3501.1	0.005862
3510.75	0.009182
3520.39	0.014162
3530.04	0.011862
3539.68	0.007572
3549.32	0.006462
3558.97	0.009062
3568.61	0.021112
3578.26	0.031032
3587.9	0.014752
3597.55	0.005172
3607.19	0.002782
3616.84	0.001522
3626.48	0.0011748
3636.13	0.000876
3645.77	0.000728
3655.42	0.000732
3665.06	0.0004534
3674.71	0.0006043
3684.35	0.000677
3694	0.0001756
3703.64	0.000622
3713.29	0.0003415
3722.93	0.0001453
3732.58	0.0005275
3742.22	0.000169
3751.86	0.0004972
3761.51	0.00032027
3771.15	0.000105
3780.8	6.5e-05
3790.44	0.00030231
3800.09	0.00029082
3809.73	0.00026674
3819.38	0.00026107
3829.02	5.3e-05
3838.67	0.00027028
3848.31	0.00026296
3857.96	0.000232172
3867.6	0.0001368
3877.25	0.0003471
3886.89	0.00026926
3896.54	0.0003389
3906.18	0.000401
3915.83	0.00027221
3925.47	0.0005212
3935.12	0.0001799
3944.76	0.0004301
3954.41	0.0004189
3964.05	0.0003897
3973.69	0.0004404
3983.34	0.0003432
3992.98	0.000447
