Infrared Spectrum: 3-Aminobenzyl alcohol
Formula: C 7 H 9 N O
CAS: 1877-77-6
State: gas
Instrument: HP-GC/MS/IRD
Origin: NIST Mass Spectrometry Data Center
1/CM	ABSORBANCE
550	0.0016268
562	0.0002632
574	0.0002604
586	0.0002604
598	0.0002562
610	0.0003962
622	0.0007476
634	0.0012726
646	0.0023912
658	0.0045458
670	0.0057512
682	0.0053298
694	0.0047432
706	0.0029512
718	0.0019194
730	0.0019838
742	0.0025928
754	0.0029722
766	0.0041538
778	0.0044884
790	0.0025662
802	0.001036
814	0.0005502
826	0.0003612
838	0.0006706
850	0.0014266
862	0.0018466
874	0.001211
886	0.0005992
898	0.0006216
910	0.0009128
922	0.0011494
934	0.000952
946	0.0007266
958	0.0011452
970	0.0018032
982	0.0024276
994	0.0036162
1006	0.0048734
1018	0.0062328
1030	0.0062748
1042	0.0046102
1054	0.0028028
1066	0.0020174
1078	0.001561
1090	0.0011676
1102	0.0007322
1114	0.0004648
1126	0.0003976
1138	0.0006006
1150	0.0014546
1162	0.002527
1174	0.0024808
1186	0.001414
1198	0.001001
1210	0.0008218
1222	0.000868
1234	0.0009086
1246	0.0011018
1258	0.0018256
1270	0.0034692
1282	0.005628
1294	0.0061348
1306	0.0043484
1318	0.0026306
1330	0.001729
1342	0.0012376
1354	0.0013356
1366	0.0022372
1378	0.0033558
1390	0.0032802
1402	0.0021378
1414	0.0013496
1426	0.0010514
1438	0.0016058
1450	0.0033474
1462	0.0048356
1474	0.0042112
1486	0.0035196
1498	0.0031766
1510	0.0015778
1522	0.0008526
1534	0.0007378
1546	0.0007784
1558	0.001036
1570	0.0017864
1582	0.0038962
1594	0.0070448
1606	0.0100982
1618	0.0137214
1630	0.0123032
1642	0.005299
1654	0.001785
1666	0.0007784
1678	0.0005138
1690	0.000469
1702	0.0005334
1714	0.000581
1726	0.0005236
1738	0.0003304
1750	0.0001512
1762	5.04e-05
1774	5.6e-06
1786	0
1798	4.06e-05
1810	0.0001302
1822	0.000217
1834	0.0001666
1846	0.0001036
1858	3.22e-05
1870	1.96e-05
1882	9.66e-05
1894	0.0001512
1906	0.0002912
1918	0.000308
1930	0.0001974
1942	0.0001316
1954	0.0001456
1966	0.0001554
1978	0.0001428
1990	0.0001624
2002	0.0001624
2014	0.0001666
2026	0.0002044
2038	0.0002366
2050	0.0002338
2062	0.0002198
2074	0.0002058
2086	0.000168
2098	0.0001876
2110	0.0001624
2122	0.0001946
2134	0.000168
2146	0.0001764
2158	0.0002016
2170	0.0001946
2182	0.0002058
2194	0.0001848
2206	0.000196
2218	0.0002128
2230	0.0001946
2242	0.0002002
2254	0.0002156
2266	0.0001904
2278	0.0002002
2290	0.0002058
2302	0.000238
2314	0.000245
2326	0.0002758
2338	0.0002464
2350	0.00028
2362	0.000273
2374	0.000259
2386	0.0002086
2398	0.000231
2410	0.000224
2422	0.000196
2434	0.0001652
2446	0.0001918
2458	0.0002142
2470	0.0002114
2482	0.0002212
2494	0.0001974
2506	0.0001624
2518	0.0001736
2530	0.000196
2542	0.0002296
2554	0.0002198
2566	0.0002548
2578	0.0002562
2590	0.0002716
2602	0.0002772
2614	0.0002394
2626	0.000252
2638	0.0002562
2650	0.000266
2662	0.0002352
2674	0.0002884
2686	0.000266
2698	0.0003052
2710	0.0003528
2722	0.0003668
2734	0.0003976
2746	0.0004102
2758	0.000455
2770	0.0004438
2782	0.0004634
2794	0.0004886
2806	0.0005586
2818	0.0006986
2830	0.000917
2842	0.0012432
2854	0.0016464
2866	0.0022666
2878	0.0030716
2890	0.0033334
2902	0.0029792
2914	0.002835
2926	0.0028742
2938	0.0026628
2950	0.0023282
2962	0.001911
2974	0.0014084
2986	0.0010836
2998	0.001225
3010	0.0018844
3022	0.0028392
3034	0.0037996
3046	0.0038892
3058	0.0031206
3070	0.002471
3082	0.0017458
3094	0.0010402
3106	0.0007098
3118	0.0005418
3130	0.0003556
3142	0.0002702
3154	0.0002212
3166	0.00021
3178	0.0002828
3190	0.0003388
3202	0.0003094
3214	0.0003822
3226	0.00042
3238	0.0003682
3250	0.0003164
3262	0.0002548
3274	0.000196
3286	0.0002422
3298	0.0001638
3310	0.0002016
3322	0.0002156
3334	0.000245
3346	0.0002324
3358	0.0002898
3370	0.0003668
3382	0.0006006
3394	0.000994
3406	0.0014826
3418	0.0014476
3430	0.0009464
3442	0.0005908
3454	0.0005026
3466	0.0006398
3478	0.000987
3490	0.0012922
3502	0.0012348
3514	0.0008652
3526	0.0005586
3538	0.0004256
3550	0.0003976
3562	0.0003668
3574	0.000315
3586	0.0004032
3598	0.0003514
3610	0.0005166
3622	0.0006664
3634	0.0010598
3646	0.0016562
3658	0.001673
3670	0.0013454
3682	0.0009212
3694	0.0007252
3706	0.0005264
3718	0.0003626
3730	0.0003584
3742	0.0003388
3754	0.0003332
3766	0.000385
3778	0.0003934
3790	0.0003738
3802	0.0003598
3814	0.0002954
3826	0.000434
3838	0.0004102
