Infrared Spectrum: p-Chlorophenylacetic acid
Formula: C 8 H 7 Cl O 2
CAS: 1878-66-6
State: gas
Origin: EPA-IR VAPOR PHASE LIBRARY
1/CM	ABSORBANCE
549.8	0.014551
559.445	0.009711
569.09	0.009531
578.734	0.012911
588.379	0.020581
598.024	0.029021
607.669	0.032551
617.313	0.030891
626.958	0.028261
636.603	0.024001
646.248	0.017731
655.893	0.012341
665.537	0.008571
675.182	0.007171
684.827	0.007221
694.472	0.008291
704.116	0.007291
713.761	0.006981
723.406	0.010531
733.051	0.015931
742.695	0.015931
752.34	0.010341
761.985	0.006021
771.63	0.005621
781.275	0.008291
790.919	0.015411
800.564	0.023001
810.209	0.020271
819.854	0.011891
829.498	0.007661
839.143	0.009231
848.788	0.008791
858.433	0.005261
868.078	0.004221
877.722	0.004501
887.367	0.004451
897.012	0.003941
906.657	0.003871
916.301	0.003901
925.946	0.004351
935.591	0.005011
945.236	0.004581
954.88	0.003881
964.525	0.003401
974.17	0.002811
983.815	0.002671
993.46	0.002731
1003.1	0.004801
1012.75	0.020891
1022.39	0.021981
1032.04	0.004711
1041.68	0.003961
1051.33	0.005921
1060.97	0.009541
1070.62	0.017481
1080.26	0.037861
1089.91	0.089101
1099.55	0.100921
1109.2	0.103511
1118.84	0.107421
1128.49	0.068831
1138.13	0.045131
1147.78	0.030881
1157.42	0.021901
1167.07	0.018031
1176.71	0.017051
1186.36	0.019311
1196	0.021101
1205.64	0.021941
1215.29	0.019341
1224.93	0.016861
1234.58	0.014301
1244.22	0.012371
1253.87	0.010581
1263.51	0.009761
1273.16	0.009561
1282.8	0.009771
1292.45	0.009191
1302.09	0.008511
1311.74	0.008611
1321.38	0.010021
1331.03	0.013121
1340.67	0.016511
1350.32	0.019481
1359.96	0.019881
1369.61	0.016261
1379.25	0.012191
1388.9	0.009881
1398.54	0.009281
1408.18	0.010091
1417.83	0.010381
1427.47	0.010491
1437.12	0.009671
1446.76	0.006991
1456.41	0.005161
1466.05	0.005401
1475.7	0.010261
1485.34	0.034481
1494.99	0.056671
1504.63	0.022751
1514.28	0.006471
1523.92	0.003291
1533.57	0.002211
1543.21	0.001901
1552.86	0.001601
1562.5	0.001571
1572.15	0.001851
1581.79	0.002491
1591.44	0.003861
1601.08	0.004801
1610.73	0.003491
1620.37	0.002961
1630.01	0.002621
1639.66	0.002201
1649.3	0.001941
1658.95	0.002081
1668.59	0.002241
1678.24	0.002431
1687.88	0.002951
1697.53	0.003711
1707.17	0.005131
1716.82	0.007711
1726.46	0.012291
1736.11	0.020241
1745.75	0.033961
1755.4	0.054761
1765.04	0.080701
1774.69	0.109271
1784.33	0.115531
1793.98	0.088771
1803.62	0.056451
1813.27	0.029591
1822.91	0.014781
1832.55	0.008021
1842.2	0.004801
1851.84	0.003271
1861.49	0.002621
1871.13	0.002541
1880.78	0.002861
1890.42	0.003181
1900.07	0.002831
1909.71	0.002071
1919.36	0.001571
1929	0.001301
1938.65	0.0011499
1948.29	0.001221
1957.94	0.001181
1967.58	0.001211
1977.23	0.0010763
1986.87	0.0010664
1996.52	0.0011001
2006.16	0.000997
2015.81	0.0008904
2025.45	0.0008206
2035.1	0.000781
2044.74	0.0007386
2054.38	0.0007484
2064.03	0.0006711
2073.67	0.0006956
2083.32	0.0006663
2092.96	0.0006344
2102.61	0.0006743
2112.25	0.0007973
2121.9	0.000945
2131.54	0.0008536
2141.19	0.0007539
2150.83	0.0005828
2160.48	0.000629
2170.12	0.000708
2179.77	0.0007259
2189.41	0.000769
2199.06	0.0008762
2208.7	0.0009056
2218.35	0.0010136
2227.99	0.0009855
2237.64	0.0008926
2247.28	0.0008366
2256.92	0.0008035
2266.57	0.0007972
2276.21	0.0008482
2285.86	0.000987
2295.5	0.0010299
2305.15	0.0009568
2314.79	0.0009394
2324.44	0.0009241
2334.08	0.000873
2343.73	0.0007538
2353.37	0.0008483
2363.02	0.0009263
2372.66	0.0008427
2382.31	0.0007411
2391.95	0.000763
2401.6	0.0007728
2411.24	0.0007062
2420.89	0.0006104
2430.53	0.0006233
2440.18	0.0006383
2449.82	0.0006687
2459.47	0.0007247
2469.11	0.0006348
2478.75	0.0006206
2488.4	0.0007115
2498.04	0.0005497
2507.69	0.0005246
2517.33	0.0004725
2526.98	0.0005951
2536.62	0.0006407
2546.27	0.0005113
2555.91	0.000421
2565.56	0.000501
2575.2	0.0005854
2584.85	0.000651
2594.49	0.0006014
2604.14	0.0005332
2613.78	0.0005529
2623.43	0.0005342
2633.07	0.0005803
2642.72	0.000581
2652.36	0.0005523
2662.01	0.0005233
2671.65	0.0006372
2681.29	0.0005157
2690.94	0.000522
2700.58	0.0005488
2710.23	0.0004323
2719.87	0.0004667
2729.52	0.0005549
2739.16	0.0005062
2748.81	0.0003296
2758.45	0.0003294
2768.1	0.0004111
2777.74	0.0005311
2787.39	0.0004991
2797.03	0.0004904
2806.68	0.0006335
2816.32	0.0006062
2825.97	0.0006143
2835.61	0.0006722
2845.26	0.0010163
2854.9	0.0010037
2864.55	0.0010218
2874.19	0.0008316
2883.84	0.0009638
2893.48	0.0010941
2903.12	0.001411
2912.77	0.002181
2922.41	0.003271
2932.06	0.004191
2941.7	0.004451
2951.35	0.003901
2960.99	0.003091
2970.64	0.002951
2980.28	0.003111
2989.93	0.003231
2999.57	0.002751
3009.22	0.002431
3018.86	0.002811
3028.51	0.004561
3038.15	0.006611
3047.8	0.005321
3057.44	0.004031
3067.09	0.003051
3076.73	0.003081
3086.38	0.004031
3096.02	0.004241
3105.67	0.003001
3115.31	0.001621
3124.95	0.0007738
3134.6	0.0004386
3144.24	0.0006515
3153.89	0.000426
3163.53	0.0003008
3173.18	0.0003989
3182.82	0.0003927
3192.47	0.0004228
3202.11	0.000348
3211.76	0.0003588
3221.4	0.0003023
3231.05	0.00018673
3240.69	0.0003131
3250.34	0.0003742
3259.98	0.0001235
3269.63	0.0003693
3279.27	0.0003641
3288.92	0.0003729
3298.56	0.00024674
3308.21	0.0003439
3317.85	0.0003567
3327.49	0.0002659
3337.14	0.0003255
3346.78	0.0002518
3356.43	0.0002575
3366.07	0.0003212
3375.72	0.0001427
3385.36	0.0003639
3395.01	0.0003974
3404.65	0.00017101
3414.3	0.00020105
3423.94	0.00019716
3433.59	0.0004167
3443.23	0.0002615
3452.88	0.000287
3462.52	0.0003108
3472.17	0.0003686
3481.81	0.0005363
3491.46	0.0005536
3501.1	0.0008596
3510.75	0.001321
3520.39	0.001741
3530.04	0.002231
3539.68	0.003631
3549.32	0.006841
3558.97	0.015631
3568.61	0.048391
3578.26	0.051651
3587.9	0.016091
3597.55	0.006131
3607.19	0.002871
3616.84	0.001741
3626.48	0.0011509
3636.13	0.0007568
3645.77	0.0006766
3655.42	0.0005391
3665.06	0.0005259
3674.71	0.0004871
3684.35	0.0005386
3694	0.00020634
3703.64	0.000487
3713.29	0.0004256
3722.93	0.0003866
3732.58	0.0005242
3742.22	0.00021342
3751.86	0.00024841
3761.51	0.0003398
3771.15	0.0003221
3780.8	0.0002918
3790.44	0.00017304
3800.09	0.0002937
3809.73	0.00022531
3819.38	0.0004728
3829.02	0.0004521
3838.67	0.000306
3848.31	0.000288
3857.96	0.0004643
3867.6	0.0002615
3877.25	0.0002956
3886.89	0.0003308
3896.54	0.0003537
3906.18	0.0002005
3915.83	0.0004109
3925.47	0.0003613
3935.12	0
3944.76	0.00022872
3954.41	0.00017144
3964.05	0.0002568
3973.69	0.0002711
3983.34	0.0003017
3992.98	0.0003226
