Infrared Spectrum: 3-Chlorophenylacetic acid
Formula: C 8 H 7 Cl O 2
CAS: 1878-65-5
State: gas
Origin: EPA-IR VAPOR PHASE LIBRARY
1/CM	ABSORBANCE
549.9	0.00395
559.547	0.00499
569.193	0.00872
578.84	0.01965
588.486	0.02643
598.133	0.0182
607.779	0.01599
617.426	0.01452
627.072	0.01185
636.719	0.00949
646.365	0.0074
656.012	0.00672
665.658	0.00917
675.305	0.01669
684.951	0.01829
694.598	0.00999
704.245	0.00656
713.891	0.00572
723.538	0.00518
733.184	0.0052
742.831	0.00556
752.477	0.00589
762.124	0.00694
771.77	0.01043
781.417	0.01054
791.063	0.00494
800.71	0.00213
810.356	0.0016218
820.003	0.0016974
829.649	0.0018738
839.296	0.00253
848.943	0.00352
858.589	0.00462
868.236	0.00544
877.882	0.00735
887.529	0.0077
897.175	0.00546
906.822	0.00381
916.468	0.00307
926.115	0.00305
935.761	0.00307
945.408	0.00298
955.054	0.00256
964.701	0.00222
974.347	0.0017977
983.994	0.001686
993.64	0.0019643
1003.29	0.00215
1012.93	0.0018576
1022.58	0.0021
1032.23	0.00234
1041.87	0.00267
1051.52	0.00343
1061.17	0.00555
1070.81	0.01027
1080.46	0.01906
1090.11	0.03141
1099.75	0.04332
1109.4	0.05641
1119.05	0.05517
1128.69	0.03511
1138.34	0.02316
1147.99	0.01611
1157.63	0.01118
1167.28	0.00909
1176.92	0.00901
1186.57	0.01059
1196.22	0.01372
1205.86	0.01476
1215.51	0.01355
1225.16	0.01081
1234.8	0.00805
1244.45	0.00638
1254.1	0.00566
1263.74	0.00538
1273.39	0.00525
1283.04	0.00522
1292.68	0.00512
1302.33	0.00498
1311.98	0.005
1321.62	0.00572
1331.27	0.00714
1340.92	0.00871
1350.56	0.00999
1360.21	0.01061
1369.86	0.00952
1379.5	0.00681
1389.15	0.00514
1398.79	0.00461
1408.44	0.00485
1418.09	0.00646
1427.73	0.0091
1437.38	0.00885
1447.03	0.00553
1456.67	0.00412
1466.32	0.00704
1475.97	0.01293
1485.61	0.00916
1495.26	0.00415
1504.91	0.00255
1514.55	0.0015677
1524.2	0.0012791
1533.85	0.0013866
1543.49	0.001827
1553.14	0.00303
1562.79	0.00594
1572.43	0.01029
1582.08	0.012
1591.73	0.01344
1601.37	0.01322
1611.02	0.00464
1620.67	0.0017065
1630.31	0.001203
1639.96	0.0010046
1649.6	0.0011092
1659.25	0.0012397
1668.9	0.0015821
1678.54	0.001679
1688.19	0.001812
1697.84	0.00226
1707.48	0.00288
1717.13	0.00404
1726.78	0.0061
1736.42	0.01013
1746.07	0.01732
1755.72	0.02766
1765.36	0.04048
1775.01	0.05522
1784.66	0.05813
1794.3	0.04471
1803.95	0.02929
1813.6	0.01564
1823.24	0.00761
1832.89	0.00413
1842.54	0.00269
1852.18	0.00221
1861.83	0.0020038
1871.47	0.0015636
1881.12	0.0012563
1890.77	0.00103263
1900.41	0.000924
1910.06	0.000916
1919.71	0.00107884
1929.35	0.0012401
1939	0.001133
1948.65	0.000901
1958.29	0.000831
1967.94	0.000795
1977.59	0.000822
1987.23	0.000765
1996.88	0.000747
2006.53	0.000761
2016.17	0.000718
2025.82	0.000683
2035.47	0.000673
2045.11	0.000623
2054.76	0.00059
2064.41	0.000623
2074.05	0.000609
2083.7	0.000538
2093.35	0.000532
2102.99	0.000559
2112.64	0.000612
2122.28	0.000744
2131.93	0.000749
2141.58	0.000565
2151.22	0.000588
2160.87	0.000634
2170.52	0.000645
2180.16	0.000669
2189.81	0.000695
2199.46	0.000747
2209.1	0.000773
2218.75	0.000755
2228.4	0.00076
2238.04	0.0007
2247.69	0.000676
2257.34	0.000638
2266.98	0.000628
2276.63	0.000617
2286.28	0.000669
2295.92	0.000687
2305.57	0.000765
2315.22	0.000817
2324.86	0.000843
2334.51	0.000909
2344.16	0.00087
2353.8	0.000853
2363.45	0.000877
2373.09	0.000855
2382.74	0.000717
2392.39	0.000708
2402.03	0.000674
2411.68	0.000635
2421.33	0.000576
2430.97	0.00058
2440.62	0.000562
2450.27	0.000572
2459.91	0.000578
2469.56	0.000598
2479.21	0.00059
2488.85	0.00054
2498.5	0.000482
2508.15	0.000478
2517.79	0.000526
2527.44	0.000477
2537.09	0.000462
2546.73	0.000466
2556.38	0.000515
2566.03	0.000453
2575.67	0.000395
2585.32	0.000425
2594.96	0.000399
2604.61	0.000468
2614.26	0.000365
2623.9	0.000419
2633.55	0.000336
2643.2	0.000449
2652.84	0.000459
2662.49	0.000462
2672.14	0.000485
2681.78	0.000474
2691.43	0.000443
2701.08	0.0004
2710.72	0.000355
2720.37	0.000396
2730.02	0.000361
2739.66	0.000354
2749.31	0.000414
2758.96	0.00051
2768.6	0.00023
2778.25	0.000381
2787.9	0.000277
2797.54	0.000268
2807.19	0.000383
2816.84	0.000361
2826.48	0.000496
2836.13	0.000359
2845.77	0.000573
2855.42	0.000574
2865.07	0.000629
2874.71	0.000614
2884.36	0.000683
2894.01	0.000692
2903.65	0.000813
2913.3	0.0012659
2922.95	0.00163
2932.59	0.00214
2942.24	0.00223
2951.89	0.0020211
2961.53	0.0017525
2971.18	0.0014541
2980.83	0.0014107
2990.47	0.0014394
3000.12	0.0013275
3009.77	0.0013398
3019.41	0.0015964
3029.06	0.0018167
3038.71	0.00209
3048.35	0.00242
3058	0.00284
3067.64	0.0038
3077.29	0.00424
3086.94	0.00337
3096.58	0.00222
3106.23	0.0011724
3115.88	0.000476
3125.52	0.000347
3135.17	0.000321
3144.82	0.000224
3154.46	0.000162
3164.11	0.000229
3173.76	0.000432
3183.4	0.000205
3193.05	0.000478
3202.7	0.000281
3212.34	0.000175
3221.99	0.000143
3231.64	0.000278
3241.28	9.8e-05
3250.93	0.000286
3260.58	0.000108
3270.22	0.000232
3279.87	0.000254
3289.52	0.000239
3299.16	0.000174
3308.81	0.00027
3318.45	0.00015
3328.1	0.000302
3337.75	0.000206
3347.39	0.000224
3357.04	0.00024
3366.69	0.000342
3376.33	0.000304
3385.98	0.000294
3395.63	0.000268
3405.27	0.00041
3414.92	0.000273
3424.57	0.000411
3434.21	0.000336
3443.86	0.00041
3453.51	0.000419
3463.15	0.000446
3472.8	0.000714
3482.45	0.000711
3492.09	0.000635
3501.74	0.0007
3511.39	0.001012
3521.03	0.00103207
3530.68	0.0013122
3540.33	0.00248
3549.97	0.00426
3559.62	0.00904
3569.26	0.02568
3578.91	0.02531
3588.56	0.00812
3598.2	0.0033
3607.85	0.001862
3617.5	0.0011992
3627.14	0.0009431
3636.79	0.000713
3646.44	0.000752
3656.08	0.000817
3665.73	0.000856
3675.38	0.000734
3685.02	0.000626
3694.67	0.000668
3704.32	0.000548
3713.96	0.0007
3723.61	0.000637
3733.26	0.000598
3742.9	0.000742
3752.55	0.000721
3762.2	0.000722
3771.84	0.000695
3781.49	0.000659
3791.13	0.000775
3800.78	0.000695
3810.43	0.000688
3820.07	0.000673
3829.72	0.000733
3839.37	0.000692
3849.01	0.000574
3858.66	0.000534
3868.31	0.000623
3877.95	0.000734
3887.6	0.000742
3897.25	0.000719
3906.89	0.000721
3916.54	0.000786
3926.19	0.000622
3935.83	0.000699
3945.48	0.000735
3955.13	0.000544
3964.77	0.000741
3974.42	0.000797
3984.07	0.000698
3993.71	0.00062
