Infrared Spectrum: 3-Bromophenylacetic acid
Formula: C 8 H 7 Br O 2
CAS: 1878-67-7
State: gas
Origin: EPA-IR VAPOR PHASE LIBRARY
1/CM	ABSORBANCE
549.8	0.003354
559.445	0.004674
569.09	0.009574
578.734	0.023624
588.379	0.032794
598.024	0.021164
607.669	0.018854
617.313	0.016664
626.958	0.013304
636.603	0.010464
646.248	0.008884
655.893	0.011314
665.537	0.018164
675.182	0.015124
684.827	0.013114
694.472	0.010014
704.116	0.007294
713.761	0.005764
723.406	0.005214
733.051	0.005674
742.695	0.005654
752.34	0.005434
761.985	0.008374
771.63	0.014064
781.275	0.010274
790.919	0.003544
800.564	0.001744
810.209	0.001344
819.854	0.001664
829.498	0.002044
839.143	0.003164
848.788	0.004864
858.433	0.005824
868.078	0.006624
877.722	0.006574
887.367	0.004814
897.012	0.003674
906.657	0.003214
916.301	0.002914
925.946	0.002994
935.591	0.002994
945.236	0.003074
954.88	0.002474
964.525	0.001984
974.17	0.001654
983.815	0.001944
993.46	0.003324
1003.1	0.003124
1012.75	0.002074
1022.39	0.001714
1032.04	0.002094
1041.68	0.002584
1051.33	0.003954
1060.97	0.007374
1070.62	0.015704
1080.26	0.024564
1089.91	0.031184
1099.55	0.040014
1109.2	0.060554
1118.84	0.064904
1128.49	0.041664
1138.13	0.026934
1147.78	0.018304
1157.42	0.013044
1167.07	0.010764
1176.71	0.010254
1186.36	0.012374
1196	0.014904
1205.64	0.015224
1215.29	0.014104
1224.93	0.011944
1234.58	0.009084
1244.22	0.007744
1253.87	0.006564
1263.51	0.006444
1273.16	0.005894
1282.8	0.006144
1292.45	0.006234
1302.09	0.006084
1311.74	0.006044
1321.38	0.007084
1331.03	0.008254
1340.67	0.009734
1350.32	0.011594
1359.96	0.013084
1369.61	0.011574
1379.25	0.008054
1388.9	0.006114
1398.54	0.005214
1408.18	0.005514
1417.83	0.007964
1427.47	0.010904
1437.12	0.009204
1446.76	0.005534
1456.41	0.004574
1466.05	0.008334
1475.7	0.015694
1485.34	0.009514
1494.99	0.003514
1504.63	0.001624
1514.28	0.001334
1523.92	0.001364
1533.57	0.001764
1543.21	0.002504
1552.86	0.004474
1562.5	0.010214
1572.15	0.017574
1581.79	0.014134
1591.44	0.013604
1601.08	0.011564
1610.73	0.003474
1620.37	0.001694
1630.01	0.001284
1639.66	0.001174
1649.3	0.001224
1658.95	0.001494
1668.59	0.001694
1678.24	0.001854
1687.88	0.002084
1697.53	0.002494
1707.17	0.003384
1716.82	0.004714
1726.46	0.007214
1736.11	0.011764
1745.75	0.020154
1755.4	0.032514
1765.04	0.047414
1774.69	0.065294
1784.33	0.070334
1793.98	0.054184
1803.62	0.035934
1813.27	0.019344
1822.91	0.009294
1832.55	0.004944
1842.2	0.003104
1851.84	0.002484
1861.49	0.002324
1871.13	0.001894
1880.78	0.001324
1890.42	0.001194
1900.07	0.0010194
1909.71	0.0009009
1919.36	0.0011199
1929	0.001424
1938.65	0.001304
1948.29	0.0010174
1957.94	0.0009343
1967.58	0.00082
1977.23	0.0007995
1986.87	0.000856
1996.52	0.0007919
2006.16	0.0007421
2015.81	0.0007241
2025.45	0.0007235
2035.1	0.0006124
2044.74	0.0006078
2054.38	0.0005466
2064.03	0.000627
2073.67	0.0006004
2083.32	0.0004894
2092.96	0.000454
2102.61	0.0005291
2112.25	0.0005594
2121.9	0.0007285
2131.54	0.0006398
2141.19	0.0005738
2150.83	0.0006065
2160.48	0.0006131
2170.12	0.000618
2179.77	0.000595
2189.41	0.00073
2199.06	0.0006897
2208.7	0.000747
2218.35	0.0007103
2227.99	0.0007335
2237.64	0.0006453
2247.28	0.0007043
2256.92	0.0006345
2266.57	0.0006041
2276.21	0.0005242
2285.86	0.0005442
2295.5	0.000524
2305.15	0.000607
2314.79	0.0006542
2324.44	0.0006068
2334.08	0.0006506
2343.73	0.0006755
2353.37	0.0007204
2363.02	0.0007874
2372.66	0.0008104
2382.31	0.0006603
2391.95	0.0005258
2401.6	0.0006194
2411.24	0.0005634
2420.89	0.0005757
2430.53	0.0006411
2440.18	0.0005593
2449.82	0.0006869
2459.47	0.0006216
2469.11	0.0006414
2478.75	0.0005485
2488.4	0.0005703
2498.04	0.0004042
2507.69	0.0004099
2517.33	0.0004311
2526.98	0.0005928
2536.62	0.0004515
2546.27	0.0005454
2555.91	0.0004827
2565.56	0.0004488
2575.2	0.0004032
2584.85	0.0005178
2594.49	0.0004548
2604.14	0.0005059
2613.78	0.0003016
2623.43	0.0003559
2633.07	0.0005071
2642.72	0.0005143
2652.36	0.0004276
2662.01	0.0005296
2671.65	0.000519
2681.29	0.0004077
2690.94	0.0003376
2700.58	0.0003686
2710.23	0.0003271
2719.87	0.0003752
2729.52	0.0003087
2739.16	0.0003662
2748.81	0.0004099
2758.45	0.000419
2768.1	0.0003257
2777.74	0.000448
2787.39	0.0004333
2797.03	0.0003512
2806.68	0.0004063
2816.32	0.0004423
2825.97	0.0004297
2835.61	0.0005438
2845.26	0.0006863
2854.9	0.0006014
2864.55	0.0005679
2874.19	0.0006204
2883.84	0.0006025
2893.48	0.0006201
2903.12	0.0008616
2912.77	0.0010506
2922.41	0.001844
2932.06	0.002424
2941.7	0.002664
2951.35	0.002414
2960.99	0.001834
2970.64	0.001664
2980.28	0.001664
2989.93	0.001424
2999.57	0.001564
3009.22	0.001494
3018.86	0.001874
3028.51	0.001984
3038.15	0.002234
3047.8	0.002574
3057.44	0.003274
3067.09	0.004884
3076.73	0.005054
3086.38	0.003734
3096.02	0.002494
3105.67	0.001274
3115.31	0.0005708
3124.95	0.0005441
3134.6	0.0004051
3144.24	0.0003447
3153.89	0.0004792
3163.53	0.0003169
3173.18	0.0004048
3182.82	0.0002572
3192.47	0.0003003
3202.11	0.00025274
3211.76	0.0003179
3221.4	0.0003126
3231.05	8e-06
3240.69	0.000163435
3250.34	0.0002644
3259.98	0.0005005
3269.63	0.0003774
3279.27	0.0001917
3288.92	0.00021625
3298.56	0.00018825
3308.21	0.00024117
3317.85	0.0004064
3327.49	0.00018926
3337.14	0.000161716
3346.78	0.0002797
3356.43	0.00022246
3366.07	6.38e-05
3375.72	0.0003895
3385.36	0.0002552
3395.01	0.0001024
3404.65	0.0002908
3414.3	0.0003706
3423.94	0.000417
3433.59	0.000293
3443.23	0.00020276
3452.88	0.00023376
3462.52	0.00022932
3472.17	0.00023289
3481.81	0.0004495
3491.46	0.0005897
3501.1	0.0006799
3510.75	0.0007669
3520.39	0.0010177
3530.04	0.001484
3539.68	0.002514
3549.32	0.004484
3558.97	0.009414
3568.61	0.029474
3578.26	0.031834
3587.9	0.009824
3597.55	0.004054
3607.19	0.001884
3616.84	0.0009716
3626.48	0.0006702
3636.13	0.0006059
3645.77	0.0004745
3655.42	0.0005409
3665.06	0.0003606
3674.71	0.0002774
3684.35	0.0003898
3694	0.0004044
3703.64	0.00019926
3713.29	0.00022913
3722.93	0.0003439
3732.58	0.00023648
3742.22	0.0003275
3751.86	0.0004412
3761.51	0.0004139
3771.15	0.000423
3780.8	0.00024477
3790.44	0.00023701
3800.09	0.0001246
3809.73	0.000305
3819.38	0.0003266
3829.02	0.0001509
3838.67	0.0001508
3848.31	0.0004232
3857.96	6.44e-05
3867.6	0.00020616
3877.25	0.0004197
3886.89	0.0002668
3896.54	0.00022486
3906.18	0.000308
3915.83	0.0003399
3925.47	0.0004029
3935.12	0.0002856
3944.76	0.0002963
3954.41	0.00014831
3964.05	0.0003397
3973.69	0.00018255
3983.34	0.0003457
3992.98	0.00020534
