Infrared Spectrum: 2-Methoxyphenoxyacetic acid
Formula: C 9 H 10 O 4
CAS: 1878-85-9
State: gas
Origin: EPA-IR VAPOR PHASE LIBRARY
1/CM	ABSORBANCE
549.8	0.016035
559.445	0.017845
569.09	0.020205
578.735	0.021655
588.38	0.021995
598.025	0.022365
607.67	0.023595
617.315	0.024685
626.96	0.023665
636.605	0.021565
646.251	0.018825
655.896	0.015665
665.541	0.013435
675.186	0.011515
684.831	0.009695
694.476	0.008395
704.121	0.007865
713.766	0.008515
723.411	0.013395
733.056	0.032435
742.701	0.065655
752.346	0.063255
761.991	0.034195
771.636	0.015725
781.281	0.007615
790.926	0.004885
800.571	0.004015
810.216	0.004705
819.861	0.007305
829.507	0.010175
839.152	0.011655
848.797	0.011325
858.442	0.010725
868.087	0.009935
877.732	0.008115
887.377	0.006035
897.022	0.004725
906.667	0.004235
916.312	0.004845
925.957	0.005275
935.602	0.004315
945.247	0.003815
954.892	0.004385
964.537	0.005405
974.182	0.006985
983.827	0.009505
993.472	0.013825
1003.12	0.021885
1012.76	0.034015
1022.41	0.047195
1032.05	0.063125
1041.7	0.073555
1051.34	0.068665
1060.99	0.061895
1070.63	0.052025
1080.28	0.034795
1089.92	0.028595
1099.57	0.046505
1109.21	0.088815
1118.86	0.096635
1128.5	0.066955
1138.15	0.048145
1147.79	0.044215
1157.44	0.046865
1167.08	0.050615
1176.73	0.055955
1186.37	0.053245
1196.02	0.059555
1205.66	0.073415
1215.31	0.072795
1224.95	0.066335
1234.6	0.071735
1244.24	0.099785
1253.89	0.132515
1263.53	0.138805
1273.18	0.113335
1282.82	0.082055
1292.47	0.059565
1302.11	0.047135
1311.76	0.041625
1321.4	0.042355
1331.05	0.049625
1340.69	0.057495
1350.34	0.061295
1359.98	0.059825
1369.63	0.047625
1379.27	0.032975
1388.92	0.024255
1398.56	0.019175
1408.21	0.015695
1417.85	0.014635
1427.5	0.018015
1437.14	0.027665
1446.79	0.033525
1456.43	0.039345
1466.08	0.037045
1475.73	0.033245
1485.37	0.061825
1495.02	0.134275
1504.66	0.129695
1514.31	0.049485
1523.95	0.019955
1533.6	0.011515
1543.24	0.008105
1552.89	0.007115
1562.53	0.008285
1572.18	0.012995
1581.82	0.021525
1591.47	0.028345
1601.11	0.024935
1610.76	0.013405
1620.4	0.006245
1630.05	0.004115
1639.69	0.003435
1649.34	0.003115
1658.98	0.003155
1668.63	0.003445
1678.27	0.003585
1687.92	0.003835
1697.56	0.004275
1707.21	0.004915
1716.85	0.006165
1726.5	0.008245
1736.14	0.012065
1745.79	0.017615
1755.43	0.025875
1765.08	0.041375
1774.72	0.072885
1784.37	0.089085
1794.01	0.107965
1803.66	0.154635
1813.3	0.125205
1822.95	0.059045
1832.59	0.028425
1842.24	0.017095
1851.88	0.011355
1861.53	0.008075
1871.17	0.006305
1880.82	0.005155
1890.46	0.003925
1900.11	0.002875
1909.75	0.002695
1919.4	0.002875
1929.04	0.002305
1938.69	0.0016207
1948.33	0.001387
1957.98	0.0012784
1967.62	0.0013605
1977.27	0.0015315
1986.91	0.001775
1996.56	0.002145
2006.2	0.002435
2015.85	0.002775
2025.49	0.002975
2035.14	0.002955
2044.78	0.002795
2054.43	0.002535
2064.07	0.002375
2073.72	0.002035
2083.36	0.001765
2093.01	0.0016876
2102.65	0.0015916
2112.3	0.0013301
2121.94	0.0010495
2131.59	0.0008906
2141.23	0.0008436
2150.88	0.00076495
2160.52	0.0006817
2170.17	0.00068868
2179.81	0.00073881
2189.46	0.00069948
2199.1	0.0007066
2208.75	0.00071248
2218.39	0.0008621
2228.04	0.000881
2237.68	0.0009809
2247.33	0.0011113
2256.97	0.0011111
2266.62	0.0010487
2276.26	0.000941
2285.91	0.0009564
2295.55	0.0009766
2305.2	0.001044
2314.84	0.0011678
2324.49	0.0011909
2334.13	0.0010738
2343.78	0.0008685
2353.42	0.0008203
2363.07	0.0008142
2372.72	0.00072188
2382.36	0.000562
2392.01	0.000476
2401.65	0.000543
2411.3	0.0008002
2420.94	0.0008472
2430.59	0.00075915
2440.23	0.00071478
2449.88	0.00072865
2459.52	0.00071461
2469.17	0.00075125
2478.81	0.00075324
2488.46	0.0008252
2498.1	0.000965
2507.75	0.0010335
2517.39	0.0011729
2527.04	0.0012783
2536.68	0.0013879
2546.33	0.0014695
2555.97	0.0014514
2565.62	0.0013041
2575.26	0.0011886
2584.91	0.0008623
2594.55	0.0006644
2604.2	0.000486
2613.84	0.00037
2623.49	0.000165
2633.13	0.00018
2642.78	0.000125
2652.42	6.6e-05
2662.07	3.1e-05
2671.71	0.000146
2681.36	9e-05
2691	6.6e-05
2700.65	0.00019
2710.29	0.000137
2719.94	0.000189
2729.58	0.000226
2739.23	0.000222
2748.87	0.000315
2758.52	0.000506
2768.16	0.0006087
2777.81	0.0007697
2787.45	0.0008128
2797.1	0.0011756
2806.74	0.001765
2816.39	0.002695
2826.03	0.004895
2835.68	0.009855
2845.32	0.014205
2854.97	0.011515
2864.61	0.007875
2874.26	0.006945
2883.9	0.007315
2893.55	0.008735
2903.19	0.010855
2912.84	0.014035
2922.48	0.018245
2932.13	0.023695
2941.77	0.031165
2951.42	0.031815
2961.06	0.025155
2970.71	0.018455
2980.35	0.013765
2990	0.011785
2999.64	0.013335
3009.29	0.014965
3018.93	0.011835
3028.58	0.009195
3038.22	0.009965
3047.87	0.011025
3057.51	0.011725
3067.16	0.014905
3076.8	0.016995
3086.45	0.013055
3096.09	0.006605
3105.74	0.003955
3115.38	0.002615
3125.03	0.0014739
3134.67	0.0007959
3144.32	0.000704422
3153.96	0.000489
3163.61	0.000415
3173.25	0.000411
3182.9	0.000347
3192.54	0.00022
3202.19	0.000132
3211.83	0.000285
3221.48	0.000207
3231.12	0.000293
3240.77	0.000385
3250.41	0.000439
3260.06	0.0005961
3269.7	0.00070986
3279.35	0.0009231
3289	0.001175
3298.64	0.001343
3308.29	0.0014792
3317.93	0.001975
3327.58	0.002245
3337.22	0.002485
3346.87	0.002675
3356.51	0.002975
3366.16	0.003465
3375.8	0.004055
3385.45	0.005155
3395.09	0.006965
3404.74	0.009135
3414.38	0.010435
3424.03	0.010565
3433.67	0.009905
3443.32	0.009215
3452.96	0.009085
3462.61	0.009235
3472.25	0.010435
3481.9	0.012175
3491.54	0.015385
3501.19	0.020055
3510.83	0.022775
3520.48	0.018475
3530.12	0.012055
3539.77	0.008395
3549.41	0.007425
3559.06	0.010655
3568.7	0.028635
3578.35	0.038505
3587.99	0.018285
3597.64	0.006035
3607.28	0.003215
3616.93	0.002065
3626.57	0.0015508
3636.22	0.0009104
3645.86	0.0007629
3655.51	0.00058
3665.15	0.000313
3674.8	0.000342
3684.44	0.00014
3694.09	0.000242
3703.73	0.000295
3713.38	0.000209
3723.02	0.000366
3732.67	0.000261
3742.31	0.00033
3751.96	0.00024
3761.6	0.000104
3771.25	0.000341
3780.89	6.1e-05
3790.54	0.000206
3800.18	0.000258
3809.83	0.000194
3819.47	0.000306
3829.12	0.000324
3838.76	0.000417
3848.41	0.000321
3858.05	0.000475
3867.7	0.000314
3877.34	0.000375
3886.99	0.000428
3896.63	0.000561
3906.28	0.0006366
3915.92	0.000536
3925.57	0.000219
3935.21	0.000436
3944.86	0.000286
3954.5	0.000167
3964.15	0.000427
3973.79	0.000379
3983.44	0.000482
3993.08	0.000434
