Infrared Spectrum: 3-Bromothiophene-2-carbonitrile
Formula: C 5 H 2 Br N S
CAS: 18791-98-5
State: gas
Origin: EPA-IR VAPOR PHASE LIBRARY
1/CM	ABSORBANCE
549.8	0.00384
559.445	0.002664
569.09	0.001481
578.734	0.00362
588.379	0.00379
598.024	0.00685
607.669	0.012
617.313	0.00711
626.958	0.00467
636.603	0.00343
646.248	0.00275
655.893	0.0025281
665.537	0.0017844
675.182	0.00322
684.827	0.00365
694.472	0.00568
704.116	0.02045
713.761	0.04771
723.406	0.06626
733.051	0.03456
742.695	0.00754
752.34	0.00318
761.985	0.0025281
771.63	0.0026277
781.275	0.0025203
790.919	0.00276
800.564	0.00365
810.209	0.00536
819.854	0.00623
829.498	0.00435
839.143	0.00574
848.788	0.00634
858.433	0.01743
868.078	0.07156
877.722	0.08425
887.367	0.02185
897.012	0.00456
906.657	0.00446
916.301	0.00516
925.946	0.00436
935.591	0.00322
945.236	0.0025612
954.88	0.001544
964.525	0.00289
974.17	0.00318
983.815	0.0022958
993.46	0.001513
1003.1	0.001502
1012.75	0.001458
1022.39	0.0019033
1032.04	0.0021123
1041.68	0.0025826
1051.33	0.0022327
1060.97	0.00288
1070.62	0.00282
1080.26	0.00721
1089.91	0.00374
1099.55	0.00326
1109.2	0.00409
1118.84	0.00395
1128.49	0.0019707
1138.13	0.00608
1147.78	0.00707
1157.42	0.01968
1167.07	0.01891
1176.71	0.00963
1186.36	0.00557
1196	0.00557
1205.64	0.00501
1215.29	0.00483
1224.93	0.00599
1234.58	0.00634
1244.22	0.00412
1253.87	0.00476
1263.51	0.00452
1273.16	0.0029
1282.8	0.00363
1292.45	0.00373
1302.09	0.0031
1311.74	0.00308
1321.38	0.00455
1331.03	0.0072
1340.67	0.01364
1350.32	0.02112
1359.96	0.01571
1369.61	0.00397
1379.25	0.00549
1388.9	0.00859
1398.54	0.01262
1408.18	0.02376
1417.83	0.02563
1427.47	0.01418
1437.12	0.01253
1446.76	0.01085
1456.41	0.00434
1466.05	0.00344
1475.7	0.00498
1485.34	0.00923
1494.99	0.02182
1504.63	0.02677
1514.28	0.01331
1523.92	0.00297
1533.57	0.0022082
1543.21	0.0021163
1552.86	0.0017985
1562.5	0.0021192
1572.15	0.00292
1581.79	0.00347
1591.44	0.00624
1601.08	0.00574
1610.73	0.00269
1620.37	0.0024557
1630.01	0.0021821
1639.66	0.0024353
1649.3	0.0022863
1658.95	0.0027
1668.59	0.002333
1678.24	0.00281
1687.88	0.00276
1697.53	0.0026585
1707.17	0.0023484
1716.82	0.0022683
1726.46	0.0024506
1736.11	0.00367
1745.75	0.00542
1755.4	0.00503
1765.04	0.00332
1774.69	0.0025233
1784.33	0.0021646
1793.98	0.0018011
1803.62	0.0019153
1813.27	0.0021017
1822.91	0.0020985
1832.55	0.0019486
1842.2	0.002151
1851.84	0.0020687
1861.49	0.00174206
1871.13	0.0020778
1880.78	0.0019864
1890.42	0.0016632
1900.07	0.0020716
1909.71	0.00176576
1919.36	0.0018516
1929	0.0018558
1938.65	0.0018223
1948.29	0.0019819
1957.94	0.001993
1967.58	0.0021767
1977.23	0.0019837
1986.87	0.0018776
1996.52	0.00171443
2006.16	0.0020085
2015.81	0.0021679
2025.45	0.0021433
2035.1	0.0018664
2044.74	0.0018352
2054.38	0.0017943
2064.03	0.0019349
2073.67	0.001519
2083.32	0.0018197
2092.96	0.0019464
2102.61	0.0016526
2112.25	0.0017583
2121.9	0.0016379
2131.54	0.0017447
2141.19	0.00173407
2150.83	0.0020496
2160.48	0.0021135
2170.12	0.0023101
2179.77	0.0020777
2189.41	0.0019263
2199.06	0.0024899
2208.7	0.0054
2218.35	0.012
2227.99	0.01588
2237.64	0.01165
2247.28	0.00418
2256.92	0.0021645
2266.57	0.00175146
2276.21	0.0017917
2285.86	0.001492
2295.5	0.0020035
2305.15	0.00170969
2314.79	0.0017127
2324.44	0.001513
2334.08	0.001459
2343.73	0.00171441
2353.37	0.0016032
2363.02	0.00167056
2372.66	0.001339
2382.31	0.0015844
2391.95	0.001534
2401.6	0.001477
2411.24	0.001427
2420.89	0.0017954
2430.53	0.0018195
2440.18	0.001423
2449.82	0.001499
2459.47	0.0018643
2469.11	0.002003
2478.75	0.001531
2488.4	0.00171074
2498.04	0.001549
2507.69	0.0020003
2517.33	0.001563
2526.98	0.001313
2536.62	0.001474
2546.27	0.0020635
2555.91	0.0017812
2565.56	0.0018538
2575.2	0.0025093
2584.85	0.001479
2594.49	0.001562
2604.14	0.0018053
2613.78	0.001471
2623.43	0.0016551
2633.07	0.001308
2642.72	0.001548
2652.36	0.0015867
2662.01	0.001407
2671.65	0.001508
2681.29	0.001219
2690.94	0.000863
2700.58	0.001022
2710.23	0.0016643
2719.87	0.0021717
2729.52	0.0018213
2739.16	0.0016265
2748.81	0.0020821
2758.45	0.0021143
2768.1	0.0016333
2777.74	0.0016374
2787.39	0.00171447
2797.03	0.00177375
2806.68	0.001329
2816.32	0.0017145
2825.97	0.001431
2835.61	0.000835
2845.26	0.001425
2854.9	0.00123
2864.55	0.001451
2874.19	0.001466
2883.84	0.001148
2893.48	0.00169915
2903.12	0.001165
2912.77	0.001229
2922.41	0.0016537
2932.06	0.00089
2941.7	0.001504
2951.35	0.0018612
2960.99	0.001003
2970.64	0.000742
2980.28	0.001024
2989.93	0.0018783
2999.57	0.00146
3009.22	0.001069
3018.86	0.001318
3028.51	0.000791
3038.15	0.0015903
3047.8	0.001026
3057.44	0.001188
3067.09	0.001186
3076.73	0.001216
3086.38	0.000871
3096.02	0.0025754
3105.67	0.00289
3115.31	0.00289
3124.95	0.0021396
3134.6	0.00170768
3144.24	0.001534
3153.89	0.000969
3163.53	0.001564
3173.18	0.00117
3182.82	0.000749
3192.47	0.0019173
3202.11	0.001243
3211.76	0.001172
3221.4	0.001551
3231.05	0.001363
3240.69	0.001052
3250.34	0.001175
3259.98	0.001351
3269.63	0.001491
3279.27	0.001055
3288.92	0.00177864
3298.56	0.001038
3308.21	0.0016519
3317.85	0.00174941
3327.49	0.001355
3337.14	0.001521
3346.78	0.001386
3356.43	0.001507
3366.07	0.00167222
3375.72	0.0023035
3385.36	0.001532
3395.01	0.001074
3404.65	0.001347
3414.3	0.001307
3423.94	0.0019505
3433.59	0.001561
3443.23	0.001328
3452.88	0.001191
3462.52	0.001311
3472.17	0.001265
3481.81	0.001227
3491.46	0.001059
3501.1	0.0016397
3510.75	0.000939
3520.39	0.001393
3530.04	0.001568
3539.68	0.00036
3549.32	0.001505
3558.97	0.0016505
3568.61	0.0021483
3578.26	0.001419
3587.9	0.001464
3597.55	0.001034
3607.19	0.00171707
3616.84	0.0019468
3626.48	0.0021386
3636.13	0.0020389
3645.77	0.0021688
3655.42	0.001552
3665.06	0.00158
3674.71	0.0016688
3684.35	0.001073
3694	0.001475
3703.64	0.001284
3713.29	0.001285
3722.93	0.0021416
3732.58	0.00087
3742.22	0.001452
3751.86	0.001032
3761.51	0.001093
3771.15	0.00057
3780.8	0.0017844
3790.44	0.001888
3800.09	0.0025772
3809.73	0.0015
3819.38	0.000802
3829.02	0.0018282
3838.67	0.0016002
3848.31	0.001328
3857.96	0.0023656
3867.6	0.001336
3877.25	0.001368
3886.89	0.000958
3896.54	0.00066
3906.18	0.0016379
3915.83	0.00143
3925.47	0.00153
3935.12	0.001049
3944.76	0.00054
3954.41	0.001311
3964.05	0.0025473
3973.69	0.0020548
3983.34	0.00271
3992.98	0.0011
