Infrared Spectrum: 8-p-MENTHENE (CIS)
Formula: C10 H18
CAS: 1879-07-8
Class: COBLENTZ
Instrument: Not specified, most likely a prism, grating, or hybrid spectrometer.
Sampling: TRANSMISSION
Resolution: 4
Origin: INTERNATIONAL FLAVORS & FRAGRANCES, INC.
MICROMETERS	TRANSMITTANCE
2.036	0.945
2.07237	0.943
2.10873	0.9451
2.1451	0.9448
2.18146	0.945
2.21783	0.946
2.2542	0.942
2.29056	0.9283
2.32693	0.8995
2.36329	0.91
2.39966	0.923
2.43603	0.926
2.47239	0.928
2.50876	0.9289
2.54512	0.9329
2.58149	0.934
2.61786	0.9369
2.65422	0.943
2.69059	0.946
2.72695	0.949
2.76332	0.949
2.79969	0.949
2.83605	0.948
2.87242	0.945
2.90878	0.94
2.94515	0.936
2.98152	0.933
3.01788	0.9261
3.05425	0.9279
3.09061	0.931
3.12698	0.926
3.16334	0.917
3.19971	0.7473
3.23608	0.6783
3.27244	0.817
3.30881	0.7035
3.34517	0.3497
3.38154	0.0966
3.41791	0.0638
3.45427	0.123
3.49064	0.1181
3.527	0.3269
3.56337	0.8065
3.59974	0.8599
3.6361	0.881
3.67247	0.8789
3.70883	0.8901
3.7452	0.884
3.78157	0.896
3.81793	0.9079
3.8543	0.9197
3.89066	0.9327
3.92703	0.942
3.9634	0.945
3.99976	0.9478
4.03613	0.949
4.07249	0.952
4.10886	0.952
4.14523	0.954
4.18159	0.952
4.21796	0.948
4.25432	0.949
4.29069	0.952
4.32706	0.954
4.36342	0.955
4.39979	0.957
4.43615	0.955
4.47252	0.9522
4.50889	0.9549
4.54525	0.955
4.58162	0.9569
4.61798	0.957
4.65435	0.957
4.69072	0.957
4.72708	0.957
4.76345	0.955
4.79981	0.955
4.83618	0.957
4.87255	0.957
4.90891	0.958
4.94528	0.96
4.98164	0.96
5.01801	0.961
5.05437	0.96
5.09074	0.96
5.12711	0.96
5.16347	0.96
5.19984	0.96
5.2362	0.961
5.27257	0.958
5.30894	0.958
5.3453	0.958
5.38167	0.957
5.41803	0.9563
5.4544	0.9534
5.49077	0.9507
5.52713	0.9272
5.5635	0.8747
5.59986	0.8779
5.63623	0.9137
5.6726	0.9339
5.70896	0.9417
5.74533	0.945
5.78169	0.9422
5.81806	0.937
5.85443	0.9319
5.89079	0.921
5.92716	0.903
5.96352	0.8663
5.99989	0.7005
6.03626	0.39
6.07262	0.7649
6.10899	0.841
6.14535	0.8695
6.18172	0.89
6.21809	0.893
6.25445	0.8911
6.29082	0.894
6.32718	0.9008
6.36355	0.9079
6.39992	0.911
6.43628	0.916
6.47265	0.917
6.50901	0.9165
6.54538	0.912
6.58175	0.9031
6.61811	0.8927
6.65448	0.8778
6.69084	0.8402
6.72721	0.7159
6.76358	0.3596
6.79994	0.3243
6.83631	0.2594
6.87267	0.2669
6.90904	0.3559
6.94541	0.5453
6.98177	0.658
7.01814	0.7543
7.0545	0.7875
7.09087	0.792
7.12723	0.775
7.1636	0.6769
7.19997	0.3844
7.23633	0.461
7.2727	0.5978
7.30906	0.7278
7.34543	0.797
7.3818	0.8124
7.41816	0.8433
7.45453	0.863
7.49089	0.864
7.52726	0.867
7.56363	0.8729
7.59999	0.875
7.63636	0.876
7.67272	0.876
7.70909	0.859
7.74546	0.8575
7.78182	0.8886
7.81819	0.892
7.85455	0.8875
7.89092	0.8618
7.92729	0.8479
7.96365	0.8353
8.00002	0.8667
8.03638	0.876
8.07275	0.8688
8.10912	0.858
8.14548	0.867
8.18185	0.878
8.21821	0.8757
8.25458	0.8922
8.29095	0.888
8.32731	0.8893
8.36368	0.902
8.40004	0.8943
8.43641	0.8592
8.47278	0.858
8.50914	0.8192
8.54551	0.8544
8.58187	0.8896
8.61824	0.9024
8.65461	0.908
8.69097	0.911
8.72734	0.9048
8.7637	0.881
8.80007	0.896
8.83644	0.905
8.8728	0.91
8.90917	0.911
8.94553	0.911
8.9819	0.913
9.01826	0.911
9.05463	0.9029
9.091	0.897
9.12736	0.8866
9.16373	0.8711
9.20009	0.8564
9.23646	0.8736
9.27283	0.8777
9.30919	0.8748
9.34556	0.8697
9.38192	0.8425
9.41829	0.721
9.45466	0.7917
9.49102	0.852
9.52739	0.864
9.56375	0.857
9.60012	0.8307
9.63649	0.847
9.67285	0.864
9.70922	0.863
9.74558	0.8695
9.78195	0.875
9.81832	0.8842
9.85468	0.888
9.89105	0.887
9.92741	0.8819
9.96378	0.8748
10.0001	0.8667
10.0365	0.8438
10.0729	0.7961
10.1092	0.7881
10.1456	0.817
10.182	0.8313
10.2183	0.7927
10.2547	0.8097
10.2911	0.8445
10.3274	0.867
10.3638	0.8585
10.4002	0.8649
10.4365	0.879
10.4729	0.8683
10.5093	0.8474
10.5456	0.8674
10.582	0.8794
10.6184	0.887
10.6547	0.8819
10.6911	0.8586
10.7275	0.846
10.7638	0.8709
10.8002	0.8834
10.8366	0.8864
10.8729	0.8827
10.9093	0.8754
10.9457	0.8601
10.982	0.8399
11.0184	0.7883
11.0548	0.7325
11.0911	0.68
11.1275	0.4624
11.1639	0.2157
11.2002	0.095
11.2366	0.1014
11.273	0.174
11.3093	0.2592
11.3457	0.3888
11.3821	0.5224
11.4184	0.6242
11.4548	0.7199
11.4912	0.7841
11.5275	0.8265
11.5639	0.8544
11.6002	0.8706
11.6366	0.8827
11.673	0.8946
11.7093	0.9085
11.7457	0.914
11.7821	0.919
11.8184	0.92
11.8548	0.923
11.8912	0.923
11.9275	0.925
11.9639	0.929
12.0003	0.9326
12.0366	0.934
12.073	0.934
12.1094	0.9316
12.1457	0.933
12.1821	0.931
12.2185	0.929
12.2548	0.926
12.2912	0.919
12.3276	0.8976
12.3639	0.8637
12.4003	0.863
12.4367	0.882
12.473	0.898
12.5094	0.901
12.5458	0.904
12.5821	0.91
12.6185	0.91
12.6549	0.908
12.6912	0.9155
12.7276	0.9214
12.764	0.9273
12.8003	0.931
12.8367	0.9349
12.8731	0.937
12.9094	0.9353
12.9458	0.936
12.9822	0.934
13.0185	0.9258
13.0549	0.9074
13.0913	0.9012
13.1276	0.9112
13.164	0.9218
13.2004	0.9358
13.2367	0.9392
13.2731	0.939
13.3094	0.94
13.3458	0.942
13.3822	0.9423
13.4185	0.9426
13.4549	0.9425
13.4913	0.942
13.5276	0.94
13.564	0.94
13.6004	0.94
13.6367	0.942
13.6731	0.942
13.7095	0.942
13.7458	0.94
13.7822	0.94
13.8186	0.939
13.8549	0.9373
13.8913	0.937
13.9277	0.939
13.964	0.936
14.0004	0.937
14.0368	0.936
14.0731	0.936
14.1095	0.936
14.1459	0.936
14.1822	0.934
14.2186	0.933
14.255	0.933
14.2913	0.931
14.3277	0.931
14.3641	0.931
14.4004	0.933
14.4368	0.933
14.4732	0.933
14.5095	0.934
14.5459	0.9332
14.5823	0.933
14.6186	0.933
14.655	0.936
14.6914	0.936
14.7277	0.9351
14.7641	0.928
14.8005	0.92
14.8368	0.9154
14.8732	0.9107
14.9096	0.9005
14.9459	0.8917
