Infrared Spectrum: BENZO(1,2,3-cd;4,5,6-c'd')DIPERYLENE
Formula: C40 H20
CAS: 188-73-8
State: SOLID (KBr PELLET)
Melting point: ABOVE 570 C
Class: COBLENTZ
Instrument: Not specified, most likely a prism, grating, or hybrid spectrometer.
Sampling: TRANSMISSION
Resolution: 4
Origin: UNION CARBIDE CORPORATION (CARBON PRODUCTS DIVISION)
MICROMETERS	TRANSMITTANCE
2.027	0.066
2.06018	0.067
2.09336	0.069
2.12654	0.07
2.15971	0.071
2.19289	0.071
2.22607	0.078
2.25925	0.081
2.29243	0.089
2.32561	0.091
2.35879	0.097
2.39197	0.101
2.42514	0.11
2.45832	0.11
2.4915	0.113
2.52468	0.113
2.55786	0.115
2.59104	0.117
2.62422	0.118
2.65739	0.119
2.69057	0.119
2.72375	0.122
2.75693	0.127
2.79011	0.13
2.82329	0.132
2.85647	0.132
2.88964	0.132
2.92282	0.134
2.956	0.136
2.98918	0.142
3.02236	0.15
3.05554	0.152
3.08872	0.162
3.1219	0.162
3.15507	0.164
3.18825	0.17
3.22143	0.176
3.25461	0.179
3.28779	0.18
3.32097	0.18
3.35415	0.183
3.38732	0.191
3.4205	0.196
3.45368	0.2
3.48686	0.21
3.52004	0.211
3.55322	0.214
3.5864	0.22
3.61957	0.223
3.65275	0.23
3.68593	0.232
3.71911	0.235
3.75229	0.238
3.78547	0.242
3.81865	0.244
3.85183	0.247
3.885	0.255
3.91818	0.26
3.95136	0.263
3.98454	0.264
4.01772	0.269
4.0509	0.275
4.08408	0.28
4.11725	0.283
4.15043	0.285
4.18361	0.288
4.21679	0.288
4.24997	0.288
4.28315	0.288
4.31633	0.289
4.34951	0.292
4.38268	0.307
4.41586	0.32
4.44904	0.321
4.48222	0.324
4.5154	0.332
4.54858	0.333
4.58176	0.337
4.61493	0.341
4.64811	0.349
4.68129	0.353
4.71447	0.355
4.74765	0.36
4.78083	0.363
4.81401	0.375
4.84718	0.373
4.88036	0.377
4.91354	0.378
4.94672	0.381
4.9799	0.385
5.01308	0.39
5.04626	0.392
5.07944	0.394
5.11261	0.402
5.14579	0.405
5.17897	0.408
5.21215	0.406
5.24533	0.409
5.27851	0.412
5.31169	0.418
5.34486	0.418
5.37804	0.42
5.41122	0.422
5.4444	0.429
5.47758	0.433
5.51076	0.438
5.54394	0.44
5.57711	0.44
5.61029	0.44
5.64347	0.44
5.67665	0.444
5.70983	0.446
5.74301	0.45
5.77619	0.46
5.80937	0.462
5.84254	0.465
5.87572	0.468
5.9089	0.47
5.94208	0.473
5.97526	0.481
6.00844	0.481
6.04162	0.482
6.07479	0.482
6.10797	0.484
6.14115	0.488
6.17433	0.48
6.20751	0.481
6.24069	0.49
6.27387	0.466
6.30705	0.456
6.34022	0.469
6.3734	0.481
6.40658	0.484
6.43976	0.49
6.47294	0.492
6.50612	0.506
6.5393	0.517
6.57247	0.523
6.60565	0.529
6.63883	0.49
6.67201	0.406
6.70519	0.437
6.73837	0.481
6.77155	0.5
6.80472	0.515
6.8379	0.522
6.87108	0.526
6.90426	0.529
6.93744	0.53
6.97062	0.53
7.0038	0.531
7.03698	0.537
7.07015	0.545
7.10333	0.553
7.13651	0.561
7.16969	0.562
7.20287	0.408
7.23605	0.44
7.26923	0.505
7.3024	0.519
7.33558	0.522
7.36876	0.535
7.40194	0.55
7.43512	0.551
7.4683	0.55
7.50148	0.558
7.53465	0.565
7.56783	0.571
7.60101	0.581
7.63419	0.585
7.66737	0.591
7.70055	0.591
7.73373	0.562
7.76691	0.501
7.80008	0.538
7.83326	0.567
7.86644	0.582
7.89962	0.587
7.9328	0.591
7.96598	0.599
7.99916	0.606
8.03233	0.615
8.06551	0.621
8.09869	0.619
8.13187	0.593
8.16505	0.526
8.19823	0.555
8.23141	0.542
8.26459	0.571
8.29776	0.457
8.33094	0.549
8.36412	0.571
8.3973	0.585
8.43048	0.593
8.46366	0.603
8.49684	0.606
8.53001	0.609
8.56319	0.619
8.59637	0.618
8.62955	0.619
8.66273	0.634
8.69591	0.631
8.72909	0.63
8.76226	0.636
8.79544	0.648
8.82862	0.65
8.8618	0.651
8.89498	0.655
8.92816	0.664
8.96134	0.664
8.99452	0.667
9.02769	0.674
9.06087	0.678
9.09405	0.687
9.12723	0.688
9.16041	0.688
9.19359	0.688
9.22677	0.69
9.25994	0.696
9.29312	0.7
9.3263	0.702
9.35948	0.707
9.39266	0.712
9.42584	0.712
9.45902	0.715
9.49219	0.712
9.52537	0.712
9.55855	0.719
9.59173	0.722
9.62491	0.727
9.65809	0.735
9.69127	0.738
9.72445	0.74
9.75762	0.744
9.7908	0.747
9.82398	0.751
9.85716	0.753
9.89034	0.757
9.92352	0.76
9.9567	0.76
9.98987	0.761
10.0231	0.764
10.0562	0.769
10.0894	0.771
10.1226	0.764
10.1558	0.74
10.1889	0.746
10.2221	0.759
10.2553	0.76
10.2885	0.76
10.3217	0.76
10.3548	0.759
10.388	0.759
10.4212	0.76
10.4544	0.761
10.4876	0.768
10.5207	0.775
10.5539	0.777
10.5871	0.779
10.6203	0.781
10.6534	0.784
10.6866	0.787
10.7198	0.789
10.753	0.795
10.7862	0.799
10.8193	0.8
10.8525	0.801
10.8857	0.8
10.9189	0.808
10.9521	0.811
10.9852	0.815
11.0184	0.815
11.0516	0.813
11.0848	0.812
11.1179	0.811
11.1511	0.809
11.1843	0.804
11.2175	0.808
11.2507	0.812
11.2838	0.811
11.317	0.809
11.3502	0.809
11.3834	0.811
11.4166	0.815
11.4497	0.82
11.4829	0.825
11.5161	0.84
11.5493	0.843
11.5824	0.848
11.6156	0.847
11.6488	0.84
11.682	0.853
11.7152	0.865
11.7483	0.869
11.7815	0.867
11.8147	0.856
11.8479	0.849
11.8811	0.849
11.9142	0.856
11.9474	0.868
11.9806	0.869
12.0138	0.869
12.047	0.86
12.0801	0.829
12.1133	0.769
12.1465	0.683
12.1797	0.582
12.2128	0.567
12.246	0.488
12.2792	0.28
12.3124	0.119
12.3456	0.098
12.3787	0.208
12.4119	0.328
12.4451	0.45
12.4783	0.541
12.5115	0.561
12.5446	0.577
12.5778	0.627
12.611	0.674
12.6442	0.692
12.6773	0.71
12.7105	0.7
12.7437	0.704
12.7769	0.727
12.8101	0.752
12.8432	0.779
12.8764	0.783
12.9096	0.769
12.9428	0.76
12.976	0.739
13.0091	0.711
13.0423	0.667
13.0755	0.605
13.1087	0.529
13.1418	0.433
13.175	0.332
13.2082	0.281
13.2414	0.28
13.2746	0.341
13.3077	0.448
13.3409	0.517
13.3741	0.575
13.4073	0.615
13.4405	0.642
13.4736	0.662
13.5068	0.68
13.54	0.7
13.5732	0.711
13.6063	0.727
13.6395	0.738
13.6727	0.74
13.7059	0.748
13.7391	0.75
13.7722	0.75
13.8054	0.753
13.8386	0.76
13.8718	0.764
13.905	0.764
13.9381	0.764
13.9713	0.772
14.0045	0.773
14.0377	0.775
14.0708	0.775
14.104	0.779
14.1372	0.78
14.1704	0.779
14.2036	0.776
14.2367	0.776
14.2699	0.772
14.3031	0.752
14.3363	0.744
14.3695	0.746
14.4026	0.752
14.4358	0.756
14.469	0.759
14.5022	0.759
14.5353	0.757
14.5685	0.756
14.6017	0.755
14.6349	0.75
14.6681	0.75
14.7012	0.746
14.7344	0.746
14.7676	0.744
14.8008	0.743
14.834	0.742
14.8671	0.74
14.9003	0.731
14.9335	0.69
14.9667	0.566
14.9998	0.494
15.033	0.558
