Infrared Spectrum: DIBENZO(c,g)PHENANTHRENE
Formula: C22 H14
CAS: 188-52-3
State: SOLID (KBr PELLET)
Melting point: 177-8 C
Class: COBLENTZ
Instrument: PERKIN-ELMER
Sampling: TRANSMISSION
Resolution: 4
Origin: UNION CARBIDE CORPORATION (CARBON PRODUCTS DIVISION)
MICROMETERS	TRANSMITTANCE
2.02	0.325
2.05382	0.327
2.08764	0.327
2.12146	0.327
2.15528	0.33
2.1891	0.332
2.22292	0.335
2.25675	0.344
2.29057	0.352
2.32439	0.361
2.35821	0.371
2.39203	0.379
2.42585	0.389
2.45967	0.398
2.49349	0.41
2.52731	0.428
2.56113	0.445
2.59495	0.457
2.62877	0.471
2.66259	0.483
2.69642	0.494
2.73024	0.503
2.76406	0.508
2.79788	0.518
2.8317	0.52
2.86552	0.522
2.89934	0.522
2.93316	0.515
2.96698	0.513
3.0008	0.515
3.03462	0.52
3.06844	0.525
3.10226	0.537
3.13609	0.538
3.16991	0.538
3.20373	0.538
3.23755	0.527
3.27137	0.464
3.30519	0.35
3.33901	0.379
3.37283	0.43
3.40665	0.449
3.44047	0.45
3.47429	0.454
3.50811	0.464
3.54193	0.491
3.57576	0.506
3.60958	0.52
3.6434	0.533
3.67722	0.544
3.71104	0.55
3.74486	0.55
3.77868	0.554
3.8125	0.557
3.84632	0.561
3.88014	0.564
3.91396	0.571
3.94778	0.574
3.9816	0.581
4.01543	0.586
4.04925	0.598
4.08307	0.606
4.11689	0.608
4.15071	0.61
4.18453	0.61
4.21835	0.61
4.25217	0.611
4.28599	0.61
4.31981	0.61
4.35363	0.61
4.38745	0.61
4.42127	0.61
4.4551	0.616
4.48892	0.618
4.52274	0.618
4.55656	0.622
4.59038	0.625
4.6242	0.627
4.65802	0.628
4.69184	0.632
4.72566	0.637
4.75948	0.638
4.7933	0.647
4.82712	0.65
4.86094	0.655
4.89476	0.661
4.92859	0.666
4.96241	0.672
4.99623	0.672
5.03005	0.672
5.06387	0.676
5.09769	0.671
5.13151	0.662
5.16533	0.655
5.19915	0.638
5.23297	0.622
5.26679	0.618
5.30061	0.647
5.33443	0.676
5.36826	0.7
5.40208	0.698
5.4359	0.689
5.46972	0.688
5.50354	0.686
5.53736	0.686
5.57118	0.689
5.605	0.683
5.63882	0.683
5.67264	0.688
5.70646	0.696
5.74028	0.694
5.7741	0.694
5.80793	0.696
5.84175	0.696
5.87557	0.696
5.90939	0.7
5.94321	0.711
5.97703	0.723
6.01085	0.722
6.04467	0.722
6.07849	0.723
6.11231	0.725
6.14613	0.713
6.17995	0.645
6.21377	0.628
6.2476	0.622
6.28142	0.681
6.31524	0.72
6.34906	0.735
6.38288	0.742
6.4167	0.733
6.45052	0.728
6.48434	0.737
6.51816	0.744
6.55198	0.74
6.5858	0.637
6.61962	0.637
6.65344	0.7
6.68727	0.637
6.72109	0.608
6.75491	0.64
6.78873	0.708
6.82255	0.727
6.85637	0.737
6.89019	0.705
6.92401	0.503
6.95783	0.513
6.99165	0.598
7.02547	0.661
7.05929	0.683
7.09311	0.737
7.12694	0.761
7.16076	0.727
7.19458	0.72
7.2284	0.74
7.26222	0.728
7.29604	0.75
7.32986	0.75
7.36368	0.755
7.3975	0.755
7.43132	0.749
7.46514	0.715
7.49896	0.727
7.53278	0.715
7.56661	0.606
7.60043	0.664
7.63425	0.71
7.66807	0.75
7.70189	0.769
7.73571	0.784
7.76953	0.794
7.80335	0.796
7.83717	0.789
7.87099	0.759
7.90481	0.716
7.93863	0.644
7.97245	0.694
8.00628	0.755
8.0401	0.772
8.07392	0.777
8.10774	0.794
8.14156	0.761
8.17538	0.567
8.2092	0.65
8.24302	0.664
8.27684	0.683
8.31066	0.725
8.34448	0.757
8.3783	0.781
8.41212	0.793
8.44595	0.789
8.47977	0.805
8.51359	0.827
8.54741	0.825
8.58123	0.764
8.61505	0.698
8.64887	0.706
8.68269	0.7
8.71651	0.627
8.75033	0.711
8.78415	0.737
8.81797	0.698
8.85179	0.632
8.88562	0.727
8.91944	0.789
8.95326	0.801
8.98708	0.816
9.0209	0.832
9.05472	0.833
9.08854	0.842
9.12236	0.844
9.15618	0.845
9.19	0.85
9.22382	0.852
9.25764	0.852
9.29146	0.835
9.32529	0.844
9.35911	0.852
9.39293	0.842
9.42675	0.828
9.46057	0.844
9.49439	0.855
9.52821	0.864
9.56203	0.861
9.59585	0.835
9.62967	0.764
9.66349	0.747
9.69731	0.749
9.73113	0.637
9.76496	0.669
9.79878	0.772
9.8326	0.815
9.86642	0.832
9.90024	0.832
9.93406	0.837
9.96788	0.869
10.0017	0.867
10.0355	0.866
10.0693	0.867
10.1032	0.862
10.137	0.835
10.1708	0.725
10.2046	0.755
10.2384	0.818
10.2723	0.832
10.3061	0.827
10.3399	0.784
10.3737	0.757
10.4075	0.694
10.4414	0.693
10.4752	0.664
10.509	0.706
10.5428	0.757
10.5767	0.791
10.6105	0.825
10.6443	0.844
10.6781	0.838
10.7119	0.85
10.7458	0.866
10.7796	0.872
10.8134	0.871
10.8472	0.85
10.881	0.84
10.9149	0.857
10.9487	0.864
10.9825	0.874
11.0163	0.888
11.0501	0.893
11.084	0.898
11.1178	0.898
11.1516	0.898
11.1854	0.893
11.2192	0.894
11.2531	0.898
11.2869	0.898
11.3207	0.901
11.3545	0.903
11.3884	0.901
11.4222	0.886
11.456	0.776
11.4898	0.605
11.5236	0.566
11.5575	0.616
11.5913	0.7
11.6251	0.793
11.6589	0.823
11.6927	0.825
11.7266	0.767
11.7604	0.671
11.7942	0.474
11.828	0.22
11.8618	0.149
11.8957	0.074
11.9295	0.032
11.9633	0.047
11.9971	0.308
12.0309	0.516
12.0648	0.501
12.0986	0.357
12.1324	0.371
12.1662	0.588
12.2001	0.677
12.2339	0.706
12.2677	0.677
12.3015	0.591
12.3353	0.649
12.3692	0.72
12.403	0.723
12.4368	0.628
12.4706	0.583
12.5044	0.584
12.5383	0.571
12.5721	0.357
12.6059	0.184
12.6397	0.271
12.6735	0.498
12.7074	0.549
12.7412	0.538
12.775	0.591
12.8088	0.681
12.8426	0.694
12.8765	0.564
12.9103	0.354
12.9441	0.242
12.9779	0.318
13.0117	0.396
13.0456	0.366
13.0794	0.332
13.1132	0.288
13.147	0.371
13.1809	0.394
13.2147	0.337
13.2485	0.249
13.2823	0.216
13.3161	0.252
13.35	0.247
13.3838	0.14
13.4176	0.057
13.4514	0.049
13.4852	0.149
13.5191	0.271
13.5529	0.264
13.5867	0.403
13.6205	0.554
13.6543	0.64
13.6882	0.693
13.722	0.722
13.7558	0.742
13.7896	0.75
13.8234	0.752
13.8573	0.742
13.8911	0.728
13.9249	0.716
13.9587	0.742
13.9926	0.781
14.0264	0.808
14.0602	0.816
14.094	0.822
14.1278	0.83
14.1617	0.835
14.1955	0.845
14.2293	0.844
14.2631	0.85
14.2969	0.854
14.3308	0.861
14.3646	0.862
14.3984	0.864
14.4322	0.864
14.466	0.866
14.4999	0.867
14.5337	0.871
14.5675	0.871
14.6013	0.871
14.6351	0.871
14.669	0.871
14.7028	0.871
14.7366	0.864
14.7704	0.855
14.8042	0.852
14.8381	0.855
14.8719	0.862
14.9057	0.869
14.9395	0.867
14.9734	0.862
15.0072	0.794
15.041	0.72
15.0748	0.723
15.1086	0.769
15.1425	0.811
15.1763	0.837
15.2101	0.85
15.2439	0.852
15.2777	0.855
15.3116	0.855
15.3454	0.842
15.3792	0.801
15.413	0.71
15.4468	0.547
