Infrared Spectrum: BENZOPHENONE, 2,4-DIHYDROXY-4-BENZOATE
Formula: C20 H14 O4
CAS: 18803-25-3
State: SOLID (OIL MULL)
Class: COBLENTZ
Instrument: Not specified, most likely a prism, grating, or hybrid spectrometer.
Sampling: TRANSMISSION
Resolution: 4
Origin: TENNESSEE EASTMAN COMPANY, RESEARCH LABORATORIES
MICROMETERS	TRANSMITTANCE
1.993	0.504
2.03399	0.502
2.07498	0.504
2.11596	0.509
2.15695	0.516
2.19794	0.528
2.23893	0.53
2.27992	0.53
2.32091	0.53
2.36189	0.54
2.40288	0.55
2.44387	0.55
2.48486	0.56
2.52585	0.574
2.56683	0.579
2.60782	0.579
2.64881	0.598
2.6898	0.602
2.73079	0.615
2.77178	0.624
2.81276	0.634
2.85375	0.643
2.89474	0.644
2.93573	0.651
2.97672	0.658
3.0177	0.663
3.05869	0.667
3.09968	0.667
3.14067	0.663
3.18166	0.662
3.22265	0.615
3.26363	0.591
3.30462	0.542
3.34561	0.195
3.3866	0.018
3.42759	0.03
3.46857	0.077
3.50956	0.341
3.55055	0.677
3.59154	0.723
3.63253	0.742
3.67352	0.739
3.7145	0.739
3.75549	0.742
3.79648	0.749
3.83747	0.759
3.87846	0.77
3.91944	0.782
3.96043	0.795
4.00142	0.806
4.04241	0.814
4.0834	0.821
4.12439	0.828
4.16537	0.831
4.20636	0.835
4.24735	0.835
4.28834	0.835
4.32933	0.837
4.37031	0.852
4.4113	0.861
4.45229	0.871
4.49328	0.876
4.53427	0.881
4.57526	0.888
4.61624	0.898
4.65723	0.898
4.69822	0.907
4.73921	0.912
4.7802	0.915
4.82118	0.919
4.86217	0.921
4.90316	0.927
4.94415	0.936
4.98514	0.938
5.02613	0.939
5.06711	0.938
5.1081	0.939
5.14909	0.946
5.19008	0.939
5.23107	0.941
5.27205	0.96
5.31304	0.969
5.35403	0.981
5.39502	0.979
5.43601	0.981
5.477	0.981
5.51798	0.984
5.55897	0.982
5.59996	0.967
5.64095	0.946
5.68194	0.675
5.72292	0.121
5.76391	0.408
5.8049	0.777
5.84589	0.85
5.88688	0.855
5.92787	0.885
5.96885	0.903
6.00984	0.89
6.05083	0.861
6.09182	0.866
6.13281	0.55
6.17379	0.538
6.21478	0.411
6.25577	0.265
6.29676	0.456
6.33775	0.492
6.37874	0.614
6.41972	0.754
6.46071	0.775
6.5017	0.802
6.54269	0.807
6.58368	0.713
6.62466	0.521
6.66565	0.578
6.70664	0.686
6.74763	0.595
6.78862	0.355
6.8296	0.332
6.87059	0.331
6.91158	0.574
6.95257	0.753
6.99356	0.782
7.03455	0.485
7.07553	0.614
7.11652	0.746
7.15751	0.778
7.1985	0.598
7.23949	0.487
7.28047	0.562
7.32146	0.518
7.36245	0.447
7.40344	0.526
7.44443	0.55
7.48542	0.595
7.5264	0.723
7.56739	0.747
7.60838	0.699
7.64937	0.672
7.69036	0.65
7.73134	0.701
7.77233	0.704
7.81332	0.581
7.85431	0.466
7.8953	0.391
7.93629	0.351
7.97727	0.37
8.01826	0.391
8.05925	0.389
8.10024	0.526
8.14123	0.506
8.18221	0.408
8.2232	0.502
8.26419	0.61
8.30518	0.689
8.34617	0.74
8.38716	0.739
8.42814	0.732
8.46913	0.636
8.51012	0.686
8.55111	0.691
8.5921	0.703
8.63308	0.493
8.67407	0.495
8.71506	0.66
8.75605	0.723
8.79704	0.789
8.83803	0.771
8.87901	0.639
8.92	0.663
8.96099	0.718
9.00198	0.751
9.04297	0.78
9.08395	0.799
9.12494	0.813
9.16593	0.811
9.20692	0.763
9.24791	0.751
9.2889	0.797
9.32988	0.691
9.37087	0.624
9.41186	0.689
9.45285	0.711
9.49384	0.74
9.53482	0.79
9.57581	0.813
9.6168	0.833
9.65779	0.835
9.69878	0.837
9.73977	0.692
9.78075	0.777
9.82174	0.835
9.86273	0.852
9.90372	0.864
9.94471	0.818
9.98569	0.837
10.0267	0.857
10.0677	0.866
10.1087	0.867
10.1496	0.768
10.1906	0.643
10.2316	0.708
10.2726	0.797
10.3136	0.828
10.3546	0.838
10.3956	0.845
10.4366	0.857
10.4776	0.867
10.5185	0.876
10.5595	0.876
10.6005	0.842
10.6415	0.672
10.6825	0.626
10.7235	0.73
10.7645	0.84
10.8055	0.852
10.8464	0.783
10.8874	0.639
10.9284	0.766
10.9694	0.833
11.0104	0.873
11.0514	0.888
11.0924	0.893
11.1334	0.893
11.1744	0.893
11.2153	0.891
11.2563	0.878
11.2973	0.838
11.3383	0.746
11.3793	0.641
11.4203	0.619
11.4613	0.71
11.5023	0.799
11.5432	0.847
11.5842	0.862
11.6252	0.878
11.6662	0.881
11.7072	0.879
11.7482	0.879
11.7892	0.855
11.8302	0.813
11.8712	0.785
11.9121	0.797
11.9531	0.838
11.9941	0.849
12.0351	0.852
12.0761	0.852
12.1171	0.831
12.1581	0.806
12.1991	0.777
12.24	0.723
12.281	0.644
12.322	0.584
12.363	0.542
12.404	0.5
12.445	0.459
12.486	0.449
12.527	0.449
12.5679	0.473
12.6089	0.578
12.6499	0.653
12.6909	0.696
12.7319	0.742
12.7729	0.775
12.8139	0.79
12.8549	0.809
12.8959	0.83
12.9368	0.84
12.9778	0.847
13.0188	0.849
13.0598	0.845
13.1008	0.821
13.1418	0.813
13.1828	0.825
13.2238	0.842
13.2647	0.843
13.3057	0.843
13.3467	0.821
13.3877	0.763
13.4287	0.682
13.4697	0.638
13.5107	0.668
13.5517	0.753
13.5927	0.797
13.6336	0.813
13.6746	0.818
13.7156	0.818
13.7566	0.818
13.7976	0.813
13.8386	0.811
13.8796	0.801
13.9206	0.771
13.9615	0.737
14.0025	0.698
14.0435	0.677
14.0845	0.638
14.1255	0.566
14.1665	0.463
14.2075	0.358
14.2485	0.267
14.2895	0.205
14.3304	0.162
14.3714	0.137
14.4124	0.142
14.4534	0.253
14.4944	0.363
14.5354	0.44
14.5764	0.463
14.6174	0.454
14.6583	0.447
14.6993	0.449
14.7403	0.466
14.7813	0.504
14.8223	0.55
14.8633	0.578
14.9043	0.591
14.9453	0.605
14.9863	0.656
15.0272	0.689
15.0682	0.698
15.1092	0.698
15.1502	0.698
15.1912	0.699
15.2322	0.698
15.2732	0.696
15.3142	0.696
15.3551	0.694
15.3961	0.694
15.4371	0.692
15.4781	0.689
15.5191	0.686
15.5601	0.68
15.6011	0.674
15.6421	0.67
15.6831	0.663
15.724	0.66
15.765	0.653
15.806	0.65
15.847	0.644
15.888	0.639
15.929	0.634
15.97	0.631
