Infrared Spectrum: BENZOPHENONE, 2-HYDROXY-5-NITRO-
Formula: C13 H9 N O4
CAS: 18803-19-5
State: SOLID (KBr PELLET)
Class: COBLENTZ
Instrument: Not specified, most likely a prism, grating, or hybrid spectrometer.
Sampling: TRANSMISSION
Resolution: 4
Origin: TENNESSEE EASTMAN COMPANY, RESEARCH LABORATORIES
MICROMETERS	TRANSMITTANCE
2.014	0.583
2.0549	0.583
2.0958	0.583
2.1367	0.595
2.1776	0.603
2.2185	0.619
2.2594	0.629
2.3003	0.639
2.3412	0.643
2.3821	0.65
2.42299	0.66
2.46389	0.668
2.50479	0.679
2.54569	0.682
2.58659	0.687
2.62749	0.689
2.66839	0.694
2.70929	0.699
2.75019	0.699
2.79109	0.684
2.83199	0.674
2.87289	0.667
2.91379	0.66
2.95469	0.662
2.99559	0.68
3.03649	0.703
3.07739	0.711
3.11829	0.711
3.15918	0.715
3.20008	0.716
3.24098	0.696
3.28188	0.686
3.32278	0.708
3.36368	0.718
3.40458	0.725
3.44548	0.74
3.48638	0.753
3.52728	0.77
3.56818	0.792
3.60908	0.802
3.64998	0.809
3.69088	0.813
3.73178	0.819
3.77268	0.83
3.81358	0.845
3.85448	0.847
3.89538	0.849
3.93627	0.85
3.97717	0.855
4.01807	0.862
4.05897	0.866
4.09987	0.873
4.14077	0.878
4.18167	0.883
4.22257	0.886
4.26347	0.862
4.30437	0.837
4.34527	0.85
4.38617	0.897
4.42707	0.907
4.46797	0.91
4.50887	0.915
4.54977	0.922
4.59067	0.929
4.63157	0.929
4.67247	0.931
4.71336	0.933
4.75426	0.934
4.79516	0.939
4.83606	0.941
4.87696	0.945
4.91786	0.946
4.95876	0.946
4.99966	0.95
5.04056	0.948
5.08146	0.946
5.12236	0.946
5.16326	0.95
5.20416	0.946
5.24506	0.95
5.28596	0.95
5.32686	0.953
5.36776	0.953
5.40866	0.955
5.44955	0.943
5.49045	0.939
5.53135	0.95
5.57225	0.951
5.61315	0.95
5.65405	0.95
5.69495	0.95
5.73585	0.941
5.77675	0.933
5.81765	0.927
5.85855	0.915
5.89945	0.895
5.94035	0.898
5.98125	0.898
6.02215	0.883
6.06305	0.809
6.10395	0.543
6.14485	0.094
6.18575	0.166
6.22664	0.217
6.26754	0.516
6.30844	0.564
6.34934	0.679
6.39024	0.765
6.43114	0.766
6.47204	0.651
6.51294	0.523
6.55384	0.619
6.59474	0.744
6.63564	0.818
6.67654	0.819
6.71744	0.706
6.75834	0.512
6.79924	0.53
6.84014	0.811
6.88104	0.718
6.92194	0.821
6.96284	0.845
7.00373	0.787
7.04463	0.854
7.08553	0.895
7.12643	0.912
7.16733	0.91
7.20823	0.895
7.24913	0.854
7.29003	0.809
7.33093	0.663
7.37183	0.481
7.41273	0.301
7.45363	0.054
7.49453	0.051
7.53543	0.38
7.57633	0.562
7.61723	0.694
7.65813	0.753
7.69903	0.608
7.73992	0.377
7.78082	0.524
7.82172	0.763
7.86262	0.813
7.90352	0.801
7.94442	0.567
7.98532	0.308
8.02622	0.715
8.06712	0.792
8.10802	0.761
8.14892	0.763
8.18982	0.564
8.23072	0.502
8.27162	0.792
8.31252	0.852
8.35342	0.881
8.39432	0.902
8.43522	0.849
8.47612	0.876
8.51701	0.929
8.55791	0.924
8.59881	0.806
8.63971	0.718
8.68061	0.871
8.72151	0.921
8.76241	0.931
8.80331	0.919
8.84421	0.89
8.88511	0.861
8.92601	0.883
8.96691	0.921
9.00781	0.933
9.04871	0.924
9.08961	0.823
9.13051	0.5
9.17141	0.403
9.21231	0.595
9.25321	0.656
9.2941	0.689
9.335	0.715
9.3759	0.725
9.4168	0.732
9.4577	0.735
9.4986	0.735
9.5395	0.737
9.5804	0.737
9.6213	0.734
9.6622	0.711
9.7031	0.71
9.744	0.723
9.7849	0.728
9.8258	0.732
9.8667	0.735
9.9076	0.737
9.9485	0.722
9.9894	0.718
10.0303	0.727
10.0712	0.735
10.1121	0.739
10.153	0.725
10.1939	0.728
10.2348	0.734
10.2757	0.734
10.3166	0.701
10.3575	0.552
10.3984	0.449
10.4393	0.615
10.4802	0.691
10.5211	0.722
10.562	0.734
10.6029	0.74
10.6438	0.74
10.6847	0.739
10.7256	0.718
10.7665	0.699
10.8074	0.684
10.8483	0.708
10.8892	0.653
10.9301	0.674
10.971	0.737
11.0119	0.746
11.0528	0.749
11.0937	0.749
11.1346	0.749
11.1755	0.751
11.2164	0.746
11.2573	0.734
11.2982	0.711
11.3391	0.684
11.38	0.612
11.4209	0.526
11.4618	0.631
11.5027	0.699
11.5436	0.703
11.5845	0.692
11.6254	0.713
11.6663	0.699
11.7072	0.596
11.7481	0.612
11.789	0.67
11.8299	0.653
11.8708	0.612
11.9117	0.651
11.9526	0.674
11.9935	0.668
12.0344	0.65
12.0753	0.62
12.1162	0.584
12.1571	0.543
12.198	0.538
12.2389	0.562
12.2798	0.566
12.3207	0.554
12.3616	0.583
12.4025	0.629
12.4434	0.665
12.4843	0.679
12.5252	0.639
12.5661	0.557
12.607	0.49
12.6479	0.492
12.6888	0.526
12.7297	0.552
12.7706	0.56
12.8115	0.569
12.8524	0.579
12.8933	0.593
12.9342	0.607
12.9751	0.619
13.016	0.605
13.0569	0.521
13.0978	0.452
13.1387	0.531
13.1796	0.631
13.2205	0.672
13.2614	0.67
13.3023	0.581
13.3432	0.437
13.3841	0.394
13.425	0.533
13.4658	0.62
13.5067	0.656
13.5476	0.672
13.5885	0.682
13.6294	0.696
13.6703	0.704
13.7112	0.711
13.7521	0.713
13.793	0.713
13.8339	0.71
13.8748	0.706
13.9157	0.706
13.9566	0.706
13.9975	0.704
14.0384	0.698
14.0793	0.665
14.1202	0.607
14.1611	0.512
14.202	0.433
14.2429	0.368
14.2838	0.312
14.3247	0.301
14.3656	0.399
14.4065	0.507
14.4474	0.557
14.4883	0.584
14.5292	0.605
14.5701	0.614
14.611	0.619
14.6519	0.617
14.6928	0.612
14.7337	0.603
14.7746	0.593
14.8155	0.586
14.8564	0.574
14.8973	0.554
14.9382	0.514
14.9791	0.452
15.02	0.401
15.0609	0.389
15.1018	0.408
15.1427	0.432
15.1836	0.451
15.2245	0.456
15.2654	0.456
15.3063	0.447
15.3472	0.437
15.3881	0.42
15.429	0.411
15.4699	0.401
15.5108	0.391
15.5517	0.379
15.5926	0.361
15.6335	0.339
15.6744	0.327
15.7153	0.32
15.7562	0.32
15.7971	0.322
15.838	0.322
15.8789	0.322
15.9198	0.319
15.9607	0.315
