Infrared Spectrum: Diethyl propanephosphonate
Formula: C 7 H 17 O 3 P
CAS: 18812-51-6
State: gas
Origin: EPA-IR VAPOR PHASE LIBRARY
1/CM	ABSORBANCE
549.9	0.03292
559.547	0.01783
569.193	0.01032
578.84	0.00723
588.486	0.00573
598.133	0.00518
607.779	0.00489
617.426	0.00483
627.072	0.00496
636.719	0.00524
646.365	0.00593
656.012	0.00711
665.658	0.00935
675.305	0.01383
684.951	0.01878
694.598	0.02091
704.245	0.01889
713.891	0.01656
723.538	0.01719
733.184	0.02207
742.831	0.03033
752.477	0.04276
762.124	0.05632
771.77	0.06895
781.417	0.07422
791.063	0.06716
800.71	0.06136
810.356	0.0547
820.003	0.04525
829.649	0.03835
839.296	0.03509
848.943	0.02697
858.589	0.01785
868.236	0.01454
877.882	0.01593
887.529	0.0199
897.175	0.0245
906.822	0.03097
916.468	0.04546
926.115	0.08265
935.761	0.162
945.408	0.23437
955.054	0.20643
964.701	0.12934
974.347	0.07496
983.994	0.05131
993.64	0.04943
1003.29	0.06809
1012.93	0.12758
1022.58	0.26023
1032.23	0.38694
1041.87	0.3773
1051.52	0.31426
1061.17	0.28398
1070.81	0.22009
1080.46	0.13792
1090.11	0.11037
1099.75	0.10662
1109.4	0.07955
1119.05	0.05476
1128.69	0.0443
1138.34	0.03937
1147.99	0.03678
1157.63	0.03472
1167.28	0.0323
1176.92	0.0281
1186.57	0.0223
1196.22	0.01806
1205.86	0.01679
1215.51	0.02139
1225.16	0.03566
1234.8	0.0543
1244.45	0.06351
1254.1	0.09393
1263.74	0.15347
1273.39	0.14899
1283.04	0.09995
1292.68	0.05753
1302.33	0.03795
1311.98	0.02919
1321.62	0.02124
1331.27	0.01656
1340.92	0.01688
1350.56	0.01673
1360.21	0.01586
1369.86	0.01991
1379.5	0.02516
1389.15	0.03711
1398.79	0.03807
1408.44	0.02686
1418.09	0.02028
1427.73	0.01639
1437.38	0.01577
1447.03	0.01719
1456.67	0.01851
1466.32	0.01876
1475.97	0.01536
1485.61	0.01137
1495.26	0.0088
1504.91	0.00716
1514.55	0.00603
1524.2	0.00516
1533.85	0.0045675
1543.49	0.0040461
1553.14	0.0036588
1562.79	0.00328
1572.43	0.003194
1582.08	0.003089
1591.73	0.003004
1601.37	0.003006
1611.02	0.003168
1620.67	0.003275
1630.31	0.003486
1639.96	0.003585
1649.6	0.0036752
1659.25	0.00369948
1668.9	0.0036698
1678.54	0.00373585
1688.19	0.0039594
1697.84	0.004174
1707.48	0.0044521
1717.13	0.00471
1726.78	0.00487
1736.42	0.00494
1746.07	0.00494
1755.72	0.00492
1765.36	0.00484
1775.01	0.00478
1784.66	0.00476
1794.3	0.00482
1803.95	0.00498
1813.6	0.00509
1823.24	0.0051
1832.89	0.00516
1842.54	0.0051
1852.18	0.00489
1861.83	0.0046408
1871.47	0.0043389
1881.12	0.0039615
1890.77	0.003537
1900.41	0.003281
1910.06	0.002964
1919.71	0.002703
1929.35	0.00254
1939	0.0024
1948.65	0.00232
1958.29	0.00228
1967.94	0.00228
1977.59	0.00239
1987.23	0.00236
1996.88	0.00236
2006.53	0.00232
2016.17	0.00227
2025.82	0.0022
2035.47	0.00225
2045.11	0.00229
2054.76	0.00229
2064.41	0.00227
2074.05	0.00233
2083.7	0.00237
2093.35	0.00245
2102.99	0.00248
2112.64	0.00248
2122.28	0.00251
2131.93	0.00242
2141.58	0.00247
2151.22	0.0025
2160.87	0.00248
2170.52	0.00245
2180.16	0.00242
2189.81	0.00238
2199.46	0.00236
2209.1	0.00232
2218.75	0.00229
2228.4	0.00232
2238.04	0.00232
2247.69	0.00232
2257.34	0.00239
2266.98	0.00238
2276.63	0.00238
2286.28	0.00237
2295.92	0.00239
2305.57	0.00243
2315.22	0.00247
2324.86	0.0025
2334.51	0.00248
2344.16	0.00244
2353.8	0.00229
2363.45	0.00226
2373.09	0.00214
2382.74	0.00214
2392.39	0.00213
2402.03	0.00234
2411.68	0.0024
2421.33	0.00247
2430.97	0.00247
2440.62	0.00251
2450.27	0.00258
2459.91	0.00262
2469.56	0.00248
2479.21	0.00243
2488.85	0.00244
2498.5	0.00244
2508.15	0.00236
2517.79	0.00238
2527.44	0.00227
2537.09	0.0023
2546.73	0.00217
2556.38	0.00218
2566.03	0.00211
2575.67	0.00211
2585.32	0.00212
2594.96	0.00213
2604.61	0.00223
2614.26	0.00229
2623.9	0.00233
2633.55	0.00239
2643.2	0.00253
2652.84	0.00256
2662.49	0.00258
2672.14	0.00264
2681.78	0.00261
2691.43	0.00257
2701.08	0.00263
2710.72	0.00289
2720.37	0.003326
2730.02	0.004016
2739.66	0.0044604
2749.31	0.00486
2758.96	0.00497
2768.6	0.0052
2778.25	0.0055
2787.9	0.00558
2797.54	0.00592
2807.19	0.00641
2816.84	0.00706
2826.48	0.00783
2836.13	0.00884
2845.77	0.01073
2855.42	0.01387
2865.07	0.02
2874.71	0.03512
2884.36	0.05206
2894.01	0.05253
2903.65	0.05453
2913.3	0.06459
2922.95	0.06857
2932.59	0.08581
2942.24	0.10653
2951.89	0.09922
2961.53	0.10501
2971.18	0.13519
2980.83	0.13705
2990.47	0.11078
3000.12	0.07119
3009.77	0.04517
3019.41	0.03031
3029.06	0.02041
3038.71	0.01417
3048.35	0.00986
3058	0.00724
3067.64	0.00565
3077.29	0.0046342
3086.94	0.0039824
3096.58	0.003638
3106.23	0.003446
3115.88	0.00301
3125.52	0.00293
3135.17	0.002719
3144.82	0.00255
3154.46	0.00216
3164.11	0.0021
3173.76	0.00204
3183.4	0.00187
3193.05	0.00176
3202.7	0.00167
3212.34	0.00148
3221.99	0.00148
3231.64	0.00102
3241.28	0.00097
3250.93	0.00081
3260.58	0.00051
3270.22	0.00042
3279.87	0.00025
3289.52	0.00036
3299.16	0.00011
3308.81	0.00028
3318.45	0.00025
3328.1	0.0001
3337.75	0.00022
3347.39	0.00024
3357.04	0.00015
3366.69	5e-05
3376.33	0.00024
3385.98	0.00028
3395.63	0.00021
3405.27	0.00025
3414.92	0.0001
3424.57	0.00028
3434.21	0.00025
3443.86	0.0004
3453.51	0.00022
3463.15	0.00028
3472.8	0.00027
3482.45	0.00034
3492.09	0.00036
3501.74	0.00041
3511.39	0.00048
3521.03	0.0003
3530.68	0.00038
3540.33	0.00055
3549.97	0.00043
3559.62	0.00059
3569.26	0.00059
3578.91	0.00054
3588.56	0.00062
3598.2	0.0006
3607.85	0.00071
3617.5	0.0007
3627.14	0.0007
3636.79	0.00081
3646.44	0.00088
3656.08	0.00099
3665.73	0.001
3675.38	0.00107
3685.02	0.00109
3694.67	0.00128
3704.32	0.00107
3713.96	0.00114
3723.61	0.00121
3733.26	0.00124
3742.9	0.00122
3752.55	0.00136
3762.2	0.00152
3771.84	0.0016
3781.49	0.00152
3791.13	0.00153
3800.78	0.00138
3810.43	0.00146
3820.07	0.00144
3829.72	0.00152
3839.37	0.00137
3849.01	0.00151
3858.66	0.00164
3868.31	0.00167
3877.95	0.00157
3887.6	0.00173
3897.25	0.00173
3906.89	0.00178
3916.54	0.00183
3926.19	0.00193
3935.83	0.00212
3945.48	0.00207
3955.13	0.00215
3964.77	0.00229
3974.42	0.00232
3984.07	0.00236
3993.71	0.00241
