Infrared Spectrum: 4-Ethylphenyl isothiocyanate
Formula: C 9 H 9 N S
CAS: 18856-63-8
State: gas
Origin: EPA-IR VAPOR PHASE LIBRARY
1/CM	ABSORBANCE
549.8	0.01444
559.445	0.01041
569.09	0.00871
578.734	0.00703
588.379	0.00524
598.024	0.00391
607.669	0.0034
617.313	0.00339
626.958	0.00292
636.603	0.00199
646.248	0.00177
655.893	0.00176
665.537	0.00197
675.182	0.00195
684.827	0.00196
694.472	0.00184
704.116	0.00187
713.761	0.00211
723.406	0.00194
733.051	0.00213
742.695	0.00261
752.34	0.00384
761.985	0.00639
771.63	0.01412
781.275	0.01158
790.919	0.00624
800.564	0.00846
810.209	0.01507
819.854	0.02509
829.498	0.0338
839.143	0.02896
848.788	0.01618
858.433	0.00718
868.078	0.00399
877.722	0.00345
887.367	0.00365
897.012	0.00696
906.657	0.01061
916.301	0.01243
925.946	0.01653
935.591	0.02534
945.236	0.0251
954.88	0.01599
964.525	0.01357
974.17	0.00999
983.815	0.00505
993.46	0.00307
1003.1	0.00255
1012.75	0.00402
1022.39	0.00469
1032.04	0.00236
1041.68	0.00353
1051.33	0.00501
1060.97	0.00705
1070.62	0.00432
1080.26	0.00199
1089.91	0.00222
1099.55	0.0028
1109.2	0.0043
1118.84	0.00472
1128.49	0.00323
1138.13	0.0017
1147.78	0.0015
1157.42	0.0013077
1167.07	0.00156
1176.71	0.00171
1186.36	0.00227
1196	0.00392
1205.64	0.00358
1215.29	0.0028
1224.93	0.0036
1234.58	0.00609
1244.22	0.01138
1253.87	0.01229
1263.51	0.00793
1273.16	0.00597
1282.8	0.00497
1292.45	0.00416
1302.09	0.00429
1311.74	0.00561
1321.38	0.00807
1331.03	0.00672
1340.67	0.00369
1350.32	0.00271
1359.96	0.00237
1369.61	0.00254
1379.25	0.00293
1388.9	0.00336
1398.54	0.00354
1408.18	0.00396
1417.83	0.00468
1427.47	0.00507
1437.12	0.0057
1446.76	0.00729
1456.41	0.00886
1466.05	0.00977
1475.7	0.009
1485.34	0.01088
1494.99	0.03463
1504.63	0.09003
1514.28	0.04354
1523.92	0.00894
1533.57	0.00587
1543.21	0.00548
1552.86	0.0056
1562.5	0.0065
1572.15	0.00757
1581.79	0.00796
1591.44	0.00973
1601.08	0.01535
1610.73	0.01541
1620.37	0.00735
1630.01	0.00478
1639.66	0.00457
1649.3	0.00412
1658.95	0.00358
1668.59	0.00274
1678.24	0.00239
1687.88	0.00203
1697.53	0.00205
1707.17	0.00206
1716.82	0.00213
1726.46	0.00231
1736.11	0.00234
1745.75	0.00252
1755.4	0.00299
1765.04	0.00378
1774.69	0.00382
1784.33	0.00331
1793.98	0.00314
1803.62	0.00306
1813.27	0.00304
1822.91	0.00323
1832.55	0.00358
1842.2	0.00425
1851.84	0.00541
1861.49	0.00671
1871.13	0.00835
1880.78	0.01035
1890.42	0.01151
1900.07	0.01156
1909.71	0.012
1919.36	0.0139
1929	0.01822
1938.65	0.02506
1948.29	0.03485
1957.94	0.04715
1967.58	0.06275
1977.23	0.08312
1986.87	0.10995
1996.52	0.14583
2006.16	0.19352
2015.81	0.25112
2025.45	0.31194
2035.1	0.37093
2044.74	0.43267
2054.38	0.43409
2064.03	0.29851
2073.67	0.19963
2083.32	0.18938
2092.96	0.22416
2102.61	0.26907
2112.25	0.24021
2121.9	0.15142
2131.54	0.09949
2141.19	0.08056
2150.83	0.0754
2160.48	0.07229
2170.12	0.06112
2179.77	0.04892
2189.41	0.03995
2199.06	0.0304
2208.7	0.02132
2218.35	0.01516
2227.99	0.01115
2237.64	0.0083
2247.28	0.00621
2256.92	0.00469
2266.57	0.00378
2276.21	0.00322
2285.86	0.00269
2295.5	0.0022
2305.15	0.00191
2314.79	0.00169
2324.44	0.00165
2334.08	0.00171
2343.73	0.00187
2353.37	0.00196
2363.02	0.0022
2372.66	0.0025
2382.31	0.00286
2391.95	0.00329
2401.6	0.00357
2411.24	0.0035
2420.89	0.00353
2430.53	0.00329
2440.18	0.00311
2449.82	0.00313
2459.47	0.00307
2469.11	0.00319
2478.75	0.00335
2488.4	0.00379
2498.04	0.00403
2507.69	0.00385
2517.33	0.00373
2526.98	0.00378
2536.62	0.00387
2546.27	0.00395
2555.91	0.00422
2565.56	0.0041
2575.2	0.00371
2584.85	0.00332
2594.49	0.00284
2604.14	0.00239
2613.78	0.00243
2623.43	0.00261
2633.07	0.00289
2642.72	0.00316
2652.36	0.00338
2662.01	0.00374
2671.65	0.00471
2681.29	0.0056
2690.94	0.00594
2700.58	0.00552
2710.23	0.00432
2719.87	0.0031
2729.52	0.00229
2739.16	0.00233
2748.81	0.00236
2758.45	0.00239
2768.1	0.00237
2777.74	0.00242
2787.39	0.00237
2797.03	0.00256
2806.68	0.0026
2816.32	0.003
2825.97	0.00352
2835.61	0.00401
2845.26	0.00464
2854.9	0.00635
2864.55	0.01009
2874.19	0.01366
2883.84	0.01624
2893.48	0.01632
2903.12	0.01503
2912.77	0.01558
2922.41	0.0164
2932.06	0.02092
2941.7	0.02844
2951.35	0.02785
2960.99	0.02561
2970.64	0.04665
2980.28	0.05288
2989.93	0.02133
2999.57	0.01387
3009.22	0.01075
3018.86	0.01009
3028.51	0.01387
3038.15	0.0183
3047.8	0.01149
3057.44	0.008
3067.09	0.00661
3076.73	0.00634
3086.38	0.00614
3096.02	0.00557
3105.67	0.00472
3115.31	0.00371
3124.95	0.00283
3134.6	0.00178
3144.24	0.0012111
3153.89	0.0009377
3163.53	0.0012322
3173.18	0.0011369
3182.82	0.0009361
3192.47	0.0007365
3202.11	0.00042198
3211.76	0.0003436
3221.4	9.2e-05
3231.05	0.00041305
3240.69	0.000257
3250.34	0.000191
3259.98	1.5e-05
3269.63	0.000149
3279.27	0.0002976
3288.92	0.000273
3298.56	9.8e-05
3308.21	0.000241
3317.85	0.000122
3327.49	0.000202
3337.14	0.00039358
3346.78	0.000202
3356.43	0.0003307
3366.07	0.0003624
3375.72	0.000164
3385.36	0.0003579
3395.01	0.00043013
3404.65	0.0003548
3414.3	0.0003102
3423.94	0.0003203
3433.59	0.0002967
3443.23	0.000206
3452.88	0.000553
3462.52	0.0003465
3472.17	0.00047663
3481.81	0.000237
3491.46	0.000363
3501.1	0.0003582
3510.75	0.00043409
3520.39	0.0003691
3530.04	0.000254
3539.68	0.000222
3549.32	0.0005001
3558.97	0.0003081
3568.61	0.000135
3578.26	0.000312
3587.9	0.0002872
3597.55	0.0003605
3607.19	0.0003592
3616.84	0.0003112
3626.48	0.00047864
3636.13	0.00046699
3645.77	0.0003652
3655.42	0.0006245
3665.06	0.0004903
3674.71	0.0006141
3684.35	0.000574
3694	0.0007396
3703.64	0.0006329
3713.29	0.0007139
3722.93	0.0006766
3732.58	0.0004975
3742.22	0.0005647
3751.86	0.00046621
3761.51	0.0006033
3771.15	0.00045283
3780.8	0.0005234
3790.44	0.0007069
3800.09	0.0005144
3809.73	0.0006833
3819.38	0.000517
3829.02	0.0006892
3838.67	0.0005719
3848.31	0.0007124
3857.96	0.0006568
3867.6	0.0009975
3877.25	0.0008596
3886.89	0.000784
3896.54	0.0009196
3906.18	0.0009013
3915.83	0.0010206
3925.47	0.0012
3935.12	0.0013369
3944.76	0.0012236
3954.41	0.00146
3964.05	0.00144
3973.69	0.0016
3983.34	0.00176
3992.98	0.00179
