Infrared Spectrum: Tetraethyl dimethylaminomethylene diphosphonate
Formula: C 11 H 27 N O 6 P 2
CAS: 18855-52-2
State: gas
Origin: EPA-IR VAPOR PHASE LIBRARY
1/CM	ABSORBANCE
549.9	0.04136
559.547	0.02139
569.193	0.01456
578.84	0.01272
588.486	0.01572
598.133	0.02212
607.779	0.01626
617.426	0.00901
627.072	0.00661
636.719	0.00561
646.365	0.00521
656.012	0.0048258
665.658	0.0048585
675.305	0.00522
684.951	0.00593
694.598	0.007
704.245	0.0087
713.891	0.01012
723.538	0.01272
733.184	0.0183
742.831	0.02355
752.477	0.0256
762.124	0.02439
771.77	0.02549
781.417	0.03446
791.063	0.04121
800.71	0.03911
810.356	0.03247
820.003	0.02777
829.649	0.03072
839.296	0.03649
848.943	0.04048
858.589	0.04178
868.236	0.03007
877.882	0.02028
887.529	0.01743
897.175	0.01893
906.822	0.02429
916.468	0.03621
926.115	0.06228
935.761	0.10894
945.408	0.14698
955.054	0.16417
964.701	0.14219
974.347	0.0923
983.994	0.05972
993.64	0.05382
1003.29	0.07042
1012.93	0.11989
1022.58	0.22057
1032.23	0.32867
1041.87	0.36395
1051.52	0.34371
1061.17	0.25399
1070.81	0.16343
1080.46	0.1125
1090.11	0.09447
1099.75	0.09059
1109.4	0.06155
1119.05	0.04665
1128.69	0.04423
1138.34	0.04917
1147.99	0.05117
1157.63	0.04637
1167.28	0.04112
1176.92	0.03184
1186.57	0.0222
1196.22	0.01611
1205.86	0.0135
1215.51	0.01317
1225.16	0.01497
1234.8	0.02065
1244.45	0.03928
1254.1	0.1012
1263.74	0.17087
1273.39	0.13023
1283.04	0.08222
1292.68	0.0487
1302.33	0.03174
1311.98	0.02628
1321.62	0.02222
1331.27	0.01503
1340.92	0.0109
1350.56	0.01003
1360.21	0.01196
1369.86	0.0181
1379.5	0.01852
1389.15	0.02881
1398.79	0.02878
1408.44	0.01566
1418.09	0.01225
1427.73	0.01191
1437.38	0.01381
1447.03	0.01712
1456.67	0.01835
1466.32	0.01599
1475.97	0.01481
1485.61	0.01248
1495.26	0.00834
1504.91	0.00649
1514.55	0.00544
1524.2	0.0047753
1533.85	0.0041885
1543.49	0.0038908
1553.14	0.003527
1562.79	0.003329
1572.43	0.003144
1582.08	0.002993
1591.73	0.002969
1601.37	0.002941
1611.02	0.002943
1620.67	0.003051
1630.31	0.003165
1639.96	0.003235
1649.6	0.003256
1659.25	0.003436
1668.9	0.003564
1678.54	0.003661
1688.19	0.003757
1697.84	0.003775
1707.48	0.0038214
1717.13	0.00397703
1726.78	0.004069
1736.42	0.0041783
1746.07	0.0043422
1755.72	0.0044413
1765.36	0.0046195
1775.01	0.0047861
1784.66	0.00498
1794.3	0.00502
1803.95	0.00512
1813.6	0.00502
1823.24	0.00496
1832.89	0.00492
1842.54	0.0047371
1852.18	0.0045642
1861.83	0.0043054
1871.47	0.0040981
1881.12	0.003838
1890.77	0.003489
1900.41	0.003133
1910.06	0.00283
1919.71	0.00249
1929.35	0.00226
1939	0.00212
1948.65	0.002
1958.29	0.00189
1967.94	0.00197
1977.59	0.00199
1987.23	0.00203
1996.88	0.002
2006.53	0.0019
2016.17	0.00186
2025.82	0.00177
2035.47	0.00175
2045.11	0.00173
2054.76	0.00175
2064.41	0.00177
2074.05	0.00182
2083.7	0.0019
2093.35	0.00207
2102.99	0.00212
2112.64	0.00207
2122.28	0.00201
2131.93	0.002
2141.58	0.00192
2151.22	0.00194
2160.87	0.00196
2170.52	0.00194
2180.16	0.0019
2189.81	0.00189
2199.46	0.00193
2209.1	0.00188
2218.75	0.00181
2228.4	0.00177
2238.04	0.00183
2247.69	0.00185
2257.34	0.00185
2266.98	0.00183
2276.63	0.00178
2286.28	0.00179
2295.92	0.00182
2305.57	0.00186
2315.22	0.00191
2324.86	0.00201
2334.51	0.00196
2344.16	0.00196
2353.8	0.00186
2363.45	0.00182
2373.09	0.00172
2382.74	0.00172
2392.39	0.00178
2402.03	0.00181
2411.68	0.00188
2421.33	0.00205
2430.97	0.00208
2440.62	0.00219
2450.27	0.00222
2459.91	0.00222
2469.56	0.00214
2479.21	0.00202
2488.85	0.00198
2498.5	0.00195
2508.15	0.00203
2517.79	0.00197
2527.44	0.00197
2537.09	0.00192
2546.73	0.0019
2556.38	0.00186
2566.03	0.00177
2575.67	0.00178
2585.32	0.00179
2594.96	0.00185
2604.61	0.00188
2614.26	0.00178
2623.9	0.00179
2633.55	0.00172
2643.2	0.00174
2652.84	0.00172
2662.49	0.00185
2672.14	0.0018
2681.78	0.00193
2691.43	0.00214
2701.08	0.00237
2710.72	0.00278
2720.37	0.003405
2730.02	0.0044235
2739.66	0.0047125
2749.31	0.00523
2758.96	0.00603
2768.6	0.00729
2778.25	0.0092
2787.9	0.01188
2797.54	0.01824
2807.19	0.02407
2816.84	0.01863
2826.48	0.01294
2836.13	0.01484
2845.77	0.02291
2855.42	0.02489
2865.07	0.02529
2874.71	0.03472
2884.36	0.04039
2894.01	0.0386
2903.65	0.04533
2913.3	0.05072
2922.95	0.05189
2932.59	0.07493
2942.24	0.0925
2951.89	0.06124
2961.53	0.05534
2971.18	0.0646
2980.83	0.0819
2990.47	0.07501
3000.12	0.05169
3009.77	0.03258
3019.41	0.02101
3029.06	0.01382
3038.71	0.00939
3048.35	0.0067
3058	0.00513
3067.64	0.00398178
3077.29	0.003294
3086.94	0.002995
3096.58	0.00249
3106.23	0.00226
3115.88	0.00221
3125.52	0.00194
3135.17	0.00174
3144.82	0.00152
3154.46	0.00165
3164.11	0.00136
3173.76	0.00119
3183.4	0.00115
3193.05	0.00101
3202.7	0.00087
3212.34	0.00072
3221.99	0.00067
3231.64	0.00067
3241.28	0.00046
3250.93	0.00051
3260.58	0.00029
3270.22	0.00037
3279.87	0.00022
3289.52	0.00014
3299.16	0.00026
3308.81	0.00013
3318.45	0.00012
3328.1	0.00011
3337.75	0.00019
3347.39	0.00028
3357.04	0.00029
3366.69	0.00036
3376.33	0.00034
3385.98	0.00028
3395.63	0.00021
3405.27	0.00042
3414.92	0.00052
3424.57	0.00038
3434.21	0.00038
3443.86	0.00036
3453.51	0.00062
3463.15	0.00043
3472.8	0.00061
3482.45	0.0006
3492.09	0.00045
3501.74	0.00078
3511.39	0.00067
3521.03	0.00072
3530.68	0.00078
3540.33	0.0007
3549.97	0.00072
3559.62	0.00091
3569.26	0.00077
3578.91	0.0008
3588.56	0.0009
3598.2	0.00104
3607.85	0.00085
3617.5	0.00102
3627.14	0.00118
3636.79	0.00111
3646.44	0.00121
3656.08	0.0012
3665.73	0.0012
3675.38	0.00115
3685.02	0.00109
3694.67	0.00122
3704.32	0.00132
3713.96	0.00129
3723.61	0.00127
3733.26	0.00129
3742.9	0.00127
3752.55	0.00148
3762.2	0.00141
3771.84	0.00128
3781.49	0.00149
3791.13	0.00154
3800.78	0.00149
3810.43	0.00148
3820.07	0.00142
3829.72	0.00157
3839.37	0.00153
3849.01	0.00153
3858.66	0.00151
3868.31	0.00172
3877.95	0.00153
3887.6	0.00165
3897.25	0.00159
3906.89	0.0017
3916.54	0.00176
3926.19	0.00187
3935.83	0.00187
3945.48	0.00191
3955.13	0.00202
3964.77	0.0021
3974.42	0.0021
3984.07	0.00206
3993.71	0.00227
