Infrared Spectrum: CARBAMIC ACID, N-(2-CYANOETHYL)-, PHENYLMETHYL ESTER
Formula: C11 H12 N2 O2
CAS: 18877-96-8
State: SOLID (1 mg / 650 mg KBr DISC)
Class: COBLENTZ III
Instrument: PERKIN-ELMER 221 (GRATING)
Instrument parameters: GRATING FOR 4000-1428, FILTERS AT 2490, 980, NaCl PRISM FOR 1428-650 CM^-^1
Sampling: TRANSMISSION
Resolution: 4
Origin: SOUTHERN RESEARCH INSTITUTE
1/CM	TRANSMITTANCE
598.744	0.898
607.409	0.897
616.074	0.895
624.739	0.8943
633.404	0.8878
642.068	0.8795
650.733	0.8658
659.398	0.8322
668.063	0.7932
676.728	0.7346
685.393	0.674
694.058	0.656
702.723	0.7401
711.388	0.6404
720.053	0.6814
728.717	0.8212
737.382	0.8262
746.047	0.6293
754.712	0.8076
763.377	0.8991
772.042	0.897
780.707	0.8478
789.372	0.9221
798.037	0.936
806.702	0.9344
815.366	0.9335
824.031	0.9356
832.696	0.9304
841.361	0.8889
850.026	0.929
858.691	0.933
867.356	0.9067
876.021	0.923
884.686	0.9324
893.351	0.9297
902.015	0.9178
910.68	0.87
919.345	0.9243
928.01	0.9283
936.675	0.921
945.34	0.916
954.005	0.8784
962.67	0.8859
971.335	0.8741
980	0.7371
988.664	0.809
997.329	0.8726
1005.99	0.8216
1014.66	0.6
1023.32	0.8255
1031.99	0.8744
1040.65	0.903
1049.32	0.901
1057.98	0.888
1066.65	0.87
1075.31	0.7792
1083.98	0.7995
1092.64	0.9004
1101.31	0.9047
1109.97	0.8979
1118.64	0.8949
1127.3	0.873
1135.97	0.8232
1144.63	0.6668
1153.3	0.7403
1161.96	0.8621
1170.63	0.889
1179.29	0.8944
1187.96	0.8887
1196.62	0.8788
1205.29	0.8513
1213.95	0.7089
1222.62	0.826
1231.28	0.8037
1239.95	0.7606
1248.61	0.6519
1257.28	0.5772
1265.94	0.3785
1274.61	0.2882
1283.27	0.451
1291.94	0.6398
1300.6	0.7736
1309.27	0.8156
1317.93	0.8158
1326.6	0.8186
1335.26	0.8212
1343.93	0.8375
1352.59	0.8358
1361.26	0.7919
1369.92	0.8133
1378.58	0.854
1387.25	0.857
1395.91	0.8413
1404.58	0.8268
1413.24	0.8503
1421.91	0.8636
1430.57	0.8675
1439.24	0.8575
1447.9	0.669
1456.57	0.656
1465.23	0.802
1473.9	0.863
1482.56	0.8699
1491.23	0.8682
1499.89	0.8144
1508.56	0.8232
1517.22	0.783
1525.89	0.728
1534.55	0.6297
1543.22	0.4212
1551.88	0.3412
1560.55	0.4921
1569.21	0.7046
1577.88	0.8098
1586.54	0.8277
1595.21	0.8276
1603.87	0.8265
1612.54	0.8254
1621.2	0.836
1629.87	0.834
1638.53	0.832
1647.2	0.83
1655.86	0.8183
1664.53	0.7887
1673.19	0.7831
1681.86	0.6979
1690.52	0.4526
1699.19	0.0861
1707.85	0.3123
1716.52	0.5171
1725.18	0.6524
1733.85	0.7252
1742.51	0.7942
1751.18	0.8409
1759.84	0.859
1768.51	0.8713
1777.17	0.8761
1785.84	0.8824
1794.5	0.884
1803.16	0.887
1811.83	0.889
1820.49	0.892
1829.16	0.8979
1837.82	0.901
1846.49	0.904
1855.15	0.905
1863.82	0.908
1872.48	0.906
1881.15	0.9047
1889.81	0.904
1898.48	0.905
1907.14	0.905
1915.81	0.906
1924.47	0.906
1933.14	0.906
1941.8	0.906
1950.47	0.906
1959.13	0.9005
1967.8	0.8984
1976.46	0.9002
1985.13	0.904
1993.79	0.906
2002.46	0.905
2011.12	0.904
2019.79	0.904
2028.45	0.904
2037.12	0.904
2045.78	0.904
2054.45	0.904
2063.11	0.904
2071.78	0.904
2080.44	0.903
2089.11	0.903
2097.77	0.903
2106.44	0.904
2115.1	0.904
2123.77	0.904
2132.43	0.904
2141.1	0.904
2149.76	0.904
2158.43	0.904
2167.09	0.904
2175.76	0.904
2184.42	0.904
2193.09	0.904
2201.75	0.904
2210.42	0.904
2219.08	0.904
2227.74	0.901
2236.41	0.9
2245.07	0.8931
2253.74	0.8435
2262.4	0.8308
2271.07	0.898
2279.73	0.899
2288.4	0.901
2297.06	0.901
2305.73	0.901
2314.39	0.901
2323.06	0.901
2331.72	0.901
2340.39	0.9
2349.05	0.899
2357.72	0.898
2366.38	0.898
2375.05	0.898
2383.71	0.898
2392.38	0.898
2401.04	0.897
2409.71	0.897
2418.37	0.897
2427.04	0.897
2435.7	0.897
2444.37	0.897
2453.03	0.897
2461.7	0.897
2470.36	0.897
2479.03	0.895
2487.69	0.895
2496.36	0.894
2505.02	0.894
2513.69	0.893
2522.35	0.893
2531.02	0.894
2539.68	0.894
2548.35	0.893
2557.01	0.892
2565.68	0.893
2574.34	0.894
2583.01	0.894
2591.67	0.89
2600.34	0.89
2609	0.89
2617.67	0.89
2626.33	0.89
2635	0.889
2643.66	0.889
2652.32	0.889
2660.99	0.888
2669.65	0.888
2678.32	0.888
2686.98	0.887
2695.65	0.889
2704.31	0.889
2712.98	0.887
2721.64	0.884
2730.31	0.883
2738.97	0.883
2747.64	0.88
2756.3	0.878
2764.97	0.875
2773.63	0.875
2782.3	0.873
2790.96	0.872
2799.63	0.869
2808.29	0.869
2816.96	0.872
2825.62	0.873
2834.29	0.873
2842.95	0.872
2851.62	0.869
2860.28	0.866
2868.95	0.861
2877.61	0.861
2886.28	0.854
2894.94	0.8431
2903.61	0.848
2912.27	0.848
2920.94	0.836
2929.6	0.828
2938.27	0.823
2946.93	0.811
2955.6	0.7591
2964.26	0.8129
2972.93	0.836
2981.59	0.8339
2990.26	0.847
2998.92	0.852
3007.59	0.848
3016.25	0.851
3024.92	0.849
3033.58	0.8381
3042.25	0.816
3050.91	0.831
3059.58	0.8181
3068.24	0.782
3076.9	0.8149
3085.57	0.827
3094.23	0.831
3102.9	0.8459
3111.56	0.849
3120.23	0.851
3128.89	0.847
3137.56	0.846
3146.22	0.843
3154.89	0.843
3163.55	0.841
3172.22	0.839
3180.88	0.837
3189.55	0.834
3198.21	0.833
3206.88	0.826
3215.54	0.817
3224.21	0.806
3232.87	0.799
3241.54	0.777
3250.2	0.759
3258.87	0.756
3267.53	0.7281
3276.2	0.715
3284.86	0.6891
3293.53	0.6372
3302.19	0.5851
3310.86	0.5133
3319.52	0.4133
3328.19	0.3062
3336.85	0.3118
3345.52	0.4436
3354.18	0.5699
3362.85	0.6259
3371.51	0.6649
3380.18	0.691
3388.84	0.699
3397.51	0.705
3406.17	0.709
3414.84	0.71
3423.5	0.712
3432.17	0.715
3440.83	0.718
3449.5	0.724
3458.16	0.732
3466.83	0.735
3475.49	0.738
3484.16	0.741
3492.82	0.746
3501.49	0.755
3510.15	0.758
3518.81	0.7629
3527.48	0.771
3536.14	0.776
3544.81	0.781
3553.47	0.785
3562.14	0.791
3570.8	0.799
3579.47	0.805
3588.13	0.811
3596.8	0.813
3605.46	0.82
3614.13	0.825
3622.79	0.83
3631.46	0.837
3640.12	0.842
3648.79	0.849
3657.45	0.8431
3666.12	0.851
3674.78	0.856
3683.45	0.842
3692.11	0.849
3700.78	0.842
3709.44	0.857
3718.11	0.854
3726.77	0.857
3735.44	0.858
3744.1	0.853
3752.77	0.859
3761.43	0.848
3770.1	0.859
3778.76	0.861
3787.43	0.861
3796.09	0.861
3804.76	0.858
