Infrared Spectrum: 2,5-Dimethyl-3-hexanone
Formula: C 8 H 16 O
CAS: 1888-57-9
State: gas
Instrument: HP-GC/MS/IRD
Origin: NIST Mass Spectrometry Data Center
1/CM	ABSORBANCE
550	0.0003144
562	2.56e-05
574	0.0001352
586	8.48e-05
598	0.0001736
610	0.0001176
622	0.0001144
634	0.0001368
646	0.0001544
658	7.04e-05
670	7.76e-05
682	0.0001432
694	0.0001048
706	8.96e-05
718	9.52e-05
730	0.0001568
742	0.0001336
754	0.0001336
766	0.0001808
778	0.0002592
790	0.000288
802	0.0002664
814	0.0001832
826	0.000244
838	0.0002096
850	0.0001872
862	0.0002104
874	0.0002656
886	0.0002728
898	0.000272
910	0.0002744
922	0.000356
934	0.0004928
946	0.0006712
958	0.0005544
970	0.0003688
982	0.000356
994	0.0004664
1006	0.000624
1018	0.0009464
1030	0.0016488
1042	0.001608
1054	0.00096
1066	0.0006448
1078	0.0005688
1090	0.0005936
1102	0.0007376
1114	0.0008024
1126	0.000712
1138	0.0008088
1150	0.0007752
1162	0.0007872
1174	0.0007992
1186	0.0005536
1198	0.0003448
1210	0.0002696
1222	0.000308
1234	0.0002752
1246	0.0002592
1258	0.0002904
1270	0.0004032
1282	0.0005992
1294	0.0005984
1306	0.000528
1318	0.0005304
1330	0.0007328
1342	0.0010952
1354	0.0014936
1366	0.001652
1378	0.0014968
1390	0.0013624
1402	0.000788
1414	0.0006288
1426	0.000592
1438	0.0007304
1450	0.0009992
1462	0.0015096
1474	0.0015088
1486	0.0008528
1498	0.0004072
1510	0.0002464
1522	0.0001696
1534	0.000148
1546	0.0001256
1558	0.00012
1570	0.0001352
1582	0.0001488
1594	0.000128
1606	0.0001304
1618	0.000148
1630	0.0001664
1642	0.0001928
1654	0.0002008
1666	0.0002624
1678	0.0004552
1690	0.0008312
1702	0.0019112
1714	0.0038176
1726	0.0042832
1738	0.002236
1750	0.0007704
1762	0.0003592
1774	0.0002112
1786	0.0001544
1798	0.0001296
1810	9.68e-05
1822	0.0001152
1834	0.000108
1846	7.76e-05
1858	8.72e-05
1870	8.48e-05
1882	7.2e-05
1894	7.6e-05
1906	5.28e-05
1918	4.88e-05
1930	4.48e-05
1942	5.12e-05
1954	3.28e-05
1966	3.92e-05
1978	4.56e-05
1990	5.36e-05
2002	3.28e-05
2014	3.92e-05
2026	4e-05
2038	4.48e-05
2050	4.64e-05
2062	5.04e-05
2074	2.8e-05
2086	4.72e-05
2098	3.76e-05
2110	4.56e-05
2122	3.44e-05
2134	2.64e-05
2146	4.24e-05
2158	2.48e-05
2170	4.64e-05
2182	2e-05
2194	3.68e-05
2206	6.72e-05
2218	4.16e-05
2230	3.04e-05
2242	5.04e-05
2254	5.04e-05
2266	4.4e-05
2278	4.72e-05
2290	4e-05
2302	1.2e-05
2314	3.36e-05
2326	5.52e-05
2338	2.72e-05
2350	4.08e-05
2362	6e-05
2374	6.24e-05
2386	3.92e-05
2398	6.8e-05
2410	6.64e-05
2422	7.44e-05
2434	6.88e-05
2446	4.56e-05
2458	6.4e-05
2470	4.8e-05
2482	4.48e-05
2494	4.24e-05
2506	5.92e-05
2518	9.36e-05
2530	7.52e-05
2542	5.68e-05
2554	6.64e-05
2566	8.16e-05
2578	8.32e-05
2590	8.88e-05
2602	0.0001056
2614	6.48e-05
2626	8.48e-05
2638	0.0001144
2650	0.00012
2662	0.0001128
2674	8.24e-05
2686	0.0001032
2698	0.000116
2710	9.84e-05
2722	0.0001792
2734	0.0002336
2746	0.0002088
2758	0.0002016
2770	0.0002176
2782	0.000232
2794	0.0002248
2806	0.0003176
2818	0.000384
2830	0.0004416
2842	0.0005736
2854	0.0007728
2866	0.0014616
2878	0.0026728
2890	0.0031504
2902	0.002996
2914	0.0030032
2926	0.0033904
2938	0.0042128
2950	0.0050784
2962	0.007204
2974	0.00768
2986	0.0044304
2998	0.0017688
3010	0.0008312
3022	0.0005032
3034	0.0003184
3046	0.000284
3058	0.0002456
3070	0.0002152
3082	0.0002272
3094	0.0002312
3106	0.0002192
3118	0.000208
3130	0.0002024
3142	0.0002184
3154	0.000196
3166	0.0001664
3178	0.0002176
3190	0.0002128
3202	0.0002088
3214	0.0001504
3226	0.000128
3238	9.28e-05
3250	9.68e-05
3262	7.76e-05
3274	0.0001224
3286	6.88e-05
3298	0.0001008
3310	5.36e-05
3322	0.0001088
3334	0.0001024
3346	9.36e-05
3358	9.44e-05
3370	0.0001096
3382	9.68e-05
3394	0.0001152
3406	0.000152
3418	0.00012
3430	0.0001352
3442	0.000148
3454	0.0001672
3466	0.0001072
3478	0.0001408
3490	9.44e-05
3502	7.2e-05
3514	7.44e-05
3526	8.56e-05
3538	0.000108
3550	7.92e-05
3562	5.52e-05
3574	0.0001056
3586	6e-05
3598	6.96e-05
3610	5.36e-05
3622	6.32e-05
3634	4.64e-05
3646	0.0001016
3658	2e-05
3670	2.32e-05
3682	6e-05
3694	6.32e-05
3706	7.12e-05
3718	4.24e-05
3730	4.16e-05
3742	7.52e-05
3754	9.12e-05
3766	9.04e-05
3778	7.92e-05
3790	4.88e-05
3802	8.88e-05
3814	0.000108
3826	0.0001008
3838	8.24e-05
