Infrared Spectrum: Hexachloropropene
Formula: C 3 Cl 6
CAS: 1888-71-7
State: gas
Origin: EPA-IR VAPOR PHASE LIBRARY
1/CM	ABSORBANCE
501.5	0.001443
513.074	0.001213
524.648	0.001753
536.222	0.002423
547.796	0.004053
559.37	0.012223
570.944	0.010373
582.518	0.004333
594.092	0.003973
605.666	0.003943
617.24	0.005463
628.814	0.010243
640.388	0.039573
651.962	0.135873
663.536	0.103953
675.11	0.019303
686.684	0.010103
698.258	0.010003
709.832	0.010993
721.406	0.015633
732.98	0.024103
744.554	0.054143
756.128	0.131763
767.702	0.275833
779.276	0.333713
790.85	0.159703
802.423	0.080723
813.997	0.032013
825.571	0.014513
837.145	0.010663
848.719	0.018143
860.293	0.048073
871.867	0.039613
883.441	0.009403
895.015	0.007533
906.589	0.011933
918.163	0.032743
929.737	0.072433
941.311	0.096423
952.885	0.071453
964.459	0.015853
976.033	0.005373
987.607	0.004043
999.181	0.004033
1010.76	0.004163
1022.33	0.003423
1033.9	0.003103
1045.48	0.004453
1057.05	0.010923
1068.63	0.034843
1080.2	0.071483
1091.77	0.044493
1103.35	0.009363
1114.92	0.003643
1126.49	0.002753
1138.07	0.002653
1149.64	0.002633
1161.22	0.002203
1172.79	0.001613
1184.36	0.001313
1195.94	0.001253
1207.51	0.001373
1219.09	0.001253
1230.66	0.0010968
1242.23	0.001064
1253.81	0.0005076
1265.38	5.69e-05
1276.96	0.0002561
1288.53	0.0004078
1300.1	0.0006842
1311.68	0.0008139
1323.25	0.0006553
1334.83	0.0005004
1346.4	0.000565
1357.97	0.0006185
1369.55	0.000644
1381.12	0.0005488
1392.7	0.0004592
1404.27	0.0004859
1415.84	0.0005233
1427.42	0.0005727
1438.99	0.0006397
1450.57	0.0005841
1462.14	0.0006087
1473.71	0.0007435
1485.29	0.0010778
1496.86	0.002023
1508.44	0.005023
1520.01	0.013183
1531.58	0.040183
1543.16	0.088403
1554.73	0.060753
1566.31	0.010413
1577.88	0.003853
1589.45	0.002543
1601.03	0.001783
1612.6	0.001233
1624.18	0.0008722
1635.75	0.0008608
1647.32	0.0008918
1658.9	0.0005021
1670.47	0.0002581
1682.05	0.00016876
1693.62	0.0002317
1705.19	0.0003891
1716.77	0.0005445
1728.34	0.000687
1739.92	0.0005029
1751.49	0.00021308
1763.06	0.00017764
1774.64	0.0003792
1786.21	0.0004202
1797.79	0.0003637
1809.36	0.0003738
1820.93	0.0003648
1832.51	0.0003942
1844.08	0.0005988
1855.66	0.0008715
1867.23	0.0009938
1878.8	0.0009758
1890.38	0.0008951
1901.95	0.0006699
1913.53	0.0005286
1925.1	0.0006233
1936.67	0.0007093
1948.25	0.0008819
1959.82	0.0010989
1971.4	0.0009364
1982.97	0.0004686
1994.54	0.00021497
2006.12	0.00020119
2017.69	0.00019789
2029.27	0.00015473
2040.84	0.00011413
2052.41	8.45e-05
2063.99	0.0001019
2075.56	8.31e-05
2087.14	0.0001093
2098.71	0.0001615
2110.28	0.00021863
2121.86	0.0003668
2133.43	0.0006416
2145.01	0.0009455
2156.58	0.001143
2168.15	0.0009229
2179.73	0.0005413
2191.3	0.000435
2202.88	0.0004712
2214.45	0.0003123
2226.02	0.00016703
2237.6	0.000124739
2249.17	0.00011434
2260.74	0.0001043
2272.32	8.59e-05
2283.89	0.0001073
2295.47	0.000132563
2307.04	0.00016072
2318.61	0.00020073
2330.19	0.00020339
2341.76	0.00017071
2353.34	0.00019074
2364.91	0.00022285
2376.48	0.0001839
2388.06	0.000122698
2399.63	0.0001773
2411.21	0.00020539
2422.78	0.0001076
2434.35	5.48e-05
2445.93	0.0001046
2457.5	0.00011806
2469.08	0.00020784
2480.65	0.0001693
2492.22	0.00015459
2503.8	9.42e-05
2515.37	5.88e-05
2526.95	2.1e-05
2538.52	3.96e-05
2550.09	6.92e-05
2561.67	0.0001069
2573.24	9.5e-05
2584.82	0.00016824
2596.39	0.0003188
2607.96	0.0005966
2619.54	0.0008396
2631.11	0.0008468
2642.69	0.000438
2654.26	0.00019368
2665.83	9.9e-05
2677.41	8.3e-05
2688.98	3.33e-05
2700.56	3.87e-05
2712.13	0.0001078
2723.7	5.65e-05
2735.28	2.43e-05
2746.85	6.28e-05
2758.43	3.36e-05
2770	5.75e-05
2781.57	3.61e-05
2793.15	7.53e-05
2804.72	6.27e-05
2816.3	9.57e-05
2827.87	0.0001037
2839.44	0.00014667
2851.02	9.85e-05
2862.59	7.41e-05
2874.17	6.67e-05
2885.74	6.42e-05
2897.31	5.9e-05
2908.89	7.62e-05
2920.46	9.8e-05
2932.04	4.34e-05
2943.61	9.86e-05
2955.18	0.00012147
2966.76	7.54e-05
2978.33	0.0001051
2989.91	8.62e-05
3001.48	0.0001095
3013.05	5.59e-05
3024.63	0.00011559
3036.2	0.000122401
3047.78	0.00016417
3059.35	0.00019568
3070.92	0.000281
3082.5	0.00018747
3094.07	0.00011653
3105.65	9.16e-05
3117.22	6.81e-05
3128.79	9.5e-05
3140.37	5.46e-05
3151.94	4.28e-05
3163.52	2e-05
3175.09	4.04e-05
3186.66	3.53e-05
3198.24	6.57e-05
3209.81	0.000125796
3221.39	9.09e-05
3232.96	6.5e-05
3244.53	0.000132292
3256.11	0.00011936
3267.68	0.000122431
3279.26	0.0001049
3290.83	8.08e-05
3302.4	0.000132494
3313.98	0.0001062
3325.55	0.000125836
3337.13	7.2e-05
3348.7	0.0001022
3360.27	6.21e-05
3371.85	8.7e-05
3383.42	0.00017895
3395	0.000125779
3406.57	0.0001043
3418.14	0.0001024
3429.72	8.66e-05
3441.29	0.0001037
3452.86	0.0001075
3464.44	0.00015695
3476.01	0.000122121
3487.59	0.00016181
3499.16	0.00015704
3510.73	0.0001059
3522.31	0.00016203
3533.88	0.00014039
3545.46	0.000128275
3557.03	0.00014692
3568.6	0.000130786
3580.18	7.96e-05
3591.75	0.0001031
3603.33	0.00015047
3614.9	0.00014549
3626.47	0.00016902
3638.05	0.000127499
3649.62	0.0001001
3661.2	0.00017216
3672.77	0.00013903
3684.34	0.0001579
3695.92	0.00020211
3707.49	0.00016976
3719.07	0.00015621
3730.64	0.0001552
3742.21	0.00022137
3753.79	0.00014622
3765.36	0.00014788
3776.94	0.00011786
3788.51	0.0002325
3800.08	0.00012681
3811.66	0.00015729
3823.23	0.00014029
3834.81	0.00016244
3846.38	0.00016703
3857.95	0.00021334
3869.53	4.1e-05
3881.1	0.00013872
3892.68	0.00014182
3904.25	0.00021496
3915.82	0.0001694
3927.4	0.00019244
3938.97	0.00016064
3950.55	0.0001521
3962.12	0.00014756
3973.69	0.000127143
3985.27	0.0001681
3996.84	0.00019469
