Infrared Spectrum: Choline, iodide, hexanoate
Formula: C11 H24 I N O2
CAS: 18885-38-6
State: SOLID (NUJOL MULL)
Class: COBLENTZ III
Instrument: PERKIN-ELMER 221 (GRATING)
Instrument parameters: FILTER AT 980 CM^-^1. GRATING 4000-1428 CM^-^1, NaCl PRISM 1428-650 CM^-^1
Resolution: 2
Origin: SOUTHERN RESEARCH INSTITUTE
1/CM	TRANSMITTANCE
638	0.806
647	0.8273
656	0.8493
665	0.8697
674	0.8836
683	0.8956
692	0.899
701	0.8893
710	0.8101
719	0.7655
728	0.8138
737	0.8851
746	0.9039
755	0.905
764	0.9218
773	0.9371
782	0.9415
791	0.9519
800	0.9481
809	0.9401
818	0.9266
827	0.8968
836	0.8544
845	0.7881
854	0.5869
863	0.6703
872	0.8665
881	0.7744
890	0.6461
899	0.6606
908	0.636
917	0.7929
926	0.7402
935	0.57
944	0.4429
953	0.4345
962	0.7624
971	0.8451
980	0.8838
989	0.8874
998	0.8909
1007	0.883
1016	0.8536
1025	0.7752
1034	0.7546
1043	0.7224
1052	0.7244
1061	0.7884
1070	0.821
1079	0.7907
1088	0.7138
1097	0.598
1106	0.5135
1115	0.6568
1124	0.5827
1133	0.5518
1142	0.4121
1151	0.3094
1160	0.3195
1169	0.5077
1178	0.6935
1187	0.7106
1196	0.5881
1205	0.6821
1214	0.7214
1223	0.7271
1232	0.6863
1241	0.6774
1250	0.8068
1259	0.7758
1268	0.753
1277	0.7559
1286	0.7238
1295	0.5776
1304	0.6399
1313	0.6993
1322	0.7664
1331	0.6858
1340	0.6587
1349	0.5871
1358	0.5556
1367	0.4657
1376	0.5312
1385	0.574
1394	0.6966
1403	0.6281
1412	0.7411
1421	0.7157
1430	0.5669
1439	0.4042
1448	0.3062
1457	0.2898
1466	0.402
1475	0.3993
1484	0.6219
1493	0.8225
1502	0.8946
1511	0.9224
1520	0.9292
1529	0.9293
1538	0.9289
1547	0.9274
1556	0.9255
1565	0.9248
1574	0.9253
1583	0.9262
1592	0.925
1601	0.9222
1610	0.9169
1619	0.9107
1628	0.9044
1637	0.8965
1646	0.8891
1655	0.881
1664	0.8682
1673	0.845
1682	0.8053
1691	0.6757
1700	0.6383
1709	0.565
1718	0.3665
1727	0.2314
1736	0.2541
1745	0.4687
1754	0.741
1763	0.8269
1772	0.8773
1781	0.8973
1790	0.9104
1799	0.9167
1808	0.924
1817	0.934
1826	0.9462
1835	0.9586
1844	0.9686
1853	0.9713
1862	0.9711
1871	0.9694
1880	0.9676
1889	0.9656
1898	0.9654
1907	0.9654
1916	0.9659
1925	0.9663
1934	0.966
1943	0.9629
1952	0.9545
1961	0.952
1970	0.9502
1979	0.9486
1988	0.9442
1997	0.9372
2006	0.9476
2015	0.9494
2024	0.9508
2033	0.9512
2042	0.952
2051	0.9527
2060	0.9535
2069	0.9539
2078	0.9531
2087	0.952
2096	0.9485
2105	0.9441
2114	0.941
2123	0.9385
2132	0.9374
2141	0.9369
2150	0.9363
2159	0.9366
2168	0.937
2177	0.9378
2186	0.9408
2195	0.9397
2204	0.9355
2213	0.9307
2222	0.9288
2231	0.929
2240	0.9274
2249	0.9196
2258	0.9138
2267	0.9097
2276	0.906
2285	0.9024
2294	0.8988
2303	0.8953
2312	0.8933
2321	0.892
2330	0.8917
2339	0.8914
2348	0.8918
2357	0.8929
2366	0.8948
2375	0.8993
2384	0.9006
2393	0.8999
2402	0.8993
2411	0.8971
2420	0.8944
2429	0.8916
2438	0.8885
2447	0.8851
2456	0.8797
2465	0.8713
2474	0.8584
2483	0.8734
2492	0.8877
2501	0.8869
2510	0.8786
2519	0.8758
2528	0.8748
2537	0.874
2546	0.8699
2555	0.8604
2564	0.8475
2573	0.8454
2582	0.8444
2591	0.844
2600	0.8439
2609	0.8437
2618	0.8434
2627	0.8425
2636	0.8361
2645	0.8247
2654	0.8148
2663	0.8099
2672	0.8069
2681	0.8054
2690	0.805
2699	0.8047
2708	0.7963
2717	0.7907
2726	0.7903
2735	0.7922
2744	0.7915
2753	0.7857
2762	0.776
2771	0.7615
2780	0.7434
2789	0.7182
2798	0.6875
2807	0.6559
2816	0.6189
2825	0.5215
2834	0.4106
2843	0.2186
2852	0.1341
2861	0.1321
2870	0.1556
2879	0.1911
2888	0.1675
2897	0.1262
2906	0.0822
2915	0.0696
2924	0.0663
2933	0.0735
2942	0.0821
2951	0.0803
2960	0.1042
2969	0.1897
2978	0.2686
2987	0.3675
2996	0.3828
3005	0.351
3014	0.5171
3023	0.6035
3032	0.5941
3041	0.5861
3050	0.6973
3059	0.7164
3068	0.7365
3077	0.7434
3086	0.749
3095	0.7538
3104	0.7611
3113	0.7711
3122	0.7797
3131	0.788
3140	0.795
3149	0.7991
3158	0.8011
3167	0.8024
3176	0.803
3185	0.8036
3194	0.8048
3203	0.8078
3212	0.811
3221	0.8125
3230	0.8125
3239	0.812
3248	0.8113
3257	0.8107
3266	0.8102
3275	0.8088
3284	0.8079
3293	0.8075
3302	0.8071
3311	0.8066
3320	0.806
3329	0.8054
3338	0.8045
3347	0.8037
3356	0.8032
3365	0.8034
3374	0.8034
3383	0.8033
3392	0.8027
3401	0.8013
3410	0.7991
3419	0.7929
3428	0.787
3437	0.7815
3446	0.7759
3455	0.7737
3464	0.7856
3473	0.7992
3482	0.8033
3491	0.8043
3500	0.8049
3509	0.8044
3518	0.804
3527	0.8062
3536	0.8081
3545	0.8074
3554	0.8065
3563	0.805
3572	0.8038
3581	0.8025
3590	0.8004
3599	0.7979
3608	0.7959
3617	0.7951
3626	0.7957
3635	0.7966
3644	0.7972
3653	0.7974
3662	0.7975
3671	0.7972
3680	0.797
3689	0.797
3698	0.7964
3707	0.795
3716	0.7924
3725	0.7909
3734	0.7901
3743	0.7897
3752	0.7895
3761	0.7899
3770	0.7908
3779	0.792
3788	0.7901
3797	0.7865
3806	0.785
3815	0.7854
3824	0.7853
3833	0.7825
3842	0.7813
3851	0.7761
3860	0.775
3869	0.7747
3878	0.7741
3887	0.774
3896	0.7732
3905	0.7703
3914	0.7673
3923	0.7673
3932	0.7672
3941	0.7662
3950	0.7643
3959	0.7628
3968	0.7625
3977	0.7629
3986	0.7618
3995	0.7595
