Infrared Spectrum: 2,3-Dimethyl-2,3-diphenylbutane
Formula: C 18 H 22
CAS: 1889-67-4
State: gas
Instrument: HP-GC/MS/IRD
Origin: NIST Mass Spectrometry Data Center
1/CM	ABSORBANCE
550	0.0008004
562	0.001173
574	0.0036593
586	0.002415
598	0.0012489
610	0.0002921
622	0.0001127
634	0.0001656
646	0.0003519
658	0.0008556
670	0.0014214
682	0.0028474
694	0.0148603
706	0.0182758
718	0.0035305
730	0.0017135
742	0.0013846
754	0.003496
766	0.0102281
778	0.0030613
790	0.0005819
802	0.0004255
814	0.0001909
826	0.0001932
838	0.000207
850	0.0001311
862	0.0002507
874	0.0002852
886	0.0002507
898	0.0003565
910	0.0006601
922	0.0010419
934	0.0006118
946	0.0001127
958	5.75e-05
970	0.0002001
982	0.0003358
994	0.0005175
1006	0.0008395
1018	0.0014858
1030	0.0051152
1042	0.0019136
1054	0.0009269
1066	0.0019872
1078	0.001817
1090	0.0033948
1102	0.0013179
1114	0.0005842
1126	0.0007567
1138	0.0025737
1150	0.0023483
1162	0.0007291
1174	0.0005681
1186	0.0006141
1198	0.0011385
1210	0.0013248
1222	0.0016008
1234	0.0015249
1246	0.001311
1258	0.0007521
1270	0.0002783
1282	0.0001564
1294	0.0001219
1306	8.51e-05
1318	0.0001587
1330	0.0001863
1342	0.000506
1354	0.0007245
1366	0.0026956
1378	0.0072128
1390	0.0051865
1402	0.0033097
1414	0.0012213
1426	0.0012328
1438	0.0032154
1450	0.0033603
1462	0.0039307
1474	0.0056603
1486	0.0065044
1498	0.0062606
1510	0.0026082
1522	0.0010327
1534	0.0008211
1546	0.0006532
1558	0.0005474
1570	0.0005474
1582	0.0012029
1594	0.0023828
1606	0.0021942
1618	0.0005727
1630	0.0002231
1642	0.000207
1654	0.0004324
1666	0.0003979
1678	0.0004738
1690	0.000345
1702	0.0004209
1714	0.0003772
1726	0.0002737
1738	0.0004002
1750	0.0005152
1762	0.0003634
1774	0.0003818
1786	0.0006532
1798	0.0010718
1810	0.0007406
1822	0.0003979
1834	0.0002415
1846	0.0003473
1858	0.0004071
1870	0.0005635
1882	0.0005934
1894	0.0004991
1906	0.0002691
1918	0.0002438
1930	0.0005842
1942	0.0010028
1954	0.0007613
1966	0.0002576
1978	0.0001725
1990	0.0001587
2002	6.9e-05
2014	8.97e-05
2026	5.75e-05
2038	6.44e-05
2050	6.21e-05
2062	4.83e-05
2074	3.22e-05
2086	5.98e-05
2098	1.38e-05
2110	1.38e-05
2122	2.76e-05
2134	5.52e-05
2146	7.13e-05
2158	7.13e-05
2170	2.07e-05
2182	2.76e-05
2194	5.75e-05
2206	5.29e-05
2218	7.59e-05
2230	8.51e-05
2242	6.9e-05
2254	8.51e-05
2266	0.0001219
2278	7.13e-05
2290	9.43e-05
2302	5.98e-05
2314	0.0001357
2326	2.07e-05
2338	6.9e-06
2350	7.59e-05
2362	9.2e-06
2374	2.3e-05
2386	0.0001058
2398	0.000138
2410	0.0001012
2422	0.0001012
2434	0.0001035
2446	8.28e-05
2458	8.51e-05
2470	5.06e-05
2482	9.89e-05
2494	0.0001173
2506	6.9e-05
2518	9.66e-05
2530	0.0001127
2542	0.0001104
2554	0.0001081
2566	0.0001357
2578	0.0001495
2590	0.0001426
2602	0.0001518
2614	0.000115
2626	0.0001196
2638	0.0001587
2650	0.0001472
2662	8.74e-05
2674	9.43e-05
2686	0.0001242
2698	0.0001334
2710	0.0002047
2722	0.0001909
2734	0.0002576
2746	0.0002001
2758	0.0001702
2770	0.0001909
2782	0.00023
2794	0.0002599
2806	0.0002484
2818	0.0003588
2830	0.0005129
2842	0.0006348
2854	0.000851
2866	0.0014329
2878	0.0033005
2890	0.0054556
2902	0.0049036
2914	0.0055867
2926	0.0071323
2938	0.0086181
2950	0.010419
2962	0.0120543
2974	0.0181562
2986	0.0207345
2998	0.0184414
3010	0.0085008
3022	0.0058236
3034	0.0066493
3046	0.0063434
3058	0.0098348
3070	0.010488
3082	0.0058236
3094	0.0080293
3106	0.0039468
3118	0.001794
3130	0.0008533
3142	0.0006509
3154	0.0006072
3166	0.0004876
3178	0.0003864
3190	0.0003013
3202	0.0003197
3214	0.0002691
3226	0.0003289
3238	0.0002829
3250	0.000322
3262	0.0003174
3274	0.0002461
3286	0.0002875
3298	0.0001955
3310	0.0001679
3322	0.0001449
3334	0.0001817
3346	9.43e-05
3358	0.0001012
3370	0.0001472
3382	0.0001265
3394	0.0001357
3406	0.0001127
3418	0.0001104
3430	0.0001173
3442	9.2e-05
3454	9.66e-05
3466	7.13e-05
3478	6.21e-05
3490	7.36e-05
3502	0.0001771
3514	4.6e-05
3526	0.0001564
3538	6.9e-06
3550	0.0001196
3562	0.0001357
3574	5.06e-05
3586	0.0002185
3598	0.0001012
3610	0.0002001
3622	9.43e-05
3634	0.0001012
3646	0.0001311
3658	0.000115
3670	0.0001817
3682	6.9e-06
3694	1.15e-05
3706	9.43e-05
3718	0.0001426
3730	0.0001288
3742	0.0001748
3754	9.43e-05
3766	9.2e-06
3778	1.38e-05
3790	1.84e-05
3802	6.9e-06
3814	5.06e-05
3826	4.37e-05
3838	0.0001219
