Infrared Spectrum: 3,5-DIBROMOCYCLOPENTENE
Formula: C5 H6 Br2
CAS: 1890-04-6
State: LIQUID
Boiling point: 61 C AT 4 mmHg
Class: COBLENTZ
Instrument: Not specified, most likely a prism, grating, or hybrid spectrometer.
Sampling: TRANSMISSION
Path length: 0.005 CM
Resolution: 4
Origin: WYANDOTTE CHEMICALS CORP., WYANDOTTE, MICHIGAN, USA
MICROMETERS	TRANSMITTANCE
2.02	0.979
2.06086	0.972
2.10171	0.982
2.14257	0.977
2.18342	0.946
2.22428	0.931
2.26514	0.91
2.30599	0.876
2.34685	0.909
2.3877	0.938
2.42856	0.933
2.46942	0.941
2.51027	0.917
2.55113	0.85
2.59198	0.921
2.63284	0.939
2.67369	0.945
2.71455	0.945
2.75541	0.958
2.79626	0.96
2.83712	0.958
2.87797	0.955
2.91883	0.962
2.95969	0.962
3.00054	0.96
3.0414	0.951
3.08225	0.936
3.12311	0.917
3.16397	0.893
3.20482	0.84
3.24568	0.578
3.28653	0.715
3.32739	0.488
3.36825	0.481
3.4091	0.605
3.44996	0.643
3.49081	0.766
3.53167	0.761
3.57253	0.879
3.61338	0.939
3.65424	0.953
3.69509	0.943
3.73595	0.948
3.7768	0.958
3.81766	0.943
3.85852	0.938
3.89937	0.927
3.94023	0.927
3.98108	0.917
4.02194	0.888
4.0628	0.89
4.10365	0.902
4.14451	0.9
4.18536	0.893
4.22622	0.876
4.26708	0.893
4.30793	0.886
4.34879	0.881
4.38964	0.869
4.4305	0.873
4.47136	0.864
4.51221	0.905
4.55307	0.9
4.59392	0.871
4.63478	0.89
4.67564	0.886
4.71649	0.933
4.75735	0.919
4.7982	0.914
4.83906	0.914
4.87992	0.915
4.92077	0.926
4.96163	0.939
5.00248	0.929
5.04334	0.921
5.08419	0.91
5.12505	0.909
5.16591	0.885
5.20676	0.886
5.24762	0.897
5.28847	0.883
5.32933	0.819
5.37019	0.833
5.41104	0.878
5.4519	0.9
5.49275	0.885
5.53361	0.905
5.57447	0.91
5.61532	0.926
5.65618	0.924
5.69703	0.907
5.73789	0.843
5.77875	0.698
5.8196	0.716
5.86046	0.742
5.90131	0.794
5.94217	0.79
5.98303	0.799
6.02388	0.854
6.06474	0.864
6.10559	0.869
6.14645	0.874
6.1873	0.746
6.22816	0.481
6.26902	0.806
6.30987	0.837
6.35073	0.873
6.39158	0.876
6.43244	0.9
6.4733	0.885
6.51415	0.879
6.55501	0.873
6.59586	0.876
6.63672	0.881
6.67758	0.874
6.71843	0.866
6.75929	0.842
6.80014	0.783
6.841	0.701
6.88186	0.54
6.92271	0.331
6.96357	0.202
7.00442	0.068
7.04528	0.142
7.08614	0.566
7.12699	0.706
7.16785	0.766
7.2087	0.771
7.24956	0.754
7.29041	0.735
7.33127	0.651
7.37213	0.313
7.41298	0.041
7.45384	0.222
7.49469	0.61
7.53555	0.696
7.57641	0.698
7.61726	0.65
7.65812	0.576
7.69897	0.262
7.73983	0.257
7.78069	0.481
7.82154	0.519
7.8624	0.32
7.90325	0.097
7.94411	0.313
7.98497	0.195
8.02582	0.399
8.06668	0.512
8.10753	0.523
8.14839	0.457
8.18925	0.392
8.2301	0.291
8.27096	0.138
8.31181	0.042
8.35267	0.037
8.39353	0.056
8.43438	0.077
8.47524	0.034
8.51609	0.029
8.55695	0.029
8.5978	0.034
8.63866	0.029
8.67952	0.039
8.72037	0.077
8.76123	0.113
8.80208	0.21
8.84294	0.404
8.8838	0.512
8.92465	0.521
8.96551	0.416
9.00636	0.307
9.04722	0.361
9.08808	0.559
9.12893	0.615
9.16979	0.627
9.21064	0.6
9.2515	0.578
9.29236	0.509
9.33321	0.324
9.37407	0.128
9.41492	0.289
9.45578	0.365
9.49664	0.379
9.53749	0.331
9.57835	0.495
9.6192	0.636
9.66006	0.67
9.70091	0.667
9.74177	0.602
9.78263	0.445
9.82348	0.219
9.86434	0.12
9.90519	0.252
9.94605	0.447
9.98691	0.584
10.0278	0.646
10.0686	0.658
10.1095	0.629
10.1503	0.531
10.1912	0.372
10.232	0.144
10.2729	0.123
10.3138	0.339
10.3546	0.506
10.3955	0.576
10.4363	0.562
10.4772	0.487
10.518	0.418
10.5589	0.32
10.5997	0.245
10.6406	0.173
10.6815	0.065
10.7223	0.066
10.7632	0.169
10.804	0.186
10.8449	0.147
10.8857	0.054
10.9266	0.03
10.9674	0.03
11.0083	0.037
11.0492	0.101
11.09	0.231
11.1309	0.277
11.1717	0.226
11.2126	0.108
11.2534	0.034
11.2943	0.056
11.3352	0.19
11.376	0.408
11.4169	0.576
11.4577	0.643
11.4986	0.691
11.5394	0.723
11.5803	0.734
11.6211	0.747
11.662	0.759
11.7029	0.761
11.7437	0.751
11.7846	0.744
11.8254	0.728
11.8663	0.711
11.9071	0.696
11.948	0.682
11.9888	0.687
12.0297	0.698
12.0706	0.703
12.1114	0.696
12.1523	0.696
12.1931	0.679
12.234	0.665
12.2748	0.639
12.3157	0.615
12.3566	0.576
12.3974	0.536
12.4383	0.492
12.4791	0.433
12.52	0.355
12.5608	0.272
12.6017	0.174
12.6425	0.089
12.6834	0.054
12.7243	0.041
12.7651	0.039
12.806	0.039
12.8468	0.041
12.8877	0.037
12.9285	0.041
12.9694	0.042
13.0102	0.044
13.0511	0.039
13.092	0.039
13.1328	0.042
13.1737	0.044
13.2145	0.041
13.2554	0.039
13.2962	0.039
13.3371	0.039
13.3779	0.044
13.4188	0.044
13.4597	0.046
13.5005	0.049
13.5414	0.049
13.5822	0.046
13.6231	0.044
13.6639	0.046
13.7048	0.046
13.7457	0.051
13.7865	0.06
13.8274	0.097
13.8682	0.147
13.9091	0.198
13.9499	0.245
13.9908	0.298
14.0316	0.361
14.0725	0.411
14.1134	0.451
14.1542	0.485
14.1951	0.531
14.2359	0.572
14.2768	0.591
14.3176	0.614
14.3585	0.629
14.3993	0.638
14.4402	0.641
14.4811	0.641
14.5219	0.643
14.5628	0.639
14.6036	0.631
14.6445	0.61
14.6853	0.586
14.7262	0.554
14.7671	0.481
14.8079	0.435
14.8488	0.387
14.8896	0.336
14.9305	0.303
14.9713	0.298
15.0122	0.356
15.053	0.432
15.0939	0.53
15.1348	0.564
15.1756	0.588
15.2165	0.619
15.2573	0.644
15.2982	0.656
15.339	0.668
15.3799	0.668
15.4207	0.663
15.4616	0.651
15.5025	0.648
15.5433	0.639
15.5842	0.626
15.625	0.61
15.6659	0.591
15.7067	0.571
15.7476	0.566
15.7884	0.569
15.8293	0.591
15.8702	0.602
15.911	0.626
15.9519	0.646
