Infrared Spectrum: 3-(Bromomethyl)heptane
Formula: C 8 H 17 Br
CAS: 18908-66-2
State: gas
Instrument: HP-GC/MS/IRD
Origin: NIST Mass Spectrometry Data Center
1/CM	ABSORBANCE
550	0.0004128
562	5.44e-05
574	1.6e-05
586	0.0001856
598	0.0002272
610	0.0007872
622	0.0014528
634	0.0010688
646	0.0023808
658	0.0035232
670	0.0013984
682	0.0005376
694	0.0001664
706	0.0001664
718	0.0004352
730	0.000592
742	0.0005856
754	0.0006976
766	0.0011072
778	0.0011008
790	0.0007456
802	0.000352
814	0.0002656
826	0.000288
838	0.0001728
850	0.0002176
862	0.0002848
874	0.0002336
886	0.0002496
898	0.0003712
910	0.0003808
922	0.0003616
934	0.0003552
946	0.000368
958	0.0004768
970	0.000432
982	0.0003712
994	0.0002688
1006	0.000192
1018	0.0001984
1030	0.0002272
1042	0.0002272
1054	0.0002336
1066	0.0002912
1078	0.0002624
1090	0.000272
1102	0.0001632
1114	0.0001312
1126	0.0001984
1138	0.000208
1150	0.0003008
1162	0.0004992
1174	0.000576
1186	0.000592
1198	0.0007264
1210	0.0015872
1222	0.003152
1234	0.003696
1246	0.0030752
1258	0.0029184
1270	0.0030592
1282	0.0024256
1294	0.0016896
1306	0.001264
1318	0.0010272
1330	0.0010432
1342	0.0013344
1354	0.0012736
1366	0.0012448
1378	0.0019744
1390	0.002224
1402	0.0010464
1414	0.0008992
1426	0.0014944
1438	0.0033728
1450	0.004416
1462	0.0053472
1474	0.0037824
1486	0.001504
1498	0.0007488
1510	0.0004704
1522	0.0003712
1534	0.0002944
1546	0.0002304
1558	0.000176
1570	0.0001504
1582	0.0001408
1594	0.0001376
1606	0.000128
1618	0.0001088
1630	0.000128
1642	8e-05
1654	8.32e-05
1666	0.0001024
1678	7.04e-05
1690	4.48e-05
1702	4.16e-05
1714	3.84e-05
1726	2.24e-05
1738	1.6e-05
1750	3.52e-05
1762	1.92e-05
1774	9.6e-06
1786	3.84e-05
1798	2.24e-05
1810	0
1822	0
1834	3.2e-06
1846	3.2e-06
1858	2.56e-05
1870	1.28e-05
1882	4.16e-05
1894	3.84e-05
1906	3.2e-05
1918	3.2e-05
1930	4.16e-05
1942	2.56e-05
1954	2.24e-05
1966	4.8e-05
1978	2.88e-05
1990	2.24e-05
2002	2.56e-05
2014	3.52e-05
2026	6.4e-05
2038	6.08e-05
2050	4.8e-05
2062	4.8e-05
2074	4.48e-05
2086	5.76e-05
2098	4.8e-05
2110	3.52e-05
2122	5.12e-05
2134	5.44e-05
2146	4.48e-05
2158	5.44e-05
2170	6.4e-05
2182	5.12e-05
2194	3.84e-05
2206	6.72e-05
2218	5.12e-05
2230	4.48e-05
2242	4.8e-05
2254	4.16e-05
2266	6.08e-05
2278	8e-05
2290	4.16e-05
2302	5.76e-05
2314	5.76e-05
2326	6.08e-05
2338	8e-05
2350	9.28e-05
2362	7.36e-05
2374	0.0001088
2386	8.32e-05
2398	0.0001088
2410	0.0001024
2422	9.6e-05
2434	6.72e-05
2446	5.44e-05
2458	5.44e-05
2470	2.56e-05
2482	5.12e-05
2494	4.8e-05
2506	6.4e-05
2518	6.72e-05
2530	8.96e-05
2542	8.64e-05
2554	9.92e-05
2566	8.96e-05
2578	0.0001696
2590	0.000128
2602	0.0001792
2614	0.0001632
2626	0.0002144
2638	0.0002176
2650	0.0002784
2662	0.0003264
2674	0.0003552
2686	0.0003712
2698	0.0003392
2710	0.000352
2722	0.0003968
2734	0.0005056
2746	0.0006016
2758	0.0006112
2770	0.0006208
2782	0.0007552
2794	0.0009728
2806	0.001216
2818	0.001568
2830	0.0022592
2842	0.0039104
2854	0.007296
2866	0.0118688
2878	0.013504
2890	0.012736
2902	0.011664
2914	0.015456
2926	0.0242016
2938	0.0307552
2950	0.0243264
2962	0.0270528
2974	0.029392
2986	0.0118496
2998	0.0054592
3010	0.0045216
3022	0.0031936
3034	0.0017632
3046	0.00128
3058	0.00104
3070	0.000864
3082	0.0007552
3094	0.0006912
3106	0.0006144
3118	0.0005632
3130	0.000496
3142	0.0003936
3154	0.0003712
3166	0.0003168
3178	0.00032
3190	0.0002848
3202	0.0002176
3214	0.00024
3226	9.92e-05
3238	0.0001184
3250	0.0001344
3262	9.6e-05
3274	7.36e-05
3286	0.0001088
3298	9.28e-05
3310	5.12e-05
3322	7.68e-05
3334	8.32e-05
3346	5.76e-05
3358	7.36e-05
3370	6.72e-05
3382	7.68e-05
3394	9.92e-05
3406	2.24e-05
3418	4.48e-05
3430	5.44e-05
3442	8e-05
3454	0.0001152
3466	0.0001024
3478	3.52e-05
3490	8.96e-05
3502	8.32e-05
3514	4.16e-05
3526	0.0001056
3538	8.32e-05
3550	8e-05
3562	0.0001184
3574	9.92e-05
3586	9.28e-05
3598	0.0001408
3610	0.0001024
3622	0.0001632
3634	0.00016
3646	0.0001632
3658	0.0001344
3670	0.0001472
3682	0.0001856
3694	0.0001632
3706	0.0002016
3718	0.0001408
3730	0.000144
3742	0.0001696
3754	0.0001504
3766	0.0001504
3778	0.0001728
3790	0.000144
3802	0.00016
3814	0.0002304
3826	0.0002048
3838	0.00024
