Infrared Spectrum: 4-Trifluoromethylbenzamide
Formula: C 8 H 6 F 3 N O
CAS: 1891-90-3
State: gas
Origin: EPA-IR VAPOR PHASE LIBRARY
1/CM	ABSORBANCE
549.9	0.01223
559.547	0.01059
569.193	0.01023
578.84	0.01015
588.486	0.0109
598.133	0.01192
607.779	0.0121
617.426	0.01269
627.072	0.01732
636.719	0.01672
646.365	0.0155
656.012	0.01668
665.658	0.01783
675.305	0.01935
684.951	0.02361
694.598	0.0328
704.245	0.04084
713.891	0.03731
723.538	0.04765
733.184	0.05322
742.831	0.02356
752.477	0.02382
762.124	0.03167
771.77	0.03617
781.417	0.02944
791.063	0.0226
800.71	0.02073
810.356	0.02154
820.003	0.02342
829.649	0.02693
839.296	0.03311
848.943	0.04507
858.589	0.05504
868.236	0.0404
877.882	0.02455
887.529	0.01786
897.175	0.01541
906.822	0.01384
916.468	0.01285
926.115	0.01224
935.761	0.01163
945.408	0.01107
955.054	0.01066
964.701	0.01024
974.347	0.0102
983.994	0.01093
993.64	0.01207
1003.29	0.01853
1012.93	0.06431
1022.58	0.0532
1032.23	0.01639
1041.87	0.01806
1051.52	0.03059
1061.17	0.10442
1070.81	0.183
1080.46	0.0925
1090.11	0.04209
1099.75	0.0361
1109.4	0.0531
1119.05	0.08459
1128.69	0.12167
1138.34	0.18623
1147.99	0.31562
1157.63	0.34609
1167.28	0.28365
1176.92	0.26767
1186.57	0.14192
1196.22	0.05879
1205.86	0.03231
1215.51	0.02844
1225.16	0.03066
1234.8	0.02952
1244.45	0.02703
1254.1	0.02805
1263.74	0.02618
1273.39	0.02754
1283.04	0.03869
1292.68	0.06185
1302.33	0.10605
1311.98	0.27063
1321.62	0.61178
1331.27	0.48237
1340.92	0.17482
1350.56	0.14079
1360.21	0.07732
1369.86	0.04412
1379.5	0.02934
1389.15	0.02548
1398.79	0.03297
1408.44	0.04031
1418.09	0.03025
1427.73	0.01564
1437.38	0.00961
1447.03	0.00768
1456.67	0.0072
1466.32	0.00692
1475.97	0.00696
1485.61	0.00705
1495.26	0.00737
1504.91	0.01012
1514.55	0.01245
1524.2	0.01049
1533.85	0.0105
1543.49	0.01306
1553.14	0.01854
1562.79	0.03023
1572.43	0.05604
1582.08	0.11991
1591.73	0.13736
1601.37	0.06743
1611.02	0.03255
1620.67	0.02051
1630.31	0.01527
1639.96	0.01238
1649.6	0.01219
1659.25	0.01336
1668.9	0.01671
1678.54	0.02627
1688.19	0.04094
1697.84	0.06077
1707.48	0.11429
1717.13	0.23964
1726.78	0.29146
1736.42	0.16177
1746.07	0.07021
1755.72	0.0433
1765.36	0.03089
1775.01	0.01859
1784.66	0.0123
1794.3	0.01011
1803.95	0.00953
1813.6	0.00829
1823.24	0.00689
1832.89	0.0062
1842.54	0.0054564
1852.18	0.005435
1861.83	0.005671
1871.47	0.005519
1881.12	0.0051028
1890.77	0.0052586
1900.41	0.0058594
1910.06	0.00624
1919.71	0.00635
1929.35	0.0063
1939	0.00604
1948.65	0.0056119
1958.29	0.0052262
1967.94	0.00498696
1977.59	0.004606
1987.23	0.004049
1996.88	0.00363
2006.53	0.00344
2016.17	0.0033
2025.82	0.00324
2035.47	0.00327
2045.11	0.00343
2054.76	0.00352
2064.41	0.00353
2074.05	0.00363
2083.7	0.00363
2093.35	0.00354
2102.99	0.00369
2112.64	0.00385
2122.28	0.00373
2131.93	0.00344
2141.58	0.00324
2151.22	0.00313
2160.87	0.00316
2170.52	0.00318
2180.16	0.00328
2189.81	0.00342
2199.46	0.00357
2209.1	0.00373
2218.75	0.00379
2228.4	0.00371
2238.04	0.00366
2247.69	0.00363
2257.34	0.00357
2266.98	0.00359
2276.63	0.0039
2286.28	0.004225
2295.92	0.004201
2305.57	0.004127
2315.22	0.00395
2324.86	0.00377
2334.51	0.00353
2344.16	0.0035
2353.8	0.00341
2363.45	0.00333
2373.09	0.00325
2382.74	0.00325
2392.39	0.00324
2402.03	0.00317
2411.68	0.00321
2421.33	0.00317
2430.97	0.00304
2440.62	0.0029
2450.27	0.00286
2459.91	0.00286
2469.56	0.00294
2479.21	0.00297
2488.85	0.00283
2498.5	0.00262
2508.15	0.00245
2517.79	0.00225
2527.44	0.00218
2537.09	0.00206
2546.73	0.00204
2556.38	0.00201
2566.03	0.00196
2575.67	0.00197
2585.32	0.00204
2594.96	0.00209
2604.61	0.00208
2614.26	0.00204
2623.9	0.00226
2633.55	0.00266
2643.2	0.00275
2652.84	0.00239
2662.49	0.00194
2672.14	0.00179
2681.78	0.0017
2691.43	0.00172
2701.08	0.00168
2710.72	0.00165
2720.37	0.00162
2730.02	0.00144
2739.66	0.00136
2749.31	0.00142
2758.96	0.00121
2768.6	0.00122
2778.25	0.00151
2787.9	0.00173
2797.54	0.0017
2807.19	0.00139
2816.84	0.00115
2826.48	0.00105
2836.13	0.00106
2845.77	0.00104
2855.42	0.00104
2865.07	0.00109
2874.71	0.00093
2884.36	0.00084
2894.01	0.00086
2903.65	0.00093
2913.3	0.00114
2922.95	0.00149
2932.59	0.00205
2942.24	0.00202
2951.89	0.00125
2961.53	0.00048
2971.18	0.00028
2980.83	0.00018
2990.47	0.0004
3000.12	0.00049
3009.77	0.00079
3019.41	0.00109
3029.06	0.00134
3038.71	0.00246
3048.35	0.004691
3058	0.0056119
3067.64	0.004836
3077.29	0.00385
3086.94	0.00316
3096.58	0.00283
3106.23	0.0027
3115.88	0.00177
3125.52	0.00122
3135.17	0.00115
3144.82	0.00125
3154.46	0.00087
3164.11	0.00072
3173.76	0.00049
3183.4	0.00029
3193.05	0.00023
3202.7	0.00018
3212.34	7e-05
3221.99	0.0002
3231.64	0.00013
3241.28	0.00021
3250.93	0.00029
3260.58	0.0003
3270.22	0.00043
3279.87	0.00069
3289.52	0.00083
3299.16	0.00151
3308.81	0.0018
3318.45	0.00152
3328.1	0.0013
3337.75	0.00125
3347.39	0.00124
3357.04	0.00163
3366.69	0.00211
3376.33	0.00277
3385.98	0.004138
3395.63	0.00624
3405.27	0.01017
3414.92	0.01797
3424.57	0.03015
3434.21	0.03939
3443.86	0.02967
3453.51	0.01185
3463.15	0.00647
3472.8	0.00518
3482.45	0.004655
3492.09	0.004796
3501.74	0.005728
3511.39	0.00793
3521.03	0.0111
3530.68	0.0164
3540.33	0.02286
3549.97	0.02936
3559.62	0.02408
3569.26	0.01011
3578.91	0.0054339
3588.56	0.00385
3598.2	0.00334
3607.85	0.00301
3617.5	0.00292
3627.14	0.00275
3636.79	0.00258
3646.44	0.00259
3656.08	0.00269
3665.73	0.0027
3675.38	0.0029
3685.02	0.00297
3694.67	0.00282
3704.32	0.00282
3713.96	0.00277
3723.61	0.00279
3733.26	0.00284
3742.9	0.00275
3752.55	0.00273
3762.2	0.00267
3771.84	0.00275
3781.49	0.00268
3791.13	0.00268
3800.78	0.00278
3810.43	0.00274
3820.07	0.0027
3829.72	0.00272
3839.37	0.00282
3849.01	0.0027
3858.66	0.00277
3868.31	0.00283
3877.95	0.00284
3887.6	0.00265
3897.25	0.00263
3906.89	0.00275
3916.54	0.00267
3926.19	0.00264
3935.83	0.00264
3945.48	0.0027
3955.13	0.00252
3964.77	0.00262
3974.42	0.00262
3984.07	0.0026
3993.71	0.00262
