Infrared Spectrum: 4-Imidazole carboxamide,5-(3-methyl-3-pentyl-1-triazeno)-
Formula: C10 H18 N6 O
CAS: 18910-61-7
State: SOLID (1 mg / 650 mg KBr DISC)
Class: COBLENTZ III
Instrument: PERKIN-ELMER 521 (GRATING)
Instrument parameters: FILTERS AT 3130, 2475, 2000, 1150, 700, 410. GRATING CHANGES: 2000, 620 CM^-^1
Sampling: TRANSMISSION
Resolution: 2
Origin: SOUTHERN RESEARCH INSTITUTE
1/CM	TRANSMITTANCE
250	0.271
260	0.3222
270	0.3976
280	0.4634
290	0.5204
300	0.5962
310	0.6333
320	0.6507
330	0.667
340	0.6965
350	0.7492
360	0.7856
370	0.8083
380	0.8139
390	0.801
400	0.7905
410	0.7828
420	0.7569
430	0.7849
440	0.8275
450	0.8398
460	0.8468
470	0.8432
480	0.8307
490	0.8177
500	0.8088
510	0.7956
520	0.7725
530	0.7443
540	0.707
550	0.6723
560	0.6312
570	0.6039
580	0.6165
590	0.642
600	0.7124
610	0.7364
620	0.6723
630	0.6047
640	0.7895
650	0.7647
660	0.8587
670	0.8422
680	0.7944
690	0.7846
700	0.6811
710	0.8154
720	0.8506
730	0.831
740	0.861
750	0.8556
760	0.8389
770	0.8351
780	0.7843
790	0.708
800	0.7312
810	0.7799
820	0.8059
830	0.7922
840	0.7419
850	0.7091
860	0.706
870	0.7289
880	0.7601
890	0.7428
900	0.7096
910	0.7334
920	0.7504
930	0.7285
940	0.6998
950	0.631
960	0.6361
970	0.7479
980	0.7674
990	0.7667
1000	0.7601
1010	0.7446
1020	0.7247
1030	0.6974
1040	0.6456
1050	0.5048
1060	0.5074
1070	0.6127
1080	0.5519
1090	0.5952
1100	0.653
1110	0.6194
1120	0.599
1130	0.6118
1140	0.7093
1150	0.7301
1160	0.6947
1170	0.6426
1180	0.5822
1190	0.5384
1200	0.5993
1210	0.6269
1220	0.5561
1230	0.538
1240	0.6018
1250	0.5649
1260	0.511
1270	0.5916
1280	0.5723
1290	0.5088
1300	0.5411
1310	0.4956
1320	0.4366
1330	0.364
1340	0.297
1350	0.2169
1360	0.2621
1370	0.3852
1380	0.4631
1390	0.4768
1400	0.4573
1410	0.3759
1420	0.2945
1430	0.3165
1440	0.3984
1450	0.4626
1460	0.3234
1470	0.2612
1480	0.4779
1490	0.5364
1500	0.6023
1510	0.5805
1520	0.7365
1530	0.7297
1540	0.681
1550	0.6185
1560	0.644
1570	0.6754
1580	0.6275
1590	0.537
1600	0.4359
1610	0.3298
1620	0.3251
1630	0.4446
1640	0.3967
1650	0.286
1660	0.1462
1670	0.3347
1680	0.6136
1690	0.7132
1700	0.7707
1710	0.8255
1720	0.8455
1730	0.8517
1740	0.8518
1750	0.8514
1760	0.8506
1770	0.8484
1780	0.8442
1790	0.8372
1800	0.8284
1810	0.818
1820	0.807
1830	0.795
1840	0.7843
1850	0.7771
1860	0.7708
1870	0.7651
1880	0.7599
1890	0.759
1900	0.7623
1910	0.7668
1920	0.7735
1930	0.7825
1940	0.791
1950	0.7998
1960	0.8096
1970	0.8201
1980	0.827
1990	0.8338
2000	0.8404
2010	0.8438
2020	0.8461
2030	0.8469
2040	0.8473
2050	0.8471
2060	0.8466
2070	0.8455
2080	0.8438
2090	0.8418
2100	0.8396
2110	0.8371
2120	0.8345
2130	0.8311
2140	0.8275
2150	0.8235
2160	0.8191
2170	0.8147
2180	0.8099
2190	0.8047
2200	0.7992
2210	0.7922
2220	0.785
2230	0.7768
2240	0.7685
2250	0.7601
2260	0.7517
2270	0.7433
2280	0.7352
2290	0.7272
2300	0.7192
2310	0.711
2320	0.7028
2330	0.6947
2340	0.6867
2350	0.6771
2360	0.6666
2370	0.6585
2380	0.6505
2390	0.6429
2400	0.6358
2410	0.6312
2420	0.6263
2430	0.6215
2440	0.6184
2450	0.6155
2460	0.6111
2470	0.6026
2480	0.5938
2490	0.5853
2500	0.5764
2510	0.5681
2520	0.5614
2530	0.5561
2540	0.5511
2550	0.5463
2560	0.5416
2570	0.5369
2580	0.5328
2590	0.5288
2600	0.5284
2610	0.529
2620	0.5322
2630	0.5407
2640	0.5516
2650	0.555
2660	0.5557
2670	0.5624
2680	0.5722
2690	0.5704
2700	0.564
2710	0.5557
2720	0.5473
2730	0.5392
2740	0.5325
2750	0.5272
2760	0.5288
2770	0.5314
2780	0.5327
2790	0.5306
2800	0.5332
2810	0.5369
2820	0.536
2830	0.5312
2840	0.5191
2850	0.4974
2860	0.4641
2870	0.4686
2880	0.5223
2890	0.5176
2900	0.5043
2910	0.4844
2920	0.4505
2930	0.4203
2940	0.4206
2950	0.4025
2960	0.4347
2970	0.4915
2980	0.5456
2990	0.5732
3000	0.5839
3010	0.5843
3020	0.5784
3030	0.5724
3040	0.5735
3050	0.5753
3060	0.5787
3070	0.5796
3080	0.5766
3090	0.5681
3100	0.5535
3110	0.5322
3120	0.4975
3130	0.465
3140	0.4493
3150	0.4433
3160	0.4475
3170	0.4673
3180	0.5055
3190	0.5422
3200	0.5649
3210	0.5819
3220	0.6023
3230	0.6333
3240	0.6439
3250	0.6359
3260	0.6127
3270	0.592
3280	0.5896
3290	0.5948
3300	0.5926
3310	0.5626
3320	0.522
3330	0.483
3340	0.4513
3350	0.4188
3360	0.3948
3370	0.4028
3380	0.4429
3390	0.5051
3400	0.5534
3410	0.6115
3420	0.6469
3430	0.6842
3440	0.7125
3450	0.7297
3460	0.7426
3470	0.7514
3480	0.759
3490	0.7663
3500	0.773
3510	0.7796
3520	0.7855
3530	0.7915
3540	0.7977
3550	0.804
3560	0.8097
3570	0.8148
3580	0.8185
3590	0.8218
3600	0.8241
3610	0.8259
3620	0.8275
3630	0.8288
3640	0.8298
3650	0.8304
3660	0.8311
3670	0.8314
3680	0.8314
3690	0.8315
3700	0.8317
3710	0.8319
3720	0.8321
3730	0.8323
3740	0.8325
3750	0.8321
3760	0.8318
3770	0.8315
3780	0.8312
3790	0.831
3800	0.8308
3810	0.8306
3820	0.8303
3830	0.8293
3840	0.8283
3850	0.8273
3860	0.8264
3870	0.8255
3880	0.8247
3890	0.8238
3900	0.823
3910	0.8222
3920	0.8214
3930	0.8206
3940	0.8193
3950	0.8179
3960	0.8164
3970	0.8148
3980	0.8132
3990	0.8134
4000	0.8141
