Infrared Spectrum: N-Ethyl-N'-(3-diemthylaminopropyl)carbodiimide
Formula: C 8 H 17 N 3
CAS: 1892-57-5
State: gas
Origin: EPA-IR VAPOR PHASE LIBRARY
1/CM	ABSORBANCE
501.5	0.0003142
513.074	0.0006884
524.648	0.0010004
536.222	0.000912
547.796	0.0006851
559.37	0.0005701
570.944	0.0011442
582.518	0.0028742
594.092	0.0066742
605.666	0.0146042
617.24	0.0199942
628.814	0.0150042
640.388	0.0083142
651.962	0.0039242
663.536	0.0018542
675.11	0.0010034
686.684	0.0007105
698.258	0.0005635
709.832	0.0005588
721.406	0.000788
732.98	0.0015542
744.554	0.0021742
756.128	0.0023042
767.702	0.0026842
779.276	0.0035342
790.85	0.0039742
802.423	0.0037642
813.997	0.0036142
825.571	0.0037842
837.145	0.0035842
848.719	0.0030542
860.293	0.0028542
871.867	0.0034242
883.441	0.0038242
895.015	0.0039442
906.589	0.0046642
918.163	0.0048442
929.737	0.0050742
941.311	0.0032942
952.885	0.0022642
964.459	0.0027842
976.033	0.0039142
987.607	0.0050842
999.181	0.0076542
1010.76	0.0116642
1022.33	0.0157242
1033.9	0.0204142
1045.48	0.0229742
1057.05	0.0200142
1068.63	0.0188342
1080.2	0.0174342
1091.77	0.0144342
1103.35	0.0099642
1114.92	0.0078142
1126.49	0.0070442
1138.07	0.0081742
1149.64	0.0108842
1161.22	0.0116142
1172.79	0.0093042
1184.36	0.0062642
1195.94	0.0045842
1207.51	0.0047942
1219.09	0.0061742
1230.66	0.0067042
1242.23	0.0067842
1253.81	0.0090042
1265.38	0.0120842
1276.96	0.0111842
1288.53	0.0104442
1300.1	0.0128742
1311.68	0.0178342
1323.25	0.0274242
1334.83	0.0515142
1346.4	0.0386542
1357.97	0.0187942
1369.55	0.0149942
1381.12	0.0143042
1392.7	0.0105042
1404.27	0.0072542
1415.84	0.0066442
1427.42	0.0079842
1438.99	0.0120342
1450.57	0.0185942
1462.14	0.0235342
1473.71	0.0167742
1485.29	0.0082042
1496.86	0.0043342
1508.44	0.0026742
1520.01	0.0018942
1531.58	0.0014242
1543.16	0.0011342
1554.73	0.0009116
1566.31	0.0008324
1577.88	0.0007593
1589.45	0.0007225
1601.03	0.0006567
1612.6	0.0006446
1624.18	0.000664
1635.75	0.0006852
1647.32	0.000643
1658.9	0.000622
1670.47	0.0006042
1682.05	0.0005687
1693.62	0.0005391
1705.19	0.0005695
1716.77	0.0006151
1728.34	0.0005799
1739.92	0.0005219
1751.49	0.0005082
1763.06	0.0004766
1774.64	0.0004817
1786.21	0.0004891
1797.79	0.0005067
1809.36	0.0005231
1820.93	0.0005469
1832.51	0.0005623
1844.08	0.0006214
1855.66	0.0006922
1867.23	0.0007621
1878.8	0.0008005
1890.38	0.000878
1901.95	0.0009393
1913.53	0.001015
1925.1	0.0012242
1936.67	0.0013342
1948.25	0.0014542
1959.82	0.0016642
1971.4	0.0020042
1982.97	0.0026142
1994.54	0.0034642
2006.12	0.0050442
2017.69	0.0079042
2029.27	0.0119342
2040.84	0.0152542
2052.41	0.0168642
2063.99	0.0184542
2075.56	0.0230042
2087.14	0.0311842
2098.71	0.0442742
2110.28	0.0792742
2121.86	0.179184
2133.43	0.426894
2145.01	0.425674
2156.58	0.146764
2168.15	0.0554442
2179.73	0.0298442
2191.3	0.0191942
2202.88	0.0140542
2214.45	0.0115842
2226.02	0.0102142
2237.6	0.0093042
2249.17	0.0083842
2260.74	0.0072942
2272.32	0.0064642
2283.89	0.0057742
2295.47	0.0050642
2307.04	0.0042342
2318.61	0.0035442
2330.19	0.0031142
2341.76	0.0027342
2353.34	0.0023442
2364.91	0.0019142
2376.48	0.0016542
2388.06	0.0015542
2399.63	0.0015542
2411.21	0.0015942
2422.78	0.0016742
2434.35	0.0016842
2445.93	0.0015742
2457.5	0.0013942
2469.08	0.0012042
2480.65	0.0011842
2492.22	0.0012642
2503.8	0.0013042
2515.37	0.0013242
2526.95	0.0012642
2538.52	0.0012142
2550.09	0.0011742
2561.67	0.0010942
2573.24	0.0010942
2584.82	0.0011442
2596.39	0.0012342
2607.96	0.0012642
2619.54	0.0013342
2631.11	0.0014542
2642.69	0.0017242
2654.26	0.0021342
2665.83	0.0027442
2677.41	0.0032942
2688.98	0.0037042
2700.56	0.0047942
2712.13	0.0065842
2723.7	0.0088242
2735.28	0.0110242
2746.85	0.0141942
2758.43	0.0220142
2770	0.0377342
2781.57	0.0421742
2793.15	0.0357042
2804.72	0.0306242
2816.3	0.0301042
2827.87	0.0293942
2839.44	0.0218942
2851.02	0.0213842
2862.59	0.0276842
2874.17	0.0342242
2885.74	0.0359942
2897.31	0.0344442
2908.89	0.0349442
2920.46	0.0396642
2932.04	0.0503442
2943.61	0.0634942
2955.18	0.0669642
2966.76	0.0590042
2978.33	0.0565942
2989.91	0.0350242
3001.48	0.0170242
3013.05	0.0098542
3024.63	0.0061342
3036.2	0.0042542
3047.78	0.0033442
3059.35	0.0029142
3070.92	0.0025042
3082.5	0.0020842
3094.07	0.0017642
3105.65	0.0016442
3117.22	0.0015642
3128.79	0.0014242
3140.37	0.0011942
3151.94	0.0011142
3163.52	0.0009149
3175.09	0.0008514
3186.66	0.0007727
3198.24	0.0006702
3209.81	0.0005524
3221.39	0.0004885
3232.96	0.0003419
3244.53	0.0002393
3256.11	8.216e-05
3267.68	2.07e-05
3279.26	5.921e-05
3290.83	4.018e-05
3302.4	3.22e-05
3313.98	4.602e-05
3325.55	2.888e-05
3337.13	6.39e-05
3348.7	0.00010687
3360.27	0.00011772
3371.85	0.00011371
3383.42	0.0002894
3395	0.0003237
3406.57	0.0003193
3418.14	0.0004231
3429.72	0.0005108
3441.29	0.0006025
3452.86	0.0008333
3464.44	0.0008806
3476.01	0.0010442
3487.59	0.0012042
3499.16	0.0014342
3510.73	0.0018642
3522.31	0.0025042
3533.88	0.0032742
3545.46	0.0034842
3557.03	0.0025342
3568.6	0.0015842
3580.18	0.0009654
3591.75	0.0006937
3603.33	0.0006787
3614.9	0.0005788
3626.47	0.0004124
3638.05	0.0003317
3649.62	0.0002739
3661.2	0.0001908
3672.77	0.0001778
3684.34	0.00012793
3695.92	9.514e-05
3707.49	5.952e-05
3719.07	5.482e-05
3730.64	0.000146
3742.21	8.554e-05
3753.79	8.63e-05
3765.36	1.17e-05
3776.94	5.694e-05
3788.51	0.0001127
3800.08	4.689e-05
3811.66	0.00013128
3823.23	0.0001578
3834.81	0.00010241
3846.38	0.0001457
3857.95	0.00011315
3869.53	0.0001474
3881.1	0.00012251
3892.68	0.0001406
3904.25	5.176e-05
3915.82	0.00011699
3927.4	0.0002471
3938.97	0.0002473
3950.55	0.0001906
3962.12	0.0003441
3973.69	0.0002996
3985.27	0.0003428
3996.84	0.0002989
