Infrared Spectrum: 1,4-Benzenedicarboxamide, N,N'-bis(2-hydroxyethyl)-
Formula: C12 H16 N2 O4
CAS: 18928-62-6
State: SOLID (SPLIT MULL), FLUOROLUBE FOR 3800-1330 CM^-^1, NUJOL FOR 1330-460 CM^-^1
Melting point: 229 C
Class: COBLENTZ III
Instrument: DOW KBr FOREPRISM-GRATING
Instrument parameters: BLAZED AT 3.5, 12.0, 20.0 MICRON AND CHANGED AT 5.0, 7.5, 14.9 MICRON
Sampling: TRANSMISSION
Resolution: 2
Origin: DOW CHEMICAL COMPANY
1/CM	TRANSMITTANCE
3800	0.7067
3791	0.7075
3782	0.7088
3773	0.7101
3764	0.7161
3755	0.716
3746	0.7207
3737	0.723
3728	0.7243
3719	0.7238
3710	0.7239
3701	0.7253
3692	0.7281
3683	0.7292
3674	0.7305
3665	0.7318
3656	0.7328
3647	0.7338
3638	0.7338
3629	0.7318
3620	0.7311
3611	0.7314
3602	0.7315
3593	0.7308
3584	0.73
3575	0.7286
3566	0.7261
3557	0.7236
3548	0.7199
3539	0.7161
3530	0.7121
3521	0.7076
3512	0.7025
3503	0.6961
3494	0.6882
3485	0.6796
3476	0.6676
3467	0.6537
3458	0.635
3449	0.6147
3440	0.5941
3431	0.5504
3422	0.5024
3413	0.4272
3404	0.3989
3395	0.3712
3386	0.335
3377	0.264
3368	0.199
3359	0.1904
3350	0.2035
3341	0.2402
3332	0.2846
3323	0.2972
3314	0.2937
3305	0.2447
3296	0.1677
3287	0.0853
3278	0.0984
3269	0.1474
3260	0.2428
3251	0.3013
3242	0.3528
3233	0.3905
3224	0.4187
3215	0.4393
3206	0.4621
3197	0.4864
3188	0.5071
3179	0.5259
3170	0.5451
3161	0.5634
3152	0.5797
3143	0.5932
3134	0.6052
3125	0.6147
3116	0.6205
3107	0.6229
3098	0.6216
3089	0.5841
3080	0.5791
3071	0.6086
3062	0.6374
3053	0.6341
3044	0.6209
3035	0.6337
3026	0.6545
3017	0.6793
3008	0.6965
2999	0.7051
2990	0.7098
2981	0.7095
2972	0.6259
2963	0.598
2954	0.6069
2945	0.6399
2936	0.6338
2927	0.6054
2918	0.6728
2909	0.6847
2900	0.6876
2891	0.6435
2882	0.5879
2873	0.617
2864	0.6467
2855	0.6348
2846	0.6284
2837	0.6611
2828	0.6861
2819	0.711
2810	0.7197
2801	0.7318
2792	0.7468
2783	0.7547
2774	0.7565
2765	0.758
2756	0.7589
2747	0.7603
2738	0.7636
2729	0.7695
2720	0.7758
2711	0.7808
2702	0.7857
2693	0.7899
2684	0.7937
2675	0.7956
2666	0.7969
2657	0.7934
2648	0.7884
2639	0.7883
2630	0.7975
2621	0.8088
2612	0.8147
2603	0.814
2594	0.8156
2585	0.8202
2576	0.8261
2567	0.8281
2558	0.8292
2549	0.8286
2540	0.8253
2531	0.8172
2522	0.8176
2513	0.8262
2504	0.8295
2495	0.8268
2486	0.8196
2477	0.8158
2468	0.8245
2459	0.8298
2450	0.8335
2441	0.836
2432	0.8386
2423	0.841
2414	0.8431
2405	0.8451
2396	0.8471
2387	0.8497
2378	0.8525
2369	0.8547
2360	0.8565
2351	0.857
2342	0.8567
2333	0.856
2324	0.8554
2315	0.8557
2306	0.856
2297	0.8562
2288	0.8584
2279	0.8607
2270	0.863
2261	0.866
2252	0.8695
2243	0.873
2234	0.876
2225	0.8784
2216	0.8808
2207	0.8832
2198	0.8852
2189	0.8866
2180	0.8882
2171	0.8896
2162	0.8914
2153	0.8932
2144	0.895
2135	0.8967
2126	0.8983
2117	0.8999
2108	0.9015
2099	0.903
2090	0.9046
2081	0.9061
2072	0.9073
2063	0.9082
2054	0.9091
2045	0.9099
2036	0.9107
2027	0.9114
2018	0.9121
2009	0.9121
2000	0.9103
1991	0.9128
1982	0.9188
1973	0.9228
1964	0.924
1955	0.9215
1946	0.8952
1937	0.9099
1928	0.9218
1919	0.9247
1910	0.9265
1901	0.928
1892	0.9294
1883	0.9308
1874	0.9316
1865	0.9318
1856	0.9328
1847	0.934
1838	0.9338
1829	0.9312
1820	0.9202
1811	0.9249
1802	0.933
1793	0.9336
1784	0.9312
1775	0.9339
1766	0.9346
1757	0.9341
1748	0.9321
1739	0.9304
1730	0.9295
1721	0.9265
1712	0.9092
1703	0.912
1694	0.9024
1685	0.8923
1676	0.8692
1667	0.8224
1658	0.6114
1649	0.4746
1640	0.1336
1631	0.0459
1622	0.0826
1613	0.2569
1604	0.531
1595	0.5683
1586	0.6168
1577	0.5327
1568	0.2993
1559	0.0957
1550	0.1809
1541	0.4777
1532	0.6322
1523	0.7321
1514	0.7588
1505	0.2435
1496	0.5082
1487	0.7267
1478	0.7608
1469	0.6039
1460	0.6
1451	0.7165
1442	0.6225
1433	0.4119
1424	0.6537
1415	0.7519
1406	0.7512
1397	0.7532
1388	0.5519
1379	0.5931
1370	0.4919
1361	0.6658
1352	0.691
1343	0.6939
1334	0.6547
1325	0.4088
1316	0.3794
1307	0.445
1298	0.5255
1289	0.5696
1280	0.4982
1271	0.5372
1262	0.6348
1253	0.6754
1244	0.6725
1235	0.6932
1226	0.6828
1217	0.454
1208	0.4446
1199	0.6519
1190	0.6876
1181	0.6593
1172	0.636
1163	0.6224
1154	0.6858
1145	0.7505
1136	0.78
1127	0.7161
1118	0.7608
1109	0.7648
1100	0.7137
1091	0.6611
1082	0.5658
1073	0.4665
1064	0.6379
1055	0.2412
1046	0.6895
1037	0.7861
1028	0.8161
1019	0.6846
1010	0.8396
1001	0.8593
992	0.8652
983	0.8668
974	0.8725
965	0.8809
956	0.881
947	0.8787
938	0.8768
929	0.8771
920	0.8791
911	0.8794
902	0.8627
893	0.6284
884	0.8093
875	0.8044
866	0.7297
857	0.8478
848	0.8018
839	0.5062
830	0.8543
821	0.8823
812	0.8847
803	0.8839
794	0.8828
785	0.8814
776	0.8786
767	0.8742
758	0.8657
749	0.847
740	0.733
731	0.6162
722	0.7433
713	0.7728
704	0.769
695	0.7251
686	0.645
677	0.5087
668	0.4288
659	0.4337
650	0.4144
641	0.5086
632	0.6292
623	0.6517
614	0.7014
605	0.7198
596	0.7405
587	0.7658
578	0.7851
569	0.8006
560	0.8072
551	0.8071
542	0.7899
533	0.7767
524	0.7768
515	0.7725
506	0.5782
497	0.7637
488	0.7883
479	0.7926
470	0.7934
