Infrared Spectrum: p-Dimethylaminoacetophenone
Formula: C 10 H 13 N O
CAS: 18925-69-4
State: gas
Origin: EPA-IR VAPOR PHASE LIBRARY
1/CM	ABSORBANCE
501.5	0.001532
513.074	0.001492
524.648	0.001752
536.222	0.002932
547.796	0.004782
559.37	0.012452
570.944	0.010702
582.518	0.006552
594.092	0.006342
605.666	0.003522
617.24	0.001932
628.814	0.001522
640.388	0.002202
651.962	0.002262
663.536	0.0006773
675.11	0.0004498
686.684	0.0003058
698.258	0.0003715
709.832	0.0004114
721.406	0.0003215
732.98	0.0004399
744.554	0.0006314
756.128	0.0006355
767.702	0.0011187
779.276	0.001622
790.85	0.003312
802.423	0.007122
813.997	0.014212
825.571	0.014872
837.145	0.006292
848.719	0.002172
860.293	0.001652
871.867	0.001622
883.441	0.001602
895.015	0.001652
906.589	0.001982
918.163	0.002972
929.737	0.007122
941.311	0.021162
952.885	0.020232
964.459	0.006842
976.033	0.003272
987.607	0.002602
999.181	0.003042
1010.76	0.003412
1022.33	0.003442
1033.9	0.003572
1045.48	0.004592
1057.05	0.006552
1068.63	0.007642
1080.2	0.006892
1091.77	0.005982
1103.35	0.005632
1114.92	0.006662
1126.49	0.008452
1138.07	0.011802
1149.64	0.019402
1161.22	0.035792
1172.79	0.044102
1184.36	0.052602
1195.94	0.052982
1207.51	0.020892
1219.09	0.017262
1230.66	0.016212
1242.23	0.017132
1253.81	0.031242
1265.38	0.075802
1276.96	0.066632
1288.53	0.019072
1300.1	0.014172
1311.68	0.013682
1323.25	0.013272
1334.83	0.020152
1346.4	0.043022
1357.97	0.070192
1369.55	0.045702
1381.12	0.018262
1392.7	0.011362
1404.27	0.011922
1415.84	0.013962
1427.42	0.014202
1438.99	0.013552
1450.57	0.011612
1462.14	0.009292
1473.71	0.010152
1485.29	0.010732
1496.86	0.011472
1508.44	0.023332
1520.01	0.036202
1531.58	0.022352
1543.16	0.014562
1554.73	0.018522
1566.31	0.020282
1577.88	0.027302
1589.45	0.058312
1601.03	0.112242
1612.6	0.087092
1624.18	0.024242
1635.75	0.012762
1647.32	0.010752
1658.9	0.010112
1670.47	0.013962
1682.05	0.039922
1693.62	0.074742
1705.19	0.032372
1716.77	0.008582
1728.34	0.004922
1739.92	0.004222
1751.49	0.003482
1763.06	0.002772
1774.64	0.002072
1786.21	0.001542
1797.79	0.001212
1809.36	0.0010971
1820.93	0.0010489
1832.51	0.0010343
1844.08	0.001212
1855.66	0.001472
1867.23	0.001512
1878.8	0.001552
1890.38	0.001782
1901.95	0.001912
1913.53	0.002062
1925.1	0.001962
1936.67	0.001472
1948.25	0.001202
1959.82	0.0011073
1971.4	0.0009428
1982.97	0.0008684
1994.54	0.0010609
2006.12	0.001242
2017.69	0.0009872
2029.27	0.0007567
2040.84	0.0006897
2052.41	0.0006153
2063.99	0.0005675
2075.56	0.0006049
2087.14	0.0006169
2098.71	0.0005817
2110.28	0.0006916
2121.86	0.000869
2133.43	0.0008977
2145.01	0.0007974
2156.58	0.0008296
2168.15	0.0009464
2179.73	0.000729
2191.3	0.0005417
2202.88	0.0004986
2214.45	0.0005059
2226.02	0.0004976
2237.6	0.0004902
2249.17	0.0005256
2260.74	0.0005196
2272.32	0.0005491
2283.89	0.000581
2295.47	0.0006116
2307.04	0.000622
2318.61	0.0006256
2330.19	0.0006829
2341.76	0.0007791
2353.34	0.0008186
2364.91	0.0009015
2376.48	0.0009722
2388.06	0.0008426
2399.63	0.0005843
2411.21	0.0005845
2422.78	0.0006231
2434.35	0.0006952
2445.93	0.0006866
2457.5	0.0006848
2469.08	0.0006526
2480.65	0.0006846
2492.22	0.000829
2503.8	0.0010228
2515.37	0.001202
2526.95	0.001412
2538.52	0.001552
2550.09	0.001412
2561.67	0.001312
2573.24	0.001252
2584.82	0.001442
2596.39	0.001642
2607.96	0.001842
2619.54	0.001792
2631.11	0.001542
2642.69	0.001402
2654.26	0.001272
2665.83	0.001272
2677.41	0.001282
2688.98	0.001392
2700.56	0.001482
2712.13	0.001572
2723.7	0.001562
2735.28	0.001712
2746.85	0.002142
2758.43	0.002882
2770	0.003992
2781.57	0.005962
2793.15	0.009522
2804.72	0.014022
2816.3	0.014472
2827.87	0.012362
2839.44	0.011862
2851.02	0.013072
2862.59	0.014832
2874.17	0.015282
2885.74	0.015132
2897.31	0.015192
2908.89	0.015172
2920.46	0.015372
2932.04	0.016502
2943.61	0.017112
2955.18	0.016092
2966.76	0.014322
2978.33	0.012812
2989.91	0.011602
3001.48	0.010732
3013.05	0.009792
3024.63	0.007232
3036.2	0.006472
3047.78	0.006972
3059.35	0.005732
3070.92	0.004832
3082.5	0.005982
3094.07	0.006612
3105.65	0.005442
3117.22	0.003532
3128.79	0.002232
3140.37	0.001352
3151.94	0.0008997
3163.52	0.0006534
3175.09	0.0005497
3186.66	0.0005879
3198.24	0.0007009
3209.81	0.0007123
3221.39	0.0005153
3232.96	0.0003797
3244.53	0.0003945
3256.11	0.0003427
3267.68	0.00021199
3279.26	0.00026936
3290.83	0.00026038
3302.4	0.0003372
3313.98	0.0003385
3325.55	0.0003023
3337.13	0.0004777
3348.7	0.0006912
3360.27	0.0010763
3371.85	0.001382
3383.42	0.0008414
3395	0.0004527
3406.57	0.0003235
3418.14	0.00018253
3429.72	0.00021306
3441.29	0.00028834
3452.86	0.00025589
3464.44	0.00025294
3476.01	0.00026885
3487.59	0.00023423
3499.16	0.00026354
3510.73	0.00024586
3522.31	0.000201673
3533.88	0.00022712
3545.46	0.000128
3557.03	0.00023045
3568.6	0.0001384
3580.18	0.00021393
3591.75	0.00018718
3603.33	5.2e-05
3614.9	0.0001146
3626.47	0.0001189
3638.05	0.00023115
3649.62	0.0001259
3661.2	0.00020359
3672.77	0.0001098
3684.34	0.0001584
3695.92	0.0001204
3707.49	0.0001215
3719.07	0.0001194
3730.64	0.00021325
3742.21	0.0001597
3753.79	0.00021595
3765.36	0.0001046
3776.94	5.5e-05
3788.51	0.00012
3800.08	9.88e-05
3811.66	0.0001277
3823.23	0.0002264
3834.81	0.0001659
3846.38	0.0001138
3857.95	0.00020956
3869.53	0.0003445
3881.1	0.00025873
3892.68	0.00027035
3904.25	0.0002175
3915.82	0.00024838
3927.4	0.00023532
3938.97	0.00021932
3950.55	0.0002323
3962.12	0.0003111
3973.69	0.0004182
3985.27	0.0003083
3996.84	0.0004153
