Infrared Spectrum: Methyl-2-heptynoate
Formula: C 8 H 12 O 2
CAS: 18937-78-5
State: gas
Instrument: HP-GC/MS/IRD
Origin: NIST Mass Spectrometry Data Center
1/CM	ABSORBANCE
550	0.0004704
562	0.0004368
574	0.0002772
586	0.0003108
598	0.0001008
610	5.04e-05
622	2.52e-05
634	9.24e-05
646	7.56e-05
658	0
670	7.56e-05
682	0.000126
694	0.0001008
706	0.0002184
718	0.0003864
730	0.00105
742	0.002352
754	0.0029316
766	0.0024696
778	0.0017304
790	0.0014868
802	0.0017472
814	0.0014532
826	0.000798
838	0.0005544
850	0.0005208
862	0.00063
874	0.000672
886	0.0004704
898	0.0004032
910	0.0004452
922	0.0006888
934	0.0009408
946	0.0009828
958	0.0007476
970	0.0005964
982	0.000504
994	0.0005628
1006	0.00063
1018	0.0009156
1030	0.0019992
1042	0.0043428
1054	0.0064596
1066	0.0111804
1078	0.0160944
1090	0.0092736
1102	0.0048384
1114	0.0027888
1126	0.00189
1138	0.0016632
1150	0.0017892
1162	0.0020832
1174	0.0024696
1186	0.0032088
1198	0.0048888
1210	0.0087444
1222	0.0185892
1234	0.0447552
1246	0.0814632
1258	0.0660828
1270	0.0261744
1282	0.0113484
1294	0.0068376
1306	0.0051408
1318	0.0050148
1330	0.0048216
1342	0.0028812
1354	0.0022764
1366	0.0019656
1378	0.0017388
1390	0.0017892
1402	0.0016632
1414	0.0020664
1426	0.0042672
1438	0.0096264
1450	0.004494
1462	0.0034272
1474	0.0026376
1486	0.001722
1498	0.0012096
1510	0.0009828
1522	0.0007644
1534	0.00063
1546	0.000546
1558	0.0005376
1570	0.0005208
1582	0.0005292
1594	0.0005208
1606	0.0004956
1618	0.000504
1630	0.000546
1642	0.0006132
1654	0.0006972
1666	0.0009492
1678	0.0015036
1690	0.0026796
1702	0.0053088
1714	0.0121296
1726	0.0260316
1738	0.0422352
1750	0.027762
1762	0.012642
1774	0.0042756
1786	0.001596
1798	0.0008568
1810	0.0005292
1822	0.0003612
1834	0.0002688
1846	0.00021
1858	0.0001848
1870	0.0001764
1882	0.0001764
1894	0.000168
1906	0.0001428
1918	0.0001008
1930	0.0001008
1942	0.0001092
1954	0.0001176
1966	0.0001428
1978	0.0001932
1990	0.000252
2002	0.0003192
2014	0.0003696
2026	0.0003948
2038	0.0003948
2050	0.0003696
2062	0.0003024
2074	0.00021
2086	0.0001176
2098	9.24e-05
2110	0.0001008
2122	0.0001428
2134	0.0001848
2146	0.0002352
2158	0.0003948
2170	0.0006972
2182	0.0012264
2194	0.0021504
2206	0.0041412
2218	0.0091896
2230	0.0161028
2242	0.0139272
2254	0.005208
2266	0.0021672
2278	0.0014196
2290	0.0011592
2302	0.0011256
2314	0.0010332
2326	0.0009156
2338	0.0006216
2350	0.000336
2362	0.0002688
2374	0.0002016
2386	0.0001428
2398	0.0001344
2410	0.0001428
2422	9.24e-05
2434	0.0001092
2446	0.0001092
2458	9.24e-05
2470	9.24e-05
2482	0.000126
2494	9.24e-05
2506	5.88e-05
2518	3.36e-05
2530	1.68e-05
2542	2.52e-05
2554	3.36e-05
2566	8.4e-06
2578	2.52e-05
2590	5.88e-05
2602	6.72e-05
2614	3.36e-05
2626	4.2e-05
2638	0.0001092
2650	0.0001092
2662	0.000168
2674	0.0001596
2686	0.000168
2698	0.000126
2710	7.56e-05
2722	0.0001008
2734	0.0001596
2746	0.0001932
2758	0.0001932
2770	0.0001932
2782	0.0002184
2794	0.000336
2806	0.0004956
2818	0.0007392
2830	0.0011592
2842	0.002142
2854	0.0030492
2866	0.0042504
2878	0.0058884
2890	0.005838
2902	0.0053676
2914	0.0065016
2926	0.0093576
2938	0.0144648
2950	0.016968
2962	0.0186396
2974	0.0140196
2986	0.0070644
2998	0.0039984
3010	0.0030576
3022	0.0025788
3034	0.0020748
3046	0.0014448
3058	0.000966
3070	0.0007224
3082	0.0006636
3094	0.0006048
3106	0.0004788
3118	0.0003612
3130	0.0002772
3142	0.0002604
3154	0.0002184
3166	0.0002352
3178	0.0001932
3190	0.0001344
3202	9.24e-05
3214	0.0001008
3226	7.56e-05
3238	2.52e-05
3250	8.4e-06
3262	1.68e-05
3274	2.52e-05
3286	6.72e-05
3298	6.72e-05
3310	5.88e-05
3322	4.2e-05
3334	5.04e-05
3346	5.04e-05
3358	3.36e-05
3370	5.04e-05
3382	3.36e-05
3394	4.2e-05
3406	6.72e-05
3418	0.0001176
3430	0.0002016
3442	0.0003612
3454	0.0005796
3466	0.0005376
3478	0.0003612
3490	0.0002436
3502	0.000168
3514	0.0001092
3526	5.88e-05
3538	8.4e-05
3550	5.04e-05
3562	5.88e-05
3574	2.52e-05
3586	1.68e-05
3598	2.52e-05
3610	4.2e-05
3622	6.72e-05
3634	0
3646	2.52e-05
3658	4.2e-05
3670	3.36e-05
3682	5.04e-05
3694	2.52e-05
3706	2.52e-05
3718	5.88e-05
3730	5.04e-05
3742	5.88e-05
3754	6.72e-05
3766	6.72e-05
3778	4.2e-05
3790	3.36e-05
3802	0.0001092
3814	8.4e-05
3826	6.72e-05
3838	3.36e-05
