Infrared Spectrum: Methyl 2-hexynoate
Formula: C 7 H 10 O 2
CAS: 18937-79-6
State: gas
Origin: EPA-IR VAPOR PHASE LIBRARY
1/CM	ABSORBANCE
549.9	0.00326
559.547	0.00326
569.193	0.00325
578.84	0.0029396
588.486	0.0024628
598.133	0.00204821
607.779	0.0019592
617.426	0.001828
627.072	0.0019556
636.719	0.001885
646.365	0.001918
656.012	0.0019845
665.658	0.001887
675.305	0.0019416
684.951	0.0019539
694.598	0.001847
704.245	0.001864
713.891	0.0021927
723.538	0.0032
733.184	0.00538
742.831	0.00842
752.477	0.01274
762.124	0.01492
771.77	0.0127
781.417	0.00716
791.063	0.00506
800.71	0.00569
810.356	0.0075
820.003	0.00682
829.649	0.00482
839.296	0.00406
848.943	0.00359
858.589	0.00326
868.236	0.00318
877.882	0.00315
887.529	0.00285
897.175	0.0025177
906.822	0.0023367
916.468	0.0026515
926.115	0.00346
935.761	0.00459
945.408	0.00521
955.054	0.00503
964.701	0.00419
974.347	0.00337
983.994	0.0028465
993.64	0.0028291
1003.29	0.00329
1012.93	0.00498
1022.58	0.00808
1032.23	0.00986
1041.87	0.01038
1051.52	0.01525
1061.17	0.02966
1070.81	0.05348
1080.46	0.07168
1090.11	0.05278
1099.75	0.02351
1109.4	0.01349
1119.05	0.00951
1128.69	0.00783
1138.34	0.00712
1147.99	0.0071
1157.63	0.0077
1167.28	0.00859
1176.92	0.00998
1186.57	0.01249
1196.22	0.01644
1205.86	0.02528
1215.51	0.04782
1225.16	0.09757
1234.8	0.19676
1244.45	0.32538
1254.1	0.32049
1263.74	0.17504
1273.39	0.0828
1283.04	0.04928
1292.68	0.02739
1302.33	0.0186
1311.98	0.01582
1321.62	0.01879
1331.27	0.02115
1340.92	0.01629
1350.56	0.01
1360.21	0.0068
1369.86	0.00637
1379.5	0.00721
1389.15	0.00795
1398.79	0.00776
1408.44	0.00811
1418.09	0.00966
1427.73	0.02054
1437.38	0.03678
1447.03	0.02324
1456.67	0.01348
1466.32	0.01167
1475.97	0.00936
1485.61	0.00728
1495.26	0.00605
1504.91	0.00528
1514.55	0.00448
1524.2	0.00392
1533.85	0.00351
1543.49	0.00332
1553.14	0.00336
1562.79	0.00336
1572.43	0.00336
1582.08	0.0034
1591.73	0.00334
1601.37	0.00313
1611.02	0.00318
1620.67	0.00317
1630.31	0.00332
1639.96	0.00346
1649.6	0.00381
1659.25	0.00457
1668.9	0.00569
1678.54	0.00713
1688.19	0.00941
1697.84	0.01496
1707.48	0.02943
1717.13	0.05896
1726.78	0.1127
1736.42	0.16654
1746.07	0.15276
1755.72	0.07849
1765.36	0.03855
1775.01	0.01533
1784.66	0.00716
1794.3	0.0049
1803.95	0.00381
1813.6	0.00306
1823.24	0.0025596
1832.89	0.002199
1842.54	0.0019625
1852.18	0.0019067
1861.83	0.001863
1871.47	0.001891
1881.12	0.0019797
1890.77	0.0020337
1900.41	0.00199069
1910.06	0.001845
1919.71	0.001654
1929.35	0.001582
1939	0.001603
1948.65	0.001739
1958.29	0.0019851
1967.94	0.00206033
1977.59	0.00199615
1987.23	0.0019376
1996.88	0.0021598
2006.53	0.0025034
2016.17	0.0027808
2025.82	0.0028314
2035.47	0.0026009
2045.11	0.0023779
2054.76	0.0023475
2064.41	0.0023034
2074.05	0.00206085
2083.7	0.001784
2093.35	0.001597
2102.99	0.001506
2112.64	0.001479
2122.28	0.001534
2131.93	0.001729
2141.58	0.00206887
2151.22	0.0023823
2160.87	0.0029383
2170.52	0.00381
2180.16	0.00527
2189.81	0.00767
2199.46	0.01177
2209.1	0.02027
2218.75	0.03725
2228.4	0.05824
2238.04	0.0617
2247.69	0.03867
2257.34	0.01622
2266.98	0.00967
2276.63	0.00802
2286.28	0.00628
2295.92	0.00503
2305.57	0.00464
2315.22	0.00475
2324.86	0.00459
2334.51	0.00387
2344.16	0.0028587
2353.8	0.0022656
2363.45	0.0019455
2373.09	0.001804
2382.74	0.00173
2392.39	0.001587
2402.03	0.001423
2411.68	0.001543
2421.33	0.001485
2430.97	0.001484
2440.62	0.001486
2450.27	0.001521
2459.91	0.001426
2469.56	0.001465
2479.21	0.00157
2488.85	0.001523
2498.5	0.001495
2508.15	0.001375
2517.79	0.001221
2527.44	0.001188
2537.09	0.001126
2546.73	0.001187
2556.38	0.001111
2566.03	0.001014
2575.67	0.001005
2585.32	0.00097
2594.96	0.00099
2604.61	0.00095
2614.26	0.00094
2623.9	0.0009
2633.55	0.001054
2643.2	0.001263
2652.84	0.001341
2662.49	0.001413
2672.14	0.001397
2681.78	0.001268
2691.43	0.00108
2701.08	0.001012
2710.72	0.00099
2720.37	0.0009
2730.02	0.00088
2739.66	0.00098
2749.31	0.001055
2758.96	0.001244
2768.6	0.001135
2778.25	0.001124
2787.9	0.001281
2797.54	0.001504
2807.19	0.00185
2816.84	0.0024638
2826.48	0.00339
2836.13	0.00518
2845.77	0.00839
2855.42	0.00855
2865.07	0.00797
2874.71	0.01241
2884.36	0.01788
2894.01	0.01763
2903.65	0.01687
2913.3	0.01924
2922.95	0.02198
2932.59	0.02748
2942.24	0.04119
2951.89	0.05272
2961.53	0.05712
2971.18	0.05197
2980.83	0.04296
2990.47	0.0285
3000.12	0.01746
3009.77	0.01243
3019.41	0.00985
3029.06	0.00845
3038.71	0.00706
3048.35	0.00535
3058	0.00396
3067.64	0.0028901
3077.29	0.0024999
3086.94	0.0023159
3096.58	0.00207508
3106.23	0.001842
3115.88	0.001718
3125.52	0.001418
3135.17	0.001108
3144.82	0.00095
3154.46	0.00081
3164.11	0.00086
3173.76	0.00076
3183.4	0.00073
3193.05	0.00054
3202.7	0.00056
3212.34	0.00036
3221.99	0.00032
3231.64	0
3241.28	0.0003
3250.93	0.00044
3260.58	0.00029
3270.22	0.00025
3279.87	0.00036
3289.52	0.00039
3299.16	0.00057
3308.81	0.00045
3318.45	0.00051
3328.1	0.00054
3337.75	0.00045
3347.39	0.00054
3357.04	0.00041
3366.69	0.00057
3376.33	0.00052
3385.98	0.00055
3395.63	0.00055
3405.27	0.00067
3414.92	0.00081
3424.57	0.001173
3434.21	0.001471
3443.86	0.0019786
3453.51	0.0026666
3463.15	0.0026018
3472.8	0.0022743
3482.45	0.001613
3492.09	0.001145
3501.74	0.001088
3511.39	0.00095
3521.03	0.00097
3530.68	0.00089
3540.33	0.00081
3549.97	0.00085
3559.62	0.00086
3569.26	0.00087
3578.91	0.00082
3588.56	0.00074
3598.2	0.00084
3607.85	0.00093
3617.5	0.0009
3627.14	0.00087
3636.79	0.00093
3646.44	0.00094
3656.08	0.00092
3665.73	0.00088
3675.38	0.00085
3685.02	0.001028
3694.67	0.001035
3704.32	0.00082
3713.96	0.00095
3723.61	0.001014
3733.26	0.00097
3742.9	0.001139
3752.55	0.001006
3762.2	0.00094
3771.84	0.00106
3781.49	0.001235
3791.13	0.001134
3800.78	0.001063
3810.43	0.001062
3820.07	0.001086
3829.72	0.001044
3839.37	0.001009
3849.01	0.00096
3858.66	0.001004
3868.31	0.00097
3877.95	0.00095
3887.6	0.0009
3897.25	0.001099
3906.89	0.001106
3916.54	0.001091
3926.19	0.001099
3935.83	0.001166
3945.48	0.001126
3955.13	0.001235
3964.77	0.001229
3974.42	0.001189
3984.07	0.001203
3993.71	0.001138
