Infrared Spectrum: ETHYL 2-METHYLENECYCLOPROPANECARBOXYLATE
Formula: C7 H10 O2
CAS: 18941-94-1
State: LIQUID
Class: COBLENTZ
Instrument: PERKIN-ELMER
Sampling: TRANSMISSION
Path length: CAPILLARY
Resolution: 4
Origin: ABBOTT LABORATORIES - WASHBURN
MICROMETERS	TRANSMITTANCE
2.034	1.049
2.06755	1.055
2.10111	1.051
2.13466	1.058
2.16822	1.0681
2.20177	1.075
2.23533	1.0788
2.26888	1.0639
2.30244	1.0601
2.33599	1.074
2.36955	1.0749
2.4031	1.0721
2.43666	1.079
2.47021	1.0663
2.50377	1.0795
2.53732	1.092
2.57088	1.096
2.60443	1.092
2.63799	1.094
2.67154	1.091
2.7051	1.083
2.73865	1.081
2.77221	1.072
2.80576	1.07
2.83932	1.0599
2.87287	1.053
2.90643	1.0547
2.93998	1.0138
2.97354	1.058
3.00709	1.0621
3.04065	1.0702
3.0742	1.074
3.10776	1.079
3.14131	1.079
3.17487	1.079
3.20842	1.0788
3.24198	1.0451
3.27553	0.984
3.30909	0.996
3.34264	0.8168
3.3762	0.5304
3.40975	0.6837
3.44331	0.7802
3.47686	0.8484
3.51042	0.9341
3.54397	1.0397
3.57753	1.0813
3.61108	1.1001
3.64464	1.1042
3.67819	1.1192
3.71175	1.125
3.7453	1.125
3.77886	1.125
3.81241	1.123
3.84597	1.119
3.87952	1.108
3.91308	1.1001
3.94663	1.102
3.98019	1.0939
4.01374	1.077
4.0473	1.0719
4.08085	1.064
4.11441	1.0639
4.14796	1.0449
4.18152	1.041
4.21507	1.0319
4.24863	1.036
4.28218	1.0388
4.31574	1.0298
4.34929	1.0238
4.38285	1.0032
4.4164	0.9961
4.44996	0.994
4.48351	0.99
4.51707	0.982
4.55062	0.971
4.58418	0.9671
4.61773	0.965
4.65129	0.9622
4.68484	0.956
4.7184	0.9579
4.75195	0.9539
4.78551	0.95
4.81906	0.95
4.85262	0.948
4.88617	0.9458
4.91973	0.9368
4.95328	0.924
4.98684	0.929
5.02039	0.935
5.05395	0.9328
5.0875	0.941
5.12106	0.9373
5.15461	0.933
5.18817	0.925
5.22172	0.927
5.25528	0.931
5.28883	0.927
5.32239	0.9278
5.35594	0.922
5.3895	0.9224
5.42305	0.917
5.45661	0.9096
5.49016	0.8982
5.52372	0.8859
5.55727	0.8542
5.59083	0.8103
5.62438	0.7592
5.65794	0.7131
5.69149	0.5672
5.72505	0.3094
5.7586	0.0838
5.79216	0.0165
5.82571	0.0536
5.85927	0.3761
5.89282	0.5784
5.92638	0.6472
5.95993	0.7325
5.99349	0.7917
6.02704	0.8297
6.0606	0.8419
6.09415	0.8543
6.12771	0.8662
6.16126	0.8713
6.19482	0.874
6.22837	0.886
6.26193	0.8895
6.29548	0.888
6.32904	0.891
6.36259	0.8958
6.39615	0.897
6.4297	0.8911
6.46326	0.899
6.49681	0.895
6.53037	0.9066
6.56392	0.897
6.59748	0.8998
6.63103	0.889
6.66459	0.876
6.69814	0.8594
6.7317	0.8016
6.76525	0.6714
6.79881	0.6218
6.83236	0.5635
6.86592	0.563
6.89947	0.584
6.93303	0.5318
6.96658	0.5914
7.00014	0.635
7.03369	0.7135
7.06725	0.727
7.1008	0.6853
7.13436	0.5798
7.16791	0.4559
7.20147	0.3943
7.23502	0.4433
7.26858	0.4461
7.30213	0.2529
7.33569	0.1715
7.36924	0.4545
7.4028	0.5996
7.43635	0.5683
7.46991	0.4013
7.50346	0.107
7.53702	0.0171
7.57057	0.1661
7.60413	0.366
7.63768	0.5222
7.67123	0.5532
7.70479	0.4882
7.73834	0.3204
7.7719	0.4182
7.80545	0.5263
7.83901	0.538
7.87256	0.4203
7.90612	0.229
7.93967	0.1112
7.97323	0.106
8.00678	0.2482
8.04034	0.4168
8.07389	0.5621
8.10745	0.6308
8.141	0.6695
8.17456	0.6851
8.20811	0.692
8.24167	0.6806
8.27522	0.6558
8.30878	0.5935
8.34233	0.5253
8.37589	0.3902
8.40944	0.2042
8.443	0.0931
8.47655	0.0229
8.51011	0.0121
8.54366	0.011
8.57722	0.0162
8.61077	0.015
8.64433	0.0176
8.67788	0.0379
8.71144	0.2144
8.74499	0.3347
8.77855	0.4597
8.8121	0.5466
8.84566	0.5992
8.87921	0.6084
8.91277	0.5876
8.94632	0.5391
8.97988	0.386
9.01343	0.2333
9.04699	0.2111
9.08054	0.3204
9.1141	0.3699
9.14765	0.3509
9.18121	0.362
9.21476	0.3512
9.24832	0.335
9.28187	0.3809
9.31543	0.393
9.34898	0.3435
9.38254	0.291
9.41609	0.3057
9.44965	0.3173
9.4832	0.3169
9.51676	0.2615
9.55031	0.2321
9.58387	0.2672
9.61742	0.35
9.65098	0.423
9.68453	0.4434
9.71809	0.4215
9.75164	0.4209
9.7852	0.4481
9.81875	0.4309
9.85231	0.4101
9.88586	0.4553
9.91942	0.516
9.95297	0.589
9.98653	0.6472
10.0201	0.7061
10.0536	0.761
10.0872	0.7922
10.1207	0.8255
10.1543	0.836
10.1879	0.8499
10.2214	0.853
10.255	0.8523
10.2885	0.853
10.3221	0.841
10.3556	0.8179
10.3892	0.7868
10.4227	0.7316
10.4563	0.7256
10.4899	0.7389
10.5234	0.7578
10.557	0.7789
10.5905	0.8077
10.6241	0.8344
10.6576	0.8403
10.6912	0.8441
10.7247	0.834
10.7583	0.8267
10.7918	0.8077
10.8254	0.7764
10.859	0.7359
10.8925	0.6785
10.9261	0.5652
10.9596	0.4391
10.9932	0.3012
11.0267	0.2215
11.0603	0.2282
11.0938	0.2551
11.1274	0.256
11.161	0.252
11.1945	0.239
11.2281	0.2563
11.2616	0.3035
11.2952	0.3878
11.3287	0.4731
11.3623	0.5307
11.3958	0.5543
11.4294	0.5476
11.4629	0.542
11.4965	0.5809
11.5301	0.6292
11.5636	0.6542
11.5972	0.6513
11.6307	0.6033
11.6643	0.5595
11.6978	0.542
11.7314	0.5946
11.7649	0.6554
11.7985	0.7198
11.8321	0.7693
11.8656	0.7987
11.8992	0.8174
11.9327	0.8292
11.9663	0.8451
11.9998	0.8491
12.0334	0.855
12.0669	0.8506
12.1005	0.846
12.134	0.8374
12.1676	0.825
12.2012	0.8108
12.2347	0.7865
12.2683	0.7595
12.3018	0.7467
12.3354	0.74
12.3689	0.734
12.4025	0.7279
12.436	0.721
12.4696	0.722
12.5032	0.7355
12.5367	0.7562
12.5703	0.7753
12.6038	0.7903
12.6374	0.8015
12.6709	0.8114
12.7045	0.804
12.738	0.7919
12.7716	0.775
12.8051	0.759
12.8387	0.7586
12.8723	0.7737
12.9058	0.8004
12.9394	0.8228
12.9729	0.8425
13.0065	0.8609
13.04	0.8693
13.0736	0.8784
13.1071	0.882
13.1407	0.886
13.1743	0.882
13.2078	0.8821
13.2414	0.884
13.2749	0.886
13.3085	0.884
13.342	0.884
13.3756	0.8805
13.4091	0.882
13.4427	0.882
13.4762	0.8766
13.5098	0.8773
13.5434	0.8749
13.5769	0.873
13.6105	0.867
13.644	0.869
13.6776	0.8679
13.7111	0.861
13.7447	0.8596
13.7782	0.8565
13.8118	0.8507
13.8453	0.848
13.8789	0.8416
13.9125	0.8357
13.946	0.8269
13.9796	0.815
14.0131	0.8036
14.0467	0.7888
14.0802	0.776
14.1138	0.7662
14.1473	0.7574
14.1809	0.7407
14.2145	0.7397
14.248	0.7364
14.2816	0.7386
14.3151	0.7347
14.3487	0.728
14.3822	0.724
14.4158	0.7252
14.4493	0.726
14.4829	0.7229
14.5164	0.7182
14.55	0.721
14.5836	0.717
14.6171	0.7103
14.6507	0.709
14.6842	0.705
14.7178	0.709
14.7513	0.7092
14.7849	0.7191
14.8184	0.7211
14.852	0.724
14.8856	0.7319
14.9191	0.7281
14.9527	0.728
14.9862	0.7518
15.0198	0.7573
15.0533	0.7454
15.0869	0.7403
15.1204	0.74
15.154	0.734
15.1875	0.7349
15.2211	0.734
15.2547	0.73
15.2882	0.724
15.3218	0.7207
15.3553	0.721
15.3889	0.719
