Infrared Spectrum: trans-9-Styrylanthracene
Formula: C 22 H 16
CAS: 1895-98-3
State: gas
Origin: EPA-IR VAPOR PHASE LIBRARY
1/CM	ABSORBANCE
549.8	0.00237
559.445	0.00172
569.09	0.0013365
578.734	0.00168
588.379	0.00178
598.024	0.00201
607.669	0.0017
617.313	0.0013167
626.958	0.001049
636.603	0.0011033
646.248	0.0012416
655.893	0.00172
665.537	0.00207
675.182	0.0024
684.827	0.0046
694.472	0.00444
704.116	0.00433
713.761	0.00606
723.406	0.01199
733.051	0.02309
742.695	0.00901
752.34	0.0044
761.985	0.00296
771.63	0.00237
781.275	0.00374
790.919	0.0015618
800.564	0.0010749
810.209	0.0011438
819.854	0.0014268
829.498	0.00353
839.143	0.00276
848.788	0.00327
858.433	0.00222
868.078	0.00225
877.722	0.00724
887.367	0.00329
897.012	0.0012243
906.657	0.0011168
916.301	0.0008164
925.946	0.0012599
935.591	0.0015144
945.236	0.00218
954.88	0.00336
964.525	0.00582
974.17	0.00396
983.815	0.0024
993.46	0.0019
1003.1	0.00176
1012.75	0.00366
1022.39	0.00229
1032.04	0.0018
1041.68	0.0011172
1051.33	0.0009843
1060.97	0.0008184
1070.62	0.0013021
1080.26	0.00186
1089.91	0.0014364
1099.55	0.00168
1109.2	0.0010591
1118.84	0.0009375
1128.49	0.0005016
1138.13	0.0011163
1147.78	0.0008924
1157.42	0.00165
1167.07	0.0012603
1176.71	0.00164
1186.36	0.0010176
1196	0.00024
1205.64	0.00165
1215.29	0.0011766
1224.93	0.0012001
1234.58	0.0009159
1244.22	0.00175
1253.87	0.0008488
1263.51	0.00067883
1273.16	0.0011451
1282.8	0.0008301
1292.45	0.0008253
1302.09	0.0011326
1311.74	0.0009943
1321.38	0.0011877
1331.03	0.0012598
1340.67	0.00194
1350.32	0.00307
1359.96	0.00183
1369.61	0.0012002
1379.25	0.00169
1388.9	0.0014123
1398.54	0.00184
1408.18	0.00263
1417.83	0.0013911
1427.47	0.0014865
1437.12	0.00243
1446.76	0.00295
1456.41	0.00191
1466.05	0.0015718
1475.7	0.001525
1485.34	0.00231
1494.99	0.00474
1504.63	0.00211
1514.28	0.00226
1523.92	0.0014922
1533.57	0.0010494
1543.21	0.0011066
1552.86	0.0013748
1562.5	0.00166
1572.15	0.0015579
1581.79	0.00187
1591.44	0.00273
1601.08	0.00307
1610.73	0.0015364
1620.37	0.0015553
1630.01	0.0012272
1639.66	0.0009448
1649.3	0.0010411
1658.95	0.0009863
1668.59	0.0011779
1678.24	0.00166
1687.88	0.0015351
1697.53	0.00172
1707.17	0.00192
1716.82	0.0014579
1726.46	0.0013896
1736.11	0.0012021
1745.75	0.0012819
1755.4	0.00161
1765.04	0.0014751
1774.69	0.0015686
1784.33	0.00203
1793.98	0.0023
1803.62	0.00185
1813.27	0.00175
1822.91	0.0014986
1832.55	0.001357
1842.2	0.0012505
1851.84	0.0010954
1861.49	0.001056
1871.13	0.0012486
1880.78	0.0011841
1890.42	0.0014206
1900.07	0.0015424
1909.71	0.001455
1919.36	0.00168
1929	0.00163
1938.65	0.00216
1948.29	0.0013319
1957.94	0.0012318
1967.58	0.0009111
1977.23	0.0008091
1986.87	0.0007169
1996.52	0.00069841
2006.16	0.0008668
2015.81	0.0008043
2025.45	0.0008033
2035.1	0.0007807
2044.74	0.0007591
2054.38	0.0007187
2064.03	0.0007462
2073.67	0.0007538
2083.32	0.0007833
2092.96	0.0007691
2102.61	0.000761
2112.25	0.00067015
2121.9	0.00062521
2131.54	0.0007904
2141.19	0.0008014
2150.83	0.0007215
2160.48	0.0007649
2170.12	0.000712
2179.77	0.0007412
2189.41	0.0007759
2199.06	0.000773
2208.7	0.00067093
2218.35	0.0005508
2227.99	0.0007681
2237.64	0.0007345
2247.28	0.00061306
2256.92	0.0007041
2266.57	0.00068239
2276.21	0.0007428
2285.86	0.0008228
2295.5	0.000798
2305.15	0.0007995
2314.79	0.00067931
2324.44	0.0007276
2334.08	0.0008628
2343.73	0.0007057
2353.37	0.0008877
2363.02	0.0008222
2372.66	0.0008096
2382.31	0.0007854
2391.95	0.0008596
2401.6	0.0007703
2411.24	0.00067529
2420.89	0.000737
2430.53	0.000755
2440.18	0.00069514
2449.82	0.0008043
2459.47	0.00063771
2469.11	0.0007397
2478.75	0.0007086
2488.4	0.0007325
2498.04	0.000693
2507.69	0.0007415
2517.33	0.00063052
2526.98	0.000605056
2536.62	0.00067691
2546.27	0.0009033
2555.91	0.00067307
2565.56	0.000487
2575.2	0.00068172
2584.85	0.0006807
2594.49	0.00067354
2604.14	0.00068879
2613.78	0.00065252
2623.43	0.000603556
2633.07	0.0008078
2642.72	0.0007272
2652.36	0.0007527
2662.01	0.000607052
2671.65	0.00067603
2681.29	0.00061275
2690.94	0.00060041
2700.58	0.0007529
2710.23	0.00068287
2719.87	0.0005253
2729.52	0.00066339
2739.16	0.0007212
2748.81	0.0008475
2758.45	0.00063316
2768.1	0.0007626
2777.74	0.000606734
2787.39	0.00061061
2797.03	0.000603475
2806.68	0.0008221
2816.32	0.000775
2825.97	0.0007698
2835.61	0.0008483
2845.26	0.0007582
2854.9	0.000784
2864.55	0.0008993
2874.19	0.0010508
2883.84	0.0009641
2893.48	0.0009328
2903.12	0.0009631
2912.77	0.0009521
2922.41	0.0011939
2932.06	0.0011626
2941.7	0.0012286
2951.35	0.0012663
2960.99	0.0009458
2970.64	0.0013433
2980.28	0.00184
2989.93	0.00228
2999.57	0.00295
3009.22	0.00408
3018.86	0.00661
3028.51	0.00988
3038.15	0.00944
3047.8	0.01036
3057.44	0.01455
3067.09	0.01492
3076.73	0.01184
3086.38	0.011
3096.02	0.00542
3105.67	0.00308
3115.31	0.00172
3124.95	0.0012968
3134.6	0.0010303
3144.24	0.0008556
3153.89	0.0008968
3163.53	0.0009305
3173.18	0.000702
3182.82	0.0008947
3192.47	0.0008491
3202.11	0.0007029
3211.76	0.0006507
3221.4	0.0008059
3231.05	0.0007594
3240.69	0.0007355
3250.34	0.000478
3259.98	0.00068262
3269.63	0.0005841
3279.27	0.0007088
3288.92	0.0009917
3298.56	0.0005828
3308.21	0.00064867
3317.85	0.0007616
3327.49	0.000605321
3337.14	0.00045
3346.78	0.00061127
3356.43	0.00063784
3366.07	0.00065399
3375.72	0.0005868
3385.36	0.000435
3395.01	0.000599198
3404.65	0.000475
3414.3	0.0005609
3423.94	0.0005196
3433.59	0.000456
3443.23	0.00063185
3452.88	0.0005807
3462.52	0.000458
3472.17	0.0007499
3481.81	0.0007655
3491.46	0.0007288
3501.1	0.0007836
3510.75	0.000455
3520.39	0.0008086
3530.04	0.000499
3539.68	0.000246
3549.32	0.00063386
3558.97	0.00059131
3568.61	0.0005568
3578.26	0.000886
3587.9	0.000456
3597.55	0.00066776
3607.19	0.0005302
3616.84	0.0008204
3626.48	0.0009226
3636.13	0.000601971
3645.77	0.0007611
3655.42	0.00048
3665.06	0.000417
3674.71	0.000395
3684.35	0.000486
3694	0.00068914
3703.64	0.0005014
3713.29	0.00059767
3722.93	0.0009085
3732.58	0.00065937
3742.22	0.000376
3751.86	0.000497
3761.51	0.00064546
3771.15	0.000282
3780.8	0.00063865
3790.44	0.00063609
3800.09	0.00072
3809.73	0.000221
3819.38	0.0007377
3829.02	0.000311
3838.67	0.0008101
3848.31	0.00069556
3857.96	0.0005427
3867.6	0.0005381
3877.25	0.000319
3886.89	0.00061366
3896.54	0.0007129
3906.18	0.000465
3915.83	0.0009191
3925.47	0.00063847
3935.12	0.00068961
3944.76	0.00068069
3954.41	0.0005725
3964.05	0.0005569
3973.69	0.0005455
3983.34	0.0005432
3992.98	0.0005765
