Infrared Spectrum: Phenothiazine-10-carbonylchloride
Formula: C 13 H 8 Cl N O S
CAS: 18956-87-1
State: gas
Origin: EPA-IR VAPOR PHASE LIBRARY
1/CM	ABSORBANCE
549.8	0.006962
559.445	0.003242
569.09	0.0010869
578.734	0.0009451
588.379	0.001392
598.024	0.003512
607.669	0.009322
617.313	0.032152
626.958	0.014542
636.603	0.003262
646.248	0.003752
655.893	0.016212
665.537	0.026242
675.182	0.009292
684.827	0.008652
694.472	0.011162
704.116	0.025862
713.761	0.031702
723.406	0.023032
733.051	0.029452
742.695	0.033862
752.34	0.089152
761.985	0.054882
771.63	0.007942
781.275	0.004132
790.919	0.003572
800.564	0.006322
810.209	0.019522
819.854	0.064962
829.498	0.049382
839.143	0.013802
848.788	0.007322
858.433	0.016352
868.078	0.007292
877.722	0.004052
887.367	0.003322
897.012	0.002542
906.657	0.002672
916.301	0.002662
925.946	0.004582
935.591	0.008842
945.236	0.009112
954.88	0.031742
964.525	0.019722
974.17	0.004222
983.815	0.002442
993.46	0.002032
1003.1	0.002702
1012.75	0.003952
1022.39	0.008242
1032.04	0.016092
1041.68	0.005902
1051.33	0.004732
1060.97	0.013382
1070.62	0.023322
1080.26	0.014052
1089.91	0.009542
1099.55	0.011332
1109.2	0.021142
1118.84	0.055062
1128.49	0.071422
1138.13	0.032772
1147.78	0.076342
1157.42	0.065942
1167.07	0.025962
1176.71	0.008302
1186.36	0.006252
1196	0.007192
1205.64	0.009982
1215.29	0.013272
1224.93	0.030412
1234.58	0.067902
1244.22	0.080192
1253.87	0.136692
1263.51	0.103202
1273.16	0.066432
1282.8	0.054682
1292.45	0.053972
1302.09	0.040322
1311.74	0.027112
1321.38	0.019422
1331.03	0.013132
1340.67	0.008102
1350.32	0.006322
1359.96	0.004942
1369.61	0.004922
1379.25	0.005732
1388.9	0.004302
1398.54	0.005002
1408.18	0.005582
1417.83	0.004962
1427.47	0.006022
1437.12	0.014802
1446.76	0.040092
1456.41	0.076112
1466.05	0.104642
1475.7	0.058512
1485.34	0.025112
1494.99	0.012612
1504.63	0.008062
1514.28	0.006172
1523.92	0.004422
1533.57	0.003102
1543.21	0.002742
1552.86	0.003342
1562.5	0.006502
1572.15	0.009082
1581.79	0.010482
1591.44	0.010782
1601.08	0.006102
1610.73	0.003972
1620.37	0.003382
1630.01	0.002962
1639.66	0.003492
1649.3	0.003922
1658.95	0.003512
1668.59	0.004102
1678.24	0.005522
1687.88	0.006452
1697.53	0.007142
1707.17	0.010872
1716.82	0.013162
1726.46	0.014402
1736.11	0.017982
1745.75	0.036902
1755.4	0.124792
1765.04	0.301032
1774.69	0.202022
1784.33	0.075142
1793.98	0.026582
1803.62	0.013792
1813.27	0.014042
1822.91	0.015312
1832.55	0.009772
1842.2	0.005362
1851.84	0.004182
1861.49	0.004292
1871.13	0.004272
1880.78	0.003122
1890.42	0.003192
1900.07	0.005022
1909.71	0.005312
1919.36	0.002912
1929	0.002902
1938.65	0.005232
1948.29	0.004032
1957.94	0.001672
1967.58	0.001552
1977.23	0.001702
1986.87	0.0013519
1996.52	0.0010122
2006.16	0.000967
2015.81	0.0008977
2025.45	0.0007925
2035.1	0.0007512
2044.74	0.0007099
2054.38	0.0006569
2064.03	0.0006273
2073.67	0.000592
2083.32	0.0006182
2092.96	0.0006127
2102.61	0.0006453
2112.25	0.0005707
2121.9	0.0007855
2131.54	0.0007538
2141.19	0.0006121
2150.83	0.0006531
2160.48	0.0006145
2170.12	0.0006617
2179.77	0.0006674
2189.41	0.0007218
2199.06	0.0007712
2208.7	0.0006807
2218.35	0.0009018
2227.99	0.0008116
2237.64	0.0008202
2247.28	0.000837
2256.92	0.0008597
2266.57	0.0011325
2276.21	0.0011976
2285.86	0.0012624
2295.5	0.0011012
2305.15	0.001522
2314.79	0.002042
2324.44	0.001982
2334.08	0.001402
2343.73	0.0012204
2353.37	0.0012174
2363.02	0.001582
2372.66	0.001642
2382.31	0.001372
2391.95	0.0012318
2401.6	0.001482
2411.24	0.001372
2420.89	0.0013353
2430.53	0.0012514
2440.18	0.0011613
2449.82	0.0009191
2459.47	0.0008349
2469.11	0.0008077
2478.75	0.0007302
2488.4	0.0006895
2498.04	0.0007385
2507.69	0.0008058
2517.33	0.0009841
2526.98	0.0011455
2536.62	0.0012957
2546.27	0.001412
2555.91	0.0012926
2565.56	0.0011402
2575.2	0.0012113
2584.85	0.0009164
2594.49	0.0009489
2604.14	0.0007631
2613.78	0.0007097
2623.43	0.0006618
2633.07	0.000589
2642.72	0.0005869
2652.36	0.0005628
2662.01	0.00044488
2671.65	0.00042147
2681.29	0.000255
2690.94	0.0003242
2700.58	0.0003162
2710.23	0.0003258
2719.87	0.0005527
2729.52	0.0004793
2739.16	0.00040805
2748.81	0.0004629
2758.45	0.00045922
2768.1	0.00039659
2777.74	0.00040559
2787.39	0.0003488
2797.03	0.0002927
2806.68	0.00018
2816.32	0.00044908
2825.97	0.00038712
2835.61	0.0005334
2845.26	0.00040944
2854.9	0.00038905
2864.55	0.00043218
2874.19	0.0005047
2883.84	0.0006964
2893.48	0.0007305
2903.12	0.0007102
2912.77	0.0006719
2922.41	0.0006946
2932.06	0.0006463
2941.7	0.0004773
2951.35	0.000391
2960.99	0.00038193
2970.64	0.0006004
2980.28	0.0007099
2989.93	0.0010831
2999.57	0.001822
3009.22	0.002762
3018.86	0.004652
3028.51	0.004762
3038.15	0.003632
3047.8	0.003842
3057.44	0.007132
3067.09	0.021362
3076.73	0.041362
3086.38	0.018022
3096.02	0.006152
3105.67	0.002232
3115.31	0.0010685
3124.95	0.0012883
3134.6	0.0012959
3144.24	0.001572
3153.89	0.001402
3163.53	0.0009581
3173.18	0.0005549
3182.82	0.0002659
3192.47	0.00026
3202.11	0.00038379
3211.76	0.0002641
3221.4	0.000367113
3231.05	0.0002677
3240.69	0.000163
3250.34	0.000223
3259.98	0.0003115
3269.63	0.0002947
3279.27	0.0002732
3288.92	0.00037362
3298.56	0.00041723
3308.21	0.000217
3317.85	0.0002922
3327.49	0.000248
3337.14	0.0002647
3346.78	0.000471
3356.43	0.0003167
3366.07	0.000244
3375.72	0.00043781
3385.36	0.000363172
3395.01	0.00038185
3404.65	0.00045035
3414.3	0.00043829
3423.94	0.000341
3433.59	0.0005547
3443.23	0.0004674
3452.88	0.00043126
3462.52	0.0007381
3472.17	0.000182
3481.81	0.000513
3491.46	0.0007699
3501.1	0.001412
3510.75	0.002662
3520.39	0.002332
3530.04	0.001333
3539.68	0.0009017
3549.32	0.0008264
3558.97	0.0005151
3568.61	0.0004238
3578.26	0.00043318
3587.9	0.000143
3597.55	0.00039801
3607.19	0.00045416
3616.84	0.000228
3626.48	0.0003392
3636.13	0.0006677
3645.77	0.000172
3655.42	0.0003245
3665.06	0.00041386
3674.71	0.0005483
3684.35	0.0003093
3694	0.0004721
3703.64	0.0005946
3713.29	0.00035932
3722.93	0.0002842
3732.58	0.0007778
3742.22	0.0004695
3751.86	0.00045399
3761.51	0.0005508
3771.15	0.00045665
3780.8	0.0005787
3790.44	0.0005593
3800.09	0.000474
3809.73	0.0006545
3819.38	0.00045113
3829.02	0.0003329
3838.67	0.00038849
3848.31	0.000179
3857.96	0.000122
3867.6	0.0003501
3877.25	0.0002711
3886.89	0.00038004
3896.54	0.000218
3906.18	0.0003113
3915.83	0.00042233
3925.47	0.000249
3935.12	6.3e-05
3944.76	0.000202
3954.41	0.0003187
3964.05	0.0004048
3973.69	0.000246
3983.34	0.000337
3992.98	0.0006139
