Infrared Spectrum: 2-Chlorobenzyl isothiocyanate
Formula: C 8 H 6 Cl N S
CAS: 18967-44-7
State: gas
Origin: EPA-IR VAPOR PHASE LIBRARY
1/CM	ABSORBANCE
549.8	0.011897
559.445	0.013167
569.09	0.013357
578.734	0.013227
588.379	0.012617
598.024	0.011577
607.669	0.010447
617.313	0.008977
626.958	0.006927
636.603	0.005307
646.248	0.004597
655.893	0.005097
665.537	0.008547
675.182	0.016197
684.827	0.024197
694.472	0.029547
704.116	0.019997
713.761	0.013537
723.406	0.019307
733.051	0.047207
742.695	0.070417
752.34	0.050007
761.985	0.019467
771.63	0.007497
781.275	0.004657
790.919	0.004287
800.564	0.006597
810.209	0.009187
819.854	0.010257
829.498	0.007027
839.143	0.004187
848.788	0.003417
858.433	0.003007
868.078	0.002767
877.722	0.002627
887.367	0.002527
897.012	0.002567
906.657	0.002857
916.301	0.003437
925.946	0.003877
935.591	0.004417
945.236	0.003917
954.88	0.003437
964.525	0.002897
974.17	0.002687
983.815	0.002957
993.46	0.003717
1003.1	0.004447
1012.75	0.004937
1022.39	0.007687
1032.04	0.017917
1041.68	0.032277
1051.33	0.039337
1060.97	0.026757
1070.62	0.010667
1080.26	0.006447
1089.91	0.005897
1099.55	0.007967
1109.2	0.008957
1118.84	0.009577
1128.49	0.011967
1138.13	0.012267
1147.78	0.007667
1157.42	0.006057
1167.07	0.005877
1176.71	0.005317
1186.36	0.005777
1196	0.006967
1205.64	0.007867
1215.29	0.008027
1224.93	0.007267
1234.58	0.006277
1244.22	0.006037
1253.87	0.005677
1263.51	0.006867
1273.16	0.010507
1282.8	0.011097
1292.45	0.009897
1302.09	0.013067
1311.74	0.018597
1321.38	0.027777
1331.03	0.048777
1340.67	0.089317
1350.32	0.070837
1359.96	0.027147
1369.61	0.015667
1379.25	0.009717
1388.9	0.006577
1398.54	0.005797
1408.18	0.006277
1417.83	0.008437
1427.47	0.016227
1437.12	0.037477
1446.76	0.052767
1456.41	0.039657
1466.05	0.022297
1475.7	0.024257
1485.34	0.020587
1494.99	0.010747
1504.63	0.004867
1514.28	0.002957
1523.92	0.002237
1533.57	0.002157
1543.21	0.002507
1552.86	0.003377
1562.5	0.006147
1572.15	0.012047
1581.79	0.014027
1591.44	0.010617
1601.08	0.008107
1610.73	0.004257
1620.37	0.003057
1630.01	0.002357
1639.66	0.001857
1649.3	0.001757
1658.95	0.001837
1668.59	0.002027
1678.24	0.002457
1687.88	0.002607
1697.53	0.002137
1707.17	0.002087
1716.82	0.002047
1726.46	0.001937
1736.11	0.001887
1745.75	0.001817
1755.4	0.001697
1765.04	0.001807
1774.69	0.002027
1784.33	0.003017
1793.98	0.003507
1803.62	0.003307
1813.27	0.003107
1822.91	0.003547
1832.55	0.003957
1842.2	0.003697
1851.84	0.003817
1861.49	0.004497
1871.13	0.005627
1880.78	0.006927
1890.42	0.008267
1900.07	0.010357
1909.71	0.013087
1919.36	0.015067
1929	0.017907
1938.65	0.022987
1948.29	0.029687
1957.94	0.037617
1967.58	0.049237
1977.23	0.066757
1986.87	0.092157
1996.52	0.127937
2006.16	0.177237
2015.81	0.241207
2025.45	0.313047
2035.1	0.380397
2044.74	0.431557
2054.38	0.433307
2064.03	0.386697
2073.67	0.309717
2083.32	0.228997
2092.96	0.174937
2102.61	0.136747
2112.25	0.105767
2121.9	0.080827
2131.54	0.064687
2141.19	0.057447
2150.83	0.054987
2160.48	0.054827
2170.12	0.056717
2179.77	0.059217
2189.41	0.057577
2199.06	0.049727
2208.7	0.040677
2218.35	0.033527
2227.99	0.026997
2237.64	0.022127
2247.28	0.018137
2256.92	0.014287
2266.57	0.011537
2276.21	0.009467
2285.86	0.008027
2295.5	0.006947
2305.15	0.005977
2314.79	0.005187
2324.44	0.004597
2334.08	0.003837
2343.73	0.003307
2353.37	0.002917
2363.02	0.002527
2372.66	0.002317
2382.31	0.002217
2391.95	0.002077
2401.6	0.001947
2411.24	0.001877
2420.89	0.001817
2430.53	0.001907
2440.18	0.001827
2449.82	0.001797
2459.47	0.001927
2469.11	0.001877
2478.75	0.002067
2488.4	0.002117
2498.04	0.002207
2507.69	0.002277
2517.33	0.002357
2526.98	0.002517
2536.62	0.002667
2546.27	0.002957
2555.91	0.003087
2565.56	0.003177
2575.2	0.003017
2584.85	0.002737
2594.49	0.002357
2604.14	0.002197
2613.78	0.002117
2623.43	0.002037
2633.07	0.002027
2642.72	0.002147
2652.36	0.002167
2662.01	0.001947
2671.65	0.002067
2681.29	0.002237
2690.94	0.002397
2700.58	0.002657
2710.23	0.003087
2719.87	0.003787
2729.52	0.003987
2739.16	0.004367
2748.81	0.004097
2758.45	0.004017
2768.1	0.003997
2777.74	0.004197
2787.39	0.004597
2797.03	0.004707
2806.68	0.004407
2816.32	0.004127
2825.97	0.003767
2835.61	0.003347
2845.26	0.003177
2854.9	0.003717
2864.55	0.004257
2874.19	0.005037
2883.84	0.005697
2893.48	0.005287
2903.12	0.004527
2912.77	0.004607
2922.41	0.006457
2932.06	0.009697
2941.7	0.012137
2951.35	0.011317
2960.99	0.008357
2970.64	0.005517
2980.28	0.003597
2989.93	0.002547
2999.57	0.002327
3009.22	0.002567
3018.86	0.003867
3028.51	0.005017
3038.15	0.004337
3047.8	0.004167
3057.44	0.006417
3067.09	0.013457
3076.73	0.019567
3086.38	0.014107
3096.02	0.006577
3105.67	0.002847
3115.31	0.0015814
3124.95	0.0012
3134.6	0.0011118
3144.24	0.0013187
3153.89	0.0012405
3163.53	0.0008938
3173.18	0.000595
3182.82	0.0006737
3192.47	0.000519
3202.11	0.000427
3211.76	0.000494
3221.4	0.000266
3231.05	0.000431
3240.69	0.00047
3250.34	0.000273
3259.98	0.000387
3269.63	0.00031
3279.27	0.000342
3288.92	0.000354
3298.56	0.000122
3308.21	0.000339
3317.85	0.000106
3327.49	0.000315
3337.14	0.000536
3346.78	0.000159
3356.43	0.000414
3366.07	0.000479
3375.72	0.000323
3385.36	0.000535
3395.01	0.000364
3404.65	0.000371
3414.3	0.000379
3423.94	0.000418
3433.59	0.000382
3443.23	0.00035
3452.88	0.000375
3462.52	0.000341
3472.17	0.000541
3481.81	0.000425
3491.46	0.000357
3501.1	0.000464
3510.75	0.000467
3520.39	0.000504
3530.04	0.000457
3539.68	0.000508
3549.32	0.000392
3558.97	0.000471
3568.61	0.000447
3578.26	0.000241
3587.9	0.000514
3597.55	0.000537
3607.19	0.000498
3616.84	0.000523
3626.48	0.00054
3636.13	0.000576
3645.77	0.000459
3655.42	0.000306
3665.06	0.0006257
3674.71	0.000448
3684.35	0.000478
3694	0.0007551
3703.64	0.000567
3713.29	0.00049
3722.93	0.000531
3732.58	0.000319
3742.22	0.000578
3751.86	0.000643
3761.51	0.0006393
3771.15	0.0006531
3780.8	0.0008535
3790.44	0.00057
3800.09	0.000596
3809.73	0.00071391
3819.38	0.0006769
3829.02	0.000599
3838.67	0.0008898
3848.31	0.0008601
3857.96	0.0006739
3867.6	0.0008667
3877.25	0.0013387
3886.89	0.0011039
3896.54	0.0011249
3906.18	0.0010532
3915.83	0.0011387
3925.47	0.0011117
3935.12	0.0011144
3944.76	0.0012192
3954.41	0.0014531
3964.05	0.0011394
3973.69	0.001664
3983.34	0.0015764
3992.98	0.001717
