Infrared Spectrum: PHOSPHORODICHLORIDOTHIOIC ACID, O-PHENYL ESTER
Formula: C6 H5 Cl2 O P S
CAS: 18961-96-1
State: SOLUTION (10% IN CCl4 FOR 3800-1340, 10% IN CS2 FOR 1340-450 CM^-^1)
Class: COBLENTZ III
Instrument: DOW KBr FOREPRISM-GRATING
Instrument parameters: BLAZED AT 3.5, 12.0, 20.0 MICRON, CHANGED AT 5.0, 7.5, 14.9 MICRON
Sampling: TRANSMISSION
Path length: 0.011, 0.011 CM
Resolution: 4
Origin: DOW CHEMICAL COMPANY
1/CM	TRANSMITTANCE
452.273	0.597
460.796	0.593
469.318	0.733
477.841	0.761
486.364	0.744
494.887	0.537
503.409	0.101
511.932	0.692
520.455	0.677
528.978	0.3369
537.5	0.021
546.023	0.282
554.546	0.493
563.069	0.365
571.591	0.142
580.114	0.417
588.637	0.777
597.16	0.878
605.682	0.876
614.205	0.844
622.728	0.908
631.251	0.921
639.773	0.91
648.296	0.884
656.819	0.837
665.342	0.878
673.864	0.861
682.387	0.4458
690.91	0.452
699.433	0.126
707.955	0.113
716.478	0.3361
725.001	0.812
733.524	0.83
742.046	0.742
750.569	0.2419
759.092	0.152
767.615	0.112
776.137	0.029
784.66	0.0481
793.183	0.692
801.706	0.866
810.228	0.892
818.751	0.869
827.274	0.902
835.797	0.91
844.319	0.85
852.842	0.768
861.365	0.793
869.888	0.808
878.41	0.812
886.933	0.814
895.456	0.558
903.979	0.666
912.501	0.618
921.024	0.448
929.547	0.016
938.07	0.01
946.592	0.016
955.115	0.262
963.638	0.5921
972.161	0.8
980.683	0.81
989.206	0.822
997.729	0.842
1006.25	0.6291
1014.77	0.857
1023.3	0.269
1031.82	0.913
1040.34	0.948
1048.87	0.953
1057.39	0.945
1065.91	0.793
1074.43	0.892
1082.96	0.948
1091.48	0.934
1100	0.897
1108.52	0.937
1117.05	0.944
1125.57	0.933
1134.09	0.892
1142.62	0.661
1151.14	0.3019
1159.66	0.029
1168.18	0.461
1176.71	0.029
1185.23	0.041
1193.75	0.4301
1202.27	0.748
1210.8	0.882
1219.32	0.912
1227.84	0.89
1236.37	0.877
1244.89	0.932
1253.41	0.942
1261.93	0.946
1270.46	0.944
1278.98	0.932
1287.5	0.917
1296.03	0.905
1304.55	0.889
1313.07	0.902
1321.59	0.92
1330.12	0.933
1338.64	0.948
1347.16	0.972
1355.68	0.969
1364.21	0.973
1372.73	0.976
1381.25	0.972
1389.78	0.954
1398.3	0.953
1406.82	0.961
1415.34	0.969
1423.87	0.961
1432.39	0.941
1440.91	0.916
1449.43	0.902
1457.96	0.644
1466.48	0.873
1475	0.7049
1483.53	0.2209
1492.05	0.0091
1500.57	0.689
1509.09	0.692
1517.62	0.704
1526.14	0.678
1534.66	0.616
1543.18	0.51
1551.71	0.489
1560.23	0.562
1568.75	0.61
1577.28	0.556
1585.8	0.389
1594.32	0.2641
1602.84	0.6401
1611.37	0.869
1619.89	0.894
1628.41	0.929
1636.94	0.929
1645.46	0.954
1653.98	0.934
1662.5	0.953
1671.03	0.972
1679.55	0.974
1688.07	0.968
1696.59	0.966
1705.12	0.954
1713.64	0.925
1722.16	0.92
1730.69	0.945
1739.21	0.964
1747.73	0.972
1756.25	0.973
1764.78	0.976
1773.3	0.956
1781.82	0.948
1790.34	0.976
1798.87	0.972
1807.39	0.976
1815.91	0.978
1824.44	0.976
1832.96	0.972
1841.48	0.97
1850	0.952
1858.53	0.896
1867.05	0.925
1875.57	0.934
1884.09	0.933
1892.62	0.952
1901.14	0.964
1909.66	0.965
1918.19	0.954
1926.71	0.952
1935.23	0.897
1943.75	0.932
1952.28	0.946
1960.8	0.93
1969.32	0.962
1977.85	0.976
1986.37	0.978
1994.89	0.977
2003.41	0.978
2011.94	0.976
2020.46	0.977
2028.98	0.978
2037.5	0.978
2046.03	0.98
2054.55	0.9809
2063.07	0.977
2071.6	0.984
2080.12	0.986
2088.64	0.988
2097.16	0.986
2105.69	0.986
2114.21	0.988
2122.73	0.9889
2131.25	0.988
2139.78	0.988
2148.3	0.989
2156.82	0.989
2165.35	0.988
2173.87	0.986
2182.39	0.9859
2190.91	0.985
2199.44	0.985
2207.96	0.985
2216.48	0.985
2225	0.981
2233.53	0.98
2242.05	0.9779
2250.57	0.9758
2259.1	0.9699
2267.62	0.9659
2276.14	0.964
2284.66	0.9609
2293.19	0.958
2301.71	0.958
2310.23	0.956
2318.76	0.9584
2327.28	0.9677
2335.8	0.969
2344.32	0.976
2352.85	0.9772
2361.37	0.9842
2369.89	0.982
2378.41	0.9818
2386.94	0.9808
2395.46	0.98
2403.98	0.9812
2412.51	0.982
2421.03	0.98
2429.55	0.982
2438.07	0.982
2446.6	0.981
2455.12	0.981
2463.64	0.98
2472.16	0.978
2480.69	0.978
2489.21	0.978
2497.73	0.978
2506.26	0.977
2514.78	0.9755
2523.3	0.9755
2531.82	0.973
2540.35	0.9727
2548.87	0.972
2557.39	0.972
2565.91	0.97
2574.44	0.969
2582.96	0.9687
2591.48	0.965
2600.01	0.965
2608.53	0.9617
2617.05	0.961
2625.57	0.9613
2634.1	0.962
2642.62	0.9626
2651.14	0.966
2659.67	0.966
2668.19	0.966
2676.71	0.966
2685.23	0.965
2693.76	0.9633
2702.28	0.961
2710.8	0.961
2719.32	0.9577
2727.85	0.956
2736.37	0.956
2744.89	0.956
2753.42	0.954
2761.94	0.9547
2770.46	0.9553
2778.98	0.954
2787.51	0.954
2796.03	0.953
2804.55	0.9526
2813.07	0.9512
2821.6	0.95
2830.12	0.9496
2838.64	0.9472
2847.17	0.942
2855.69	0.949
2864.21	0.953
2872.73	0.954
2881.26	0.954
2889.78	0.95
2898.3	0.9456
2906.82	0.9351
2915.35	0.932
2923.87	0.934
2932.39	0.938
2940.92	0.9404
2949.44	0.944
2957.96	0.945
2966.48	0.948
2975.01	0.949
2983.53	0.949
2992.05	0.948
3000.58	0.9455
3009.1	0.937
3017.62	0.9236
3026.14	0.8956
3034.67	0.8895
3043.19	0.8365
3051.71	0.8785
3060.23	0.8294
3068.76	0.829
3077.28	0.8295
3085.8	0.8641
3094.33	0.879
3102.85	0.918
3111.37	0.9411
3119.89	0.948
3128.42	0.95
3136.94	0.954
3145.46	0.956
3153.98	0.961
3162.51	0.962
3171.03	0.965
3179.55	0.9654
3188.08	0.9646
3196.6	0.9686
3205.12	0.972
3213.64	0.973
3222.17	0.974
3230.69	0.977
3239.21	0.9764
3247.73	0.9776
3256.26	0.978
3264.78	0.978
3273.3	0.978
3281.83	0.98
3290.35	0.9806
3298.87	0.981
3307.39	0.982
3315.92	0.982
3324.44	0.982
3332.96	0.9833
3341.49	0.9827
3350.01	0.9833
3358.53	0.984
3367.05	0.985
3375.58	0.9847
3384.1	0.986
3392.62	0.988
3401.14	0.989
3409.67	0.989
3418.19	0.989
3426.71	0.9893
3435.24	0.989
3443.76	0.99
3452.28	0.992
3460.8	0.99
3469.33	0.99
3477.85	0.992
3486.37	0.993
3494.89	0.993
3503.42	0.994
3511.94	0.993
3520.46	0.9967
3528.99	0.997
3537.51	0.997
3546.03	0.997
3554.55	0.997
3563.08	0.9898
3571.6	0.9835
3580.12	0.9937
3588.64	0.998
3597.17	0.994
3605.69	0.9947
3614.21	0.992
3622.74	0.992
3631.26	0.9913
3639.78	0.996
3648.3	0.993
3656.83	1
3665.35	0.998
3673.87	0.997
3682.4	0.996
3690.92	0.993
3699.44	0.993
3707.96	0.9978
3716.49	1
3725.01	1.0008
3733.53	1.0002
3742.05	0.9983
3750.58	0.997
3759.1	0.994
3767.62	0.993
3776.15	0.993
3784.67	0.993
3793.19	0.994
