Infrared Spectrum: 2,4-Dichlorobenzyl isothiocyanate
Formula: C 8 H 5 Cl 2 N S
CAS: 18967-41-4
State: gas
Origin: EPA-IR VAPOR PHASE LIBRARY
1/CM	ABSORBANCE
549.8	0.008842
559.445	0.009692
569.09	0.010732
578.734	0.009592
588.379	0.007292
598.024	0.005062
607.669	0.003412
617.313	0.002572
626.958	0.002162
636.603	0.003072
646.248	0.004012
655.893	0.005552
665.537	0.006092
675.182	0.009262
684.827	0.010542
694.472	0.006632
704.116	0.006842
713.761	0.013142
723.406	0.018142
733.051	0.014472
742.695	0.012092
752.34	0.011822
761.985	0.008542
771.63	0.005052
781.275	0.004352
790.919	0.005112
800.564	0.010452
810.209	0.022142
819.854	0.026892
829.498	0.033092
839.143	0.047012
848.788	0.040162
858.433	0.022312
868.078	0.023362
877.722	0.013282
887.367	0.005092
897.012	0.003422
906.657	0.003312
916.301	0.003012
925.946	0.002852
935.591	0.003042
945.236	0.003322
954.88	0.002782
964.525	0.002542
974.17	0.002342
983.815	0.002022
993.46	0.002192
1003.1	0.002202
1012.75	0.002312
1022.39	0.002382
1032.04	0.005492
1041.68	0.015292
1051.33	0.023122
1060.97	0.011482
1070.62	0.005742
1080.26	0.007572
1089.91	0.014102
1099.55	0.028722
1109.2	0.031982
1118.84	0.020282
1128.49	0.010532
1138.13	0.008752
1147.78	0.011702
1157.42	0.008142
1167.07	0.004922
1176.71	0.004872
1186.36	0.005212
1196	0.006292
1205.64	0.007062
1215.29	0.006202
1224.93	0.006472
1234.58	0.005692
1244.22	0.005242
1253.87	0.005892
1263.51	0.005792
1273.16	0.006982
1282.8	0.007462
1292.45	0.009012
1302.09	0.010482
1311.74	0.013052
1321.38	0.019032
1331.03	0.037262
1340.67	0.077852
1350.32	0.044532
1359.96	0.024742
1369.61	0.025692
1379.25	0.030672
1388.9	0.026342
1398.54	0.013162
1408.18	0.007962
1417.83	0.008282
1427.47	0.009782
1437.12	0.014732
1446.76	0.027722
1456.41	0.032252
1466.05	0.032392
1475.7	0.049552
1485.34	0.024742
1494.99	0.011772
1504.63	0.007702
1514.28	0.005292
1523.92	0.004112
1533.57	0.004222
1543.21	0.006762
1552.86	0.015062
1562.5	0.024592
1572.15	0.022422
1581.79	0.028502
1591.44	0.036892
1601.08	0.020432
1610.73	0.006642
1620.37	0.003932
1630.01	0.002942
1639.66	0.002282
1649.3	0.001962
1658.95	0.001672
1668.59	0.001622
1678.24	0.0015211
1687.88	0.0014177
1697.53	0.001526
1707.17	0.001622
1716.82	0.001722
1726.46	0.002592
1736.11	0.003462
1745.75	0.002842
1755.4	0.002432
1765.04	0.002082
1774.69	0.001752
1784.33	0.001902
1793.98	0.001822
1803.62	0.001912
1813.27	0.002052
1822.91	0.002112
1832.55	0.002222
1842.2	0.002512
1851.84	0.002872
1861.49	0.003452
1871.13	0.004562
1880.78	0.006142
1890.42	0.007332
1900.07	0.007922
1909.71	0.009372
1919.36	0.011502
1929	0.014222
1938.65	0.018172
1948.29	0.023372
1957.94	0.030522
1967.58	0.041362
1977.23	0.057332
1986.87	0.080742
1996.52	0.113322
2006.16	0.156592
2015.81	0.210002
2025.45	0.266692
2035.1	0.318602
2044.74	0.340382
2054.38	0.316612
2064.03	0.266452
2073.67	0.198852
2083.32	0.151122
2092.96	0.118102
2102.61	0.090072
2112.25	0.067462
2121.9	0.051752
2131.54	0.044302
2141.19	0.041692
2150.83	0.040582
2160.48	0.039342
2170.12	0.038402
2179.77	0.038462
2189.41	0.038132
2199.06	0.034662
2208.7	0.028942
2218.35	0.023822
2227.99	0.019282
2237.64	0.015782
2247.28	0.013102
2256.92	0.010482
2266.57	0.008392
2276.21	0.006892
2285.86	0.006042
2295.5	0.005392
2305.15	0.004522
2314.79	0.003752
2324.44	0.003122
2334.08	0.002662
2343.73	0.002582
2353.37	0.002322
2363.02	0.002002
2372.66	0.001852
2382.31	0.001822
2391.95	0.001612
2401.6	0.0013987
2411.24	0.0015353
2420.89	0.0012807
2430.53	0.0012886
2440.18	0.0013129
2449.82	0.0012559
2459.47	0.0010341
2469.11	0.001312
2478.75	0.0013637
2488.4	0.001447
2498.04	0.001622
2507.69	0.001632
2517.33	0.001692
2526.98	0.002022
2536.62	0.002072
2546.27	0.002102
2555.91	0.002132
2565.56	0.002212
2575.2	0.002402
2584.85	0.002372
2594.49	0.002372
2604.14	0.002352
2613.78	0.001832
2623.43	0.001822
2633.07	0.0014519
2642.72	0.0012478
2652.36	0.0011654
2662.01	0.0012477
2671.65	0.0014457
2681.29	0.0015049
2690.94	0.001902
2700.58	0.002172
2710.23	0.002622
2719.87	0.002732
2729.52	0.003182
2739.16	0.003252
2748.81	0.003122
2758.45	0.003112
2768.1	0.003252
2777.74	0.003542
2787.39	0.003912
2797.03	0.003842
2806.68	0.003582
2816.32	0.003252
2825.97	0.002612
2835.61	0.002422
2845.26	0.002352
2854.9	0.002452
2864.55	0.003092
2874.19	0.003642
2883.84	0.004212
2893.48	0.004252
2903.12	0.003272
2912.77	0.003242
2922.41	0.004612
2932.06	0.006872
2941.7	0.008782
2951.35	0.008152
2960.99	0.006322
2970.64	0.003922
2980.28	0.002642
2989.93	0.0015418
2999.57	0.0011823
3009.22	0.0013083
3018.86	0.0014517
3028.51	0.001632
3038.15	0.0015932
3047.8	0.0014832
3057.44	0.001962
3067.09	0.002342
3076.73	0.002212
3086.38	0.001862
3096.02	0.001076
3105.67	0.00070214
3115.31	0.00060706
3124.95	0.0006452
3134.6	0.000483
3144.24	0.000511
3153.89	0.000484
3163.53	0.000611048
3173.18	0.000444
3182.82	0.000242
3192.47	0.000491
3202.11	0.00019
3211.76	0.000415
3221.4	0.000298
3231.05	0.000446
3240.69	0.0004
3250.34	0.000213
3259.98	0.000395
3269.63	0.000372
3279.27	0.000216
3288.92	0.000305
3298.56	0.00019
3308.21	0.000245
3317.85	0.000306
3327.49	0.000474
3337.14	0.000108
3346.78	0.000461
3356.43	0.000273
3366.07	0.000314
3375.72	0.000324
3385.36	0.000302
3395.01	0.000346
3404.65	0.000474
3414.3	0.00047
3423.94	0.000375
3433.59	0.0005423
3443.23	0.000271
3452.88	0.000306
3462.52	0.000423
3472.17	0.000365
3481.81	0.0006293
3491.46	0.00062325
3501.1	0.000486
3510.75	0.0003
3520.39	0.000222
3530.04	0.000423
3539.68	0.000428
3549.32	0.000511
3558.97	0.000364
3568.61	0.00068311
3578.26	0.000337
3587.9	0.000415
3597.55	0.0005521
3607.19	0.000477
3616.84	0.000415
3626.48	0.000491
3636.13	0.000408
3645.77	0.000318
3655.42	0.000407
3665.06	0.000395
3674.71	0.0005915
3684.35	0.00060758
3694	0.000342
3703.64	0.000438
3713.29	0.0005757
3722.93	0.000287
3732.58	0.0005161
3742.22	0.000439
3751.86	0.000445
3761.51	0.0006003
3771.15	0.0005769
3780.8	0.000581
3790.44	0.000464
3800.09	0.000502
3809.73	0.0008282
3819.38	0.0007613
3829.02	0.0007529
3838.67	0.000464
3848.31	0.00067719
3857.96	0.000105
3867.6	0.000793
3877.25	0.0007528
3886.89	0.0007911
3896.54	0.0009894
3906.18	0.0009665
3915.83	0.0009962
3925.47	0.0009036
3935.12	0.0011514
3944.76	0.0011197
3954.41	0.0010706
3964.05	0.0011927
3973.69	0.0011282
3983.34	0.0012501
3992.98	0.0015863
