Infrared Spectrum: Methyl 3-isothiocyanatopropionate
Formula: C 5 H 7 N O 2 S
CAS: 18967-35-6
State: gas
Origin: EPA-IR VAPOR PHASE LIBRARY
1/CM	ABSORBANCE
549.8	0.01477
559.445	0.01436
569.09	0.0125
578.734	0.01129
588.379	0.00906
598.024	0.00781
607.669	0.00669
617.313	0.00606
626.958	0.00606
636.603	0.00637
646.248	0.00746
655.893	0.0088
665.537	0.0107
675.182	0.01134
684.827	0.00796
694.472	0.00457
704.116	0.00293
713.761	0.00226
723.406	0.00227
733.051	0.00259
742.695	0.00253
752.34	0.00235
761.985	0.00207
771.63	0.002
781.275	0.00215
790.919	0.00232
800.564	0.00262
810.209	0.0036
819.854	0.005
829.498	0.00721
839.143	0.00877
848.788	0.00766
858.433	0.00572
868.078	0.00497
877.722	0.00553
887.367	0.00661
897.012	0.00775
906.657	0.00906
916.301	0.01159
925.946	0.01281
935.591	0.01238
945.236	0.0113
954.88	0.01101
964.525	0.0101
974.17	0.01046
983.815	0.01386
993.46	0.01605
1003.1	0.01826
1012.75	0.02098
1022.39	0.02072
1032.04	0.01988
1041.68	0.02239
1051.33	0.02586
1060.97	0.02444
1070.62	0.01909
1080.26	0.01612
1089.91	0.01554
1099.55	0.01666
1109.2	0.01797
1118.84	0.01857
1128.49	0.02299
1138.13	0.02942
1147.78	0.04183
1157.42	0.06675
1167.07	0.10655
1176.71	0.14774
1186.36	0.15646
1196	0.13893
1205.64	0.11665
1215.29	0.09136
1224.93	0.08378
1234.58	0.08705
1244.22	0.09451
1253.87	0.09711
1263.51	0.07933
1273.16	0.05407
1282.8	0.03738
1292.45	0.03261
1302.09	0.03294
1311.74	0.03382
1321.38	0.03402
1331.03	0.03845
1340.67	0.05649
1350.32	0.08897
1359.96	0.10953
1369.61	0.09859
1379.25	0.06836
1388.9	0.03893
1398.54	0.02338
1408.18	0.01942
1417.83	0.02229
1427.47	0.03049
1437.12	0.05069
1446.76	0.05545
1456.41	0.04196
1466.05	0.03188
1475.7	0.01578
1485.34	0.0099
1494.99	0.00799
1504.63	0.00651
1514.28	0.00558
1523.92	0.00499
1533.57	0.00458
1543.21	0.00433
1552.86	0.00424
1562.5	0.00416
1572.15	0.00409
1581.79	0.00389
1591.44	0.00357
1601.08	0.00353
1610.73	0.00358
1620.37	0.00353
1630.01	0.00351
1639.66	0.00359
1649.3	0.00355
1658.95	0.0037
1668.59	0.00381
1678.24	0.00412
1687.88	0.00511
1697.53	0.00705
1707.17	0.01109
1716.82	0.0189
1726.46	0.03368
1736.11	0.06023
1745.75	0.10529
1755.4	0.16381
1765.04	0.19812
1774.69	0.14547
1784.33	0.07422
1793.98	0.03678
1803.62	0.01745
1813.27	0.00949
1822.91	0.00653
1832.55	0.00555
1842.2	0.00526
1851.84	0.00535
1861.49	0.00558
1871.13	0.00624
1880.78	0.00708
1890.42	0.0083
1900.07	0.00994
1909.71	0.01212
1919.36	0.01486
1929	0.01851
1938.65	0.02311
1948.29	0.02925
1957.94	0.03743
1967.58	0.0487
1977.23	0.06489
1986.87	0.08853
1996.52	0.12123
2006.16	0.16415
2015.81	0.2185
2025.45	0.28565
2035.1	0.36123
2044.74	0.43375
2054.38	0.48303
2064.03	0.47419
2073.67	0.38063
2083.32	0.25826
2092.96	0.17694
2102.61	0.13845
2112.25	0.11616
2121.9	0.09714
2131.54	0.08115
2141.19	0.07054
2150.83	0.06411
2160.48	0.05893
2170.12	0.05411
2179.77	0.04966
2189.41	0.04668
2199.06	0.04573
2208.7	0.04642
2218.35	0.04439
2227.99	0.03613
2237.64	0.02537
2247.28	0.01801
2256.92	0.01387
2266.57	0.01129
2276.21	0.00922
2285.86	0.0077
2295.5	0.00651
2305.15	0.00558
2314.79	0.00483
2324.44	0.00431
2334.08	0.00392
2343.73	0.00367
2353.37	0.00334
2363.02	0.00316
2372.66	0.00283
2382.31	0.00258
2391.95	0.00224
2401.6	0.00216
2411.24	0.00192
2420.89	0.00179
2430.53	0.00166
2440.18	0.00164
2449.82	0.00166
2459.47	0.00168
2469.11	0.00179
2478.75	0.00172
2488.4	0.00193
2498.04	0.00189
2507.69	0.00193
2517.33	0.00198
2526.98	0.00211
2536.62	0.00221
2546.27	0.00214
2555.91	0.0024
2565.56	0.00258
2575.2	0.00225
2584.85	0.00218
2594.49	0.00181
2604.14	0.00177
2613.78	0.00162
2623.43	0.00158
2633.07	0.0016
2642.72	0.0016
2652.36	0.00179
2662.01	0.00192
2671.65	0.00224
2681.29	0.00275
2690.94	0.00349
2700.58	0.00441
2710.23	0.00556
2719.87	0.00664
2729.52	0.00809
2739.16	0.00875
2748.81	0.00799
2758.45	0.00631
2768.1	0.00471
2777.74	0.00392
2787.39	0.00332
2797.03	0.00308
2806.68	0.00321
2816.32	0.00309
2825.97	0.00366
2835.61	0.00451
2845.26	0.00662
2854.9	0.00845
2864.55	0.00737
2874.19	0.00717
2883.84	0.00988
2893.48	0.01264
2903.12	0.01338
2912.77	0.01272
2922.41	0.01238
2932.06	0.01593
2941.7	0.0257
2951.35	0.04065
2960.99	0.05746
2970.64	0.0466
2980.28	0.0251
2989.93	0.01828
2999.57	0.0158
3009.22	0.01415
3018.86	0.01201
3028.51	0.01056
3038.15	0.00904
3047.8	0.0069
3057.44	0.00489
3067.09	0.00378
3076.73	0.00335
3086.38	0.00313
3096.02	0.00272
3105.67	0.0025
3115.31	0.00224
3124.95	0.00188
3134.6	0.00151
3144.24	0.00149
3153.89	0.0010987
3163.53	0.0010074
3173.18	0.0008942
3182.82	0.0007425
3192.47	0.0007123
3202.11	0.0006214
3211.76	0.0005175
3221.4	0.0003774
3231.05	0.0002963
3240.69	0.000223
3250.34	0.000235
3259.98	0.0003226
3269.63	0.000278
3279.27	0.000111
3288.92	0.000133
3298.56	0.000216
3308.21	0.000224
3317.85	4.6e-05
3327.49	0.000113
3337.14	0.000238
3346.78	0.00014
3356.43	0.0003662
3366.07	0.0004975
3375.72	0.000284
3385.36	0.0003406
3395.01	0.00043787
3404.65	0.0005069
3414.3	0.00041352
3423.94	0.00044382
3433.59	0.0004985
3443.23	0.0005376
3452.88	0.0006198
3462.52	0.0008362
3472.17	0.0010049
3481.81	0.0013143
3491.46	0.00181
3501.1	0.00227
3510.75	0.00244
3520.39	0.00207
3530.04	0.00151
3539.68	0.0011003
3549.32	0.0008209
3558.97	0.0007553
3568.61	0.0003265
3578.26	0.0005046
3587.9	0.00047259
3597.55	0.0006653
3607.19	0.0005733
3616.84	0.000328
3626.48	0.00044803
3636.13	0.00028
3645.77	0.000311
3655.42	0.00047619
3665.06	0.000278
3674.71	0.0005989
3684.35	0.0003067
3694	0.0003167
3703.64	0.0004926
3713.29	0.0005262
3722.93	0.00046045
3732.58	0.0004951
3742.22	0.000277
3751.86	0.000334
3761.51	0.0005391
3771.15	0.0005521
3780.8	0.0006703
3790.44	0.0005227
3800.09	0.0005327
3809.73	0.00044831
3819.38	0.0005816
3829.02	0.0007069
3838.67	0.0005716
3848.31	0.0005413
3857.96	0.000914
3867.6	0.0006582
3877.25	0.0008804
3886.89	0.0008449
3896.54	0.0008638
3906.18	0.0009632
3915.83	0.0010413
3925.47	0.0010064
3935.12	0.0012126
3944.76	0.0012573
3954.41	0.0012393
3964.05	0.00153
3973.69	0.0016
3983.34	0.0017
3992.98	0.00189
