Infrared Spectrum: Methacrylic acid, 2,4,6-trichlorophenyl ester
Formula: C10 H7 Cl3 O2
CAS: 18967-27-6
State: SOLUTION (10% CCl4 FOR 3800-1340, 10% CS2 FOR 1340-450 CM^-^1)
Class: COBLENTZ III
Instrument: DOW KBr FOREPRISM-GRATING
Instrument parameters: BLAZED AT 3.5, 12.0, 20.0 MICRON AND CHANGED AT 5.0, 7.5, 14.9 MICRON
Sampling: TRANSMISSION
Path length: 0.011 CM, 0.011 CM
Resolution: 2
Origin: DOW CHEMICAL COMPANY
1/CM	TRANSMITTANCE
3800	0.9374
3791	0.939
3782	0.9378
3773	0.9395
3764	0.9396
3755	0.9395
3746	0.9393
3737	0.9408
3728	0.941
3719	0.9396
3710	0.9414
3701	0.9416
3692	0.9393
3683	0.937
3674	0.9362
3665	0.9356
3656	0.9351
3647	0.9346
3638	0.9346
3629	0.9347
3620	0.9364
3611	0.9361
3602	0.9352
3593	0.9271
3584	0.8892
3575	0.9242
3566	0.934
3557	0.9344
3548	0.9361
3539	0.935
3530	0.9348
3521	0.9315
3512	0.9223
3503	0.9106
3494	0.9066
3485	0.9169
3476	0.9251
3467	0.9333
3458	0.9397
3449	0.9432
3440	0.9458
3431	0.9466
3422	0.9474
3413	0.9476
3404	0.9479
3395	0.9482
3386	0.9485
3377	0.9488
3368	0.9491
3359	0.9494
3350	0.9504
3341	0.9519
3332	0.953
3323	0.9534
3314	0.9537
3305	0.9551
3296	0.9534
3287	0.9531
3278	0.954
3269	0.9542
3260	0.9541
3251	0.9537
3242	0.9531
3233	0.9525
3224	0.9519
3215	0.9513
3206	0.9487
3197	0.9489
3188	0.9482
3179	0.9431
3170	0.9379
3161	0.9296
3152	0.9193
3143	0.9168
3134	0.9214
3125	0.9228
3116	0.9029
3107	0.895
3098	0.8437
3089	0.7917
3080	0.8963
3071	0.9193
3062	0.9225
3053	0.9195
3044	0.9214
3035	0.9271
3026	0.8905
3017	0.8926
3008	0.8999
2999	0.8357
2990	0.7864
2981	0.8164
2972	0.8304
2963	0.7917
2954	0.8457
2945	0.8778
2936	0.793
2927	0.7988
2918	0.8693
2909	0.891
2900	0.8935
2891	0.8977
2882	0.9056
2873	0.914
2864	0.9153
2855	0.9039
2846	0.9035
2837	0.9162
2828	0.9138
2819	0.9156
2810	0.9173
2801	0.9222
2792	0.9256
2783	0.9267
2774	0.9283
2765	0.929
2756	0.9299
2747	0.9309
2738	0.9317
2729	0.9325
2720	0.9332
2711	0.9324
2702	0.9312
2693	0.9307
2684	0.9307
2675	0.9312
2666	0.9319
2657	0.9332
2648	0.9314
2639	0.9298
2630	0.9289
2621	0.9298
2612	0.9313
2603	0.9324
2594	0.9331
2585	0.9337
2576	0.9343
2567	0.9345
2558	0.9348
2549	0.9351
2540	0.9355
2531	0.9358
2522	0.9362
2513	0.9366
2504	0.9369
2495	0.9364
2486	0.9332
2477	0.9301
2468	0.9294
2459	0.9295
2450	0.9309
2441	0.934
2432	0.9358
2423	0.9361
2414	0.9365
2405	0.9376
2396	0.9373
2387	0.9379
2378	0.9417
2369	0.9426
2360	0.9435
2351	0.9441
2342	0.9358
2333	0.9294
2324	0.9331
2315	0.9337
2306	0.9352
2297	0.9382
2288	0.9385
2279	0.9375
2270	0.9343
2261	0.9327
2252	0.9333
2243	0.9363
2234	0.9383
2225	0.94
2216	0.9369
2207	0.9341
2198	0.9315
2189	0.9308
2180	0.934
2171	0.9391
2162	0.9392
2153	0.9404
2144	0.9413
2135	0.9421
2126	0.9424
2117	0.9418
2108	0.9323
2099	0.9285
2090	0.931
2081	0.9328
2072	0.9286
2063	0.9212
2054	0.9231
2045	0.9257
2036	0.9298
2027	0.9328
2018	0.9301
2009	0.9274
2000	0.9282
1991	0.9172
1982	0.9085
1973	0.8996
1964	0.8992
1955	0.8943
1946	0.8985
1937	0.9093
1928	0.911
1919	0.9074
1910	0.889
1901	0.8728
1892	0.8807
1883	0.8956
1874	0.9029
1865	0.9027
1856	0.9015
1847	0.8999
1838	0.897
1829	0.8913
1820	0.885
1811	0.8726
1802	0.8224
1793	0.8219
1784	0.7896
1775	0.4882
1766	0.0221
1757	0.0096
1748	0.3801
1739	0.6612
1730	0.7156
1721	0.7501
1712	0.8355
1703	0.8683
1694	0.8849
1685	0.8986
1676	0.9085
1667	0.9164
1658	0.9229
1649	0.8732
1640	0.5712
1631	0.848
1622	0.8728
1613	0.8769
1604	0.8591
1595	0.8051
1586	0.4876
1577	0.2369
1568	0.0967
1559	0.5524
1550	0.7198
1541	0.8171
1532	0.8618
1523	0.8596
1514	0.8505
1505	0.8571
1496	0.8519
1487	0.84
1478	0.7452
1469	0.4332
1460	0.1071
1451	0.0249
1442	0.1269
1433	0.5184
1424	0.6248
1415	0.5474
1406	0.553
1397	0.5729
1388	0.303
1379	0.5491
1370	0.6846
1361	0.7887
1352	0.841
1343	0.8488
1334	0.8205
1325	0.5549
1316	0.2339
1307	0.5428
1298	0.4477
1289	0.4491
1280	0.7302
1271	0.7567
1262	0.7041
1253	0.6003
1244	0.2496
1235	0.0729
1226	0.6365
1217	0.8178
1208	0.858
1199	0.8204
1190	0.761
1181	0.8191
1172	0.8064
1163	0.8163
1154	0.8277
1145	0.798
1136	0.7724
1127	0.6641
1118	0.4073
1109	0.0624
1100	0.0035
1091	0.0185
1082	0.299
1073	0.6278
1064	0.758
1055	0.8078
1046	0.8335
1037	0.8521
1028	0.862
1019	0.859
1010	0.7083
1001	0.6274
992	0.8473
983	0.8814
974	0.8904
965	0.8736
956	0.8058
947	0.1058
938	0.5855
929	0.8262
920	0.8696
911	0.8857
902	0.8894
893	0.8757
884	0.842
875	0.551
866	0.1359
857	0.1861
848	0.7616
839	0.8044
830	0.701
821	0.1386
812	0.5318
803	0.3248
794	0.7871
785	0.8769
776	0.8805
767	0.6669
758	0.3907
749	0.7925
740	0.8696
731	0.9095
722	0.9196
713	0.9217
704	0.9139
695	0.8031
686	0.9221
677	0.9344
668	0.9704
659	0.9287
650	0.8571
641	0.7949
632	0.8722
623	0.932
614	0.9357
605	0.7992
596	0.8963
587	0.939
578	0.9292
569	0.9151
560	0.7128
551	0.9305
542	0.9588
533	0.9635
524	0.9624
515	0.9559
506	0.9255
497	0.8942
488	0.9298
479	0.9377
470	0.9399
461	0.9416
452	0.9417
