Infrared Spectrum: 4-n-Propylresorcinol
Formula: C 9 H 12 O 2
CAS: 18979-60-7
State: gas
Instrument: HP-GC/MS/IRD
Origin: NIST Mass Spectrometry Data Center
1/CM	ABSORBANCE
550	0.0008414
562	0.0009632
574	0.0010262
586	0.0006636
598	0.0005642
610	0.0011172
622	0.0009982
634	0.000406
646	0
658	9.24e-05
670	5.74e-05
682	5.88e-05
694	0.0003444
706	0.0007056
718	0.0005726
730	0.0006062
742	0.0006188
754	0.000497
766	0.0009002
778	0.0016702
790	0.0017136
802	0.0016296
814	0.0023198
826	0.0029176
838	0.0026138
850	0.0016142
862	0.0010514
874	0.0005992
886	0.0005152
898	0.0005138
910	0.0004676
922	0.0005068
934	0.0004998
946	0.0009044
958	0.0039312
970	0.0074718
982	0.0025046
994	0.0006314
1006	0.0003892
1018	0.0004368
1030	0.0005334
1042	0.0007266
1054	0.0010528
1066	0.0014448
1078	0.001988
1090	0.0035
1102	0.0076692
1114	0.0101668
1126	0.00805
1138	0.0096684
1150	0.011543
1162	0.010234
1174	0.0120022
1186	0.0120498
1198	0.0078638
1210	0.0092386
1222	0.007763
1234	0.0044436
1246	0.0027524
1258	0.0025858
1270	0.0040474
1282	0.0062916
1294	0.0075068
1306	0.0061936
1318	0.004711
1330	0.004284
1342	0.0023702
1354	0.0009268
1366	0.0005992
1378	0.0008176
1390	0.0009548
1402	0.0008442
1414	0.0011116
1426	0.0021224
1438	0.0041818
1450	0.005418
1462	0.004459
1474	0.002912
1486	0.0026768
1498	0.0066332
1510	0.0110404
1522	0.0070196
1534	0.002863
1546	0.0019628
1558	0.0015792
1570	0.0017402
1582	0.0032368
1594	0.0065114
1606	0.0092358
1618	0.0094234
1630	0.0065758
1642	0.003402
1654	0.0018004
1666	0.0011816
1678	0.0007896
1690	0.0004732
1702	0.0004088
1714	0.0003052
1726	0.0002296
1738	0.000161
1750	0.0001064
1762	9.24e-05
1774	9.38e-05
1786	6.44e-05
1798	7.7e-05
1810	9.52e-05
1822	9.66e-05
1834	0.0001582
1846	0.0002324
1858	0.0002744
1870	0.0002436
1882	0.0001554
1894	0.0001232
1906	9.38e-05
1918	7.42e-05
1930	5.74e-05
1942	6.72e-05
1954	4.34e-05
1966	3.36e-05
1978	1.82e-05
1990	3.78e-05
2002	3.92e-05
2014	6.72e-05
2026	7.14e-05
2038	7.42e-05
2050	5.46e-05
2062	5.04e-05
2074	5.04e-05
2086	4.62e-05
2098	5.46e-05
2110	3.08e-05
2122	4.9e-05
2134	5.18e-05
2146	6.16e-05
2158	5.74e-05
2170	5.6e-05
2182	6.44e-05
2194	5.46e-05
2206	2.38e-05
2218	1.12e-05
2230	5.6e-05
2242	0.0001078
2254	0.000126
2266	0.0001302
2278	9.66e-05
2290	6.3e-05
2302	7.84e-05
2314	9.94e-05
2326	0.000154
2338	0.000224
2350	0.0001904
2362	0.0001778
2374	0.0001274
2386	0.0001526
2398	0.0002156
2410	0.000259
2422	0.0002226
2434	0.0001988
2446	0.0001918
2458	0.0001568
2470	0.000168
2482	0.000168
2494	0.0001582
2506	0.0001442
2518	0.000126
2530	9.24e-05
2542	8.82e-05
2554	9.8e-05
2566	0.0001064
2578	9.94e-05
2590	8.96e-05
2602	6.72e-05
2614	7.56e-05
2626	8.26e-05
2638	0.0001106
2650	0.0001008
2662	0.0001274
2674	0.0001386
2686	0.0001022
2698	9.38e-05
2710	8.4e-05
2722	0.0001386
2734	0.0001694
2746	0.0002296
2758	0.0001918
2770	0.0001918
2782	0.000231
2794	0.0002758
2806	0.0003542
2818	0.0004844
2830	0.0006482
2842	0.0011816
2854	0.002016
2866	0.0029736
2878	0.0042238
2890	0.0038192
2902	0.0029932
2914	0.0037282
2926	0.0054978
2938	0.0072156
2950	0.0065324
2962	0.0072016
2974	0.0073458
2986	0.0032928
2998	0.0015596
3010	0.0014406
3022	0.0020272
3034	0.0024794
3046	0.0016996
3058	0.0011144
3070	0.0008428
3082	0.0006244
3094	0.0004284
3106	0.0003066
3118	0.0002492
3130	0.000217
3142	0.0001918
3154	0.0001372
3166	0.000105
3178	9.1e-05
3190	0.0001162
3202	7.56e-05
3214	7.28e-05
3226	5.18e-05
3238	2.94e-05
3250	4.62e-05
3262	1.54e-05
3274	1.26e-05
3286	3.5e-05
3298	1.96e-05
3310	4.34e-05
3322	7.7e-05
3334	8.82e-05
3346	0.0001568
3358	0.000189
3370	0.0001666
3382	0.0001624
3394	0.0001708
3406	0.0001428
3418	0.0001218
3430	0.0001218
3442	0.0001176
3454	8.68e-05
3466	6.72e-05
3478	5.74e-05
3490	6.44e-05
3502	4.34e-05
3514	3.22e-05
3526	5.6e-05
3538	5.32e-05
3550	5.18e-05
3562	5.32e-05
3574	0.0001148
3586	0.0001456
3598	0.0002534
3610	0.00042
3622	0.0010374
3634	0.0040572
3646	0.0126084
3658	0.0109214
3670	0.002163
3682	0.0004886
3694	0.0002478
3706	0.0001764
3718	0.0001568
3730	0.0001064
3742	0.0001316
3754	0.0001134
3766	7.56e-05
3778	0.0001204
3790	0.0001036
3802	0.0001638
3814	0.000126
3826	0.0001624
3838	0.0001988
