Infrared Spectrum: Chlorothalonil
Formula: C 8 Cl 4 N 2
CAS: 1897-45-6
State: gas
Instrument: HP-GC/MS/IRD
Origin: NIST Mass Spectrometry Data Center
1/CM	ABSORBANCE
550	0.0002618
562	0.000374
574	0.000391
586	0.0002312
598	0.0003978
610	0.0004828
622	0.0003587
634	0.000289
646	0.0003502
658	0.0003366
670	0.0005593
682	0.0008109
694	0.0017731
706	0.0011339
718	0.0013804
730	0.0058701
742	0.0092973
754	0.0064991
766	0.0023324
778	0.000969
790	0.0006647
802	0.0007582
814	0.0005763
826	0.0004471
838	0.0004029
850	0.0004845
862	0.0005287
874	0.0004896
886	0.000476
898	0.0005508
910	0.0006052
922	0.0006341
934	0.0005117
946	0.0005236
958	0.0007735
970	0.0019669
982	0.002805
994	0.0009758
1006	0.0005865
1018	0.0005916
1030	0.0004029
1042	0.0004284
1054	0.0004029
1066	0.0005032
1078	0.0004403
1090	0.0003978
1102	0.0004488
1114	0.0002499
1126	0.0001734
1138	0.0003196
1150	0.0005916
1162	0.000493
1174	0.0001802
1186	3.57e-05
1198	0.0003196
1210	0.0004301
1222	0.0017323
1234	0.0019227
1246	0.0017187
1258	0.0050201
1270	0.0042415
1282	0.0007463
1294	0.0007361
1306	0.0010846
1318	0.0016184
1330	0.002465
1342	0.0055352
1354	0.0095251
1366	0.0156264
1378	0.014773
1390	0.0045339
1402	0.001445
1414	0.0008585
1426	0.0005712
1438	0.0004777
1450	0.0004709
1462	0.0005015
1474	0.0005729
1486	0.0005576
1498	0.0006426
1510	0.0011968
1522	0.0023664
1534	0.0044676
1546	0.0048569
1558	0.0011594
1570	0.0006749
1582	0.0006528
1594	0.0004505
1606	0.0003706
1618	0.000289
1630	0.0003077
1642	0.000289
1654	0.0002788
1666	0.0002652
1678	0.0001819
1690	0.0002261
1702	0.0001887
1714	0.0001819
1726	0.000204
1738	0.0002006
1750	0.0002533
1762	0.0002193
1774	0.000187
1786	0.0001632
1798	0.0001598
1810	0.0001632
1822	0.0001496
1834	0.0001598
1846	0.0002006
1858	0.0001819
1870	0.0001955
1882	0.0002278
1894	0.0002584
1906	0.0002601
1918	0.0002771
1930	0.0002295
1942	0.0002023
1954	0.0002142
1966	0.0001734
1978	0.00017
1990	0.00017
2002	0.0001853
2014	0.0001802
2026	0.0001632
2038	0.0001836
2050	0.0001836
2062	0.0001394
2074	0.0001462
2086	0.0001853
2098	0.00017
2110	0.00017
2122	0.0002006
2134	0.0001734
2146	0.0001513
2158	0.0001513
2170	0.0001309
2182	0.0001343
2194	0.0001105
2206	0.0001258
2218	0.0001428
2230	0.0001598
2242	0.0001734
2254	0.0001632
2266	0.000136
2278	0.0001258
2290	0.0001258
2302	0.0001411
2314	0.00017
2326	0.0001734
2338	0.0001105
2350	9.52e-05
2362	0.0001547
2374	0.0001394
2386	9.69e-05
2398	0.0001054
2410	0.0001105
2422	0.0001326
2434	0.0001003
2446	0.0001496
2458	0.0001615
2470	0.0001275
2482	0.0001224
2494	0.0001207
2506	0.0001071
2518	5.27e-05
2530	8.33e-05
2542	9.86e-05
2554	7.48e-05
2566	8.67e-05
2578	8.33e-05
2590	0.000136
2602	0.0001003
2614	0.0001309
2626	0.0001037
2638	8.67e-05
2650	7.82e-05
2662	8.67e-05
2674	7.14e-05
2686	0.0001088
2698	4.93e-05
2710	5.1e-05
2722	4.93e-05
2734	9.69e-05
2746	6.63e-05
2758	0.0001088
2770	8.84e-05
2782	6.29e-05
2794	9.18e-05
2806	7.31e-05
2818	8.5e-05
2830	3.57e-05
2842	4.08e-05
2854	7.65e-05
2866	3.91e-05
2878	6.12e-05
2890	0.0001428
2902	0.0001088
2914	5.44e-05
2926	9.86e-05
2938	9.69e-05
2950	6.29e-05
2962	5.44e-05
2974	7.48e-05
2986	9.35e-05
2998	0.0001224
3010	1.36e-05
3022	7.48e-05
3034	6.12e-05
3046	0.0001394
3058	7.99e-05
3070	0.0001326
3082	5.61e-05
3094	2.04e-05
3106	0.0001037
3118	0.0001037
3130	0.000136
3142	0.0001258
3154	9.52e-05
3166	0.0001513
3178	8.33e-05
3190	3.91e-05
3202	0.0001105
3214	7.48e-05
3226	0.0001156
3238	5.61e-05
3250	7.14e-05
3262	5.44e-05
3274	4.25e-05
3286	0.0001564
3298	0.0001394
3310	0.0001105
3322	0.0001088
3334	6.29e-05
3346	4.08e-05
3358	0.0001326
3370	0.0001173
3382	0.0001275
3394	0.0001479
3406	5.61e-05
3418	9.35e-05
3430	9.86e-05
3442	0.000119
3454	9.01e-05
3466	0.0001581
3478	0.0001547
3490	9.86e-05
3502	4.08e-05
3514	0.0001258
3526	0.0001088
3538	0.0001326
3550	5.1e-05
3562	0.0001462
3574	0.0001071
3586	1.36e-05
3598	0.0001122
3610	8.67e-05
3622	0.0001326
3634	7.82e-05
3646	0.0001598
3658	4.59e-05
3670	4.93e-05
3682	0.0001224
3694	0.0001173
3706	0.0001547
3718	0.0001275
3730	0.0001224
3742	0.0001853
3754	0.0001853
3766	0.00017
3778	0.0001411
3790	0.0001904
3802	0.0001751
3814	8.5e-05
3826	0.0001343
3838	0.0001105
