Infrared Spectrum: 4,4'-Diisopropylbiphenyl
Formula: C 18 H 22
CAS: 18970-30-4
State: gas
Origin: EPA-IR VAPOR PHASE LIBRARY
1/CM	ABSORBANCE
549.8	0.0267966
559.445	0.0234966
569.09	0.0159566
578.734	0.0104966
588.379	0.0058966
598.024	0.0034966
607.669	0.0024666
617.313	0.0016066
626.958	0.0016766
636.603	0.0023466
646.248	0.0022166
655.893	0.0017966
665.537	0.0014466
675.182	0.0017766
684.827	0.0013266
694.472	0.0014866
704.116	0.0023466
713.761	0.0034066
723.406	0.0039366
733.051	0.0055666
742.695	0.0035966
752.34	0.0022166
761.985	0.0022166
771.63	0.0031866
781.275	0.0052266
790.919	0.0070966
800.564	0.0122166
810.209	0.0388166
819.854	0.0779866
829.498	0.0476166
839.143	0.0202866
848.788	0.0129566
858.433	0.0060866
868.078	0.0034766
877.722	0.0034466
887.367	0.0034666
897.012	0.0022866
906.657	0.0020266
916.301	0.0019066
925.946	0.0024466
935.591	0.0015566
945.236	0.0015366
954.88	0.0020266
964.525	0.0017766
974.17	0.0021866
983.815	0.0034166
993.46	0.0061066
1003.1	0.0261166
1012.75	0.0114066
1022.39	0.0150966
1032.04	0.0142766
1041.68	0.0053466
1051.33	0.0157466
1060.97	0.0363666
1070.62	0.0138466
1080.26	0.0094066
1089.91	0.0084366
1099.55	0.0116866
1109.2	0.0160566
1118.84	0.0081466
1128.49	0.0062166
1138.13	0.0072566
1147.78	0.0059866
1157.42	0.0024666
1167.07	0.0019766
1176.71	0.0025566
1186.36	0.0047466
1196	0.0031866
1205.64	0.0044966
1215.29	0.0034666
1224.93	0.0041766
1234.58	0.0049166
1244.22	0.0045466
1253.87	0.0061666
1263.51	0.0079066
1273.16	0.0082366
1282.8	0.0074366
1292.45	0.0140666
1302.09	0.0225066
1311.74	0.0118266
1321.38	0.0091066
1331.03	0.0122766
1340.67	0.0136366
1350.32	0.0135666
1359.96	0.0144366
1369.61	0.0192366
1379.25	0.0186966
1388.9	0.0231666
1398.54	0.0199566
1408.18	0.0150666
1417.83	0.0104166
1427.47	0.0087966
1437.12	0.0093866
1446.76	0.0132766
1456.41	0.0200666
1466.05	0.0252166
1475.7	0.0272266
1485.34	0.0507266
1494.99	0.0852466
1504.63	0.0508466
1514.28	0.0206766
1523.92	0.0082166
1533.57	0.0042966
1543.21	0.0030566
1552.86	0.0030066
1562.5	0.0027466
1572.15	0.0023466
1581.79	0.0018266
1591.44	0.0014766
1601.08	0.0013766
1610.73	0.0014966
1620.37	0.0015566
1630.01	0.0022766
1639.66	0.0036366
1649.3	0.0046766
1658.95	0.0039066
1668.59	0.0037966
1678.24	0.0032966
1687.88	0.0020366
1697.53	0.0014566
1707.17	0.0012966
1716.82	0.0010866
1726.46	0.0008958
1736.11	0.0009108
1745.75	0.0012066
1755.4	0.0017766
1765.04	0.0029266
1774.69	0.0046466
1784.33	0.0058866
1793.98	0.0018366
1803.62	0.0009426
1813.27	0.0008922
1822.91	0.000839
1832.55	0.0008516
1842.2	0.0009914
1851.84	0.0010666
1861.49	0.0011266
1871.13	0.0015066
1880.78	0.0029866
1890.42	0.0054966
1900.07	0.0065166
1909.71	0.0041066
1919.36	0.0019366
1929	0.0012166
1938.65	0.0009409
1948.29	0.000784
1957.94	0.0006274
1967.58	0.000646
1977.23	0.0004906
1986.87	0.0004625
1996.52	0.0004449
2006.16	0.0004289
2015.81	0.0004725
2025.45	0.0003999
2035.1	0.0003747
2044.74	0.0002787
2054.38	0.0002629
2064.03	0.000313
2073.67	0.0002877
2083.32	0.0003629
2092.96	0.0003188
2102.61	0.000275
2112.25	0.0003515
2121.9	0.0004005
2131.54	0.0002638
2141.19	0.0003117
2150.83	0.0002853
2160.48	0.0002351
2170.12	0.0001803
2179.77	0.0002679
2189.41	0.0002793
2199.06	0.000276
2208.7	0.000414
2218.35	0.0004513
2227.99	0.0005431
2237.64	0.0006453
2247.28	0.0008452
2256.92	0.0008817
2266.57	0.0009836
2276.21	0.0010055
2285.86	0.0008405
2295.5	0.0007998
2305.15	0.0009786
2314.79	0.0008334
2324.44	0.0007398
2334.08	0.0007042
2343.73	0.0007161
2353.37	0.0008158
2363.02	0.0007681
2372.66	0.0009039
2382.31	0.000843
2391.95	0.000787
2401.6	0.0007485
2411.24	0.0006256
2420.89	0.0006478
2430.53	0.000588
2440.18	0.0007196
2449.82	0.000877
2459.47	0.0009466
2469.11	0.0011366
2478.75	0.0008679
2488.4	0.000917
2498.04	0.0008128
2507.69	0.0007198
2517.33	0.0007334
2526.98	0.0007249
2536.62	0.0009053
2546.27	0.0009418
2555.91	0.0009629
2565.56	0.0012066
2575.2	0.0016966
2584.85	0.0021866
2594.49	0.0024566
2604.14	0.0022666
2613.78	0.0019666
2623.43	0.0013766
2633.07	0.0013166
2642.72	0.0010182
2652.36	0.0012166
2662.01	0.0015066
2671.65	0.0014866
2681.29	0.0016666
2690.94	0.0015866
2700.58	0.0016566
2710.23	0.0020066
2719.87	0.0028766
2729.52	0.0031366
2739.16	0.0027866
2748.81	0.0027866
2758.45	0.0031266
2768.1	0.0032266
2777.74	0.0028766
2787.39	0.0028766
2797.03	0.0035366
2806.68	0.0043066
2816.32	0.0055866
2825.97	0.0059766
2835.61	0.0068566
2845.26	0.0097566
2854.9	0.0157466
2864.55	0.0269266
2874.19	0.0521166
2883.84	0.0717766
2893.48	0.0598466
2903.12	0.0625666
2912.77	0.0644266
2922.41	0.0632166
2932.06	0.0763866
2941.7	0.0966366
2951.35	0.0903866
2960.99	0.193497
2970.64	0.290337
2980.28	0.111677
2989.93	0.0487366
2999.57	0.0348666
3009.22	0.0317766
3018.86	0.0441766
3028.51	0.0738566
3038.15	0.0354866
3047.8	0.0287866
3057.44	0.0304666
3067.09	0.0288966
3076.73	0.0270366
3086.38	0.0230566
3096.02	0.0164466
3105.67	0.0113366
3115.31	0.0084566
3124.95	0.0066566
3134.6	0.0059666
3144.24	0.0048066
3153.89	0.0037166
3163.53	0.0033366
3173.18	0.0031666
3182.82	0.0033166
3192.47	0.0031366
3202.11	0.0028566
3211.76	0.0024566
3221.4	0.0020866
3231.05	0.0018866
3240.69	0.0012866
3250.34	0.000955
3259.98	0.0009361
3269.63	0.0006309
3279.27	0.0005803
3288.92	0.0005904
3298.56	0.0006132
3308.21	0.0004426
3317.85	0.000576
3327.49	0.0006278
3337.14	0.0006146
3346.78	0.000661
3356.43	0.0005159
3366.07	0.0004242
3375.72	0.0006485
3385.36	0.0006632
3395.01	0.0006372
3404.65	0.0008227
3414.3	0.0005428
3423.94	0.0006025
3433.59	0.0006006
3443.23	0.0006059
3452.88	0.0004936
3462.52	0.0003241
3472.17	0.0002057
3481.81	0.0003191
3491.46	0.0003333
3501.1	0.0002812
3510.75	0.0003861
3520.39	0.0004397
3530.04	0.00039
3539.68	0.0004525
3549.32	0.0003018
3558.97	0.0002209
3568.61	0.00015324
3578.26	0.0001931
3587.9	8.918e-05
3597.55	0.0002562
3607.19	0.000219
3616.84	0.000213
3626.48	0.0002647
3636.13	0.0004545
3645.77	0.0003101
3655.42	0.0004804
3665.06	0.0005309
3674.71	0.0005074
3684.35	0.0006756
3694	0.000362
3703.64	0.000522
3713.29	0.0005705
3722.93	0.0002495
3732.58	0.0002436
3742.22	0.00015557
3751.86	0.0004767
3761.51	0.0002805
3771.15	0.0004206
3780.8	0.0003585
3790.44	0.0004975
3800.09	0.0007126
3809.73	0.0005198
3819.38	0.0007212
3829.02	0.0007891
3838.67	0.0005295
3848.31	0.0007288
3857.96	0.0007267
3867.6	0.0008851
3877.25	0.0005779
3886.89	0.0006532
3896.54	0.0006791
3906.18	0.000491
3915.83	0.0005181
3925.47	0.0006384
3935.12	0.0005088
3944.76	0.0005065
3954.41	0.0006159
3964.05	0.0008485
3973.69	0.0006578
3983.34	0.0009236
3992.98	0.0008714
