Infrared Spectrum: 3,4-Dichloro-.omega.-nitrostyrene
Formula: C 8 H 5 Cl 2 N O 2
CAS: 18984-16-2
State: gas
Origin: EPA-IR VAPOR PHASE LIBRARY
1/CM	ABSORBANCE
549.8	0.00412
559.445	0.00546
569.09	0.00615
578.734	0.00564
588.379	0.00311
598.024	0.00304
607.669	0.001571
617.313	0.0013351
626.958	0.0018537
636.603	0.0013689
646.248	0.00077
655.893	0.00208
665.537	0.00276
675.182	0.0057
684.827	0.02189
694.472	0.03295
704.116	0.0103
713.761	0.0048
723.406	0.00433
733.051	0.00573
742.695	0.00527
752.34	0.00598
761.985	0.01234
771.63	0.01695
781.275	0.01104
790.919	0.00909
800.564	0.01257
810.209	0.02949
819.854	0.03212
829.498	0.01515
839.143	0.01174
848.788	0.00972
858.433	0.00769
868.078	0.00792
877.722	0.00925
887.367	0.00964
897.012	0.01102
906.657	0.01371
916.301	0.01748
925.946	0.0179
935.591	0.02025
945.236	0.03173
954.88	0.04622
964.525	0.05383
974.17	0.02906
983.815	0.00896
993.46	0.00557
1003.1	0.00501
1012.75	0.00549
1022.39	0.01416
1032.04	0.04027
1041.68	0.02595
1051.33	0.0073
1060.97	0.00423
1070.62	0.00411
1080.26	0.00209
1089.91	0.00319
1099.55	0.00314
1109.2	0.00507
1118.84	0.01443
1128.49	0.04236
1138.13	0.03582
1147.78	0.02338
1157.42	0.01642
1167.07	0.00826
1176.71	0.00916
1186.36	0.02575
1196	0.0339
1205.64	0.01274
1215.29	0.00816
1224.93	0.00996
1234.58	0.01527
1244.22	0.02197
1253.87	0.01351
1263.51	0.01603
1273.16	0.01947
1282.8	0.01085
1292.45	0.00799
1302.09	0.00853
1311.74	0.01251
1321.38	0.02516
1331.03	0.05809
1340.67	0.16019
1350.32	0.18659
1359.96	0.0605
1369.61	0.04177
1379.25	0.03637
1388.9	0.03303
1398.54	0.02566
1408.18	0.01336
1417.83	0.00914
1427.47	0.00889
1437.12	0.01047
1446.76	0.01404
1456.41	0.02475
1466.05	0.05401
1475.7	0.0784
1485.34	0.0268
1494.99	0.0191
1504.63	0.02386
1514.28	0.03603
1523.92	0.05059
1533.57	0.08
1543.21	0.14307
1552.86	0.14871
1562.5	0.08604
1572.15	0.05474
1581.79	0.03556
1591.44	0.02448
1601.08	0.01492
1610.73	0.01066
1620.37	0.01107
1630.01	0.01473
1639.66	0.02854
1649.3	0.03176
1658.95	0.01211
1668.59	0.0064
1678.24	0.00432
1687.88	0.00361
1697.53	0.00295
1707.17	0.00257
1716.82	0.00274
1726.46	0.00288
1736.11	0.00286
1745.75	0.00285
1755.4	0.00369
1765.04	0.00352
1774.69	0.00289
1784.33	0.00268
1793.98	0.00271
1803.62	0.00246
1813.27	0.00211
1822.91	0.0019061
1832.55	0.00195
1842.2	0.0016626
1851.84	0.0016741
1861.49	0.0015348
1871.13	0.0018524
1880.78	0.00231
1890.42	0.00326
1900.07	0.00302
1909.71	0.00237
1919.36	0.0024
1929	0.00227
1938.65	0.0015733
1948.29	0.0014718
1957.94	0.0011075
1967.58	0.0010899
1977.23	0.000944051
1986.87	0.00093196
1996.52	0.0011039
2006.16	0.000831
2015.81	0.0010469
2025.45	0.0008998
2035.1	0.0010707
2044.74	0.0011689
2054.38	0.0008952
2064.03	0.00097315
2073.67	0.00097329
2083.32	0.0011048
2092.96	0.0011151
2102.61	0.000629
2112.25	0.00102299
2121.9	0.0011246
2131.54	0.00098684
2141.19	0.0011894
2150.83	0.0012036
2160.48	0.0008432
2170.12	0.0008588
2179.77	0.0008692
2189.41	0.0008547
2199.06	0.000635
2208.7	0.00097015
2218.35	0.00102136
2227.99	0.0010484
2237.64	0.0011151
2247.28	0.0009213
2256.92	0.0011044
2266.57	0.00095417
2276.21	0.0012384
2285.86	0.0012031
2295.5	0.0016097
2305.15	0.0015591
2314.79	0.0014431
2324.44	0.0012066
2334.08	0.0012321
2343.73	0.0011127
2353.37	0.000819
2363.02	0.0012303
2372.66	0.000911
2382.31	0.0010967
2391.95	0.0012294
2401.6	0.0011437
2411.24	0.0011433
2420.89	0.0010515
2430.53	0.0008479
2440.18	0.0012279
2449.82	0.0012657
2459.47	0.0010873
2469.11	0.0011125
2478.75	0.00133
2488.4	0.0015056
2498.04	0.0015676
2507.69	0.0015911
2517.33	0.0017085
2526.98	0.0017852
2536.62	0.00194
2546.27	0.0014207
2555.91	0.0014588
2565.56	0.0013423
2575.2	0.0011321
2584.85	0.0015715
2594.49	0.0017174
2604.14	0.0016843
2613.78	0.001477
2623.43	0.0015771
2633.07	0.000818
2642.72	0.0008989
2652.36	0.000835
2662.01	0.0012875
2671.65	0.0012699
2681.29	0.001675
2690.94	0.0019294
2700.58	0.0013529
2710.23	0.0014817
2719.87	0.000713
2729.52	0.0011791
2739.16	0.000577
2748.81	0.0008457
2758.45	0.0008889
2768.1	0.0011596
2777.74	0.0013802
2787.39	0.001277
2797.03	0.0008864
2806.68	0.0014223
2816.32	0.00097852
2825.97	0.0011491
2835.61	0.0016734
2845.26	0.00235
2854.9	0.00273
2864.55	0.00312
2874.19	0.00381
2883.84	0.00354
2893.48	0.00348
2903.12	0.00342
2912.77	0.00261
2922.41	0.00268
2932.06	0.00227
2941.7	0.0010557
2951.35	0.0011849
2960.99	0.0015819
2970.64	0.0012369
2980.28	0.0017486
2989.93	0.00231
2999.57	0.00206
3009.22	0.0016492
3018.86	0.0018073
3028.51	0.0018875
3038.15	0.00204
3047.8	0.0024
3057.44	0.00306
3067.09	0.00419
3076.73	0.00284
3086.38	0.00238
3096.02	0.00331
3105.67	0.00553
3115.31	0.00885
3124.95	0.00296
3134.6	0.0016562
3144.24	0.001393
3153.89	0.0012126
3163.53	0.000636
3173.18	0.000495
3182.82	0.001076
3192.47	0.0010504
3202.11	0.0008948
3211.76	0.000428
3221.4	0.000688
3231.05	0.000332
3240.69	0.000452
3250.34	0.0016178
3259.98	0.0008578
3269.63	0.00093366
3279.27	0.0012721
3288.92	0.000506
3298.56	0.000833
3308.21	0.0009891
3317.85	0.000567
3327.49	0.000439
3337.14	0.000373
3346.78	0.000816
3356.43	0.000342
3366.07	0.000581
3375.72	0.000833
3385.36	0.0009256
3395.01	0.000303
3404.65	0.000781
3414.3	0.000312
3423.94	0.0008807
3433.59	0.00102117
3443.23	0.000855
3452.88	0.0013191
3462.52	0.00101486
3472.17	0.0011845
3481.81	0.00097052
3491.46	0.000577
3501.1	0.0013918
3510.75	0.000693
3520.39	0.00100889
3530.04	0.000615
3539.68	0.0009283
3549.32	0.000751
3558.97	0.00055
3568.61	0.000799
3578.26	0.000794
3587.9	0.0012923
3597.55	0.000846
3607.19	0.0015849
3616.84	0.0012381
3626.48	0.00084
3636.13	0.00051
3645.77	0.0009283
3655.42	0.0008752
3665.06	0.000495
3674.71	0.0010957
3684.35	0.0015205
3694	0.00100081
3703.64	0.0013835
3713.29	0.0013194
3722.93	0.00102764
3732.58	0.000894
3742.22	0.00097522
3751.86	0.0011313
3761.51	0.0012614
3771.15	0.0011127
3780.8	0.00097422
3790.44	0.0008474
3800.09	0.00101077
3809.73	0.000685
3819.38	0.0014324
3829.02	0.0012728
3838.67	0.0009182
3848.31	0.000888
3857.96	0.000567
3867.6	0.0013384
3877.25	0.0008646
3886.89	0.0013871
3896.54	0.0011087
3906.18	0.001161
3915.83	0.0010839
3925.47	0.0011309
3935.12	0.000802
3944.76	0.0012811
3954.41	0.0010589
3964.05	0.00101554
3973.69	0.000726
3983.34	0.0009524
3992.98	0.000966
