Infrared Spectrum: 2-PROPANOL, 1,1,3,3-TETRACHLORO-
Formula: C3 H4 Cl4 O
CAS: 18992-39-7
State: LIQUID (NEAT)
Class: COBLENTZ III
Instrument: BAIRD (GRATING)
Instrument parameters: NaCl PRISM
Sampling: TRANSMISSION
Path length: 0.0028 CM
Resolution: 2
Origin: WYANDOTTE CHEMICALS CORP.
1/CM	TRANSMITTANCE
4000	0.9402
3991	0.9368
3982	0.9335
3973	0.932
3964	0.9306
3955	0.9291
3946	0.928
3937	0.927
3928	0.9268
3919	0.9275
3910	0.9289
3901	0.9304
3892	0.9317
3883	0.932
3874	0.9324
3865	0.932
3856	0.9313
3847	0.9308
3838	0.9302
3829	0.9298
3820	0.9294
3811	0.9291
3802	0.9288
3793	0.9284
3784	0.9278
3775	0.9271
3766	0.9262
3757	0.9243
3748	0.9214
3739	0.9177
3730	0.9127
3721	0.9021
3712	0.8855
3703	0.8617
3694	0.798
3685	0.7743
3676	0.7564
3667	0.7296
3658	0.6781
3649	0.6239
3640	0.5694
3631	0.5147
3622	0.4597
3613	0.4044
3604	0.3488
3595	0.293
3586	0.2432
3577	0.2314
3568	0.2234
3559	0.2185
3550	0.2163
3541	0.2151
3532	0.2134
3523	0.211
3514	0.2044
3505	0.1879
3496	0.1793
3487	0.1763
3478	0.1739
3469	0.1716
3460	0.1694
3451	0.1672
3442	0.1653
3433	0.1648
3424	0.1653
3415	0.1667
3406	0.17
3397	0.1786
3388	0.1893
3379	0.1992
3370	0.2115
3361	0.2281
3352	0.2665
3343	0.2973
3334	0.3464
3325	0.3798
3316	0.426
3307	0.4729
3298	0.5202
3289	0.5676
3280	0.6145
3271	0.6442
3262	0.6728
3253	0.704
3244	0.7253
3235	0.7421
3226	0.7553
3217	0.7728
3208	0.7922
3199	0.8078
3190	0.82
3181	0.8317
3172	0.8431
3163	0.8528
3154	0.8599
3145	0.8638
3136	0.8661
3127	0.8668
3118	0.8671
3109	0.8661
3100	0.8635
3091	0.8582
3082	0.8468
3073	0.8278
3064	0.7254
3055	0.6398
3046	0.5528
3037	0.5668
3028	0.6375
3019	0.7085
3010	0.7801
3001	0.8221
2992	0.8196
2983	0.8115
2974	0.794
2965	0.7791
2956	0.7676
2947	0.7611
2938	0.7603
2929	0.7699
2920	0.7956
2911	0.8101
2902	0.8244
2893	0.8384
2884	0.8501
2875	0.8593
2866	0.8684
2857	0.8747
2848	0.8799
2839	0.8851
2830	0.8887
2821	0.8921
2812	0.8957
2803	0.8991
2794	0.9017
2785	0.9043
2776	0.9062
2767	0.9075
2758	0.9081
2749	0.9082
2740	0.9066
2731	0.9049
2722	0.9033
2713	0.9018
2704	0.9025
2695	0.9034
2686	0.9047
2677	0.9071
2668	0.9096
2659	0.9111
2650	0.9089
2641	0.9066
2632	0.9068
2623	0.9073
2614	0.91
2605	0.9093
2596	0.9082
2587	0.9077
2578	0.9086
2569	0.9103
2560	0.9098
2551	0.9085
2542	0.9068
2533	0.9051
2524	0.9032
2515	0.9015
2506	0.9005
2497	0.8993
2488	0.8982
2479	0.8971
2470	0.8964
2461	0.8958
2452	0.8952
2443	0.8946
2434	0.8948
2425	0.8954
2416	0.8962
2407	0.8995
2398	0.9041
2389	0.9095
2380	0.9152
2371	0.9193
2362	0.9223
2353	0.9621
2344	0.9673
2335	0.9557
2326	0.9451
2317	0.9404
2308	0.9384
2299	0.9377
2290	0.9439
2281	0.9437
2272	0.942
2263	0.944
2254	0.9489
2245	0.955
2236	0.9608
2227	0.9618
2218	0.9625
2209	0.9623
2200	0.9601
2191	0.9573
2182	0.9548
2173	0.9524
2164	0.953
2155	0.9575
2146	0.9613
2137	0.9591
2128	0.9595
2119	0.9621
2110	0.965
2101	0.9675
2092	0.9702
2083	0.9725
2074	0.9728
2065	0.9705
2056	0.968
2047	0.9645
2038	0.9617
2029	0.96
2020	0.9596
2011	0.9627
2002	0.9645
1993	0.9651
1984	0.9654
1975	0.966
1966	0.9671
1957	0.968
1948	0.9685
1939	0.9688
1930	0.9688
1921	0.9682
1912	0.9675
1903	0.966
1894	0.9624
1885	0.9592
1876	0.9578
1867	0.9599
1858	0.9614
1849	0.9618
1840	0.9612
1831	0.96
1822	0.9601
1813	0.9597
1804	0.9598
1795	0.9614
1786	0.965
1777	0.9649
1768	0.9621
1759	0.9513
1750	0.9396
1741	0.9266
1732	0.9159
1723	0.9082
1714	0.9066
1705	0.9109
1696	0.9158
1687	0.918
1678	0.9108
1669	0.9027
1660	0.896
1651	0.89
1642	0.8866
1633	0.897
1624	0.8751
1615	0.8997
1606	0.9106
1597	0.9128
1588	0.9132
1579	0.9121
1570	0.8933
1561	0.8915
1552	0.8801
1543	0.8751
1534	0.8815
1525	0.8894
1516	0.8818
1507	0.876
1498	0.8693
1489	0.8585
1480	0.8157
1471	0.7874
1462	0.7467
1453	0.6898
1444	0.6408
1435	0.6118
1426	0.5599
1417	0.4889
1408	0.439
1399	0.3944
1390	0.4049
1381	0.5338
1372	0.678
1363	0.7265
1354	0.6796
1345	0.5901
1336	0.5783
1327	0.5976
1318	0.5488
1309	0.4475
1300	0.3494
1291	0.2832
1282	0.3165
1273	0.4288
1264	0.4191
1255	0.344
1246	0.2528
1237	0.1629
1228	0.1073
1219	0.1585
1210	0.3183
1201	0.32
1192	0.4193
1183	0.5674
1174	0.6078
1165	0.6238
1156	0.6242
1147	0.6166
1138	0.6129
1129	0.5212
1120	0.2451
1111	0.0722
1102	0.0801
1093	0.2651
1084	0.487
1075	0.5812
1066	0.5241
1057	0.3334
1048	0.3138
1039	0.4944
1030	0.6486
1021	0.7454
1012	0.7821
1003	0.7865
994	0.7751
985	0.7815
976	0.7878
967	0.7925
958	0.7721
949	0.5549
940	0.237
931	0.3
922	0.5483
913	0.6649
904	0.7026
895	0.7387
886	0.7488
877	0.7401
868	0.6908
859	0.7034
850	0.6636
841	0.485
832	0.1225
823	0.1052
814	0.1946
805	0.2642
796	0.1411
787	0.0744
778	0.0962
769	0.2613
760	0.3997
751	0.4696
742	0.2838
733	0.1314
724	0.18
715	0.121
706	0.1246
697	0.3223
688	0.5209
679	0.5512
670	0.5523
661	0.5162
652	0.5579
643	0.4752
634	0.4412
