Infrared Spectrum: BENZO(a)CORONENE
Formula: C28 H14
CAS: 190-70-5
State: SOLID (KBr PELLET)
Melting point: 282-294.5 C
Class: COBLENTZ
Instrument: Not specified, most likely a prism, grating, or hybrid spectrometer.
Sampling: TRANSMISSION
Resolution: 4
Origin: UNION CARBIDE CORPORATION (CARBON PRODUCTS DIVISION)
MICROMETERS	TRANSMITTANCE
2.053	0.142
2.08621	0.141
2.11943	0.141
2.15264	0.141
2.18586	0.142
2.21907	0.146
2.25229	0.149
2.2855	0.15
2.31871	0.152
2.35193	0.162
2.38514	0.169
2.41836	0.17
2.45157	0.174
2.48479	0.18
2.518	0.184
2.55121	0.186
2.58443	0.196
2.61764	0.196
2.65086	0.197
2.68407	0.197
2.71729	0.198
2.7505	0.202
2.78371	0.204
2.81693	0.212
2.85014	0.218
2.88336	0.228
2.91657	0.234
2.94979	0.236
2.983	0.237
3.01621	0.242
3.04943	0.25
3.08264	0.262
3.11586	0.268
3.14907	0.272
3.18229	0.277
3.2155	0.28
3.24871	0.281
3.28193	0.282
3.31514	0.28
3.34836	0.281
3.38157	0.281
3.41479	0.282
3.448	0.289
3.48121	0.293
3.51443	0.301
3.54764	0.309
3.58086	0.314
3.61407	0.321
3.64729	0.322
3.6805	0.326
3.71371	0.329
3.74693	0.332
3.78014	0.338
3.81336	0.342
3.84657	0.346
3.87979	0.357
3.913	0.365
3.94621	0.365
3.97943	0.366
4.01264	0.368
4.04586	0.372
4.07907	0.38
4.11229	0.384
4.1455	0.39
4.17871	0.393
4.21193	0.397
4.24514	0.397
4.27836	0.397
4.31157	0.398
4.34479	0.402
4.378	0.417
4.41121	0.422
4.44443	0.425
4.47764	0.428
4.51086	0.432
4.54407	0.442
4.57729	0.442
4.6105	0.442
4.64371	0.446
4.67693	0.452
4.71014	0.452
4.74336	0.457
4.77657	0.461
4.80979	0.461
4.843	0.466
4.87621	0.47
4.90943	0.474
4.94264	0.48
4.97586	0.481
5.00907	0.482
5.04229	0.486
5.0755	0.5
5.10871	0.5
5.14193	0.501
5.17514	0.502
5.20836	0.501
5.24157	0.5
5.27479	0.5
5.308	0.498
5.34121	0.501
5.37443	0.512
5.40764	0.518
5.44086	0.521
5.47407	0.522
5.50729	0.529
5.5405	0.53
5.57371	0.529
5.60693	0.53
5.64014	0.53
5.67336	0.533
5.70657	0.537
5.73979	0.549
5.773	0.556
5.80621	0.556
5.83943	0.553
5.87264	0.552
5.90586	0.556
5.93907	0.562
5.97229	0.566
6.0055	0.569
6.03871	0.562
6.07193	0.577
6.10514	0.577
6.13836	0.577
6.17157	0.552
6.20479	0.513
6.238	0.54
6.27121	0.562
6.30443	0.57
6.33764	0.574
6.37086	0.585
6.40407	0.584
6.43729	0.589
6.4705	0.593
6.50371	0.596
6.53693	0.6
6.57014	0.6
6.60336	0.601
6.63657	0.602
6.66979	0.609
6.703	0.614
6.73621	0.598
6.76943	0.517
6.80264	0.58
6.83586	0.604
6.86907	0.61
6.90229	0.596
6.9355	0.594
6.96871	0.62
7.00193	0.622
7.03514	0.622
7.06836	0.624
7.10157	0.632
7.13479	0.644
7.168	0.66
7.20121	0.676
7.23443	0.698
7.26764	0.686
7.30086	0.68
7.33407	0.68
7.36729	0.681
7.4005	0.682
7.43371	0.692
7.46693	0.601
7.50014	0.597
7.53336	0.605
7.56657	0.646
7.59979	0.656
7.633	0.653
7.66621	0.598
7.69943	0.633
7.73264	0.653
7.76586	0.669
7.79907	0.678
7.83229	0.682
7.8655	0.686
7.89871	0.686
7.93193	0.602
7.96514	0.496
7.99836	0.616
8.03157	0.65
8.06479	0.64
8.098	0.65
8.13121	0.669
8.16443	0.674
8.19764	0.676
8.23086	0.665
8.26407	0.68
8.29729	0.682
8.3305	0.692
8.36371	0.693
8.39693	0.692
8.43014	0.693
8.46336	0.7
8.49657	0.697
8.52979	0.701
8.563	0.704
8.59621	0.709
8.62943	0.708
8.66264	0.684
8.69586	0.692
8.72907	0.636
8.76229	0.634
8.7955	0.664
8.82871	0.692
8.86193	0.713
8.89514	0.72
8.92836	0.721
8.96157	0.724
8.99479	0.722
9.028	0.722
9.06121	0.726
9.09443	0.733
9.12764	0.732
9.16086	0.734
9.19407	0.738
9.22729	0.742
9.2605	0.745
9.29371	0.745
9.32693	0.745
9.36014	0.749
9.39336	0.75
9.42657	0.754
9.45979	0.754
9.493	0.761
9.52621	0.761
9.55943	0.758
9.59264	0.728
9.62586	0.742
9.65907	0.753
9.69229	0.761
9.7255	0.762
9.75871	0.764
9.79193	0.769
9.82514	0.772
9.85836	0.776
9.89157	0.777
9.92479	0.78
9.958	0.78
9.99121	0.782
10.0244	0.786
10.0576	0.788
10.0909	0.786
10.1241	0.788
10.1573	0.788
10.1905	0.789
10.2237	0.789
10.2569	0.785
10.2901	0.786
10.3234	0.788
10.3566	0.774
10.3898	0.772
10.423	0.773
10.4562	0.773
10.4894	0.757
10.5226	0.75
10.5559	0.75
10.5891	0.76
10.6223	0.766
10.6555	0.765
10.6887	0.773
10.7219	0.788
10.7551	0.79
10.7884	0.797
10.8216	0.801
10.8548	0.802
10.888	0.808
10.9212	0.813
10.9544	0.816
10.9876	0.816
11.0209	0.82
11.0541	0.821
11.0873	0.824
11.1205	0.825
11.1537	0.824
11.1869	0.828
11.2201	0.829
11.2534	0.83
11.2866	0.832
11.3198	0.832
11.353	0.832
11.3862	0.833
11.4194	0.833
11.4526	0.837
11.4859	0.849
11.5191	0.858
11.5523	0.856
11.5855	0.784
11.6187	0.753
11.6519	0.8
11.6851	0.769
11.7184	0.532
11.7516	0.261
11.7848	0.101
11.818	0.14
11.8512	0.274
11.8844	0.44
11.9176	0.538
11.9509	0.561
11.9841	0.62
12.0173	0.672
12.0505	0.696
12.0837	0.702
12.1169	0.71
12.1501	0.592
12.1834	0.418
12.2166	0.5
12.2498	0.593
12.283	0.648
12.3162	0.676
12.3494	0.693
12.3826	0.73
12.4159	0.748
12.4491	0.754
12.4823	0.765
12.5155	0.769
12.5487	0.766
12.5819	0.772
12.6151	0.776
12.6484	0.78
12.6816	0.79
12.7148	0.793
12.748	0.802
12.7812	0.802
12.8144	0.809
12.8476	0.812
12.8809	0.8
12.9141	0.757
12.9473	0.769
12.9805	0.778
13.0137	0.673
13.0469	0.68
13.0801	0.733
13.1134	0.746
13.1466	0.734
13.1798	0.708
13.213	0.692
13.2462	0.664
13.2794	0.508
13.3126	0.358
13.3459	0.276
13.3791	0.19
13.4123	0.25
13.4455	0.368
13.4787	0.48
13.5119	0.565
13.5451	0.618
13.5784	0.63
13.6116	0.649
13.6448	0.682
13.678	0.694
13.7112	0.692
13.7444	0.693
13.7776	0.706
13.8109	0.722
13.8441	0.726
13.8773	0.73
13.9105	0.734
13.9437	0.737
13.9769	0.74
14.0101	0.748
14.0434	0.748
14.0766	0.748
14.1098	0.748
14.143	0.748
14.1762	0.749
14.2094	0.748
14.2426	0.748
14.2759	0.748
14.3091	0.748
14.3423	0.746
14.3755	0.745
14.4087	0.745
14.4419	0.744
14.4751	0.741
14.5084	0.74
14.5416	0.738
14.5748	0.736
14.608	0.733
14.6412	0.733
14.6744	0.73
14.7076	0.724
14.7409	0.714
14.7741	0.709
14.8073	0.713
14.8405	0.712
14.8737	0.712
14.9069	0.71
14.9401	0.704
14.9734	0.649
15.0066	0.505
15.0398	0.492
15.073	0.493
