Infrared Spectrum: Undecyl isothiocyanate
Formula: C 12 H 23 N S
CAS: 19010-96-9
State: gas
Origin: EPA-IR VAPOR PHASE LIBRARY
1/CM	ABSORBANCE
549.8	0.008402
559.445	0.007902
569.09	0.006982
578.734	0.005642
588.379	0.004802
598.024	0.003752
607.669	0.002982
617.313	0.002822
626.958	0.001932
636.603	0.002182
646.248	0.002542
655.893	0.002912
665.537	0.003172
675.182	0.002892
684.827	0.003132
694.472	0.004622
704.116	0.006572
713.761	0.007562
723.406	0.007222
733.051	0.006172
742.695	0.005262
752.34	0.004202
761.985	0.003922
771.63	0.003472
781.275	0.002792
790.919	0.002452
800.564	0.002402
810.209	0.002252
819.854	0.002042
829.498	0.002092
839.143	0.001742
848.788	0.001742
858.433	0.002052
868.078	0.001752
877.722	0.001822
887.367	0.002112
897.012	0.002092
906.657	0.002422
916.301	0.002792
925.946	0.002972
935.591	0.002802
945.236	0.003062
954.88	0.002992
964.525	0.002472
974.17	0.002412
983.815	0.002542
993.46	0.002582
1003.1	0.002642
1012.75	0.002802
1022.39	0.002922
1032.04	0.002752
1041.68	0.002792
1051.33	0.003122
1060.97	0.003902
1070.62	0.003702
1080.26	0.003322
1089.91	0.002992
1099.55	0.003102
1109.2	0.003192
1118.84	0.003762
1128.49	0.003192
1138.13	0.003032
1147.78	0.003282
1157.42	0.002552
1167.07	0.002742
1176.71	0.002992
1186.36	0.002882
1196	0.002972
1205.64	0.002742
1215.29	0.003372
1224.93	0.003892
1234.58	0.004382
1244.22	0.004682
1253.87	0.005242
1263.51	0.005832
1273.16	0.006642
1282.8	0.007892
1292.45	0.009792
1302.09	0.012872
1311.74	0.015492
1321.38	0.017932
1331.03	0.025282
1340.67	0.041932
1350.32	0.051802
1359.96	0.038352
1369.61	0.025832
1379.25	0.015422
1388.9	0.009632
1398.54	0.006312
1408.18	0.005292
1417.83	0.005492
1427.47	0.007112
1437.12	0.012082
1446.76	0.022842
1456.41	0.038372
1466.05	0.038232
1475.7	0.018122
1485.34	0.008072
1494.99	0.004732
1504.63	0.003252
1514.28	0.002492
1523.92	0.002062
1533.57	0.001782
1543.21	0.001522
1552.86	0.001362
1562.5	0.0011875
1572.15	0.0011208
1581.79	0.0012047
1591.44	0.0010622
1601.08	0.0009529
1610.73	0.0009689
1620.37	0.0009783
1630.01	0.0009512
1639.66	0.0009531
1649.3	0.0009542
1658.95	0.0007993
1668.59	0.000814
1678.24	0.0007359
1687.88	0.0007733
1697.53	0.0008071
1707.17	0.000801
1716.82	0.0007934
1726.46	0.0008199
1736.11	0.0008592
1745.75	0.0007694
1755.4	0.0007982
1765.04	0.0008738
1774.69	0.0009569
1784.33	0.0008285
1793.98	0.0008991
1803.62	0.001008
1813.27	0.0009974
1822.91	0.0011087
1832.55	0.001232
1842.2	0.001492
1851.84	0.001812
1861.49	0.002162
1871.13	0.002622
1880.78	0.003282
1890.42	0.004092
1900.07	0.005132
1909.71	0.006462
1919.36	0.008152
1929	0.010112
1938.65	0.012752
1948.29	0.016002
1957.94	0.020442
1967.58	0.026502
1977.23	0.034742
1986.87	0.046412
1996.52	0.062642
2006.16	0.084922
2015.81	0.115142
2025.45	0.155692
2035.1	0.207332
2044.74	0.264002
2054.38	0.306522
2064.03	0.312562
2073.67	0.278112
2083.32	0.220772
2092.96	0.165922
2102.61	0.126312
2112.25	0.100142
2121.9	0.082712
2131.54	0.070612
2141.19	0.061822
2150.83	0.055472
2160.48	0.050932
2170.12	0.048022
2179.77	0.046152
2189.41	0.044322
2199.06	0.040612
2208.7	0.034352
2218.35	0.027282
2227.99	0.021012
2237.64	0.015932
2247.28	0.012092
2256.92	0.009452
2266.57	0.007552
2276.21	0.006122
2285.86	0.005182
2295.5	0.004262
2305.15	0.003702
2314.79	0.003102
2324.44	0.002652
2334.08	0.002292
2343.73	0.002072
2353.37	0.001872
2363.02	0.001772
2372.66	0.001632
2382.31	0.001542
2391.95	0.001432
2401.6	0.001352
2411.24	0.001372
2420.89	0.0012505
2430.53	0.001332
2440.18	0.0011667
2449.82	0.0012176
2459.47	0.0012364
2469.11	0.001352
2478.75	0.001322
2488.4	0.0012991
2498.04	0.001472
2507.69	0.001482
2517.33	0.001702
2526.98	0.001782
2536.62	0.001962
2546.27	0.002062
2555.91	0.002082
2565.56	0.002302
2575.2	0.002442
2584.85	0.002672
2594.49	0.002532
2604.14	0.002502
2613.78	0.002472
2623.43	0.002512
2633.07	0.002592
2642.72	0.002722
2652.36	0.002972
2662.01	0.003402
2671.65	0.003892
2681.29	0.004552
2690.94	0.004802
2700.58	0.005142
2710.23	0.005522
2719.87	0.006302
2729.52	0.007052
2739.16	0.007402
2748.81	0.007172
2758.45	0.006692
2768.1	0.006442
2777.74	0.006532
2787.39	0.007022
2797.03	0.008112
2806.68	0.009312
2816.32	0.011152
2825.97	0.013922
2835.61	0.018742
2845.26	0.031082
2854.9	0.066252
2864.55	0.102162
2874.19	0.084772
2883.84	0.071522
2893.48	0.064082
2903.12	0.073262
2912.77	0.107392
2922.41	0.179942
2932.06	0.266102
2941.7	0.239402
2951.35	0.170592
2960.99	0.123462
2970.64	0.089302
2980.28	0.045892
2989.93	0.025332
2999.57	0.016462
3009.22	0.011962
3018.86	0.008982
3028.51	0.007332
3038.15	0.005792
3047.8	0.004882
3057.44	0.004022
3067.09	0.003622
3076.73	0.002902
3086.38	0.002642
3096.02	0.002612
3105.67	0.002122
3115.31	0.001962
3124.95	0.001932
3134.6	0.001772
3144.24	0.001832
3153.89	0.001402
3163.53	0.001462
3173.18	0.001332
3182.82	0.001134
3192.47	0.001034
3202.11	0.0011204
3211.76	0.0008087
3221.4	0.0007051
3231.05	0.0005592
3240.69	0.0006729
3250.34	0.0004918
3259.98	0.000432
3269.63	0.0004771
3279.27	0.0002835
3288.92	0.0004783
3298.56	0.000288
3308.21	0.00041105
3317.85	0.0005942
3327.49	0.00033123
3337.14	0.00041167
3346.78	0.000207
3356.43	0.0002486
3366.07	0.0002849
3375.72	0.0004582
3385.36	0.0002848
3395.01	0.0004203
3404.65	0.0004593
3414.3	0.0002828
3423.94	0.0004325
3433.59	0.0003756
3443.23	0.00030593
3452.88	0.00032355
3462.52	0.000137
3472.17	0.00032107
3481.81	0.0004351
3491.46	0.0002424
3501.1	0.00043
3510.75	0.00033675
3520.39	0.000178
3530.04	0.000320476
3539.68	0.00036348
3549.32	0.0002652
3558.97	0.0002586
3568.61	0.000145
3578.26	0.0004852
3587.9	0.0004455
3597.55	0.0004273
3607.19	0.0005336
3616.84	0.0004698
3626.48	0.0006479
3636.13	0.0007978
3645.77	0.0006465
3655.42	0.0007794
3665.06	0.0006432
3674.71	0.0005652
3684.35	0.0005235
3694	0.000681
3703.64	0.0006931
3713.29	0.0005042
3722.93	0.0007023
3732.58	0.0005051
3742.22	0.0004623
3751.86	0.0005837
3761.51	0.0008097
3771.15	0.0007469
3780.8	0.0005984
3790.44	0.0007222
3800.09	0.0007325
3809.73	0.0007542
3819.38	0.0008514
3829.02	0.0009076
3838.67	0.0008575
3848.31	0.0009421
3857.96	0.000862
3867.6	0.0007641
3877.25	0.0008456
3886.89	0.0009615
3896.54	0.0007398
3906.18	0.0008153
3915.83	0.0009125
3925.47	0.0011957
3935.12	0.0010584
3944.76	0.001146
3954.41	0.0011978
3964.05	0.0012008
3973.69	0.0012836
3983.34	0.001492
3992.98	0.001792
