Infrared Spectrum: Carbamic acid, dimethyldithio-,lead salt
Formula: C6 H12 N2 S4 Pb
CAS: 19010-66-3
State: SOLID (1.1 mg / 350 mg KBr DISC)
Class: COBLENTZ III
Instrument: PERKIN-ELMER 180 (GRATING)
Instrument parameters: GRATINGS: 2000, 1000, 500, 250 CM^-^1; FILTER CHANGE: 2970, 2000, 1485, 1000, 743, 500, 372, 250, 186 CM^-^1.
Sampling: TRANSMISSION
Path length: SCALE ATTENUATION REDUCED 10%
Resolution: 2
Origin: K. K. DEB-NCI FREDERICK CANCER RESEARCH CENTER
1/CM	TRANSMITTANCE
393	0.8566
402	0.8514
411	0.8582
420	0.8615
429	0.8147
438	0.7544
447	0.7026
456	0.8673
465	0.8847
474	0.893
483	0.8987
492	0.9004
501	0.8978
510	0.8921
519	0.8851
528	0.8808
537	0.881
546	0.8825
555	0.8784
564	0.8388
573	0.652
582	0.8754
591	0.8919
600	0.894
609	0.8946
618	0.8885
627	0.8948
636	0.9015
645	0.8864
654	0.8841
663	0.8885
672	0.9017
681	0.9142
690	0.9208
699	0.9191
708	0.9103
717	0.9035
726	0.906
735	0.9151
744	0.918
753	0.9176
762	0.9171
771	0.9153
780	0.9192
789	0.9162
798	0.9102
807	0.9042
816	0.9009
825	0.9004
834	0.9042
843	0.9052
852	0.9049
861	0.903
870	0.9003
879	0.8972
888	0.8985
897	0.8974
906	0.8939
915	0.8881
924	0.879
933	0.8681
942	0.8654
951	0.8285
960	0.632
969	0.2126
978	0.8004
987	0.8598
996	0.8615
1005	0.8626
1014	0.8415
1023	0.8326
1032	0.8345
1041	0.7935
1050	0.7671
1059	0.8112
1068	0.827
1077	0.8266
1086	0.8192
1095	0.8066
1104	0.7866
1113	0.7461
1122	0.6567
1131	0.5218
1140	0.4545
1149	0.4906
1158	0.6338
1167	0.7401
1176	0.7955
1185	0.8241
1194	0.8399
1203	0.8458
1212	0.8455
1221	0.8285
1230	0.7839
1239	0.5074
1248	0.5231
1257	0.8174
1266	0.8475
1275	0.8508
1284	0.8507
1293	0.8478
1302	0.8406
1311	0.8315
1320	0.8189
1329	0.8002
1338	0.7656
1347	0.7088
1356	0.5829
1365	0.4355
1374	0.0433
1383	0.2615
1392	0.5223
1401	0.4517
1410	0.6778
1419	0.6827
1428	0.6822
1437	0.6771
1446	0.6696
1455	0.6718
1464	0.64
1473	0.5401
1482	0.4403
1491	0.2659
1500	0.0818
1509	0.1678
1518	0.3435
1527	0.5192
1536	0.6391
1545	0.7058
1554	0.7113
1563	0.6886
1572	0.6487
1581	0.6437
1590	0.7125
1599	0.746
1608	0.7777
1617	0.8013
1626	0.824
1635	0.8378
1644	0.8488
1653	0.8574
1662	0.8636
1671	0.8686
1680	0.871
1689	0.8733
1698	0.8733
1707	0.8738
1716	0.8747
1725	0.8765
1734	0.8782
1743	0.8822
1752	0.8737
1761	0.88
1770	0.8852
1779	0.8867
1788	0.8895
1797	0.8891
1806	0.8874
1815	0.8841
1824	0.8805
1833	0.8775
1842	0.8759
1851	0.8769
1860	0.8756
1869	0.872
1878	0.8708
1887	0.8668
1896	0.8642
1905	0.8604
1914	0.8463
1923	0.8446
1932	0.8515
1941	0.8581
1950	0.8629
1959	0.8665
1968	0.8691
1977	0.8704
1986	0.8706
1995	0.8682
2004	0.8665
2013	0.8656
2022	0.8644
2031	0.8627
2040	0.8605
2049	0.8586
2058	0.8575
2067	0.8564
2076	0.8556
2085	0.8548
2094	0.854
2103	0.8532
2112	0.8526
2121	0.852
2130	0.8514
2139	0.8508
2148	0.8503
2157	0.8497
2166	0.8492
2175	0.8485
2184	0.8478
2193	0.8471
2202	0.8463
2211	0.8456
2220	0.8445
2229	0.8431
2238	0.8418
2247	0.8405
2256	0.8392
2265	0.8378
2274	0.8366
2283	0.8355
2292	0.8345
2301	0.8334
2310	0.8325
2319	0.8321
2328	0.8318
2337	0.8315
2346	0.8312
2355	0.8308
2364	0.8305
2373	0.8293
2382	0.8282
2391	0.827
2400	0.8259
2409	0.8247
2418	0.8236
2427	0.8223
2436	0.821
2445	0.8196
2454	0.8183
2463	0.8169
2472	0.8156
2481	0.8145
2490	0.8135
2499	0.8125
2508	0.8115
2517	0.8104
2526	0.8093
2535	0.8081
2544	0.807
2553	0.8058
2562	0.8049
2571	0.8039
2580	0.803
2589	0.802
2598	0.801
2607	0.7998
2616	0.7986
2625	0.7973
2634	0.7959
2643	0.7942
2652	0.7926
2661	0.791
2670	0.7896
2679	0.7881
2688	0.7867
2697	0.7852
2706	0.7838
2715	0.7822
2724	0.7784
2733	0.7754
2742	0.7769
2751	0.7762
2760	0.7741
2769	0.7713
2778	0.7679
2787	0.7642
2796	0.7601
2805	0.7552
2814	0.7493
2823	0.7419
2832	0.7257
2841	0.7092
2850	0.7078
2859	0.7153
2868	0.7122
2877	0.7097
2886	0.7023
2895	0.6865
2904	0.6628
2913	0.6153
2922	0.5679
2931	0.6093
2940	0.6638
2949	0.6785
2958	0.6872
2967	0.6951
2976	0.7032
2985	0.71
2994	0.712
3003	0.711
3012	0.7135
3021	0.7164
3030	0.7175
3039	0.7185
3048	0.7193
3057	0.7195
3066	0.7197
3075	0.7191
3084	0.718
3093	0.7168
3102	0.7151
3111	0.7133
3120	0.7115
3129	0.7097
3138	0.7076
3147	0.7055
3156	0.7034
3165	0.7014
3174	0.6996
3183	0.6977
3192	0.6959
3201	0.694
3210	0.6922
3219	0.6904
3228	0.6885
3237	0.6867
3246	0.6849
3255	0.6831
3264	0.6819
3273	0.6812
3282	0.6807
3291	0.68
3300	0.6793
3309	0.6782
3318	0.6771
3327	0.676
3336	0.6749
3345	0.6737
3354	0.6725
3363	0.6705
3372	0.6685
3381	0.6665
3390	0.6646
3399	0.6628
3408	0.6615
3417	0.6602
3426	0.6589
3435	0.6575
3444	0.6543
3453	0.6569
3462	0.6567
3471	0.6574
3480	0.6581
3489	0.6589
3498	0.6597
3507	0.6606
3516	0.6615
3525	0.6625
3534	0.6634
3543	0.6645
3552	0.6657
3561	0.6668
3570	0.668
3579	0.6695
3588	0.6711
3597	0.6727
3606	0.6743
3615	0.6755
3624	0.6766
3633	0.6777
3642	0.6788
3651	0.6788
3660	0.6786
3669	0.6783
3678	0.678
3687	0.6768
3696	0.6756
3705	0.6743
3714	0.6731
3723	0.6719
3732	0.6707
3741	0.6695
3750	0.6681
3759	0.6667
3768	0.6651
3777	0.6633
3786	0.6615
3795	0.6597
