Infrared Spectrum: Ethyl 4-hydroxy-3-nitrobenzoate
Formula: C 9 H 9 N O 5
CAS: 19013-10-6
State: gas
Origin: EPA-IR VAPOR PHASE LIBRARY
1/CM	ABSORBANCE
549.9	0.001604
559.547	0.001914
569.193	0.001714
578.84	0.001484
588.486	0.001254
598.133	0.0010118
607.779	0.0011155
617.426	0.001284
627.072	0.002004
636.719	0.003484
646.365	0.002404
656.012	0.002164
665.658	0.002544
675.305	0.003694
684.951	0.005514
694.598	0.006994
704.245	0.005894
713.891	0.003434
723.538	0.001814
733.184	0.0011856
742.831	0.0011972
752.477	0.002624
762.124	0.005444
771.77	0.003744
781.417	0.001574
791.063	0.000941
800.71	0.0007751
810.356	0.0012307
820.003	0.001864
829.649	0.002234
839.296	0.003484
848.943	0.003304
858.589	0.002244
868.236	0.002114
877.882	0.0011407
887.529	0.0007855
897.175	0.0007046
906.822	0.0010766
916.468	0.002214
926.115	0.002274
935.761	0.0011381
945.408	0.0006813
955.054	0.0006736
964.701	0.0007302
974.347	0.0008607
983.994	0.0009626
993.64	0.0012211
1003.29	0.002274
1012.93	0.004574
1022.58	0.004904
1032.23	0.002724
1041.87	0.001494
1051.52	0.001374
1061.17	0.001834
1070.81	0.002834
1080.46	0.003244
1090.11	0.005254
1099.75	0.011924
1109.4	0.014224
1119.05	0.011704
1128.69	0.009074
1138.34	0.008784
1147.99	0.007544
1157.63	0.005534
1167.28	0.006634
1176.92	0.011044
1186.57	0.021404
1196.22	0.030304
1205.86	0.023304
1215.51	0.013794
1225.16	0.009984
1234.8	0.009024
1244.45	0.010664
1254.1	0.017344
1263.74	0.027064
1273.39	0.037874
1283.04	0.048164
1292.68	0.033054
1302.33	0.014764
1311.98	0.013044
1321.62	0.020924
1331.27	0.017344
1340.92	0.012054
1350.56	0.009894
1360.21	0.007854
1369.86	0.008504
1379.5	0.005444
1389.15	0.004014
1398.79	0.003744
1408.44	0.003714
1418.09	0.004704
1427.73	0.007134
1437.38	0.007744
1447.03	0.005404
1456.67	0.004164
1466.32	0.004394
1475.97	0.004874
1485.61	0.006024
1495.26	0.006324
1504.91	0.003274
1514.55	0.002404
1524.2	0.003124
1533.85	0.005904
1543.49	0.012504
1553.14	0.013824
1562.79	0.007414
1572.43	0.005434
1582.08	0.007234
1591.73	0.006604
1601.37	0.004934
1611.02	0.008094
1620.67	0.016984
1630.31	0.021784
1639.96	0.009554
1649.6	0.002784
1659.25	0.001614
1668.9	0.001434
1678.54	0.001534
1688.19	0.001704
1697.84	0.002074
1707.48	0.002294
1717.13	0.002884
1726.78	0.006774
1736.42	0.025264
1746.07	0.030954
1755.72	0.009064
1765.36	0.002764
1775.01	0.001854
1784.66	0.001574
1794.3	0.0011583
1803.95	0.0009042
1813.6	0.0007577
1823.24	0.0007004
1832.89	0.000596
1842.54	0.0005809
1852.18	0.0005198
1861.83	0.0004792
1871.47	0.0003878
1881.12	0.0003573
1890.77	0.0003637
1900.41	0.0003502
1910.06	0.000363
1919.71	0.00033202
1929.35	0.0003892
1939	0.0004984
1948.65	0.0005322
1958.29	0.0004493
1967.94	0.0004021
1977.59	0.0003607
1987.23	0.0003237
1996.88	0.00032168
2006.53	0.00029523
2016.17	0.00031239
2025.82	0.00024586
2035.47	0.00028412
2045.11	0.00027382
2054.76	0.00027938
2064.41	0.0002638
2074.05	0.00030982
2083.7	0.00027339
2093.35	0.00024533
2102.99	0.0002485
2112.64	0.00026949
2122.28	0.00029994
2131.93	0.00030809
2141.58	0.00029664
2151.22	0.00028937
2160.87	0.00027363
2170.52	0.00022651
2180.16	0.00024298
2189.81	0.000235524
2199.46	0.00025528
2209.1	0.0002216
2218.75	0.0002154
2228.4	0.00022465
2238.04	0.0001836
2247.69	0.0001915
2257.34	0.000243977
2266.98	0.00026492
2276.63	0.00025629
2286.28	0.00024069
2295.92	0.00024506
2305.57	0.00026346
2315.22	0.00026679
2324.86	0.00027078
2334.51	0.000240001
2344.16	0.00026683
2353.8	0.00025772
2363.45	0.000242973
2373.09	0.00028997
2382.74	0.00030188
2392.39	0.000327
2402.03	0.0003352
2411.68	0.00030673
2421.33	0.0003123
2430.97	0.00033155
2440.62	0.00030561
2450.27	0.00032161
2459.91	0.00033133
2469.56	0.00031069
2479.21	0.00027343
2488.85	0.00025595
2498.5	0.00024825
2508.15	0.00024408
2517.79	0.00028999
2527.44	0.00031358
2537.09	0.000235332
2546.73	0.0003471
2556.38	0.0003547
2566.03	0.0004149
2575.67	0.0004582
2585.32	0.0004268
2594.96	0.00030186
2604.61	0.0003572
2614.26	0.0003637
2623.9	0.0003458
2633.55	0.00030736
2643.2	0.00029037
2652.84	0.00027343
2662.49	0.0002176
2672.14	0.00026934
2681.78	0.0002037
2691.43	0.00023272
2701.08	0.00028728
2710.72	0.00022
2720.37	0.000241399
2730.02	0.0002968
2739.66	0.00031426
2749.31	0.0003791
2758.96	0.0003755
2768.6	0.0003399
2778.25	0.00032316
2787.9	0.00028082
2797.54	0.000337
2807.19	0.0004934
2816.84	0.0004875
2826.48	0.0005422
2836.13	0.0005603
2845.77	0.0005181
2855.42	0.0006295
2865.07	0.0007439
2874.71	0.000909
2884.36	0.0012206
2894.01	0.001274
2903.65	0.001294
2913.3	0.001484
2922.95	0.001454
2932.59	0.001714
2942.24	0.002374
2951.89	0.002304
2961.53	0.002004
2971.18	0.002884
2980.83	0.004304
2990.47	0.004714
3000.12	0.003024
3009.77	0.002054
3019.41	0.001374
3029.06	0.0008216
3038.71	0.0005754
3048.35	0.0003972
3058	0.0003618
3067.64	0.0004057
3077.29	0.0007558
3086.94	0.0009986
3096.58	0.0010123
3106.23	0.0006769
3115.88	0.0004299
3125.52	0.00026659
3135.17	0.0004433
3144.82	0.000502
3154.46	0.0005402
3164.11	0.0007559
3173.76	0.0008861
3183.4	0.001016
3193.05	0.001454
3202.7	0.001914
3212.34	0.002224
3221.99	0.002804
3231.64	0.003224
3241.28	0.003324
3250.93	0.003284
3260.58	0.003374
3270.22	0.003274
3279.87	0.002874
3289.52	0.002814
3299.16	0.002524
3308.81	0.002364
3318.45	0.002154
3328.1	0.002014
3337.75	0.001944
3347.39	0.001794
3357.04	0.001524
3366.69	0.001544
3376.33	0.001344
3385.98	0.0011736
3395.63	0.0012155
3405.27	0.0010006
3414.92	0.0009664
3424.57	0.0008381
3434.21	0.0007527
3443.86	0.0007861
3453.51	0.0008735
3463.15	0.0009536
3472.8	0.0009352
3482.45	0.000628
3492.09	0.0007004
3501.74	0.0005792
3511.39	0.0006057
3521.03	0.0007151
3530.68	0.000637
3540.33	0.0006601
3549.97	0.0004589
3559.62	0.0004619
3569.26	0.000463
3578.91	0.0003569
3588.56	0.0003839
3598.2	0.0001947
3607.85	0.00030638
3617.5	0.00027436
3627.14	0.0001552
3636.79	0.0002189
3646.44	0.0001516
3656.08	0.000176
3665.73	0.0001795
3675.38	0.0001868
3685.02	0.000105
3694.67	0.0001398
3704.32	6.3e-05
3713.96	0.0001384
3723.61	0.0001756
3733.26	0.0001547
3742.9	9.6e-05
3752.55	0.000127
3762.2	8.2e-05
3771.84	0.000111
3781.49	0.0001542
3791.13	0.0001404
3800.78	7.8e-05
3810.43	0.0001473
3820.07	1.1e-05
3829.72	3.4e-05
3839.37	8.1e-05
3849.01	9.9e-05
3858.66	5.8e-05
3868.31	9.4e-05
3877.95	7.3e-05
3887.6	0.0001754
3897.25	0.0001474
3906.89	0.00026999
3916.54	0.0001386
3926.19	5.1e-05
3935.83	0.000134
3945.48	4.9e-05
3955.13	8.3e-05
3964.77	0.0001478
3974.42	0.00012
3984.07	0.0002129
3993.71	0.000118
