Infrared Spectrum: PHOSPHORODICHLORIDOTHIOIC ACID, O-(1-METHYLETHYL) ESTER
Formula: C3 H7 Cl2 O P S
CAS: 19021-61-5
State: SOLUTION (10% IN CCl4 FOR 3800-1333, 10% IN CS2 FOR 1333-450 CM^-^1)
Class: COBLENTZ III
Instrument: DOW KBr FOREPRISM-GRATING
Instrument parameters: BLAZED AT 3.5, 12.0, 20.0 MICRON, CHANGED AT 5.0, 7.5, 14.9 MICRON
Sampling: TRANSMISSION
Path length: 0.011, 0.011 CM
Resolution: 4
Origin: DOW CHEMICAL COMPANY
1/CM	TRANSMITTANCE
424.737	0.79
433.488	0.789
442.24	0.79
450.991	0.801
459.743	0.817
468.494	0.824
477.246	0.798
485.997	0.48
494.749	0.404
503.5	0.278
512.252	0.345
521.003	0.052
529.755	0.194
538.506	0.186
547.257	0.005
556.009	0.073
564.76	0.664
573.512	0.869
582.263	0.93
591.015	0.954
599.766	0.969
608.518	0.982
617.269	0.983
626.021	0.975
634.772	0.956
643.524	0.917
652.275	0.865
661.026	0.876
669.778	0.819
678.529	0.597
687.281	0.023
696.032	0.219
704.784	0.494
713.535	0.363
722.287	0.126
731.038	0.6299
739.79	0.684
748.541	0.515
757.293	0.339
766.044	0.29
774.795	0
783.547	0.302
792.298	0.793
801.05	0.906
809.801	0.931
818.553	0.949
827.304	0.949
836.056	0.932
844.807	0.863
853.559	0.771
862.31	0.775
871.062	0.797
879.813	0.802
888.564	0.765
897.316	0.553
906.067	0.842
914.819	0.839
923.57	0.815
932.322	0.736
941.073	0.695
949.825	0.62
958.576	0.469
967.328	0.198
976.079	0.001
984.831	0.004
993.582	0.015
1002.33	0.009
1011.08	0.019
1019.84	0.269
1028.59	0.593
1037.34	0.745
1046.09	0.793
1054.84	0.821
1063.59	0.863
1072.35	0.867
1081.1	0.835
1089.85	0.723
1098.6	0.371
1107.35	0.678
1116.1	0.787
1124.85	0.83
1133.61	0.816
1142.36	0.583
1151.11	0.838
1159.86	0.879
1168.61	0.85
1177.36	0.647
1186.11	0.745
1194.87	0.954
1203.62	0.963
1212.37	0.965
1221.12	0.98
1229.87	0.98
1238.62	0.978
1247.37	0.976
1256.13	0.973
1264.88	0.978
1273.63	0.98
1282.38	0.982
1291.13	0.98
1299.88	0.976
1308.63	0.968
1317.39	0.949
1326.14	0.917
1334.89	0.864
1343.64	0.823
1352.39	0.767
1361.14	0.819
1369.89	0.832
1378.65	0.33
1387.4	0.554
1396.15	0.56
1404.9	0.906
1413.65	0.924
1422.4	0.91
1431.16	0.891
1439.91	0.849
1448.66	0.786
1457.41	0.589
1466.16	0.66
1474.91	0.758
1483.66	0.873
1492.42	0.865
1501.17	0.832
1509.92	0.779
1518.67	0.745
1527.42	0.69
1536.17	0.609
1544.92	0.504
1553.68	0.491
1562.43	0.582
1571.18	0.647
1579.93	0.69
1588.68	0.708
1597.43	0.779
1606.18	0.868
1614.94	0.93
1623.69	0.945
1632.44	0.947
1641.19	0.942
1649.94	0.941
1658.69	0.939
1667.44	0.924
1676.2	0.934
1684.95	0.949
1693.7	0.957
1702.45	0.958
1711.2	0.956
1719.95	0.947
1728.7	0.939
1737.46	0.952
1746.21	0.946
1754.96	0.938
1763.71	0.95
1772.46	0.96
1781.21	0.963
1789.97	0.968
1798.72	0.972
1807.47	0.969
1816.22	0.964
1824.97	0.965
1833.72	0.967
1842.47	0.967
1851.23	0.967
1859.98	0.965
1868.73	0.961
1877.48	0.964
1886.23	0.968
1894.98	0.971
1903.73	0.971
1912.49	0.975
1921.24	0.976
1929.99	0.973
1938.74	0.969
1947.49	0.967
1956.24	0.967
1964.99	0.969
1973.75	0.971
1982.5	0.969
1991.25	0.975
2000	0.976
2008.75	0.979
2017.5	0.98
2026.25	0.982
2035.01	0.982
2043.76	0.982
2052.51	0.982
2061.26	0.98
2070.01	0.98
2078.76	0.98
2087.51	0.982
2096.27	0.983
2105.02	0.983
2113.77	0.982
2122.52	0.982
2131.27	0.982
2140.02	0.982
2148.77	0.982
2157.53	0.982
2166.28	0.983
2175.03	0.983
2183.78	0.983
2192.53	0.982
2201.28	0.98
2210.04	0.98
2218.79	0.979
2227.54	0.979
2236.29	0.978
2245.04	0.972
2253.79	0.9689
2262.54	0.9648
2271.3	0.954
2280.05	0.953
2288.8	0.9531
2297.55	0.956
2306.3	0.9539
2315.05	0.9531
2323.8	0.967
2332.56	0.9668
2341.31	0.9652
2350.06	0.971
2358.81	0.969
2367.56	0.972
2376.31	0.976
2385.06	0.979
2393.82	0.979
2402.57	0.979
2411.32	0.9799
2420.07	0.979
2428.82	0.9789
2437.57	0.979
2446.32	0.9789
2455.08	0.979
2463.83	0.979
2472.58	0.979
2481.33	0.978
2490.08	0.979
2498.83	0.9788
2507.58	0.9758
2516.34	0.976
2525.09	0.976
2533.84	0.978
2542.59	0.979
2551.34	0.98
2560.09	0.9792
2568.85	0.98
2577.6	0.98
2586.35	0.98
2595.1	0.9798
2603.85	0.979
2612.6	0.978
2621.35	0.976
2630.11	0.976
2638.86	0.976
2647.61	0.976
2656.36	0.978
2665.11	0.976
2673.86	0.975
2682.61	0.976
2691.37	0.978
2700.12	0.9815
2708.87	0.9727
2717.62	0.976
2726.37	0.972
2735.12	0.963
2743.87	0.9687
2752.63	0.972
2761.38	0.972
2770.13	0.973
2778.88	0.972
2787.63	0.971
2796.38	0.967
2805.13	0.9607
2813.89	0.956
2822.64	0.9585
2831.39	0.9595
2840.14	0.958
2848.89	0.9519
2857.64	0.9381
2866.39	0.8926
2875.15	0.889
2883.9	0.9097
2892.65	0.904
2901.4	0.904
2910.15	0.8912
2918.9	0.8427
2927.66	0.7944
2936.41	0.6753
2945.16	0.795
2953.91	0.8713
2962.66	0.8305
2971.41	0.7159
2980.16	0.3348
2988.92	0.3411
2997.67	0.6066
3006.42	0.874
3015.17	0.9384
3023.92	0.9643
3032.67	0.9697
3041.42	0.975
3050.18	0.9784
3058.93	0.9823
3067.68	0.984
3076.43	0.986
3085.18	0.986
3093.93	0.989
3102.68	0.989
3111.44	0.989
3120.19	0.989
3128.94	0.989
3137.69	0.989
3146.44	0.987
3155.19	0.987
3163.94	0.987
3172.7	0.987
3181.45	0.9866
3190.2	0.9852
3198.95	0.9836
3207.7	0.984
3216.45	0.983
3225.2	0.984
3233.96	0.984
3242.71	0.984
3251.46	0.984
3260.21	0.984
3268.96	0.984
3277.71	0.9834
3286.46	0.983
3295.22	0.982
3303.97	0.9811
3312.72	0.979
3321.47	0.978
3330.22	0.976
3338.97	0.9754
3347.73	0.975
3356.48	0.973
3365.23	0.9715
3373.98	0.971
3382.73	0.9701
3391.48	0.969
3400.23	0.968
3408.99	0.967
3417.74	0.968
3426.49	0.969
3435.24	0.969
3443.99	0.976
3452.74	0.976
3461.49	0.977
3470.25	0.979
3479	0.9795
3487.75	0.98
3496.5	0.983
3505.25	0.984
3514	0.984
3522.75	0.987
3531.51	0.987
3540.26	0.986
3549.01	0.984
3557.76	0.9835
3566.51	0.984
3575.26	0.986
3584.01	0.986
3592.77	0.986
3601.52	0.9849
3610.27	0.986
3619.02	0.9849
3627.77	0.983
3636.52	0.983
3645.27	0.984
3654.03	0.982
3662.78	0.9811
3671.53	0.98
3680.28	0.9811
3689.03	0.984
3697.78	0.9826
3706.54	0.986
3715.29	0.982
3724.04	0.9826
3732.79	0.984
3741.54	0.989
3750.29	0.986
3759.04	0.99
3767.8	0.9872
3776.55	0.9824
3785.3	0.983
3794.05	0.9992
