Infrared Spectrum: PURINE, 2,6-DIAMIO-
Formula: C5 H6 N6
CAS: 1904-98-9
State: SOLID (1.0 mg / 650 mg KBr DISC)
Class: COBLENTZ III
Instrument: PERKIN-ELMER 21 (GRATING)
Instrument parameters: FILTER CHANGE ABOUT 1075 CM^-^1
Sampling: TRANSMISSION
Resolution: 4
Origin: SOUTHERN RESEARCH INSTITUTE
1/CM	TRANSMITTANCE
607.317	0.4
615.796	0.403
624.275	0.4139
632.754	0.4754
641.234	0.5038
649.713	0.51
658.192	0.4989
666.671	0.48
675.15	0.4604
683.629	0.46
692.108	0.4625
700.588	0.4715
709.067	0.474
717.546	0.4726
726.025	0.4593
734.504	0.445
742.983	0.448
751.462	0.4448
759.942	0.4314
768.421	0.4137
776.9	0.3773
785.379	0.3351
793.858	0.4258
802.337	0.437
810.816	0.4331
819.296	0.432
827.775	0.4338
836.254	0.4427
844.733	0.457
853.212	0.4775
861.691	0.4906
870.17	0.5
878.649	0.5065
887.129	0.51
895.608	0.509
904.087	0.5053
912.566	0.4891
921.045	0.4535
929.524	0.3894
938.003	0.3572
946.483	0.4856
954.962	0.6001
963.441	0.601
971.92	0.599
980.399	0.5841
988.878	0.577
997.357	0.5848
1005.84	0.5876
1014.32	0.579
1022.79	0.573
1031.27	0.5691
1039.75	0.5506
1048.23	0.5369
1056.71	0.517
1065.19	0.4986
1073.67	0.4438
1082.15	0.417
1090.63	0.4329
1099.11	0.5049
1107.59	0.5354
1116.07	0.5493
1124.54	0.5509
1133.02	0.5388
1141.5	0.516
1149.98	0.509
1158.46	0.5158
1166.94	0.527
1175.42	0.5272
1183.9	0.524
1192.38	0.5153
1200.86	0.5006
1209.34	0.4907
1217.82	0.4675
1226.29	0.4402
1234.77	0.409
1243.25	0.487
1251.73	0.477
1260.21	0.4605
1268.69	0.4317
1277.17	0.3893
1285.65	0.3838
1294.13	0.4908
1302.61	0.4736
1311.09	0.4554
1319.56	0.4328
1328.04	0.3961
1336.52	0.3681
1345	0.3727
1353.48	0.3879
1361.96	0.372
1370.44	0.3407
1378.92	0.3042
1387.4	0.258
1395.88	0.1633
1404.36	0.1296
1412.84	0.2967
1421.31	0.2831
1429.79	0.2944
1438.27	0.2746
1446.75	0.2237
1455.23	0.2748
1463.71	0.32
1472.19	0.2912
1480.67	0.2836
1489.15	0.2938
1497.63	0.2977
1506.11	0.42
1514.59	0.449
1523.06	0.4385
1531.54	0.3791
1540.02	0.3521
1548.5	0.2964
1556.98	0.2683
1565.46	0.1993
1573.94	0.1314
1582.42	0.0854
1590.9	0.082
1599.38	0.0626
1607.86	0.0474
1616.33	0.0578
1624.81	0.1048
1633.29	0.1419
1641.77	0.1735
1650.25	0.2236
1658.73	0.3248
1667.21	0.4045
1675.69	0.4914
1684.17	0.5571
1692.65	0.608
1701.13	0.6498
1709.61	0.6727
1718.08	0.7005
1726.56	0.7248
1735.04	0.7382
1743.52	0.751
1752	0.75
1760.48	0.745
1768.96	0.742
1777.44	0.741
1785.92	0.74
1794.4	0.7366
1802.88	0.73
1811.35	0.728
1819.83	0.7333
1828.31	0.733
1836.79	0.7288
1845.27	0.727
1853.75	0.727
1862.23	0.723
1870.71	0.718
1879.19	0.7082
1887.67	0.7011
1896.15	0.698
1904.63	0.6952
1913.1	0.694
1921.58	0.6892
1930.06	0.6814
1938.54	0.6764
1947.02	0.6739
1955.5	0.667
1963.98	0.664
1972.46	0.658
1980.94	0.657
1989.42	0.6514
1997.9	0.647
2006.38	0.6437
2014.85	0.6395
2023.33	0.6317
2031.81	0.6275
2040.29	0.6207
2048.77	0.617
2057.25	0.613
2065.73	0.6127
2074.21	0.608
2082.69	0.6045
2091.17	0.6007
2099.65	0.5957
2108.12	0.5897
2116.6	0.5857
2125.08	0.582
2133.56	0.577
2142.04	0.576
2150.52	0.5727
2159	0.57
2167.48	0.5667
2175.96	0.564
2184.44	0.562
2192.92	0.5597
2201.4	0.556
2209.87	0.55
2218.35	0.5477
2226.83	0.5447
2235.31	0.537
2243.79	0.5345
2252.27	0.533
2260.75	0.532
2269.23	0.528
2277.71	0.5217
2286.19	0.5187
2294.67	0.515
2303.15	0.513
2311.62	0.51
2320.1	0.506
2328.58	0.501
2337.06	0.4967
2345.54	0.492
2354.02	0.489
2362.5	0.487
2370.98	0.483
2379.46	0.479
2387.94	0.4765
2396.42	0.4687
2404.89	0.458
2413.37	0.455
2421.85	0.455
2430.33	0.4507
2438.81	0.448
2447.29	0.4377
2455.77	0.4275
2464.25	0.4217
2472.73	0.4147
2481.21	0.408
2489.69	0.402
2498.17	0.3967
2506.64	0.392
2515.12	0.388
2523.6	0.387
2532.08	0.386
2540.56	0.3835
2549.04	0.3775
2557.52	0.371
2566	0.3685
2574.48	0.364
2582.96	0.3605
2591.44	0.355
2599.91	0.35
2608.39	0.346
2616.87	0.3397
2625.35	0.3347
2633.83	0.3267
2642.31	0.3177
2650.79	0.312
2659.27	0.309
2667.75	0.3022
2676.23	0.297
2684.71	0.293
2693.19	0.293
2701.66	0.287
2710.14	0.286
2718.62	0.2867
2727.1	0.283
2735.58	0.2827
2744.06	0.281
2752.54	0.281
2761.02	0.282
2769.5	0.283
2777.98	0.286
2786.46	0.2923
2794.94	0.3075
2803.41	0.3125
2811.89	0.312
2820.37	0.31
2828.85	0.3057
2837.33	0.301
2845.81	0.3
2854.29	0.303
2862.77	0.304
2871.25	0.304
2879.73	0.305
2888.21	0.3037
2896.68	0.2977
2905.16	0.291
2913.64	0.291
2922.12	0.287
2930.6	0.286
2939.08	0.286
2947.56	0.286
2956.04	0.2867
2964.52	0.286
2973	0.282
2981.48	0.282
2989.96	0.281
2998.43	0.2767
3006.91	0.2735
3015.39	0.2627
3023.87	0.2507
3032.35	0.2405
3040.83	0.2347
3049.31	0.2287
3057.79	0.2277
3066.27	0.2262
3074.75	0.2217
3083.23	0.217
3091.71	0.216
3100.18	0.218
3108.66	0.2195
3117.14	0.223
3125.62	0.2255
3134.1	0.2343
3142.58	0.2415
3151.06	0.2593
3159.54	0.2855
3168.02	0.3118
3176.5	0.3285
3184.98	0.336
3193.45	0.3417
3201.93	0.344
3210.41	0.34
3218.89	0.341
3227.37	0.342
3235.85	0.3352
3244.33	0.324
3252.81	0.3105
3261.29	0.299
3269.77	0.2867
3278.25	0.2757
3286.73	0.2657
3295.2	0.2567
3303.68	0.2467
3312.16	0.2397
3320.64	0.236
3329.12	0.235
3337.6	0.236
3346.08	0.2455
3354.56	0.2593
3363.04	0.2823
3371.52	0.285
3380	0.271
3388.48	0.252
3396.95	0.237
3405.43	0.2307
3413.91	0.225
3422.39	0.227
3430.87	0.2333
3439.35	0.2573
3447.83	0.2972
3456.31	0.3543
3464.79	0.3753
3473.27	0.3873
3481.75	0.3993
3490.22	0.4268
3498.7	0.4468
3507.18	0.4675
3515.66	0.4881
3524.14	0.5023
3532.62	0.521
3541.1	0.5425
3549.58	0.5563
3558.06	0.5713
3566.54	0.5858
3575.02	0.6003
3583.5	0.6113
3591.97	0.6188
3600.45	0.629
3608.93	0.63
3617.41	0.631
3625.89	0.631
3634.37	0.631
3642.85	0.631
3651.33	0.631
3659.81	0.631
3668.29	0.631
3676.77	0.6287
3685.24	0.6247
3693.72	0.6207
3702.2	0.6187
3710.68	0.617
3719.16	0.6165
3727.64	0.612
3736.12	0.6102
3744.6	0.608
3753.08	0.605
3761.56	0.603
3770.04	0.6027
3778.52	0.601
3786.99	0.596
3795.47	0.596
3803.95	0.595
3812.43	0.5947
3820.91	0.591
3829.39	0.591
3837.87	0.591
3846.35	0.591
3854.83	0.59
3863.31	0.586
3871.79	0.584
3880.27	0.5815
3888.74	0.58
3897.22	0.58
