Infrared Spectrum: Oryzalin
Formula: C 12 H 18 N 4 O 6 S
CAS: 19044-88-3
State: gas
Instrument: HP-GC/MS/IRD
Origin: NIST Mass Spectrometry Data Center
1/CM	ABSORBANCE
550	0.0007636
562	0.0018377
574	0.0042412
586	0.0063411
598	0.0045747
610	0.0027807
622	0.0015824
634	0.0010465
646	0.000943
658	0.0011546
670	0.0013478
682	0.0013179
694	0.0013386
706	0.0028336
718	0.0036156
730	0.0015709
742	0.0013731
754	0.0012581
766	0.0013271
778	0.0013409
790	0.0012673
802	0.0011569
814	0.0012121
826	0.0014973
838	0.0021137
850	0.0029923
862	0.0022126
874	0.0019343
886	0.0033626
898	0.0063986
910	0.0060099
922	0.0032177
934	0.0017135
946	0.0013639
958	0.0015778
970	0.0020861
982	0.0017664
994	0.0011937
1006	0.001104
1018	0.0010902
1030	0.0009913
1042	0.0009913
1054	0.0010005
1066	0.0011155
1078	0.001955
1090	0.0045126
1102	0.0041998
1114	0.0016422
1126	0.0008487
1138	0.0014743
1150	0.0028198
1162	0.0033948
1174	0.0038801
1186	0.0113091
1198	0.0049519
1210	0.0005957
1222	0.0001449
1234	0.0005888
1246	0.000851
1258	0.0007613
1270	0.0004853
1282	0.0003105
1294	0.0005221
1306	0.0006394
1318	0.0010994
1330	0.0024955
1342	0.0062491
1354	0.0086641
1366	0.0057155
1378	0.0064423
1390	0.0113229
1402	0.0065113
1414	0.0028014
1426	0.0019895
1438	0.0029624
1450	0.0044505
1462	0.0043447
1474	0.0040296
1486	0.0039698
1498	0.0039583
1510	0.0038387
1522	0.0043125
1534	0.0075394
1546	0.0186645
1558	0.0204631
1570	0.0071806
1582	0.0038801
1594	0.0052831
1606	0.0073922
1618	0.0032959
1630	0.0015065
1642	0.000805
1654	0.0005704
1666	0.0003059
1678	0.0001357
1690	0.0001058
1702	5.29e-05
1714	1.84e-05
1726	2.99e-05
1738	4.83e-05
1750	7.82e-05
1762	6.21e-05
1774	1.15e-05
1786	0.0001035
1798	0.0001587
1810	0.0001449
1822	7.59e-05
1834	6.67e-05
1846	4.14e-05
1858	0
1870	2.53e-05
1882	2.76e-05
1894	4.37e-05
1906	6.9e-05
1918	6.44e-05
1930	7.36e-05
1942	6.67e-05
1954	4.83e-05
1966	1.61e-05
1978	2.99e-05
1990	2.53e-05
2002	2.53e-05
2014	4.14e-05
2026	4.6e-05
2038	6.67e-05
2050	7.82e-05
2062	8.74e-05
2074	6.21e-05
2086	8.05e-05
2098	6.44e-05
2110	8.05e-05
2122	9.66e-05
2134	8.28e-05
2146	0.0001058
2158	8.05e-05
2170	0.0001196
2182	0.0001012
2194	0.0001288
2206	0.0001472
2218	0.0001472
2230	0.0001495
2242	0.0001656
2254	0.0001403
2266	0.0001127
2278	0.0001219
2290	0.0001909
2302	0.0001564
2314	0.0001955
2326	0.0002162
2338	0.0002254
2350	0.0002323
2362	0.0002346
2374	0.0002208
2386	0.00023
2398	0.0002346
2410	0.0002392
2422	0.0002392
2434	0.0002346
2446	0.0001978
2458	0.0002484
2470	0.0002415
2482	0.0002369
2494	0.0002898
2506	0.0003289
2518	0.0003404
2530	0.0003887
2542	0.0003979
2554	0.0003933
2566	0.0003956
2578	0.0003956
2590	0.000414
2602	0.0003795
2614	0.0004048
2626	0.0004002
2638	0.0004209
2650	0.0004209
2662	0.0004485
2674	0.0004669
2686	0.0005129
2698	0.0005704
2710	0.000575
2722	0.0006279
2734	0.0006946
2746	0.0007383
2758	0.000713
2770	0.000736
2782	0.0007889
2794	0.0008694
2806	0.0009154
2818	0.0009936
2830	0.0011086
2842	0.0013639
2854	0.0017779
2866	0.0023851
2878	0.0031441
2890	0.0039514
2902	0.002944
2914	0.0029555
2926	0.0033212
2938	0.0041354
2950	0.0044367
2962	0.0043378
2974	0.0062583
2986	0.0040595
2998	0.001886
3010	0.0012351
3022	0.000966
3034	0.0007383
3046	0.000667
3058	0.0006716
3070	0.0008372
3082	0.0010902
3094	0.0008786
3106	0.0006969
3118	0.0006187
3130	0.0005865
3142	0.0005704
3154	0.0005198
3166	0.0004968
3178	0.0004853
3190	0.0004968
3202	0.0004807
3214	0.0004393
3226	0.0004669
3238	0.0004255
3250	0.0003979
3262	0.0003841
3274	0.0004232
3286	0.0004025
3298	0.0004025
3310	0.0003749
3322	0.0004002
3334	0.000483
3346	0.000667
3358	0.0012351
3370	0.0024288
3382	0.002208
3394	0.0011224
3406	0.0006095
3418	0.0003588
3430	0.0003312
3442	0.000483
3454	0.0007061
3466	0.0010718
3478	0.0010879
3490	0.0010465
3502	0.0007406
3514	0.0003864
3526	0.0002967
3538	0.0001518
3550	0.0002645
3562	0.0001104
3574	0.0001794
3586	0.0001771
3598	0.0001587
3610	0.000207
3622	0.0003312
3634	0.0002093
3646	0.00023
3658	0.0002093
3670	0.0002438
3682	0.0002921
3694	0.0002461
3706	0.0002162
3718	0.0003197
3730	0.0004439
3742	0.0003657
3754	0.0003105
3766	0.0003795
3778	0.0003726
3790	0.0002852
3802	0.0003565
3814	0.0003197
3826	0.0003542
3838	0.0003818
