Infrared Spectrum: 5Beta-HYDROXYCHOLESTAN-3-ONE
Formula: C27 H46 O2
CAS: 19043-70-0
State: SOLID (KBr DISC)
Class: COBLENTZ III
Instrument: BECKMAN IR-7
Sampling: TRANSMISSION
Resolution: 4
Origin: THE WORCESTER FOUNDATION FOR EXPERIMENTAL BIOLOGY, Neal L. McNiven
1/CM	TRANSMITTANCE
600	0.348
608.755	0.382
617.509	0.423
626.264	0.477
635.018	0.532
643.773	0.58
652.527	0.624
661.282	0.663
670.037	0.693
678.791	0.704
687.546	0.716
696.3	0.751
705.055	0.77
713.809	0.78
722.564	0.733
731.319	0.796
740.073	0.809
748.828	0.841
757.582	0.85
766.337	0.844
775.091	0.854
783.846	0.875
792.601	0.881
801.355	0.872
810.11	0.82
818.864	0.881
827.619	0.888
836.373	0.882
845.128	0.855
853.883	0.88
862.637	0.893
871.392	0.885
880.146	0.875
888.901	0.882
897.655	0.862
906.41	0.839
915.165	0.736
923.919	0.819
932.674	0.804
941.428	0.774
950.183	0.768
958.937	0.726
967.692	0.77
976.447	0.799
985.201	0.724
993.956	0.625
1002.71	0.642
1011.46	0.612
1020.22	0.651
1028.97	0.649
1037.73	0.628
1046.48	0.654
1055.24	0.685
1063.99	0.716
1072.75	0.732
1081.5	0.735
1090.26	0.698
1099.01	0.575
1107.77	0.707
1116.52	0.714
1125.27	0.685
1134.03	0.597
1142.78	0.689
1151.54	0.57
1160.29	0.721
1169.05	0.628
1177.8	0.707
1186.56	0.741
1195.31	0.742
1204.07	0.77
1212.82	0.736
1221.57	0.742
1230.33	0.68
1239.08	0.783
1247.84	0.764
1256.59	0.656
1265.35	0.73
1274.1	0.698
1282.86	0.678
1291.61	0.778
1300.37	0.789
1309.12	0.8
1317.87	0.738
1326.63	0.744
1335.38	0.735
1344.14	0.715
1352.89	0.719
1361.65	0.662
1370.4	0.547
1379.16	0.512
1387.91	0.649
1396.67	0.603
1405.42	0.683
1414.18	0.707
1422.93	0.685
1431.68	0.617
1440.44	0.527
1449.19	0.509
1457.95	0.462
1466.7	0.484
1475.46	0.728
1484.21	0.796
1492.97	0.832
1501.72	0.844
1510.48	0.857
1519.23	0.865
1527.98	0.873
1536.74	0.88
1545.49	0.889
1554.25	0.894
1563	0.896
1571.76	0.894
1580.51	0.891
1589.27	0.889
1598.02	0.882
1606.78	0.873
1615.53	0.867
1624.28	0.865
1633.04	0.861
1641.79	0.855
1650.55	0.843
1659.3	0.836
1668.06	0.836
1676.81	0.818
1685.57	0.763
1694.32	0.693
1703.08	0.4589
1711.83	0.195
1720.59	0.471
1729.34	0.662
1738.09	0.786
1746.85	0.841
1755.6	0.873
1764.36	0.894
1773.11	0.902
1781.87	0.908
1790.62	0.913
1799.38	0.92
1808.13	0.924
1816.89	0.927
1825.64	0.929
1834.39	0.931
1843.15	0.934
1851.9	0.935
1860.66	0.936
1869.41	0.936
1878.17	0.936
1886.92	0.936
1895.68	0.934
1904.43	0.934
1913.19	0.933
1921.94	0.932
1930.69	0.931
1939.45	0.931
1948.2	0.93
1956.96	0.929
1965.71	0.93
1974.47	0.929
1983.22	0.928
1991.98	0.928
2000.73	0.928
2009.49	0.928
2018.24	0.928
2027	0.928
2035.75	0.928
2044.5	0.928
2053.26	0.928
2062.01	0.927
2070.77	0.927
2079.52	0.927
2088.28	0.926
2097.03	0.926
2105.79	0.926
2114.54	0.926
2123.3	0.926
2132.05	0.926
2140.8	0.926
2149.56	0.926
2158.31	0.926
2167.07	0.926
2175.82	0.924
2184.58	0.923
2193.33	0.922
2202.09	0.9208
2210.84	0.92
2219.6	0.918
2228.35	0.916
2237.1	0.9146
2245.86	0.912
2254.61	0.911
2263.37	0.91
2272.12	0.91
2280.88	0.91
2289.63	0.909
2298.39	0.908
2307.14	0.907
2315.9	0.9045
2324.65	0.8974
2333.41	0.8934
2342.16	0.8872
2350.91	0.8782
2359.67	0.873
2368.42	0.876
2377.18	0.8833
2385.93	0.8941
2394.69	0.897
2403.44	0.897
2412.2	0.8958
2420.95	0.894
2429.71	0.8927
2438.46	0.8906
2447.21	0.889
2455.97	0.887
2464.72	0.886
2473.48	0.8845
2482.23	0.8819
2490.99	0.8768
2499.74	0.8733
2508.5	0.8713
2517.25	0.87
2526.01	0.8682
2534.76	0.8672
2543.51	0.8651
2552.27	0.8641
2561.02	0.8621
2569.78	0.857
2578.53	0.854
2587.29	0.852
2596.04	0.8509
2604.8	0.849
2613.55	0.8468
2622.31	0.8438
2631.06	0.8397
2639.82	0.8357
2648.57	0.833
2657.32	0.8326
2666.08	0.831
2674.83	0.8295
2683.59	0.828
2692.34	0.828
2701.1	0.827
2709.85	0.826
2718.61	0.8253
2727.36	0.8242
2736.12	0.823
2744.87	0.8212
2753.62	0.82
2762.38	0.8162
2771.13	0.812
2779.89	0.8079
2788.64	0.7745
2797.4	0.7285
2806.15	0.6701
2814.91	0.6016
2823.66	0.5181
2832.42	0.414
2841.17	0.2945
2849.92	0.2483
2858.68	0.3106
2867.43	0.3389
2876.19	0.3167
2884.94	0.2729
2893.7	0.2424
2902.45	0.2076
2911.21	0.1616
2919.96	0.1283
2928.72	0.1163
2937.47	0.115
2946.23	0.1438
2954.98	0.2679
2963.73	0.3516
2972.49	0.4013
2981.24	0.5791
2990	0.6155
2998.75	0.6802
3007.51	0.6974
3016.26	0.7304
3025.02	0.7412
3033.77	0.7487
3042.53	0.7566
3051.28	0.759
3060.03	0.759
3068.79	0.759
3077.54	0.759
3086.3	0.758
3095.05	0.757
3103.81	0.7554
3112.56	0.7524
3121.32	0.751
3130.07	0.7476
3138.83	0.7443
3147.58	0.7422
3156.33	0.741
3165.09	0.7381
3173.84	0.7341
3182.6	0.733
3191.35	0.731
3200.11	0.7289
3208.86	0.7248
3217.62	0.7199
3226.37	0.7177
3235.13	0.7128
3243.88	0.7075
3252.64	0.7007
3261.39	0.6914
3270.14	0.686
3278.9	0.6779
3287.65	0.6675
3296.41	0.6575
3305.16	0.6433
3313.92	0.6317
3322.67	0.6054
3331.43	0.5903
3340.18	0.5691
3348.94	0.5513
3357.69	0.5258
3366.44	0.4842
3375.2	0.4543
3383.95	0.4165
3392.71	0.3794
3401.46	0.35
3410.22	0.3504
3418.97	0.3747
3427.73	0.3963
3436.48	0.4442
3445.24	0.489
3453.99	0.514
3462.74	0.5358
3471.5	0.5525
3480.25	0.575
3489.01	0.5973
3497.76	0.6123
3506.52	0.6381
3515.27	0.6579
3524.03	0.6836
3532.78	0.6913
3541.54	0.7037
3550.29	0.7134
3559.05	0.7251
3567.8	0.7316
3576.55	0.7388
3585.31	0.7448
3594.06	0.7489
3602.82	0.751
3611.57	0.7521
3620.33	0.7601
3629.08	0.7621
3637.84	0.7641
3646.59	0.7652
3655.35	0.767
3664.1	0.768
3672.85	0.766
3681.61	0.759
3690.36	0.7608
3699.12	0.7677
3707.87	0.7794
3716.63	0.781
3725.38	0.7826
3734.14	0.783
3742.89	0.783
3751.65	0.783
3760.4	0.783
3769.15	0.7812
3777.91	0.7802
3786.66	0.78
3795.42	0.779
3804.17	0.778
3812.93	0.778
3821.68	0.777
3830.44	0.775
3839.19	0.775
3847.95	0.774
3856.7	0.773
3865.46	0.773
3874.21	0.7727
3882.96	0.7717
3891.72	0.771
3900.47	0.77
3909.23	0.77
3917.98	0.769
3926.74	0.7685
3935.49	0.7664
3944.25	0.765
3953	0.764
3961.76	0.763
3970.51	0.762
3979.26	0.7612
3988.02	0.76
3996.77	0.759
