Infrared Spectrum: ETHYL PYRIDINIUM BROMIDE
Formula: C7 H10 Br N
CAS: 1906-79-2
State: SOLID (MINERAL OIL MULL)
Class: COBLENTZ
Instrument: Not specified, most likely a prism, grating, or hybrid spectrometer.
Sampling: TRANSMISSION
Resolution: 4
Origin: DOW CHEMICAL COMPANY
MICROMETERS	TRANSMITTANCE
2.055	0.74
2.09608	0.738
2.13715	0.736
2.17823	0.735
2.21931	0.719
2.26038	0.716
2.30146	0.716
2.34253	0.716
2.38361	0.716
2.42469	0.716
2.46576	0.723
2.50684	0.728
2.54792	0.729
2.58899	0.748
2.63007	0.752
2.67114	0.74
2.71222	0.721
2.7533	0.588
2.79437	0.42
2.83545	0.261
2.87653	0.217
2.9176	0.206
2.95868	0.244
2.99975	0.324
3.04083	0.417
3.08191	0.459
3.12298	0.548
3.16406	0.519
3.20514	0.476
3.24621	0.372
3.28729	0.278
3.32836	0.323
3.36944	0.27
3.41052	0.422
3.45159	0.471
3.49267	0.642
3.53375	0.748
3.57482	0.782
3.6159	0.788
3.65698	0.779
3.69805	0.782
3.73913	0.793
3.7802	0.805
3.82128	0.805
3.86236	0.801
3.90343	0.808
3.94451	0.822
3.98559	0.825
4.02666	0.825
4.06774	0.832
4.10881	0.839
4.14989	0.841
4.19097	0.808
4.23204	0.846
4.27312	0.858
4.3142	0.859
4.35527	0.851
4.39635	0.846
4.43742	0.846
4.4785	0.846
4.51958	0.851
4.56065	0.847
4.60173	0.846
4.64281	0.835
4.68388	0.82
4.72496	0.808
4.76603	0.794
4.80711	0.782
4.84819	0.777
4.88926	0.781
4.93034	0.801
4.97142	0.815
5.01249	0.837
5.05357	0.847
5.09465	0.851
5.13572	0.858
5.1768	0.87
5.21787	0.887
5.25895	0.883
5.30003	0.882
5.3411	0.878
5.38218	0.885
5.42326	0.892
5.46433	0.9
5.50541	0.902
5.54648	0.887
5.58756	0.916
5.62864	0.897
5.66971	0.917
5.71079	0.905
5.75187	0.911
5.79294	0.912
5.83402	0.89
5.87509	0.875
5.91617	0.876
5.95725	0.835
5.99832	0.789
6.0394	0.712
6.08048	0.519
6.12155	0.311
6.16263	0.555
6.2037	0.7
6.24478	0.769
6.28586	0.748
6.32693	0.782
6.36801	0.873
6.40909	0.882
6.45016	0.883
6.49124	0.883
6.53232	0.866
6.57339	0.815
6.61447	0.652
6.65554	0.394
6.69662	0.285
6.7377	0.22
6.77877	0.326
6.81985	0.319
6.86093	0.393
6.902	0.584
6.94308	0.716
6.98415	0.77
7.02523	0.788
7.06631	0.805
7.10738	0.801
7.14846	0.769
7.18954	0.7
7.23061	0.651
7.27169	0.68
7.31276	0.716
7.35384	0.716
7.39492	0.753
7.43599	0.786
7.47707	0.794
7.51815	0.733
7.55922	0.652
7.6003	0.668
7.64137	0.779
7.68245	0.818
7.72353	0.849
7.7646	0.868
7.80568	0.871
7.84676	0.876
7.88783	0.863
7.92891	0.849
7.96998	0.813
8.01106	0.765
8.05214	0.782
8.09321	0.829
8.13429	0.813
8.17537	0.757
8.21644	0.738
8.25752	0.755
8.2986	0.817
8.33967	0.81
8.38075	0.762
8.42182	0.611
8.4629	0.42
8.50398	0.259
8.54505	0.292
8.58613	0.41
8.62721	0.476
8.66828	0.572
8.70936	0.639
8.75043	0.688
8.79151	0.726
8.83259	0.757
8.87366	0.77
8.91474	0.776
8.95582	0.779
8.99689	0.776
9.03797	0.762
9.07904	0.743
9.12012	0.714
9.1612	0.704
9.20227	0.711
9.24335	0.735
9.28443	0.748
9.3255	0.758
9.36658	0.741
9.40765	0.685
9.44873	0.666
9.48981	0.702
9.53088	0.767
9.57196	0.794
9.61304	0.805
9.65411	0.803
9.69519	0.793
9.73627	0.786
9.77734	0.817
9.81842	0.832
9.85949	0.847
9.90057	0.859
9.94165	0.866
9.98272	0.866
10.0238	0.866
10.0649	0.866
10.106	0.863
10.147	0.854
10.1881	0.834
10.2292	0.793
10.2703	0.748
10.3113	0.752
10.3524	0.817
10.3935	0.844
10.4346	0.858
10.4756	0.859
10.5167	0.866
10.5578	0.868
10.5989	0.861
10.6399	0.856
10.681	0.876
10.7221	0.888
10.7632	0.9
10.8042	0.912
10.8453	0.923
10.8864	0.933
10.9275	0.935
10.9686	0.941
11.0096	0.945
11.0507	0.948
11.0918	0.95
11.1329	0.95
11.1739	0.948
11.215	0.947
11.2561	0.948
11.2972	0.947
11.3382	0.941
11.3793	0.94
11.4204	0.936
11.4615	0.936
11.5025	0.936
11.5436	0.936
11.5847	0.945
11.6258	0.948
11.6669	0.952
11.7079	0.957
11.749	0.957
11.7901	0.957
11.8312	0.957
11.8722	0.957
11.9133	0.955
11.9544	0.953
11.9955	0.95
12.0365	0.941
12.0776	0.933
12.1187	0.921
12.1598	0.897
12.2008	0.878
12.2419	0.847
12.283	0.818
12.3241	0.786
12.3651	0.762
12.4062	0.752
12.4473	0.747
12.4884	0.736
12.5295	0.711
12.5705	0.664
12.6116	0.598
12.6527	0.535
12.6938	0.475
12.7348	0.401
12.7759	0.374
12.817	0.372
12.8581	0.413
12.8991	0.483
12.9402	0.577
12.9813	0.623
13.0224	0.623
13.0634	0.589
13.1045	0.577
13.1456	0.632
13.1867	0.695
13.2277	0.736
13.2688	0.764
13.3099	0.788
13.351	0.796
13.3921	0.803
13.4331	0.803
13.4742	0.801
13.5153	0.796
13.5564	0.791
13.5974	0.789
13.6385	0.786
13.6796	0.779
13.7207	0.769
13.7617	0.764
13.8028	0.757
13.8439	0.75
13.885	0.745
13.926	0.738
13.9671	0.731
14.0082	0.723
14.0493	0.716
14.0904	0.705
14.1314	0.69
14.1725	0.673
14.2136	0.647
14.2547	0.622
14.2957	0.581
14.3368	0.535
14.3779	0.488
14.419	0.422
14.46	0.353
14.5011	0.28
14.5422	0.235
14.5833	0.21
14.6243	0.198
14.6654	0.193
14.7065	0.196
14.7476	0.218
14.7886	0.249
14.8297	0.28
14.8708	0.307
14.9119	0.331
14.953	0.36
14.994	0.372
15.0351	0.389
15.0762	0.396
15.1173	0.401
15.1583	0.406
15.1994	0.411
15.2405	0.415
15.2816	0.417
15.3226	0.418
15.3637	0.418
15.4048	0.418
15.4459	0.415
15.4869	0.413
15.528	0.413
15.5691	0.415
15.6102	0.415
15.6513	0.415
15.6923	0.415
15.7334	0.415
15.7745	0.415
15.8156	0.415
15.8566	0.415
15.8977	0.415
