Infrared Spectrum: 2,6-Difluorobenzyl alcohol
Formula: C 7 H 6 F 2 O
CAS: 19064-18-7
State: gas
Origin: EPA-IR VAPOR PHASE LIBRARY
1/CM	ABSORBANCE
549.8	0.00523
559.445	0.00628
569.09	0.00476
578.734	0.00266
588.379	0.00254
598.024	0.0013523
607.669	0.0019198
617.313	0.0017451
626.958	0.0014655
636.603	0.0015201
646.248	0.000876
655.893	0.00099
665.537	0.00209
675.182	0.00353
684.827	0.00284
694.472	0.00284
704.116	0.001976
713.761	0.00586
723.406	0.01
733.051	0.01213
742.695	0.00682
752.34	0.00349
761.985	0.00634
771.63	0.01552
781.275	0.03307
790.919	0.01742
800.564	0.00747
810.209	0.00359
819.854	0.00448
829.498	0.00602
839.143	0.00393
848.788	0.00239
858.433	0.00234
868.078	0.00263
877.722	0.00341
887.367	0.00408
897.012	0.00773
906.657	0.01309
916.301	0.01418
925.946	0.01025
935.591	0.00746
945.236	0.00596
954.88	0.00652
964.525	0.00681
974.17	0.00783
983.815	0.01034
993.46	0.01501
1003.1	0.02603
1012.75	0.04517
1022.39	0.06213
1032.04	0.05863
1041.68	0.04843
1051.33	0.03223
1060.97	0.01707
1070.62	0.01032
1080.26	0.00718
1089.91	0.00465
1099.55	0.00487
1109.2	0.00339
1118.84	0.00411
1128.49	0.00398
1138.13	0.00539
1147.78	0.00617
1157.42	0.00701
1167.07	0.00934
1176.71	0.01726
1186.36	0.0253
1196	0.02665
1205.64	0.02171
1215.29	0.01644
1224.93	0.02378
1234.58	0.02639
1244.22	0.02147
1253.87	0.01448
1263.51	0.02355
1273.16	0.02624
1282.8	0.01583
1292.45	0.00641
1302.09	0.00539
1311.74	0.00537
1321.38	0.00523
1331.03	0.00501
1340.67	0.0056
1350.32	0.00621
1359.96	0.00711
1369.61	0.01012
1379.25	0.01447
1388.9	0.01606
1398.54	0.01285
1408.18	0.00858
1417.83	0.00632
1427.47	0.00538
1437.12	0.00616
1446.76	0.01141
1456.41	0.02935
1466.05	0.05967
1475.7	0.06078
1485.34	0.03119
1494.99	0.00981
1504.63	0.00458
1514.28	0.00343
1523.92	0.00312
1533.57	0.00421
1543.21	0.00668
1552.86	0.00978
1562.5	0.01215
1572.15	0.01591
1581.79	0.02474
1591.44	0.03064
1601.08	0.02665
1610.73	0.02785
1620.37	0.03896
1630.01	0.02969
1639.66	0.01073
1649.3	0.0043
1658.95	0.00283
1668.59	0.0019274
1678.24	0.0017448
1687.88	0.0016882
1697.53	0.0015408
1707.17	0.0012555
1716.82	0.0012956
1726.46	0.0013695
1736.11	0.00225
1745.75	0.001949
1755.4	0.0013821
1765.04	0.0010307
1774.69	0.0009485
1784.33	0.00107307
1793.98	0.000739
1803.62	0.000831
1813.27	0.0011721
1822.91	0.0016987
1832.55	0.0016699
1842.2	0.0010614
1851.84	0.000729
1861.49	0.000734
1871.13	0.000748
1880.78	0.000687
1890.42	0.00104472
1900.07	0.0017
1909.71	0.00236
1919.36	0.0019445
1929	0.000792
1938.65	0.000909
1948.29	0.0009593
1957.94	0.000861
1967.58	0.000784
1977.23	0.0009414
1986.87	0.0009727
1996.52	0.000879
2006.16	0.00107218
2015.81	0.00111182
2025.45	0.0013246
2035.1	0.0011881
2044.74	0.00106678
2054.38	0.000737
2064.03	0.000751
2073.67	0.00102315
2083.32	0.000628
2092.96	0.000851
2102.61	0.00104288
2112.25	0.000785
2121.9	0.000799
2131.54	0.000721
2141.19	0.00088
2150.83	0.000652
2160.48	0.0009726
2170.12	0.0009924
2179.77	0.000732
2189.41	0.000917
2199.06	0.0009305
2208.7	0.000726
2218.35	0.00105796
2227.99	0.000855
2237.64	0.000758
2247.28	0.000809
2256.92	0.000602
2266.57	0.00107733
2276.21	0.0010005
2285.86	0.0012082
2295.5	0.0012984
2305.15	0.0015468
2314.79	0.0012319
2324.44	0.000762
2334.08	0.00109229
2343.73	0.0009658
2353.37	0.000899
2363.02	0.000773
2372.66	0.000846
2382.31	0.0009239
2391.95	0.00111049
2401.6	0.00103128
2411.24	0.0009941
2420.89	0.0011325
2430.53	0.0010392
2440.18	0.00105521
2449.82	0.000809
2459.47	0.0012113
2469.11	0.00101231
2478.75	0.00081
2488.4	0.0009752
2498.04	0.0011603
2507.69	0.0012488
2517.33	0.0012581
2526.98	0.00108222
2536.62	0.0010701
2546.27	0.00107621
2555.91	0.00111326
2565.56	0.000449
2575.2	0.000771
2584.85	0.00066
2594.49	0.000852
2604.14	0.000841
2613.78	0.00061
2623.43	0.000768
2633.07	0.000894
2642.72	0.000724
2652.36	0.00103716
2662.01	0.0010021
2671.65	0.000703
2681.29	0.000709
2690.94	0.000706
2700.58	0.0012708
2710.23	0.000789
2719.87	0.000525
2729.52	0.0011554
2739.16	0.000819
2748.81	0.00110522
2758.45	0.0009222
2768.1	0.0011323
2777.74	0.0009417
2787.39	0.0010062
2797.03	0.0013166
2806.68	0.00110277
2816.32	0.0013268
2825.97	0.0012797
2835.61	0.0011898
2845.26	0.0015879
2854.9	0.00209
2864.55	0.00242
2874.19	0.00361
2883.84	0.0052
2893.48	0.00783
2903.12	0.00803
2912.77	0.00609
2922.41	0.00408
2932.06	0.00434
2941.7	0.00472
2951.35	0.0052
2960.99	0.0058
2970.64	0.00537
2980.28	0.00533
2989.93	0.00455
2999.57	0.00388
3009.22	0.00281
3018.86	0.00214
3028.51	0.0017549
3038.15	0.00213
3047.8	0.001792
3057.44	0.001529
3067.09	0.00236
3076.73	0.003
3086.38	0.00319
3096.02	0.0029
3105.67	0.0018326
3115.31	0.001352
3124.95	0.000504
3134.6	0.000579
3144.24	0.000752
3153.89	0.000706
3163.53	0.0009993
3173.18	0.000871
3182.82	0.0009626
3192.47	0.000693
3202.11	0.000787
3211.76	0.000307
3221.4	0.000857
3231.05	0.0011477
3240.69	0.000704
3250.34	0.000691
3259.98	0.00053
3269.63	0.000562
3279.27	0.0009207
3288.92	0.000738
3298.56	0.00102449
3308.21	0.0012014
3317.85	0.000688
3327.49	0.000358
3337.14	0.0012113
3346.78	0.000454
3356.43	0.00067
3366.07	0.000542
3375.72	0.000817
3385.36	0.0010065
3395.01	0.000727
3404.65	0.0009248
3414.3	0.000901
3423.94	0.00109015
3433.59	0.000699
3443.23	0.0009647
3452.88	0
3462.52	0.00103664
3472.17	0.0009215
3481.81	0.000753
3491.46	0.000628
3501.1	0.0011781
3510.75	0.000667
3520.39	0.00097
3530.04	0.000801
3539.68	0.000593
3549.32	0.00110504
3558.97	0.00057
3568.61	0.0014495
3578.26	0.000789
3587.9	0.00103593
3597.55	0.0012483
3607.19	0.0018645
3616.84	0.0019909
3626.48	0.00261
3636.13	0.00271
3645.77	0.00667
3655.42	0.01059
3665.06	0.00951
3674.71	0.00525
3684.35	0.00296
3694	0.00242
3703.64	0.00235
3713.29	0.00211
3722.93	0.0017761
3732.58	0.0013907
3742.22	0.0016297
3751.86	0.000582
3761.51	0.00106775
3771.15	0.0012806
3780.8	0.000409
3790.44	0.0009766
3800.09	0.0011301
3809.73	0.000863
3819.38	0.0011628
3829.02	0.0013618
3838.67	0.000423
3848.31	0.0012188
3857.96	0.0013743
3867.6	0.000968
3877.25	0.0012135
3886.89	0.0013624
3896.54	0.000578
3906.18	0.0012465
3915.83	0.001406
3925.47	0.000577
3935.12	0.0014026
3944.76	0.000622
3954.41	0.000911
3964.05	0.00101176
3973.69	0.000921
3983.34	0.000354
3992.98	0.000634
