Infrared Spectrum: NAPHTHALENE, DECAHYDRO-7-ISOPROPENYL-4a-METHYL-1-METHYLENE-
Formula: C15 H24
CAS: 19069-44-4
State: SOLUTION (CCl4 FOR 4000-1330 CM^-^1, CS2 FOR 1330-600 CM^-^1) VS. SOLVENT
Class: COBLENTZ III
Instrument: BECKMAN IR-7 (GRATING)
Instrument parameters: GRATING CHANGES AT 3000, 2200, 1150 CM^-^1
Sampling: TRANSMISSION
Path length: 0.011 CM, 0.011 CM
Resolution: 4
Origin: WESTERN REGIONAL RES. USDA
1/CM	TRANSMITTANCE
598.731	0.439
607.733	0.423
616.735	0.413
625.736	0.462
634.738	0.467
643.74	0.475
652.742	0.475
661.743	0.523
670.745	0.547
679.747	0.566
688.749	0.582
697.75	0.612
706.752	0.621
715.754	0.658
724.756	0.694
733.757	0.717
742.759	0.722
751.761	0.73
760.763	0.741
769.764	0.75
778.766	0.741
787.768	0.645
796.77	0.718
805.771	0.7
814.773	0.725
823.775	0.721
832.777	0.676
841.778	0.65
850.78	0.539
859.782	0.556
868.784	0.459
877.785	0.168
886.787	0
895.789	0.4109
904.791	0.63
913.792	0.703
922.794	0.706
931.796	0.601
940.798	0.639
949.8	0.683
958.801	0.679
967.803	0.674
976.805	0.721
985.807	0.621
994.808	0.659
1003.81	0.66
1012.81	0.715
1021.81	0.689
1030.82	0.682
1039.82	0.671
1048.82	0.683
1057.82	0.742
1066.82	0.723
1075.82	0.726
1084.83	0.721
1093.83	0.692
1102.83	0.702
1111.83	0.727
1120.83	0.722
1129.83	0.695
1138.84	0.651
1147.84	0.586
1156.84	0.708
1165.84	0.602
1174.84	0.626
1183.85	0.733
1192.85	0.725
1201.85	0.713
1210.85	0.702
1219.85	0.742
1228.85	0.718
1237.86	0.689
1246.86	0.683
1255.86	0.678
1264.86	0.651
1273.86	0.72
1282.86	0.679
1291.87	0.696
1300.87	0.712
1309.87	0.684
1318.87	0.668
1327.87	0.649
1336.88	0.644
1345.88	0.648
1354.88	0.638
1363.88	0.589
1372.88	0.375
1381.88	0.566
1390.89	0.645
1399.89	0.625
1408.89	0.587
1417.89	0.621
1426.89	0.521
1435.89	0.26
1444.9	0.316
1453.9	0.28
1462.9	0.457
1471.9	0.528
1480.9	0.619
1489.9	0.623
1498.91	0.605
1507.91	0.575
1516.91	0.551
1525.91	0.516
1534.91	0.458
1543.92	0.395
1552.92	0.397
1561.92	0.456
1570.92	0.498
1579.92	0.512
1588.92	0.542
1597.93	0.601
1606.93	0.638
1615.93	0.642
1624.93	0.624
1633.93	0.5009
1642.93	0.149
1651.94	0.519
1660.94	0.651
1669.94	0.665
1678.94	0.671
1687.94	0.684
1696.95	0.7
1705.95	0.7
1714.95	0.696
1723.95	0.692
1732.95	0.682
1741.95	0.692
1750.96	0.704
1759.96	0.703
1768.96	0.687
1777.96	0.656
1786.96	0.662
1795.96	0.688
1804.97	0.703
1813.97	0.709
1822.97	0.711
1831.97	0.712
1840.97	0.711
1849.98	0.712
1858.98	0.712
1867.98	0.714
1876.98	0.715
1885.98	0.716
1894.98	0.716
1903.99	0.715
1912.99	0.717
1921.99	0.718
1930.99	0.717
1939.99	0.718
1948.99	0.716
1958	0.712
1967	0.717
1976	0.719
1985	0.719
1994	0.715
2003.01	0.718
2012.01	0.719
2021.01	0.72
2030.01	0.721
2039.01	0.722
2048.01	0.723
2057.02	0.723
2066.02	0.724
2075.02	0.724
2084.02	0.725
2093.02	0.7269
2102.02	0.727
2111.03	0.727
2120.03	0.726
2129.03	0.726
2138.03	0.725
2147.03	0.7241
2156.03	0.724
2165.04	0.724
2174.04	0.723
2183.04	0.723
2192.04	0.723
2201.04	0.723
2210.05	0.722
2219.05	0.722
2228.05	0.721
2237.05	0.7182
2246.05	0.7134
2255.05	0.712
2264.06	0.7102
2273.06	0.7052
2282.06	0.7032
2291.06	0.7038
2300.06	0.706
2309.06	0.7062
2318.07	0.703
2327.07	0.703
2336.07	0.702
2345.07	0.7003
2354.07	0.6963
2363.08	0.6977
2372.08	0.7048
2381.08	0.7144
2390.08	0.7177
2399.08	0.718
2408.08	0.719
2417.09	0.72
2426.09	0.72
2435.09	0.719
2444.09	0.719
2453.09	0.718
2462.09	0.7174
2471.1	0.7154
2480.1	0.715
2489.1	0.7156
2498.1	0.7166
2507.1	0.7176
2516.11	0.718
2525.11	0.7174
2534.11	0.7164
2543.11	0.715
2552.11	0.7124
2561.11	0.709
2570.12	0.708
2579.12	0.707
2588.12	0.706
2597.12	0.706
2606.12	0.7025
2615.12	0.7005
2624.13	0.6985
2633.13	0.6955
2642.13	0.6925
2651.13	0.688
2660.13	0.687
2669.14	0.6925
2678.14	0.6975
2687.14	0.697
2696.14	0.6955
2705.14	0.6906
2714.14	0.6856
2723.15	0.683
2732.15	0.686
2741.15	0.6898
2750.15	0.693
2759.15	0.6882
2768.15	0.6806
2777.16	0.6748
2786.16	0.6638
2795.16	0.6427
2804.16	0.6278
2813.16	0.5474
2822.16	0.4309
2831.17	0.1123
2840.17	0.1984
2849.17	0.2227
2858.17	0.1846
2867.17	0.2083
2876.18	0.2073
2885.18	0.1631
2894.18	0.0891
2903.18	0.0635
2912.18	0.0248
2921.18	0.0117
2930.19	0.0181
2939.19	0.0778
2948.19	0.1794
2957.19	0.219
2966.19	0.1807
2975.19	0.2224
2984.2	0.2584
2993.2	0.3897
3002.2	0.5301
3011.2	0.6055
3020.2	0.6192
3029.21	0.6292
3038.21	0.6534
3047.21	0.653
3056.21	0.6292
3065.21	0.5698
3074.21	0.4553
3083.22	0.4426
3092.22	0.5077
3101.22	0.6595
3110.22	0.6865
3119.22	0.6993
3128.22	0.7061
3137.23	0.7081
3146.23	0.7101
3155.23	0.7122
3164.23	0.7151
3173.23	0.7171
3182.24	0.718
3191.24	0.7191
3200.24	0.72
3209.24	0.72
3218.24	0.72
3227.24	0.721
3236.25	0.721
3245.25	0.721
3254.25	0.721
3263.25	0.721
3272.25	0.721
3281.25	0.721
3290.26	0.721
3299.26	0.721
3308.26	0.721
3317.26	0.721
3326.26	0.721
3335.27	0.721
3344.27	0.721
3353.27	0.721
3362.27	0.721
3371.27	0.721
3380.27	0.721
3389.28	0.721
3398.28	0.721
3407.28	0.721
3416.28	0.721
3425.28	0.721
3434.28	0.721
3443.29	0.7201
3452.29	0.72
3461.29	0.72
3470.29	0.72
3479.29	0.72
3488.29	0.72
3497.3	0.721
3506.3	0.721
3515.3	0.721
3524.3	0.721
3533.3	0.721
3542.31	0.721
3551.31	0.721
3560.31	0.721
3569.31	0.721
3578.31	0.721
3587.31	0.7202
3596.32	0.72
3605.32	0.72
3614.32	0.72
3623.32	0.72
3632.32	0.721
3641.32	0.721
3650.33	0.722
3659.33	0.723
3668.33	0.724
3677.33	0.724
3686.33	0.723
3695.34	0.7223
3704.34	0.7213
3713.34	0.721
3722.34	0.721
3731.34	0.721
3740.34	0.721
3749.35	0.721
3758.35	0.721
3767.35	0.721
3776.35	0.721
3785.35	0.721
3794.35	0.721
3803.36	0.721
3812.36	0.7204
3821.36	0.72
3830.36	0.72
3839.36	0.719
3848.37	0.7184
3857.37	0.719
3866.37	0.719
3875.37	0.719
3884.37	0.719
3893.37	0.719
3902.38	0.719
3911.38	0.719
3920.38	0.719
3929.38	0.719
3938.38	0.719
3947.38	0.719
3956.39	0.719
3965.39	0.719
3974.39	0.719
3983.39	0.718
3992.39	0.718
4001.4	0.718
4010.4	0.717
4019.4	0.7159
