Infrared Spectrum: 3-Ethyl-5-hexen-3-ol
Formula: C 8 H 16 O
CAS: 1907-46-6
State: gas
Instrument: HP-GC/MS/IRD
Origin: NIST Mass Spectrometry Data Center
1/CM	ABSORBANCE
550	0.000621
562	0.0002457
574	0.0001917
586	0.0001782
598	0.0004023
610	0.000621
622	0.0007614
634	0.0006642
646	0.0003645
658	0.0001512
670	8.91e-05
682	8.37e-05
694	2.7e-05
706	0.0001431
718	0.0004158
730	0.0008424
742	0.0010314
754	0.0006426
766	0.0006237
778	0.0009207
790	0.0011583
802	0.0009909
814	0.0006372
826	0.0004401
838	0.000648
850	0.001161
862	0.002079
874	0.0026271
886	0.0024381
898	0.0038718
910	0.0078381
922	0.0090018
934	0.0062343
946	0.0070956
958	0.0094662
970	0.0102168
982	0.0093852
994	0.0077247
1006	0.0054216
1018	0.0034992
1030	0.0031374
1042	0.0028188
1054	0.0023247
1066	0.0020979
1078	0.002187
1090	0.0025947
1102	0.0030078
1114	0.0037287
1126	0.0045927
1138	0.0052758
1150	0.0058428
1162	0.0054054
1174	0.0038259
1186	0.0026811
1198	0.0023436
1210	0.0024759
1222	0.0028836
1234	0.0033669
1246	0.0037638
1258	0.0037854
1270	0.0035127
1282	0.003267
1294	0.0032292
1306	0.0031266
1318	0.0029754
1330	0.0030213
1342	0.0032481
1354	0.0036369
1366	0.0040068
1378	0.0044442
1390	0.0040176
1402	0.0026082
1414	0.0023004
1426	0.0028998
1438	0.0043578
1450	0.0057375
1462	0.0057132
1474	0.0039933
1486	0.0019521
1498	0.0009801
1510	0.0006993
1522	0.0005751
1534	0.0004941
1546	0.0004455
1558	0.0004212
1570	0.0003969
1582	0.0003807
1594	0.0003834
1606	0.00054
1618	0.0009693
1630	0.0023031
1642	0.0026838
1654	0.0011475
1666	0.0003186
1678	0.0001836
1690	0.0001134
1702	9.18e-05
1714	8.64e-05
1726	7.56e-05
1738	6.21e-05
1750	3.78e-05
1762	2.97e-05
1774	1.62e-05
1786	3.78e-05
1798	6.75e-05
1810	0.0001539
1822	0.0004563
1834	0.0008181
1846	0.000702
1858	0.0003051
1870	0.0001188
1882	5.94e-05
1894	5.67e-05
1906	4.86e-05
1918	5.94e-05
1930	2.43e-05
1942	2.7e-06
1954	2.43e-05
1966	3.78e-05
1978	5.67e-05
1990	8.64e-05
2002	5.13e-05
2014	3.24e-05
2026	1.62e-05
2038	1.89e-05
2050	2.7e-05
2062	2.97e-05
2074	4.32e-05
2086	3.24e-05
2098	2.7e-05
2110	3.78e-05
2122	4.59e-05
2134	3.78e-05
2146	5.4e-05
2158	5.13e-05
2170	4.32e-05
2182	4.32e-05
2194	5.13e-05
2206	4.86e-05
2218	3.78e-05
2230	3.51e-05
2242	5.4e-05
2254	3.78e-05
2266	3.24e-05
2278	3.78e-05
2290	5.67e-05
2302	4.05e-05
2314	6.21e-05
2326	7.83e-05
2338	0.000108
2350	9.99e-05
2362	0.0001134
2374	0.0001161
2386	0.000108
2398	7.83e-05
2410	0.0001053
2422	0.0001053
2434	7.56e-05
2446	6.48e-05
2458	4.32e-05
2470	5.4e-05
2482	5.67e-05
2494	5.13e-05
2506	3.24e-05
2518	4.32e-05
2530	7.29e-05
2542	6.21e-05
2554	5.94e-05
2566	8.64e-05
2578	0.000108
2590	0.0001485
2602	0.0001242
2614	0.0001458
2626	0.0001458
2638	0.0001485
2650	0.0001512
2662	0.0001512
2674	0.0001998
2686	0.0002295
2698	0.0002349
2710	0.0002943
2722	0.0003537
2734	0.000459
2746	0.0005859
2758	0.0005616
2770	0.0005751
2782	0.0006399
2794	0.000783
2806	0.0009909
2818	0.0012987
2830	0.0018873
2842	0.0028701
2854	0.004401
2866	0.0061506
2878	0.0084186
2890	0.0113697
2902	0.011961
2914	0.0134622
2926	0.0192051
2938	0.0249183
2950	0.0235386
2962	0.0218511
2974	0.027
2986	0.0211167
2998	0.0098199
3010	0.0054216
3022	0.0037125
3034	0.0025137
3046	0.002214
3058	0.0026433
3070	0.0040932
3082	0.0060021
3094	0.0041337
3106	0.0014742
3118	0.0008748
3130	0.000675
3142	0.000567
3154	0.0005157
3166	0.0004077
3178	0.000351
3190	0.0002889
3202	0.0002106
3214	0.0001485
3226	0.000135
3238	0.0001134
3250	8.64e-05
3262	0.0001134
3274	0.0001215
3286	8.37e-05
3298	9.72e-05
3310	4.59e-05
3322	6.48e-05
3334	3.78e-05
3346	6.48e-05
3358	3.24e-05
3370	7.29e-05
3382	6.21e-05
3394	6.48e-05
3406	9.45e-05
3418	0.0001107
3430	0.0001404
3442	0.0001053
3454	6.75e-05
3466	3.51e-05
3478	7.56e-05
3490	3.24e-05
3502	5.67e-05
3514	5.94e-05
3526	4.86e-05
3538	3.51e-05
3550	8.91e-05
3562	0.000108
3574	0.000135
3586	0.0003483
3598	0.0008235
3610	0.0013122
3622	0.0015417
3634	0.0019872
3646	0.0017226
3658	0.0007371
3670	0.0002619
3682	8.64e-05
3694	0.0001188
3706	7.56e-05
3718	2.7e-05
3730	1.89e-05
3742	8.1e-05
3754	2.7e-06
3766	3.51e-05
3778	1.08e-05
3790	5.4e-06
3802	5.4e-05
3814	1.08e-05
3826	3.78e-05
3838	5.4e-05
