Infrared Spectrum: PHENOL, 4,4'-BUTYLIDENE BIS(2,6-DI-TERT-BUTYL)-
Formula: C32 H50 O2
CAS: 19072-79-8
State: SOLID (KBr PELLET)
Class: COBLENTZ
Instrument: Not specified, most likely a prism, grating, or hybrid spectrometer.
Sampling: TRANSMISSION
Resolution: 4
Origin: TENNESSEE EASTMAN COMPANY, RESEARCH LABORATORIES
MICROMETERS	TRANSMITTANCE
2.021	0.912
2.06205	0.909
2.1031	0.909
2.14415	0.91
2.1852	0.91
2.22625	0.909
2.2673	0.891
2.30835	0.891
2.3494	0.893
2.39045	0.891
2.4315	0.893
2.47255	0.895
2.5136	0.895
2.55465	0.897
2.5957	0.897
2.63675	0.9
2.6778	0.893
2.71885	0.511
2.7599	0.566
2.80095	0.548
2.842	0.495
2.88305	0.435
2.9241	0.432
2.96515	0.55
3.0062	0.626
3.04725	0.711
3.0883	0.737
3.12935	0.787
3.1704	0.831
3.21145	0.843
3.2525	0.806
3.29355	0.763
3.3346	0.3
3.37565	0.063
3.4167	0.252
3.45775	0.286
3.4988	0.818
3.53985	0.861
3.5809	0.909
3.62195	0.922
3.663	0.926
3.70405	0.931
3.7451	0.941
3.78615	0.945
3.8272	0.951
3.86825	0.951
3.9093	0.953
3.95035	0.958
3.9914	0.969
4.03245	0.969
4.0735	0.969
4.11455	0.97
4.15561	0.97
4.19666	0.969
4.23771	0.969
4.27876	0.969
4.31981	0.969
4.36086	0.972
4.40191	0.977
4.44296	0.981
4.48401	0.981
4.52506	0.981
4.56611	0.979
4.60716	0.981
4.64821	0.979
4.68926	0.979
4.73031	0.979
4.77136	0.981
4.81241	0.979
4.85346	0.977
4.89451	0.97
4.93556	0.969
4.97661	0.972
5.01766	0.979
5.05871	0.977
5.09976	0.979
5.14081	0.979
5.18186	0.981
5.22291	0.981
5.26396	0.981
5.30501	0.984
5.34606	0.984
5.38711	0.984
5.42816	0.984
5.46921	0.982
5.51026	0.972
5.55131	0.957
5.59236	0.938
5.63341	0.929
5.67446	0.927
5.71551	0.907
5.75656	0.902
5.79761	0.895
5.83866	0.879
5.87971	0.881
5.92076	0.888
5.96181	0.862
6.00286	0.799
6.04391	0.756
6.08496	0.737
6.12601	0.737
6.16706	0.744
6.20811	0.777
6.24916	0.785
6.29021	0.85
6.33126	0.874
6.37231	0.895
6.41336	0.902
6.45441	0.903
6.49546	0.903
6.53651	0.902
6.57756	0.888
6.61861	0.857
6.65966	0.768
6.70071	0.512
6.74176	0.432
6.78281	0.343
6.82386	0.331
6.86491	0.271
6.90596	0.108
6.94701	0.06
6.98806	0.341
7.02911	0.619
7.07016	0.72
7.11121	0.607
7.15226	0.519
7.19331	0.662
7.23436	0.668
7.27541	0.507
7.31646	0.397
7.35751	0.401
7.39856	0.778
7.43961	0.821
7.48066	0.797
7.52171	0.718
7.56276	0.459
7.60381	0.481
7.64486	0.562
7.68591	0.698
7.72696	0.763
7.76801	0.789
7.80906	0.782
7.85011	0.668
7.89116	0.636
7.93221	0.612
7.97326	0.404
8.01431	0.313
8.05536	0.279
8.09641	0.102
8.13746	0.274
8.17851	0.385
8.21956	0.38
8.26061	0.361
8.30166	0.452
8.34272	0.473
8.38377	0.547
8.42482	0.581
8.46587	0.627
8.50692	0.548
8.54797	0.317
8.58902	0.193
8.63007	0.176
8.67112	0.178
8.71217	0.281
8.75322	0.516
8.79427	0.619
8.83532	0.596
8.87637	0.337
8.91742	0.452
8.95847	0.643
8.99952	0.722
9.04057	0.728
9.08162	0.74
9.12267	0.792
9.16372	0.821
9.20477	0.837
9.24582	0.84
9.28687	0.842
9.32792	0.845
9.36897	0.849
9.41002	0.85
9.45107	0.85
9.49212	0.852
9.53317	0.854
9.57422	0.854
9.61527	0.849
9.65632	0.826
9.69737	0.771
9.73842	0.732
9.77947	0.802
9.82052	0.828
9.86157	0.845
9.90262	0.857
9.94367	0.867
9.98472	0.873
10.0258	0.876
10.0668	0.878
10.1079	0.886
10.1489	0.888
10.19	0.89
10.231	0.885
10.2721	0.857
10.3131	0.852
10.3542	0.859
10.3952	0.869
10.4363	0.883
10.4773	0.885
10.5184	0.885
10.5594	0.888
10.6005	0.891
10.6415	0.874
10.6826	0.814
10.7236	0.775
10.7647	0.777
10.8057	0.813
10.8468	0.849
10.8878	0.861
10.9289	0.881
10.9699	0.885
11.011	0.881
11.052	0.847
11.0931	0.797
11.1341	0.749
11.1752	0.605
11.2162	0.533
11.2573	0.593
11.2983	0.663
11.3394	0.74
11.3804	0.756
11.4215	0.716
11.4625	0.67
11.5036	0.77
11.5446	0.766
11.5857	0.816
11.6267	0.861
11.6678	0.902
11.7088	0.921
11.7499	0.924
11.7909	0.927
11.832	0.929
11.873	0.929
11.9141	0.931
11.9551	0.931
11.9962	0.931
12.0372	0.931
12.0783	0.929
12.1193	0.926
12.1604	0.921
12.2014	0.9
12.2425	0.855
12.2835	0.804
12.3246	0.792
12.3656	0.792
12.4067	0.723
12.4477	0.734
12.4888	0.825
12.5298	0.854
12.5709	0.864
12.6119	0.871
12.653	0.871
12.694	0.869
12.7351	0.861
12.7761	0.83
12.8172	0.826
12.8582	0.828
12.8993	0.732
12.9403	0.55
12.9814	0.59
13.0224	0.777
13.0635	0.833
13.1045	0.854
13.1456	0.854
13.1866	0.857
13.2277	0.855
13.2687	0.864
13.3098	0.873
13.3508	0.883
13.3919	0.883
13.4329	0.871
13.474	0.833
13.515	0.78
13.5561	0.728
13.5971	0.735
13.6382	0.778
13.6792	0.811
13.7203	0.842
13.7613	0.862
13.8024	0.883
13.8434	0.891
13.8845	0.903
13.9255	0.905
13.9666	0.91
14.0076	0.912
14.0487	0.915
14.0897	0.915
14.1308	0.917
14.1718	0.919
14.2129	0.921
14.2539	0.921
14.295	0.921
14.336	0.921
14.3771	0.921
14.4181	0.915
14.4592	0.898
14.5002	0.861
14.5413	0.802
14.5823	0.746
14.6234	0.725
14.6644	0.749
14.7055	0.79
14.7465	0.838
14.7876	0.864
14.8286	0.888
14.8697	0.903
14.9107	0.905
14.9518	0.905
14.9928	0.902
15.0339	0.9
15.0749	0.902
15.116	0.903
15.157	0.903
15.1981	0.902
15.2391	0.895
15.2802	0.881
15.3212	0.866
15.3623	0.837
15.4033	0.818
15.4444	0.792
15.4854	0.773
15.5265	0.775
15.5675	0.773
15.6086	0.771
15.6496	0.77
15.6907	0.763
15.7317	0.756
15.7728	0.742
15.8138	0.732
15.8549	0.723
15.8959	0.72
15.937	0.718
15.978	0.711
