Infrared Spectrum: 2,2-Dimethyl-3-heptanone
Formula: C 9 H 18 O
CAS: 19078-97-8
State: gas
Instrument: HP-GC/MS/IRD
Origin: NIST Mass Spectrometry Data Center
1/CM	ABSORBANCE
550	0.000429
562	0.0005808
574	0.0006534
586	0.000231
598	8.25e-05
610	1.32e-05
622	2.31e-05
634	9.9e-06
646	6.27e-05
658	9.57e-05
670	7.59e-05
682	0.0001188
694	0.0002046
706	0.0001881
718	0.0002607
730	0.0002343
742	0.0004323
754	0.0008151
766	0.0009537
778	0.0005181
790	0.0002904
802	0.0003102
814	0.0003729
826	0.0006501
838	0.0006237
850	0.0003168
862	0.0002574
874	0.0003531
886	0.0004719
898	0.0005313
910	0.0004521
922	0.0006237
934	0.0009768
946	0.0013101
958	0.0018051
970	0.0023364
982	0.0025872
994	0.002079
1006	0.0025278
1018	0.002706
1030	0.0025245
1042	0.003597
1054	0.0054582
1066	0.0046233
1078	0.002541
1090	0.0018414
1102	0.002343
1114	0.0035937
1126	0.0033429
1138	0.0019272
1150	0.0010593
1162	0.0007062
1174	0.0007128
1186	0.0009372
1198	0.0012243
1210	0.001452
1222	0.0014883
1234	0.0012705
1246	0.0011682
1258	0.0013464
1270	0.0013662
1282	0.0012837
1294	0.0013332
1306	0.0015411
1318	0.0018348
1330	0.0022704
1342	0.0030426
1354	0.0039864
1366	0.005115
1378	0.0046398
1390	0.0039798
1402	0.0032571
1414	0.002112
1426	0.0019602
1438	0.0022968
1450	0.0035079
1462	0.0050292
1474	0.0065175
1486	0.0052437
1498	0.001881
1510	0.000891
1522	0.0005643
1534	0.0004224
1546	0.0003399
1558	0.0002673
1570	0.0002508
1582	0.0002442
1594	0.0002541
1606	0.0002805
1618	0.0003036
1630	0.0003498
1642	0.0004818
1654	0.0006666
1666	0.001056
1678	0.0018579
1690	0.0039171
1702	0.0095667
1714	0.0168135
1726	0.0135366
1738	0.0046728
1750	0.0015048
1762	0.0007326
1774	0.0004389
1786	0.0003234
1798	0.0002376
1810	0.0002046
1822	0.000198
1834	0.0001749
1846	0.0001254
1858	0.0001188
1870	0.0001188
1882	0.0001023
1894	0.0001023
1906	7.59e-05
1918	7.26e-05
1930	7.26e-05
1942	6.6e-05
1954	6.93e-05
1966	5.94e-05
1978	4.29e-05
1990	3.96e-05
2002	4.62e-05
2014	4.95e-05
2026	4.29e-05
2038	4.95e-05
2050	4.62e-05
2062	6.27e-05
2074	6.27e-05
2086	4.95e-05
2098	3.3e-05
2110	2.97e-05
2122	3.63e-05
2134	3.96e-05
2146	3.3e-05
2158	2.64e-05
2170	2.64e-05
2182	4.29e-05
2194	2.64e-05
2206	2.97e-05
2218	0
2230	2.31e-05
2242	1.32e-05
2254	3.3e-05
2266	3.63e-05
2278	4.62e-05
2290	6.93e-05
2302	8.91e-05
2314	3.3e-05
2326	2.64e-05
2338	2.97e-05
2350	3.96e-05
2362	2.97e-05
2374	4.95e-05
2386	5.28e-05
2398	5.94e-05
2410	6.6e-05
2422	5.28e-05
2434	4.95e-05
2446	1.32e-05
2458	5.94e-05
2470	6.27e-05
2482	6.6e-05
2494	3.96e-05
2506	5.94e-05
2518	5.61e-05
2530	6.27e-05
2542	5.61e-05
2554	6.93e-05
2566	7.92e-05
2578	8.91e-05
2590	0.000132
2602	0.0001287
2614	0.0001617
2626	0.000132
2638	0.0002112
2650	0.0002211
2662	0.0002508
2674	0.0002475
2686	0.0002937
2698	0.0002739
2710	0.0003366
2722	0.0003993
2734	0.0004983
2746	0.0005214
2758	0.0005511
2770	0.0005577
2782	0.00066
2794	0.0007887
2806	0.0010065
2818	0.0012441
2830	0.0016467
2842	0.0023364
2854	0.00396
2866	0.0074052
2878	0.0109032
2890	0.0110847
2902	0.0107151
2914	0.0131505
2926	0.0157212
2938	0.0194139
2950	0.0228558
2962	0.0304062
2974	0.0310431
2986	0.0173547
2998	0.0076527
3010	0.0034287
3022	0.0019404
3034	0.0013365
3046	0.0010197
3058	0.0008217
3070	0.0007227
3082	0.0006699
3094	0.0006501
3106	0.0006072
3118	0.0005148
3130	0.0004488
3142	0.0004653
3154	0.000462
3166	0.0004389
3178	0.0004389
3190	0.000429
3202	0.0003795
3214	0.0003069
3226	0.0002607
3238	0.0002244
3250	0.0002079
3262	0.0001353
3274	0.0001023
3286	8.91e-05
3298	0.0001056
3310	0.0001419
3322	0.0001386
3334	7.59e-05
3346	0.0001254
3358	0.0001254
3370	0.0001518
3382	0.0001749
3394	0.000231
3406	0.0003135
3418	0.0003828
3430	0.0002871
3442	0.0001221
3454	0.0001023
3466	2.64e-05
3478	6.27e-05
3490	4.62e-05
3502	5.94e-05
3514	9.9e-06
3526	1.65e-05
3538	1.65e-05
3550	2.64e-05
3562	4.29e-05
3574	2.64e-05
3586	3.3e-06
3598	1.98e-05
3610	6.6e-06
3622	1.32e-05
3634	2.64e-05
3646	2.97e-05
3658	4.95e-05
3670	9.9e-06
3682	3.96e-05
3694	2.31e-05
3706	3.63e-05
3718	2.97e-05
3730	3.63e-05
3742	2.64e-05
3754	4.29e-05
3766	1.98e-05
3778	3.63e-05
3790	7.26e-05
3802	7.26e-05
3814	8.58e-05
3826	9.57e-05
3838	8.91e-05
