Infrared Spectrum: TRIETHYL TIN ACETATE
Formula: C8 H18 O2 Sn
CAS: 1907-13-7
State: SOLID (MINERAL OIL MULL)
Class: COBLENTZ
Instrument: Not specified, most likely a prism, grating, or hybrid spectrometer.
Sampling: TRANSMISSION
Resolution: 4
Origin: WYANDOTTE CHEMICALS CORP., WYANDOTTE, MICHIGAN, USA
MICROMETERS	TRANSMITTANCE
2.025	0.792
2.0622	0.795
2.0994	0.806
2.1366	0.817
2.1738	0.817
2.211	0.809
2.2482	0.792
2.2854	0.799
2.3226	0.806
2.3598	0.814
2.397	0.823
2.4342	0.83
2.4714	0.839
2.5086	0.848
2.5458	0.85
2.583	0.87
2.6202	0.876
2.6574	0.898
2.6946	0.908
2.7318	0.909
2.769	0.906
2.8062	0.901
2.8434	0.898
2.8806	0.897
2.9178	0.883
2.955	0.872
2.9922	0.869
3.0294	0.87
3.0666	0.873
3.1038	0.867
3.141	0.842
3.1782	0.813
3.2154	0.809
3.2526	0.788
3.2898	0.71
3.327	0.456
3.3642	0.065
3.4014	0.034
3.4386	0.057
3.4758	0.085
3.513	0.121
3.5502	0.52
3.5874	0.749
3.6246	0.825
3.6618	0.823
3.699	0.834
3.7362	0.864
3.7734	0.878
3.8106	0.897
3.8478	0.904
3.885	0.914
3.9222	0.923
3.9594	0.933
3.9966	0.94
4.0338	0.933
4.071	0.934
4.1082	0.939
4.1454	0.943
4.1826	0.942
4.2198	0.95
4.257	0.94
4.2942	0.95
4.3314	0.957
4.3686	0.971
4.4058	0.99
4.443	0.993
4.4802	0.993
4.5174	0.993
4.5546	0.998
4.5918	0.995
4.629	0.995
4.6662	0.993
4.7034	0.993
4.7406	0.993
4.7778	0.998
4.815	1.001
4.8522	1.003
4.8894	1.001
4.9266	1.001
4.9638	1.006
5.001	1.004
5.0382	1.004
5.0754	1.004
5.1126	1.003
5.1498	1.004
5.187	1.001
5.2242	1.003
5.2614	1.004
5.2986	1.001
5.3358	1.004
5.373	1.004
5.4102	1.003
5.4474	1.004
5.4846	1.001
5.5218	1.004
5.559	1.001
5.5962	1.003
5.6334	1
5.6706	1
5.7078	0.996
5.745	0.989
5.7822	0.99
5.8194	0.964
5.8566	0.942
5.8938	0.931
5.931	0.9
5.9682	0.878
6.0054	0.838
6.0426	0.811
6.0798	0.764
6.117	0.674
6.1542	0.546
6.1914	0.358
6.2286	0.165
6.2658	0.046
6.303	0.049
6.3402	0.049
6.3774	0.065
6.4146	0.087
6.4518	0.149
6.489	0.228
6.5262	0.3
6.5634	0.39
6.6006	0.461
6.6378	0.507
6.675	0.523
6.7122	0.489
6.7494	0.394
6.7866	0.197
6.8238	0.155
6.861	0.158
6.8982	0.155
6.9354	0.13
6.9726	0.098
7.0098	0.08
7.047	0.077
7.0842	0.101
7.1214	0.152
7.1586	0.211
7.1958	0.239
7.233	0.2
7.2702	0.261
7.3074	0.376
7.3446	0.493
7.3818	0.524
7.419	0.417
7.4562	0.386
7.4934	0.524
7.5306	0.595
7.5678	0.637
7.605	0.671
7.6422	0.685
7.6794	0.71
7.7166	0.735
7.7538	0.747
7.791	0.764
7.8282	0.766
7.8654	0.766
7.9026	0.783
7.9398	0.783
7.977	0.78
8.0142	0.755
8.0514	0.696
8.0886	0.616
8.1258	0.637
8.163	0.696
8.2002	0.739
8.2374	0.758
8.2746	0.761
8.3118	0.747
8.349	0.697
8.3862	0.672
8.4234	0.693
8.4606	0.766
8.4978	0.808
8.535	0.825
8.5722	0.836
8.6094	0.853
8.6466	0.866
8.6838	0.875
8.721	0.89
8.7582	0.904
8.7954	0.911
8.8326	0.901
8.8698	0.892
8.907	0.867
8.9442	0.85
8.9814	0.839
9.0186	0.816
9.0558	0.814
9.093	0.809
9.1302	0.803
9.1674	0.788
9.2046	0.781
9.2418	0.774
9.279	0.775
9.3162	0.783
9.3534	0.794
9.3906	0.8
9.4278	0.795
9.465	0.791
9.5022	0.777
9.5394	0.753
9.5766	0.744
9.6138	0.733
9.651	0.722
9.6882	0.683
9.7254	0.599
9.7626	0.5
9.7998	0.42
9.837	0.4
9.8742	0.448
9.9114	0.509
9.9486	0.557
9.9858	0.612
10.023	0.68
10.0602	0.722
10.0974	0.753
10.1346	0.771
10.1718	0.788
10.209	0.791
10.2462	0.781
10.2834	0.753
10.3206	0.716
10.3578	0.674
10.395	0.672
10.4322	0.671
10.4694	0.637
10.5066	0.604
10.5438	0.609
10.581	0.638
10.6182	0.688
10.6554	0.73
10.6926	0.719
10.7298	0.704
10.767	0.767
10.8042	0.806
10.8414	0.839
10.8786	0.85
10.9158	0.866
10.953	0.88
10.9902	0.89
11.0274	0.895
11.0646	0.904
11.1018	0.906
11.139	0.909
11.1762	0.909
11.2134	0.911
11.2506	0.909
11.2878	0.909
11.325	0.914
11.3622	0.917
11.3994	0.92
11.4366	0.917
11.4738	0.919
11.511	0.92
11.5482	0.92
11.5854	0.919
11.6226	0.917
11.6598	0.915
11.697	0.915
11.7342	0.914
11.7714	0.911
11.8086	0.914
11.8458	0.911
11.883	0.911
11.9202	0.908
11.9574	0.908
11.9946	0.908
12.0318	0.908
12.069	0.909
12.1062	0.909
12.1434	0.909
12.1806	0.911
12.2178	0.911
12.255	0.912
12.2922	0.911
12.3294	0.911
12.3666	0.909
12.4038	0.908
12.441	0.909
12.4782	0.906
12.5154	0.904
12.5526	0.908
12.5898	0.901
12.627	0.901
12.6642	0.892
12.7014	0.889
12.7386	0.881
12.7758	0.88
12.813	0.876
12.8502	0.87
12.8874	0.866
12.9246	0.862
12.9618	0.862
12.999	0.864
13.0362	0.859
13.0734	0.862
13.1106	0.861
13.1478	0.861
13.185	0.861
13.2222	0.861
13.2594	0.862
13.2966	0.859
13.3338	0.859
13.371	0.855
13.4082	0.855
13.4454	0.852
13.4826	0.841
13.5198	0.834
13.557	0.823
13.5942	0.822
13.6314	0.82
13.6686	0.82
13.7058	0.817
13.743	0.811
13.7802	0.805
13.8174	0.803
13.8546	0.791
13.8918	0.781
13.929	0.783
13.9662	0.789
14.0034	0.8
14.0406	0.805
14.0778	0.805
14.115	0.802
14.1522	0.797
14.1894	0.794
14.2266	0.792
14.2638	0.789
14.301	0.774
14.3382	0.764
14.3754	0.755
14.4126	0.738
14.4498	0.724
14.487	0.7
14.5242	0.677
14.5614	0.652
14.5986	0.616
14.6358	0.58
14.673	0.543
14.7102	0.493
14.7474	0.461
14.7846	0.442
14.8218	0.411
14.859	0.39
14.8962	0.364
14.9334	0.345
14.9706	0.331
15.0078	0.325
15.045	0.342
15.0822	0.358
15.1194	0.352
15.1566	0.338
15.1938	0.341
15.231	0.352
15.2682	0.361
15.3054	0.372
15.3426	0.384
15.3798	0.404
15.417	0.419
15.4542	0.445
15.4914	0.473
15.5286	0.501
15.5658	0.529
15.603	0.543
15.6402	0.56
15.6774	0.584
15.7146	0.593
15.7518	0.598
15.789	0.599
15.8262	0.599
15.8634	0.601
15.9006	0.602
15.9378	0.609
15.975	0.607
16.0122	0.609
