Infrared Spectrum: Aniline, N-tert-butyl-3-chloro-
Formula: C10 H14 Cl N
CAS: 19088-39-2
State: LIQUID (NEAT)
Class: COBLENTZ III
Instrument: BECKMAN IR-4 (HYBRID PRISM-GRATING)
Instrument parameters: NaCl PRISM
Sampling: TRANSMISSION
Path length: CAPILLARY
Resolution: 2
Origin: MONSANTO (J. FREEMAN)
1/CM	TRANSMITTANCE
624.436	0.6153
633.272	0.6211
642.108	0.6326
650.945	0.638
659.781	0.6304
668.617	0.6278
677.453	0.417
686.289	0.287
695.126	0.4803
703.962	0.5222
712.798	0.5334
721.634	0.6001
730.47	0.661
739.307	0.6746
748.143	0.5234
756.979	0.1254
765.815	0.1905
774.651	0.4502
783.488	0.6259
792.324	0.7416
801.16	0.7732
809.996	0.783
818.832	0.7725
827.669	0.6342
836.505	0.3136
845.341	0.4169
854.177	0.5253
863.013	0.5889
871.85	0.6219
880.686	0.5062
889.522	0.6834
898.358	0.8275
907.194	0.8438
916.031	0.8299
924.867	0.8152
933.703	0.851
942.539	0.817
951.375	0.7368
960.212	0.6869
969.048	0.6395
977.884	0.6191
986.72	0.1766
995.556	0.5219
1004.39	0.8257
1013.23	0.8617
1022.07	0.8105
1030.9	0.8107
1039.74	0.8767
1048.57	0.8978
1057.41	0.8939
1066.25	0.8356
1075.08	0.4784
1083.92	0.7676
1092.75	0.415
1101.59	0.7068
1110.43	0.848
1119.26	0.8857
1128.1	0.8891
1136.94	0.8909
1145.77	0.885
1154.61	0.8261
1163.44	0.5796
1172.28	0.6425
1181.12	0.745
1189.95	0.6095
1198.79	0.3269
1207.63	0.2077
1216.46	0.0641
1225.3	0.134
1234.13	0.3954
1242.97	0.5137
1251.81	0.3441
1260.64	0.4006
1269.48	0.5964
1278.31	0.6545
1287.15	0.6411
1295.99	0.6278
1304.82	0.609
1313.66	0.4737
1322.5	0.3096
1331.33	0.1842
1340.17	0.3838
1349	0.5873
1357.84	0.6241
1366.68	0.1809
1375.51	0.5247
1384.35	0.6357
1393.19	0.2595
1402.02	0.5963
1410.86	0.5896
1419.69	0.5601
1428.53	0.6199
1437.37	0.665
1446.2	0.588
1455.04	0.4852
1463.88	0.2461
1472.71	0.1639
1481.55	0.0305
1490.38	0.1384
1499.22	0.142
1508.06	0.0869
1516.89	0.2258
1525.73	0.4092
1534.56	0.5627
1543.4	0.6684
1552.24	0.7165
1561.07	0.6123
1569.91	0.2938
1578.75	0.1171
1587.58	0.0287
1596.42	0.0001
1605.25	0.1441
1614.09	0.3483
1622.93	0.5503
1631.76	0.6885
1640.6	0.8034
1649.44	0.8367
1658.27	0.8646
1667.11	0.8642
1675.94	0.8631
1684.78	0.8688
1693.62	0.8754
1702.45	0.8871
1711.29	0.8914
1720.13	0.8943
1728.96	0.8968
1737.8	0.9041
1746.63	0.9112
1755.47	0.9164
1764.31	0.918
1773.14	0.9182
1781.98	0.9168
1790.81	0.9124
1799.65	0.9053
1808.49	0.899
1817.32	0.8925
1826.16	0.8936
1835	0.9018
1843.83	0.9087
1852.67	0.9117
1861.5	0.9065
1870.34	0.9095
1879.18	0.9114
1888.01	0.9039
1896.85	0.8952
1905.69	0.8852
1914.52	0.8745
1923.36	0.8796
1932.19	0.8941
1941.03	0.9011
1949.87	0.906
1958.7	0.9089
1967.54	0.9116
1976.37	0.9135
1985.21	0.9133
1994.05	0.9125
2002.88	0.9173
2011.72	0.9192
2020.56	0.9197
2029.39	0.9204
2038.23	0.9208
2047.06	0.9208
2055.9	0.9206
2064.74	0.9201
2073.57	0.9196
2082.41	0.9188
2091.25	0.9177
2100.08	0.9165
2108.92	0.9153
2117.75	0.9142
2126.59	0.9144
2135.43	0.9158
2144.26	0.9174
2153.1	0.9172
2161.94	0.9152
2170.77	0.9138
2179.61	0.9137
2188.44	0.9142
2197.28	0.9152
2206.12	0.9162
2214.95	0.9174
2223.79	0.9187
2232.62	0.9197
2241.46	0.9202
2250.3	0.92
2259.13	0.9186
2267.97	0.9166
2276.81	0.9137
2285.64	0.9113
2294.48	0.9094
2303.31	0.9088
2312.15	0.91
2320.99	0.9112
2329.82	0.9127
2338.66	0.9142
2347.5	0.9162
2356.33	0.9187
2365.17	0.9238
2374	0.9267
2382.84	0.9255
2391.68	0.9191
2400.51	0.9123
2409.35	0.9113
2418.19	0.9126
2427.02	0.9132
2435.86	0.9135
2444.69	0.9136
2453.53	0.9137
2462.37	0.9135
2471.2	0.9132
2480.04	0.9134
2488.87	0.9139
2497.71	0.9157
2506.55	0.9169
2515.38	0.9156
2524.22	0.9129
2533.06	0.909
2541.89	0.9049
2550.73	0.9013
2559.56	0.8978
2568.4	0.8951
2577.24	0.8946
2586.07	0.8958
2594.91	0.898
2603.75	0.9001
2612.58	0.9023
2621.42	0.9044
2630.25	0.9067
2639.09	0.909
2647.93	0.911
2656.76	0.9124
2665.6	0.9123
2674.43	0.9114
2683.27	0.9096
2692.11	0.9084
2700.94	0.9072
2709.78	0.9061
2718.62	0.9053
2727.45	0.9048
2736.29	0.9048
2745.12	0.9049
2753.96	0.9051
2762.8	0.9054
2771.63	0.9054
2780.47	0.905
2789.31	0.903
2798.14	0.8993
2806.98	0.894
2815.81	0.8871
2824.65	0.8797
2833.49	0.8686
2842.32	0.8532
2851.16	0.8356
2860	0.7317
2868.83	0.6138
2877.67	0.6116
2886.5	0.61
2895.34	0.6061
2904.18	0.5667
2913.01	0.5388
2921.85	0.5118
2930.68	0.4869
2939.52	0.3954
2948.36	0.3012
2957.19	0.2075
2966.03	0.1723
2974.87	0.2032
2983.7	0.3064
2992.54	0.4089
3001.37	0.5109
3010.21	0.6069
3019.05	0.6677
3027.88	0.7299
3036.72	0.7745
3045.56	0.789
3054.39	0.7965
3063.23	0.8035
3072.06	0.8082
3080.9	0.8135
3089.74	0.8212
3098.57	0.8331
3107.41	0.8549
3116.25	0.8929
3125.08	0.8975
3133.92	0.8986
3142.75	0.8994
3151.59	0.8999
3160.43	0.9004
3169.26	0.9011
3178.1	0.9019
3186.93	0.9028
3195.77	0.9086
3204.61	0.912
3213.44	0.9141
3222.28	0.9154
3231.12	0.9166
3239.95	0.9172
3248.79	0.9173
3257.62	0.9164
3266.46	0.9148
3275.3	0.9123
3284.13	0.9094
3292.97	0.9055
3301.81	0.901
3310.64	0.8944
3319.48	0.8871
3328.31	0.8791
3337.15	0.8699
3345.99	0.8592
3354.82	0.8467
3363.66	0.8075
3372.49	0.7526
3381.33	0.6981
3390.17	0.6437
3399	0.5938
3407.84	0.5838
3416.68	0.6046
3425.51	0.7111
3434.35	0.8158
3443.18	0.8542
3452.02	0.8777
3460.86	0.8871
3469.69	0.8966
3478.53	0.9049
3487.37	0.912
3496.2	0.9175
3505.04	0.9216
3513.87	0.9248
3522.71	0.9263
3531.55	0.9278
3540.38	0.9283
3549.22	0.9287
3558.06	0.929
3566.89	0.9293
3575.73	0.9294
3584.56	0.9296
3593.4	0.9298
3602.24	0.9299
3611.07	0.9299
3619.91	0.93
3628.74	0.93
3637.58	0.9299
3646.42	0.9296
3655.25	0.9295
3664.09	0.929
3672.93	0.9284
3681.76	0.9279
3690.6	0.9273
3699.43	0.9267
3708.27	0.926
3717.11	0.9266
3725.94	0.9282
3734.78	0.9306
3743.62	0.9338
3752.45	0.9362
3761.29	0.9376
3770.12	0.9373
3778.96	0.937
3787.8	0.9361
3796.63	0.9345
3805.47	0.932
3814.3	0.9289
3823.14	0.9244
3831.98	0.9238
3840.81	0.9245
3849.65	0.9254
3858.49	0.9264
3867.32	0.9275
3876.16	0.9286
3884.99	0.93
3893.83	0.9315
3902.67	0.933
3911.5	0.934
3920.34	0.9343
3929.18	0.9343
