Infrared Spectrum: 6-CHLORO-2-ETHYLPURINE
Formula: C7 H7 Cl N4
CAS: 1908-23-2
State: SOLID (0.6 mg / 650 mg KBr DISC)
Class: COBLENTZ III
Instrument: PERKIN-ELMER 21 (GRATING)
Instrument parameters: FILTER CHANGE AT 1090 CM^-^1
Sampling: TRANSMISSION
Resolution: 2
Origin: SOUTHERN RESEARCH INSTITUTE
1/CM	TRANSMITTANCE
611.429	0.842
620.564	0.8154
629.7	0.7214
638.835	0.6753
647.971	0.5229
657.106	0.8393
666.241	0.9
675.377	0.894
684.512	0.8878
693.648	0.8807
702.783	0.8722
711.918	0.859
721.054	0.8491
730.189	0.8419
739.324	0.841
748.46	0.8302
757.595	0.8242
766.731	0.8182
775.866	0.7942
785.001	0.7709
794.137	0.7378
803.272	0.5883
812.408	0.548
821.543	0.76
830.678	0.7497
839.814	0.7277
848.949	0.6954
858.085	0.6399
867.22	0.5184
876.355	0.2455
885.491	0.4488
894.626	0.5057
903.762	0.5861
912.897	0.6904
922.032	0.6513
931.168	0.5521
940.303	0.6
949.439	0.4634
958.574	0.2045
967.709	0.6867
976.845	0.7854
985.98	0.7749
995.115	0.7349
1004.25	0.7741
1013.39	0.79
1022.52	0.7783
1031.66	0.763
1040.79	0.6939
1049.93	0.7689
1059.06	0.792
1068.2	0.7784
1077.33	0.749
1086.47	0.784
1095.6	0.783
1104.74	0.771
1113.88	0.7499
1123.01	0.6998
1132.15	0.6383
1141.28	0.6968
1150.42	0.7492
1159.55	0.7507
1168.69	0.7384
1177.82	0.7
1186.96	0.6174
1196.09	0.402
1205.23	0.6125
1214.36	0.3703
1223.5	0.247
1232.64	0.6898
1241.77	0.727
1250.91	0.7203
1260.04	0.6234
1269.18	0.4481
1278.31	0.3264
1287.45	0.5666
1296.58	0.633
1305.72	0.674
1314.85	0.7737
1323.99	0.7654
1333.13	0.7343
1342.26	0.6998
1351.4	0.6692
1360.53	0.5328
1369.67	0.2786
1378.8	0.3742
1387.94	0.1814
1397.07	0.1281
1406.21	0.4948
1415.34	0.4001
1424.48	0.5119
1433.61	0.686
1442.75	0.683
1451.89	0.6549
1461.02	0.6566
1470.16	0.6674
1479.29	0.6497
1488.43	0.512
1497.56	0.6867
1506.7	0.748
1515.83	0.7538
1524.97	0.7147
1534.1	0.7
1543.24	0.6504
1552.37	0.5358
1561.51	0.3648
1570.65	0.0688
1579.78	0.1892
1588.92	0.59
1598.05	0.6404
1607.19	0.5145
1616.32	0.4261
1625.46	0.3758
1634.59	0.614
1643.73	0.7156
1652.86	0.7388
1662	0.741
1671.13	0.7372
1680.27	0.7248
1689.41	0.7085
1698.54	0.7006
1707.68	0.696
1716.81	0.689
1725.95	0.7042
1735.08	0.716
1744.22	0.725
1753.35	0.731
1762.49	0.731
1771.62	0.7294
1780.76	0.7213
1789.89	0.713
1799.03	0.7136
1808.17	0.732
1817.3	0.7474
1826.44	0.749
1835.57	0.7533
1844.71	0.7572
1853.84	0.7633
1862.98	0.769
1872.11	0.774
1881.25	0.779
1890.38	0.781
1899.52	0.781
1908.65	0.7837
1917.79	0.785
1926.93	0.7862
1936.06	0.79
1945.2	0.792
1954.33	0.792
1963.47	0.7946
1972.6	0.796
1981.74	0.796
1990.87	0.796
2000.01	0.797
2009.14	0.798
2018.28	0.798
2027.41	0.8
2036.55	0.8
2045.69	0.797
2054.82	0.796
2063.96	0.797
2073.09	0.796
2082.23	0.793
2091.36	0.793
2100.5	0.794
2109.63	0.794
2118.77	0.793
2127.9	0.792
2137.04	0.788
2146.17	0.781
2155.31	0.779
2164.45	0.776
2173.58	0.772
2182.72	0.769
2191.85	0.765
2200.99	0.76
2210.12	0.753
2219.26	0.747
2228.39	0.738
2237.53	0.729
2246.66	0.722
2255.8	0.718
2264.94	0.714
2274.07	0.708
2283.21	0.705
2292.34	0.696
2301.48	0.682
2310.61	0.664
2319.75	0.64
2328.88	0.619
2338.02	0.607
2347.15	0.592
2356.29	0.584
2365.42	0.58
2374.56	0.581
2383.7	0.58
2392.83	0.575
2401.97	0.57
2411.1	0.561
2420.24	0.552
2429.37	0.545
2438.51	0.538
2447.64	0.527
2456.78	0.516
2465.91	0.492
2475.05	0.469
2484.18	0.46
2493.32	0.451
2502.46	0.433
2511.59	0.412
2520.73	0.41
2529.86	0.41
2539	0.409
2548.13	0.406
2557.27	0.403
2566.4	0.41
2575.54	0.419
2584.67	0.419
2593.81	0.416
2602.94	0.412
2612.08	0.407
2621.22	0.4
2630.35	0.394
2639.49	0.384
2648.62	0.371
2657.76	0.365
2666.89	0.363
2676.03	0.358
2685.16	0.366
2694.3	0.366
2703.43	0.365
2712.57	0.366
2721.7	0.375
2730.84	0.379
2739.98	0.378
2749.11	0.37
2758.25	0.362
2767.38	0.358
2776.52	0.363
2785.65	0.376
2794.79	0.396
2803.92	0.427
2813.06	0.442
2822.19	0.455
2831.33	0.465
2840.46	0.47
2849.6	0.47
2858.74	0.467
2867.87	0.461
2877.01	0.455
2886.14	0.447
2895.28	0.438
2904.41	0.418
2913.55	0.411
2922.68	0.407
2931.82	0.38
2940.95	0.378
2950.09	0.394
2959.22	0.394
2968.36	0.392
2977.5	0.402
2986.63	0.4461
2995.77	0.523
3004.9	0.55
3014.04	0.55
3023.17	0.552
3032.31	0.561
3041.44	0.565
3050.58	0.563
3059.71	0.558
3068.85	0.56
3077.99	0.567
3087.12	0.572
3096.26	0.574
3105.39	0.571
3114.53	0.587
3123.66	0.6561
3132.8	0.681
3141.93	0.701
3151.07	0.717
3160.2	0.723
3169.34	0.729
3178.47	0.734
3187.61	0.739
3196.75	0.741
3205.88	0.743
3215.02	0.75
3224.15	0.753
3233.29	0.756
3242.42	0.756
3251.56	0.757
3260.69	0.758
3269.83	0.758
3278.96	0.758
3288.1	0.76
3297.23	0.761
3306.37	0.76
3315.51	0.752
3324.64	0.741
3333.78	0.736
3342.91	0.731
3352.05	0.723
3361.18	0.714
3370.32	0.704
3379.45	0.69
3388.59	0.681
3397.72	0.663
3406.86	0.655
3415.99	0.643
3425.13	0.643
3434.27	0.642
3443.4	0.642
3452.54	0.647
3461.67	0.651
3470.81	0.658
3479.94	0.659
3489.08	0.661
3498.21	0.67
3507.35	0.676
3516.48	0.681
3525.62	0.687
3534.75	0.695
3543.89	0.704
3553.03	0.713
3562.16	0.722
3571.3	0.732
3580.43	0.743
3589.57	0.752
3598.7	0.765
3607.84	0.779
3616.97	0.781
3626.11	0.783
3635.24	0.789
3644.38	0.8
3653.51	0.811
3662.65	0.814
3671.79	0.814
3680.92	0.816
3690.06	0.821
3699.19	0.823
3708.33	0.825
3717.46	0.829
3726.6	0.83
3735.73	0.832
3744.87	0.832
3754	0.832
3763.14	0.833
3772.27	0.834
3781.41	0.836
3790.55	0.837
3799.68	0.827
3808.82	0.827
3817.95	0.827
3827.09	0.825
3836.22	0.824
3845.36	0.823
3854.49	0.82
3863.63	0.814
3872.76	0.82
3881.9	0.818
3891.03	0.827
3900.17	0.828
3909.31	0.823
3918.44	0.825
3927.58	0.832
3936.71	0.82
3945.85	0.816
3954.98	0.819
3964.12	0.82
3973.25	0.82
3982.39	0.82
3991.52	0.819
4000.66	0.823
