Infrared Spectrum: 9H-Purine-6(1H)-thione, 9-Beta-D-ribofuranosyl-, 2',3'-diacetate, 5'-bis(3,5-dimethylphenyl)phosphate
Formula: C30 H33 N4 O9 P S
CAS: 19083-26-2
State: SOLID (1 mg / 650 mg KBr DISC)
Class: COBLENTZ III
Instrument: PERKIN-ELMER 221 (GRATING)
Instrument parameters: FILTER AT 2490, 980 CM^-^1. GRATING 4000-1428 CM^-^1, NaCl PRISM 1428-650 CM^-^1
Sampling: TRANSMISSION
Resolution: 2
Origin: SOUTHERN RESEARCH INSTITUTE
1/CM	TRANSMITTANCE
651.29	0.6776
660.328	0.7509
669.365	0.743
678.403	0.5642
687.44	0.6948
696.478	0.7798
705.516	0.7935
714.553	0.7902
723.591	0.7716
732.629	0.7539
741.666	0.7717
750.704	0.784
759.741	0.7692
768.779	0.7315
777.817	0.7643
786.854	0.7163
795.892	0.6775
804.93	0.6512
813.967	0.6255
823.005	0.5596
832.042	0.5272
841.08	0.4361
850.118	0.4887
859.155	0.4531
868.193	0.3549
877.231	0.2878
886.268	0.3922
895.306	0.4196
904.343	0.5244
913.381	0.5342
922.419	0.5157
931.456	0.5335
940.494	0.4579
949.532	0.3747
958.569	0.2192
967.607	0.1745
976.644	0.2773
985.682	0.364
994.72	0.3988
1003.76	0.3415
1012.79	0.2281
1021.83	0.1267
1030.87	0.0965
1039.91	0.1377
1048.95	0.1613
1057.98	0.2613
1067.02	0.3432
1076.06	0.3842
1085.1	0.3885
1094.13	0.3881
1103.17	0.3891
1112.21	0.3903
1121.25	0.2745
1130.28	0.2215
1139.32	0.4215
1148.36	0.5389
1157.4	0.5454
1166.43	0.5369
1175.47	0.4042
1184.51	0.2429
1193.55	0.2037
1202.59	0.2241
1211.62	0.2245
1220.66	0.2128
1229.7	0.178
1238.74	0.1762
1247.77	0.2665
1256.81	0.3753
1265.85	0.3822
1274.89	0.2315
1283.92	0.1918
1292.96	0.3042
1302	0.4084
1311.04	0.5634
1320.07	0.6051
1329.11	0.5165
1338.15	0.6444
1347.19	0.6748
1356.22	0.5413
1365.26	0.45
1374.3	0.5173
1383.34	0.6251
1392.38	0.6192
1401.41	0.4485
1410.45	0.4153
1419.49	0.5174
1428.53	0.5347
1437.56	0.5497
1446.6	0.5553
1455.64	0.5388
1464.68	0.4978
1473.71	0.4909
1482.75	0.5595
1491.79	0.6848
1500.83	0.6991
1509.86	0.6918
1518.9	0.6
1527.94	0.526
1536.98	0.4775
1546.01	0.4731
1555.05	0.473
1564.09	0.4629
1573.13	0.4157
1582.17	0.2264
1591.2	0.1295
1600.24	0.2479
1609.28	0.3799
1618.32	0.3765
1627.35	0.5987
1636.39	0.6798
1645.43	0.7252
1654.47	0.7544
1663.5	0.7877
1672.54	0.8058
1681.58	0.819
1690.62	0.8124
1699.65	0.798
1708.69	0.7742
1717.73	0.7359
1726.77	0.6417
1735.8	0.4048
1744.84	0.1827
1753.88	0.1796
1762.92	0.3097
1771.96	0.5068
1780.99	0.6035
1790.03	0.7059
1799.07	0.7565
1808.11	0.7846
1817.14	0.8072
1826.18	0.8219
1835.22	0.8329
1844.26	0.8403
1853.29	0.8449
1862.33	0.8487
1871.37	0.8508
1880.41	0.8525
1889.44	0.854
1898.48	0.8553
1907.52	0.8549
1916.56	0.8551
1925.59	0.8555
1934.63	0.857
1943.67	0.8596
1952.71	0.8616
1961.75	0.8629
1970.78	0.8632
1979.82	0.8621
1988.86	0.8607
1997.9	0.8619
2006.93	0.865
2015.97	0.8681
2025.01	0.8718
2034.05	0.8749
2043.08	0.8758
2052.12	0.8766
2061.16	0.8775
2070.2	0.8783
2079.23	0.879
2088.27	0.8792
2097.31	0.8793
2106.35	0.8794
2115.38	0.8796
2124.42	0.8798
2133.46	0.8801
2142.5	0.8813
2151.54	0.8828
2160.57	0.8837
2169.61	0.8841
2178.65	0.8846
2187.69	0.885
2196.72	0.8852
2205.76	0.8855
2214.8	0.8857
2223.84	0.8859
2232.87	0.8857
2241.91	0.8853
2250.95	0.8843
2259.99	0.8831
2269.02	0.8827
2278.06	0.8829
2287.1	0.8831
2296.14	0.8834
2305.18	0.8835
2314.21	0.8828
2323.25	0.8815
2332.29	0.8786
2341.33	0.8739
2350.36	0.8691
2359.4	0.8642
2368.44	0.8599
2377.48	0.8562
2386.51	0.8521
2395.55	0.8484
2404.59	0.8451
2413.63	0.8417
2422.66	0.8359
2431.7	0.8299
2440.74	0.8241
2449.78	0.8207
2458.81	0.8179
2467.85	0.8164
2476.89	0.7954
2485.93	0.8089
2494.97	0.8185
2504	0.8154
2513.04	0.8035
2522.08	0.7939
2531.12	0.792
2540.15	0.79
2549.19	0.7844
2558.23	0.7761
2567.27	0.7657
2576.3	0.7564
2585.34	0.7485
2594.38	0.7451
2603.42	0.7429
2612.45	0.7415
2621.49	0.7387
2630.53	0.7295
2639.57	0.7143
2648.6	0.7072
2657.64	0.7047
2666.68	0.704
2675.72	0.703
2684.76	0.7002
2693.79	0.6957
2702.83	0.6856
2711.87	0.6731
2720.91	0.6697
2729.94	0.6706
2738.98	0.6741
2748.02	0.6799
2757.06	0.6853
2766.09	0.687
2775.13	0.6806
2784.17	0.6715
2793.21	0.6678
2802.24	0.666
2811.28	0.6628
2820.32	0.6581
2829.36	0.6507
2838.39	0.638
2847.43	0.6227
2856.47	0.6088
2865.51	0.6104
2874.55	0.618
2883.58	0.6255
2892.62	0.617
2901.66	0.5903
2910.7	0.5466
2919.73	0.5259
2928.77	0.5728
2937.81	0.5831
2946.85	0.5851
2955.88	0.5872
2964.92	0.5899
2973.96	0.5988
2983	0.6017
2992.03	0.6024
3001.07	0.6032
3010.11	0.6055
3019.15	0.6127
3028.18	0.6363
3037.22	0.6474
3046.26	0.6478
3055.3	0.6585
3064.34	0.6865
3073.37	0.7123
3082.41	0.7162
3091.45	0.7126
3100.49	0.7093
3109.52	0.7094
3118.56	0.715
3127.6	0.7252
3136.64	0.7289
3145.67	0.731
3154.71	0.7324
3163.75	0.734
3172.79	0.744
3181.82	0.7525
3190.86	0.7604
3199.9	0.7665
3208.94	0.7712
3217.97	0.7751
3227.01	0.7824
3236.05	0.7846
3245.09	0.7866
3254.13	0.788
3263.16	0.7894
3272.2	0.7905
3281.24	0.7916
3290.28	0.7926
3299.31	0.7921
3308.35	0.7899
3317.39	0.7865
3326.43	0.7819
3335.46	0.7764
3344.5	0.7706
3353.54	0.7623
3362.58	0.7528
3371.61	0.7425
3380.65	0.7325
3389.69	0.7226
3398.73	0.7132
3407.77	0.7095
3416.8	0.7079
3425.84	0.7063
3434.88	0.7058
3443.92	0.7057
3452.95	0.7061
3461.99	0.707
3471.03	0.7086
3480.07	0.7103
3489.1	0.7132
3498.14	0.7185
3507.18	0.7274
3516.22	0.7395
3525.25	0.7531
3534.29	0.7625
3543.33	0.766
3552.37	0.7689
3561.4	0.7724
3570.44	0.7799
3579.48	0.7896
3588.52	0.7983
3597.56	0.8066
3606.59	0.8161
3615.63	0.8264
3624.67	0.8385
3633.71	0.8502
3642.74	0.8622
3651.78	0.8653
3660.82	0.8665
3669.86	0.867
3678.89	0.8652
3687.93	0.8647
3696.97	0.8696
3706.01	0.8748
3715.04	0.8789
3724.08	0.882
3733.12	0.8822
3742.16	0.8818
3751.19	0.8814
3760.23	0.8802
3769.27	0.879
3778.31	0.8778
3787.35	0.8767
3796.38	0.8756
3805.42	0.8745
3814.46	0.8734
3823.5	0.8724
3832.53	0.8721
3841.57	0.8717
3850.61	0.8714
3859.65	0.871
3868.68	0.8702
3877.72	0.8694
3886.76	0.8685
3895.8	0.8677
3904.83	0.8668
3913.87	0.8659
3922.91	0.8657
3931.95	0.8664
3940.98	0.8671
3950.02	0.8678
3959.06	0.8684
3968.1	0.8691
3977.14	0.8683
3986.17	0.8675
3995.21	0.8672
4004.25	0.8671
4013.29	0.8671
