Infrared Spectrum: 2-Chloro-5-iodobenzoic acid
Formula: C 7 H 4 Cl I O 2
CAS: 19094-56-5
State: gas
Origin: EPA-IR VAPOR PHASE LIBRARY
1/CM	ABSORBANCE
549.8	0.019871
559.445	0.028701
569.09	0.042021
578.734	0.041671
588.379	0.032071
598.024	0.020091
607.669	0.011751
617.313	0.009221
626.958	0.022751
636.603	0.043041
646.248	0.015691
655.893	0.005241
665.537	0.004311
675.182	0.005631
684.827	0.012091
694.472	0.020321
704.116	0.012511
713.761	0.004051
723.406	0.001881
733.051	0.001831
742.695	0.002121
752.34	0.003441
761.985	0.005431
771.63	0.009221
781.275	0.012931
790.919	0.009251
800.564	0.010511
810.209	0.023711
819.854	0.026181
829.498	0.008431
839.143	0.003311
848.788	0.001841
858.433	0.001391
868.078	0.001341
877.722	0.002091
887.367	0.004901
897.012	0.007011
906.657	0.004011
916.301	0.002201
925.946	0.001361
935.591	0.001251
945.236	0.001551
954.88	0.001681
964.525	0.001661
974.17	0.001671
983.815	0.002011
993.46	0.002741
1003.1	0.004711
1012.75	0.012041
1022.39	0.019061
1032.04	0.043981
1041.68	0.073961
1051.33	0.046491
1060.97	0.023781
1070.62	0.023221
1080.26	0.030681
1089.91	0.037281
1099.55	0.064831
1109.2	0.087441
1118.84	0.072041
1128.49	0.035221
1138.13	0.033181
1147.78	0.033921
1157.42	0.037411
1167.07	0.051151
1176.71	0.077731
1186.36	0.082011
1196	0.036071
1205.64	0.018791
1215.29	0.013401
1224.93	0.009891
1234.58	0.009431
1244.22	0.010091
1253.87	0.015541
1263.51	0.020851
1273.16	0.020621
1282.8	0.021111
1292.45	0.023031
1302.09	0.027911
1311.74	0.038171
1321.38	0.049641
1331.03	0.040991
1340.67	0.020981
1350.32	0.014091
1359.96	0.014121
1369.61	0.018671
1379.25	0.026411
1388.9	0.032881
1398.54	0.032211
1408.18	0.014411
1417.83	0.007531
1427.47	0.006151
1437.12	0.008151
1446.76	0.016571
1456.41	0.032371
1466.05	0.034111
1475.7	0.013921
1485.34	0.005011
1494.99	0.002681
1504.63	0.002181
1514.28	0.001971
1523.92	0.002101
1533.57	0.002961
1543.21	0.005121
1552.86	0.006061
1562.5	0.005271
1572.15	0.005821
1581.79	0.004611
1591.44	0.002601
1601.08	0.001991
1610.73	0.002031
1620.37	0.002581
1630.01	0.003471
1639.66	0.002711
1649.3	0.002111
1658.95	0.002071
1668.59	0.002021
1678.24	0.002221
1687.88	0.002861
1697.53	0.003631
1707.17	0.005601
1716.82	0.009751
1726.46	0.018571
1736.11	0.031401
1745.75	0.052091
1755.4	0.092991
1765.04	0.129531
1774.69	0.162951
1784.33	0.069151
1793.98	0.048111
1803.62	0.028681
1813.27	0.012361
1822.91	0.005991
1832.55	0.003621
1842.2	0.002741
1851.84	0.002301
1861.49	0.001861
1871.13	0.001721
1880.78	0.001921
1890.42	0.002361
1900.07	0.002781
1909.71	0.002181
1919.36	0.001281
1929	0.000994
1938.65	0.0008338
1948.29	0.0008318
1957.94	0.0008102
1967.58	0.0008063
1977.23	0.0009069
1986.87	0.000984
1996.52	0.0009698
2006.16	0.0007397
2015.81	0.0006691
2025.45	0.0005499
2035.1	0.0004712
2044.74	0.0004204
2054.38	0.0004439
2064.03	0.0003757
2073.67	0.0004908
2083.32	0.0004798
2092.96	0.0006109
2102.61	0.0005548
2112.25	0.0005957
2121.9	0.0007529
2131.54	0.0007366
2141.19	0.0007276
2150.83	0.0008044
2160.48	0.0005549
2170.12	0.0006434
2179.77	0.0006577
2189.41	0.0007011
2199.06	0.0006467
2208.7	0.0006907
2218.35	0.0005508
2227.99	0.0006277
2237.64	0.0005357
2247.28	0.0005803
2256.92	0.0005844
2266.57	0.0005664
2276.21	0.0005991
2285.86	0.0006905
2295.5	0.0006522
2305.15	0.0007897
2314.79	0.0006563
2324.44	0.0007561
2334.08	0.0007546
2343.73	0.0007732
2353.37	0.0008114
2363.02	0.000891
2372.66	0.0007741
2382.31	0.0005845
2391.95	0.0006043
2401.6	0.0006097
2411.24	0.000622
2420.89	0.0006726
2430.53	0.0007244
2440.18	0.000784
2449.82	0.0006859
2459.47	0.0005158
2469.11	0.0006266
2478.75	0.0005009
2488.4	0.0005418
2498.04	0.0005558
2507.69	0.0005624
2517.33	0.000624
2526.98	0.0006814
2536.62	0.0005029
2546.27	0.0004848
2555.91	0.0005046
2565.56	0.0004947
2575.2	0.0005705
2584.85	0.0005861
2594.49	0.0005788
2604.14	0.0005696
2613.78	0.0005176
2623.43	0.0004847
2633.07	0.0004856
2642.72	0.0004095
2652.36	0.0003961
2662.01	0.0004343
2671.65	0.0003794
2681.29	0.000381
2690.94	0.0004746
2700.58	0.0003905
2710.23	0.0004419
2719.87	0.0004874
2729.52	0.000423
2739.16	0.000393
2748.81	0.00034264
2758.45	0.0004274
2768.1	0.0004346
2777.74	0.0004603
2787.39	0.000618
2797.03	0.0007588
2806.68	0.0007199
2816.32	0.0008671
2825.97	0.0006956
2835.61	0.0005333
2845.26	0.0005387
2854.9	0.000589
2864.55	0.0004875
2874.19	0.0004221
2883.84	0.0005769
2893.48	0.0004075
2903.12	0.0004232
2912.77	0.00032493
2922.41	0.00035867
2932.06	0.0004583
2941.7	0.0003898
2951.35	0.0005124
2960.99	0.0004777
2970.64	0.0005476
2980.28	0.000726
2989.93	0.000621
2999.57	0.00056
3009.22	0.0005855
3018.86	0.000278614
3028.51	0.00029948
3038.15	0.0004526
3047.8	0.0005358
3057.44	0.0007195
3067.09	0.001411
3076.73	0.001951
3086.38	0.001271
3096.02	0.0009114
3105.67	0.0005398
3115.31	0.0006564
3124.95	0.0004278
3134.6	0.0006074
3144.24	0.00046
3153.89	0.0004315
3163.53	0.00028774
3173.18	0.0001853
3182.82	0.0002381
3192.47	1.9e-05
3202.11	0.000276738
3211.76	0.00029253
3221.4	0.0001858
3231.05	0.0002098
3240.69	0.00031227
3250.34	0.000121
3259.98	0.000116
3269.63	0.000141
3279.27	0.000104
3288.92	0.00029591
3298.56	0.0003508
3308.21	0.000270835
3317.85	0.00030465
3327.49	0.0001781
3337.14	0.0003863
3346.78	0.00028633
3356.43	0.00034197
3366.07	0.0002021
3375.72	0.0002455
3385.36	0.0001759
3395.01	0.00011
3404.65	0.0002166
3414.3	0.0002556
3423.94	0.00031261
3433.59	0.00031632
3443.23	0.000528
3452.88	0.0007609
3462.52	0.0007742
3472.17	0.0008007
3481.81	0.0009838
3491.46	0.0012247
3501.1	0.001781
3510.75	0.002041
3520.39	0.003071
3530.04	0.004261
3539.68	0.005161
3549.32	0.007901
3558.97	0.028291
3568.61	0.074421
3578.26	0.048591
3587.9	0.017011
3597.55	0.004251
3607.19	0.002591
3616.84	0.001921
3626.48	0.0010598
3636.13	0.0007127
3645.77	0.0006735
3655.42	0.0005129
3665.06	0.0004468
3674.71	0.0004039
3684.35	0.0006194
3694	0.0005678
3703.64	0.0004999
3713.29	0.0003472
3722.93	0.00028353
3732.58	0.0003795
3742.22	0.00031885
3751.86	0.0005291
3761.51	0.0003926
3771.15	0.0002204
3780.8	0.00034983
3790.44	0.00033651
3800.09	0.00029651
3809.73	0.0002377
3819.38	0.0002155
3829.02	0.00030361
3838.67	0.0001996
3848.31	0.00026263
3857.96	0.00029177
3867.6	0.00033249
3877.25	0.0004459
3886.89	0.0002591
3896.54	0.000143
3906.18	0.0001723
3915.83	0.000151
3925.47	0.0002363
3935.12	0.00031033
3944.76	0.000141
3954.41	0.0002394
3964.05	0.00031499
3973.69	0.00031444
3983.34	0.000111
3992.98	0.0002211
