Infrared Spectrum: DIBENZO(a,1)PYRENE
Formula: C24 H14
CAS: 191-30-0
State: SOLID (KBr PELLET)
Melting point: 221-225 C
Class: COBLENTZ
Instrument: Not specified, most likely a prism, grating, or hybrid spectrometer.
Sampling: TRANSMISSION
Resolution: 4
Origin: UNION CARBIDE CORPORATION (CARBON PRODUCTS DIVISION)
MICROMETERS	TRANSMITTANCE
2.027	0.358
2.06025	0.36
2.09349	0.368
2.12674	0.367
2.15999	0.368
2.19324	0.375
2.22648	0.379
2.25973	0.38
2.29298	0.384
2.32623	0.39
2.35947	0.4
2.39272	0.402
2.42597	0.406
2.45922	0.41
2.49246	0.414
2.52571	0.416
2.55896	0.416
2.59221	0.418
2.62545	0.42
2.6587	0.424
2.69195	0.426
2.7252	0.428
2.75844	0.432
2.79169	0.44
2.82494	0.444
2.85819	0.446
2.89143	0.446
2.92468	0.447
2.95793	0.45
2.99118	0.456
3.02442	0.464
3.05767	0.479
3.09092	0.487
3.12417	0.495
3.15741	0.5
3.19066	0.5
3.22391	0.503
3.25716	0.504
3.2904	0.5
3.32365	0.495
3.3569	0.5
3.39015	0.503
3.42339	0.513
3.45664	0.516
3.48989	0.519
3.52314	0.521
3.55638	0.529
3.58963	0.532
3.62288	0.539
3.65613	0.541
3.68937	0.541
3.72262	0.545
3.75587	0.548
3.78911	0.549
3.82236	0.551
3.85561	0.553
3.88886	0.557
3.9221	0.563
3.95535	0.569
3.9886	0.572
4.02185	0.575
4.05509	0.577
4.08834	0.581
4.12159	0.584
4.15484	0.587
4.18808	0.591
4.22133	0.593
4.25458	0.595
4.28783	0.595
4.32107	0.595
4.35432	0.599
4.38757	0.601
4.42082	0.604
4.45406	0.609
4.48731	0.613
4.52056	0.615
4.55381	0.619
4.58705	0.621
4.6203	0.627
4.65355	0.629
4.6868	0.631
4.72004	0.632
4.75329	0.635
4.78654	0.636
4.81979	0.636
4.85303	0.641
4.88628	0.643
4.91953	0.651
4.95278	0.652
4.98602	0.655
5.01927	0.656
5.05252	0.66
5.08577	0.66
5.11901	0.66
5.15226	0.656
5.18551	0.659
5.21876	0.657
5.252	0.657
5.28525	0.657
5.3185	0.66
5.35174	0.667
5.38499	0.668
5.41824	0.669
5.45149	0.669
5.48473	0.671
5.51798	0.673
5.55123	0.675
5.58448	0.673
5.61772	0.676
5.65097	0.681
5.68422	0.684
5.71747	0.688
5.75071	0.696
5.78396	0.699
5.81721	0.697
5.85046	0.697
5.8837	0.697
5.91695	0.697
5.9502	0.7
5.98345	0.701
6.01669	0.709
6.04994	0.711
6.08319	0.713
6.11644	0.715
6.14968	0.7
6.18293	0.7
6.21618	0.703
6.24943	0.711
6.28267	0.709
6.31592	0.681
6.34917	0.695
6.38242	0.705
6.41566	0.723
6.44891	0.731
6.48216	0.727
6.51541	0.731
6.54865	0.733
6.5819	0.693
6.61515	0.68
6.6484	0.712
6.68164	0.735
6.71489	0.74
6.74814	0.732
6.78139	0.703
6.81463	0.703
6.84788	0.669
6.88113	0.657
6.91438	0.716
6.94762	0.709
6.98087	0.669
7.01412	0.708
7.04736	0.732
7.08061	0.744
7.11386	0.75
7.14711	0.757
7.18035	0.76
7.2136	0.797
7.24685	0.778
7.2801	0.76
7.31334	0.764
7.34659	0.765
7.37984	0.764
7.41309	0.735
7.44633	0.719
7.47958	0.725
7.51283	0.745
7.54608	0.753
7.57932	0.754
7.61257	0.756
7.64582	0.758
7.67907	0.758
7.71231	0.764
7.74556	0.769
7.77881	0.774
7.81206	0.777
7.8453	0.777
7.87855	0.757
7.9118	0.758
7.94505	0.768
7.97829	0.769
8.01154	0.768
8.04479	0.713
8.07804	0.735
8.11128	0.758
8.14453	0.773
8.17778	0.774
8.21103	0.774
8.24427	0.773
8.27752	0.777
8.31077	0.747
8.34402	0.758
8.37726	0.77
8.41051	0.786
8.44376	0.781
8.47701	0.78
8.51025	0.761
8.5435	0.765
8.57675	0.764
8.60999	0.737
8.64324	0.728
8.67649	0.732
8.70974	0.717
8.74298	0.75
8.77623	0.769
8.80948	0.78
8.84273	0.788
8.87597	0.789
8.90922	0.797
8.94247	0.808
8.97572	0.814
9.00896	0.817
9.04221	0.828
9.07546	0.832
9.10871	0.837
9.14195	0.836
9.1752	0.836
9.20845	0.829
9.2417	0.82
9.27494	0.812
9.30819	0.809
9.34144	0.816
9.37469	0.82
9.40793	0.821
9.44118	0.824
9.47443	0.828
9.50768	0.83
9.54092	0.83
9.57417	0.83
9.60742	0.825
9.64067	0.821
9.67391	0.817
9.70716	0.814
9.74041	0.821
9.77366	0.824
9.8069	0.825
9.84015	0.812
9.8734	0.79
9.90665	0.812
9.93989	0.829
9.97314	0.83
10.0064	0.83
10.0396	0.83
10.0729	0.83
10.1061	0.832
10.1394	0.833
10.1726	0.834
10.2059	0.834
10.2391	0.833
10.2724	0.833
10.3056	0.833
10.3389	0.833
10.3721	0.834
10.4054	0.837
10.4386	0.838
10.4719	0.836
10.5051	0.778
10.5383	0.749
10.5716	0.747
10.6048	0.77
10.6381	0.792
10.6713	0.814
10.7046	0.817
10.7378	0.817
10.7711	0.817
10.8043	0.826
10.8376	0.832
10.8708	0.838
10.9041	0.841
10.9373	0.84
10.9706	0.841
11.0038	0.846
11.0371	0.85
11.0703	0.85
11.1036	0.846
11.1368	0.719
11.17	0.669
11.2033	0.668
11.2365	0.748
11.2698	0.79
11.303	0.809
11.3363	0.786
11.3695	0.655
11.4028	0.636
11.436	0.719
11.4693	0.778
11.5025	0.809
11.5358	0.81
11.569	0.774
11.6023	0.752
11.6355	0.752
11.6688	0.749
11.702	0.764
11.7353	0.798
11.7685	0.808
11.8018	0.812
11.835	0.817
11.8682	0.806
11.9015	0.78
11.9347	0.766
11.968	0.793
12.0012	0.789
12.0345	0.747
12.0677	0.773
12.101	0.82
12.1342	0.826
12.1675	0.816
12.2007	0.818
12.234	0.832
12.2672	0.848
12.3005	0.854
12.3337	0.857
12.367	0.849
12.4002	0.6
12.4335	0.508
12.4667	0.672
12.4999	0.769
12.5332	0.798
12.5664	0.82
12.5997	0.83
12.6329	0.834
12.6662	0.842
12.6994	0.85
12.7327	0.853
12.7659	0.856
12.7992	0.862
12.8324	0.865
12.8657	0.868
12.8989	0.86
12.9322	0.813
12.9654	0.749
12.9987	0.745
13.0319	0.778
13.0652	0.818
13.0984	0.78
13.1316	0.684
13.1649	0.636
13.1981	0.639
13.2314	0.648
13.2646	0.633
13.2979	0.609
13.3311	0.529
13.3644	0.462
13.3976	0.392
13.4309	0.335
13.4641	0.347
13.4974	0.399
13.5306	0.408
13.5639	0.382
13.5971	0.382
13.6304	0.45
13.6636	0.543
13.6969	0.6
13.7301	0.649
13.7633	0.689
13.7966	0.708
13.8298	0.724
13.8631	0.74
13.8963	0.748
13.9296	0.754
13.9628	0.761
13.9961	0.764
14.0293	0.648
14.0626	0.503
14.0958	0.505
14.1291	0.628
14.1623	0.683
14.1956	0.719
14.2288	0.727
14.2621	0.737
14.2953	0.741
14.3286	0.745
14.3618	0.748
14.3951	0.748
14.4283	0.748
14.4615	0.745
14.4948	0.745
14.528	0.745
14.5613	0.745
14.5945	0.748
14.6278	0.748
14.661	0.749
14.6943	0.747
14.7275	0.74
14.7608	0.729
14.794	0.724
14.8273	0.729
14.8605	0.736
14.8938	0.739
14.927	0.739
14.9603	0.731
14.9935	0.699
15.0268	0.7
15.06	0.74
