Infrared Spectrum: PYRANTHRENE
Formula: C30 H16
CAS: 191-13-9
State: SOLID (KBr PELLET)
Melting point: 372-373 C
Class: COBLENTZ
Instrument: Not specified, most likely a prism, grating, or hybrid spectrometer.
Sampling: TRANSMISSION
Resolution: 4
Origin: UNION CARBIDE CORPORATION (CARBON PRODUCTS DIVISION)
MICROMETERS	TRANSMITTANCE
2.053	0
2.08625	0.016
2.11949	0.02
2.15274	0.021
2.18599	0.024
2.21924	0.025
2.25248	0.029
2.28573	0.03
2.31898	0.033
2.35223	0.033
2.38547	0.038
2.41872	0.049
2.45197	0.054
2.48522	0.058
2.51846	0.064
2.55171	0.068
2.58496	0.07
2.6182	0.07
2.65145	0.07
2.6847	0.07
2.71795	0.07
2.75119	0.073
2.78444	0.073
2.81769	0.074
2.85094	0.076
2.88418	0.078
2.91743	0.085
2.95068	0.089
2.98393	0.096
3.01717	0.104
3.05042	0.113
3.08367	0.114
3.11691	0.116
3.15016	0.116
3.18341	0.122
3.21666	0.131
3.2499	0.131
3.28315	0.132
3.3164	0.132
3.34965	0.132
3.38289	0.132
3.41614	0.132
3.44939	0.133
3.48263	0.136
3.51588	0.139
3.54913	0.139
3.58238	0.14
3.61562	0.14
3.64887	0.141
3.68212	0.141
3.71537	0.149
3.74861	0.151
3.78186	0.156
3.81511	0.161
3.84836	0.165
3.8816	0.171
3.91485	0.173
3.9481	0.177
3.98134	0.18
4.01459	0.183
4.04784	0.184
4.08109	0.185
4.11433	0.187
4.14758	0.203
4.18083	0.204
4.21408	0.204
4.24732	0.204
4.28057	0.203
4.31382	0.207
4.34707	0.213
4.38031	0.219
4.41356	0.232
4.44681	0.237
4.48005	0.24
4.5133	0.244
4.54655	0.247
4.5798	0.259
4.61304	0.259
4.64629	0.26
4.67954	0.263
4.71279	0.27
4.74603	0.271
4.77928	0.271
4.81253	0.272
4.84578	0.276
4.87902	0.283
4.91227	0.29
4.94552	0.29
4.97876	0.291
5.01201	0.292
5.04526	0.3
5.07851	0.307
5.11175	0.31
5.145	0.31
5.17825	0.31
5.2115	0.31
5.24474	0.311
5.27799	0.315
5.31124	0.319
5.34448	0.327
5.37773	0.331
5.41098	0.336
5.44423	0.338
5.47747	0.339
5.51072	0.34
5.54397	0.348
5.57722	0.35
5.61046	0.363
5.64371	0.366
5.67696	0.367
5.71021	0.366
5.74345	0.367
5.7767	0.371
5.80995	0.372
5.84319	0.378
5.87644	0.379
5.90969	0.379
5.94294	0.381
5.97618	0.391
6.00943	0.401
6.04268	0.368
6.07593	0.352
6.10917	0.363
6.14242	0.372
6.17567	0.363
6.20892	0.374
6.24216	0.35
6.27541	0.372
6.30866	0.377
6.3419	0.378
6.37515	0.39
6.4084	0.387
6.44165	0.397
6.47489	0.397
6.50814	0.413
6.54139	0.421
6.57464	0.426
6.60788	0.429
6.64113	0.427
6.67438	0.423
6.70763	0.418
6.74087	0.425
6.77412	0.426
6.80737	0.43
6.84061	0.433
6.87386	0.433
6.90711	0.45
6.94036	0.458
6.9736	0.465
7.00685	0.482
7.0401	0.481
7.07335	0.474
7.10659	0.454
7.13984	0.463
7.17309	0.491
7.20634	0.502
7.23958	0.509
7.27283	0.5
7.30608	0.504
7.33932	0.508
7.37257	0.513
7.40582	0.52
7.43907	0.521
7.47231	0.509
7.50556	0.514
7.53881	0.514
7.57206	0.514
7.6053	0.505
7.63855	0.486
7.6718	0.482
7.70504	0.482
7.73829	0.493
7.77154	0.5
7.80479	0.486
7.83803	0.501
7.87128	0.517
7.90453	0.528
7.93778	0.53
7.97102	0.542
8.00427	0.548
8.03752	0.557
8.07077	0.562
8.10401	0.569
8.13726	0.56
8.17051	0.56
8.20375	0.569
8.237	0.58
8.27025	0.585
8.3035	0.592
8.33674	0.594
8.36999	0.6
8.40324	0.601
8.43649	0.609
8.46973	0.589
8.50298	0.573
8.53623	0.582
8.56948	0.59
8.60272	0.57
8.63597	0.49
8.66922	0.569
8.70246	0.585
8.73571	0.596
8.76896	0.61
8.80221	0.621
8.83545	0.631
8.8687	0.64
8.90195	0.641
8.9352	0.655
8.96844	0.663
9.00169	0.653
9.03494	0.644
9.06819	0.631
9.10143	0.633
9.13468	0.643
9.16793	0.652
9.20117	0.659
9.23442	0.664
9.26767	0.668
9.30092	0.672
9.33416	0.683
9.36741	0.683
9.40066	0.692
9.43391	0.697
9.46715	0.703
9.5004	0.712
9.53365	0.72
9.56689	0.721
9.60014	0.728
9.63339	0.733
9.66664	0.72
9.69988	0.695
9.73313	0.707
9.76638	0.717
9.79963	0.728
9.83287	0.732
9.86612	0.735
9.89937	0.743
9.93262	0.747
9.96586	0.751
9.99911	0.76
10.0324	0.764
10.0656	0.775
10.0989	0.776
10.1321	0.775
10.1653	0.775
10.1986	0.775
10.2318	0.771
10.2651	0.771
10.2983	0.771
10.3316	0.772
10.3648	0.782
10.3981	0.8
10.4313	0.8
10.4646	0.791
10.4978	0.78
10.5311	0.776
10.5643	0.778
10.5976	0.78
10.6308	0.721
10.6641	0.744
10.6973	0.755
10.7306	0.767
10.7638	0.804
10.797	0.815
10.8303	0.831
10.8635	0.844
10.8968	0.85
10.93	0.863
10.9633	0.871
10.9965	0.839
11.0298	0.798
11.063	0.802
11.0963	0.822
11.1295	0.818
11.1628	0.819
11.196	0.831
11.2293	0.834
11.2625	0.812
11.2958	0.703
11.329	0.493
11.3623	0.22
11.3955	0.172
11.4287	0.22
11.462	0.34
11.4952	0.407
11.5285	0.433
11.5617	0.454
11.595	0.572
11.6282	0.66
11.6615	0.716
11.6947	0.755
11.728	0.783
11.7612	0.752
11.7945	0.636
11.8277	0.62
11.861	0.501
11.8942	0.348
11.9275	0.479
11.9607	0.605
11.9939	0.68
12.0272	0.72
12.0604	0.763
12.0937	0.78
12.1269	0.802
12.1602	0.816
12.1934	0.834
12.2267	0.843
12.2599	0.851
12.2932	0.866
12.3264	0.867
12.3597	0.859
12.3929	0.847
12.4262	0.859
12.4594	0.872
12.4927	0.867
12.5259	0.664
12.5592	0.471
12.5924	0.558
12.6256	0.655
12.6589	0.641
12.6921	0.649
12.7254	0.741
12.7586	0.8
12.7919	0.834
12.8251	0.851
12.8584	0.862
12.8916	0.859
12.9249	0.856
12.9581	0.864
12.9914	0.89
13.0246	0.909
13.0579	0.929
13.0911	0.937
13.1244	0.941
13.1576	0.945
13.1909	0.949
13.2241	0.945
13.2573	0.909
13.2906	0.774
13.3238	0.57
13.3571	0.53
13.3903	0.536
13.4236	0.536
13.4568	0.457
13.4901	0.295
13.5233	0.223
13.5566	0.342
13.5898	0.326
13.6231	0.24
13.6563	0.239
13.6896	0.299
13.7228	0.366
13.7561	0.463
13.7893	0.561
13.8226	0.624
13.8558	0.663
13.889	0.692
13.9223	0.719
13.9555	0.743
13.9888	0.76
14.022	0.776
14.0553	0.782
14.0885	0.798
14.1218	0.804
14.155	0.815
14.1883	0.82
14.2215	0.828
14.2548	0.832
14.288	0.836
14.3213	0.838
14.3545	0.838
14.3878	0.836
14.421	0.834
14.4543	0.831
14.4875	0.806
14.5207	0.735
14.554	0.712
14.5872	0.716
14.6205	0.721
14.6537	0.719
14.687	0.725
14.7202	0.712
14.7535	0.699
14.7867	0.711
14.82	0.72
14.8532	0.725
14.8865	0.736
14.9197	0.752
14.953	0.737
14.9862	0.633
15.0195	0.64
15.0527	0.752
15.086	0.775
