Infrared Spectrum: DIBENZO(cd,jk)PYRENE
Formula: C22 H12
CAS: 191-26-4
State: SOLID (KBr PELLET)
Melting point: 261 C
Class: COBLENTZ
Instrument: Not specified, most likely a prism, grating, or hybrid spectrometer.
Sampling: TRANSMISSION
Resolution: 4
Origin: UNION CARBIDE CORPORATION (CARBON PRODUCTS DIVISION)
MICROMETERS	TRANSMITTANCE
2.04	0.14
2.0732	0.14
2.10639	0.14
2.13959	0.143
2.17279	0.147
2.20598	0.148
2.23918	0.151
2.27237	0.153
2.30557	0.159
2.33877	0.163
2.37196	0.169
2.40516	0.173
2.43836	0.181
2.47155	0.183
2.50475	0.185
2.53795	0.187
2.57114	0.191
2.60434	0.192
2.63753	0.196
2.67073	0.199
2.70393	0.2
2.73712	0.201
2.77032	0.204
2.80352	0.213
2.83671	0.224
2.86991	0.231
2.90311	0.232
2.9363	0.236
2.9695	0.237
3.0027	0.254
3.03589	0.254
3.06909	0.267
3.10228	0.271
3.13548	0.274
3.16868	0.276
3.20187	0.282
3.23507	0.286
3.26827	0.284
3.30146	0.279
3.33466	0.28
3.36786	0.287
3.40105	0.288
3.43425	0.292
3.46744	0.295
3.50064	0.3
3.53384	0.308
3.56703	0.314
3.60023	0.318
3.63343	0.322
3.66662	0.326
3.69982	0.332
3.73302	0.335
3.76621	0.339
3.79941	0.342
3.8326	0.342
3.8658	0.347
3.899	0.354
3.93219	0.355
3.96539	0.363
3.99859	0.367
4.03178	0.37
4.06498	0.372
4.09818	0.387
4.13137	0.39
4.16457	0.391
4.19776	0.393
4.23096	0.391
4.26416	0.391
4.29735	0.391
4.33055	0.397
4.36375	0.402
4.39694	0.411
4.43014	0.421
4.46334	0.423
4.49653	0.431
4.52973	0.431
4.56293	0.434
4.59612	0.437
4.62932	0.442
4.66251	0.45
4.69571	0.45
4.72891	0.458
4.7621	0.462
4.7953	0.462
4.8285	0.467
4.86169	0.47
4.89489	0.478
4.92809	0.479
4.96128	0.483
4.99448	0.486
5.02767	0.491
5.06087	0.493
5.09407	0.5
5.12726	0.502
5.16046	0.501
5.19366	0.49
5.22685	0.491
5.26005	0.508
5.29325	0.513
5.32644	0.514
5.35964	0.514
5.39283	0.517
5.42603	0.522
5.45923	0.532
5.49242	0.53
5.52562	0.522
5.55882	0.526
5.59201	0.528
5.62521	0.538
5.65841	0.529
5.6916	0.521
5.7248	0.54
5.75799	0.548
5.79119	0.545
5.82439	0.55
5.85758	0.557
5.89078	0.564
5.92398	0.565
5.95717	0.57
5.99037	0.57
6.02357	0.568
6.05676	0.576
6.08996	0.578
6.12316	0.513
6.15635	0.546
6.18955	0.564
6.22274	0.572
6.25594	0.554
6.28914	0.564
6.32233	0.582
6.35553	0.585
6.38873	0.585
6.42192	0.59
6.45512	0.582
6.48832	0.6
6.52151	0.602
6.55471	0.605
6.5879	0.61
6.6211	0.612
6.6543	0.616
6.68749	0.577
6.72069	0.558
6.75389	0.582
6.78708	0.609
6.82028	0.625
6.85348	0.596
6.88667	0.606
6.91987	0.621
6.95306	0.629
6.98626	0.637
7.01946	0.641
7.05265	0.657
7.08585	0.66
7.11905	0.651
7.15224	0.667
7.18544	0.691
7.21864	0.704
7.25183	0.692
7.28503	0.692
7.31822	0.691
7.35142	0.691
7.38462	0.693
7.41781	0.693
7.45101	0.685
7.48421	0.681
7.5174	0.676
7.5506	0.677
7.5838	0.683
7.61699	0.687
7.65019	0.688
7.68339	0.689
7.71658	0.691
7.74978	0.692
7.78297	0.699
7.81617	0.7
7.84937	0.7
7.88256	0.701
7.91576	0.704
7.94896	0.709
7.98215	0.712
8.01535	0.721
8.04855	0.697
8.08174	0.681
8.11494	0.701
8.14813	0.72
8.18133	0.721
8.21453	0.723
8.24772	0.727
8.28092	0.729
8.31412	0.736
8.34731	0.741
8.38051	0.741
8.41371	0.723
8.4469	0.664
8.4801	0.663
8.51329	0.693
8.54649	0.723
8.57969	0.736
8.61288	0.679
8.64608	0.637
8.67928	0.717
8.71247	0.732
8.74567	0.744
8.77887	0.74
8.81206	0.741
8.84526	0.752
8.87845	0.756
8.91165	0.762
8.94485	0.771
8.97804	0.772
9.01124	0.774
9.04444	0.776
9.07763	0.778
9.11083	0.783
9.14403	0.782
9.17722	0.783
9.21042	0.786
9.24362	0.78
9.27681	0.763
9.31001	0.766
9.3432	0.775
9.3764	0.782
9.4096	0.788
9.44279	0.787
9.47599	0.788
9.50919	0.794
9.54238	0.792
9.57558	0.792
9.60878	0.8
9.64197	0.807
9.67517	0.811
9.70836	0.814
9.74156	0.814
9.77476	0.818
9.80795	0.822
9.84115	0.826
9.87435	0.823
9.90754	0.827
9.94074	0.827
9.97394	0.827
10.0071	0.828
10.0403	0.83
10.0735	0.831
10.1067	0.832
10.1399	0.836
10.1731	0.839
10.2063	0.839
10.2395	0.838
10.2727	0.82
10.3059	0.804
10.3391	0.79
10.3723	0.713
10.4055	0.685
10.4387	0.762
10.4719	0.792
10.5051	0.812
10.5383	0.826
10.5715	0.831
10.6047	0.836
10.6379	0.84
10.6711	0.842
10.7043	0.843
10.7375	0.848
10.7706	0.851
10.8038	0.852
10.837	0.856
10.8702	0.866
10.9034	0.867
10.9366	0.86
10.9698	0.756
11.003	0.695
11.0362	0.76
11.0694	0.8
11.1026	0.815
11.1358	0.79
11.169	0.719
11.2022	0.762
11.2354	0.803
11.2686	0.794
11.3018	0.689
11.335	0.466
11.3682	0.112
11.4014	0.109
11.4346	0.342
11.4678	0.453
11.501	0.589
11.5342	0.635
11.5674	0.677
11.6006	0.711
11.6338	0.739
11.667	0.762
11.7001	0.772
11.7333	0.79
11.7665	0.799
11.7997	0.802
11.8329	0.811
11.8661	0.806
11.8993	0.81
11.9325	0.822
11.9657	0.827
11.9989	0.835
12.0321	0.836
12.0653	0.838
12.0985	0.84
12.1317	0.84
12.1649	0.84
12.1981	0.84
12.2313	0.823
12.2645	0.735
12.2977	0.422
12.3309	0.561
12.3641	0.72
12.3973	0.803
12.4305	0.83
12.4637	0.84
12.4969	0.846
12.5301	0.819
12.5633	0.689
12.5964	0.534
12.6296	0.552
12.6628	0.675
12.696	0.77
12.7292	0.802
12.7624	0.82
12.7956	0.832
12.8288	0.836
12.862	0.842
12.8952	0.848
12.9284	0.851
12.9616	0.851
12.9948	0.848
13.028	0.83
13.0612	0.766
13.0944	0.667
13.1276	0.51
13.1608	0.381
13.194	0.256
13.2272	0.219
13.2604	0.248
13.2936	0.382
13.3268	0.454
13.36	0.59
13.3932	0.659
13.4264	0.68
13.4596	0.708
13.4928	0.723
13.5259	0.737
13.5591	0.754
13.5923	0.768
13.6255	0.771
13.6587	0.776
13.6919	0.778
13.7251	0.78
13.7583	0.786
13.7915	0.788
13.8247	0.796
13.8579	0.802
13.8911	0.804
13.9243	0.808
13.9575	0.811
13.9907	0.818
14.0239	0.818
14.0571	0.818
14.0903	0.819
14.1235	0.82
14.1567	0.82
14.1899	0.82
14.2231	0.82
14.2563	0.82
14.2895	0.82
14.3227	0.818
14.3559	0.811
14.3891	0.804
14.4223	0.758
14.4554	0.609
14.4886	0.439
14.5218	0.399
14.555	0.439
14.5882	0.545
14.6214	0.609
14.6546	0.663
14.6878	0.683
14.721	0.699
14.7542	0.711
14.7874	0.715
14.8206	0.717
14.8538	0.717
14.887	0.719
14.9202	0.715
14.9534	0.688
14.9866	0.616
15.0198	0.676
15.053	0.711
