Infrared Spectrum: DIBENZO(a,c)TRIPHENYLENE
Formula: C26 H16
CAS: 191-68-4
State: SOLID (KBr PELLET)
Melting point: 218 C
Class: COBLENTZ
Instrument: Not specified, most likely a prism, grating, or hybrid spectrometer.
Sampling: TRANSMISSION
Resolution: 4
Origin: UNION CARBIDE CORPORATION (CARBON PRODUCTS DIVISION)
MICROMETERS	TRANSMITTANCE
2.02	0.152
2.05328	0.153
2.08657	0.152
2.11985	0.155
2.15313	0.156
2.18642	0.159
2.2197	0.163
2.25298	0.167
2.28627	0.171
2.31955	0.179
2.35283	0.185
2.38612	0.187
2.4194	0.188
2.45268	0.191
2.48596	0.196
2.51925	0.201
2.55253	0.207
2.58581	0.207
2.6191	0.211
2.65238	0.217
2.68566	0.22
2.71895	0.223
2.75223	0.228
2.78551	0.232
2.8188	0.241
2.85208	0.25
2.88536	0.248
2.91865	0.254
2.95193	0.258
2.98521	0.263
3.0185	0.274
3.05178	0.278
3.08506	0.279
3.11835	0.287
3.15163	0.294
3.18491	0.302
3.2182	0.302
3.25148	0.298
3.28476	0.292
3.31805	0.294
3.35133	0.3
3.38461	0.304
3.41789	0.306
3.45118	0.307
3.48446	0.312
3.51774	0.322
3.55103	0.327
3.58431	0.331
3.61759	0.34
3.65088	0.346
3.68416	0.35
3.71744	0.352
3.75073	0.356
3.78401	0.359
3.81729	0.36
3.85058	0.367
3.88386	0.37
3.91714	0.374
3.95043	0.378
3.98371	0.381
4.01699	0.386
4.05028	0.393
4.08356	0.395
4.11684	0.398
4.15013	0.402
4.18341	0.403
4.21669	0.405
4.24997	0.403
4.28326	0.403
4.31654	0.406
4.34982	0.414
4.38311	0.425
4.41639	0.427
4.44967	0.433
4.48296	0.438
4.51624	0.439
4.54952	0.442
4.58281	0.446
4.61609	0.453
4.64937	0.455
4.68266	0.457
4.71594	0.462
4.74922	0.467
4.78251	0.47
4.81579	0.471
4.84907	0.475
4.88236	0.478
4.91564	0.481
4.94892	0.487
4.98221	0.489
5.01549	0.494
5.04877	0.495
5.08205	0.497
5.11534	0.501
5.14862	0.501
5.1819	0.498
5.21519	0.501
5.24847	0.5
5.28175	0.501
5.31504	0.502
5.34832	0.513
5.3816	0.517
5.41489	0.518
5.44817	0.518
5.48145	0.518
5.51474	0.518
5.54802	0.526
5.5813	0.532
5.61459	0.536
5.64787	0.542
5.68115	0.545
5.71444	0.55
5.74772	0.552
5.781	0.552
5.81429	0.552
5.84757	0.552
5.88085	0.557
5.91414	0.562
5.94742	0.568
5.9807	0.57
6.01398	0.57
6.04727	0.574
6.08055	0.574
6.11383	0.58
6.14712	0.581
6.1804	0.561
6.21368	0.565
6.24697	0.578
6.28025	0.59
6.31353	0.593
6.34682	0.594
6.3801	0.601
6.41338	0.61
6.44667	0.61
6.47995	0.602
6.51323	0.609
6.54652	0.61
6.5798	0.616
6.61308	0.614
6.64637	0.631
6.67965	0.62
6.71293	0.497
6.74622	0.521
6.7795	0.582
6.81278	0.621
6.84606	0.641
6.87935	0.431
6.91263	0.561
6.94591	0.541
6.9792	0.401
7.01248	0.435
7.04576	0.546
7.07905	0.573
7.11233	0.605
7.14561	0.614
7.1789	0.632
7.21218	0.627
7.24546	0.629
7.27875	0.641
7.31203	0.643
7.34531	0.651
7.3786	0.652
7.41188	0.655
7.44516	0.652
7.47845	0.657
7.51173	0.656
7.54501	0.648
7.5783	0.647
7.61158	0.653
7.64486	0.657
7.67815	0.667
7.71143	0.668
7.74471	0.672
7.77799	0.675
7.81128	0.677
7.84456	0.681
7.87784	0.685
7.91113	0.683
7.94441	0.683
7.97769	0.689
8.01098	0.693
8.04426	0.687
8.07754	0.663
8.11083	0.636
8.14411	0.628
8.17739	0.652
8.21068	0.669
8.24396	0.653
8.27724	0.636
8.31053	0.661
8.34381	0.685
8.37709	0.691
8.41038	0.7
8.44366	0.704
8.47694	0.711
8.51023	0.707
8.54351	0.667
8.57679	0.667
8.61007	0.671
8.64336	0.691
8.67664	0.701
8.70992	0.711
8.74321	0.701
8.77649	0.687
8.80977	0.695
8.84306	0.715
8.87634	0.723
8.90962	0.731
8.94291	0.736
8.97619	0.739
9.00947	0.74
9.04276	0.737
9.07604	0.736
9.10932	0.744
9.14261	0.747
9.17589	0.752
9.20917	0.756
9.24246	0.762
9.27574	0.763
9.30902	0.763
9.34231	0.774
9.37559	0.772
9.40887	0.774
9.44215	0.771
9.47544	0.731
9.50872	0.677
9.542	0.648
9.57529	0.701
9.60857	0.731
9.64185	0.743
9.67514	0.762
9.70842	0.763
9.7417	0.772
9.77499	0.78
9.80827	0.784
9.84155	0.788
9.87484	0.787
9.90812	0.786
9.9414	0.782
9.97469	0.774
10.008	0.771
10.0413	0.775
10.0745	0.778
10.1078	0.776
10.1411	0.779
10.1744	0.783
10.2077	0.787
10.241	0.787
10.2742	0.783
10.3075	0.78
10.3408	0.783
10.3741	0.784
10.4074	0.786
10.4407	0.782
10.4739	0.783
10.5072	0.79
10.5405	0.783
10.5738	0.747
10.6071	0.754
10.6404	0.766
10.6736	0.736
10.7069	0.739
10.7402	0.78
10.7735	0.794
10.8068	0.802
10.84	0.808
10.8733	0.812
10.9066	0.818
10.9399	0.822
10.9732	0.822
11.0065	0.823
11.0397	0.826
11.073	0.827
11.1063	0.83
11.1396	0.794
11.1729	0.78
11.2062	0.802
11.2394	0.81
11.2727	0.824
11.306	0.826
11.3393	0.826
11.3726	0.827
11.4059	0.826
11.4391	0.822
11.4724	0.808
11.5057	0.747
11.539	0.727
11.5723	0.745
11.6056	0.736
11.6388	0.771
11.6721	0.794
11.7054	0.802
11.7387	0.806
11.772	0.811
11.8053	0.82
11.8385	0.823
11.8718	0.826
11.9051	0.835
11.9384	0.84
11.9717	0.843
12.005	0.848
12.0382	0.85
12.0715	0.848
12.1048	0.85
12.1381	0.85
12.1714	0.852
12.2047	0.855
12.2379	0.858
12.2712	0.862
12.3045	0.863
12.3378	0.871
12.3711	0.871
12.4044	0.872
12.4376	0.877
12.4709	0.875
12.5042	0.839
12.5375	0.677
12.5708	0.582
12.6041	0.585
12.6373	0.701
12.6706	0.774
12.7039	0.8
12.7372	0.807
12.7705	0.81
12.8038	0.81
12.837	0.81
12.8703	0.802
12.9036	0.788
12.9369	0.751
12.9702	0.673
13.0035	0.528
13.0367	0.437
13.07	0.306
13.1033	0.192
13.1366	0.169
13.1699	0.191
13.2032	0.211
13.2364	0.201
13.2697	0.274
13.303	0.398
13.3363	0.425
13.3696	0.393
13.4029	0.399
13.4361	0.401
13.4694	0.403
13.5027	0.486
13.536	0.585
13.5693	0.653
13.6026	0.681
13.6358	0.687
13.6691	0.604
13.7024	0.483
13.7357	0.339
13.769	0.181
13.8023	0.141
13.8355	0.139
13.8688	0.169
13.9021	0.187
13.9354	0.181
13.9687	0.239
14.002	0.34
14.0352	0.419
14.0685	0.483
14.1018	0.529
14.1351	0.549
14.1684	0.576
14.2017	0.596
14.2349	0.604
14.2682	0.622
14.3015	0.64
14.3348	0.651
14.3681	0.656
14.4014	0.661
14.4346	0.664
14.4679	0.669
14.5012	0.672
14.5345	0.675
14.5678	0.68
14.6011	0.679
14.6343	0.681
14.6676	0.681
14.7009	0.681
14.7342	0.681
14.7675	0.681
14.8008	0.681
14.834	0.681
14.8673	0.681
14.9006	0.681
14.9339	0.677
14.9672	0.641
15.0005	0.597
15.0337	0.648
15.067	0.681
15.1003	0.679
