Infrared Spectrum: (Z-Styrylthio)acetic acid
Formula: C 10 H 10 O 2 S
CAS: 1914-61-0
State: gas
Origin: EPA-IR VAPOR PHASE LIBRARY
1/CM	ABSORBANCE
549.8	0.02565
559.445	0.02569
569.09	0.03272
578.734	0.04438
588.379	0.05426
598.024	0.04807
607.669	0.04368
617.313	0.04326
626.958	0.04
636.603	0.03789
646.248	0.03665
655.893	0.04039
665.537	0.05128
675.182	0.06148
684.827	0.06804
694.472	0.06529
704.116	0.04986
713.761	0.03836
723.406	0.04335
733.051	0.04885
742.695	0.04187
752.34	0.03692
761.985	0.04025
771.63	0.03775
781.275	0.02529
790.919	0.01894
800.564	0.01585
810.209	0.01567
819.854	0.0132
829.498	0.01542
839.143	0.02446
848.788	0.01967
858.433	0.01423
868.078	0.01307
877.722	0.01179
887.367	0.01242
897.012	0.01506
906.657	0.01876
916.301	0.02012
925.946	0.02231
935.591	0.02555
945.236	0.02475
954.88	0.01705
964.525	0.01026
974.17	0.00725
983.815	0.00661
993.46	0.00614
1003.1	0.00696
1012.75	0.0072
1022.39	0.01121
1032.04	0.01339
1041.68	0.01192
1051.33	0.01868
1060.97	0.03149
1070.62	0.05165
1080.26	0.08544
1089.91	0.13917
1099.55	0.20352
1109.2	0.17729
1118.84	0.10415
1128.49	0.06627
1138.13	0.04795
1147.78	0.03929
1157.42	0.03534
1167.07	0.03729
1176.71	0.04562
1186.36	0.058
1196	0.06483
1205.64	0.05679
1215.29	0.04646
1224.93	0.04187
1234.58	0.03522
1244.22	0.03053
1253.87	0.02976
1263.51	0.02836
1273.16	0.02707
1282.8	0.02567
1292.45	0.02764
1302.09	0.03301
1311.74	0.04168
1321.38	0.04946
1331.03	0.05356
1340.67	0.05514
1350.32	0.05683
1359.96	0.04673
1369.61	0.02967
1379.25	0.01953
1388.9	0.01564
1398.54	0.01651
1408.18	0.02002
1417.83	0.0222
1427.47	0.01985
1437.12	0.01684
1446.76	0.0159
1456.41	0.01073
1466.05	0.00803
1475.7	0.00844
1485.34	0.01481
1494.99	0.02259
1504.63	0.01021
1514.28	0.00486
1523.92	0.00413
1533.57	0.00433
1543.21	0.00448
1552.86	0.00542
1562.5	0.00785
1572.15	0.01066
1581.79	0.01374
1591.44	0.02167
1601.08	0.03058
1610.73	0.01898
1620.37	0.00952
1630.01	0.00705
1639.66	0.00584
1649.3	0.00553
1658.95	0.00591
1668.59	0.00696
1678.24	0.00855
1687.88	0.00965
1697.53	0.01222
1707.17	0.01726
1716.82	0.0236
1726.46	0.03195
1736.11	0.04605
1745.75	0.06862
1755.4	0.10495
1765.04	0.16002
1774.69	0.22887
1784.33	0.25028
1793.98	0.18853
1803.62	0.12363
1813.27	0.06683
1822.91	0.03389
1832.55	0.01817
1842.2	0.01052
1851.84	0.00739
1861.49	0.00615
1871.13	0.00559
1880.78	0.00551
1890.42	0.0045
1900.07	0.00345
1909.71	0.00325
1919.36	0.00387
1929	0.00471
1938.65	0.00575
1948.29	0.00634
1957.94	0.00601
1967.58	0.00379
1977.23	0.00292
1986.87	0.00231
1996.52	0.00203
2006.16	0.00176
2015.81	0.00159
2025.45	0.00151
2035.1	0.00134
2044.74	0.0014
2054.38	0.0014
2064.03	0.00106
2073.67	0.00125
2083.32	0.00122
2092.96	0.00127
2102.61	0.00132
2112.25	0.00116
2121.9	0.00109
2131.54	0.00107
2141.19	0.00111
2150.83	0.00111
2160.48	0.00126
2170.12	0.00141
2179.77	0.00168
2189.41	0.00176
2199.06	0.00175
2208.7	0.00163
2218.35	0.00127
2227.99	0.0011
2237.64	0.00102
2247.28	0.00123
2256.92	0.00135
2266.57	0.00135
2276.21	0.00148
2285.86	0.00193
2295.5	0.00226
2305.15	0.00269
2314.79	0.00361
2324.44	0.00352
2334.08	0.00335
2343.73	0.00314
2353.37	0.00303
2363.02	0.00369
2372.66	0.00314
2382.31	0.00187
2391.95	0.00111
2401.6	0.0012
2411.24	0.00122
2420.89	0.00148
2430.53	0.00161
2440.18	0.00174
2449.82	0.00165
2459.47	0.00143
2469.11	0.00118
2478.75	0.00106
2488.4	0.00107
2498.04	0.0008983
2507.69	0.0008976
2517.33	0.0009994
2526.98	0.00105
2536.62	0.0008665
2546.27	0.0008912
2555.91	0.0007238
2565.56	0.0007605
2575.2	0.0006948
2584.85	0.0008072
2594.49	0.0008912
2604.14	0.0009909
2613.78	0.0006867
2623.43	0.0008363
2633.07	0.0008029
2642.72	0.00102
2652.36	0.00102
2662.01	0.0008338
2671.65	0.0007225
2681.29	0.000514
2690.94	0.0006447
2700.58	0.0007317
2710.23	0.0006317
2719.87	0.0004311
2729.52	0.0004308
2739.16	0.0004875
2748.81	0.0003812
2758.45	0.000428
2768.1	0.0006601
2777.74	0.0009716
2787.39	0.0009927
2797.03	0.00101
2806.68	0.00115
2816.32	0.00131
2825.97	0.00146
2835.61	0.00121
2845.26	0.0012
2854.9	0.00122
2864.55	0.00173
2874.19	0.00186
2883.84	0.00221
2893.48	0.00244
2903.12	0.00258
2912.77	0.0035
2922.41	0.00528
2932.06	0.00832
2941.7	0.01106
2951.35	0.01026
2960.99	0.00647
2970.64	0.00468
2980.28	0.00505
2989.93	0.00607
2999.57	0.01006
3009.22	0.01751
3018.86	0.02906
3028.51	0.04165
3038.15	0.03687
3047.8	0.0261
3057.44	0.0313
3067.09	0.05149
3076.73	0.03889
3086.38	0.02808
3096.02	0.02031
3105.67	0.01327
3115.31	0.00675
3124.95	0.00275
3134.6	0.00224
3144.24	0.00201
3153.89	0.0017
3163.53	0.00155
3173.18	0.00122
3182.82	0.001
3192.47	0.0008348
3202.11	0.0009805
3211.76	0.0007219
3221.4	0.0006643
3231.05	0.0005792
3240.69	0.0006398
3250.34	0.0004393
3259.98	0.0005436
3269.63	0.0006144
3279.27	0.0004757
3288.92	0.0003072
3298.56	0.000464
3308.21	0.0003675
3317.85	0.0005723
3327.49	0.0003682
3337.14	0.0003492
3346.78	0.0003716
3356.43	0.000679
3366.07	0.0005771
3375.72	0.0008549
3385.36	0.0009589
3395.01	0.0012
3404.65	0.00157
3414.3	0.00252
3423.94	0.00321
3433.59	0.00407
3443.23	0.00507
3452.88	0.00562
3462.52	0.00586
3472.17	0.00522
3481.81	0.00474
3491.46	0.00455
3501.1	0.00417
3510.75	0.00408
3520.39	0.00423
3530.04	0.00518
3539.68	0.00752
3549.32	0.01337
3558.97	0.03197
3568.61	0.08767
3578.26	0.10785
3587.9	0.04
3597.55	0.01356
3607.19	0.006
3616.84	0.00339
3626.48	0.00212
3636.13	0.00174
3645.77	0.00141
3655.42	0.00123
3665.06	0.0009294
3674.71	0.0003646
3684.35	0.0008182
3694	0.00109
3703.64	0.0008419
3713.29	0.0005538
3722.93	0.0004797
3732.58	0.0005077
3742.22	0.0004953
3751.86	0.0005258
3761.51	0.0004358
3771.15	0.0002554
3780.8	0.0005644
3790.44	0.0006477
3800.09	0.0002256
3809.73	0.0005448
3819.38	9.95e-05
3829.02	0.0004122
3838.67	0.0003476
3848.31	0.0001208
3857.96	0.0005463
3867.6	0.0006617
3877.25	0.0007532
3886.89	0.0003059
3896.54	0.0004195
3906.18	0.0003433
3915.83	0.0003571
3925.47	0.0005292
3935.12	0.0002586
3944.76	0.0003237
3954.41	0.0002976
3964.05	0.0003415
3973.69	0.0001266
3983.34	0.0004076
3992.98	0.0007063
