Infrared Spectrum: Pteridine, 2-amino-6,7-dimethyl-
Formula: C8 H9 N5
CAS: 19153-00-5
State: SOLID (NUJOL MULL)
Class: COBLENTZ III
Instrument: PERKIN-ELMER 21 (GRATING)
Instrument parameters: NaCl PRISM
Sampling: TRANSMISSION
Resolution: 2
Origin: SMITH, KLINE & FRENCH LABS.
1/CM	TRANSMITTANCE
665	0.7252
674	0.7661
683	0.8434
692	0.864
701	0.8159
710	0.8042
719	0.7792
728	0.7381
737	0.8215
746	0.7255
755	0.58
764	0.8645
773	0.8879
782	0.8897
791	0.927
800	0.9212
809	0.8422
818	0.9345
827	0.9294
836	0.8904
845	0.8413
854	0.791
863	0.7786
872	0.7864
881	0.8392
890	0.8811
899	0.881
908	0.8884
917	0.8878
926	0.8707
935	0.8443
944	0.8179
953	0.7767
962	0.6597
971	0.7308
980	0.8339
989	0.8291
998	0.7963
1007	0.7556
1016	0.7907
1025	0.7886
1034	0.7687
1043	0.7438
1052	0.7706
1061	0.7572
1070	0.734
1079	0.7463
1088	0.7335
1097	0.7059
1106	0.6803
1115	0.6317
1124	0.5176
1133	0.4503
1142	0.4116
1151	0.5946
1160	0.6845
1169	0.6729
1178	0.6567
1187	0.6098
1196	0.5619
1205	0.5676
1214	0.5414
1223	0.4339
1232	0.5475
1241	0.6334
1250	0.6286
1259	0.6152
1268	0.6061
1277	0.5967
1286	0.5827
1295	0.563
1304	0.5415
1313	0.51
1322	0.4708
1331	0.4315
1340	0.3724
1349	0.2719
1358	0.2406
1367	0.3599
1376	0.2528
1385	0.2196
1394	0.3813
1403	0.3987
1412	0.3541
1421	0.3413
1430	0.2931
1439	0.2884
1448	0.2702
1457	0.2658
1466	0.2931
1475	0.4026
1484	0.4236
1493	0.4147
1502	0.3854
1511	0.3836
1520	0.4213
1529	0.4264
1538	0.4269
1547	0.4321
1556	0.387
1565	0.3794
1574	0.4024
1583	0.379
1592	0.2881
1601	0.2621
1610	0.2675
1619	0.2082
1628	0.1197
1637	0.1065
1646	0.1686
1655	0.2326
1664	0.2399
1673	0.2298
1682	0.2894
1691	0.5149
1700	0.7108
1709	0.7881
1718	0.8441
1727	0.8743
1736	0.9197
1745	0.9536
1754	0.9606
1763	0.9608
1772	0.96
1781	0.9588
1790	0.9572
1799	0.9539
1808	0.9512
1817	0.9482
1826	0.944
1835	0.9345
1844	0.9243
1853	0.9145
1862	0.9059
1871	0.8938
1880	0.8888
1889	0.8831
1898	0.8745
1907	0.8676
1916	0.8608
1925	0.8532
1934	0.8452
1943	0.8399
1952	0.8355
1961	0.8208
1970	0.8051
1979	0.7953
1988	0.7911
1997	0.7864
2006	0.7815
2015	0.7757
2024	0.7699
2033	0.7661
2042	0.7638
2051	0.7611
2060	0.7585
2069	0.7577
2078	0.7554
2087	0.7509
2096	0.7463
2105	0.7417
2114	0.7357
2123	0.7297
2132	0.7236
2141	0.7178
2150	0.7125
2159	0.7078
2168	0.7031
2177	0.699
2186	0.6949
2195	0.6909
2204	0.6875
2213	0.6845
2222	0.6766
2231	0.665
2240	0.6518
2249	0.6471
2258	0.6438
2267	0.641
2276	0.636
2285	0.6181
2294	0.5943
2303	0.5786
2312	0.5767
2321	0.5758
2330	0.5749
2339	0.5741
2348	0.5733
2357	0.5725
2366	0.5707
2375	0.5638
2384	0.5563
2393	0.5519
2402	0.5471
2411	0.541
2420	0.5345
2429	0.5264
2438	0.5189
2447	0.5135
2456	0.5081
2465	0.5028
2474	0.4974
2483	0.4917
2492	0.4861
2501	0.4806
2510	0.4751
2519	0.4694
2528	0.4637
2537	0.454
2546	0.4426
2555	0.4319
2564	0.4243
2573	0.4165
2582	0.408
2591	0.3937
2600	0.3777
2609	0.3655
2618	0.3534
2627	0.3452
2636	0.3382
2645	0.333
2654	0.3279
2663	0.3248
2672	0.322
2681	0.3192
2690	0.3157
2699	0.3118
2708	0.308
2717	0.3048
2726	0.3016
2735	0.2984
2744	0.2946
2753	0.2903
2762	0.2861
2771	0.2734
2780	0.2518
2789	0.2251
2798	0.1871
2807	0.157
2816	0.1342
2825	0.1119
2834	0.0886
2843	0.0853
2852	0.0844
2861	0.0833
2870	0.0786
2879	0.0741
2888	0.0725
2897	0.0731
2906	0.0748
2915	0.0785
2924	0.0885
2933	0.1048
2942	0.1453
2951	0.1864
2960	0.1938
2969	0.1939
2978	0.1905
2987	0.1859
2996	0.1808
3005	0.1755
3014	0.1712
3023	0.167
3032	0.1637
3041	0.1605
3050	0.1571
3059	0.1551
3068	0.1543
3077	0.1545
3086	0.1557
3095	0.1582
3104	0.1622
3113	0.1683
3122	0.1764
3131	0.1854
3140	0.1938
3149	0.203
3158	0.2102
3167	0.2145
3176	0.2168
3185	0.2181
3194	0.218
3203	0.2174
3212	0.216
3221	0.2146
3230	0.213
3239	0.2116
3248	0.2112
3257	0.2118
3266	0.2141
3275	0.2194
3284	0.2299
3293	0.2442
3302	0.2963
3311	0.3314
3320	0.3663
3329	0.4012
3338	0.4357
3347	0.4672
3356	0.4876
3365	0.5103
3374	0.5183
3383	0.5221
3392	0.5235
3401	0.5254
3410	0.5284
3419	0.5338
3428	0.5411
3437	0.5515
3446	0.5749
3455	0.5944
3464	0.5974
3473	0.5967
3482	0.5964
3491	0.5957
3500	0.5951
3509	0.5935
3518	0.5916
3527	0.5897
3536	0.587
3545	0.5835
3554	0.5793
3563	0.575
3572	0.5706
3581	0.5661
3590	0.559
3599	0.554
3608	0.5506
3617	0.5488
3626	0.5471
3635	0.5446
3644	0.5417
3653	0.5386
3662	0.5356
3671	0.5326
3680	0.5293
3689	0.5259
3698	0.5225
3707	0.5194
3716	0.5169
3725	0.5144
3734	0.5119
3743	0.5094
3752	0.5074
3761	0.5061
3770	0.5048
3779	0.5034
3788	0.502
3797	0.4996
3806	0.4946
3815	0.4894
3824	0.484
3833	0.4794
3842	0.4757
3851	0.4731
3860	0.4709
3869	0.4688
3878	0.4666
3887	0.4647
3896	0.4627
3905	0.4612
3914	0.4603
3923	0.4595
3932	0.4586
3941	0.4578
3950	0.4571
3959	0.4566
3968	0.4562
3977	0.4557
3986	0.4547
3995	0.4525
