Infrared Spectrum: Quinazolinone, 4(3H)-, 3-(3-chloro-o-tolyl)-2-methyl-
Formula: C16 H13 Cl N2 O
CAS: 1915-77-1
State: SOLID (OIL MULL)
Class: COBLENTZ III
Instrument: PERKIN-ELMER 21 (GRATING)
Instrument parameters: NaCl PRISM
Sampling: TRANSMISSION
Resolution: 2
Origin: SMITH KLINE & FRENCH LABS.
1/CM	TRANSMITTANCE
665	0.7415
674	0.8523
683	0.8632
692	0.8223
701	0.7441
710	0.7756
719	0.8673
728	0.8599
737	0.6966
746	0.9215
755	0.9306
764	0.9099
773	0.815
782	0.3588
791	0.8955
800	0.8806
809	0.9844
818	0.9858
827	0.9821
836	0.9757
845	0.9668
854	0.9573
863	0.8739
872	0.8747
881	0.9417
890	0.9522
899	0.9383
908	0.9222
917	0.9239
926	0.9185
935	0.9148
944	0.9037
953	0.8904
962	0.8663
971	0.8558
980	0.8482
989	0.7678
998	0.8267
1007	0.8592
1016	0.7675
1025	0.8272
1034	0.8326
1043	0.8026
1052	0.9009
1061	0.8989
1070	0.8927
1079	0.9025
1088	0.8912
1097	0.8283
1106	0.7175
1115	0.904
1124	0.9013
1133	0.8653
1142	0.7678
1151	0.831
1160	0.8749
1169	0.8699
1178	0.788
1187	0.8671
1196	0.864
1205	0.8399
1214	0.8014
1223	0.7482
1232	0.788
1241	0.7994
1250	0.7599
1259	0.5992
1268	0.3775
1277	0.7117
1286	0.7131
1295	0.6964
1304	0.6653
1313	0.5064
1322	0.4975
1331	0.5006
1340	0.6279
1349	0.7596
1358	0.621
1367	0.4014
1376	0.4279
1385	0.774
1394	0.8114
1403	0.7873
1412	0.7399
1421	0.6411
1430	0.5237
1439	0.326
1448	0.2273
1457	0.1916
1466	0.2897
1475	0.6857
1484	0.7554
1493	0.804
1502	0.836
1511	0.8261
1520	0.8102
1529	0.7789
1538	0.7555
1547	0.6979
1556	0.4443
1565	0.4499
1574	0.591
1583	0.3626
1592	0.3449
1601	0.4088
1610	0.6077
1619	0.885
1628	0.8768
1637	0.8206
1646	0.783
1655	0.7598
1664	0.5583
1673	0.3118
1682	0.1112
1691	0.5048
1700	0.8893
1709	0.9558
1718	0.9514
1727	0.9394
1736	0.9382
1745	0.9426
1754	0.9489
1763	0.946
1772	0.9427
1781	0.943
1790	0.9432
1799	0.9364
1808	0.9298
1817	0.9269
1826	0.9266
1835	0.9139
1844	0.9094
1853	0.908
1862	0.9074
1871	0.9085
1880	0.9147
1889	0.9146
1898	0.9105
1907	0.9057
1916	0.9022
1925	0.8998
1934	0.8994
1943	0.8943
1952	0.8918
1961	0.8919
1970	0.8912
1979	0.8864
1988	0.8868
1997	0.888
2006	0.8873
2015	0.8856
2024	0.884
2033	0.8814
2042	0.8792
2051	0.8772
2060	0.8753
2069	0.8738
2078	0.8727
2087	0.8716
2096	0.8713
2105	0.8717
2114	0.872
2123	0.8703
2132	0.8678
2141	0.8638
2150	0.8591
2159	0.8547
2168	0.8506
2177	0.8468
2186	0.8433
2195	0.8413
2204	0.8398
2213	0.8382
2222	0.838
2231	0.8381
2240	0.8383
2249	0.8376
2258	0.8363
2267	0.8339
2276	0.8315
2285	0.829
2294	0.8264
2303	0.8238
2312	0.8212
2321	0.8186
2330	0.816
2339	0.8132
2348	0.8105
2357	0.8078
2366	0.8051
2375	0.8026
2384	0.8
2393	0.7983
2402	0.7974
2411	0.7965
2420	0.7957
2429	0.7949
2438	0.7942
2447	0.7937
2456	0.7931
2465	0.7924
2474	0.7897
2483	0.7865
2492	0.7834
2501	0.7801
2510	0.7771
2519	0.7743
2528	0.7715
2537	0.7688
2546	0.766
2555	0.7633
2564	0.7607
2573	0.7581
2582	0.755
2591	0.7527
2600	0.7508
2609	0.7503
2618	0.751
2627	0.7529
2636	0.7559
2645	0.7553
2654	0.7537
2663	0.7502
2672	0.7465
2681	0.7459
2690	0.747
2699	0.7479
2708	0.7466
2717	0.7431
2726	0.7347
2735	0.7207
2744	0.706
2753	0.6855
2762	0.6614
2771	0.6283
2780	0.5576
2789	0.4573
2798	0.2969
2807	0.1448
2816	0.1004
2825	0.0978
2834	0.0968
2843	0.0957
2852	0.0839
2861	0.0761
2870	0.0736
2879	0.0735
2888	0.0755
2897	0.0848
2906	0.124
2915	0.1704
2924	0.2296
2933	0.3105
2942	0.391
2951	0.471
2960	0.5186
2969	0.5561
2978	0.5725
2987	0.5911
2996	0.6114
3005	0.6188
3014	0.6231
3023	0.6268
3032	0.6308
3041	0.6352
3050	0.6445
3059	0.6526
3068	0.6555
3077	0.6565
3086	0.6569
3095	0.6574
3104	0.6579
3113	0.6583
3122	0.6589
3131	0.6596
3140	0.6603
3149	0.661
3158	0.6631
3167	0.6666
3176	0.6691
3185	0.6676
3194	0.6659
3203	0.6642
3212	0.6623
3221	0.6599
3230	0.6579
3239	0.6563
3248	0.6547
3257	0.6531
3266	0.6515
3275	0.6501
3284	0.6487
3293	0.6474
3302	0.6475
3311	0.6481
3320	0.6487
3329	0.649
3338	0.6486
3347	0.6482
3356	0.6478
3365	0.6469
3374	0.6454
3383	0.6449
3392	0.6451
3401	0.6454
3410	0.646
3419	0.6462
3428	0.6449
3437	0.6428
3446	0.6398
3455	0.6359
3464	0.6341
3473	0.6324
3482	0.631
3491	0.6304
3500	0.6298
3509	0.6291
3518	0.6285
3527	0.6279
3536	0.6265
3545	0.6241
3554	0.6209
3563	0.6192
3572	0.6178
3581	0.6164
3590	0.6156
3599	0.6154
3608	0.6152
3617	0.6151
3626	0.6147
3635	0.6142
3644	0.6137
3653	0.6138
3662	0.614
3671	0.6143
3680	0.6143
3689	0.6127
3698	0.6107
3707	0.6088
3716	0.6067
3725	0.6038
3734	0.601
3743	0.5982
3752	0.5974
3761	0.5965
3770	0.5957
3779	0.595
3788	0.5944
3797	0.594
3806	0.5935
3815	0.593
3824	0.5918
3833	0.5893
3842	0.5869
3851	0.5846
3860	0.5824
3869	0.5801
3878	0.578
3887	0.5767
3896	0.5757
3905	0.5747
3914	0.5734
3923	0.5706
3932	0.5678
3941	0.5653
3950	0.5628
3959	0.5611
3968	0.5595
3977	0.5578
3986	0.5561
3995	0.5543
