Infrared Spectrum: trans-3-Decene
Formula: C 10 H 20
CAS: 19150-21-1
State: gas
Instrument: HP-GC/MS/IRD
Origin: NIST Mass Spectrometry Data Center
1/CM	ABSORBANCE
550	0.0001786
562	0.0002444
574	0.0001081
586	0.0001645
598	8.93e-05
610	0.0001081
622	6.58e-05
634	0.0001316
646	0.0001363
658	0.0001222
670	0.0001128
682	0.0002162
694	0.0002256
706	0.0004183
718	0.0006439
730	0.0007285
742	0.0006016
754	0.0005311
766	0.0005123
778	0.0005123
790	0.0004794
802	0.0004794
814	0.000423
826	0.0003901
838	0.0004277
850	0.0004465
862	0.0005029
874	0.0005734
886	0.0007191
898	0.0008507
910	0.0009635
922	0.0010763
934	0.0014852
946	0.0027072
958	0.0055319
970	0.0058938
982	0.0030832
994	0.0016544
1006	0.0011092
1018	0.0009071
1030	0.0007896
1042	0.0008037
1054	0.0009729
1066	0.0009917
1078	0.0009212
1090	0.0007473
1102	0.0006204
1114	0.0004982
1126	0.0003854
1138	0.0003337
1150	0.0003102
1162	0.000329
1174	0.0003995
1186	0.0003901
1198	0.0003901
1210	0.0003901
1222	0.0004371
1234	0.0004747
1246	0.0005499
1258	0.0006768
1270	0.0008883
1282	0.0011468
1294	0.0015557
1306	0.0016074
1318	0.0015134
1330	0.0016967
1342	0.00188
1354	0.0017343
1366	0.0014711
1378	0.0016779
1390	0.0016168
1402	0.0012173
1414	0.0012079
1426	0.001645
1438	0.002867
1450	0.0042253
1462	0.0048034
1474	0.0035015
1486	0.001692
1498	0.0009588
1510	0.0006251
1522	0.0004653
1534	0.0003525
1546	0.0002914
1558	0.0002491
1570	0.0002256
1582	0.0002068
1594	0.0001974
1606	0.0001739
1618	0.000188
1630	0.000188
1642	0.0002068
1654	0.0002491
1666	0.0002303
1678	0.0002397
1690	0.000235
1702	0.0002303
1714	0.000235
1726	0.0002209
1738	0.0002021
1750	0.0002115
1762	0.0002632
1774	0.0002632
1786	0.000235
1798	0.0001974
1810	0.000141
1822	0.0001551
1834	0.0001222
1846	0.0001363
1858	0.0001034
1870	8.93e-05
1882	7.52e-05
1894	7.05e-05
1906	4.23e-05
1918	3.29e-05
1930	4.7e-05
1942	3.29e-05
1954	3.29e-05
1966	2.82e-05
1978	4.7e-05
1990	1.88e-05
2002	4.23e-05
2014	7.05e-05
2026	9.87e-05
2038	7.99e-05
2050	8.46e-05
2062	7.99e-05
2074	4.23e-05
2086	7.52e-05
2098	3.76e-05
2110	1.41e-05
2122	4.7e-05
2134	4.7e-05
2146	3.76e-05
2158	2.82e-05
2170	3.76e-05
2182	5.64e-05
2194	4.7e-05
2206	4.23e-05
2218	5.17e-05
2230	5.64e-05
2242	4.23e-05
2254	4.23e-05
2266	4.7e-05
2278	2.82e-05
2290	2.35e-05
2302	3.29e-05
2314	4.7e-05
2326	5.64e-05
2338	6.11e-05
2350	6.11e-05
2362	7.52e-05
2374	6.58e-05
2386	0.0001222
2398	9.4e-05
2410	9.4e-05
2422	7.52e-05
2434	8.93e-05
2446	7.05e-05
2458	9.4e-05
2470	4.23e-05
2482	6.58e-05
2494	7.52e-05
2506	7.99e-05
2518	8.93e-05
2530	0.0001598
2542	0.0001833
2554	0.0001692
2566	0.000188
2578	0.000188
2590	0.0002021
2602	0.0002491
2614	0.000282
2626	0.0003102
2638	0.0003243
2650	0.0003854
2662	0.0004512
2674	0.0004888
2686	0.0004888
2698	0.0005029
2710	0.0005076
2722	0.0005734
2734	0.000705
2746	0.0007708
2758	0.0008319
2770	0.0009447
2782	0.0011327
2794	0.0014335
2806	0.0018283
2818	0.0025521
2830	0.0038869
2842	0.0071487
2854	0.0139637
2866	0.0187201
2878	0.0178365
2890	0.0171879
2902	0.0192371
2914	0.0275702
2926	0.0422906
2938	0.0454584
2950	0.0324206
2962	0.0305453
2974	0.0307474
2986	0.0153878
2998	0.0089817
3010	0.0064061
3022	0.0051465
3034	0.0038728
3046	0.0026602
3058	0.0018706
3070	0.0014382
3082	0.0011703
3094	0.0010763
3106	0.0008883
3118	0.0007755
3130	0.0006956
3142	0.0006016
3154	0.0005734
3166	0.0004982
3178	0.0004512
3190	0.0003807
3202	0.0003008
3214	0.0002491
3226	0.0002115
3238	0.0001739
3250	0.0001598
3262	0.0001128
3274	0.0001222
3286	7.99e-05
3298	7.52e-05
3310	7.52e-05
3322	7.52e-05
3334	8.93e-05
3346	7.99e-05
3358	6.11e-05
3370	8.46e-05
3382	7.99e-05
3394	8.46e-05
3406	9.4e-05
3418	7.99e-05
3430	7.52e-05
3442	6.58e-05
3454	1.88e-05
3466	8.93e-05
3478	8.46e-05
3490	6.58e-05
3502	4.7e-05
3514	7.05e-05
3526	5.17e-05
3538	4.7e-05
3550	5.64e-05
3562	3.76e-05
3574	4.7e-05
3586	5.64e-05
3598	7.05e-05
3610	6.58e-05
3622	9.87e-05
3634	0.0001175
3646	0.0001175
3658	0.0001504
3670	9.87e-05
3682	0.0001457
3694	0.000141
3706	0.0001222
3718	0.0001128
3730	0.0001457
3742	0.0001457
3754	0.0001457
3766	0.0001457
3778	0.0002021
3790	0.0001504
3802	0.0001786
3814	0.0001739
3826	0.0001739
3838	0.0001739
