Infrared Spectrum: 5-Methylbenzofurazan-1-oxide
Formula: C 7 H 6 N 2 O 2
CAS: 19164-41-1
State: gas
Origin: EPA-IR VAPOR PHASE LIBRARY
1/CM	ABSORBANCE
549.8	0.004525
559.445	0.009925
569.09	0.011935
578.734	0.009475
588.379	0.006395
598.024	0.002705
607.669	0.001825
617.313	0.0011809
626.958	0.001915
636.603	0.002045
646.248	0.002645
655.893	0.004405
665.537	0.003255
675.182	0.001865
684.827	0.0012504
694.472	0.001745
704.116	0.001925
713.761	0.004255
723.406	0.007045
733.051	0.006545
742.695	0.003785
752.34	0.003415
761.985	0.007765
771.63	0.015495
781.275	0.029045
790.919	0.033385
800.564	0.015915
810.209	0.006055
819.854	0.002425
829.498	0.004595
839.143	0.009255
848.788	0.013615
858.433	0.009145
868.078	0.005035
877.722	0.002555
887.367	0.002005
897.012	0.002615
906.657	0.003895
916.301	0.004035
925.946	0.003685
935.591	0.002485
945.236	0.002535
954.88	0.002955
964.525	0.003295
974.17	0.004035
983.815	0.006735
993.46	0.011415
1003.1	0.017715
1012.75	0.021385
1022.39	0.023355
1032.04	0.023035
1041.68	0.015555
1051.33	0.008925
1060.97	0.004345
1070.62	0.002975
1080.26	0.003175
1089.91	0.002245
1099.55	0.005825
1109.2	0.009215
1118.84	0.009775
1128.49	0.007435
1138.13	0.006055
1147.78	0.007635
1157.42	0.006305
1167.07	0.004575
1176.71	0.004455
1186.36	0.004885
1196	0.008435
1205.64	0.010515
1215.29	0.006285
1224.93	0.004895
1234.58	0.003565
1244.22	0.003025
1253.87	0.004445
1263.51	0.004385
1273.16	0.004425
1282.8	0.003725
1292.45	0.004285
1302.09	0.008335
1311.74	0.009715
1321.38	0.004855
1331.03	0.003335
1340.67	0.003315
1350.32	0.004395
1359.96	0.004745
1369.61	0.004905
1379.25	0.006765
1388.9	0.007945
1398.54	0.006045
1408.18	0.004385
1417.83	0.004845
1427.47	0.005715
1437.12	0.008015
1446.76	0.011595
1456.41	0.012455
1466.05	0.012915
1475.7	0.018235
1485.34	0.031415
1494.99	0.035925
1504.63	0.027365
1514.28	0.020025
1523.92	0.040095
1533.57	0.070855
1543.21	0.066915
1552.86	0.035515
1562.5	0.025625
1572.15	0.031505
1581.79	0.054175
1591.44	0.121765
1601.08	0.215855
1610.73	0.262975
1620.37	0.250725
1630.01	0.201655
1639.66	0.097495
1649.3	0.030385
1658.95	0.011985
1668.59	0.009255
1678.24	0.009405
1687.88	0.009535
1697.53	0.008565
1707.17	0.006455
1716.82	0.005505
1726.46	0.004405
1736.11	0.003645
1745.75	0.003585
1755.4	0.003625
1765.04	0.003115
1774.69	0.002925
1784.33	0.002545
1793.98	0.002455
1803.62	0.002485
1813.27	0.002295
1822.91	0.002025
1832.55	0.002525
1842.2	0.002525
1851.84	0.002255
1861.49	0.002265
1871.13	0.002205
1880.78	0.002345
1890.42	0.002175
1900.07	0.002125
1909.71	0.002255
1919.36	0.001915
1929	0.001755
1938.65	0.001253
1948.29	0.0012288
1957.94	0.0015271
1967.58	0.0014241
1977.23	0.0012558
1986.87	0.0011379
1996.52	0.0011709
2006.16	0.0011117
2015.81	0.0011162
2025.45	0.00115
2035.1	0.0013377
2044.74	0.0012
2054.38	0.0012107
2064.03	0.0014164
2073.67	0.0014232
2083.32	0.0010833
2092.96	0.0011741
2102.61	0.0011239
2112.25	0.0007502
2121.9	0.0009883
2131.54	0.0009689
2141.19	0.0009446
2150.83	0.0010957
2160.48	0.0009128
2170.12	0.0011819
2179.77	0.0011715
2189.41	0.0011765
2199.06	0.0011097
2208.7	0.0009324
2218.35	0.00070812
2227.99	0.0009392
2237.64	0.0009831
2247.28	0.0010168
2256.92	0.0012999
2266.57	0.0012433
2276.21	0.0010114
2285.86	0.0012284
2295.5	0.0013212
2305.15	0.001406
2314.79	0.0014068
2324.44	0.001645
2334.08	0.0013757
2343.73	0.001463
2353.37	0.0015104
2363.02	0.001775
2372.66	0.001635
2382.31	0.0015377
2391.95	0.0013195
2401.6	0.0014719
2411.24	0.0011798
2420.89	0.0012384
2430.53	0.0011041
2440.18	0.0010376
2449.82	0.0014334
2459.47	0.0011259
2469.11	0.0009142
2478.75	0.0010829
2488.4	0.0008874
2498.04	0.0009707
2507.69	0.0009333
2517.33	0.0009884
2526.98	0.0011351
2536.62	0.0012194
2546.27	0.0010568
2555.91	0.0008761
2565.56	0.00069812
2575.2	0.00067049
2584.85	0.000784
2594.49	0.0012536
2604.14	0.0010702
2613.78	0.0011247
2623.43	0.0011678
2633.07	0.0010379
2642.72	0.0011839
2652.36	0.0009714
2662.01	0.0009178
2671.65	0.0013613
2681.29	0.001253
2690.94	0.0015352
2700.58	0.0014973
2710.23	0.002375
2719.87	0.002605
2729.52	0.002735
2739.16	0.002765
2748.81	0.002365
2758.45	0.001915
2768.1	0.0013894
2777.74	0.0012118
2787.39	0.001685
2797.03	0.002035
2806.68	0.002755
2816.32	0.002255
2825.97	0.002965
2835.61	0.003045
2845.26	0.002875
2854.9	0.003825
2864.55	0.004925
2874.19	0.006565
2883.84	0.006525
2893.48	0.005505
2903.12	0.004645
2912.77	0.005015
2922.41	0.008105
2932.06	0.011755
2941.7	0.010305
2951.35	0.006895
2960.99	0.007235
2970.64	0.005825
2980.28	0.006515
2989.93	0.007065
2999.57	0.005555
3009.22	0.004825
3018.86	0.004455
3028.51	0.004135
3038.15	0.004845
3047.8	0.006305
3057.44	0.007215
3067.09	0.007055
3076.73	0.007075
3086.38	0.005235
3096.02	0.003585
3105.67	0.002775
3115.31	0.001875
3124.95	0.0015496
3134.6	0.0011573
3144.24	0.0013651
3153.89	0.0013353
3163.53	0.00078
3173.18	0.0010983
3182.82	0.001685
3192.47	0.001955
3202.11	0.0015641
3211.76	0.0012154
3221.4	0.0011856
3231.05	0.000967
3240.69	0.0009625
3250.34	0.0009024
3259.98	0.0009356
3269.63	0.0010309
3279.27	0.000499
3288.92	0.00070642
3298.56	0.0007209
3308.21	0.000271
3317.85	0.0005405
3327.49	0.00068338
3337.14	0.0007512
3346.78	0.00069379
3356.43	0.0005807
3366.07	0.0007249
3375.72	0.0005473
3385.36	0.000593
3395.01	0.000404
3404.65	0.000226
3414.3	0.0008708
3423.94	0.001316
3433.59	0.0010213
3443.23	0.0007563
3452.88	0.000351
3462.52	0.0007842
3472.17	0.0011759
3481.81	0.0009285
3491.46	0.000495
3501.1	0.00067012
3510.75	0.0007491
3520.39	0.00063992
3530.04	0.000585
3539.68	0.0010749
3549.32	0.0009241
3558.97	0.0005788
3568.61	0.0008465
3578.26	0.00063128
3587.9	0.001064
3597.55	0.0013012
3607.19	0.0008169
3616.84	0.0005734
3626.48	0.0012117
3636.13	0.0011178
3645.77	0.000437
3655.42	0.0010459
3665.06	0.0010108
3674.71	0.000451
3684.35	0.000503
3694	0.0008733
3703.64	0.0009656
3713.29	0.0007677
3722.93	0.0005
3732.58	0.0008295
3742.22	0.00067097
3751.86	0.0011853
3761.51	0.0012382
3771.15	0.0005216
3780.8	6.9e-05
3790.44	0.0005424
3800.09	0.0008873
3809.73	0.000445
3819.38	0.0013799
3829.02	0.0009765
3838.67	0.0007972
3848.31	0.0009043
3857.96	0.0010631
3867.6	0.00070452
3877.25	0.0013292
3886.89	0.000934
3896.54	0.000462
3906.18	0.00071065
3915.83	0.0010293
3925.47	0.0012372
3935.12	0.0010366
3944.76	0.0012508
3954.41	0.0007806
3964.05	0.0010058
3973.69	0.0005646
3983.34	0.0011152
3992.98	0.0006351
