Infrared Spectrum: 5-Hydroxy-3,4-dimethoxybenzoic acid
Formula: C 9 H 10 O 5
CAS: 1916-08-1
State: gas
Origin: EPA-IR VAPOR PHASE LIBRARY
1/CM	ABSORBANCE
549.8	0.004265
559.445	0.003365
569.09	0.002765
578.734	0.003565
588.379	0.004955
598.024	0.005005
607.669	0.005885
617.313	0.005985
626.958	0.007925
636.603	0.007075
646.248	0.007415
655.893	0.013185
665.537	0.018185
675.182	0.010075
684.827	0.003215
694.472	0.001995
704.116	0.001356
713.761	0.001505
723.406	0.001675
733.051	0.002345
742.695	0.002665
752.34	0.005045
761.985	0.010285
771.63	0.010575
781.275	0.005855
790.919	0.002965
800.564	0.001775
810.209	0.001485
819.854	0.001715
829.498	0.0013323
839.143	0.001585
848.788	0.002115
858.433	0.001985
868.078	0.003085
877.722	0.004305
887.367	0.003705
897.012	0.002325
906.657	0.002945
916.301	0.005635
925.946	0.004575
935.591	0.002765
945.236	0.002215
954.88	0.002745
964.525	0.005505
974.17	0.007205
983.815	0.006655
993.46	0.008195
1003.1	0.013525
1012.75	0.013135
1022.39	0.006615
1032.04	0.004295
1041.68	0.004215
1051.33	0.006085
1060.97	0.008655
1070.62	0.014705
1080.26	0.022165
1089.91	0.027075
1099.55	0.030295
1109.2	0.035135
1118.84	0.029755
1128.49	0.022935
1138.13	0.040375
1147.78	0.064335
1157.42	0.045595
1167.07	0.025645
1176.71	0.023375
1186.36	0.024695
1196	0.030635
1205.64	0.030145
1215.29	0.018505
1224.93	0.015135
1234.58	0.013295
1244.22	0.009255
1253.87	0.008485
1263.51	0.008915
1273.16	0.007335
1282.8	0.007045
1292.45	0.007465
1302.09	0.009165
1311.74	0.011815
1321.38	0.013355
1331.03	0.014675
1340.67	0.018725
1350.32	0.028915
1359.96	0.043665
1369.61	0.047445
1379.25	0.036755
1388.9	0.020285
1398.54	0.009545
1408.18	0.007485
1417.83	0.011185
1427.47	0.019005
1437.12	0.016445
1446.76	0.010315
1456.41	0.012185
1466.05	0.015255
1475.7	0.012155
1485.34	0.009895
1494.99	0.013105
1504.63	0.018175
1514.28	0.012965
1523.92	0.006405
1533.57	0.004365
1543.21	0.004045
1552.86	0.004815
1562.5	0.006555
1572.15	0.010805
1581.79	0.017115
1591.44	0.021795
1601.08	0.018135
1610.73	0.010745
1620.37	0.005885
1630.01	0.003975
1639.66	0.003075
1649.3	0.002675
1658.95	0.002425
1668.59	0.002095
1678.24	0.001995
1687.88	0.002225
1697.53	0.003045
1707.17	0.004575
1716.82	0.004685
1726.46	0.004785
1736.11	0.008485
1745.75	0.029215
1755.4	0.071595
1765.04	0.051455
1774.69	0.011215
1784.33	0.004715
1793.98	0.003665
1803.62	0.004215
1813.27	0.004005
1822.91	0.002285
1832.55	0.001475
1842.2	0.0013341
1851.84	0.0010593
1861.49	0.000975
1871.13	0.000995
1880.78	0.0011362
1890.42	0.0011634
1900.07	0.0011245
1909.71	0.0010819
1919.36	0.0009007
1929	0.0010793
1938.65	0.0009926
1948.29	0.0011293
1957.94	0.0011848
1967.58	0.0012157
1977.23	0.0012947
1986.87	0.0012641
1996.52	0.0013569
2006.16	0.0013626
2015.81	0.0012984
2025.45	0.0011985
2035.1	0.0010534
2044.74	0.001095
2054.38	0.0012478
2064.03	0.0013009
2073.67	0.001081
2083.32	0.0011537
2092.96	0.0010362
2102.61	0.000999
2112.25	0.000833
2121.9	0.0010286
2131.54	0.0009257
2141.19	0.0008212
2150.83	0.0007395
2160.48	0.0008893
2170.12	0.001027
2179.77	0.0008157
2189.41	0.0008263
2199.06	0.0008947
2208.7	0.000777
2218.35	0.0009666
2227.99	0.000924
2237.64	0.0009991
2247.28	0.0010983
2256.92	0.0009216
2266.57	0.0010213
2276.21	0.0008622
2285.86	0.0009808
2295.5	0.0009329
2305.15	0.0009328
2314.79	0.0008144
2324.44	0.000828
2334.08	0.0009058
2343.73	0.000778
2353.37	0.0007571
2363.02	0.000881
2372.66	0.0009126
2382.31	0.000763
2391.95	0.0010193
2401.6	0.0008698
2411.24	0.0009351
2420.89	0.0008771
2430.53	0.00102
2440.18	0.0009791
2449.82	0.0009161
2459.47	0.0010434
2469.11	0.0010576
2478.75	0.0009615
2488.4	0.0008624
2498.04	0.0009107
2507.69	0.001016
2517.33	0.0012278
2526.98	0.0009812
2536.62	0.0009684
2546.27	0.0009698
2555.91	0.0010641
2565.56	0.0009275
2575.2	0.0009912
2584.85	0.0011056
2594.49	0.0009624
2604.14	0.0011103
2613.78	0.0009306
2623.43	0.0009807
2633.07	0.0009286
2642.72	0.0009519
2652.36	0.0010098
2662.01	0.0008854
2671.65	0.0008329
2681.29	0.0009826
2690.94	0.0007821
2700.58	0.0009376
2710.23	0.0008394
2719.87	0.0009422
2729.52	0.0009609
2739.16	0.0011163
2748.81	0.0010399
2758.45	0.00094
2768.1	0.0009313
2777.74	0.0011288
2787.39	0.001182
2797.03	0.0013653
2806.68	0.0014471
2816.32	0.001835
2825.97	0.002405
2835.61	0.003935
2845.26	0.005855
2854.9	0.005865
2864.55	0.004085
2874.19	0.003315
2883.84	0.003395
2893.48	0.003525
2903.12	0.003885
2912.77	0.004635
2922.41	0.005455
2932.06	0.006435
2941.7	0.009635
2951.35	0.011965
2960.99	0.009465
2970.64	0.007395
2980.28	0.006265
2989.93	0.006155
2999.57	0.006465
3009.22	0.007065
3018.86	0.005065
3028.51	0.002945
3038.15	0.002295
3047.8	0.002085
3057.44	0.001765
3067.09	0.001635
3076.73	0.001805
3086.38	0.001875
3096.02	0.001505
3105.67	0.0012975
3115.31	0.0013543
3124.95	0.0010221
3134.6	0.0010446
3144.24	0.0009719
3153.89	0.0010043
3163.53	0.0005999
3173.18	0.0006455
3182.82	0.0007989
3192.47	0.0007827
3202.11	0.0008502
3211.76	0.0007393
3221.4	0.000772
3231.05	0.0006402
3240.69	0.0010083
3250.34	0.0007181
3259.98	0.0006384
3269.63	0.0007626
3279.27	0.0007096
3288.92	0.000347
3298.56	0.0008277
3308.21	0.0006554
3317.85	0.00052612
3327.49	0.00054119
3337.14	0.00048924
3346.78	0.0004438
3356.43	0.00049071
3366.07	0.000711
3375.72	0.000209
3385.36	0.0007448
3395.01	0.0004002
3404.65	0.000338
3414.3	0.00055014
3423.94	0.0003976
3433.59	0.000749
3443.23	0.00048719
3452.88	0.00053793
3462.52	0.0007654
3472.17	0.0009938
3481.81	0.0007541
3491.46	0.0011812
3501.1	0.0011582
3510.75	0.0009798
3520.39	0.0010607
3530.04	0.0006718
3539.68	0.001545
3549.32	0.002945
3558.97	0.010525
3568.61	0.020485
3578.26	0.028045
3587.9	0.026865
3597.55	0.005565
3607.19	0.001352
3616.84	0.0008778
3626.48	0.0009629
3636.13	0.0013013
3645.77	0.0011585
3655.42	0.0013327
3665.06	0.0006996
3674.71	0.00054389
3684.35	0.0007779
3694	0.0005997
3703.64	0.000364
3713.29	0.000591
3722.93	0.000212
3732.58	0.00051537
3742.22	0.000144
3751.86	0.000198
3761.51	0.0006217
3771.15	0.0006437
3780.8	0.00052521
3790.44	0.00044557
3800.09	0.000333
3809.73	0.0006454
3819.38	0.0004762
3829.02	0.0003946
3838.67	0.000248
3848.31	0.0004253
3857.96	0.00053005
3867.6	0.0007206
3877.25	0.00049144
3886.89	0.000457996
3896.54	0.0004261
3906.18	0.0007634
3915.83	0.0007108
3925.47	0.00053717
3935.12	0.0004321
3944.76	0.0003843
3954.41	0.0008569
3964.05	0.0007276
3973.69	0.0007276
3983.34	0.00052349
3992.98	0.0005561
