Infrared Spectrum: 4-Nitrophenyl anthranilate
Formula: C13 H10 N2 O4
CAS: 19176-60-4
State: gas
Origin: EPA-IR VAPOR PHASE LIBRARY
1/CM	ABSORBANCE
549.8	0.00668
559.445	0.00741
569.09	0.00586
578.734	0.00522
588.379	0.00527
598.024	0.00515
607.669	0.0051
617.313	0.00514
626.958	0.0059
636.603	0.00706
646.248	0.00692
655.893	0.00879
665.537	0.01463
675.182	0.01795
684.827	0.02236
694.472	0.02034
704.116	0.01325
713.761	0.0096
723.406	0.01011
733.051	0.01612
742.695	0.03291
752.34	0.03153
761.985	0.01464
771.63	0.00889
781.275	0.00767
790.919	0.0081
800.564	0.00828
810.209	0.00857
819.854	0.01129
829.498	0.01148
839.143	0.0128
848.788	0.02402
858.433	0.02809
868.078	0.02611
877.722	0.01782
887.367	0.01531
897.012	0.00897
906.657	0.00603
916.301	0.00501
925.946	0.00483
935.591	0.00465
945.236	0.0051
954.88	0.00525
964.525	0.00545
974.17	0.00652
983.815	0.00817
993.46	0.01178
1003.1	0.02209
1012.75	0.0475
1022.39	0.06211
1032.04	0.09595
1041.68	0.1014
1051.33	0.05272
1060.97	0.02534
1070.62	0.02672
1080.26	0.03558
1089.91	0.02762
1099.55	0.01937
1109.2	0.0189
1118.84	0.01185
1128.49	0.0091
1138.13	0.01151
1147.78	0.0243
1157.42	0.10285
1167.07	0.08285
1176.71	0.03
1186.36	0.04644
1196	0.11737
1205.64	0.25473
1215.29	0.16015
1224.93	0.11288
1234.58	0.12623
1244.22	0.10604
1253.87	0.04372
1263.51	0.03026
1273.16	0.03535
1282.8	0.04537
1292.45	0.03207
1302.09	0.02814
1311.74	0.03139
1321.38	0.03263
1331.03	0.02599
1340.67	0.04203
1350.32	0.07447
1359.96	0.04888
1369.61	0.02111
1379.25	0.01174
1388.9	0.0073
1398.54	0.00556
1408.18	0.0053
1417.83	0.00513
1427.47	0.00513
1437.12	0.00658
1446.76	0.01186
1456.41	0.02052
1466.05	0.01884
1475.7	0.02911
1485.34	0.0625
1494.99	0.05944
1504.63	0.02562
1514.28	0.01996
1523.92	0.03118
1533.57	0.05505
1543.21	0.06853
1552.86	0.04821
1562.5	0.04157
1572.15	0.03427
1581.79	0.03784
1591.44	0.06493
1601.08	0.05795
1610.73	0.06548
1620.37	0.07977
1630.01	0.04538
1639.66	0.01632
1649.3	0.00828
1658.95	0.00658
1668.59	0.00622
1678.24	0.00698
1687.88	0.00915
1697.53	0.0113
1707.17	0.01612
1716.82	0.03991
1726.46	0.0945
1736.11	0.06745
1745.75	0.02576
1755.4	0.01861
1765.04	0.01044
1774.69	0.00669
1784.33	0.00675
1793.98	0.00655
1803.62	0.00397
1813.27	0.00293
1822.91	0.00261
1832.55	0.00249
1842.2	0.0024
1851.84	0.00223
1861.49	0.00189
1871.13	0.00173
1880.78	0.00198
1890.42	0.00254
1900.07	0.00339
1909.71	0.00384
1919.36	0.00364
1929	0.00237
1938.65	0.00222
1948.29	0.00177
1957.94	0.00153
1967.58	0.00156
1977.23	0.00151
1986.87	0.00155
1996.52	0.00179
2006.16	0.00197
2015.81	0.00178
2025.45	0.00175
2035.1	0.00158
2044.74	0.00146
2054.38	0.00154
2064.03	0.00164
2073.67	0.00181
2083.32	0.0016
2092.96	0.00138
2102.61	0.00123
2112.25	0.00117
2121.9	0.0011121
2131.54	0.0009959
2141.19	0.0009138
2150.83	0.000943
2160.48	0.0009096
2170.12	0.0009499
2179.77	0.0008503
2189.41	0.0007619
2199.06	0.0006974
2208.7	0.0007811
2218.35	0.0008285
2227.99	0.0006578
2237.64	0.0007175
2247.28	0.0007667
2256.92	0.0008781
2266.57	0.0009313
2276.21	0.0010709
2285.86	0.0010521
2295.5	0.0010429
2305.15	0.0009556
2314.79	0.0010864
2324.44	0.0010191
2334.08	0.0009176
2343.73	0.0009254
2353.37	0.00121
2363.02	0.0013
2372.66	0.0014
2382.31	0.00133
2391.95	0.00151
2401.6	0.00172
2411.24	0.00162
2420.89	0.00131
2430.53	0.0010392
2440.18	0.0010649
2449.82	0.00132
2459.47	0.00137
2469.11	0.0014
2478.75	0.0012
2488.4	0.0010049
2498.04	0.0009223
2507.69	0.0010305
2517.33	0.0010875
2526.98	0.0007806
2536.62	0.0006793
2546.27	0.0006893
2555.91	0.0006932
2565.56	0.0007686
2575.2	0.0009394
2584.85	0.000851
2594.49	0.0009093
2604.14	0.00114
2613.78	0.00118
2623.43	0.0010087
2633.07	0.0010481
2642.72	0.00121
2652.36	0.00118
2662.01	0.0009445
2671.65	0.0008561
2681.29	0.0009812
2690.94	0.0009784
2700.58	0.0010656
2710.23	0.0009387
2719.87	0.0010418
2729.52	0.0009356
2739.16	0.0007486
2748.81	0.0005493
2758.45	0.0006025
2768.1	0.0009432
2777.74	0.0008866
2787.39	0.0008345
2797.03	0.000993
2806.68	0.001
2816.32	0.0008662
2825.97	0.0008278
2835.61	0.0009305
2845.26	0.0009376
2854.9	0.0010391
2864.55	0.00125
2874.19	0.00168
2883.84	0.00172
2893.48	0.00176
2903.12	0.00153
2912.77	0.00119
2922.41	0.00114
2932.06	0.00123
2941.7	0.00134
2951.35	0.00118
2960.99	0.0010774
2970.64	0.0009858
2980.28	0.0008135
2989.93	0.0006114
2999.57	0.0009564
3009.22	0.00122
3018.86	0.00193
3028.51	0.00372
3038.15	0.0053
3047.8	0.0047
3057.44	0.00647
3067.09	0.00735
3076.73	0.00547
3086.38	0.00834
3096.02	0.00572
3105.67	0.00228
3115.31	0.00128
3124.95	0.0010611
3134.6	0.000846
3144.24	0.0007337
3153.89	0.0005315
3163.53	0.0006059
3173.18	0.0007538
3182.82	0.0009417
3192.47	0.0007056
3202.11	0.0007874
3211.76	0.0007659
3221.4	0.0007039
3231.05	0.0007407
3240.69	0.0005062
3250.34	0.0003049
3259.98	0.0004057
3269.63	0.0003804
3279.27	0.0003621
3288.92	0.0004363
3298.56	0.0006175
3308.21	0.0007359
3317.85	0.0011288
3327.49	0.00121
3337.14	0.00139
3346.78	0.00134
3356.43	0.00151
3366.07	0.00174
3375.72	0.00302
3385.36	0.00698
3395.01	0.01836
3404.65	0.01915
3414.3	0.00734
3423.94	0.00377
3433.59	0.00352
3443.23	0.00253
3452.88	0.00183
3462.52	0.0018
3472.17	0.00182
3481.81	0.00301
3491.46	0.00421
3501.1	0.00645
3510.75	0.01101
3520.39	0.01591
3530.04	0.01349
3539.68	0.00729
3549.32	0.00279
3558.97	0.00145
3568.61	0.0009053
3578.26	0.0006694
3587.9	0.0004449
3597.55	0.0004902
3607.19	0.0005546
3616.84	0.0003601
3626.48	0.0004372
3636.13	0.0005421
3645.77	0.0005643
3655.42	0.0006032
3665.06	0.000288
3674.71	0.0003204
3684.35	0.00015792
3694	0.0002876
3703.64	0.00022396
3713.29	0.00022983
3722.93	0.0002965
3732.58	0.0003034
3742.22	0.00015397
3751.86	0.0002778
3761.51	0.00036
3771.15	0.0002522
3780.8	0.0002764
3790.44	0.00012185
3800.09	0.0002519
3809.73	0.0002415
3819.38	0.00016643
3829.02	0.00025
3838.67	0.00012062
3848.31	0.0001835
3857.96	0.0003308
3867.6	0.0004147
3877.25	0.0003626
3886.89	0.0003996
3896.54	0.0003663
3906.18	0.0004801
3915.83	0.00038
3925.47	0.0004506
3935.12	0.0005196
3944.76	0.0003685
3954.41	0.0004549
3964.05	0.0003065
3973.69	0.0002598
3983.34	0.0003985
3992.98	0.0003272
