Infrared Spectrum: 6-CHLORO-2-METHYL-7-METHYLSULFAMYL-BENZOTHIATRIAZINE-1,1-DIOXIDE
Formula: C8 H9 Cl N4 O4 S2
CAS: 1917-30-2
State: SOLID (NUJOL MULL)
Class: COBLENTZ
Instrument: PERKIN-ELMER
Sampling: TRANSMISSION
Resolution: 4
Origin: ABBOTT LABORATORIES - WASHBURN
MICROMETERS	TRANSMITTANCE
2.014	0.25
2.04872	0.256
2.08345	0.2581
2.11817	0.263
2.15289	0.267
2.18762	0.275
2.22234	0.2841
2.25706	0.287
2.29179	0.284
2.32651	0.284
2.36123	0.289
2.39595	0.294
2.43068	0.301
2.4654	0.308
2.50012	0.313
2.53485	0.318
2.56957	0.3222
2.60429	0.3311
2.63902	0.336
2.67374	0.339
2.70846	0.346
2.74319	0.351
2.77791	0.356
2.81263	0.363
2.84736	0.3722
2.88208	0.3841
2.9168	0.401
2.95153	0.4268
2.98625	0.4014
3.02097	0.222
3.05569	0.2641
3.09042	0.3047
3.12514	0.3241
3.15986	0.337
3.19459	0.3457
3.22931	0.3049
3.26403	0.293
3.29876	0.2601
3.33348	0.1271
3.3682	0.0288
3.40293	0.018
3.43765	0.017
3.47237	0.0241
3.5071	0.0946
3.54182	0.3438
3.57654	0.4307
3.61126	0.4511
3.64599	0.451
3.68071	0.4549
3.71543	0.458
3.75016	0.462
3.78488	0.468
3.8196	0.4722
3.85433	0.4824
3.88905	0.493
3.92377	0.503
3.9585	0.5101
3.99322	0.515
4.02794	0.518
4.06267	0.524
4.09739	0.5289
4.13211	0.531
4.16684	0.537
4.20156	0.5409
4.23628	0.539
4.271	0.539
4.30573	0.5409
4.34045	0.546
4.37517	0.551
4.4099	0.558
4.44462	0.5632
4.47934	0.572
4.51407	0.577
4.54879	0.584
4.58351	0.586
4.61824	0.5931
4.65296	0.596
4.68768	0.603
4.72241	0.6061
4.75713	0.612
4.79185	0.615
4.82658	0.618
4.8613	0.624
4.89602	0.6271
4.93074	0.629
4.96547	0.634
5.00019	0.6371
5.03491	0.643
5.06964	0.6501
5.10436	0.655
5.13908	0.656
5.17381	0.658
5.20853	0.6621
5.24325	0.665
5.27798	0.668
5.3127	0.674
5.34742	0.6751
5.38215	0.6789
5.41687	0.681
5.45159	0.677
5.48631	0.667
5.52104	0.6772
5.55576	0.684
5.59048	0.691
5.62521	0.6981
5.65993	0.7031
5.69465	0.7062
5.72938	0.71
5.7641	0.712
5.79882	0.712
5.83355	0.713
5.86827	0.7131
5.90299	0.717
5.93772	0.72
5.97244	0.7241
6.00716	0.725
6.04189	0.727
6.07661	0.729
6.11133	0.7341
6.14605	0.7371
6.18078	0.739
6.2155	0.7409
6.25022	0.7099
6.28495	0.6659
6.31967	0.5168
6.35439	0.6192
6.38912	0.658
6.42384	0.6459
6.45856	0.512
6.49329	0.5235
6.52801	0.613
6.56273	0.648
6.59746	0.6651
6.63218	0.668
6.6669	0.665
6.70163	0.653
6.73635	0.5859
6.77107	0.4374
6.80579	0.198
6.84052	0.1242
6.87524	0.1314
6.90996	0.2031
6.94469	0.2379
6.97941	0.3613
7.01413	0.4703
7.04886	0.4526
7.08358	0.3958
7.1183	0.3993
7.15303	0.4581
7.18775	0.517
7.22247	0.4346
7.2572	0.2851
7.29192	0.3007
7.32664	0.2791
7.36136	0.2078
7.39609	0.1769
7.43081	0.1359
7.46553	0.1789
7.50026	0.137
7.53498	0.2066
7.5697	0.3169
7.60443	0.3963
7.63915	0.4721
7.67387	0.4888
7.7086	0.3885
7.74332	0.3366
7.77804	0.4311
7.81277	0.506
7.84749	0.5398
7.88221	0.5656
7.91694	0.6009
7.95166	0.62
7.98638	0.631
8.0211	0.5371
8.05583	0.5698
8.09055	0.6009
8.12527	0.606
8.16	0.5835
8.19472	0.5204
8.22944	0.4502
8.26417	0.3595
8.29889	0.2507
8.33361	0.2009
8.36834	0.1857
8.40306	0.172
8.43778	0.162
8.47251	0.1481
8.50723	0.1529
8.54195	0.1171
8.57668	0.1149
8.6114	0.2111
8.64612	0.288
8.68084	0.3428
8.71557	0.3769
8.75029	0.3769
8.78501	0.3599
8.81974	0.353
8.85446	0.368
8.88918	0.4011
8.92391	0.3978
8.95863	0.3433
8.99335	0.4151
9.02808	0.4961
9.0628	0.524
9.09752	0.502
9.13225	0.2775
9.16697	0.231
9.20169	0.3218
9.23642	0.3813
9.27114	0.3909
9.30586	0.3433
9.34058	0.322
9.37531	0.4087
9.41003	0.4793
9.44475	0.5249
9.47948	0.5566
9.5142	0.5861
9.54892	0.6151
9.58365	0.6324
9.61837	0.6433
9.65309	0.651
9.68782	0.662
9.72254	0.6741
9.75726	0.6811
9.79199	0.689
9.82671	0.698
9.86143	0.7011
9.89615	0.708
9.93088	0.7149
9.9656	0.72
10.0003	0.7271
10.035	0.734
10.0698	0.7372
10.1045	0.746
10.1392	0.7441
10.1739	0.748
10.2087	0.748
10.2434	0.744
10.2781	0.744
10.3128	0.746
10.3476	0.7439
10.3823	0.739
10.417	0.731
10.4517	0.706
10.4864	0.6473
10.5212	0.5609
10.5559	0.537
10.5906	0.5649
10.6253	0.6172
10.6601	0.6341
10.6948	0.6337
10.7295	0.6019
10.7642	0.5072
10.799	0.359
10.8337	0.2912
10.8684	0.3353
10.9031	0.365
10.9378	0.3358
10.9726	0.2547
11.0073	0.1971
11.042	0.17
11.0767	0.174
11.1115	0.2247
11.1462	0.2659
11.1809	0.317
11.2156	0.3509
11.2504	0.3875
11.2851	0.4241
11.3198	0.4626
11.3545	0.5007
11.3893	0.5251
11.424	0.5461
11.4587	0.5603
11.4934	0.5743
11.5281	0.586
11.5629	0.587
11.5976	0.5787
11.6323	0.5593
11.667	0.503
11.7018	0.451
11.7365	0.4199
11.7712	0.405
11.8059	0.405
11.8407	0.418
11.8754	0.4462
11.9101	0.4632
11.9448	0.4702
11.9795	0.4674
12.0143	0.4288
12.049	0.401
12.0837	0.4105
12.1184	0.4437
12.1532	0.4823
12.1879	0.5183
12.2226	0.5625
12.2573	0.5827
12.2921	0.606
12.3268	0.629
12.3615	0.6393
12.3962	0.6513
12.4309	0.66
12.4657	0.668
12.5004	0.6722
12.5351	0.679
12.5698	0.6811
12.6046	0.6861
12.6393	0.691
12.674	0.693
12.7087	0.698
12.7435	0.7
12.7782	0.7
12.8129	0.706
12.8476	0.706
12.8823	0.706
12.9171	0.705
12.9518	0.705
12.9865	0.7051
13.0212	0.7051
13.056	0.708
13.0907	0.708
13.1254	0.708
13.1601	0.706
13.1949	0.71
13.2296	0.706
13.2643	0.705
13.299	0.703
13.3337	0.6958
13.3685	0.6856
13.4032	0.6597
13.4379	0.5816
13.4726	0.5116
13.5074	0.5276
13.5421	0.5601
13.5768	0.598
13.6115	0.615
13.6463	0.5972
13.681	0.5171
13.7157	0.489
13.7504	0.5184
13.7851	0.5531
13.8199	0.5724
13.8546	0.5892
13.8893	0.6063
13.924	0.6252
13.9588	0.6431
13.9935	0.6533
14.0282	0.662
14.0629	0.672
14.0977	0.679
14.1324	0.681
14.1671	0.682
14.2018	0.686
14.2365	0.687
14.2713	0.687
14.306	0.686
14.3407	0.686
14.3754	0.679
14.4102	0.6719
14.4449	0.6595
14.4796	0.6401
14.5143	0.6047
14.5491	0.5549
14.5838	0.4541
14.6185	0.3693
14.6532	0.3481
14.6879	0.3875
14.7227	0.4675
14.7574	0.5125
14.7921	0.5239
14.8268	0.4718
14.8616	0.4373
14.8963	0.482
14.931	0.532
14.9657	0.55
15.0005	0.5823
15.0352	0.6001
15.0699	0.6051
15.1046	0.612
15.1394	0.608
15.1741	0.61
15.2088	0.605
15.2435	0.601
15.2782	0.5999
15.313	0.5939
