Infrared Spectrum: ACETIC ACID, (2,4-DICHLOROPHENOXY)-,2-OCTYL ESTER
Formula: C16 H22 Cl2 O3
CAS: 1917-97-1
State: SOLUTION (10% IN CCl4 FOR 3800-1330, 10% IN CS2 FOR 1330-450 CM^-^1)
Class: COBLENTZ III
Instrument: DOW KBr FOREPRISM-GRATING
Instrument parameters: BLAZED AT 3.5, 12.0, 20.0 MICRON, CHANGED AT 5.0, 7.5, 14.9 MICRON
Sampling: TRANSMISSION
Resolution: 4
Origin: DOW CHEMICAL COMPANY
1/CM	TRANSMITTANCE
451.155	0.914
460.036	0.928
468.917	0.939
477.798	0.955
486.679	0.962
495.56	0.973
504.441	0.98
513.322	0.975
522.203	0.98
531.084	0.991
539.965	0.998
548.846	0.984
557.727	0.846
566.608	0.933
575.489	0.966
584.37	0.958
593.251	0.961
602.132	0.969
611.013	0.983
619.894	0.993
628.775	0.983
637.656	0.922
646.537	0.5561
655.418	0.895
664.299	0.959
673.18	0.965
682.061	0.955
690.942	0.907
699.823	0.841
708.704	0.769
717.585	0.488
726.466	0.667
735.347	0.848
744.228	0.882
753.109	0.861
761.99	0.871
770.871	0.83
779.752	0.866
788.633	0.773
797.514	0.356
806.395	0.78
815.276	0.83
824.157	0.743
833.038	0.606
841.919	0.689
850.8	0.708
859.681	0.636
868.562	0.4082
877.443	0.81
886.324	0.879
895.205	0.91
904.086	0.915
912.967	0.925
921.848	0.911
930.729	0.839
939.61	0.785
948.491	0.834
957.372	0.856
966.253	0.842
975.134	0.89
984.015	0.926
992.896	0.89
1001.78	0.868
1010.66	0.828
1019.54	0.709
1028.42	0.656
1037.3	0.635
1046.18	0.533
1055.06	0.645
1063.94	0.505
1072.83	0.294
1081.71	0.204
1090.59	0.3271
1099.47	0.3269
1108.35	0.382
1117.23	0.356
1126.11	0.558
1134.99	0.707
1143.87	0.712
1152.75	0.78
1161.64	0.809
1170.52	0.756
1179.4	0.582
1188.28	0.2049
1197.16	0.037
1206.04	0.0661
1214.92	0.346
1223.8	0.338
1232.68	0.381
1241.56	0.454
1250.45	0.399
1259.33	0.361
1268.21	0.327
1277.09	0.356
1285.97	0.263
1294.85	0.25
1303.73	0.277
1312.61	0.577
1321.49	0.748
1330.37	0.812
1339.26	0.792
1348.14	0.74
1357.02	0.737
1365.9	0.712
1374.78	0.596
1383.66	0.506
1392.54	0.4821
1401.42	0.798
1410.3	0.839
1419.18	0.781
1428.07	0.64
1436.95	0.5459
1445.83	0.495
1454.71	0.436
1463.59	0.386
1472.47	0.136
1481.35	0.038
1490.23	0.1761
1499.11	0.4471
1507.99	0.595
1516.88	0.658
1525.76	0.649
1534.64	0.589
1543.52	0.5
1552.4	0.477
1561.28	0.545
1570.16	0.569
1579.04	0.545
1587.92	0.5491
1596.8	0.738
1605.69	0.834
1614.57	0.889
1623.45	0.91
1632.33	0.924
1641.21	0.932
1650.09	0.93
1658.97	0.922
1667.85	0.915
1676.73	0.904
1685.61	0.879
1694.5	0.843
1703.38	0.809
1712.26	0.732
1721.14	0.4949
1730.02	0.131
1738.9	0.1721
1747.78	0.285
1756.66	0.096
1765.54	0.211
1774.42	0.5291
1783.31	0.794
1792.19	0.86
1801.07	0.888
1809.95	0.904
1818.83	0.912
1827.71	0.919
1836.59	0.911
1845.47	0.896
1854.35	0.911
1863.23	0.928
1872.12	0.933
1881	0.937
1889.88	0.94
1898.76	0.944
1907.64	0.948
1916.52	0.948
1925.4	0.95
1934.28	0.95
1943.16	0.944
1952.05	0.947
1960.93	0.954
1969.81	0.954
1978.69	0.953
1987.57	0.954
1996.45	0.953
2005.33	0.959
2014.21	0.962
2023.09	0.959
2031.97	0.961
2040.86	0.964
2049.74	0.9651
2058.62	0.966
2067.5	0.968
2076.38	0.968
2085.26	0.968
2094.14	0.968
2103.02	0.968
2111.9	0.9677
2120.78	0.9619
2129.67	0.959
2138.55	0.959
2147.43	0.962
2156.31	0.965
2165.19	0.9652
2174.07	0.968
2182.95	0.968
2191.83	0.9688
2200.71	0.968
2209.59	0.969
2218.48	0.969
2227.36	0.969
2236.24	0.97
2245.12	0.97
2254	0.966
2262.88	0.9617
2271.76	0.958
2280.64	0.9547
2289.52	0.95
2298.4	0.9493
2307.29	0.9466
2316.17	0.9517
2325.05	0.9476
2333.93	0.9513
2342.81	0.966
2351.69	0.9614
2360.57	0.97
2369.45	0.97
2378.33	0.969
2387.21	0.969
2396.1	0.9685
2404.98	0.972
2413.86	0.971
2422.74	0.969
2431.62	0.969
2440.5	0.973
2449.38	0.972
2458.26	0.972
2467.14	0.972
2476.02	0.972
2484.91	0.968
2493.79	0.966
2502.67	0.966
2511.55	0.965
2520.43	0.9644
2529.31	0.961
2538.19	0.9584
2547.07	0.957
2555.95	0.957
2564.83	0.9543
2573.72	0.951
2582.6	0.9557
2591.48	0.961
2600.36	0.9596
2609.24	0.9556
2618.12	0.957
2627	0.957
2635.88	0.957
2644.76	0.958
2653.64	0.9555
2662.53	0.955
2671.41	0.951
2680.29	0.9484
2689.17	0.95
2698.05	0.954
2706.93	0.9532
2715.81	0.946
2724.69	0.9393
2733.57	0.935
2742.45	0.9369
2751.34	0.943
2760.22	0.944
2769.1	0.943
2777.98	0.941
2786.86	0.939
2795.74	0.9282
2804.62	0.9122
2813.5	0.8962
2822.38	0.8743
2831.26	0.8423
2840.15	0.7885
2849.03	0.6047
2857.91	0.3011
2866.79	0.444
2875.67	0.4615
2884.55	0.625
2893.43	0.57
2902.31	0.4537
2911.19	0.3002
2920.07	0.1765
2928.96	0.0919
2937.84	0.1512
2946.72	0.25
2955.6	0.2108
2964.48	0.2454
2973.36	0.4075
2982.24	0.4529
2991.12	0.6302
3000	0.7673
3008.88	0.8585
3017.77	0.8817
3026.65	0.8962
3035.53	0.901
3044.41	0.9086
3053.29	0.914
3062.17	0.9101
3071.05	0.8935
3079.93	0.8843
3088.81	0.9065
3097.69	0.912
3106.58	0.9162
3115.46	0.9299
3124.34	0.9336
3133.22	0.936
3142.1	0.937
3150.98	0.936
3159.86	0.9394
3168.74	0.9417
3177.62	0.94
3186.5	0.9418
3195.39	0.947
3204.27	0.9466
3213.15	0.9466
3222.03	0.9468
3230.91	0.9504
3239.79	0.953
3248.67	0.954
3257.55	0.955
3266.43	0.955
3275.31	0.9575
3284.2	0.9565
3293.08	0.957
3301.96	0.964
3310.84	0.964
3319.72	0.9655
3328.6	0.968
3337.48	0.9686
3346.36	0.9696
3355.24	0.9694
3364.13	0.966
3373.01	0.9704
3381.89	0.973
3390.77	0.973
3399.65	0.972
3408.53	0.97
3417.41	0.969
3426.29	0.969
3435.17	0.965
3444.05	0.964
3452.94	0.9647
3461.82	0.965
3470.7	0.968
3479.58	0.9643
3488.46	0.9647
3497.34	0.966
3506.22	0.966
3515.1	0.9698
3523.98	0.9746
3532.86	0.9768
3541.75	0.98
3550.63	0.98
3559.51	0.98
3568.39	0.9823
3577.27	0.9457
3586.15	0.9758
3595.03	0.9717
3603.91	0.9699
3612.79	0.9732
3621.67	0.9769
3630.56	0.9817
3639.44	0.986
3648.32	0.984
3657.2	0.983
3666.08	0.98
3674.96	0.977
3683.84	0.979
3692.72	0.98
3701.6	0.986
3710.48	0.991
3719.37	0.991
3728.25	0.988
3737.13	0.99
3746.01	0.9911
3754.89	0.9929
3763.77	0.9911
3772.65	0.987
3781.53	0.993
3790.41	0.993
