Infrared Spectrum: 3,5-Dihydroxybenzonitrile
Formula: C 7 H 5 N O 2
CAS: 19179-36-3
State: gas
Origin: EPA-IR VAPOR PHASE LIBRARY
1/CM	ABSORBANCE
549.8	0.002324
559.445	0.001894
569.09	0.002214
578.734	0.002344
588.379	0.002014
598.024	0.003044
607.669	0.003094
617.313	0.002834
626.958	0.002084
636.603	0.0010976
646.248	0.001674
655.893	0.002924
665.537	0.004904
675.182	0.004514
684.827	0.003144
694.472	0.0010771
704.116	0.0011241
713.761	0.0009668
723.406	0.0008091
733.051	0.0012478
742.695	0.0009102
752.34	0.0011494
761.985	0.000957
771.63	0.0012878
781.275	0.0007739
790.919	0.0014432
800.564	0.0013994
810.209	0.002084
819.854	0.004034
829.498	0.007134
839.143	0.008524
848.788	0.007254
858.433	0.007144
868.078	0.004764
877.722	0.003104
887.367	0.002384
897.012	0.002014
906.657	0.001944
916.301	0.002214
925.946	0.002014
935.591	0.002344
945.236	0.004354
954.88	0.005364
964.525	0.004264
974.17	0.002994
983.815	0.005964
993.46	0.010534
1003.1	0.011744
1012.75	0.009074
1022.39	0.004004
1032.04	0.001824
1041.68	0.00152
1051.33	0.0009621
1060.97	0.001924
1070.62	0.0015637
1080.26	0.002894
1089.91	0.002434
1099.55	0.002354
1109.2	0.004044
1118.84	0.007674
1128.49	0.017624
1138.13	0.028074
1147.78	0.036324
1157.42	0.036274
1167.07	0.029554
1176.71	0.021084
1186.36	0.014364
1196	0.009504
1205.64	0.015364
1215.29	0.015204
1224.93	0.008914
1234.58	0.005184
1244.22	0.003754
1253.87	0.004034
1263.51	0.005444
1273.16	0.007224
1282.8	0.010994
1292.45	0.013154
1302.09	0.010664
1311.74	0.009304
1321.38	0.009454
1331.03	0.010634
1340.67	0.014954
1350.32	0.012994
1359.96	0.004514
1369.61	0.0013742
1379.25	0.001219
1388.9	0.0011787
1398.54	0.0013134
1408.18	0.002214
1417.83	0.004094
1427.47	0.008054
1437.12	0.010674
1446.76	0.010764
1456.41	0.009404
1466.05	0.008204
1475.7	0.006714
1485.34	0.005914
1494.99	0.005884
1504.63	0.004954
1514.28	0.003834
1523.92	0.003074
1533.57	0.002174
1543.21	0.001924
1552.86	0.003064
1562.5	0.005104
1572.15	0.008484
1581.79	0.016014
1591.44	0.028564
1601.08	0.039334
1610.73	0.034264
1620.37	0.019394
1630.01	0.011804
1639.66	0.006874
1649.3	0.004584
1658.95	0.003694
1668.59	0.002464
1678.24	0.0016079
1687.88	0.0015319
1697.53	0.001664
1707.17	0.001844
1716.82	0.001674
1726.46	0.0016022
1736.11	0.0011523
1745.75	0.0009073
1755.4	0.0007977
1765.04	0.000918
1774.69	0.0008777
1784.33	0.0008764
1793.98	0.0008362
1803.62	0.0007748
1813.27	0.0006687
1822.91	0.000535
1832.55	0.0006286
1842.2	0.000499
1851.84	0.00072274
1861.49	0.0006655
1871.13	0.0005547
1880.78	0.00074536
1890.42	0.0006128
1900.07	0.00072164
1909.71	0.00068288
1919.36	0.00070316
1929	0.0005915
1938.65	0.00067315
1948.29	0.0006148
1957.94	0.00072436
1967.58	0.0006625
1977.23	0.0006331
1986.87	0.0006059
1996.52	0.000660107
2006.16	0.00067699
2015.81	0.0007929
2025.45	0.00068786
2035.1	0.0007571
2044.74	0.0006255
2054.38	0.0006325
2064.03	0.0006099
2073.67	0.0006217
2083.32	0.00068906
2092.96	0.0007842
2102.61	0.0009461
2112.25	0.0008453
2121.9	0.0008111
2131.54	0.0008646
2141.19	0.000895
2150.83	0.0009118
2160.48	0.001006
2170.12	0.0007761
2179.77	0.0009965
2189.41	0.0007675
2199.06	0.00064537
2208.7	0.00053
2218.35	0.0009901
2227.99	0.001824
2237.64	0.001944
2247.28	0.0012844
2256.92	0.0008476
2266.57	0.0008942
2276.21	0.0007691
2285.86	0.0005967
2295.5	0.0006346
2305.15	0.0006425
2314.79	0.0009319
2324.44	0.0009076
2334.08	0.0008896
2343.73	0.0009056
2353.37	0.0009695
2363.02	0.00085
2372.66	0.00074627
2382.31	0.0008058
2391.95	0.0008056
2401.6	0.0010271
2411.24	0.0010417
2420.89	0.0010008
2430.53	0.0008388
2440.18	0.0007749
2449.82	0.00069487
2459.47	0.00070168
2469.11	0.0010026
2478.75	0.001004
2488.4	0.0010593
2498.04	0.0008563
2507.69	0.00073982
2517.33	0.00071045
2526.98	0.0008267
2536.62	0.00067933
2546.27	0.0005887
2555.91	0.0006108
2565.56	0.0008694
2575.2	0.000321
2584.85	0.00053
2594.49	0.00074428
2604.14	0.00066449
2613.78	0.0005776
2623.43	0.00070413
2633.07	0.00072291
2642.72	0.0008159
2652.36	0.0005597
2662.01	0.00075268
2671.65	0.00068986
2681.29	0.00068598
2690.94	0.0005737
2700.58	0.000457
2710.23	0.000482
2719.87	0.00027
2729.52	0.0005792
2739.16	0.0006008
2748.81	0.000531
2758.45	0.0008239
2768.1	0.000352
2777.74	0.00070767
2787.39	0.0005783
2797.03	0.000437
2806.68	0.0006113
2816.32	0.000525
2825.97	0.0005982
2835.61	0.0006215
2845.26	0.00055
2854.9	0.00066067
2864.55	0.000513
2874.19	0.000448
2883.84	0.000381
2893.48	0.0005753
2903.12	0.000394
2912.77	0.0005853
2922.41	0.000279
2932.06	0.000454
2941.7	0.000333
2951.35	0.000451
2960.99	0.0005698
2970.64	0.000245
2980.28	0.000415
2989.93	0.0005712
2999.57	0.000507
3009.22	0.000429
3018.86	0.000451
3028.51	0.0008339
3038.15	0.0008231
3047.8	0.0011265
3057.44	0.0008634
3067.09	0.001223
3076.73	0.0008135
3086.38	0.000279
3096.02	0.0006246
3105.67	0.000427
3115.31	0.0006375
3124.95	0.00067235
3134.6	0.000317
3144.24	0.00047
3153.89	0.000206
3163.53	0.0006385
3173.18	0.000528
3182.82	0.0008001
3192.47	0.0005641
3202.11	0.000264
3211.76	0.000544
3221.4	0.0009501
3231.05	0.0007582
3240.69	0.0006066
3250.34	0.000312
3259.98	0.00064699
3269.63	0.000309
3279.27	0.00073476
3288.92	0.0006199
3298.56	0.0005834
3308.21	0.000354
3317.85	0.0009937
3327.49	0.0010927
3337.14	0.001324
3346.78	0.0008876
3356.43	0.0006378
3366.07	0.0009143
3375.72	0.0009387
3385.36	0.0008316
3395.01	0.0007663
3404.65	0.00073281
3414.3	0.0009568
3423.94	0.000834
3433.59	0.00071885
3443.23	0.0008085
3452.88	0.000772
3462.52	0.00070597
3472.17	0.00065131
3481.81	0.00066583
3491.46	0.000583
3501.1	0.0005665
3510.75	0.0007729
3520.39	0.000252
3530.04	0.000341
3539.68	0.0008468
3549.32	0.000559
3558.97	0.0009467
3568.61	0.0011174
3578.26	0.0009154
3587.9	0.000465
3597.55	0.000813
3607.19	0.0008335
3616.84	0.001784
3626.48	0.004184
3636.13	0.014124
3645.77	0.030794
3655.42	0.028104
3665.06	0.009094
3674.71	0.001864
3684.35	0.0008058
3694	0.0009134
3703.64	0.00067357
3713.29	0.0005873
3722.93	0.00071934
3732.58	0.00072438
3742.22	0.000317
3751.86	0.0006379
3761.51	0.000483
3771.15	0.0006429
3780.8	0.0006341
3790.44	0.00069304
3800.09	0.0009969
3809.73	0.00074601
3819.38	0.0010207
3829.02	0.000452
3838.67	0.000186
3848.31	0.00031
3857.96	0.00068345
3867.6	0.0010374
3877.25	0.0008694
3886.89	0.0009854
3896.54	0.000423
3906.18	0.00070629
3915.83	0.0009606
3925.47	0.00069254
3935.12	0.0011592
3944.76	0.0007597
3954.41	0.000539
3964.05	0.0010346
3973.69	0.0013482
3983.34	0.0009361
3992.98	0.000559
