Infrared Spectrum: Propachlor
Formula: C 11 H 14 Cl N O
CAS: 1918-16-7
State: gas
Instrument: HP-GC/MS/IRD
Origin: NIST Mass Spectrometry Data Center
1/CM	ABSORBANCE
550	0.0053333
562	0.0069426
574	0.0100681
586	0.0038703
598	0.0018221
610	0.0011704
622	0.0010773
634	0.000931
646	0.0019418
658	0.005054
670	0.01064
682	0.009709
694	0.0213199
706	0.0327313
718	0.0100548
730	0.0048678
742	0.0031654
754	0.003458
766	0.0049476
778	0.0039102
790	0.0053865
802	0.0026201
814	0.0009177
826	0.0005453
838	0.0003857
850	0.0005054
862	0.0006251
874	7.98e-05
886	3.99e-05
898	0.0003325
910	0.0010108
922	0.0007182
934	0.0001995
946	2.66e-05
958	0.0001197
970	3.99e-05
982	0.0002926
994	0.0007315
1006	0.0012369
1018	0.001729
1030	0.0026334
1042	0.0006783
1054	0.0007714
1066	0.0027664
1078	0.003591
1090	0.0024073
1102	0.0059717
1114	0.018487
1126	0.0200963
1138	0.0129808
1150	0.0119567
1162	0.0102011
1174	0.0116907
1186	0.0086583
1198	0.0068894
1210	0.0094829
1222	0.0168378
1234	0.0272517
1246	0.0324919
1258	0.0267995
1270	0.0177821
1282	0.0111055
1294	0.0099085
1306	0.0164388
1318	0.0313614
1330	0.0458451
1342	0.042693
1354	0.0238735
1366	0.019551
1378	0.0250439
1390	0.0287679
1402	0.0203357
1414	0.0136325
1426	0.0146965
1438	0.0158802
1450	0.0107996
1462	0.0106533
1474	0.0109991
1486	0.0222775
1498	0.0298053
1510	0.0066234
1522	0.0030058
1534	0.0026334
1546	0.0023142
1558	0.0024339
1570	0.0043491
1582	0.0099351
1594	0.0175427
1606	0.0113449
1618	0.0047082
1630	0.0044289
1642	0.006783
1654	0.0108395
1666	0.0219184
1678	0.0672847
1690	0.133
1702	0.0791084
1714	0.0348327
1726	0.0122759
1738	0.0058786
1750	0.0037373
1762	0.0023807
1774	0.0018088
1786	0.0017423
1798	0.001995
1810	0.0016758
1822	0.0012768
1834	0.0008645
1846	0.0006916
1858	0.0007182
1870	0.0010507
1882	0.0012635
1894	0.0010241
1906	0.0006384
1918	0.0004389
1930	0.0005985
1942	0.0012768
1954	0.0012635
1966	0.0008645
1978	0.000266
1990	0.0001995
2002	9.31e-05
2014	7.98e-05
2026	0.0001463
2038	0.0001463
2050	0.0001197
2062	0.0001463
2074	0.0001197
2086	0.0001064
2098	9.31e-05
2110	6.65e-05
2122	3.99e-05
2134	1.33e-05
2146	0
2158	1.33e-05
2170	1.33e-05
2182	5.32e-05
2194	2.66e-05
2206	3.99e-05
2218	2.66e-05
2230	0.0001064
2242	0.0001729
2254	0.0001596
2266	0.0001064
2278	9.31e-05
2290	0.000133
2302	0.0001197
2314	0.0002527
2326	0.0002394
2338	0.0001862
2350	6.65e-05
2362	3.99e-05
2374	3.99e-05
2386	5.32e-05
2398	2.66e-05
2410	0
2422	2.66e-05
2434	3.99e-05
2446	0.0001064
2458	9.31e-05
2470	0.0001064
2482	0.0001862
2494	0.000266
2506	0.000266
2518	0.0002128
2530	0.0001729
2542	0.0001596
2554	0.0001729
2566	0.0001064
2578	0.0001596
2590	0.0001596
2602	0.0001729
2614	0.0001729
2626	0.0003059
2638	0.0003857
2650	0.0004389
2662	0.0003192
2674	0.0002394
2686	0.0002527
2698	0.0002261
2710	0.0002793
2722	0.0003591
2734	0.0004256
2746	0.0003724
2758	0.000266
2770	0.0003059
2782	0.0002527
2794	0.0002793
2806	0.0004256
2818	0.0007049
2830	0.0008246
2842	0.0010108
2854	0.0015694
2866	0.002394
2878	0.0048944
2890	0.0065037
2902	0.0054264
2914	0.0058387
2926	0.007714
2938	0.0132202
2950	0.0133266
2962	0.0136059
2974	0.028329
2986	0.0306565
2998	0.0109326
3010	0.0059983
3022	0.0046417
3034	0.006517
3046	0.0069293
3058	0.0059185
3070	0.0093233
3082	0.0083923
3094	0.0057589
3106	0.0030856
3118	0.0013167
3130	0.0006783
3142	0.0005852
3154	0.0005187
3166	0.0004655
3178	0.0003192
3190	0.0003458
3202	0.0003325
3214	0.0002793
3226	0.000266
3238	0.0002394
3250	0.0001596
3262	9.31e-05
3274	0.0001064
3286	7.98e-05
3298	0.0001862
3310	0.0001463
3322	0.0002261
3334	0.0004256
3346	0.0007581
3358	0.0010374
3370	0.000931
3382	0.000665
3394	0.0005852
3406	0.0004123
3418	0.000266
3430	0.0001463
3442	0.0001596
3454	7.98e-05
3466	9.31e-05
3478	9.31e-05
3490	5.32e-05
3502	2.66e-05
3514	3.99e-05
3526	0
3538	5.32e-05
3550	0.0001064
3562	6.65e-05
3574	7.98e-05
3586	3.99e-05
3598	7.98e-05
3610	3.99e-05
3622	0
3634	9.31e-05
3646	0.0001064
3658	9.31e-05
3670	6.65e-05
3682	5.32e-05
3694	0.000133
3706	0.0001197
3718	0.000133
3730	9.31e-05
3742	0.0001596
3754	6.65e-05
3766	0.000133
3778	0.000133
3790	9.31e-05
3802	9.31e-05
3814	7.98e-05
3826	0.0001463
3838	9.31e-05
