Infrared Spectrum: Swep
Formula: C 8 H 7 Cl 2 N O 2
CAS: 1918-18-9
State: gas
Instrument: HP-GC/MS/IRD
Origin: NIST Mass Spectrometry Data Center
1/CM	ABSORBANCE
550	0.0010005
562	0.001311
574	0.0016284
586	0.0009177
598	0.0003036
610	0.0001725
622	8.28e-05
634	5.52e-05
646	2.07e-05
658	0.0003864
670	0.0026358
682	0.0011661
694	0.0009108
706	0.0012972
718	0.0010488
730	0.0008694
742	0.0010212
754	0.00138
766	0.0025599
778	0.0024357
790	0.0020079
802	0.0033465
814	0.0031671
826	0.0019458
838	0.0013455
850	0.0024495
862	0.0023322
874	0.0026634
886	0.0025599
898	0.0028083
910	0.0022908
922	0.0016077
934	0.0017112
946	0.0027048
958	0.0024978
970	0.0010764
982	0.0005796
994	0.0005865
1006	0.0008694
1018	0.0018078
1030	0.0045471
1042	0.0042297
1054	0.0061272
1066	0.0140622
1078	0.0119508
1090	0.0042159
1102	0.0028773
1114	0.0040365
1126	0.0104673
1138	0.0114333
1150	0.0074313
1162	0.0055821
1174	0.0080109
1186	0.0197133
1198	0.0577737
1210	0.0549585
1222	0.0176088
1234	0.0158286
1246	0.0111918
1258	0.013938
1270	0.0088872
1282	0.0083214
1294	0.0100464
1306	0.0086112
1318	0.0105777
1330	0.0094875
1342	0.0056649
1354	0.0045471
1366	0.0079488
1378	0.0125511
1390	0.011799
1402	0.0050853
1414	0.003036
1426	0.0036432
1438	0.0062514
1450	0.0082455
1462	0.0103224
1474	0.0244536
1486	0.0284073
1498	0.0420969
1510	0.0533922
1522	0.0255438
1534	0.0109503
1546	0.0062583
1558	0.0060306
1570	0.0113229
1582	0.0148971
1594	0.0158631
1606	0.0097152
1618	0.0033948
1630	0.002001
1642	0.001518
1654	0.0012696
1666	0.0011523
1678	0.0012075
1690	0.0015111
1702	0.0019941
1714	0.0027876
1726	0.0038985
1738	0.0063618
1750	0.014352
1762	0.0407859
1774	0.0337755
1786	0.0102534
1798	0.0052026
1810	0.0027669
1822	0.0020355
1834	0.0011385
1846	0.0008487
1858	0.0007935
1870	0.0006693
1882	0.000552
1894	0.0004968
1906	0.0003933
1918	0.0002967
1930	0.000276
1942	0.0003036
1954	0.0002691
1966	0.0001932
1978	0.0001932
1990	0.0001794
2002	0.0001587
2014	0.0001173
2026	0.0001311
2038	0.0001035
2050	4.83e-05
2062	6.21e-05
2074	8.28e-05
2086	8.28e-05
2098	0.0001242
2110	0.0002208
2122	0.0002829
2134	0.0004347
2146	0.0005796
2158	0.0005451
2170	0.000483
2182	0.0003933
2194	0.0004347
2206	0.0004692
2218	0.000483
2230	0.0005727
2242	0.0008211
2254	0.0017181
2266	0.0036915
2278	0.0038088
2290	0.0018216
2302	0.000897
2314	0.0004761
2326	0.0003657
2338	0.0003933
2350	0.0004071
2362	0.0002898
2374	0.000207
2386	0.0001449
2398	0.0001311
2410	0.0001173
2422	0.0001104
2434	0.0001242
2446	0.0001242
2458	0.0001725
2470	0.0001173
2482	3.45e-05
2494	7.59e-05
2506	5.52e-05
2518	6.21e-05
2530	5.52e-05
2542	4.83e-05
2554	3.45e-05
2566	8.28e-05
2578	0.0001035
2590	4.14e-05
2602	0.0001035
2614	6.9e-05
2626	5.52e-05
2638	2.76e-05
2650	2.76e-05
2662	2.76e-05
2674	4.14e-05
2686	9.66e-05
2698	0.0001173
2710	0.0001863
2722	0.0002346
2734	0.0001311
2746	5.52e-05
2758	7.59e-05
2770	0.0001587
2782	0.0001242
2794	0.0001449
2806	0.0001863
2818	0.0002346
2830	0.000345
2842	0.0007107
2854	0.0012006
2866	0.0006141
2878	0.0004761
2890	0.0007245
2902	0.0010212
2914	0.0011316
2926	0.0012765
2938	0.0013731
2950	0.0023253
2962	0.0057546
2974	0.0040572
2986	0.0017664
2998	0.0015732
3010	0.0015456
3022	0.0015249
3034	0.0015111
3046	0.0012351
3058	0.0009729
3070	0.0009867
3082	0.0008901
3094	0.0008418
3106	0.0007314
3118	0.0007383
3130	0.0005244
3142	0.0003381
3154	0.0002622
3166	0.0002001
3178	0.0001863
3190	0.0001863
3202	0.0001725
3214	0.0001725
3226	0.0001518
3238	0.0001449
3250	8.97e-05
3262	0.000138
3274	6.21e-05
3286	8.28e-05
3298	2.07e-05
3310	0.0001173
3322	0.0001035
3334	0.0001311
3346	0
3358	9.66e-05
3370	0.0001173
3382	0.0001242
3394	0.000207
3406	0.0002208
3418	0.0003657
3430	0.0007521
3442	0.0014697
3454	0.0030567
3466	0.0049473
3478	0.0031257
3490	0.0010488
3502	0.0006279
3514	0.000621
3526	0.0005658
3538	0.0004416
3550	0.0003243
3562	0.0002346
3574	0.0002277
3586	0.000207
3598	0.0002346
3610	0.0002139
3622	0.0002139
3634	0.0001173
3646	0.000138
3658	0.0001863
3670	0.000276
3682	0.0001932
3694	0.0001863
3706	0.0002622
3718	0.0002208
3730	0.0002484
3742	0.0002691
3754	0.0002415
3766	0.0002415
3778	0.000276
3790	0.0002208
3802	0.0001518
3814	0.0002898
3826	0.0002553
3838	0.0002001
