Infrared Spectrum: Dicamba
Formula: C 8 H 6 Cl 2 O 3
CAS: 1918-00-9
State: gas
Instrument: HP-GC/MS/IRD
Origin: NIST Mass Spectrometry Data Center
1/CM	ABSORBANCE
550	0.0009018
562	0.0011628
574	0.0012708
586	0.001629
598	0.002421
610	0.0044406
622	0.0037368
634	0.0027738
646	0.0016092
658	0.0019422
670	0.0018864
682	0.0006048
694	0.0003438
706	0.000153
718	0.0001404
730	1.08e-05
742	0.0001854
754	0.0005832
766	0.000531
778	0.0004212
790	0.0005976
802	0.0020682
814	0.0017748
826	0.0007146
838	0.000999
850	0.0004644
862	0.0004662
874	0.0009666
886	0.0011358
898	0.0003042
910	8.82e-05
922	7.38e-05
934	9.72e-05
946	8.64e-05
958	0.0001368
970	0.000225
982	0.0006444
994	0.001728
1006	0.0055458
1018	0.0089928
1030	0.003762
1042	0.0011502
1054	0.0008262
1066	0.0011556
1078	0.0028296
1090	0.0062802
1102	0.0055854
1114	0.002286
1126	0.002052
1138	0.0020268
1150	0.0037098
1162	0.0091728
1174	0.008676
1186	0.004482
1198	0.0032346
1210	0.0025506
1222	0.0025344
1234	0.003132
1246	0.003681
1258	0.0036306
1270	0.0034362
1282	0.0031014
1294	0.0035388
1306	0.0031644
1318	0.0027414
1330	0.0031158
1342	0.0033156
1354	0.002223
1366	0.0016668
1378	0.0018036
1390	0.0037674
1402	0.0067464
1414	0.0038826
1426	0.0023094
1438	0.0035208
1450	0.0044784
1462	0.0066276
1474	0.003393
1486	0.0009522
1498	0.0005364
1510	0.0003888
1522	0.000333
1534	0.000342
1546	0.0005202
1558	0.0015498
1570	0.003069
1582	0.0017946
1594	0.0005202
1606	0.0003888
1618	0.0002988
1630	0.0001404
1642	0.0001242
1654	6.12e-05
1666	0.0001314
1678	0.000162
1690	0.0001944
1702	0.000297
1714	0.0007722
1726	0.0014292
1738	0.0016308
1750	0.0025092
1762	0.0082044
1774	0.018
1786	0.0105246
1798	0.0034092
1810	0.0016272
1822	0.0011232
1834	0.000576
1846	0.0003708
1858	0.0002754
1870	0.0003168
1882	0.0002808
1894	0.0001494
1906	7.92e-05
1918	9.18e-05
1930	7.56e-05
1942	4.5e-05
1954	7.2e-06
1966	3.6e-06
1978	1.8e-05
1990	1.08e-05
2002	5.22e-05
2014	6.84e-05
2026	9.18e-05
2038	5.76e-05
2050	1.08e-05
2062	2.7e-05
2074	1.8e-05
2086	7.2e-06
2098	3.78e-05
2110	5.22e-05
2122	4.86e-05
2134	5.94e-05
2146	2.34e-05
2158	4.14e-05
2170	5.22e-05
2182	7.56e-05
2194	1.8e-05
2206	1.8e-06
2218	1.8e-05
2230	5.4e-06
2242	3.78e-05
2254	3.24e-05
2266	3.42e-05
2278	3.42e-05
2290	3.6e-05
2302	3.6e-06
2314	5.76e-05
2326	4.14e-05
2338	4.86e-05
2350	4.68e-05
2362	8.46e-05
2374	5.04e-05
2386	3.6e-05
2398	4.68e-05
2410	2.34e-05
2422	5.04e-05
2434	6.3e-05
2446	7.38e-05
2458	5.58e-05
2470	4.68e-05
2482	3.78e-05
2494	9.9e-05
2506	9.72e-05
2518	6.48e-05
2530	4.86e-05
2542	3.78e-05
2554	3.24e-05
2566	5.04e-05
2578	3.78e-05
2590	3.78e-05
2602	5.4e-06
2614	6.3e-05
2626	4.14e-05
2638	4.32e-05
2650	5.58e-05
2662	3.24e-05
2674	4.86e-05
2686	3.42e-05
2698	2.16e-05
2710	9.54e-05
2722	7.02e-05
2734	7.92e-05
2746	9.9e-05
2758	7.2e-05
2770	5.4e-05
2782	8.64e-05
2794	0.0001314
2806	0.0001836
2818	0.000225
2830	0.0003168
2842	0.0004554
2854	0.0004896
2866	0.0005904
2878	0.000684
2890	0.000603
2902	0.0004932
2914	0.0004536
2926	0.0005256
2938	0.0007758
2950	0.001836
2962	0.0017226
2974	0.0008694
2986	0.0007542
2998	0.0006282
3010	0.0007092
3022	0.0007452
3034	0.000486
3046	0.0003474
3058	0.0002952
3070	0.000315
3082	0.0003222
3094	0.000234
3106	0.000207
3118	0.000153
3130	0.0001278
3142	0.000171
3154	0.0001152
3166	9.54e-05
3178	9e-05
3190	8.64e-05
3202	9.18e-05
3214	8.28e-05
3226	6.12e-05
3238	1.08e-05
3250	2.34e-05
3262	3.06e-05
3274	5.94e-05
3286	7.92e-05
3298	2.34e-05
3310	9e-05
3322	7.38e-05
3334	8.1e-05
3346	2.16e-05
3358	0.0001386
3370	0.000126
3382	0.0001458
3394	0.0001584
3406	0.0001926
3418	0.0001008
3430	0.0001296
3442	0.0001242
3454	0.0001368
3466	0.0001548
3478	0.0001458
3490	0.000135
3502	0.0001242
3514	0.0002088
3526	0.0003582
3538	0.0004518
3550	0.0015192
3562	0.0068148
3574	0.003105
3586	0.0006462
3598	0.000324
3610	0.0002718
3622	0.0001692
3634	0.0001728
3646	9.72e-05
3658	0.000126
3670	0.0001296
3682	0.0001026
3694	0.0001224
3706	0.0001458
3718	0.0001008
3730	0.000108
3742	4.86e-05
3754	8.28e-05
3766	7.56e-05
3778	5.4e-05
3790	4.32e-05
3802	7.38e-05
3814	0.0001098
3826	0.0001062
3838	0.000162
