Infrared Spectrum: 5-METHYL-2-THIOPHENECARBOXYLIC ACID (KETO FORM)
Formula: C6 H6 O2 S
CAS: 1918-79-2
State: SOLID (SPLIT MULL)
Melting point: 158 C
Class: COBLENTZ III
Instrument: BECKMAN IR-9 (GRATING)
Instrument parameters: ORDER CHANGES: 670, 1200, 2000 CM^-^1
Sampling: TRANSMISSION
Resolution: 2
Origin: DOW CHEMICAL COMPANY
1/CM	TRANSMITTANCE
402.745	0.643
411.507	0.641
420.268	0.676
429.03	0.742
437.792	0.786
446.554	0.822
455.315	0.847
464.077	0.849
472.839	0.531
481.6	0.79
490.362	0.825
499.124	0.816
507.885	0.692
516.647	0.439
525.409	0.825
534.171	0.893
542.932	0.896
551.694	0.915
560.456	0.943
569.217	0.936
577.979	0.96
586.741	0.957
595.503	0.922
604.264	0.513
613.026	0.884
621.788	0.92
630.549	0.926
639.311	0.936
648.073	0.954
656.834	0.957
665.596	0.957
674.358	0.926
683.12	0.789
691.881	0.958
700.643	0.969
709.405	0.955
718.166	0.915
726.928	0.851
735.69	0.855
744.452	0.793
753.213	0.185
761.975	0.601
770.737	0.524
779.498	0.874
788.26	0.902
797.022	0.891
805.783	0.867
814.545	0.739
823.307	0.561
832.069	0.838
840.83	0.849
849.592	0.809
858.354	0.743
867.115	0.852
875.877	0.84
884.639	0.82
893.401	0.771
902.162	0.65
910.924	0.633
919.686	0.446
928.447	0.422
937.209	0.468
945.971	0.526
954.732	0.65
963.494	0.724
972.256	0.75
981.018	0.758
989.779	0.793
998.541	0.803
1007.3	0.804
1016.06	0.794
1024.83	0.772
1033.59	0.586
1042.35	0.482
1051.11	0.677
1059.87	0.775
1068.63	0.789
1077.4	0.776
1086.16	0.742
1094.92	0.588
1103.68	0.154
1112.44	0.355
1121.2	0.727
1129.97	0.82
1138.73	0.826
1147.49	0.812
1156.25	0.765
1165.01	0.564
1173.78	0.785
1182.54	0.807
1191.3	0.779
1200.06	0.747
1208.82	0.705
1217.58	0.596
1226.35	0.438
1235.11	0.571
1243.87	0.622
1252.63	0.526
1261.39	0.331
1270.15	0.242
1278.92	0.195
1287.68	0.136
1296.44	0.085
1305.2	0.042
1313.96	0.082
1322.72	0.239
1331.49	0.721
1340.25	0.634
1349.01	0.749
1357.77	0.866
1366.53	0.928
1375.29	0.911
1384.06	0.8
1392.82	0.845
1401.58	0.753
1410.34	0.657
1419.1	0.524
1427.86	0.506
1436.63	0.604
1445.39	0.526
1454.15	0.46
1462.91	0.17
1471.67	0.406
1480.43	0.7021
1489.2	0.925
1497.96	0.935
1506.72	0.91
1515.48	0.903
1524.24	0.812
1533.01	0.7011
1541.77	0.6371
1550.53	0.914
1559.29	0.946
1568.05	0.932
1576.81	0.906
1585.58	0.874
1594.34	0.836
1603.1	0.782
1611.86	0.717
1620.62	0.647
1629.38	0.553
1638.15	0.449
1646.91	0.33
1655.67	0.152
1664.43	0.09
1673.19	0.09
1681.95	0.198
1690.72	0.436
1699.48	0.6
1708.24	0.838
1717	0.962
1725.76	1.026
1734.52	1.053
1743.29	1.05
1752.05	1.048
1760.81	1.037
1769.57	1.024
1778.33	1.017
1787.09	1.012
1795.86	1.004
1804.62	0.991
1813.38	0.993
1822.14	1.001
1830.9	0.994
1839.66	0.986
1848.43	0.976
1857.19	0.975
1865.95	0.976
1874.71	0.977
1883.47	0.976
1892.24	0.976
1901	0.976
1909.76	0.976
1918.52	0.975
1927.28	0.975
1936.04	0.973
1944.81	0.966
1953.57	0.962
1962.33	0.957
1971.09	0.951
1979.85	0.947
1988.61	0.947
1997.38	0.942
2006.14	0.94
2014.9	0.94
2023.66	0.9339
2032.42	0.9255
2041.18	0.914
2049.95	0.9049
2058.71	0.902
2067.47	0.902
2076.23	0.902
2084.99	0.903
2093.75	0.902
2102.52	0.896
2111.28	0.8874
2120.04	0.882
2128.8	0.874
2137.56	0.8677
2146.32	0.865
2155.09	0.8606
2163.85	0.8566
2172.61	0.8513
2181.37	0.8448
2190.13	0.8363
2198.89	0.8275
2207.66	0.8205
2216.42	0.816
2225.18	0.8112
2233.94	0.8007
2242.7	0.796
2251.47	0.7874
2260.23	0.7766
2268.99	0.7712
2277.75	0.7642
2286.51	0.758
2295.27	0.7543
2304.04	0.7461
2312.8	0.7393
2321.56	0.734
2330.32	0.732
2339.08	0.735
2347.84	0.7322
2356.61	0.724
2365.37	0.7279
2374.13	0.7242
2382.89	0.6843
2391.65	0.67
2400.41	0.663
2409.18	0.657
2417.94	0.651
2426.7	0.647
2435.46	0.641
2444.22	0.6319
2452.98	0.6209
2461.75	0.6099
2470.51	0.5999
2479.27	0.5886
2488.03	0.5737
2496.79	0.5547
2505.55	0.5417
2514.32	0.5309
2523.08	0.5169
2531.84	0.512
2540.6	0.512
2549.36	0.5088
2558.12	0.504
2566.89	0.502
2575.65	0.5008
2584.41	0.495
2593.17	0.4986
2601.93	0.5218
2610.69	0.5552
2619.46	0.5617
2628.22	0.566
2636.98	0.5552
2645.74	0.5404
2654.5	0.5307
2663.27	0.5254
2672.03	0.523
2680.79	0.5263
2689.55	0.535
2698.31	0.541
2707.07	0.5467
2715.84	0.5648
2724.6	0.5931
2733.36	0.5926
2742.12	0.5816
2750.88	0.5776
2759.64	0.5692
2768.41	0.5547
2777.17	0.5367
2785.93	0.5231
2794.69	0.5076
2803.45	0.4966
2812.21	0.487
2820.98	0.4795
2829.74	0.4765
2838.5	0.479
2847.26	0.484
2856.02	0.487
2864.78	0.486
2873.55	0.4876
2882.31	0.4921
2891.07	0.5006
2899.83	0.5072
2908.59	0.5126
2917.35	0.513
2926.12	0.5068
2934.88	0.511
2943.64	0.5103
2952.4	0.5044
2961.16	0.502
2969.92	0.5
2978.69	0.5
2987.45	0.5
2996.21	0.502
3004.97	0.5087
3013.73	0.5167
3022.5	0.5275
3031.26	0.5365
3040.02	0.539
3048.78	0.5418
3057.54	0.5458
3066.3	0.5528
3075.07	0.56
3083.83	0.5654
3092.59	0.568
3101.35	0.5727
3110.11	0.5945
3118.87	0.6096
3127.64	0.6219
3136.4	0.6299
3145.16	0.6388
3153.92	0.6458
3162.68	0.6498
3171.44	0.654
3180.21	0.6589
3188.97	0.6629
3197.73	0.6679
3206.49	0.672
3215.25	0.677
3224.01	0.681
3232.78	0.685
3241.54	0.688
3250.3	0.691
3259.06	0.691
3267.82	0.691
3276.58	0.691
3285.35	0.691
3294.11	0.691
3302.87	0.691
3311.63	0.69
3320.39	0.688
3329.15	0.6868
3337.92	0.6839
3346.68	0.68
3355.44	0.677
3364.2	0.673
3372.96	0.6688
3381.73	0.665
3390.49	0.662
3399.25	0.6606
3408.01	0.658
3416.77	0.658
3425.53	0.657
3434.3	0.657
3443.06	0.655
3451.82	0.654
3460.58	0.652
3469.34	0.651
3478.1	0.65
3486.87	0.65
3495.63	0.65
3504.39	0.65
3513.15	0.651
3521.91	0.651
3530.67	0.652
3539.44	0.654
3548.2	0.655
3556.96	0.657
3565.72	0.6584
3574.48	0.661
3583.24	0.663
3592.01	0.6669
3600.77	0.6724
3609.53	0.6764
3618.29	0.68
3627.05	0.683
3635.81	0.685
3644.58	0.689
3653.34	0.69
3662.1	0.691
3670.86	0.691
3679.62	0.691
3688.38	0.69
3697.15	0.69
3705.91	0.688
3714.67	0.687
3723.43	0.685
3732.19	0.684
3740.96	0.683
3749.72	0.68
3758.48	0.677
3767.24	0.674
3776	0.674
3784.76	0.6723
3793.53	0.668
