Infrared Spectrum: Picloram
Formula: C 6 H 3 Cl 3 N 2 O 2
CAS: 1918-02-1
State: gas
Instrument: HP-GC/MS/IRD
Origin: NIST Mass Spectrometry Data Center
1/CM	ABSORBANCE
550	0.0008323
562	0.0015573
574	0.0013891
586	0.0006612
598	0.001334
610	0.0022765
622	0.0016762
634	0.0007134
646	0.0005771
658	0.0005249
670	0.0003248
682	0.0003712
694	0.0006235
706	0.0008845
718	0.000928
730	0.0019923
742	0.0042282
754	0.0038222
766	0.0020532
778	0.0012528
790	0.0011107
802	0.0021141
814	0.0039411
826	0.0025375
838	0.0020358
850	0.0022098
862	0.0017632
874	0.0013543
886	0.0012267
898	0.0017922
910	0.0035003
922	0.0060697
934	0.0085202
946	0.003915
958	0.0007308
970	0.000116
982	8.7e-05
994	0.0001943
1006	0.0001798
1018	0.0002958
1030	0.0004872
1042	0.0008526
1054	0.0017255
1066	0.002349
1078	0.0032509
1090	0.0105067
1102	0.0126092
1114	0.0045211
1126	0.0012731
1138	0.0007888
1150	0.0005829
1162	0.0003538
1174	0.0002929
1186	0.0008584
1198	0.0046139
1210	0.003944
1222	0.0002639
1234	0.0003074
1246	0.0004785
1258	0.0021286
1270	0.0022127
1282	0.0001943
1294	0.0005742
1306	0.0001856
1318	1.45e-05
1330	0.0003248
1342	0.0010324
1354	0.0043819
1366	0.0134415
1378	0.0197345
1390	0.0032161
1402	0.0010817
1414	0.0009686
1426	0.0016936
1438	0.004205
1450	0.0109301
1462	0.0102486
1474	0.0021054
1486	0.0005481
1498	0.0004147
1510	0.0005887
1522	0.0013021
1534	0.0036076
1546	0.0074704
1558	0.0051011
1570	0.0018096
1582	0.0026825
1594	0.0090886
1606	0.0260913
1618	0.0249458
1630	0.0084419
1642	0.0031117
1654	0.0016211
1666	0.0010092
1678	0.000667
1690	0.0003886
1702	0.0002987
1714	0.0002407
1726	9.57e-05
1738	2.32e-05
1750	4.35e-05
1762	7.25e-05
1774	1.16e-05
1786	1.16e-05
1798	6.09e-05
1810	0.000203
1822	0.0004959
1834	0.0002755
1846	5.8e-05
1858	4.93e-05
1870	9.86e-05
1882	8.12e-05
1894	5.22e-05
1906	3.48e-05
1918	8.7e-06
1930	2.9e-06
1942	2.9e-05
1954	6.96e-05
1966	8.99e-05
1978	7.54e-05
1990	5.51e-05
2002	3.77e-05
2014	4.35e-05
2026	7.54e-05
2038	6.67e-05
2050	7.25e-05
2062	4.64e-05
2074	8.12e-05
2086	6.09e-05
2098	5.51e-05
2110	4.64e-05
2122	9.86e-05
2134	0.000116
2146	9.86e-05
2158	0.0001189
2170	0.0001015
2182	0.000174
2194	0.0001972
2206	0.0001537
2218	0.0001102
2230	7.54e-05
2242	0.0001073
2254	7.83e-05
2266	7.83e-05
2278	0.0001073
2290	0.0001131
2302	0.0001827
2314	0.0001392
2326	0.0001015
2338	0.0001682
2350	0.000261
2362	0.0002001
2374	0.0002059
2386	0.0002088
2398	0.0001247
2410	8.7e-05
2422	0.0001392
2434	0.0001276
2446	0.0001392
2458	0.0001885
2470	0.000232
2482	0.0001421
2494	0.0001595
2506	0.0001769
2518	0.0002668
2530	0.0003045
2542	0.0002697
2554	0.0001711
2566	0.0001682
2578	0.0001247
2590	9.86e-05
2602	3.77e-05
2614	8.99e-05
2626	9.86e-05
2638	0.0001247
2650	0.0001044
2662	0.0001479
2674	0.0001247
2686	0.0001421
2698	0.0002697
2710	0.0003364
2722	0.0003306
2734	0.0002697
2746	0.0002262
2758	0.0001218
2770	0.0001073
2782	0.0001682
2794	0.0001885
2806	0.0002291
2818	0.0001914
2830	0.0001537
2842	0.0001508
2854	0.0001566
2866	0.000174
2878	0.0001566
2890	0.0001537
2902	0.0001885
2914	0.0001653
2926	0.0001305
2938	0.0001305
2950	0.0001595
2962	0.0001247
2974	0.0001044
2986	0.0001276
2998	0.0001769
3010	0.0001653
3022	0.0001682
3034	0.000174
3046	0.0003509
3058	0.0007685
3070	0.0007192
3082	0.0004089
3094	0.0004176
3106	0.0003219
3118	0.0003016
3130	0.0001914
3142	0.00029
3154	0.0002726
3166	0.000232
3178	0.0001421
3190	0.0001537
3202	0.0001885
3214	0.0002523
3226	0.0002552
3238	0.0002175
3250	0.000145
3262	0.0001276
3274	0.0001798
3286	0.0001827
3298	0.0001972
3310	0.0001856
3322	7.25e-05
3334	0.0002088
3346	0.0001769
3358	0.0002523
3370	0.0003219
3382	0.0006235
3394	0.001276
3406	0.0027869
3418	0.0038396
3430	0.0048633
3442	0.0036163
3454	0.0010005
3466	0.0006931
3478	0.0009628
3490	0.0013137
3502	0.0022562
3514	0.003451
3526	0.002958
3538	0.0042833
3550	0.0034307
3562	0.0006525
3574	0.0002291
3586	0.0001305
3598	0.0001189
3610	0.0001421
3622	9.57e-05
3634	8.41e-05
3646	0.0001073
3658	8.41e-05
3670	9.57e-05
3682	7.54e-05
3694	0.0001102
3706	9.57e-05
3718	0.0001653
3730	0.0001827
3742	0.0002001
3754	0.0001276
3766	0.0001914
3778	0.0001856
3790	0.0001073
3802	0.0001247
3814	0.0001276
3826	0.0001943
3838	8.7e-05
