Infrared Spectrum: DIBENZO(a,e)PYRENE
Formula: C24 H14
CAS: 192-65-4
State: SOLID (KBr PELLET)
Melting point: 225 C
Class: COBLENTZ
Instrument: PERKIN-ELMER
Sampling: TRANSMISSION
Resolution: 4
Origin: UNION CARBIDE CORPORATION (CARBON PRODUCTS DIVISION)
MICROMETERS	TRANSMITTANCE
2.02	0.435
2.05373	0.435
2.08746	0.437
2.12119	0.439
2.15492	0.442
2.18866	0.444
2.22239	0.445
2.25612	0.449
2.28985	0.449
2.32358	0.449
2.35731	0.449
2.39104	0.449
2.42477	0.451
2.4585	0.452
2.49224	0.457
2.52597	0.459
2.5597	0.461
2.59343	0.461
2.62716	0.459
2.66089	0.459
2.69462	0.459
2.72835	0.457
2.76208	0.457
2.79582	0.454
2.82955	0.439
2.86328	0.42
2.89701	0.407
2.93074	0.4
2.96447	0.398
2.9982	0.403
3.03193	0.417
3.06566	0.434
3.0994	0.452
3.13313	0.462
3.16686	0.472
3.20059	0.474
3.23432	0.474
3.26805	0.461
3.30178	0.452
3.33551	0.461
3.36924	0.467
3.40297	0.469
3.43671	0.474
3.47044	0.479
3.50417	0.496
3.5379	0.503
3.57163	0.506
3.60536	0.508
3.63909	0.51
3.67282	0.513
3.70655	0.52
3.74029	0.52
3.77402	0.521
3.80775	0.521
3.84148	0.521
3.87521	0.521
3.90894	0.523
3.94267	0.527
3.9764	0.53
4.01013	0.53
4.04387	0.53
4.0776	0.53
4.11133	0.532
4.14506	0.532
4.17879	0.533
4.21252	0.533
4.24625	0.535
4.27998	0.533
4.31371	0.533
4.34745	0.533
4.38118	0.535
4.41491	0.542
4.44864	0.548
4.48237	0.55
4.5161	0.552
4.54983	0.554
4.58356	0.557
4.61729	0.559
4.65103	0.56
4.68476	0.564
4.71849	0.565
4.75222	0.569
4.78595	0.572
4.81968	0.574
4.85341	0.577
4.88714	0.579
4.92087	0.584
4.95461	0.592
4.98834	0.594
5.02207	0.594
5.0558	0.594
5.08953	0.597
5.12326	0.597
5.15699	0.589
5.19072	0.581
5.22445	0.584
5.25819	0.587
5.29192	0.594
5.32565	0.608
5.35938	0.611
5.39311	0.616
5.42684	0.621
5.46057	0.628
5.4943	0.63
5.52803	0.641
5.56177	0.646
5.5955	0.641
5.62923	0.636
5.66296	0.636
5.69669	0.638
5.73042	0.643
5.76415	0.648
5.79788	0.652
5.83161	0.653
5.86535	0.66
5.89908	0.658
5.93281	0.657
5.96654	0.658
6.00027	0.657
6.034	0.653
6.06773	0.641
6.10146	0.636
6.13519	0.631
6.16892	0.623
6.20266	0.596
6.23639	0.601
6.27012	0.603
6.30385	0.635
6.33758	0.648
6.37131	0.653
6.40504	0.675
6.43877	0.687
6.4725	0.69
6.50624	0.699
6.53997	0.699
6.5737	0.692
6.60743	0.662
6.64116	0.658
6.67489	0.68
6.70862	0.609
6.74235	0.532
6.77608	0.56
6.80982	0.611
6.84355	0.648
6.87728	0.67
6.91101	0.665
6.94474	0.643
6.97847	0.628
7.0122	0.667
7.04593	0.668
7.07966	0.64
7.1134	0.606
7.14713	0.635
7.18086	0.663
7.21459	0.679
7.24832	0.69
7.28205	0.699
7.31578	0.697
7.34951	0.699
7.38324	0.701
7.41698	0.701
7.45071	0.692
7.48444	0.692
7.51817	0.699
7.5519	0.675
7.58563	0.587
7.61936	0.619
7.65309	0.616
7.68682	0.633
7.72056	0.667
7.75429	0.677
7.78802	0.685
7.82175	0.689
7.85548	0.68
7.88921	0.668
7.92294	0.67
7.95667	0.667
7.9904	0.638
8.02414	0.652
8.05787	0.67
8.0916	0.687
8.12533	0.702
8.15906	0.702
8.19279	0.667
8.22652	0.667
8.26025	0.672
8.29398	0.685
8.32772	0.682
8.36145	0.641
8.39518	0.655
8.42891	0.675
8.46264	0.687
8.49637	0.685
8.5301	0.685
8.56383	0.684
8.59756	0.706
8.63129	0.692
8.66503	0.685
8.69876	0.625
8.73249	0.65
8.76622	0.687
8.79995	0.697
8.83368	0.709
8.86741	0.714
8.90114	0.717
8.93487	0.717
8.96861	0.717
9.00234	0.716
9.03607	0.709
9.0698	0.701
9.10353	0.701
9.13726	0.701
9.17099	0.706
9.20472	0.706
9.23845	0.69
9.27219	0.689
9.30592	0.692
9.33965	0.692
9.37338	0.699
9.40711	0.702
9.44084	0.702
9.47457	0.714
9.5083	0.717
9.54203	0.714
9.57577	0.672
9.6095	0.672
9.64323	0.672
9.67696	0.687
9.71069	0.702
9.74442	0.714
9.77815	0.717
9.81188	0.716
9.84561	0.714
9.87935	0.716
9.91308	0.716
9.94681	0.716
9.98054	0.751
10.0143	0.75
10.048	0.75
10.0817	0.748
10.1155	0.75
10.1492	0.75
10.1829	0.751
10.2167	0.751
10.2504	0.751
10.2841	0.748
10.3178	0.75
10.3516	0.75
10.3853	0.758
10.419	0.76
10.4528	0.741
10.4865	0.743
10.5202	0.728
10.554	0.667
10.5877	0.684
10.6214	0.712
10.6552	0.68
10.6889	0.689
10.7226	0.728
10.7564	0.75
10.7901	0.763
10.8238	0.763
10.8575	0.763
10.8913	0.765
10.925	0.766
10.9587	0.77
10.9925	0.771
11.0262	0.775
11.0599	0.768
11.0937	0.763
11.1274	0.765
11.1611	0.689
11.1949	0.648
11.2286	0.701
11.2623	0.707
11.2961	0.667
11.3298	0.498
11.3635	0.39
11.3972	0.548
11.431	0.648
11.4647	0.704
11.4984	0.733
11.5322	0.755
11.5659	0.771
11.5996	0.771
11.6334	0.695
11.6671	0.601
11.7008	0.672
11.7346	0.682
11.7683	0.608
11.802	0.65
11.8357	0.717
11.8695	0.758
11.9032	0.78
11.9369	0.792
11.9707	0.783
12.0044	0.505
12.0381	0.251
12.0719	0.243
12.1056	0.486
12.1393	0.537
12.1731	0.547
12.2068	0.596
12.2405	0.672
12.2743	0.702
12.308	0.733
12.3417	0.748
12.3754	0.763
12.4092	0.768
12.4429	0.771
12.4766	0.785
12.5104	0.793
12.5441	0.797
12.5778	0.809
12.6116	0.814
12.6453	0.817
12.679	0.822
12.7128	0.827
12.7465	0.829
12.7802	0.837
12.814	0.846
12.8477	0.839
12.8814	0.805
12.9151	0.748
12.9489	0.601
12.9826	0.604
13.0163	0.65
13.0501	0.668
13.0838	0.594
13.1175	0.402
13.1513	0.155
13.185	0.069
13.2187	0.033
13.2525	0.032
13.2862	0.076
13.3199	0.175
13.3536	0.244
13.3874	0.26
13.4211	0.3
13.4548	0.388
13.4886	0.444
13.5223	0.516
13.556	0.547
13.5898	0.557
13.6235	0.503
13.6572	0.466
13.691	0.516
13.7247	0.564
13.7584	0.596
13.7922	0.613
13.8259	0.633
13.8596	0.648
13.8933	0.652
13.9271	0.66
13.9608	0.667
13.9945	0.679
14.0283	0.684
14.062	0.687
14.0957	0.687
14.1295	0.689
14.1632	0.695
14.1969	0.699
14.2307	0.699
14.2644	0.699
14.2981	0.697
14.3319	0.685
14.3656	0.673
14.3993	0.68
14.433	0.689
14.4668	0.69
14.5005	0.689
14.5342	0.689
14.568	0.695
14.6017	0.704
14.6354	0.716
14.6692	0.724
14.7029	0.728
14.7366	0.729
14.7704	0.729
14.8041	0.731
14.8378	0.733
14.8715	0.734
14.9053	0.733
14.939	0.731
14.9727	0.733
15.0065	0.744
15.0402	0.741
15.0739	0.734
15.1077	0.733
15.1414	0.733
15.1751	0.738
15.2089	0.744
15.2426	0.744
15.2763	0.748
15.3101	0.75
15.3438	0.748
15.3775	0.701
15.4112	0.665
15.445	0.668
15.4787	0.68
