Infrared Spectrum: BENZO[e]PYRENE
Formula: C20 H12
CAS: 192-97-2
State: SOLID (SPLIT MULL, FLUOROLUBE FOR 3800-1330 AND NUJOL FOR 1330-400 CM ^-^1)
Melting point: 177-180 C
Class: COBLENTZ III
Instrument: DOW KBr FOREPRISM-GRATING
Instrument parameters: BLAZED AT 3.5, 12.0, 20.0 MICRON, CHANGED AT 5.0, 7.5, 14.9 MICRON
Sampling: TRANSMISSION
Resolution: 4
Origin: DOW CHEMICAL COMPANY
1/CM	TRANSMITTANCE
382.278	1.004
391.772	1
401.265	0.992
410.759	0.983
420.253	0.983
429.746	0.983
439.24	0.982
448.734	0.977
458.227	0.988
467.721	0.988
477.215	0.982
486.708	0.982
496.202	0.989
505.696	0.988
515.189	0.991
524.683	0.989
534.177	0.994
543.671	0.991
553.164	0.824
562.658	0.977
572.152	0.929
581.645	1
591.139	1
600.633	1.001
610.126	1.005
619.62	1.007
629.114	1.005
638.607	0.988
648.101	1.008
657.595	1.007
667.088	1
676.582	0.986
686.076	0.963
695.569	0.932
705.063	0.751
714.557	0.818
724.05	0.794
733.544	0.797
743.038	0.361
752.531	0.567
762.025	0.855
771.519	0.33
781.012	0.892
790.506	0.921
800	0.918
809.493	0.896
818.987	0.841
828.481	0.109
837.975	0.906
847.468	0.917
856.962	0.918
866.456	0.917
875.949	0.92
885.443	0.901
894.937	0.855
904.43	0.899
913.924	0.899
923.418	0.895
932.911	0.89
942.405	0.816
951.899	0.861
961.392	0.844
970.886	0.871
980.38	0.886
989.873	0.892
999.367	0.872
1008.86	0.884
1018.35	0.881
1027.85	0.87
1037.34	0.843
1046.84	0.861
1056.33	0.87
1065.82	0.858
1075.32	0.853
1084.81	0.859
1094.3	0.859
1103.8	0.794
1113.29	0.853
1122.78	0.844
1132.28	0.838
1141.77	0.809
1151.27	0.719
1160.76	0.794
1170.25	0.807
1179.75	0.818
1189.24	0.552
1198.73	0.741
1208.23	0.813
1217.72	0.822
1227.22	0.813
1236.71	0.813
1246.2	0.797
1255.7	0.778
1265.19	0.6921
1274.68	0.781
1284.18	0.778
1293.67	0.766
1303.16	0.734
1312.66	0.71
1322.15	0.72
1331.65	0.836
1341.14	0.917
1350.63	0.949
1360.13	0.955
1369.62	0.955
1379.11	0.954
1388.61	0.937
1398.1	0.929
1407.6	0.8499
1417.09	0.967
1426.58	0.979
1436.08	0.96
1445.57	0.991
1455.06	0.98
1464.56	0.982
1474.05	0.8779
1483.54	0.992
1493.04	0.998
1502.53	0.997
1512.03	0.986
1521.52	0.988
1531.01	0.997
1540.51	0.983
1550	0.994
1559.49	0.98
1568.99	0.982
1578.48	0.973
1587.98	0.945
1597.47	0.937
1606.96	0.974
1616.46	0.985
1625.95	0.971
1635.44	0.976
1644.94	0.982
1654.43	0.974
1663.92	0.968
1673.42	0.973
1682.91	0.971
1692.41	0.966
1701.9	0.964
1711.39	0.958
1720.89	0.946
1730.38	0.952
1739.87	0.957
1749.37	0.955
1758.86	0.952
1768.35	0.942
1777.85	0.933
1787.34	0.924
1796.84	0.933
1806.33	0.94
1815.82	0.943
1825.32	0.937
1834.81	0.935
1844.3	0.93
1853.8	0.926
1863.29	0.921
1872.79	0.927
1882.28	0.921
1891.77	0.92
1901.27	0.911
1910.76	0.905
1920.25	0.895
1929.75	0.893
1939.24	0.899
1948.73	0.912
1958.23	0.917
1967.72	0.905
1977.22	0.901
1986.71	0.895
1996.2	0.887
2005.7	0.878
2015.19	0.875
2024.68	0.872
2034.18	0.8699
2043.67	0.859
2053.17	0.858
2062.66	0.8529
2072.15	0.8499
2081.65	0.847
2091.14	0.846
2100.63	0.8428
2110.13	0.837
2119.62	0.836
2129.11	0.833
2138.61	0.8297
2148.1	0.825
2157.6	0.824
2167.09	0.822
2176.58	0.815
2186.08	0.813
2195.57	0.8115
2205.06	0.803
2214.56	0.8
2224.05	0.797
2233.55	0.788
2243.04	0.787
2252.53	0.7787
2262.03	0.776
2271.52	0.775
2281.01	0.771
2290.51	0.766
2300	0.7643
2309.49	0.7596
2318.99	0.7536
2328.48	0.75
2337.98	0.747
2347.47	0.7488
2356.96	0.75
2366.46	0.75
2375.95	0.751
2385.44	0.751
2394.94	0.75
2404.43	0.7505
2413.92	0.75
2423.42	0.747
2432.91	0.75
2442.41	0.748
2451.9	0.747
2461.39	0.7459
2470.89	0.744
2480.38	0.741
2489.87	0.74
2499.37	0.74
2508.86	0.74
2518.36	0.738
2527.85	0.737
2537.34	0.735
2546.84	0.735
2556.33	0.734
2565.82	0.732
2575.32	0.7296
2584.81	0.728
2594.3	0.726
2603.8	0.723
2613.29	0.7198
2622.79	0.717
2632.28	0.716
2641.77	0.716
2651.27	0.714
2660.76	0.714
2670.25	0.7114
2679.75	0.71
2689.24	0.707
2698.74	0.7062
2708.23	0.704
2717.72	0.7032
2727.22	0.701
2736.71	0.7
2746.2	0.7
2755.7	0.6971
2765.19	0.692
2774.68	0.691
2784.18	0.692
2793.67	0.6891
2803.17	0.688
2812.66	0.683
2822.15	0.68
2831.65	0.677
2841.14	0.676
2850.63	0.677
2860.13	0.673
2869.62	0.669
2879.12	0.667
2888.61	0.666
2898.1	0.6609
2907.6	0.6579
2917.09	0.6519
2926.58	0.6478
2936.08	0.645
2945.57	0.644
2955.06	0.642
2964.56	0.642
2974.05	0.639
2983.55	0.636
2993.04	0.6316
3002.53	0.6238
3012.03	0.6166
3021.52	0.6118
3031.01	0.6048
3040.51	0.5793
3050	0.5777
3059.5	0.621
3068.99	0.618
3078.48	0.615
3087.98	0.623
3097.47	0.627
3106.96	0.6293
3116.46	0.632
3125.95	0.629
3135.44	0.6267
3144.94	0.6236
3154.43	0.6206
3163.93	0.6192
3173.42	0.618
3182.91	0.615
3192.41	0.611
3201.9	0.61
3211.39	0.61
3220.89	0.6061
3230.38	0.6045
3239.87	0.601
3249.37	0.598
3258.86	0.595
3268.36	0.5925
3277.85	0.59
3287.34	0.59
3296.84	0.587
3306.33	0.584
3315.82	0.5834
3325.32	0.5798
3334.81	0.576
3344.31	0.5734
3353.8	0.5704
3363.29	0.567
3372.79	0.565
3382.28	0.564
3391.77	0.5627
3401.27	0.559
3410.76	0.554
3420.25	0.552
3429.75	0.549
3439.24	0.548
3448.74	0.543
3458.23	0.543
3467.72	0.542
3477.22	0.539
3486.71	0.536
3496.2	0.534
3505.7	0.5314
3515.19	0.5302
3524.69	0.527
3534.18	0.5242
3543.67	0.522
3553.17	0.522
3562.66	0.522
3572.15	0.518
3581.65	0.518
3591.14	0.5141
3600.63	0.512
3610.13	0.511
3619.62	0.509
3629.12	0.508
3638.61	0.506
3648.1	0.5031
3657.6	0.5001
3667.09	0.5
3676.58	0.497
3686.08	0.494
3695.57	0.493
3705.07	0.49
3714.56	0.488
3724.05	0.49
3733.55	0.488
3743.04	0.485
3752.53	0.485
3762.03	0.4828
3771.52	0.48
3781.01	0.48
3790.51	0.4797
3800	0.4779
