Infrared Spectrum: DIBENZO(h,rst)PENTAPHENE
Formula: C28 H16
CAS: 192-47-2
State: SOLID (KBr PELLET)
Melting point: 320 C
Class: COBLENTZ
Instrument: Not specified, most likely a prism, grating, or hybrid spectrometer.
Sampling: TRANSMISSION
Resolution: 4
Origin: UNION CARBIDE CORPORATION (CARBON PRODUCTS DIVISION)
MICROMETERS	TRANSMITTANCE
2.02	0.15
2.05328	0.159
2.08656	0.167
2.11984	0.176
2.15312	0.184
2.18641	0.188
2.21969	0.192
2.25297	0.207
2.28625	0.21
2.31953	0.22
2.35281	0.222
2.38609	0.224
2.41937	0.234
2.45265	0.236
2.48593	0.239
2.51922	0.243
2.5525	0.243
2.58578	0.244
2.61906	0.248
2.65234	0.253
2.68562	0.256
2.7189	0.259
2.75218	0.264
2.78546	0.269
2.81875	0.28
2.85203	0.285
2.88531	0.289
2.91859	0.291
2.95187	0.296
2.98515	0.307
3.01843	0.319
3.05171	0.324
3.08499	0.329
3.11827	0.333
3.15156	0.337
3.18484	0.345
3.21812	0.355
3.2514	0.357
3.28468	0.347
3.31796	0.349
3.35124	0.356
3.38452	0.36
3.4178	0.368
3.45109	0.373
3.48437	0.378
3.51765	0.381
3.55093	0.389
3.58421	0.394
3.61749	0.4
3.65077	0.406
3.68405	0.41
3.71733	0.416
3.75061	0.422
3.7839	0.428
3.81718	0.429
3.85046	0.433
3.88374	0.437
3.91702	0.444
3.9503	0.448
3.98358	0.45
4.01686	0.453
4.05014	0.457
4.08343	0.464
4.11671	0.47
4.14999	0.474
4.18327	0.476
4.21655	0.476
4.24983	0.477
4.28311	0.477
4.31639	0.478
4.34967	0.497
4.38296	0.498
4.41624	0.503
4.44952	0.51
4.4828	0.517
4.51608	0.519
4.54936	0.526
4.58264	0.526
4.61592	0.53
4.6492	0.533
4.68248	0.534
4.71577	0.538
4.74905	0.539
4.78233	0.546
4.81561	0.555
4.84889	0.557
4.88217	0.558
4.91545	0.559
4.94873	0.562
4.98201	0.565
5.0153	0.57
5.04858	0.573
5.08186	0.577
5.11514	0.574
5.14842	0.573
5.1817	0.574
5.21498	0.574
5.24826	0.577
5.28154	0.577
5.31482	0.586
5.34811	0.597
5.38139	0.601
5.41467	0.602
5.44795	0.599
5.48123	0.599
5.51451	0.603
5.54779	0.603
5.58107	0.609
5.61435	0.609
5.64764	0.609
5.68092	0.61
5.7142	0.621
5.74748	0.622
5.78076	0.625
5.81404	0.627
5.84732	0.625
5.8806	0.623
5.91388	0.631
5.94716	0.636
5.98045	0.647
6.01373	0.647
6.04701	0.648
6.08029	0.656
6.11357	0.652
6.14685	0.621
6.18013	0.619
6.21341	0.627
6.24669	0.642
6.27998	0.643
6.31326	0.646
6.34654	0.652
6.37982	0.651
6.4131	0.666
6.44638	0.67
6.47966	0.679
6.51294	0.678
6.54622	0.676
6.5795	0.676
6.61279	0.666
6.64607	0.558
6.67935	0.55
6.71263	0.647
6.74591	0.659
6.77919	0.642
6.81247	0.575
6.84575	0.627
6.87903	0.652
6.91232	0.639
6.9456	0.656
6.97888	0.672
7.01216	0.687
7.04544	0.703
7.07872	0.699
7.112	0.684
7.14528	0.688
7.17856	0.719
7.21184	0.75
7.24513	0.74
7.27841	0.739
7.31169	0.738
7.34497	0.739
7.37825	0.742
7.41153	0.744
7.44481	0.734
7.47809	0.732
7.51137	0.736
7.54466	0.659
7.57794	0.688
7.61122	0.719
7.6445	0.728
7.67778	0.718
7.71106	0.639
7.74434	0.658
7.77762	0.687
7.8109	0.691
7.84419	0.688
7.87747	0.71
7.91075	0.708
7.94403	0.679
7.97731	0.712
8.01059	0.731
8.04387	0.712
8.07715	0.636
8.11043	0.667
8.14371	0.704
8.177	0.72
8.21028	0.698
8.24356	0.68
8.27684	0.711
8.31012	0.739
8.3434	0.748
8.37668	0.75
8.40996	0.757
8.44324	0.744
8.47653	0.736
8.50981	0.734
8.54309	0.727
8.57637	0.719
8.60965	0.74
8.64293	0.75
8.67621	0.75
8.70949	0.755
8.74277	0.759
8.77605	0.735
8.80934	0.73
8.84262	0.752
8.8759	0.768
8.90918	0.776
8.94246	0.78
8.97574	0.784
9.00902	0.788
9.0423	0.787
9.07558	0.779
9.10887	0.764
9.14215	0.78
9.17543	0.783
9.20871	0.788
9.24199	0.788
9.27527	0.788
9.30855	0.789
9.34183	0.795
9.37511	0.799
9.40839	0.799
9.44168	0.8
9.47496	0.799
9.50824	0.777
9.54152	0.784
9.5748	0.799
9.60808	0.807
9.64136	0.809
9.67464	0.804
9.70792	0.753
9.74121	0.764
9.77449	0.788
9.80777	0.795
9.84105	0.796
9.87433	0.8
9.90761	0.808
9.94089	0.809
9.97417	0.809
10.0075	0.813
10.0407	0.815
10.074	0.816
10.1073	0.817
10.1406	0.817
10.1739	0.817
10.2071	0.817
10.2404	0.815
10.2737	0.815
10.307	0.813
10.3403	0.817
10.3735	0.82
10.4068	0.825
10.4401	0.819
10.4734	0.773
10.5067	0.751
10.54	0.735
10.5732	0.736
10.6065	0.739
10.6398	0.748
10.6731	0.777
10.7064	0.797
10.7396	0.812
10.7729	0.823
10.8062	0.825
10.8395	0.831
10.8728	0.831
10.906	0.831
10.9393	0.831
10.9726	0.832
11.0059	0.835
11.0392	0.836
11.0724	0.835
11.1057	0.837
11.139	0.84
11.1723	0.841
11.2056	0.837
11.2389	0.809
11.2721	0.757
11.3054	0.674
11.3387	0.618
11.372	0.428
11.4053	0.41
11.4385	0.561
11.4718	0.698
11.5051	0.747
11.5384	0.78
11.5717	0.795
11.6049	0.791
11.6382	0.777
11.6715	0.776
11.7048	0.743
11.7381	0.716
11.7713	0.642
11.8046	0.599
11.8379	0.678
11.8712	0.731
11.9045	0.777
11.9378	0.797
11.971	0.815
12.0043	0.82
12.0376	0.809
12.0709	0.66
12.1042	0.731
12.1374	0.74
12.1707	0.724
12.204	0.738
12.2373	0.764
12.2706	0.797
12.3038	0.817
12.3371	0.82
12.3704	0.825
12.4037	0.831
12.437	0.84
12.4703	0.84
12.5035	0.84
12.5368	0.84
12.5701	0.843
12.6034	0.848
12.6367	0.855
12.6699	0.857
12.7032	0.859
12.7365	0.863
12.7698	0.865
12.8031	0.869
12.8363	0.871
12.8696	0.872
12.9029	0.868
12.9362	0.844
12.9695	0.75
13.0027	0.472
13.036	0.239
13.0693	0.204
13.1026	0.15
13.1359	0.062
13.1692	0.071
13.2024	0.19
13.2357	0.268
13.269	0.321
13.3023	0.36
13.3356	0.376
13.3688	0.42
13.4021	0.429
13.4354	0.39
13.4687	0.41
13.502	0.457
13.5352	0.5
13.5685	0.549
13.6018	0.603
13.6351	0.635
13.6684	0.667
13.7017	0.688
13.7349	0.699
13.7682	0.708
13.8015	0.718
13.8348	0.719
13.8681	0.72
13.9013	0.726
13.9346	0.727
13.9679	0.71
14.0012	0.715
14.0345	0.731
14.0677	0.743
14.101	0.746
14.1343	0.747
14.1676	0.747
14.2009	0.747
14.2341	0.747
14.2674	0.746
14.3007	0.744
14.334	0.744
14.3673	0.744
14.4006	0.743
14.4338	0.743
14.4671	0.744
14.5004	0.742
14.5337	0.742
14.567	0.739
14.6002	0.736
14.6335	0.727
14.6668	0.67
14.7001	0.554
14.7334	0.529
14.7666	0.581
14.7999	0.642
14.8332	0.663
14.8665	0.672
14.8998	0.678
14.9331	0.671
14.9663	0.618
