Infrared Spectrum: N-[2-(2-CHLOROANILINO)-1,4-DIOXO-3-NAPHTHYL]-3-METHYLPYRIDINIUM PERCHLORATE
Formula: C22 H16 Cl2 N2 O6
CAS: 1920-81-6
State: SOLID (KBr PELLET)
Melting point: 242 C
Class: COBLENTZ
Instrument: Not specified, most likely a prism, grating, or hybrid spectrometer.
Sampling: TRANSMISSION
Resolution: 4
Origin: EASTMAN KODAK COMPANY, RESEARCH LABORATORIES, ROCHESTER, N.Y.
MICROMETERS	TRANSMITTANCE
2.013	0.546
2.05294	0.549
2.09289	0.55
2.13283	0.554
2.17277	0.557
2.21271	0.559
2.25266	0.562
2.2926	0.567
2.33254	0.57
2.37249	0.577
2.41243	0.578
2.45237	0.58
2.49231	0.58
2.53226	0.585
2.5722	0.59
2.61214	0.595
2.65209	0.613
2.69203	0.613
2.73197	0.575
2.77191	0.531
2.81186	0.506
2.8518	0.491
2.89174	0.49
2.93168	0.491
2.97163	0.503
3.01157	0.417
3.05151	0.338
3.09146	0.402
3.1314	0.462
3.17134	0.501
3.21128	0.45
3.25123	0.432
3.29117	0.527
3.33111	0.567
3.37106	0.582
3.411	0.575
3.45094	0.615
3.49088	0.625
3.53083	0.633
3.57077	0.649
3.61071	0.659
3.65066	0.667
3.6906	0.677
3.73054	0.68
3.77048	0.685
3.81043	0.694
3.85037	0.695
3.89031	0.702
3.93026	0.707
3.9702	0.718
4.01014	0.725
4.05008	0.731
4.09003	0.733
4.12997	0.741
4.16991	0.745
4.20985	0.75
4.2498	0.75
4.28974	0.75
4.32968	0.753
4.36963	0.759
4.40957	0.764
4.44951	0.771
4.48945	0.774
4.5294	0.777
4.56934	0.779
4.60928	0.782
4.64923	0.784
4.68917	0.789
4.72911	0.791
4.76905	0.791
4.809	0.792
4.84894	0.791
4.88888	0.782
4.92883	0.769
4.96877	0.763
5.00871	0.771
5.04865	0.777
5.0886	0.791
5.12854	0.792
5.16848	0.799
5.20843	0.802
5.24837	0.805
5.28831	0.807
5.32825	0.81
5.3682	0.815
5.40814	0.82
5.44808	0.822
5.48803	0.824
5.52797	0.824
5.56791	0.827
5.60785	0.828
5.6478	0.827
5.68774	0.825
5.72768	0.825
5.76762	0.815
5.80757	0.794
5.84751	0.753
5.88745	0.402
5.9274	0.361
5.96734	0.541
6.00728	0.582
6.04722	0.478
6.08717	0.294
6.12711	0.126
6.16705	0.087
6.207	0.141
6.24694	0.337
6.28688	0.289
6.32682	0.205
6.36677	0.18
6.40671	0.378
6.44665	0.537
6.4866	0.57
6.52654	0.554
6.56648	0.472
6.60642	0.282
6.64637	0.199
6.68631	0.19
6.72625	0.296
6.7662	0.332
6.80614	0.273
6.84608	0.355
6.88602	0.455
6.92597	0.46
6.96591	0.468
7.00585	0.613
7.04579	0.674
7.08574	0.731
7.12568	0.75
7.16562	0.746
7.20557	0.675
7.24551	0.662
7.28545	0.712
7.32539	0.712
7.36534	0.672
7.40528	0.46
7.44522	0.162
7.48517	0.128
7.52511	0.261
7.56505	0.391
7.60499	0.414
7.64494	0.376
7.68488	0.202
7.72482	0.116
7.76477	0.083
7.80471	0.19
7.84465	0.254
7.88459	0.314
7.92454	0.565
7.96448	0.616
8.00442	0.491
8.04437	0.404
8.08431	0.547
8.12425	0.699
8.16419	0.743
8.20414	0.764
8.24408	0.728
8.28402	0.633
8.32396	0.657
8.36391	0.7
8.40385	0.725
8.44379	0.743
8.48374	0.756
8.52368	0.761
8.56362	0.74
8.60356	0.672
8.64351	0.664
8.68345	0.671
8.72339	0.638
8.76334	0.559
8.80328	0.429
8.84322	0.391
8.88316	0.342
8.92311	0.241
8.96305	0.141
9.00299	0.078
9.04294	0.049
9.08288	0.044
9.12282	0.042
9.16276	0.041
9.20271	0.037
9.24265	0.037
9.28259	0.039
9.32254	0.06
9.36248	0.092
9.40242	0.134
9.44236	0.152
9.48231	0.266
9.52225	0.356
9.56219	0.417
9.60214	0.521
9.64208	0.582
9.68202	0.569
9.72196	0.544
9.76191	0.572
9.80185	0.605
9.84179	0.615
9.88173	0.62
9.92168	0.61
9.96162	0.615
10.0016	0.666
10.0415	0.723
10.0814	0.753
10.1214	0.764
10.1613	0.799
10.2013	0.814
10.2412	0.82
10.2812	0.822
10.3211	0.828
10.361	0.833
10.401	0.827
10.4409	0.802
10.4809	0.799
10.5208	0.792
10.5608	0.789
10.6007	0.787
10.6406	0.817
10.6806	0.817
10.7205	0.777
10.7605	0.702
10.8004	0.731
10.8404	0.809
10.8803	0.833
10.9202	0.728
10.9602	0.652
11.0001	0.731
11.0401	0.799
11.08	0.814
11.12	0.842
11.1599	0.863
11.1998	0.886
11.2398	0.904
11.2797	0.909
11.3197	0.912
11.3596	0.912
11.3996	0.912
11.4395	0.914
11.4794	0.919
11.5194	0.927
11.5593	0.932
11.5993	0.94
11.6392	0.942
11.6792	0.944
11.7191	0.945
11.759	0.947
11.799	0.95
11.8389	0.953
11.8789	0.957
11.9188	0.958
11.9588	0.96
11.9987	0.958
12.0386	0.939
12.0786	0.914
12.1185	0.902
12.1585	0.906
12.1984	0.912
12.2384	0.904
12.2783	0.848
12.3182	0.728
12.3582	0.661
12.3981	0.69
12.4381	0.723
12.478	0.695
12.518	0.652
12.5579	0.652
12.5978	0.684
12.6378	0.738
12.6777	0.802
12.7177	0.842
12.7576	0.843
12.7976	0.817
12.8375	0.72
12.8774	0.598
12.9174	0.496
12.9573	0.47
12.9973	0.509
13.0372	0.572
13.0772	0.615
13.1171	0.682
13.157	0.743
13.197	0.796
13.2369	0.832
13.2769	0.848
13.3168	0.851
13.3568	0.848
13.3967	0.832
13.4366	0.804
13.4766	0.802
13.5165	0.802
13.5565	0.802
13.5964	0.782
13.6364	0.675
13.6763	0.457
13.7162	0.389
13.7562	0.386
13.7961	0.388
13.8361	0.444
13.876	0.542
13.916	0.657
13.9559	0.712
13.9958	0.626
14.0358	0.498
14.0757	0.537
14.1157	0.674
14.1556	0.768
14.1956	0.799
14.2355	0.799
14.2754	0.792
14.3154	0.769
14.3553	0.694
14.3953	0.626
14.4352	0.587
14.4752	0.574
14.5151	0.527
14.555	0.473
14.595	0.435
14.6349	0.398
14.6749	0.389
14.7148	0.427
14.7548	0.506
14.7947	0.583
14.8346	0.671
14.8746	0.713
14.9145	0.738
14.9545	0.741
14.9944	0.743
15.0344	0.766
15.0743	0.796
15.1142	0.81
15.1542	0.812
15.1941	0.81
15.2341	0.805
15.274	0.797
15.314	0.792
15.3539	0.791
15.3938	0.792
15.4338	0.8
15.4737	0.802
15.5137	0.804
15.5536	0.802
15.5936	0.802
15.6335	0.796
15.6734	0.791
15.7134	0.784
15.7533	0.773
15.7933	0.763
15.8332	0.74
15.8732	0.725
15.9131	0.72
15.953	0.702
15.993	0.689
