Infrared Spectrum: N-Carboethoxyimidazole
Formula: C 6 H 8 N 2 O 2
CAS: 19213-72-0
State: gas
Origin: EPA-IR VAPOR PHASE LIBRARY
1/CM	ABSORBANCE
549.8	0.0005401
559.445	8.4e-05
569.09	0.0006848
578.735	0.0005346
588.38	0.0007955
598.025	0.0006641
607.67	0.0006772
617.315	0.0005844
626.96	0.0005555
636.605	0.001307
646.251	0.001847
655.896	0.001407
665.541	0.0007825
675.186	0.0006655
684.831	0.0005671
694.476	0.0005085
704.121	0.0007434
713.766	0.0008111
723.411	0.001447
733.056	0.002317
742.701	0.002397
752.346	0.001887
761.991	0.001857
771.636	0.002447
781.281	0.002187
790.926	0.001697
800.571	0.0011312
810.216	0.001437
819.861	0.002107
829.507	0.002287
839.152	0.001807
848.797	0.001297
858.442	0.0010413
868.087	0.0011023
877.732	0.0008803
887.377	0.0010564
897.022	0.0010304
906.667	0.0008844
916.312	0.0006982
925.957	0.0005854
935.602	0.0007662
945.247	0.0007907
954.892	0.0008627
964.537	0.0009945
974.182	0.001707
983.827	0.004567
993.472	0.006457
1003.12	0.006047
1012.76	0.008007
1022.41	0.010377
1032.05	0.007807
1041.7	0.003237
1051.34	0.002067
1060.99	0.001617
1070.63	0.001517
1080.28	0.002017
1089.92	0.004377
1099.57	0.004237
1109.21	0.001857
1118.86	0.0012242
1128.5	0.001287
1138.15	0.002117
1147.79	0.004747
1157.44	0.007987
1167.08	0.009117
1176.73	0.007507
1186.37	0.004497
1196.02	0.002727
1205.66	0.001737
1215.31	0.002107
1224.95	0.005797
1234.6	0.017147
1244.24	0.018037
1253.89	0.006197
1263.53	0.003397
1273.18	0.010897
1282.82	0.021887
1292.47	0.022637
1302.11	0.017507
1311.76	0.014887
1321.4	0.007817
1331.05	0.002507
1340.69	0.001527
1350.34	0.001847
1359.98	0.003117
1369.63	0.005117
1379.27	0.011717
1388.92	0.016067
1398.56	0.012727
1408.21	0.008977
1417.85	0.004937
1427.5	0.002907
1437.14	0.002657
1446.79	0.003227
1456.43	0.004547
1466.08	0.005697
1475.73	0.006277
1485.37	0.006587
1495.02	0.004467
1504.66	0.002027
1514.31	0.001477
1523.95	0.001497
1533.6	0.001277
1543.24	0.0009062
1552.89	0.0008712
1562.53	0.0008884
1572.18	0.0008581
1581.82	0.0007978
1591.47	0.0010159
1601.11	0.0011994
1610.76	0.0011205
1620.4	0.000917
1630.05	0.0008294
1639.69	0.0009382
1649.34	0.0010221
1658.98	0.0008523
1668.63	0.0009214
1678.27	0.0009903
1687.92	0.0011098
1697.56	0.0011366
1707.21	0.0010899
1716.85	0.0010771
1726.5	0.001467
1736.14	0.001697
1745.79	0.002587
1755.43	0.005447
1765.08	0.013317
1774.72	0.022547
1784.37	0.022247
1794.01	0.009517
1803.66	0.003107
1813.3	0.001467
1822.95	0.0010209
1832.59	0.0008849
1842.24	0.0008692
1851.88	0.0008209
1861.53	0.0007896
1871.17	0.0007119
1880.82	0.000612
1890.46	0.0005661
1900.11	0.0005766
1909.75	0.0005739
1919.4	0.0005392
1929.04	0.0005866
1938.69	0.0005456
1948.33	0.0005052
1957.98	0.000511
1967.62	0.0004599
1977.27	0.000518
1986.91	0.0004913
1996.56	0.0005044
2006.2	0.0004996
2015.85	0.0004981
2025.49	0.0004769
2035.14	0.0005107
2044.78	0.0004668
2054.43	0.0004986
2064.07	0.0004532
2073.72	0.0004983
2083.36	0.000509
2093.01	0.0004567
2102.65	0.000517
2112.3	0.0004821
2121.94	0.0004705
2131.59	0.0004726
2141.23	0.0004499
2150.88	0.0004825
2160.52	0.0004559
2170.17	0.0004288
2179.81	0.0004696
2189.46	0.00036795
2199.1	0.0004428
2208.75	0.0003897
2218.39	0.0004772
2228.04	0.0004321
2237.68	0.0004647
2247.33	0.0004413
2256.97	0.0004647
2266.62	0.0004289
2276.26	0.000465
2285.91	0.0004377
2295.55	0.0004958
2305.2	0.0005172
2314.84	0.0005346
2324.49	0.0004503
2334.13	0.0004617
2343.78	0.0005165
2353.42	0.0004631
2363.07	0.0005481
2372.72	0.0005217
2382.36	0.000421
2392.01	0.000415
2401.65	0.0004161
2411.3	0.0004836
2420.94	0.0004154
2430.59	0.000434
2440.23	0.0003945
2449.88	0.0004058
2459.52	0.0005232
2469.17	0.0004518
2478.81	0.0004578
2488.46	0.0004408
2498.1	0.0004526
2507.75	0.0004255
2517.39	0.0004484
2527.04	0.0003779
2536.68	0.0004691
2546.33	0.0004731
2555.97	0.0004414
2565.62	0.0004741
2575.26	0.0006562
2584.91	0.0005301
2594.55	0.0005239
2604.2	0.0004459
2613.84	0.000467
2623.49	0.0003919
2633.13	0.00030633
2642.78	0.0004493
2652.42	0.0004251
2662.07	0.0004398
2671.71	0.0004273
2681.36	0.0004284
2691	0.0004175
2700.65	0.00033996
2710.29	0.00036306
2719.94	0.0004755
2729.58	0.00033522
2739.23	0.0004144
2748.87	0.000434
2758.52	0.0004108
2768.16	0.0005041
2777.81	0.0004111
2787.45	0.00034612
2797.1	0.0003933
2806.74	0.0003794
2816.39	0.00036995
2826.03	0.0004928
2835.68	0.0004357
2845.32	0.0004502
2854.97	0.0005298
2864.61	0.0004917
2874.26	0.000572
2883.9	0.0006137
2893.55	0.0007523
2903.19	0.0007468
2912.84	0.0008705
2922.48	0.0009369
2932.13	0.001002
2941.77	0.001317
2951.42	0.001497
2961.06	0.001307
2970.71	0.001507
2980.35	0.002197
2990	0.002797
2999.64	0.002417
3009.29	0.001727
3018.93	0.0012076
3028.58	0.00078
3038.22	0.0005748
3047.87	0.0005293
3057.51	0.0005254
3067.16	0.0003807
3076.8	0.0004514
3086.45	0.0004277
3096.09	0.00036739
3105.74	0.00033742
3115.38	0.0004746
3125.03	0.000676
3134.67	0.00071
3144.32	0.0005534
3153.96	0.0005269
3163.61	0.0006057
3173.25	0.0006084
3182.9	0.0004524
3192.54	0.00029225
3202.19	0.0001982
3211.83	0.000242
3221.48	0.000384
3231.12	0.0002524
3240.77	0.0004191
3250.41	0.00030803
3260.06	0.0003065
3269.7	0.00028709
3279.35	0.000147
3289	0.00036852
3298.64	0.00041
3308.29	0.00030702
3317.93	0.00034464
3327.58	0.00028973
3337.22	0.000165
3346.87	0.00032514
3356.51	0.00033039
3366.16	0.0003924
3375.8	0.000451
3385.45	0.0002659
3395.09	0.00036966
3404.74	0.0003899
3414.38	0.00036507
3424.03	0.00030662
3433.67	0.0004854
3443.32	0.0004083
3452.96	0.0002667
3462.61	0.00030507
3472.25	0.000285112
3481.9	0.0001786
3491.54	0.0003137
3501.19	0.0004087
3510.83	0.0005111
3520.48	0.00036555
3530.12	0.0005396
3539.77	0.0005467
3549.41	0.0004512
3559.06	0.0004158
3568.7	0.0003895
3578.35	0.0003834
3587.99	8.3e-05
3597.64	0.000285489
3607.28	0.0003839
3616.93	0.00035263
3626.57	0.000146
3636.22	0.0004976
3645.86	0.00034209
3655.51	0.000141
3665.15	0.00035868
3674.8	0.0002615
3684.44	0.0005121
3694.09	0.0003298
3703.73	0.0002499
3713.38	0.000466
3723.02	0.0002117
3732.67	0.00031325
3742.31	0.000281621
3751.96	0.00034068
3761.6	0.0003987
3771.25	0.0004849
3780.89	0.00031721
3790.54	0.0002444
3800.18	0.0002074
3809.83	0.00027926
3819.47	0.000286899
3829.12	8e-05
3838.76	0.00029797
3848.41	0.00029254
3858.05	0.0002039
3867.7	0.00029693
3877.34	0.000431
3886.99	0.00036691
3896.63	0.00028912
3906.28	0.0004031
3915.92	0.0003892
3925.57	0.0001837
3935.21	0.0003182
3944.86	0.00034629
3954.5	0.0004482
3964.15	0.0003831
3973.79	0.000339
3983.44	0.0004392
3993.08	0.00033133
