Infrared Spectrum: Propylene glycol dibenzoate
Formula: C17 H16 O4
CAS: 19224-26-1
State: SOLUTION (0% CCl4 FOR 2.7-7.5, 10% CS2 FOR 7.5-26 MICRON) VS SOLVENT
Class: COBLENTZ III
Instrument: DOW KBr FOREPRISM-GRATING
Instrument parameters: BLAZED AT 3.5, 12.0, 20.0 MICRON AND CHANGED AT 5.0, 7.5, 14.9 MICRON
Sampling: TRANSMISSION
Path length: 0.011 CM, 0.011 CM
Resolution: 2
Origin: DOW CHEMICAL COMPANY
1/CM	TRANSMITTANCE
3800	0.8597
3791	0.8584
3782	0.8577
3773	0.8574
3764	0.8578
3755	0.8582
3746	0.8588
3737	0.8597
3728	0.8605
3719	0.8611
3710	0.8612
3701	0.8612
3692	0.861
3683	0.8608
3674	0.8604
3665	0.8599
3656	0.8594
3647	0.8591
3638	0.8595
3629	0.8593
3620	0.8551
3611	0.85
3602	0.8518
3593	0.8535
3584	0.855
3575	0.8552
3566	0.8528
3557	0.8491
3548	0.8446
3539	0.8403
3530	0.8393
3521	0.8421
3512	0.846
3503	0.8496
3494	0.8535
3485	0.8575
3476	0.8613
3467	0.8652
3458	0.8665
3449	0.8611
3440	0.8494
3431	0.839
3422	0.8363
3413	0.8467
3404	0.8593
3395	0.8705
3386	0.8775
3377	0.8809
3368	0.8828
3359	0.8838
3350	0.884
3341	0.8828
3332	0.8796
3323	0.8767
3314	0.8778
3305	0.8793
3296	0.881
3287	0.8832
3278	0.8841
3269	0.8849
3260	0.8851
3251	0.8851
3242	0.8845
3233	0.8838
3224	0.8828
3215	0.8815
3206	0.8784
3197	0.8774
3188	0.8773
3179	0.8737
3170	0.8682
3161	0.8668
3152	0.8681
3143	0.8689
3134	0.8687
3125	0.8645
3116	0.8502
3107	0.8223
3098	0.7644
3089	0.7334
3080	0.6593
3071	0.5958
3062	0.6661
3053	0.7535
3044	0.7236
3035	0.7069
3026	0.7957
3017	0.7758
3008	0.7238
2999	0.5777
2990	0.5109
2981	0.5746
2972	0.6283
2963	0.6355
2954	0.6155
2945	0.6164
2936	0.653
2927	0.7524
2918	0.7685
2909	0.7641
2900	0.7541
2891	0.7444
2882	0.7369
2873	0.746
2864	0.7662
2855	0.7911
2846	0.8089
2837	0.8217
2828	0.8315
2819	0.8407
2810	0.8496
2801	0.8567
2792	0.8605
2783	0.8591
2774	0.8563
2765	0.8559
2756	0.8568
2747	0.8592
2738	0.8615
2729	0.864
2720	0.8663
2711	0.8681
2702	0.8686
2693	0.869
2684	0.8695
2675	0.8696
2666	0.8697
2657	0.8694
2648	0.8688
2639	0.8683
2630	0.868
2621	0.8668
2612	0.8639
2603	0.8605
2594	0.8599
2585	0.8597
2576	0.8595
2567	0.8594
2558	0.8595
2549	0.8597
2540	0.8601
2531	0.8621
2522	0.8663
2513	0.8692
2504	0.8716
2495	0.8733
2486	0.875
2477	0.8757
2468	0.8764
2459	0.877
2450	0.8775
2441	0.8777
2432	0.8775
2423	0.8771
2414	0.8759
2405	0.8717
2396	0.8654
2387	0.8621
2378	0.8635
2369	0.8652
2360	0.8667
2351	0.8677
2342	0.8683
2333	0.8685
2324	0.8689
2315	0.8723
2306	0.8757
2297	0.8754
2288	0.8728
2279	0.8709
2270	0.8723
2261	0.8715
2252	0.8709
2243	0.8723
2234	0.8741
2225	0.8761
2216	0.878
2207	0.8784
2198	0.8791
2189	0.8839
2180	0.8941
2171	0.8838
2162	0.8837
2153	0.883
2144	0.8774
2135	0.8723
2126	0.8692
2117	0.868
2108	0.8684
2099	0.8689
2090	0.8695
2081	0.8708
2072	0.8727
2063	0.8745
2054	0.8756
2045	0.8766
2036	0.8775
2027	0.8773
2018	0.877
2009	0.8767
2000	0.8763
1991	0.8621
1982	0.8568
1973	0.8311
1964	0.8141
1955	0.7908
1946	0.842
1937	0.8489
1928	0.8463
1919	0.8081
1910	0.8115
1901	0.8118
1892	0.8539
1883	0.8621
1874	0.8658
1865	0.8683
1856	0.8681
1847	0.8664
1838	0.8585
1829	0.8387
1820	0.8071
1811	0.7688
1802	0.8033
1793	0.7998
1784	0.7603
1775	0.7298
1766	0.7312
1757	0.7168
1748	0.6544
1739	0.1475
1730	0.0035
1721	0
1712	0.0067
1703	0.2607
1694	0.4839
1685	0.5645
1676	0.6564
1667	0.7408
1658	0.7645
1649	0.7553
1640	0.7537
1631	0.8001
1622	0.7776
1613	0.7404
1604	0.372
1595	0.7096
1586	0.5155
1577	0.7406
1568	0.7958
1559	0.7984
1550	0.8011
1541	0.8153
1532	0.8185
1523	0.8211
1514	0.8108
1505	0.81
1496	0.5779
1487	0.7661
1478	0.759
1469	0.609
1460	0.3747
1451	0.2701
1442	0.6598
1433	0.7291
1424	0.7486
1415	0.7399
1406	0.7221
1397	0.457
1388	0.5274
1379	0.4972
1370	0.5501
1361	0.5404
1352	0.5241
1343	0.5471
1334	0.5522
1325	0.4348
1316	0.0876
1307	0.3678
1298	0.3184
1289	0.1092
1280	0.0024
1271	0.0001
1262	0.0001
1253	0.0178
1244	0.0376
1235	0.3245
1226	0.5231
1217	0.6286
1208	0.6651
1199	0.6893
1190	0.6914
1181	0.3939
1172	0.3304
1163	0.395
1154	0.4155
1145	0.4431
1136	0.408
1127	0.2769
1118	0.0583
1109	0.0194
1100	0.0306
1091	0.0297
1082	0.1386
1073	0.2079
1064	0.2122
1055	0.5512
1046	0.6391
1037	0.6835
1028	0.0766
1019	0.5771
1010	0.7188
1001	0.7081
992	0.6335
983	0.6518
974	0.715
965	0.6843
956	0.7511
947	0.7512
938	0.6604
929	0.6874
920	0.704
911	0.7245
902	0.7642
893	0.7833
884	0.7865
875	0.7518
866	0.7384
857	0.7325
848	0.6265
839	0.7422
830	0.7621
821	0.7693
812	0.7717
803	0.7117
794	0.7685
785	0.8051
776	0.8094
767	0.8099
758	0.8028
749	0.786
740	0.7761
731	0.7392
722	0.5748
713	0.0001
704	0.0739
695	0.5536
686	0.2732
677	0.5814
668	0.6278
659	0.7817
650	0.7915
641	0.7975
632	0.7994
623	0.8047
614	0.7864
605	0.7954
596	0.8085
587	0.8142
578	0.816
569	0.8161
560	0.811
551	0.7978
542	0.8001
533	0.7991
524	0.7945
515	0.7901
506	0.7865
497	0.7784
488	0.7581
479	0.7324
470	0.7204
461	0.7205
452	0.7214
443	0.7235
434	0.7256
425	0.7267
416	0.7272
407	0.7281
398	0.7292
