Infrared Spectrum: 2,6-Bis(chloromethyl)-p-tolyl acetate
Formula: C 11 H 12 Cl 2 O 2
CAS: 19228-70-7
State: gas
Origin: EPA-IR VAPOR PHASE LIBRARY
1/CM	ABSORBANCE
551.7	0.00916
563.274	0.01049
574.848	0.01239
586.421	0.01213
597.995	0.01092
609.569	0.00729
621.143	0.0079
632.717	0.01194
644.291	0.00958
655.864	0.00669
667.438	0.00711
679.012	0.01496
690.586	0.02771
702.16	0.01977
713.734	0.01264
725.307	0.01398
736.881	0.02052
748.455	0.02032
760.029	0.01365
771.603	0.00922
783.177	0.0069
794.75	0.00811
806.324	0.00992
817.898	0.00617
829.472	0.0046
841.046	0.00516
852.619	0.00994
864.193	0.01565
875.767	0.01857
887.341	0.02132
898.915	0.02057
910.489	0.02282
922.062	0.01245
933.636	0.00622
945.21	0.00478
956.784	0.00501
968.358	0.0073
979.932	0.01007
991.505	0.01284
1003.08	0.02412
1014.65	0.02157
1026.23	0.00979
1037.8	0.00823
1049.37	0.00999
1060.95	0.01078
1072.52	0.01325
1084.1	0.01256
1095.67	0.01205
1107.24	0.01576
1118.82	0.03246
1130.39	0.05588
1141.97	0.03875
1153.54	0.05278
1165.11	0.09386
1176.69	0.16962
1188.26	0.26701
1199.83	0.14564
1211.41	0.06317
1222.98	0.03482
1234.56	0.02258
1246.13	0.02439
1257.7	0.03887
1269.28	0.0492
1280.85	0.02392
1292.42	0.0129
1304	0.01087
1315.57	0.00868
1327.15	0.0061
1338.72	0.00611
1350.29	0.00999
1361.87	0.02622
1373.44	0.04869
1385.02	0.02328
1396.59	0.01036
1408.16	0.00838
1419.74	0.00955
1431.31	0.01345
1442.88	0.02
1454.46	0.02559
1466.03	0.0355
1477.61	0.03715
1489.18	0.01882
1500.75	0.00995
1512.33	0.0074
1523.9	0.00637
1535.48	0.00551
1547.05	0.00472
1558.62	0.0042
1570.2	0.00385
1581.77	0.00394
1593.34	0.00534
1604.92	0.00751
1616.49	0.00591
1628.07	0.00392
1639.64	0.00341
1651.21	0.00316
1662.79	0.00313
1674.36	0.00335
1685.93	0.00383
1697.51	0.00453
1709.08	0.00579
1720.66	0.00715
1732.23	0.00867
1743.8	0.01059
1755.38	0.0143
1766.95	0.03433
1778.53	0.09004
1790.1	0.08432
1801.67	0.04008
1813.25	0.01828
1824.82	0.01046
1836.39	0.00709
1847.97	0.00568
1859.54	0.00459
1871.12	0.00353
1882.69	0.00298
1894.26	0.00271
1905.84	0.00257
1917.41	0.00254
1928.99	0.00257
1940.56	0.00242
1952.13	0.00222
1963.71	0.00202
1975.28	0.00193
1986.85	0.00206
1998.43	0.00214
2010	0.00199
2021.58	0.0018
2033.15	0.0017
2044.72	0.00171
2056.3	0.00188
2067.87	0.00197
2079.44	0.00181
2091.02	0.00157
2102.59	0.0014
2114.17	0.00128
2125.74	0.00116
2137.31	0.00104
2148.89	0.0009702
2160.46	0.0009942
2172.04	0.0009627
2183.61	0.0009666
2195.18	0.0009258
2206.76	0.0008912
2218.33	0.0008476
2229.9	0.0008525
2241.48	0.0009109
2253.05	0.0009892
2264.63	0.00106
2276.2	0.00117
2287.77	0.00111
2299.35	0.00105
2310.92	0.00106
2322.5	0.00112
2334.07	0.00117
2345.64	0.00127
2357.22	0.00134
2368.79	0.00131
2380.36	0.00131
2391.94	0.00129
2403.51	0.00133
2415.09	0.00126
2426.66	0.00112
2438.23	0.00107
2449.81	0.001
2461.38	0.0009661
2472.96	0.0008993
2484.53	0.0009578
2496.1	0.0009283
2507.68	0.0009318
2519.25	0.0009396
2530.82	0.0008112
2542.4	0.0008378
2553.97	0.0008136
2565.55	0.0007876
2577.12	0.0008099
2588.69	0.0007657
2600.27	0.0007538
2611.84	0.0007657
2623.41	0.0006734
2634.99	0.0006858
2646.56	0.0007187
2658.14	0.0007064
2669.71	0.0007667
2681.28	0.0007995
2692.86	0.0009312
2704.43	0.00123
2716.01	0.00129
2727.58	0.00117
2739.15	0.00126
2750.73	0.00148
2762.3	0.00106
2773.87	0.0009269
2785.45	0.0009574
2797.02	0.00103
2808.6	0.00114
2820.17	0.00136
2831.74	0.00171
2843.32	0.00241
2854.89	0.00368
2866.47	0.00614
2878.04	0.00831
2889.61	0.00663
2901.19	0.00606
2912.76	0.00761
2924.33	0.01248
2935.91	0.01687
2947.48	0.01273
2959.06	0.01037
2970.63	0.01181
2982.2	0.01446
2993.78	0.01058
3005.35	0.00973
3016.92	0.01221
3028.5	0.01347
3040.07	0.01066
3051.65	0.00726
3063.22	0.00504
3074.79	0.00387
3086.37	0.00302
3097.94	0.00227
3109.52	0.00171
3121.09	0.0014
3132.66	0.00116
3144.24	0.00105
3155.81	0.0009427
3167.38	0.0008992
3178.96	0.0008245
3190.53	0.0007549
3202.11	0.0008503
3213.68	0.0007529
3225.25	0.0006898
3236.83	0.0006476
3248.4	0.0005806
3259.98	0.0006483
3271.55	0.0006514
3283.12	0.0006375
3294.7	0.0006135
3306.27	0.0005738
3317.84	0.0006156
3329.42	0.000629
3340.99	0.0006431
3352.57	0.0006434
3364.14	0.0005823
3375.71	0.0005638
3387.29	0.0006524
3398.86	0.0006354
3410.43	0.0005465
3422.01	0.0006654
3433.58	0.0006372
3445.16	0.0006287
3456.73	0.0007047
3468.3	0.0006855
3479.88	0.0008011
3491.45	0.0008005
3503.03	0.0008915
3514.6	0.0008866
3526.17	0.00117
3537.75	0.00159
3549.32	0.00169
3560.89	0.0015
3572.47	0.00122
3584.04	0.00102
3595.62	0.000863
3607.19	0.000861
3618.76	0.0007405
3630.34	0.0007501
3641.91	0.0006565
3653.49	0.0007272
3665.06	0.0007017
3676.63	0.0007446
3688.21	0.0006825
3699.78	0.0006678
3711.35	0.0006447
3722.93	0.000663
3734.5	0.0006296
3746.08	0.0005917
3757.65	0.000714
3769.22	0.0006786
3780.8	0.0006159
3792.37	0.0006851
3803.94	0.0006057
3815.52	0.0005772
3827.09	0.0006739
3838.67	0.0006066
3850.24	0.0006931
3861.81	0.0006781
3873.39	0.0007659
3884.96	0.0007043
3896.54	0.0007313
3908.11	0.0007783
3919.68	0.0008731
3931.26	0.0008291
3942.83	0.0008334
3954.4	0.0008063
3965.98	0.0008394
3977.55	0.0008357
3989.13	0.0008117
4000.7	0.0008583
