Infrared Spectrum: 1,4-BUTANEDIOL, DIBENZOATE
Formula: C18 H18 O4
CAS: 19224-27-2
State: SOLID (NUJOL MULL)
Class: COBLENTZ
Instrument: Not specified, most likely a prism, grating, or hybrid spectrometer.
Sampling: TRANSMISSION
Resolution: 4
Origin: TENNESSEE EASTMAN COMPANY, RESEARCH LABORATORIES
MICROMETERS	TRANSMITTANCE
2.014	0.412
2.05291	0.412
2.09182	0.41
2.13074	0.41
2.16965	0.41
2.20856	0.41
2.24747	0.409
2.28639	0.402
2.3253	0.402
2.36421	0.404
2.40312	0.404
2.44203	0.405
2.48095	0.405
2.51986	0.409
2.55877	0.41
2.59768	0.415
2.6366	0.418
2.67551	0.422
2.71442	0.423
2.75333	0.425
2.79225	0.426
2.83116	0.426
2.87007	0.426
2.90898	0.426
2.94789	0.425
2.98681	0.426
3.02572	0.425
3.06463	0.425
3.10354	0.425
3.14246	0.423
3.18137	0.423
3.22028	0.42
3.25919	0.389
3.2981	0.345
3.33702	0.254
3.37593	0.084
3.41484	0.074
3.45375	0.099
3.49267	0.125
3.53158	0.495
3.57049	0.542
3.6094	0.553
3.64832	0.553
3.68723	0.55
3.72614	0.55
3.76505	0.551
3.80396	0.551
3.84288	0.553
3.88179	0.555
3.9207	0.568
3.95961	0.577
3.99853	0.587
4.03744	0.597
4.07635	0.6
4.11526	0.603
4.15417	0.603
4.19309	0.603
4.232	0.613
4.27091	0.625
4.30982	0.633
4.34874	0.634
4.38765	0.636
4.42656	0.636
4.46547	0.637
4.50439	0.644
4.5433	0.65
4.58221	0.657
4.62112	0.663
4.66003	0.668
4.69895	0.672
4.73786	0.678
4.77677	0.683
4.81568	0.688
4.8546	0.691
4.89351	0.701
4.93242	0.702
4.97133	0.709
5.01024	0.711
5.04916	0.711
5.08807	0.706
5.12698	0.732
5.16589	0.732
5.20481	0.741
5.24372	0.732
5.28263	0.764
5.32154	0.777
5.36046	0.788
5.39937	0.8
5.43828	0.801
5.47719	0.805
5.5161	0.792
5.55502	0.801
5.59393	0.801
5.63284	0.819
5.67175	0.842
5.71067	0.827
5.74958	0.662
5.78849	0.313
5.8274	0.136
5.86631	0.1
5.90523	0.245
5.94414	0.297
5.98305	0.383
6.02196	0.435
6.06088	0.482
6.09979	0.534
6.1387	0.577
6.17761	0.615
6.21653	0.603
6.25544	0.488
6.29435	0.607
6.33326	0.524
6.37217	0.641
6.41109	0.657
6.45	0.691
6.48891	0.701
6.52782	0.707
6.56674	0.722
6.60565	0.748
6.64456	0.753
6.68347	0.691
6.72238	0.542
6.7613	0.431
6.80021	0.306
6.83912	0.303
6.87803	0.22
6.91695	0.379
6.95586	0.59
6.99477	0.698
7.03368	0.745
7.0726	0.764
7.11151	0.694
7.15042	0.612
7.18933	0.566
7.22824	0.469
7.26716	0.436
7.30607	0.478
7.34498	0.456
7.38389	0.628
7.42281	0.647
7.46172	0.615
7.50063	0.543
7.53954	0.439
7.57845	0.331
7.61737	0.204
7.65628	0.365
7.69519	0.212
7.7341	0.146
7.77302	0.139
7.81193	0.139
7.85084	0.118
7.88975	0.112
7.92867	0.165
7.96758	0.22
8.00649	0.22
8.0454	0.227
8.08431	0.277
8.12323	0.308
8.16214	0.352
8.20105	0.387
8.23996	0.417
8.27888	0.477
8.31779	0.532
8.3567	0.586
8.39561	0.629
8.43452	0.55
8.47344	0.426
8.51235	0.454
8.55126	0.488
8.59017	0.524
8.62909	0.509
8.668	0.493
8.70691	0.535
8.74582	0.592
8.78474	0.472
8.82365	0.274
8.86256	0.207
8.90147	0.198
8.94038	0.251
8.9793	0.303
9.01821	0.347
9.05712	0.353
9.09603	0.355
9.13495	0.362
9.17386	0.413
9.21277	0.478
9.25168	0.532
9.29059	0.558
9.32951	0.4
9.36842	0.373
9.40733	0.396
9.44624	0.459
9.48516	0.495
9.52407	0.524
9.56298	0.558
9.60189	0.563
9.64081	0.482
9.67972	0.43
9.71863	0.352
9.75754	0.37
9.79645	0.457
9.83537	0.517
9.87428	0.534
9.91319	0.563
9.9521	0.576
9.99102	0.589
10.0299	0.595
10.0688	0.605
10.1078	0.615
10.1467	0.615
10.1856	0.612
10.2245	0.566
10.2634	0.49
10.3023	0.41
10.3412	0.396
10.3801	0.483
10.4191	0.53
10.458	0.556
10.4969	0.577
10.5358	0.579
10.5747	0.555
10.6136	0.503
10.6525	0.512
10.6914	0.516
10.7303	0.53
10.7693	0.597
10.8082	0.634
10.8471	0.647
10.886	0.654
10.9249	0.657
10.9638	0.66
11.0027	0.654
11.0416	0.642
11.0806	0.649
11.1195	0.665
11.1584	0.676
11.1973	0.685
11.2362	0.688
11.2751	0.691
11.314	0.696
11.3529	0.698
11.3919	0.702
11.4308	0.702
11.4697	0.702
11.5086	0.704
11.5475	0.693
11.5864	0.65
11.6253	0.659
11.6642	0.683
11.7032	0.686
11.7421	0.625
11.781	0.595
11.8199	0.612
11.8588	0.655
11.8977	0.678
11.9366	0.689
11.9755	0.699
12.0145	0.702
12.0534	0.701
12.0923	0.676
12.1312	0.678
12.1701	0.693
12.209	0.701
12.2479	0.704
12.2868	0.704
12.3258	0.702
12.3647	0.654
12.4036	0.657
12.4425	0.685
12.4814	0.693
12.5203	0.694
12.5592	0.696
12.5981	0.696
12.637	0.696
12.676	0.696
12.7149	0.696
12.7538	0.696
12.7927	0.696
12.8316	0.696
12.8705	0.696
12.9094	0.696
12.9483	0.693
12.9873	0.693
13.0262	0.688
13.0651	0.685
13.104	0.678
13.1429	0.673
13.1818	0.668
13.2207	0.662
13.2596	0.655
13.2986	0.65
13.3375	0.646
13.3764	0.636
13.4153	0.631
13.4542	0.62
13.4931	0.605
13.532	0.59
13.5709	0.576
13.6099	0.561
13.6488	0.547
13.6877	0.529
13.7266	0.511
13.7655	0.487
13.8044	0.457
13.8433	0.428
13.8822	0.387
13.9212	0.35
13.9601	0.295
13.999	0.209
14.0379	0.159
14.0768	0.121
14.1157	0.112
14.1546	0.121
14.1935	0.154
14.2325	0.209
14.2714	0.259
14.3103	0.297
14.3492	0.34
14.3881	0.375
14.427	0.415
14.4659	0.449
14.5048	0.47
14.5438	0.47
14.5827	0.461
14.6216	0.433
14.6605	0.43
14.6994	0.436
14.7383	0.446
14.7772	0.444
14.8161	0.426
14.855	0.42
14.894	0.423
14.9329	0.446
14.9718	0.477
15.0107	0.506
15.0496	0.517
15.0885	0.517
15.1274	0.519
15.1663	0.519
15.2053	0.519
15.2442	0.521
15.2831	0.522
15.322	0.522
15.3609	0.524
15.3998	0.525
15.4387	0.527
15.4776	0.529
15.5166	0.529
15.5555	0.53
15.5944	0.532
15.6333	0.535
15.6722	0.537
15.7111	0.538
15.75	0.54
15.7889	0.543
