Infrared Spectrum: 2,6-Dichloroiodobenzene
Formula: C 6 H 3 Cl 2 I
CAS: 19230-28-5
State: gas
Origin: EPA-IR VAPOR PHASE LIBRARY
1/CM	ABSORBANCE
549.8	0.0006157
559.445	0.0002299
569.09	0.000154
578.734	0.0007756
588.379	0.0004567
598.024	0.00034557
607.669	0.0010063
617.313	0.001435
626.958	0.001565
636.603	0.0011874
646.248	0.000819
655.893	0.0010551
665.537	0.0012606
675.182	0.003845
684.827	0.013475
694.472	0.014995
704.116	0.005965
713.761	0.003545
723.406	0.003245
733.051	0.003835
742.695	0.005545
752.34	0.010275
761.985	0.042325
771.63	0.151405
781.275	0.164715
790.919	0.084795
800.564	0.007375
810.209	0.002985
819.854	0.002755
829.498	0.002115
839.143	0.001845
848.788	0.0011723
858.433	0.0011058
868.078	0.001212
877.722	0.002135
887.367	0.001825
897.012	0.0013233
906.657	0.0009309
916.301	0.0008569
925.946	0.0009595
935.591	0.0010861
945.236	0.001425
954.88	0.002935
964.525	0.004575
974.17	0.003595
983.815	0.001945
993.46	0.002855
1003.1	0.008265
1012.75	0.022375
1022.39	0.016335
1032.04	0.002145
1041.68	0.0011682
1051.33	0.0010087
1060.97	0.0011488
1070.62	0.001625
1080.26	0.003035
1089.91	0.001775
1099.55	0.0006357
1109.2	0.001645
1118.84	0.006115
1128.49	0.013665
1138.13	0.015075
1147.78	0.021275
1157.42	0.023695
1167.07	0.015925
1176.71	0.026425
1186.36	0.042715
1196	0.014805
1205.64	0.004105
1215.29	0.003105
1224.93	0.003545
1234.58	0.006905
1244.22	0.007805
1253.87	0.003195
1263.51	0.0011373
1273.16	0.000507
1282.8	0.0007284
1292.45	0.0009759
1302.09	0.001132
1311.74	0.0010077
1321.38	0.0006227
1331.03	0.0006576
1340.67	0.0007345
1350.32	0.001495
1359.96	0.003965
1369.61	0.009565
1379.25	0.017565
1388.9	0.035505
1398.54	0.036995
1408.18	0.027375
1417.83	0.078175
1427.47	0.122355
1437.12	0.042175
1446.76	0.004515
1456.41	0.003655
1466.05	0.004885
1475.7	0.006825
1485.34	0.006295
1494.99	0.004235
1504.63	0.003095
1514.28	0.002055
1523.92	0.002665
1533.57	0.006635
1543.21	0.018745
1552.86	0.047435
1562.5	0.044075
1572.15	0.008315
1581.79	0.002105
1591.44	0.001395
1601.08	0.001425
1610.73	0.001515
1620.37	0.001725
1630.01	0.001375
1639.66	0.001565
1649.3	0.002825
1658.95	0.004115
1668.59	0.002275
1678.24	0.0007554
1687.88	0.0005401
1697.53	0.0005082
1707.17	0.0004732
1716.82	0.0005504
1726.46	0.0009613
1736.11	0.0010749
1745.75	0.0006206
1755.4	0.0007265
1765.04	0.001635
1774.69	0.002565
1784.33	0.001685
1793.98	0.0005171
1803.62	0.00039668
1813.27	0.0004625
1822.91	0.0006953
1832.55	0.001375
1842.2	0.002985
1851.84	0.003535
1861.49	0.001805
1871.13	0.0007464
1880.78	0.0007254
1890.42	0.0007808
1900.07	0.0012899
1909.71	0.002755
1919.36	0.004695
1929	0.004025
1938.65	0.001299
1948.29	0.0006178
1957.94	0.0004818
1967.58	0.0005076
1977.23	0.0005516
1986.87	0.0005392
1996.52	0.00041955
2006.16	0.0004592
2015.81	0.0005558
2025.45	0.0007705
2035.1	0.0006123
2044.74	0.00039263
2054.38	0.00035183
2064.03	0.00037069
2073.67	0.00039321
2083.32	0.0004744
2092.96	0.0005602
2102.61	0.0005102
2112.25	0.0004859
2121.9	0.0003771
2131.54	0.000328082
2141.19	0.00032186
2150.83	0.0002779
2160.48	0.0004011
2170.12	0.0004613
2179.77	0.0004427
2189.41	0.0005254
2199.06	0.0005138
2208.7	0.0004681
2218.35	0.0005134
2227.99	0.00036804
2237.64	0.00042043
2247.28	0.00041318
2256.92	0.0004787
2266.57	0.000639
2276.21	0.0005123
2285.86	0.0006696
2295.5	0.0007991
2305.15	0.0007796
2314.79	0.0007869
2324.44	0.000703
2334.08	0.0006167
2343.73	0.0005047
2353.37	0.0006106
2363.02	0.0006405
2372.66	0.0005575
2382.31	0.0004995
2391.95	0.0005086
2401.6	0.00036735
2411.24	0.0006663
2420.89	0.0008082
2430.53	0.0006154
2440.18	0.0005371
2449.82	0.0005574
2459.47	0.0006564
2469.11	0.0007196
2478.75	0.0010449
2488.4	0.0009152
2498.04	0.0007775
2507.69	0.0005243
2517.33	0.0004875
2526.98	0.00042161
2536.62	0.0004625
2546.27	0.0005992
2555.91	0.0008025
2565.56	0.00101
2575.2	0.0008379
2584.85	0.0005898
2594.49	0.0004979
2604.14	0.0006781
2613.78	0.0007123
2623.43	0.0008488
2633.07	0.0007989
2642.72	0.0007543
2652.36	0.0005524
2662.01	0.0004872
2671.65	0.0004305
2681.29	0.0004456
2690.94	0.0004566
2700.58	0.000496
2710.23	0.0004341
2719.87	0.00042328
2729.52	0.000449
2739.16	0.0004523
2748.81	0.00039938
2758.45	0.00039458
2768.1	0.0004674
2777.74	0.0005997
2787.39	0.0005701
2797.03	0.0004533
2806.68	0.0004307
2816.32	0.00032163
2825.97	0.0004495
2835.61	0.0002504
2845.26	0.0002352
2854.9	0.0002982
2864.55	0.000156
2874.19	0.00033599
2883.84	0.0002783
2893.48	0.0004974
2903.12	0.00032285
2912.77	0.000148
2922.41	0.0004759
2932.06	0.00040043
2941.7	0.00032148
2951.35	0.0005764
2960.99	0.0005827
2970.64	0.0008071
2980.28	0.0006494
2989.93	0.00039201
2999.57	0.0004572
3009.22	0.0002406
3018.86	0.0004332
3028.51	0.000511
3038.15	0.0009388
3047.8	0.002365
3057.44	0.005365
3067.09	0.007765
3076.73	0.006025
3086.38	0.002785
3096.02	0.001625
3105.67	0.002075
3115.31	0.003105
3124.95	0.002755
3134.6	0.0008602
3144.24	0.0006283
3153.89	0.0002745
3163.53	0.0002904
3173.18	0.000217
3182.82	0.0003103
3192.47	0.000333174
3202.11	0.00041734
3211.76	0.0002956
3221.4	0.00039667
3231.05	0.0003717
3240.69	0.0002718
3250.34	0.0002776
3259.98	0.000345
3269.63	0.0004412
3279.27	0.0004736
3288.92	0.00040174
3298.56	0.0002604
3308.21	0.000207
3317.85	0.00038336
3327.49	0.0005074
3337.14	0.000208
3346.78	0.00042282
3356.43	0.00032073
3366.07	0.000145
3375.72	0.0004555
3385.36	0.000214
3395.01	0.0002987
3404.65	0.00038146
3414.3	0.0003009
3423.94	0.0002812
3433.59	0.000211
3443.23	0.0002937
3452.88	0.0002451
3462.52	0.00039112
3472.17	0.00034278
3481.81	0.00037437
3491.46	0.000174
3501.1	0.000216
3510.75	0.0002497
3520.39	8.4e-05
3530.04	0.0002341
3539.68	0.00037374
3549.32	0.0004883
3558.97	0.00040893
3568.61	0.00031926
3578.26	0.0002617
3587.9	0.00040876
3597.55	0.00033555
3607.19	0.00031995
3616.84	0.000166
3626.48	0.00036913
3636.13	0.0002948
3645.77	0.000205
3655.42	5.9e-05
3665.06	0.000156
3674.71	0.00034347
3684.35	0.00031885
3694	0.000148
3703.64	0.0003068
3713.29	0.0003848
3722.93	0.00039849
3732.58	0.000334992
3742.22	0.0005319
3751.86	0.0009345
3761.51	0.0006825
3771.15	0.0006102
3780.8	0.0005615
3790.44	0.0006091
3800.09	0.0004373
3809.73	0.000329258
3819.38	0.0005277
3829.02	0.00042233
3838.67	0.00039833
3848.31	0.0004715
3857.96	0.0005839
3867.6	0.0005193
3877.25	0.000386
3886.89	0.0003146
3896.54	0.0003133
3906.18	0.00035146
3915.83	0.00031513
3925.47	0.00035326
3935.12	0.00035239
3944.76	0.00041204
3954.41	0.0002928
3964.05	0.0004303
3973.69	0.00038201
3983.34	0.0002277
3992.98	0.0002647
