Infrared Spectrum: 3-Ethylphenyl isothiocyanate
Formula: C 9 H 9 N S
CAS: 19241-20-4
State: gas
Origin: EPA-IR VAPOR PHASE LIBRARY
1/CM	ABSORBANCE
549.8	0.025774
559.445	0.024034
569.09	0.020884
578.734	0.014884
588.379	0.009964
598.024	0.007744
607.669	0.006284
617.313	0.005324
626.958	0.005304
636.603	0.005864
646.248	0.006154
655.893	0.006594
665.537	0.010104
675.182	0.023574
684.827	0.036174
694.472	0.028434
704.116	0.011904
713.761	0.004514
723.406	0.004274
733.051	0.005444
742.695	0.007024
752.34	0.009664
761.985	0.015994
771.63	0.032154
781.275	0.058484
790.919	0.065734
800.564	0.059114
810.209	0.037524
819.854	0.016104
829.498	0.008874
839.143	0.006214
848.788	0.004664
858.433	0.005344
868.078	0.012784
877.722	0.022374
887.367	0.014484
897.012	0.008444
906.657	0.005494
916.301	0.004534
925.946	0.004764
935.591	0.006714
945.236	0.012914
954.88	0.017844
964.525	0.011664
974.17	0.006444
983.815	0.007284
993.46	0.012654
1003.1	0.010564
1012.75	0.004934
1022.39	0.004014
1032.04	0.003594
1041.68	0.005044
1051.33	0.007284
1060.97	0.008754
1070.62	0.006844
1080.26	0.004364
1089.91	0.004274
1099.55	0.004284
1109.2	0.002314
1118.84	0.001904
1128.49	0.001734
1138.13	0.000925
1147.78	0.0012705
1157.42	0.001854
1167.07	0.002584
1176.71	0.0011526
1186.36	0.0011791
1196	0.001035
1205.64	0.002064
1215.29	0.001704
1224.93	0.002364
1234.58	0.002924
1244.22	0.004634
1253.87	0.007834
1263.51	0.012234
1273.16	0.011844
1282.8	0.008994
1292.45	0.007984
1302.09	0.008374
1311.74	0.008874
1321.38	0.010554
1331.03	0.011584
1340.67	0.007724
1350.32	0.003764
1359.96	0.002854
1369.61	0.003144
1379.25	0.004104
1388.9	0.004824
1398.54	0.005834
1408.18	0.007204
1417.83	0.007894
1427.47	0.013844
1437.12	0.027104
1446.76	0.027304
1456.41	0.023024
1466.05	0.028394
1475.7	0.039474
1485.34	0.046704
1494.99	0.029304
1504.63	0.010694
1514.28	0.007434
1523.92	0.006194
1533.57	0.005914
1543.21	0.007374
1552.86	0.011324
1562.5	0.021714
1572.15	0.047004
1581.79	0.078464
1591.44	0.092784
1601.08	0.117384
1610.73	0.077844
1620.37	0.025614
1630.01	0.011604
1639.66	0.007124
1649.3	0.005244
1658.95	0.004664
1668.59	0.004754
1678.24	0.005064
1687.88	0.004244
1697.53	0.003414
1707.17	0.003244
1716.82	0.003394
1726.46	0.003644
1736.11	0.004114
1745.75	0.005074
1755.4	0.005414
1765.04	0.005334
1774.69	0.005684
1784.33	0.006614
1793.98	0.006334
1803.62	0.005144
1813.27	0.004694
1822.91	0.004664
1832.55	0.004824
1842.2	0.005314
1851.84	0.006624
1861.49	0.007684
1871.13	0.006774
1880.78	0.007634
1890.42	0.010374
1900.07	0.014194
1909.71	0.019284
1919.36	0.027384
1929	0.039964
1938.65	0.054114
1948.29	0.068124
1957.94	0.085124
1967.58	0.110634
1977.23	0.145944
1986.87	0.187814
1996.52	0.239334
2006.16	0.303874
2015.81	0.378354
2025.45	0.465714
2035.1	0.565344
2044.74	0.661474
2054.38	0.623634
2064.03	0.433194
2073.67	0.315474
2083.32	0.316254
2092.96	0.373124
2102.61	0.402404
2112.25	0.342514
2121.9	0.253884
2131.54	0.179314
2141.19	0.129754
2150.83	0.109244
2160.48	0.098674
2170.12	0.076504
2179.77	0.051064
2189.41	0.035584
2199.06	0.028304
2208.7	0.025284
2218.35	0.022114
2227.99	0.016694
2237.64	0.013354
2247.28	0.012524
2256.92	0.012134
2266.57	0.009324
2276.21	0.006544
2285.86	0.005124
2295.5	0.004204
2305.15	0.003774
2314.79	0.003614
2324.44	0.004284
2334.08	0.003934
2343.73	0.002934
2353.37	0.002444
2363.02	0.002454
2372.66	0.002774
2382.31	0.003374
2391.95	0.004004
2401.6	0.005084
2411.24	0.006474
2420.89	0.008064
2430.53	0.007954
2440.18	0.006464
2449.82	0.005384
2459.47	0.004964
2469.11	0.004774
2478.75	0.004804
2488.4	0.005004
2498.04	0.005214
2507.69	0.005564
2517.33	0.005864
2526.98	0.006214
2536.62	0.006384
2546.27	0.006574
2555.91	0.007234
2565.56	0.008234
2575.2	0.009564
2584.85	0.010494
2594.49	0.008504
2604.14	0.005184
2613.78	0.003384
2623.43	0.002624
2633.07	0.002444
2642.72	0.002474
2652.36	0.002344
2662.01	0.002184
2671.65	0.002224
2681.29	0.002214
2690.94	0.002524
2700.58	0.003004
2710.23	0.003494
2719.87	0.004234
2729.52	0.004844
2739.16	0.005024
2748.81	0.004724
2758.45	0.004164
2768.1	0.004034
2777.74	0.004324
2787.39	0.004594
2797.03	0.004654
2806.68	0.004794
2816.32	0.005194
2825.97	0.005884
2835.61	0.007314
2845.26	0.008594
2854.9	0.010504
2864.55	0.014294
2874.19	0.019364
2883.84	0.023744
2893.48	0.024384
2903.12	0.023174
2912.77	0.022914
2922.41	0.023224
2932.06	0.030474
2941.7	0.042424
2951.35	0.040744
2960.99	0.037274
2970.64	0.064844
2980.28	0.073934
2989.93	0.031384
2999.57	0.017914
3009.22	0.014224
3018.86	0.012664
3028.51	0.013994
3038.15	0.015954
3047.8	0.017214
3057.44	0.018624
3067.09	0.020694
3076.73	0.017704
3086.38	0.011894
3096.02	0.008884
3105.67	0.006994
3115.31	0.004194
3124.95	0.002394
3134.6	0.001854
3144.24	0.001694
3153.89	0.001484
3163.53	0.001604
3173.18	0.001344
3182.82	0.0011014
3192.47	0.0009949
3202.11	0.0007559
3211.76	0.0005654
3221.4	0.000558
3231.05	0.00042238
3240.69	0.0003329
3250.34	0.0004624
3259.98	0.0002847
3269.63	0.0003003
3279.27	0.00035231
3288.92	0.0003119
3298.56	0.000347245
3308.21	0.0001
3317.85	0.00037323
3327.49	0.000177
3337.14	0.0003151
3346.78	0.0002552
3356.43	0.000121
3366.07	0.000207
3375.72	0.0002972
3385.36	0.000187
3395.01	0.000234
3404.65	0.00041455
3414.3	0.000261
3423.94	0.0002589
3433.59	0.000343962
3443.23	0.00016
3452.88	0.00038652
3462.52	0.000351222
3472.17	0.0002971
3481.81	0.00043243
3491.46	0.0002696
3501.1	0.0004562
3510.75	0.0004967
3520.39	0.00037798
3530.04	0.00037936
3539.68	0.0005015
3549.32	0.0002881
3558.97	0.0005093
3568.61	0.00039954
3578.26	0.00038634
3587.9	0.0005692
3597.55	0.0004564
3607.19	0.0004696
3616.84	0.000473
3626.48	0.00039783
3636.13	0.0005414
3645.77	0.000243
3655.42	0.000347976
3665.06	0.000506
3674.71	0.0005094
3684.35	0.0005296
3694	0.0006422
3703.64	0.0005982
3713.29	0.0008459
3722.93	0.000785
3732.58	0.0008135
3742.22	0.0008879
3751.86	0.0007327
3761.51	0.0008847
3771.15	0.0009051
3780.8	0.0007839
3790.44	0.0007976
3800.09	0.0008621
3809.73	0.0006987
3819.38	0.0007552
3829.02	0.0007912
3838.67	0.0007468
3848.31	0.0009601
3857.96	0.0009775
3867.6	0.0011347
3877.25	0.0009767
3886.89	0.0012355
3896.54	0.0011108
3906.18	0.001374
3915.83	0.001344
3925.47	0.001564
3935.12	0.001704
3944.76	0.001874
3954.41	0.002134
3964.05	0.002274
3973.69	0.002404
3983.34	0.002564
3992.98	0.002804
