Infrared Spectrum: 2,6-Dimethylphenyl isothiocyanate
Formula: C 9 H 9 N S
CAS: 19241-16-8
State: gas
Origin: EPA-IR VAPOR PHASE LIBRARY
1/CM	ABSORBANCE
549.8	0.008762
559.445	0.006902
569.09	0.009092
578.734	0.007932
588.379	0.003612
598.024	0.0011978
607.669	0.000873
617.313	0.0009881
626.958	0.0005364
636.603	0.00067679
646.248	0.0006944
655.893	0.0011382
665.537	0.002102
675.182	0.003632
684.827	0.002782
694.472	0.0014138
704.116	0.002532
713.761	0.005882
723.406	0.010152
733.051	0.008042
742.695	0.025922
752.34	0.045802
761.985	0.043582
771.63	0.033492
781.275	0.012742
790.919	0.003132
800.564	0.001591
810.209	0.001782
819.854	0.0011857
829.498	0.0007068
839.143	0.00063279
848.788	0.0006632
858.433	0.0010264
868.078	0.001592
877.722	0.002952
887.367	0.005002
897.012	0.007252
906.657	0.012212
916.301	0.022272
925.946	0.040272
935.591	0.045332
945.236	0.026252
954.88	0.012152
964.525	0.006142
974.17	0.003852
983.815	0.003232
993.46	0.003472
1003.1	0.003172
1012.75	0.002672
1022.39	0.002442
1032.04	0.002572
1041.68	0.002332
1051.33	0.002192
1060.97	0.001782
1070.62	0.0011243
1080.26	0.0010997
1089.91	0.001742
1099.55	0.002332
1109.2	0.001722
1118.84	0.001416
1128.49	0.000553
1138.13	0.0008822
1147.78	0.00062124
1157.42	0.0014543
1167.07	0.001762
1176.71	0.0011292
1186.36	0.0009145
1196	0.0013315
1205.64	0.002902
1215.29	0.005152
1224.93	0.004632
1234.58	0.002852
1244.22	0.002562
1253.87	0.003072
1263.51	0.003272
1273.16	0.002492
1282.8	0.002122
1292.45	0.002022
1302.09	0.002162
1311.74	0.001892
1321.38	0.001812
1331.03	0.0015897
1340.67	0.001672
1350.32	0.001752
1359.96	0.001902
1369.61	0.002392
1379.25	0.004032
1388.9	0.005192
1398.54	0.003802
1408.18	0.003962
1417.83	0.007182
1427.47	0.012912
1437.12	0.016712
1446.76	0.020062
1456.41	0.024462
1466.05	0.030782
1475.7	0.029572
1485.34	0.019342
1494.99	0.009912
1504.63	0.006072
1514.28	0.005142
1523.92	0.005772
1533.57	0.006172
1543.21	0.005502
1552.86	0.004882
1562.5	0.004602
1572.15	0.005682
1581.79	0.010112
1591.44	0.014942
1601.08	0.010972
1610.73	0.005422
1620.37	0.003872
1630.01	0.003412
1639.66	0.003302
1649.3	0.003452
1658.95	0.003032
1668.59	0.002142
1678.24	0.002042
1687.88	0.002082
1697.53	0.001942
1707.17	0.002032
1716.82	0.002502
1726.46	0.002732
1736.11	0.002232
1745.75	0.002052
1755.4	0.002432
1765.04	0.003172
1774.69	0.003862
1784.33	0.003142
1793.98	0.002792
1803.62	0.003052
1813.27	0.003462
1822.91	0.004222
1832.55	0.004922
1842.2	0.005332
1851.84	0.005482
1861.49	0.004932
1871.13	0.004452
1880.78	0.004082
1890.42	0.003992
1900.07	0.004312
1909.71	0.005582
1919.36	0.007972
1929	0.009152
1938.65	0.008932
1948.29	0.010932
1957.94	0.014732
1967.58	0.019662
1977.23	0.025652
1986.87	0.032772
1996.52	0.042392
2006.16	0.056952
2015.81	0.079462
2025.45	0.114642
2035.1	0.164032
2044.74	0.229032
2054.38	0.314062
2064.03	0.411272
2073.67	0.490062
2083.32	0.510712
2092.96	0.431082
2102.61	0.287382
2112.25	0.181662
2121.9	0.133312
2131.54	0.125472
2141.19	0.133812
2150.83	0.145932
2160.48	0.140942
2170.12	0.094322
2179.77	0.048312
2189.41	0.030912
2199.06	0.023562
2208.7	0.016892
2218.35	0.012172
2227.99	0.009582
2237.64	0.007622
2247.28	0.005652
2256.92	0.003972
2266.57	0.003082
2276.21	0.002652
2285.86	0.002342
2295.5	0.002542
2305.15	0.002842
2314.79	0.003402
2324.44	0.003802
2334.08	0.004092
2343.73	0.004092
2353.37	0.003742
2363.02	0.003102
2372.66	0.002562
2382.31	0.002202
2391.95	0.002182
2401.6	0.002182
2411.24	0.002722
2420.89	0.003672
2430.53	0.004732
2440.18	0.005182
2449.82	0.004182
2459.47	0.003152
2469.11	0.003682
2478.75	0.004262
2488.4	0.004272
2498.04	0.003892
2507.69	0.003722
2517.33	0.003712
2526.98	0.003542
2536.62	0.003832
2546.27	0.004012
2555.91	0.004072
2565.56	0.004012
2575.2	0.003592
2584.85	0.002942
2594.49	0.002332
2604.14	0.001972
2613.78	0.001702
2623.43	0.001782
2633.07	0.002132
2642.72	0.002492
2652.36	0.002872
2662.01	0.003392
2671.65	0.003782
2681.29	0.004112
2690.94	0.004062
2700.58	0.003152
2710.23	0.002132
2719.87	0.001652
2729.52	0.0015638
2739.16	0.001862
2748.81	0.002422
2758.45	0.002232
2768.1	0.001652
2777.74	0.0015205
2787.39	0.001702
2797.03	0.002012
2806.68	0.002352
2816.32	0.002982
2825.97	0.003342
2835.61	0.003782
2845.26	0.004542
2854.9	0.005592
2864.55	0.007322
2874.19	0.008742
2883.84	0.008402
2893.48	0.007702
2903.12	0.007862
2912.77	0.009772
2922.41	0.014652
2932.06	0.019922
2941.7	0.018992
2951.35	0.015182
2960.99	0.014882
2970.64	0.014382
2980.28	0.016532
2989.93	0.017722
2999.57	0.013522
3009.22	0.010482
3018.86	0.011452
3028.51	0.013592
3038.15	0.015102
3047.8	0.016892
3057.44	0.019902
3067.09	0.022142
3076.73	0.017792
3086.38	0.011242
3096.02	0.005662
3105.67	0.002872
3115.31	0.002082
3124.95	0.001682
3134.6	0.001259
3144.24	0.0011394
3153.89	0.0009871
3163.53	0.0007712
3173.18	0.0007311
3182.82	0.0008925
3192.47	0.0005293
3202.11	0.000332
3211.76	0.00038
3221.4	0.000286
3231.05	0.000285
3240.69	0.00043
3250.34	0.000201
3259.98	0.000287
3269.63	0.000396
3279.27	0.000169
3288.92	0.000467
3298.56	0.000164
3308.21	0.000282
3317.85	0.000188
3327.49	0.000223
3337.14	0.000343
3346.78	0.000296
3356.43	0.000279
3366.07	0.000229
3375.72	0.00044
3385.36	0.000331
3395.01	0.000466
3404.65	0.000321
3414.3	0.000433
3423.94	0.0004999
3433.59	0.000226
3443.23	0.000385
3452.88	0.000374
3462.52	0.000311
3472.17	0.00037
3481.81	0.000247
3491.46	0.000166
3501.1	0.000487
3510.75	0.000412
3520.39	0.000444
3530.04	0.000338
3539.68	0.000481
3549.32	0.000299
3558.97	0.000368
3568.61	0.000279
3578.26	0.000241
3587.9	0.000481
3597.55	0.000271
3607.19	0.000247
3616.84	0.0005083
3626.48	0.000328
3636.13	0.000374
3645.77	0.00035
3655.42	0.0005419
3665.06	0.00045
3674.71	0.000399
3684.35	0.000373
3694	0.0005701
3703.64	0.000356
3713.29	0.000251
3722.93	0.000367
3732.58	0.000271
3742.22	0.000513
3751.86	0.000484
3761.51	0.000455
3771.15	0.00060329
3780.8	0.000474
3790.44	0.00066941
3800.09	0.00068778
3809.73	0.0007804
3819.38	0.0007335
3829.02	0.0007796
3838.67	0.0008371
3848.31	0.0005734
3857.96	0.0005798
3867.6	0.0005292
3877.25	0.0005383
3886.89	0.00058671
3896.54	0.0007073
3906.18	0.0007787
3915.83	0.0007939
3925.47	0.0007307
3935.12	0.0007618
3944.76	0.0011243
3954.41	0.0010044
3964.05	0.0011925
3973.69	0.0011918
3983.34	0.0014278
3992.98	0.0011947
