Infrared Spectrum: 4-t-Butylphenyl isothiocyanate
Formula: C 11 H 13 N S
CAS: 19241-24-8
State: gas
Origin: EPA-IR VAPOR PHASE LIBRARY
1/CM	ABSORBANCE
549.8	0.051898
559.445	0.035758
569.09	0.017578
578.734	0.009328
588.379	0.005848
598.024	0.004198
607.669	0.003488
617.313	0.004218
626.958	0.004758
636.603	0.004948
646.248	0.006728
655.893	0.005478
665.537	0.005058
675.182	0.006118
684.827	0.008468
694.472	0.009378
704.116	0.007658
713.761	0.008788
723.406	0.019998
733.051	0.054378
742.695	0.023298
752.34	0.004998
761.985	0.004588
771.63	0.003598
781.275	0.002728
790.919	0.003978
800.564	0.007918
810.209	0.018278
819.854	0.042178
829.498	0.073868
839.143	0.062148
848.788	0.030648
858.433	0.011268
868.078	0.006648
877.722	0.004668
887.367	0.005008
897.012	0.010098
906.657	0.020698
916.301	0.029848
925.946	0.040558
935.591	0.052358
945.236	0.056548
954.88	0.037848
964.525	0.021308
974.17	0.012718
983.815	0.007568
993.46	0.005248
1003.1	0.004628
1012.75	0.014518
1022.39	0.015908
1032.04	0.003908
1041.68	0.002388
1051.33	0.002788
1060.97	0.002528
1070.62	0.002878
1080.26	0.004848
1089.91	0.010638
1099.55	0.026918
1109.2	0.062008
1118.84	0.021928
1128.49	0.008518
1138.13	0.004018
1147.78	0.002188
1157.42	0.002398
1167.07	0.002468
1176.71	0.005828
1186.36	0.011628
1196	0.011928
1205.64	0.009688
1215.29	0.008918
1224.93	0.008278
1234.58	0.010568
1244.22	0.021978
1253.87	0.043568
1263.51	0.056758
1273.16	0.036918
1282.8	0.015638
1292.45	0.009058
1302.09	0.007508
1311.74	0.007108
1321.38	0.005178
1331.03	0.004678
1340.67	0.006188
1350.32	0.011998
1359.96	0.026068
1369.61	0.038358
1379.25	0.029268
1388.9	0.018418
1398.54	0.024908
1408.18	0.014768
1417.83	0.009798
1427.47	0.008478
1437.12	0.009538
1446.76	0.014178
1456.41	0.022118
1466.05	0.030378
1475.7	0.045138
1485.34	0.068008
1494.99	0.074328
1504.63	0.154628
1514.28	0.107008
1523.92	0.032958
1533.57	0.017898
1543.21	0.014848
1552.86	0.014198
1562.5	0.016618
1572.15	0.017658
1581.79	0.018358
1591.44	0.025448
1601.08	0.032268
1610.73	0.022228
1620.37	0.013818
1630.01	0.010058
1639.66	0.009288
1649.3	0.008928
1658.95	0.007918
1668.59	0.006078
1678.24	0.003798
1687.88	0.003148
1697.53	0.002968
1707.17	0.003018
1716.82	0.003258
1726.46	0.003368
1736.11	0.003858
1745.75	0.004558
1755.4	0.006028
1765.04	0.008558
1774.69	0.008058
1784.33	0.007188
1793.98	0.007118
1803.62	0.006788
1813.27	0.006568
1822.91	0.006938
1832.55	0.008108
1842.2	0.010268
1851.84	0.013468
1861.49	0.016278
1871.13	0.017908
1880.78	0.019778
1890.42	0.021458
1900.07	0.022668
1909.71	0.024618
1919.36	0.029158
1929	0.037908
1938.65	0.051378
1948.29	0.071698
1957.94	0.100238
1967.58	0.137808
1977.23	0.186208
1986.87	0.245948
1996.52	0.321578
2006.16	0.426078
2015.81	0.551138
2025.45	0.665408
2035.1	0.753788
2044.74	0.853608
2054.38	0.854738
2064.03	0.608768
2073.67	0.438748
2083.32	0.455398
2092.96	0.579498
2102.61	0.642528
2112.25	0.463868
2121.9	0.282728
2131.54	0.205828
2141.19	0.178048
2150.83	0.177888
2160.48	0.158378
2170.12	0.114378
2179.77	0.084868
2189.41	0.074608
2199.06	0.067108
2208.7	0.051038
2218.35	0.035748
2227.99	0.024658
2237.64	0.016908
2247.28	0.011818
2256.92	0.008968
2266.57	0.007938
2276.21	0.007298
2285.86	0.006468
2295.5	0.006488
2305.15	0.006858
2314.79	0.006968
2324.44	0.006878
2334.08	0.006638
2343.73	0.005998
2353.37	0.005758
2363.02	0.005838
2372.66	0.005818
2382.31	0.005508
2391.95	0.005018
2401.6	0.004588
2411.24	0.004448
2420.89	0.004918
2430.53	0.005788
2440.18	0.005668
2449.82	0.004508
2459.47	0.004378
2469.11	0.004818
2478.75	0.005588
2488.4	0.006608
2498.04	0.007898
2507.69	0.008048
2517.33	0.007268
2526.98	0.006938
2536.62	0.007358
2546.27	0.007988
2555.91	0.009318
2565.56	0.010418
2575.2	0.009868
2584.85	0.008358
2594.49	0.007818
2604.14	0.008128
2613.78	0.008858
2623.43	0.009128
2633.07	0.009198
2642.72	0.009628
2652.36	0.010238
2662.01	0.009288
2671.65	0.007328
2681.29	0.006018
2690.94	0.005628
2700.58	0.005678
2710.23	0.005798
2719.87	0.006098
2729.52	0.005828
2739.16	0.005738
2748.81	0.006098
2758.45	0.006728
2768.1	0.007168
2777.74	0.007658
2787.39	0.008178
2797.03	0.007408
2806.68	0.006338
2816.32	0.006408
2825.97	0.007018
2835.61	0.008348
2845.26	0.010088
2854.9	0.014388
2864.55	0.025998
2874.19	0.045258
2883.84	0.051688
2893.48	0.046938
2903.12	0.051368
2912.77	0.065668
2922.41	0.064858
2932.06	0.062458
2941.7	0.070108
2951.35	0.102728
2960.99	0.195318
2970.64	0.292838
2980.28	0.156938
2989.93	0.060878
2999.57	0.027708
3009.22	0.015578
3018.86	0.011518
3028.51	0.012278
3038.15	0.020198
3047.8	0.024298
3057.44	0.015388
3067.09	0.013638
3076.73	0.014188
3086.38	0.015628
3096.02	0.015928
3105.67	0.012698
3115.31	0.009158
3124.95	0.006208
3134.6	0.004148
3144.24	0.003028
3153.89	0.002788
3163.53	0.002808
3173.18	0.003038
3182.82	0.002918
3192.47	0.002598
3202.11	0.002498
3211.76	0.002488
3221.4	0.002338
3231.05	0.001888
3240.69	0.001658
3250.34	0.001518
3259.98	0.0011535
3269.63	0.0010873
3279.27	0.0009126
3288.92	0.001076
3298.56	0.0011276
3308.21	0.0008072
3317.85	0.0005878
3327.49	0.00050007
3337.14	0.0007167
3346.78	0.0006711
3356.43	0.00040011
3366.07	0.00047206
3375.72	0.00043218
3385.36	0.0005212
3395.01	0.0006462
3404.65	0.0005779
3414.3	0.00050331
3423.94	0.00049918
3433.59	0.0005313
3443.23	0.000295
3452.88	0.00046441
3462.52	0.0005111
3472.17	0.0003929
3481.81	0.000153
3491.46	0.0003614
3501.1	0.00044934
3510.75	0.000223
3520.39	0.000205
3530.04	0.000169
3539.68	0.000171
3549.32	0.000295
3558.97	0.000202
3568.61	0.0003332
3578.26	0
3587.9	0.0003325
3597.55	0.000209
3607.19	0.0003092
3616.84	0.00046355
3626.48	0.000189
3636.13	0.0003413
3645.77	0.0003319
3655.42	0.00047883
3665.06	0.0003476
3674.71	0.0004948
3684.35	0.0006048
3694	0.0005666
3703.64	0.0006336
3713.29	0.00056
3722.93	0.0006387
3732.58	0.0007235
3742.22	0.0006869
3751.86	0.000931
3761.51	0.0007786
3771.15	0.0005919
3780.8	0.0007407
3790.44	0.0008712
3800.09	0.0009319
3809.73	0.0008617
3819.38	0.0008962
3829.02	0.001198
3838.67	0.0009525
3848.31	0.0011487
3857.96	0.0010664
3867.6	0.0012464
3877.25	0.0013401
3886.89	0.001678
3896.54	0.001928
3906.18	0.002138
3915.83	0.001928
3925.47	0.002178
3935.12	0.001978
3944.76	0.002138
3954.41	0.002318
3964.05	0.002598
3973.69	0.002908
3983.34	0.003048
3992.98	0.003478
