Infrared Spectrum: 2,5-Dimethylphenyl isothiocyanate
Formula: C 9 H 9 N S
CAS: 19241-15-7
State: gas
Origin: EPA-IR VAPOR PHASE LIBRARY
1/CM	ABSORBANCE
549.8	0.013855
559.445	0.016045
569.09	0.015445
578.734	0.009745
588.379	0.005875
598.024	0.004865
607.669	0.006075
617.313	0.006375
626.958	0.003335
636.603	0.001755
646.248	0.001825
655.893	0.002415
665.537	0.003315
675.182	0.007445
684.827	0.013865
694.472	0.007175
704.116	0.001885
713.761	0.0015599
723.406	0.001985
733.051	0.003785
742.695	0.004235
752.34	0.003615
761.985	0.002825
771.63	0.002675
781.275	0.003565
790.919	0.009725
800.564	0.025025
810.209	0.032575
819.854	0.033655
829.498	0.035725
839.143	0.017855
848.788	0.005575
858.433	0.006405
868.078	0.010275
877.722	0.007925
887.367	0.005105
897.012	0.004595
906.657	0.003925
916.301	0.003705
925.946	0.004185
935.591	0.005405
945.236	0.010025
954.88	0.017275
964.525	0.013605
974.17	0.006645
983.815	0.005745
993.46	0.007555
1003.1	0.007875
1012.75	0.005955
1022.39	0.003435
1032.04	0.002645
1041.68	0.002815
1051.33	0.003135
1060.97	0.002485
1070.62	0.001845
1080.26	0.001695
1089.91	0.001527
1099.55	0.0015984
1109.2	0.001845
1118.84	0.004045
1128.49	0.005255
1138.13	0.004555
1147.78	0.004355
1157.42	0.003675
1167.07	0.002235
1176.71	0.0009931
1186.36	0.0011454
1196	0.0013833
1205.64	0.002295
1215.29	0.002445
1224.93	0.001755
1234.58	0.0011647
1244.22	0.002225
1253.87	0.003315
1263.51	0.005495
1273.16	0.007415
1282.8	0.005645
1292.45	0.004685
1302.09	0.003245
1311.74	0.002425
1321.38	0.002265
1331.03	0.002235
1340.67	0.002425
1350.32	0.002455
1359.96	0.002665
1369.61	0.003115
1379.25	0.004905
1388.9	0.006315
1398.54	0.007355
1408.18	0.011535
1417.83	0.012295
1427.47	0.010635
1437.12	0.010165
1446.76	0.010605
1456.41	0.011135
1466.05	0.010375
1475.7	0.009735
1485.34	0.013285
1494.99	0.029725
1504.63	0.041215
1514.28	0.024255
1523.92	0.012125
1533.57	0.009645
1543.21	0.009785
1552.86	0.011695
1562.5	0.015845
1572.15	0.021105
1581.79	0.021135
1591.44	0.016105
1601.08	0.020945
1610.73	0.031135
1620.37	0.020905
1630.01	0.006455
1639.66	0.003875
1649.3	0.003195
1658.95	0.002845
1668.59	0.002565
1678.24	0.002525
1687.88	0.002165
1697.53	0.002125
1707.17	0.002035
1716.82	0.002235
1726.46	0.002695
1736.11	0.003565
1745.75	0.003965
1755.4	0.003165
1765.04	0.002755
1774.69	0.002935
1784.33	0.003155
1793.98	0.003255
1803.62	0.003445
1813.27	0.003785
1822.91	0.003835
1832.55	0.003835
1842.2	0.003695
1851.84	0.003475
1861.49	0.003305
1871.13	0.003985
1880.78	0.005685
1890.42	0.006595
1900.07	0.006415
1909.71	0.007705
1919.36	0.009995
1929	0.013745
1938.65	0.019535
1948.29	0.027535
1957.94	0.036505
1967.58	0.046605
1977.23	0.059335
1986.87	0.075365
1996.52	0.095295
2006.16	0.122255
2015.81	0.158155
2025.45	0.201935
2035.1	0.255145
2044.74	0.320375
2054.38	0.384135
2064.03	0.382245
2073.67	0.343035
2083.32	0.317575
2092.96	0.303895
2102.61	0.273585
2112.25	0.217725
2121.9	0.164495
2131.54	0.130145
2141.19	0.116245
2150.83	0.108885
2160.48	0.088445
2170.12	0.057945
2179.77	0.033345
2189.41	0.020075
2199.06	0.014735
2208.7	0.012645
2218.35	0.011485
2227.99	0.010235
2237.64	0.008795
2247.28	0.007845
2256.92	0.007095
2266.57	0.006465
2276.21	0.005655
2285.86	0.004845
2295.5	0.003765
2305.15	0.003245
2314.79	0.003315
2324.44	0.003295
2334.08	0.002735
2343.73	0.002605
2353.37	0.002635
2363.02	0.002885
2372.66	0.003125
2382.31	0.003345
2391.95	0.003565
2401.6	0.003505
2411.24	0.003735
2420.89	0.003965
2430.53	0.003625
2440.18	0.003295
2449.82	0.003235
2459.47	0.003185
2469.11	0.003195
2478.75	0.003105
2488.4	0.003085
2498.04	0.003475
2507.69	0.003775
2517.33	0.004015
2526.98	0.004355
2536.62	0.004445
2546.27	0.004435
2555.91	0.004415
2565.56	0.004525
2575.2	0.004775
2584.85	0.005165
2594.49	0.005195
2604.14	0.004675
2613.78	0.003775
2623.43	0.003285
2633.07	0.002635
2642.72	0.002145
2652.36	0.001735
2662.01	0.0014929
2671.65	0.0014834
2681.29	0.0013722
2690.94	0.0013892
2700.58	0.001503
2710.23	0.001665
2719.87	0.001775
2729.52	0.002315
2739.16	0.003095
2748.81	0.003455
2758.45	0.002975
2768.1	0.002605
2777.74	0.002495
2787.39	0.002415
2797.03	0.002165
2806.68	0.002085
2816.32	0.002395
2825.97	0.002795
2835.61	0.003335
2845.26	0.004655
2854.9	0.006725
2864.55	0.010075
2874.19	0.013845
2883.84	0.014225
2893.48	0.012795
2903.12	0.012455
2912.77	0.013765
2922.41	0.020045
2932.06	0.030165
2941.7	0.027915
2951.35	0.017865
2960.99	0.014045
2970.64	0.012095
2980.28	0.012745
2989.93	0.014425
2999.57	0.013525
3009.22	0.013255
3018.86	0.014425
3028.51	0.016735
3038.15	0.017535
3047.8	0.017785
3057.44	0.017935
3067.09	0.013345
3076.73	0.008695
3086.38	0.005545
3096.02	0.003725
3105.67	0.002985
3115.31	0.002435
3124.95	0.001815
3134.6	0.001345
3144.24	0.0007753
3153.89	0.0008037
3163.53	0.0007558
3173.18	0.000352
3182.82	0.000473
3192.47	0.000466
3202.11	0.000298
3211.76	0.000227
3221.4	0.000446
3231.05	0.000367
3240.69	0.000357
3250.34	0.000386
3259.98	0.000315
3269.63	0.000231
3279.27	0.000416
3288.92	0.000356
3298.56	0.000275
3308.21	0.000292
3317.85	0.000129
3327.49	0.000254
3337.14	0.000448
3346.78	0.000286
3356.43	0.000438
3366.07	0.000219
3375.72	0.000315
3385.36	0.000325
3395.01	0.000232
3404.65	0.000478
3414.3	0.000525
3423.94	0.000214
3433.59	0.000314
3443.23	0.000384
3452.88	0.000407
3462.52	0.000225
3472.17	0.000407
3481.81	0.000276
3491.46	0.000282
3501.1	0.000235
3510.75	0.000397
3520.39	0.000422
3530.04	0.000369
3539.68	0.000365
3549.32	0.000427
3558.97	0.000252
3568.61	0.000282
3578.26	0.000451
3587.9	0.00034
3597.55	0.000541
3607.19	0.000253
3616.84	0.0005
3626.48	0.000447
3636.13	0.000397
3645.77	0.000274
3655.42	0.000363
3665.06	0.000429
3674.71	0.000488
3684.35	0.000507
3694	0.000413
3703.64	0.0006149
3713.29	0.0006937
3722.93	0.0005709
3732.58	0.00066595
3742.22	0.0006241
3751.86	0.00071791
3761.51	0.00070616
3771.15	0.0007748
3780.8	0.0006961
3790.44	0.00068497
3800.09	0.00074359
3809.73	0.0008044
3819.38	0.0005618
3829.02	0.00072285
3838.67	0.00069038
3848.31	0.0008368
3857.96	0.0008325
3867.6	0.0007539
3877.25	0.0006115
3886.89	0.0007652
3896.54	0.0007724
3906.18	0.0010402
3915.83	0.001054
3925.47	0.0010347
3935.12	0.0010728
3944.76	0.0011124
3954.41	0.0011695
3964.05	0.0013561
3973.69	0.0011562
3983.34	0.0014295
3992.98	0.001815
