Infrared Spectrum: PIPERAZINE, 1,4-BIS(2-METHYLPROPENYL)
Formula: C12 H22 N2
CAS: 19244-91-8
State: LIQUID
Boiling point: 70-73 C AT 2 mmHg
Class: COBLENTZ
Instrument: Not specified, most likely a prism, grating, or hybrid spectrometer.
Sampling: TRANSMISSION
Path length: SMEAR
Resolution: 4
Origin: TENNESSEE EASTMAN COMPANY, RESEARCH LABORATORIES
MICROMETERS	TRANSMITTANCE
2.013	0.995
2.05272	0.998
2.09243	1
2.13215	0.998
2.17187	1
2.21158	0.991
2.2513	0.943
2.29102	0.916
2.33073	0.938
2.37045	0.948
2.41017	0.95
2.44988	0.953
2.4896	0.956
2.52931	0.961
2.56903	0.968
2.60875	0.976
2.64846	0.983
2.68818	0.993
2.7279	0.996
2.76761	1
2.80733	0.998
2.84705	0.998
2.88676	0.995
2.92648	0.991
2.9662	0.976
3.00591	0.965
3.04563	0.966
3.08535	0.97
3.12506	0.965
3.16478	0.931
3.2045	0.887
3.24421	0.82
3.28393	0.714
3.32365	0.5
3.36336	0.033
3.40308	0.038
3.4428	0.064
3.48251	0.119
3.52223	0.038
3.56194	0.166
3.60166	0.383
3.64138	0.388
3.68109	0.611
3.72081	0.586
3.76053	0.596
3.80024	0.777
3.83996	0.825
3.87968	0.838
3.91939	0.84
3.95911	0.822
3.99883	0.842
4.03854	0.84
4.07826	0.85
4.11798	0.85
4.15769	0.863
4.19741	0.858
4.23713	0.853
4.27684	0.84
4.31656	0.847
4.35628	0.872
4.39599	0.892
4.43571	0.91
4.47543	0.911
4.51514	0.906
4.55486	0.905
4.59457	0.901
4.63429	0.913
4.67401	0.918
4.71372	0.926
4.75344	0.928
4.79316	0.931
4.83287	0.935
4.87259	0.926
4.91231	0.911
4.95202	0.913
4.99174	0.916
5.03146	0.888
5.07117	0.903
5.11089	0.916
5.15061	0.923
5.19032	0.936
5.23004	0.943
5.26976	0.95
5.30947	0.951
5.34919	0.958
5.38891	0.958
5.42862	0.953
5.46834	0.94
5.50805	0.916
5.54777	0.913
5.58749	0.925
5.6272	0.938
5.66692	0.931
5.70664	0.901
5.74635	0.822
5.78607	0.794
5.82579	0.8
5.8655	0.732
5.90522	0.345
5.94494	0.182
5.98465	0.353
6.02437	0.513
6.06409	0.636
6.1038	0.699
6.14352	0.72
6.18324	0.752
6.22295	0.779
6.26267	0.79
6.30239	0.767
6.3421	0.739
6.38182	0.732
6.42154	0.739
6.46125	0.742
6.50097	0.745
6.54068	0.754
6.5804	0.762
6.62012	0.76
6.65983	0.745
6.69955	0.681
6.73927	0.546
6.77898	0.358
6.8187	0.214
6.85842	0.112
6.89813	0.099
6.93785	0.23
6.97757	0.373
7.01728	0.503
7.057	0.529
7.09672	0.506
7.13643	0.468
7.17615	0.352
7.21587	0.142
7.25558	0.117
7.2953	0.088
7.33502	0.257
7.37473	0.315
7.41445	0.26
7.45416	0.137
7.49388	0.327
7.5336	0.524
7.57331	0.591
7.61303	0.581
7.65275	0.526
7.69246	0.488
7.73218	0.426
7.7719	0.29
7.81161	0.151
7.85133	0.107
7.89105	0.277
7.93076	0.481
7.97048	0.601
8.0102	0.639
8.04991	0.641
8.08963	0.626
8.12935	0.619
8.16906	0.607
8.20878	0.551
8.2485	0.453
8.28821	0.302
8.32793	0.099
8.36765	0.028
8.40736	0.023
8.44708	0.071
8.48679	0.146
8.52651	0.207
8.56623	0.267
8.60594	0.335
8.64566	0.385
8.68538	0.378
8.72509	0.265
8.76481	0.121
8.80453	0.081
8.84424	0.224
8.88396	0.36
8.92368	0.438
8.96339	0.483
9.00311	0.506
9.04283	0.544
9.08254	0.558
9.12226	0.549
9.16198	0.566
9.20169	0.631
9.24141	0.666
9.28113	0.672
9.32084	0.646
9.36056	0.574
9.40028	0.445
9.43999	0.25
9.47971	0.244
9.51942	0.46
9.55914	0.612
9.59886	0.661
9.63857	0.682
9.67829	0.682
9.71801	0.654
9.75772	0.578
9.79744	0.456
9.83716	0.162
9.87687	0.044
9.91659	0.084
9.95631	0.247
9.99602	0.343
10.0357	0.465
10.0755	0.521
10.1152	0.521
10.1549	0.493
10.1946	0.524
10.2343	0.606
10.274	0.654
10.3138	0.677
10.3535	0.689
10.3932	0.666
10.4329	0.588
10.4726	0.548
10.5123	0.641
10.5521	0.717
10.5918	0.76
10.6315	0.784
10.6712	0.794
10.7109	0.802
10.7506	0.808
10.7904	0.812
10.8301	0.817
10.8698	0.823
10.9095	0.827
10.9492	0.835
10.9889	0.842
11.0287	0.845
11.0684	0.848
11.1081	0.848
11.1478	0.852
11.1875	0.852
11.2272	0.852
11.267	0.85
11.3067	0.838
11.3464	0.827
11.3861	0.808
11.4258	0.785
11.4655	0.735
11.5053	0.657
11.545	0.528
11.5847	0.362
11.6244	0.28
11.6641	0.337
11.7038	0.435
11.7436	0.491
11.7833	0.5
11.823	0.491
11.8627	0.436
11.9024	0.33
11.9421	0.222
11.9818	0.147
12.0216	0.159
12.0613	0.23
12.101	0.303
12.1407	0.355
12.1804	0.385
12.2201	0.406
12.2599	0.425
12.2996	0.461
12.3393	0.498
12.379	0.519
12.4187	0.529
12.4584	0.549
12.4982	0.609
12.5379	0.676
12.5776	0.732
12.6173	0.762
12.657	0.789
12.6967	0.803
12.7365	0.82
12.7762	0.828
12.8159	0.835
12.8556	0.842
12.8953	0.843
12.935	0.845
12.9748	0.85
13.0145	0.852
13.0542	0.858
13.0939	0.865
13.1336	0.872
13.1733	0.877
13.2131	0.878
13.2528	0.88
13.2925	0.883
13.3322	0.887
13.3719	0.89
13.4116	0.893
13.4514	0.897
13.4911	0.898
13.5308	0.898
13.5705	0.898
13.6102	0.898
13.6499	0.897
13.6897	0.893
13.7294	0.892
13.7691	0.887
13.8088	0.882
13.8485	0.875
13.8882	0.872
13.928	0.868
13.9677	0.868
14.0074	0.867
14.0471	0.867
14.0868	0.862
14.1265	0.858
14.1663	0.853
14.206	0.85
14.2457	0.845
14.2854	0.842
14.3251	0.838
14.3648	0.832
14.4046	0.828
14.4443	0.825
14.484	0.82
14.5237	0.817
14.5634	0.808
14.6031	0.805
14.6429	0.8
14.6826	0.794
14.7223	0.79
14.762	0.784
14.8017	0.779
14.8414	0.772
14.8812	0.759
14.9209	0.744
14.9606	0.727
15.0003	0.72
15.04	0.715
15.0797	0.707
15.1195	0.696
15.1592	0.667
15.1989	0.642
15.2386	0.604
15.2783	0.571
15.318	0.553
15.3578	0.546
15.3975	0.554
15.4372	0.578
15.4769	0.594
15.5166	0.601
15.5563	0.609
15.5961	0.609
15.6358	0.606
15.6755	0.599
15.7152	0.596
15.7549	0.596
15.7946	0.594
15.8344	0.588
15.8741	0.584
15.9138	0.583
15.9535	0.579
