Infrared Spectrum: 2-Bromo-4-methylphenyl isothiocyanate
Formula: C 8 H 6 Br N S
CAS: 19241-39-5
State: gas
Origin: EPA-IR VAPOR PHASE LIBRARY
1/CM	ABSORBANCE
549.8	0.012535
559.445	0.007235
569.09	0.004475
578.734	0.004975
588.379	0.005825
598.024	0.003695
607.669	0.002815
617.313	0.002625
626.958	0.002185
636.603	0.002715
646.248	0.002105
655.893	0.003885
665.537	0.006035
675.182	0.007485
684.827	0.003215
694.472	0.002215
704.116	0.002625
713.761	0.0013351
723.406	0.0008729
733.051	0.002705
742.695	0.002005
752.34	0.0005209
761.985	0.001525
771.63	0.002725
781.275	0.002935
790.919	0.004205
800.564	0.016145
810.209	0.042235
819.854	0.028215
829.498	0.025905
839.143	0.030895
848.788	0.011335
858.433	0.006425
868.078	0.009105
877.722	0.007195
887.367	0.003365
897.012	0.002735
906.657	0.003635
916.301	0.006115
925.946	0.011335
935.591	0.024715
945.236	0.036315
954.88	0.025415
964.525	0.013235
974.17	0.008045
983.815	0.006045
993.46	0.004435
1003.1	0.003085
1012.75	0.002145
1022.39	0.002225
1032.04	0.003825
1041.68	0.010375
1051.33	0.022845
1060.97	0.013835
1070.62	0.004115
1080.26	0.002455
1089.91	0.001565
1099.55	0.001615
1109.2	0.0011906
1118.84	0.0011343
1128.49	0.0013498
1138.13	0.003305
1147.78	0.003595
1157.42	0.001188
1167.07	0.0012422
1176.71	0.001365
1186.36	0.001745
1196	0.004305
1205.64	0.008025
1215.29	0.005905
1224.93	0.002065
1234.58	0.002055
1244.22	0.003185
1253.87	0.004255
1263.51	0.004795
1273.16	0.007005
1282.8	0.007065
1292.45	0.003455
1302.09	0.002145
1311.74	0.001695
1321.38	0.001615
1331.03	0.001425
1340.67	0.001525
1350.32	0.001875
1359.96	0.002495
1369.61	0.003165
1379.25	0.005075
1388.9	0.008445
1398.54	0.009595
1408.18	0.007615
1417.83	0.007735
1427.47	0.005975
1437.12	0.005205
1446.76	0.005515
1456.41	0.006595
1466.05	0.012055
1475.7	0.041855
1485.34	0.092185
1494.99	0.062865
1504.63	0.019825
1514.28	0.010555
1523.92	0.008295
1533.57	0.007125
1543.21	0.006955
1552.86	0.007135
1562.5	0.005965
1572.15	0.004635
1581.79	0.005295
1591.44	0.007765
1601.08	0.007935
1610.73	0.004425
1620.37	0.003275
1630.01	0.002975
1639.66	0.002135
1649.3	0.001675
1658.95	0.001555
1668.59	0.001705
1678.24	0.001715
1687.88	0.001775
1697.53	0.001615
1707.17	0.001865
1716.82	0.002205
1726.46	0.002995
1736.11	0.004045
1745.75	0.004015
1755.4	0.003295
1765.04	0.002855
1774.69	0.003075
1784.33	0.003365
1793.98	0.003275
1803.62	0.003355
1813.27	0.003485
1822.91	0.003115
1832.55	0.002715
1842.2	0.002925
1851.84	0.003705
1861.49	0.004925
1871.13	0.007105
1880.78	0.010025
1890.42	0.011725
1900.07	0.011355
1909.71	0.012375
1919.36	0.014525
1929	0.017465
1938.65	0.021985
1948.29	0.029995
1957.94	0.042045
1967.58	0.058005
1977.23	0.078565
1986.87	0.105475
1996.52	0.139435
2006.16	0.180805
2015.81	0.231345
2025.45	0.289465
2035.1	0.362735
2044.74	0.458775
2054.38	0.510905
2064.03	0.421915
2073.67	0.300925
2083.32	0.251745
2092.96	0.254605
2102.61	0.241385
2112.25	0.207735
2121.9	0.176715
2131.54	0.145095
2141.19	0.111015
2150.83	0.072465
2160.48	0.045635
2170.12	0.035445
2179.77	0.031955
2189.41	0.029865
2199.06	0.026945
2208.7	0.022595
2218.35	0.020545
2227.99	0.018575
2237.64	0.013645
2247.28	0.008775
2256.92	0.005845
2266.57	0.004325
2276.21	0.003555
2285.86	0.003435
2295.5	0.003505
2305.15	0.003605
2314.79	0.003085
2324.44	0.003145
2334.08	0.003215
2343.73	0.002625
2353.37	0.002215
2363.02	0.002295
2372.66	0.002495
2382.31	0.002795
2391.95	0.002965
2401.6	0.003135
2411.24	0.003435
2420.89	0.003785
2430.53	0.004075
2440.18	0.003765
2449.82	0.003565
2459.47	0.003315
2469.11	0.003285
2478.75	0.003395
2488.4	0.003735
2498.04	0.004445
2507.69	0.004695
2517.33	0.004595
2526.98	0.005165
2536.62	0.005445
2546.27	0.005135
2555.91	0.004965
2565.56	0.004445
2575.2	0.003525
2584.85	0.002445
2594.49	0.002015
2604.14	0.002005
2613.78	0.001855
2623.43	0.001805
2633.07	0.001975
2642.72	0.002215
2652.36	0.002735
2662.01	0.003215
2671.65	0.004375
2681.29	0.006205
2690.94	0.008475
2700.58	0.009625
2710.23	0.007735
2719.87	0.004795
2729.52	0.003355
2739.16	0.002995
2748.81	0.002975
2758.45	0.002215
2768.1	0.001655
2777.74	0.0012807
2787.39	0.0011293
2797.03	0.0012204
2806.68	0.0012323
2816.32	0.001415
2825.97	0.001545
2835.61	0.001885
2845.26	0.002725
2854.9	0.004025
2864.55	0.006095
2874.19	0.007765
2883.84	0.008315
2893.48	0.007835
2903.12	0.007275
2912.77	0.007925
2922.41	0.011245
2932.06	0.019005
2941.7	0.017485
2951.35	0.009645
2960.99	0.007115
2970.64	0.006065
2980.28	0.005485
2989.93	0.006345
2999.57	0.006965
3009.22	0.007415
3018.86	0.008595
3028.51	0.009735
3038.15	0.012045
3047.8	0.009695
3057.44	0.007625
3067.09	0.008545
3076.73	0.007175
3086.38	0.004185
3096.02	0.003015
3105.67	0.002015
3115.31	0.001228
3124.95	0.0008536
3134.6	0.0006839
3144.24	0.000681
3153.89	0.0005606
3163.53	0.0002901
3173.18	0.000256
3182.82	0.0002837
3192.47	0.0003532
3202.11	0.000175
3211.76	0.000111
3221.4	0.000185
3231.05	0.00016
3240.69	0.000197
3250.34	0.00019
3259.98	6e-05
3269.63	0.000146
3279.27	1.3e-05
3288.92	0.0002678
3298.56	0.000143
3308.21	0.00037593
3317.85	0.000202
3327.49	0.000218
3337.14	0.0002815
3346.78	0.0002779
3356.43	0.0004987
3366.07	0.0004964
3375.72	0.0003388
3385.36	0.000187
3395.01	0.000257
3404.65	0.000178
3414.3	0.0004799
3423.94	0.000186
3433.59	0.00046476
3443.23	0.000216
3452.88	0.00045877
3462.52	0.00038389
3472.17	0.0002933
3481.81	0.0003471
3491.46	0.00038157
3501.1	0.00038487
3510.75	0.0003234
3520.39	0.0005165
3530.04	0.0002988
3539.68	0.0004964
3549.32	0.000199
3558.97	0.0005206
3568.61	0.00043221
3578.26	0.0003288
3587.9	0.0003538
3597.55	0.00038323
3607.19	0.00040636
3616.84	0.000306
3626.48	0.0002882
3636.13	0.0003534
3645.77	0.00037131
3655.42	0.0004825
3665.06	0.000319
3674.71	0.0002729
3684.35	0.0004876
3694	0.0006659
3703.64	0.0005101
3713.29	0.0007701
3722.93	0.0005284
3732.58	0.00042528
3742.22	0.0005678
3751.86	0.0006099
3761.51	0.00062
3771.15	0.00043664
3780.8	0.0005245
3790.44	0.0005976
3800.09	0.0005592
3809.73	0.0005981
3819.38	0.0006501
3829.02	0.0006651
3838.67	0.00042396
3848.31	0.0007963
3857.96	0.0005933
3867.6	0.0005682
3877.25	0.0008067
3886.89	0.000818
3896.54	0.0009886
3906.18	0.001024
3915.83	0.0009538
3925.47	0.0011044
3935.12	0.0011488
3944.76	0.0012586
3954.41	0.001405
3964.05	0.0013236
3973.69	0.001425
3983.34	0.001745
3992.98	0.001775
