Infrared Spectrum: 2,4,5-Trimethylphenyl isothiocyanate
Formula: C 10 H 11 N S
CAS: 19241-18-0
State: gas
Origin: EPA-IR VAPOR PHASE LIBRARY
1/CM	ABSORBANCE
549.8	0.016304
559.445	0.016564
569.09	0.015194
578.734	0.012424
588.379	0.008654
598.024	0.005804
607.669	0.004284
617.313	0.003164
626.958	0.002244
636.603	0.004094
646.248	0.004644
655.893	0.003904
665.537	0.003284
675.182	0.001954
684.827	0.002074
694.472	0.002414
704.116	0.003054
713.761	0.006574
723.406	0.012844
733.051	0.007154
742.695	0.004864
752.34	0.006374
761.985	0.011734
771.63	0.009264
781.275	0.003084
790.919	0.002584
800.564	0.003474
810.209	0.003484
819.854	0.003264
829.498	0.004074
839.143	0.004674
848.788	0.008354
858.433	0.018044
868.078	0.040114
877.722	0.054154
887.367	0.037904
897.012	0.026344
906.657	0.026694
916.301	0.026584
925.946	0.020734
935.591	0.014274
945.236	0.009274
954.88	0.005994
964.525	0.004524
974.17	0.003384
983.815	0.003574
993.46	0.005834
1003.1	0.008314
1012.75	0.008144
1022.39	0.008214
1032.04	0.006384
1041.68	0.004274
1051.33	0.003144
1060.97	0.002924
1070.62	0.002304
1080.26	0.001764
1089.91	0.003154
1099.55	0.003654
1109.2	0.0014705
1118.84	0.001544
1128.49	0.001884
1138.13	0.002094
1147.78	0.002084
1157.42	0.002194
1167.07	0.002694
1176.71	0.003724
1186.36	0.005324
1196	0.011354
1205.64	0.018514
1215.29	0.010594
1224.93	0.005834
1234.58	0.005664
1244.22	0.004214
1253.87	0.003844
1263.51	0.005144
1273.16	0.005674
1282.8	0.005374
1292.45	0.004904
1302.09	0.004344
1311.74	0.003944
1321.38	0.003744
1331.03	0.003774
1340.67	0.003894
1350.32	0.004174
1359.96	0.004764
1369.61	0.006814
1379.25	0.008984
1388.9	0.010064
1398.54	0.013504
1408.18	0.011174
1417.83	0.008244
1427.47	0.009214
1437.12	0.013694
1446.76	0.022394
1456.41	0.032594
1466.05	0.033654
1475.7	0.022994
1485.34	0.021634
1494.99	0.050294
1504.63	0.073194
1514.28	0.030954
1523.92	0.014394
1533.57	0.011704
1543.21	0.012044
1552.86	0.013184
1562.5	0.014204
1572.15	0.014134
1581.79	0.012424
1591.44	0.010184
1601.08	0.009934
1610.73	0.014074
1620.37	0.014224
1630.01	0.006914
1639.66	0.004734
1649.3	0.004124
1658.95	0.003384
1668.59	0.002684
1678.24	0.002424
1687.88	0.002384
1697.53	0.002524
1707.17	0.002844
1716.82	0.003634
1726.46	0.005164
1736.11	0.006374
1745.75	0.005194
1755.4	0.003804
1765.04	0.003534
1774.69	0.003684
1784.33	0.004074
1793.98	0.004264
1803.62	0.004344
1813.27	0.004224
1822.91	0.004194
1832.55	0.004124
1842.2	0.004044
1851.84	0.003914
1861.49	0.003954
1871.13	0.004194
1880.78	0.004754
1890.42	0.005774
1900.07	0.007434
1909.71	0.009384
1919.36	0.011894
1929	0.015734
1938.65	0.021684
1948.29	0.030974
1957.94	0.045404
1967.58	0.063924
1977.23	0.081014
1986.87	0.100324
1996.52	0.127354
2006.16	0.160224
2015.81	0.201064
2025.45	0.252454
2035.1	0.313854
2044.74	0.389624
2054.38	0.474764
2064.03	0.511074
2073.67	0.480874
2083.32	0.458014
2092.96	0.439404
2102.61	0.389124
2112.25	0.310054
2121.9	0.230764
2131.54	0.181404
2141.19	0.164614
2150.83	0.153404
2160.48	0.120424
2170.12	0.078314
2179.77	0.052334
2189.41	0.042014
2199.06	0.030774
2208.7	0.019984
2218.35	0.015184
2227.99	0.011904
2237.64	0.008914
2247.28	0.006564
2256.92	0.005284
2266.57	0.004894
2276.21	0.005314
2285.86	0.006174
2295.5	0.007284
2305.15	0.006874
2314.79	0.004244
2324.44	0.003424
2334.08	0.003474
2343.73	0.003974
2353.37	0.004984
2363.02	0.005484
2372.66	0.005634
2382.31	0.005214
2391.95	0.004294
2401.6	0.004004
2411.24	0.004384
2420.89	0.004524
2430.53	0.004404
2440.18	0.004674
2449.82	0.004714
2459.47	0.004584
2469.11	0.004914
2478.75	0.005014
2488.4	0.005134
2498.04	0.004644
2507.69	0.004234
2517.33	0.004354
2526.98	0.004554
2536.62	0.004764
2546.27	0.005144
2555.91	0.005464
2565.56	0.005574
2575.2	0.004994
2584.85	0.004144
2594.49	0.003434
2604.14	0.003164
2613.78	0.002964
2623.43	0.002964
2633.07	0.002954
2642.72	0.003134
2652.36	0.003244
2662.01	0.003554
2671.65	0.004134
2681.29	0.004864
2690.94	0.004994
2700.58	0.004804
2710.23	0.004724
2719.87	0.004534
2729.52	0.004364
2739.16	0.004534
2748.81	0.004154
2758.45	0.003884
2768.1	0.003924
2777.74	0.003584
2787.39	0.003154
2797.03	0.003274
2806.68	0.003604
2816.32	0.004274
2825.97	0.005224
2835.61	0.006444
2845.26	0.008524
2854.9	0.011654
2864.55	0.018454
2874.19	0.028874
2883.84	0.030034
2893.48	0.025524
2903.12	0.023534
2912.77	0.025014
2922.41	0.038104
2932.06	0.063974
2941.7	0.057734
2951.35	0.040364
2960.99	0.034404
2970.64	0.032114
2980.28	0.035124
2989.93	0.029364
2999.57	0.021314
3009.22	0.023074
3018.86	0.032484
3028.51	0.028754
3038.15	0.016604
3047.8	0.013084
3057.44	0.011874
3067.09	0.009944
3076.73	0.007914
3086.38	0.006204
3096.02	0.004834
3105.67	0.004504
3115.31	0.004164
3124.95	0.003514
3134.6	0.002524
3144.24	0.001854
3153.89	0.0012043
3163.53	0.0010161
3173.18	0.0008671
3182.82	0.0007617
3192.47	0.00052789
3202.11	0.0004576
3211.76	0.0004124
3221.4	0.000391
3231.05	0.000298
3240.69	0.000332
3250.34	0.00029
3259.98	0.000183
3269.63	0.000324
3279.27	0.00051597
3288.92	0.000176
3298.56	0.000172
3308.21	0.000299
3317.85	0.000374
3327.49	0.000166
3337.14	0.000324
3346.78	0.000206
3356.43	0.000227
3366.07	0.000246
3375.72	0.000174
3385.36	0.000188
3395.01	0.0004311
3404.65	0.000245
3414.3	0.000231
3423.94	0.00050446
3433.59	0.0004428
3443.23	0.000284
3452.88	0.0004378
3462.52	0.000295
3472.17	0.00053558
3481.81	0.000311
3491.46	0.000329
3501.1	0.000298
3510.75	0.00048958
3520.39	0.000234
3530.04	0.00048575
3539.68	0.000344
3549.32	0.00052675
3558.97	0.0004702
3568.61	0.0004814
3578.26	0.0004724
3587.9	0.00054044
3597.55	0.0004759
3607.19	0.00055536
3616.84	0.0004612
3626.48	0.000329
3636.13	0.00051188
3645.77	0.00051465
3655.42	0.00048563
3665.06	0.0004213
3674.71	0.000503687
3684.35	0.000318
3694	0.000369
3703.64	0.000294
3713.29	0.00058509
3722.93	0.0004633
3732.58	0.0006267
3742.22	0.0004669
3751.86	0.00059159
3761.51	0.00064
3771.15	0.0006426
3780.8	0.0006362
3790.44	0.000621
3800.09	0.0006268
3809.73	0.0004931
3819.38	0.0009475
3829.02	0.0008709
3838.67	0.0007362
3848.31	0.0007453
3857.96	0.0008855
3867.6	0.0007977
3877.25	0.0008199
3886.89	0.0010469
3896.54	0.0011707
3906.18	0.0011794
3915.83	0.0010974
3925.47	0.0013615
3935.12	0.0011995
3944.76	0.0013745
3954.41	0.0013791
3964.05	0.0013992
3973.69	0.001574
3983.34	0.001604
3992.98	0.001774
