Infrared Spectrum: 4-Bromo-2-methylphenyl isothiocyanate
Formula: C 8 H 6 Br N S
CAS: 19241-38-4
State: gas
Origin: EPA-IR VAPOR PHASE LIBRARY
1/CM	ABSORBANCE
549.8	0.016983
559.445	0.018423
569.09	0.010503
578.734	0.009973
588.379	0.008913
598.024	0.007993
607.669	0.008053
617.313	0.007153
626.958	0.006003
636.603	0.005383
646.248	0.006133
655.893	0.008573
665.537	0.009713
675.182	0.007243
684.827	0.004063
694.472	0.004833
704.116	0.003563
713.761	0.002713
723.406	0.003733
733.051	0.006373
742.695	0.004893
752.34	0.002833
761.985	0.003293
771.63	0.005393
781.275	0.007233
790.919	0.010713
800.564	0.037243
810.209	0.073903
819.854	0.058053
829.498	0.020463
839.143	0.010913
848.788	0.011333
858.433	0.017253
868.078	0.034793
877.722	0.030383
887.367	0.022993
897.012	0.033463
906.657	0.044313
916.301	0.052533
925.946	0.086623
935.591	0.182063
945.236	0.170393
954.88	0.063643
964.525	0.024663
974.17	0.013623
983.815	0.010803
993.46	0.010433
1003.1	0.007773
1012.75	0.005733
1022.39	0.004853
1032.04	0.005213
1041.68	0.005573
1051.33	0.007783
1060.97	0.014253
1070.62	0.032763
1080.26	0.042163
1089.91	0.036193
1099.55	0.029653
1109.2	0.013253
1118.84	0.024383
1128.49	0.022773
1138.13	0.019543
1147.78	0.010293
1157.42	0.006293
1167.07	0.007193
1176.71	0.021743
1186.36	0.091413
1196	0.036743
1205.64	0.008393
1215.29	0.005983
1224.93	0.005943
1234.58	0.008283
1244.22	0.015873
1253.87	0.019933
1263.51	0.020743
1273.16	0.020393
1282.8	0.008093
1292.45	0.005533
1302.09	0.004853
1311.74	0.004553
1321.38	0.003383
1331.03	0.003123
1340.67	0.003313
1350.32	0.004083
1359.96	0.005593
1369.61	0.010133
1379.25	0.014033
1388.9	0.021543
1398.54	0.031143
1408.18	0.025263
1417.83	0.020373
1427.47	0.015303
1437.12	0.018283
1446.76	0.025503
1456.41	0.039183
1466.05	0.102683
1475.7	0.203733
1485.34	0.157193
1494.99	0.074483
1504.63	0.027153
1514.28	0.017403
1523.92	0.013843
1533.57	0.012743
1543.21	0.012153
1552.86	0.012393
1562.5	0.013893
1572.15	0.017183
1581.79	0.020713
1591.44	0.019433
1601.08	0.013823
1610.73	0.010533
1620.37	0.010293
1630.01	0.007923
1639.66	0.004953
1649.3	0.003883
1658.95	0.003803
1668.59	0.003793
1678.24	0.003813
1687.88	0.003463
1697.53	0.003103
1707.17	0.003253
1716.82	0.003823
1726.46	0.005343
1736.11	0.008193
1745.75	0.009453
1755.4	0.007683
1765.04	0.007193
1774.69	0.008193
1784.33	0.008083
1793.98	0.007703
1803.62	0.007963
1813.27	0.008603
1822.91	0.009383
1832.55	0.010373
1842.2	0.012013
1851.84	0.014383
1861.49	0.017693
1871.13	0.021793
1880.78	0.022793
1890.42	0.020043
1900.07	0.019513
1909.71	0.022463
1919.36	0.027733
1929	0.037163
1938.65	0.052193
1948.29	0.071223
1957.94	0.094963
1967.58	0.130753
1977.23	0.178893
1986.87	0.240073
1996.52	0.320023
2006.16	0.423203
2015.81	0.542313
2025.45	0.670053
2035.1	0.827473
2044.74	0.996833
2054.38	0.972123
2064.03	0.870643
2073.67	0.876873
2083.32	0.825103
2092.96	0.752743
2102.61	0.600843
2112.25	0.416173
2121.9	0.338143
2131.54	0.331323
2141.19	0.312583
2150.83	0.224723
2160.48	0.137013
2170.12	0.098693
2179.77	0.089783
2189.41	0.093163
2199.06	0.081723
2208.7	0.052873
2218.35	0.033263
2227.99	0.021923
2237.64	0.016283
2247.28	0.013033
2256.92	0.011193
2266.57	0.010143
2276.21	0.009633
2285.86	0.009443
2295.5	0.009693
2305.15	0.009913
2314.79	0.009453
2324.44	0.008703
2334.08	0.008213
2343.73	0.008193
2353.37	0.008463
2363.02	0.008823
2372.66	0.008853
2382.31	0.007643
2391.95	0.006383
2401.6	0.005403
2411.24	0.005073
2420.89	0.005373
2430.53	0.005983
2440.18	0.006193
2449.82	0.006053
2459.47	0.006043
2469.11	0.006343
2478.75	0.007503
2488.4	0.009163
2498.04	0.010243
2507.69	0.010223
2517.33	0.009143
2526.98	0.008463
2536.62	0.008273
2546.27	0.008383
2555.91	0.008663
2565.56	0.008293
2575.2	0.007783
2584.85	0.008163
2594.49	0.009813
2604.14	0.012443
2613.78	0.014723
2623.43	0.015553
2633.07	0.014843
2642.72	0.013143
2652.36	0.010623
2662.01	0.008043
2671.65	0.006273
2681.29	0.005923
2690.94	0.006013
2700.58	0.005943
2710.23	0.005503
2719.87	0.005553
2729.52	0.006153
2739.16	0.006803
2748.81	0.007003
2758.45	0.006073
2768.1	0.005013
2777.74	0.004543
2787.39	0.004103
2797.03	0.003843
2806.68	0.003613
2816.32	0.003463
2825.97	0.004003
2835.61	0.004323
2845.26	0.005223
2854.9	0.006383
2864.55	0.008203
2874.19	0.009983
2883.84	0.010043
2893.48	0.009393
2903.12	0.009603
2912.77	0.010983
2922.41	0.015243
2932.06	0.022033
2941.7	0.022513
2951.35	0.017303
2960.99	0.015943
2970.64	0.016223
2980.28	0.017163
2989.93	0.019363
2999.57	0.016543
3009.22	0.011703
3018.86	0.010413
3028.51	0.011193
3038.15	0.011433
3047.8	0.009993
3057.44	0.008923
3067.09	0.008093
3076.73	0.008153
3086.38	0.008943
3096.02	0.007343
3105.67	0.004093
3115.31	0.002523
3124.95	0.002013
3134.6	0.0016251
3144.24	0.0012589
3153.89	0.0010247
3163.53	0.0008948
3173.18	0.000556
3182.82	0.000653
3192.47	0.000408
3202.11	0.000398
3211.76	0.000279
3221.4	0.000259
3231.05	0.000121
3240.69	0.000307
3250.34	0.000252
3259.98	0.000162
3269.63	0.000222
3279.27	0.000454
3288.92	0.000472
3298.56	0.000289
3308.21	0.000345
3317.85	0.000299
3327.49	0.000144
3337.14	0.000398
3346.78	6.1e-05
3356.43	0.000413
3366.07	0.000244
3375.72	0.000373
3385.36	0.000303
3395.01	0.0003
3404.65	0.000299
3414.3	0.000167
3423.94	0.000428
3433.59	0.000458
3443.23	0.000381
3452.88	0.000556
3462.52	0.00057
3472.17	0.000388
3481.81	0.000573
3491.46	0.000507
3501.1	0.0006992
3510.75	0.000463
3520.39	0.000396
3530.04	0.000603
3539.68	0.000437
3549.32	0.000704
3558.97	0.000539
3568.61	0.000592
3578.26	0.000572
3587.9	0.000622
3597.55	0.000643
3607.19	0.000373
3616.84	0.000302
3626.48	0.000542
3636.13	0.000439
3645.77	0.000685
3655.42	0.000654
3665.06	0.000601
3674.71	0.000634
3684.35	0.000492
3694	0.000641
3703.64	0.0007276
3713.29	0.000661
3722.93	0.0009758
3732.58	0.00084013
3742.22	0.000645
3751.86	0.00078852
3761.51	0.000654
3771.15	0.0010828
3780.8	0.0008669
3790.44	0.0009853
3800.09	0.0008652
3809.73	0.00082917
3819.38	0.000634
3829.02	0.00086174
3838.67	0.0008938
3848.31	0.0008634
3857.96	0.0011032
3867.6	0.0012135
3877.25	0.0013097
3886.89	0.0014613
3896.54	0.0016597
3906.18	0.001803
3915.83	0.001903
3925.47	0.002093
3935.12	0.002093
3944.76	0.002313
3954.41	0.002443
3964.05	0.002583
3973.69	0.002833
3983.34	0.003353
3992.98	0.003543
