Infrared Spectrum: 2-DIMETHYLAMINO-3,3-DIMETHYL CYCLOBUTANE METHYLAMINE
Formula: C9 H20 N2
CAS: 19244-82-7
Boiling point: 101-103 C AT 39 mmHg
Class: COBLENTZ
Instrument: Not specified, most likely a prism, grating, or hybrid spectrometer.
Sampling: TRANSMISSION
Path length: SMEAR
Resolution: 4
Origin: TENNESSEE EASTMAN COMPANY, RESEARCH LABORATORIES
MICROMETERS	TRANSMITTANCE
2	0.994
2.04098	0.994
2.08195	0.994
2.12293	0.994
2.16391	0.994
2.20488	0.989
2.24586	0.931
2.28684	0.928
2.32781	0.931
2.36879	0.926
2.40977	0.928
2.45074	0.938
2.49172	0.945
2.5327	0.952
2.57367	0.953
2.61465	0.953
2.65563	0.958
2.6966	0.947
2.73758	0.914
2.77856	0.849
2.81953	0.788
2.86051	0.705
2.90149	0.627
2.94246	0.464
2.98344	0.466
3.02442	0.434
3.06539	0.473
3.10637	0.529
3.14735	0.555
3.18832	0.617
3.2293	0.634
3.27028	0.634
3.31125	0.531
3.35223	0.003
3.39321	0.013
3.43418	0.078
3.47516	0.097
3.51614	0.085
3.55711	0.194
3.59809	0.037
3.63907	0.273
3.68004	0.466
3.72102	0.558
3.762	0.56
3.80297	0.641
3.84395	0.699
3.88493	0.724
3.9259	0.731
3.96688	0.747
4.00786	0.76
4.04883	0.76
4.08981	0.791
4.13079	0.801
4.17176	0.805
4.21274	0.823
4.25372	0.822
4.29469	0.822
4.33567	0.829
4.37665	0.842
4.41762	0.844
4.4586	0.842
4.49958	0.846
4.54055	0.846
4.58153	0.846
4.62251	0.842
4.66348	0.837
4.70446	0.844
4.74544	0.847
4.78641	0.851
4.82739	0.859
4.86837	0.864
4.90934	0.868
4.95032	0.876
4.9913	0.887
5.03227	0.894
5.07325	0.89
5.11423	0.883
5.1552	0.885
5.19618	0.894
5.23716	0.897
5.27813	0.897
5.31911	0.897
5.36009	0.895
5.40106	0.899
5.44204	0.895
5.48302	0.888
5.52399	0.887
5.56497	0.885
5.60595	0.89
5.64692	0.89
5.6879	0.88
5.72888	0.852
5.76985	0.835
5.81083	0.834
5.85181	0.818
5.89278	0.788
5.93376	0.765
5.97474	0.723
6.01571	0.682
6.05669	0.632
6.09767	0.586
6.13864	0.535
6.17962	0.482
6.2206	0.461
6.26157	0.439
6.30255	0.442
6.34353	0.476
6.3845	0.519
6.42548	0.582
6.46646	0.61
6.50743	0.649
6.54841	0.652
6.58939	0.649
6.63036	0.61
6.67134	0.553
6.71232	0.444
6.75329	0.261
6.79427	0.087
6.83525	0.052
6.87622	0.162
6.9172	0.239
6.95818	0.372
6.99915	0.511
7.04013	0.635
7.08111	0.659
7.12208	0.617
7.16306	0.516
7.20404	0.36
7.24501	0.343
7.28599	0.278
7.32697	0.29
7.36794	0.377
7.40892	0.386
7.4499	0.471
7.49087	0.514
7.53185	0.517
7.57283	0.516
7.6138	0.531
7.65478	0.531
7.69576	0.517
7.73673	0.533
7.77771	0.541
7.81869	0.406
7.85966	0.34
7.90064	0.495
7.94162	0.594
7.98259	0.649
8.02357	0.663
8.06455	0.649
8.10552	0.596
8.1465	0.341
8.18748	0.217
8.22845	0.398
8.26943	0.512
8.31041	0.582
8.35138	0.582
8.39236	0.62
8.43334	0.622
8.47431	0.61
8.51529	0.608
8.55627	0.576
8.59724	0.547
8.63822	0.408
8.6792	0.278
8.72017	0.441
8.76115	0.572
8.80213	0.611
8.8431	0.625
8.88408	0.622
8.92506	0.603
8.96603	0.591
9.00701	0.576
9.04799	0.5
9.08896	0.454
9.12994	0.439
9.17092	0.422
9.21189	0.437
9.25287	0.391
9.29385	0.316
9.33482	0.309
9.3758	0.374
9.41678	0.485
9.45775	0.526
9.49873	0.535
9.53971	0.43
9.58068	0.297
9.62166	0.401
9.66264	0.547
9.70361	0.603
9.74459	0.615
9.78557	0.613
9.82654	0.608
9.86752	0.608
9.9085	0.598
9.94947	0.591
9.99045	0.608
10.0314	0.642
10.0724	0.668
10.1134	0.668
10.1544	0.67
10.1953	0.68
10.2363	0.69
10.2773	0.694
10.3183	0.69
10.3592	0.671
10.4002	0.663
10.4412	0.661
10.4822	0.659
10.5231	0.652
10.5641	0.635
10.6051	0.625
10.6461	0.62
10.6871	0.605
10.728	0.589
10.769	0.567
10.81	0.54
10.851	0.482
10.8919	0.413
10.9329	0.275
10.9739	0.22
11.0149	0.282
11.0558	0.35
11.0968	0.403
11.1378	0.43
11.1788	0.434
11.2197	0.43
11.2607	0.418
11.3017	0.401
11.3427	0.388
11.3837	0.415
11.4246	0.432
11.4656	0.439
11.5066	0.442
11.5476	0.442
11.5885	0.441
11.6295	0.437
11.6705	0.422
11.7115	0.413
11.7524	0.401
11.7934	0.391
11.8344	0.384
11.8754	0.376
11.9164	0.367
11.9573	0.36
11.9983	0.348
12.0393	0.335
12.0803	0.326
12.1212	0.324
12.1622	0.319
12.2032	0.319
12.2442	0.321
12.2851	0.335
12.3261	0.348
12.3671	0.358
12.4081	0.364
12.449	0.372
12.49	0.382
12.531	0.396
12.572	0.401
12.613	0.411
12.6539	0.42
12.6949	0.439
12.7359	0.463
12.7769	0.49
12.8178	0.512
12.8588	0.533
12.8998	0.536
12.9408	0.533
12.9817	0.519
13.0227	0.514
13.0637	0.524
13.1047	0.543
13.1457	0.569
13.1866	0.593
13.2276	0.611
13.2686	0.625
13.3096	0.642
13.3505	0.652
13.3915	0.663
13.4325	0.671
13.4735	0.675
13.5144	0.682
13.5554	0.685
13.5964	0.687
13.6374	0.692
13.6783	0.697
13.7193	0.7
13.7603	0.7
13.8013	0.702
13.8423	0.702
13.8832	0.702
13.9242	0.705
13.9652	0.707
14.0062	0.707
14.0471	0.709
14.0881	0.709
14.1291	0.709
14.1701	0.709
14.211	0.704
14.252	0.705
14.293	0.7
14.334	0.702
14.375	0.699
14.4159	0.697
14.4569	0.692
14.4979	0.69
14.5389	0.687
14.5798	0.687
14.6208	0.683
14.6618	0.683
14.7028	0.682
14.7437	0.68
14.7847	0.676
14.8257	0.673
14.8667	0.67
14.9076	0.663
14.9486	0.654
14.9896	0.646
15.0306	0.644
15.0716	0.642
15.1125	0.641
15.1535	0.635
15.1945	0.63
15.2355	0.622
15.2764	0.617
15.3174	0.611
15.3584	0.61
15.3994	0.601
15.4403	0.598
15.4813	0.594
15.5223	0.589
15.5633	0.582
15.6043	0.579
15.6452	0.576
15.6862	0.574
15.7272	0.567
15.7682	0.557
15.8091	0.555
15.8501	0.553
15.8911	0.552
15.9321	0.55
15.973	0.547
