Infrared Spectrum: 5-Chloro-2-methylphenyl isothiocyanate
Formula: C 8 H 6 Cl N S
CAS: 19241-36-2
State: gas
Origin: EPA-IR VAPOR PHASE LIBRARY
1/CM	ABSORBANCE
549.8	0.01057
559.445	0.01044
569.09	0.01197
578.735	0.00795
588.38	0.0045
598.025	0.00322
607.67	0.00391
617.315	0.00532
626.96	0.00356
636.605	0.00292
646.251	0.00621
655.896	0.00837
665.541	0.00585
675.186	0.00605
684.831	0.00826
694.476	0.01236
704.121	0.0143
713.766	0.01055
723.411	0.0036
733.056	0.0017435
742.701	0.00254
752.346	0.00277
761.991	0.0017946
771.636	0.0019709
781.281	0.00337
790.926	0.00817
800.571	0.03406
810.216	0.05419
819.861	0.01583
829.507	0.00337
839.152	0.0021735
848.797	0.00254
858.442	0.00731
868.087	0.01506
877.732	0.00845
887.377	0.00361
897.022	0.00323
906.667	0.00314
916.312	0.00314
925.957	0.00276
935.602	0.00343
945.247	0.00629
954.892	0.01266
964.537	0.01529
974.182	0.01043
983.827	0.00733
993.472	0.00701
1003.12	0.00553
1012.76	0.00331
1022.41	0.0021703
1032.05	0.0018796
1041.7	0.0015944
1051.34	0.00148308
1060.99	0.00148577
1070.63	0.00285
1080.28	0.00913
1089.92	0.01442
1099.57	0.00618
1109.21	0.00301
1118.86	0.00518
1128.5	0.00614
1138.15	0.00512
1147.79	0.00362
1157.44	0.0018706
1167.08	0.0015062
1176.73	0.0021654
1186.37	0.00321
1196.02	0.00344
1205.66	0.0015575
1215.31	0.001013
1224.95	0.0018058
1234.6	0.00336
1244.24	0.00311
1253.89	0.0023946
1263.53	0.0042
1273.18	0.00474
1282.82	0.00247
1292.47	0.0017569
1302.11	0.0014281
1311.76	0.001202
1321.4	0.001198
1331.05	0.00117
1340.69	0.001348
1350.34	0.0016529
1359.98	0.0020938
1369.63	0.00309
1379.27	0.00492
1388.92	0.00705
1398.56	0.00845
1408.21	0.00603
1417.85	0.00365
1427.5	0.00615
1437.14	0.01111
1446.79	0.01007
1456.43	0.00978
1466.08	0.0123
1475.73	0.02806
1485.37	0.05663
1495.02	0.03038
1504.66	0.01075
1514.31	0.00833
1523.95	0.0052
1533.6	0.0046
1543.24	0.00569
1552.89	0.00922
1562.53	0.01618
1572.18	0.02424
1581.82	0.03286
1591.47	0.05004
1601.11	0.02732
1610.76	0.00988
1620.4	0.00728
1630.05	0.0046
1639.69	0.00252
1649.34	0.0018116
1658.98	0.0016401
1668.63	0.00147827
1678.27	0.0015552
1687.92	0.0015655
1697.56	0.0016502
1707.21	0.0017597
1716.85	0.0019505
1726.5	0.00261
1736.14	0.00335
1745.79	0.00352
1755.43	0.00287
1765.08	0.00274
1774.72	0.00268
1784.37	0.0024487
1794.01	0.0023076
1803.66	0.0023365
1813.3	0.0022814
1822.95	0.0020986
1832.59	0.0020837
1842.24	0.0021484
1851.88	0.0024065
1861.53	0.00288
1871.17	0.0039
1880.82	0.00536
1890.46	0.00544
1900.11	0.00634
1909.75	0.00875
1919.4	0.01204
1929.04	0.01544
1938.69	0.019
1948.33	0.02388
1957.98	0.03077
1967.62	0.03962
1977.27	0.05109
1986.91	0.06656
1996.56	0.0872
2006.2	0.11293
2015.85	0.14441
2025.49	0.18099
2035.14	0.22108
2044.78	0.24553
2054.43	0.23814
2064.07	0.23184
2073.72	0.24254
2083.36	0.23946
2093.01	0.19778
2102.65	0.13524
2112.3	0.09266
2121.94	0.07935
2131.59	0.08176
2141.23	0.07786
2150.88	0.05842
2160.52	0.03653
2170.17	0.02274
2179.81	0.01727
2189.46	0.01583
2199.1	0.01537
2208.75	0.01333
2218.39	0.01056
2228.04	0.00893
2237.68	0.00683
2247.33	0.00489
2256.97	0.00381
2266.62	0.00334
2276.26	0.00308
2285.91	0.00286
2295.55	0.00257
2305.2	0.0023382
2314.84	0.0024134
2324.49	0.00248
2334.13	0.0021478
2343.78	0.0020238
2353.42	0.0021952
2363.07	0.0021551
2372.72	0.0018317
2382.36	0.0016822
2392.01	0.0016674
2401.65	0.001793
2411.3	0.0021341
2420.94	0.00256
2430.59	0.00297
2440.23	0.00296
2449.88	0.00317
2459.52	0.00308
2469.17	0.00308
2478.81	0.00314
2488.46	0.00315
2498.1	0.00338
2507.75	0.00334
2517.39	0.00322
2527.04	0.00322
2536.68	0.00338
2546.33	0.00348
2555.97	0.00359
2565.62	0.0039
2575.26	0.00391
2584.91	0.00356
2594.55	0.00319
2604.2	0.00309
2613.84	0.00292
2623.49	0.0023973
2633.13	0.0017495
2642.78	0.001484
2652.42	0.001281
2662.07	0.001263
2671.71	0.001338
2681.36	0.001247
2691	0.001317
2700.65	0.001267
2710.29	0.0014279
2719.94	0.00151004
2729.58	0.0016855
2739.23	0.0021369
2748.87	0.0023875
2758.52	0.00267
2768.16	0.00263
2777.81	0.0023986
2787.45	0.0021108
2797.1	0.001829
2806.74	0.0019048
2816.39	0.0018996
2826.03	0.0021939
2835.68	0.0022238
2845.32	0.00256
2854.97	0.00277
2864.61	0.00341
2874.26	0.004
2883.9	0.00393
2893.55	0.00345
2903.19	0.00346
2912.84	0.00355
2922.48	0.0048
2932.13	0.00724
2941.77	0.00755
2951.42	0.00519
2961.06	0.00499
2970.71	0.00473
2980.35	0.00493
2990	0.00557
2999.64	0.0044
3009.29	0.00329
3018.93	0.00358
3028.58	0.00482
3038.22	0.0053
3047.87	0.00393
3057.51	0.00366
3067.16	0.00365
3076.8	0.00354
3086.45	0.00277
3096.09	0.0015617
3105.74	0.001083
3115.38	0.000851
3125.03	0.000581
3134.67	0.000601
3144.32	0.00039
3153.96	0.0002
3163.61	0.00039
3173.25	0.00041
3182.9	0.00043
3192.54	0.00027
3202.19	0.0002
3211.83	0.00014
3221.48	0.00016
3231.12	0.00015
3240.77	0.00016
3250.41	0.00038
3260.06	0.00034
3269.7	0.0004
3279.35	0.00029
3289	0.00014
3298.64	0.00034
3308.29	0.00029
3317.93	0.00016
3327.58	0.00028
3337.22	0.0002
3346.87	0.00023
3356.51	0.00024
3366.16	0.00018
3375.8	0
3385.45	0.00026
3395.09	0.00012
3404.74	0.00029
3414.38	0.00032
3424.03	0.00027
3433.67	0.00012
3443.32	0.00016
3452.96	0.00032
3462.61	0.00039
3472.25	0.00035
3481.9	0.00036
3491.54	0.00027
3501.19	0.00042
3510.83	0.0003
3520.48	0.00029
3530.12	0.00031
3539.77	0.00033
3549.41	0.00031
3559.06	0.00033
3568.7	0.00042
3578.35	0.000488
3587.99	0.00032
3597.64	0.00042
3607.28	0.000451
3616.93	0.00033
3626.57	0.0005
3636.22	0.000546
3645.86	0.000548
3655.51	0.00039
3665.15	0.000517
3674.8	0.000711
3684.44	0.000471
3694.09	0.00061
3703.73	0.0005
3713.38	0.000634
3723.02	0.000578
3732.67	0.000587
3742.31	0.000776
3751.96	0.000773
3761.6	0.00083
3771.25	0.000631
3780.89	0.000832
3790.54	0.000642
3800.18	0.000716
3809.83	0.000694
3819.47	0.000734
3829.12	0.000725
3838.76	0.000715
3848.41	0.000821
3858.05	0.000972
3867.7	0.00084
3877.34	0.000715
3886.99	0.001052
3896.63	0.000992
3906.28	0.001001
3915.92	0.001024
3925.57	0.001228
3935.21	0.001088
3944.86	0.001183
3954.5	0.001224
3964.15	0.001251
3973.79	0.001286
3983.44	0.0014097
3993.08	0.001446
