Infrared Spectrum: 3-Chloro-4-methylphenyl isothiocyanate
Formula: C 8 H 6 Cl N S
CAS: 19241-37-3
State: gas
Origin: EPA-IR VAPOR PHASE LIBRARY
1/CM	ABSORBANCE
549.8	0.030834
559.445	0.022814
569.09	0.017304
578.734	0.011914
588.379	0.010094
598.024	0.009964
607.669	0.011884
617.313	0.009094
626.958	0.005584
636.603	0.005394
646.248	0.005034
655.893	0.004704
665.537	0.002544
675.182	0.003884
684.827	0.010324
694.472	0.021474
704.116	0.040354
713.761	0.034354
723.406	0.010904
733.051	0.005594
742.695	0.003514
752.34	0.003374
761.985	0.005834
771.63	0.007384
781.275	0.007054
790.919	0.011994
800.564	0.041704
810.209	0.128034
819.854	0.113664
829.498	0.036474
839.143	0.017674
848.788	0.010274
858.433	0.019884
868.078	0.038724
877.722	0.029484
887.367	0.010954
897.012	0.006064
906.657	0.008304
916.301	0.008044
925.946	0.006524
935.591	0.007084
945.236	0.009774
954.88	0.017034
964.525	0.028734
974.17	0.026994
983.815	0.017994
993.46	0.015264
1003.1	0.013744
1012.75	0.008754
1022.39	0.006134
1032.04	0.008634
1041.68	0.028854
1051.33	0.051834
1060.97	0.029184
1070.62	0.008544
1080.26	0.004344
1089.91	0.002274
1099.55	0.001964
1109.2	0.001794
1118.84	0.002754
1128.49	0.003124
1138.13	0.003734
1147.78	0.004214
1157.42	0.002724
1167.07	0.002294
1176.71	0.002384
1186.36	0.003074
1196	0.006994
1205.64	0.008064
1215.29	0.003424
1224.93	0.004114
1234.58	0.007564
1244.22	0.012514
1253.87	0.011454
1263.51	0.011394
1273.16	0.015224
1282.8	0.016804
1292.45	0.008134
1302.09	0.004254
1311.74	0.003764
1321.38	0.003254
1331.03	0.002834
1340.67	0.002734
1350.32	0.002924
1359.96	0.004294
1369.61	0.007294
1379.25	0.010804
1388.9	0.015014
1398.54	0.014644
1408.18	0.009224
1417.83	0.008294
1427.47	0.013944
1437.12	0.026924
1446.76	0.027244
1456.41	0.022074
1466.05	0.028954
1475.7	0.059654
1485.34	0.176614
1494.99	0.139324
1504.63	0.037634
1514.28	0.026064
1523.92	0.017754
1533.57	0.017404
1543.21	0.024524
1552.86	0.041214
1562.5	0.051874
1572.15	0.040744
1581.79	0.033714
1591.44	0.065534
1601.08	0.125424
1610.73	0.064444
1620.37	0.020234
1630.01	0.011364
1639.66	0.006714
1649.3	0.004884
1658.95	0.004444
1668.59	0.004534
1678.24	0.004984
1687.88	0.004894
1697.53	0.004154
1707.17	0.004204
1716.82	0.004754
1726.46	0.006164
1736.11	0.007204
1745.75	0.007004
1755.4	0.005564
1765.04	0.005264
1774.69	0.006084
1784.33	0.006914
1793.98	0.006744
1803.62	0.006284
1813.27	0.005974
1822.91	0.005494
1832.55	0.005354
1842.2	0.005674
1851.84	0.006494
1861.49	0.007654
1871.13	0.010024
1880.78	0.013024
1890.42	0.016344
1900.07	0.021624
1909.71	0.029964
1919.36	0.042754
1929	0.059824
1938.65	0.077584
1948.29	0.097494
1957.94	0.125554
1967.58	0.160514
1977.23	0.202964
1986.87	0.264364
1996.52	0.355274
2006.16	0.448714
2015.81	0.522514
2025.45	0.615594
2035.1	0.797444
2044.74	0.850134
2054.38	0.549404
2064.03	0.350694
2073.67	0.347914
2083.32	0.460644
2092.96	0.556904
2102.61	0.471704
2112.25	0.299594
2121.9	0.193634
2131.54	0.158314
2141.19	0.146064
2150.83	0.125294
2160.48	0.091464
2170.12	0.062694
2179.77	0.045914
2189.41	0.038744
2199.06	0.036624
2208.7	0.036414
2218.35	0.032534
2227.99	0.025024
2237.64	0.020984
2247.28	0.018834
2256.92	0.014634
2266.57	0.010024
2276.21	0.007384
2285.86	0.005914
2295.5	0.004634
2305.15	0.003804
2314.79	0.003434
2324.44	0.003314
2334.08	0.003164
2343.73	0.002904
2353.37	0.002814
2363.02	0.003304
2372.66	0.003614
2382.31	0.004404
2391.95	0.005914
2401.6	0.007524
2411.24	0.008704
2420.89	0.008254
2430.53	0.006874
2440.18	0.006614
2449.82	0.006834
2459.47	0.007084
2469.11	0.007424
2478.75	0.007204
2488.4	0.006784
2498.04	0.006804
2507.69	0.007484
2517.33	0.007764
2526.98	0.008044
2536.62	0.007894
2546.27	0.008264
2555.91	0.008794
2565.56	0.009094
2575.2	0.007674
2584.85	0.005354
2594.49	0.004084
2604.14	0.003474
2613.78	0.003674
2623.43	0.003624
2633.07	0.003784
2642.72	0.003924
2652.36	0.004244
2662.01	0.004714
2671.65	0.005674
2681.29	0.007334
2690.94	0.009214
2700.58	0.009664
2710.23	0.009524
2719.87	0.008184
2729.52	0.006714
2739.16	0.006204
2748.81	0.005764
2758.45	0.005084
2768.1	0.003814
2777.74	0.003234
2787.39	0.002964
2797.03	0.002954
2806.68	0.003524
2816.32	0.003774
2825.97	0.004064
2835.61	0.004714
2845.26	0.005894
2854.9	0.007544
2864.55	0.009714
2874.19	0.011064
2883.84	0.009354
2893.48	0.008274
2903.12	0.008694
2912.77	0.009704
2922.41	0.012614
2932.06	0.021684
2941.7	0.026094
2951.35	0.015264
2960.99	0.013204
2970.64	0.013894
2980.28	0.014384
2989.93	0.014634
2999.57	0.011834
3009.22	0.009194
3018.86	0.009364
3028.51	0.012434
3038.15	0.013834
3047.8	0.010974
3057.44	0.009474
3067.09	0.010224
3076.73	0.009784
3086.38	0.007144
3096.02	0.004994
3105.67	0.003644
3115.31	0.002434
3124.95	0.001468
3134.6	0.0011878
3144.24	0.0010049
3153.89	0.0008819
3163.53	0.0007604
3173.18	0.0007087
3182.82	0.0005901
3192.47	0.0007059
3202.11	0.00049
3211.76	0.00028
3221.4	0.000178
3231.05	0.000348
3240.69	0.000376
3250.34	0.000207
3259.98	0.000311
3269.63	0.000162
3279.27	0.000175
3288.92	0
3298.56	0.000216
3308.21	0.000339
3317.85	0.000364
3327.49	0.000407
3337.14	0.000297
3346.78	0.000245
3356.43	0.000315
3366.07	0.000326
3375.72	0.000411
3385.36	0.000324
3395.01	0.000286
3404.65	0.000408
3414.3	0.000342
3423.94	0.000425
3433.59	0.000334
3443.23	0.000323
3452.88	0.000489
3462.52	0.000192
3472.17	0.000272
3481.81	0.000372
3491.46	0.00027
3501.1	0.000406
3510.75	0.000265
3520.39	0.000407
3530.04	0.000462
3539.68	0.000554
3549.32	0.00060141
3558.97	0.000251
3568.61	0.00026
3578.26	0.00015
3587.9	0.0005166
3597.55	0.000345
3607.19	0.000343
3616.84	0.000357
3626.48	0.000413
3636.13	0.000256
3645.77	0.00043
3655.42	0.000443
3665.06	0.000479
3674.71	0.000283
3684.35	0.0005249
3694	0.0005858
3703.64	0.0005464
3713.29	0.00067492
3722.93	0.00064473
3732.58	0.0005608
3742.22	0.00061625
3751.86	0.00063788
3761.51	0.0005242
3771.15	0.0006256
3780.8	0.0005701
3790.44	0.00051
3800.09	0.00070185
3809.73	0.0007359
3819.38	0.0007171
3829.02	0.000922
3838.67	0.0010991
3848.31	0.0007555
3857.96	0.0009667
3867.6	0.0012843
3877.25	0.0013177
3886.89	0.001614
3896.54	0.001704
3906.18	0.001754
3915.83	0.001774
3925.47	0.001894
3935.12	0.001924
3944.76	0.002204
3954.41	0.002444
3964.05	0.002294
3973.69	0.002604
3983.34	0.002764
3992.98	0.002884
