Infrared Spectrum: 3,4-Dimethylphenyl isothiocyanate
Formula: C 9 H 9 N S
CAS: 19241-17-9
State: gas
Origin: EPA-IR VAPOR PHASE LIBRARY
1/CM	ABSORBANCE
549.8	0.013268
559.445	0.013338
569.09	0.009118
578.734	0.006408
588.379	0.006878
598.024	0.008558
607.669	0.006678
617.313	0.003168
626.958	0.002198
636.603	0.001718
646.248	0.002358
655.893	0.002698
665.537	0.002228
675.182	0.0010383
684.827	0.0011995
694.472	0.001818
704.116	0.001778
713.761	0.0008876
723.406	0.0009536
733.051	0.001428
742.695	0.001788
752.34	0.001438
761.985	0.002238
771.63	0.002858
781.275	0.003218
790.919	0.007188
800.564	0.017688
810.209	0.031548
819.854	0.028578
829.498	0.039318
839.143	0.048268
848.788	0.025068
858.433	0.015138
868.078	0.018188
877.722	0.013898
887.367	0.007498
897.012	0.004958
906.657	0.004858
916.301	0.004678
925.946	0.003268
935.591	0.002928
945.236	0.003278
954.88	0.004388
964.525	0.009538
974.17	0.015138
983.815	0.010488
993.46	0.006438
1003.1	0.005728
1012.75	0.005368
1022.39	0.005128
1032.04	0.003408
1041.68	0.002108
1051.33	0.0013122
1060.97	0.0013552
1070.62	0.0010967
1080.26	0.001388
1089.91	0.0006992
1099.55	0.001648
1109.2	0.002918
1118.84	0.004238
1128.49	0.004548
1138.13	0.003378
1147.78	0.002408
1157.42	0.002308
1167.07	0.002428
1176.71	0.001478
1186.36	0.002118
1196	0.005058
1205.64	0.008118
1215.29	0.003978
1224.93	0.001938
1234.58	0.002248
1244.22	0.003418
1253.87	0.005098
1263.51	0.004928
1273.16	0.004708
1282.8	0.007028
1292.45	0.007848
1302.09	0.003478
1311.74	0.002338
1321.38	0.002258
1331.03	0.002238
1340.67	0.002268
1350.32	0.002398
1359.96	0.002908
1369.61	0.003918
1379.25	0.004868
1388.9	0.004468
1398.54	0.004008
1408.18	0.005278
1417.83	0.007108
1427.47	0.009858
1437.12	0.010918
1446.76	0.012758
1456.41	0.014708
1466.05	0.013718
1475.7	0.016558
1485.34	0.037588
1494.99	0.061818
1504.63	0.049218
1514.28	0.018118
1523.92	0.009218
1533.57	0.008458
1543.21	0.009278
1552.86	0.011238
1562.5	0.014128
1572.15	0.015978
1581.79	0.015448
1591.44	0.017348
1601.08	0.031598
1610.73	0.043728
1620.37	0.022538
1630.01	0.008038
1639.66	0.004298
1649.3	0.003138
1658.95	0.002558
1668.59	0.002198
1678.24	0.002218
1687.88	0.002088
1697.53	0.002018
1707.17	0.002008
1716.82	0.002618
1726.46	0.003228
1736.11	0.004028
1745.75	0.004088
1755.4	0.003368
1765.04	0.002958
1774.69	0.002838
1784.33	0.002818
1793.98	0.002828
1803.62	0.003208
1813.27	0.003738
1822.91	0.003588
1832.55	0.003818
1842.2	0.004228
1851.84	0.004788
1861.49	0.005288
1871.13	0.005628
1880.78	0.006018
1890.42	0.006448
1900.07	0.008098
1909.71	0.011048
1919.36	0.014768
1929	0.020478
1938.65	0.029898
1948.29	0.041378
1957.94	0.055268
1967.58	0.074798
1977.23	0.099518
1986.87	0.127408
1996.52	0.158168
2006.16	0.198888
2015.81	0.251868
2025.45	0.299698
2035.1	0.343258
2044.74	0.409168
2054.38	0.460098
2064.03	0.349718
2073.67	0.228568
2083.32	0.200838
2092.96	0.242048
2102.61	0.299018
2112.25	0.287368
2121.9	0.194668
2131.54	0.124558
2141.19	0.094948
2150.83	0.081968
2160.48	0.072128
2170.12	0.056108
2179.77	0.039378
2189.41	0.025548
2199.06	0.017638
2208.7	0.014578
2218.35	0.013488
2227.99	0.012358
2237.64	0.010288
2247.28	0.008628
2256.92	0.008338
2266.57	0.008068
2276.21	0.006558
2285.86	0.004728
2295.5	0.003628
2305.15	0.003198
2314.79	0.002708
2324.44	0.002378
2334.08	0.002028
2343.73	0.001738
2353.37	0.002008
2363.02	0.002468
2372.66	0.002708
2382.31	0.002908
2391.95	0.003408
2401.6	0.003988
2411.24	0.004638
2420.89	0.005118
2430.53	0.004618
2440.18	0.003948
2449.82	0.004028
2459.47	0.004118
2469.11	0.004038
2478.75	0.003798
2488.4	0.003788
2498.04	0.003768
2507.69	0.003698
2517.33	0.003758
2526.98	0.003688
2536.62	0.003918
2546.27	0.004418
2555.91	0.004198
2565.56	0.004198
2575.2	0.004008
2584.85	0.004198
2594.49	0.003838
2604.14	0.003058
2613.78	0.002428
2623.43	0.002258
2633.07	0.002488
2642.72	0.002648
2652.36	0.002858
2662.01	0.003228
2671.65	0.003388
2681.29	0.003698
2690.94	0.004318
2700.58	0.004948
2710.23	0.005208
2719.87	0.004628
2729.52	0.003778
2739.16	0.003528
2748.81	0.003428
2758.45	0.002788
2768.1	0.002698
2777.74	0.002428
2787.39	0.002178
2797.03	0.001988
2806.68	0.002148
2816.32	0.002568
2825.97	0.003038
2835.61	0.003898
2845.26	0.005148
2854.9	0.007528
2864.55	0.011788
2874.19	0.016128
2883.84	0.017298
2893.48	0.015758
2903.12	0.015158
2912.77	0.015998
2922.41	0.021838
2932.06	0.034508
2941.7	0.033528
2951.35	0.024288
2960.99	0.020778
2970.64	0.018938
2980.28	0.019228
2989.93	0.016358
2999.57	0.011948
3009.22	0.010638
3018.86	0.012588
3028.51	0.016648
3038.15	0.015318
3047.8	0.010788
3057.44	0.008998
3067.09	0.009008
3076.73	0.008738
3086.38	0.007068
3096.02	0.005288
3105.67	0.004248
3115.31	0.003468
3124.95	0.002698
3134.6	0.001758
3144.24	0.0012641
3153.89	0.0007345
3163.53	0.001003
3173.18	0.00045881
3182.82	0.0004972
3192.47	0.00043218
3202.11	0.000187
3211.76	0.0003522
3221.4	0.0003275
3231.05	0.00044429
3240.69	0.0003094
3250.34	0.000164
3259.98	0.000149
3269.63	0.0003651
3279.27	0.000278
3288.92	0.000306
3298.56	0.000275
3308.21	0.000262
3317.85	0.0003515
3327.49	0.000281
3337.14	0.000213
3346.78	0.0003453
3356.43	0.000248
3366.07	0.000216
3375.72	0.00043397
3385.36	0.00025
3395.01	0.000209
3404.65	0.0002
3414.3	0.00021
3423.94	0.000274
3433.59	0.000238
3443.23	0.00045945
3452.88	0.0003657
3462.52	0.00042458
3472.17	0.00039833
3481.81	0.00046126
3491.46	0.00045221
3501.1	0.000256
3510.75	0.00046452
3520.39	0.0005751
3530.04	0.0005244
3539.68	0.0003531
3549.32	0.0003439
3558.97	0.0004705
3568.61	0.0004942
3578.26	0.0005102
3587.9	0.00043632
3597.55	0.000141
3607.19	0.0005568
3616.84	0.0005227
3626.48	0.00046162
3636.13	0.00044024
3645.77	0.000386324
3655.42	0.00045207
3665.06	0.00041024
3674.71	0.0003131
3684.35	0.00045925
3694	0.00038474
3703.64	0.000566
3713.29	0.0006021
3722.93	0.00040656
3732.58	0.0003547
3742.22	0.0005539
3751.86	0.00046999
3761.51	0.0005672
3771.15	0.0005604
3780.8	0.0006127
3790.44	0.0005497
3800.09	0.0004965
3809.73	0.0006343
3819.38	0.0005865
3829.02	0.0007295
3838.67	0.0007348
3848.31	0.0007839
3857.96	0.0008877
3867.6	0.0009557
3877.25	0.000875
3886.89	0.0010641
3896.54	0.001202
3906.18	0.0012258
3915.83	0.0011457
3925.47	0.0012657
3935.12	0.001418
3944.76	0.001498
3954.41	0.001638
3964.05	0.001618
3973.69	0.001698
3983.34	0.001808
3992.98	0.001898
