Infrared Spectrum: BIS-(Beta-DIMETHYLAMINOETHYL)SUCCINATE
Formula: C12 H24 N2 O4
CAS: 19249-04-8
State: LIQUID
Class: COBLENTZ
Instrument: Not specified, most likely a grating spectrometer.
Sampling: TRANSMISSION
Path length: CAPILLARY
Resolution: 4
Origin: ABBOTT LABORATORIES
MICROMETERS	TRANSMITTANCE
2.034	0.892
2.06778	0.892
2.10157	0.891
2.13535	0.889
2.16914	0.891
2.20292	0.894
2.2367	0.889
2.27049	0.866
2.30427	0.855
2.33806	0.864
2.37184	0.863
2.40562	0.861
2.43941	0.866
2.47319	0.868
2.50697	0.868
2.54076	0.874
2.57454	0.874
2.60833	0.878
2.64211	0.881
2.67589	0.881
2.70968	0.874
2.74346	0.848
2.77725	0.833
2.81103	0.831
2.84481	0.825
2.8786	0.794
2.91238	0.799
2.94617	0.8
2.97995	0.803
3.01373	0.808
3.04752	0.812
3.0813	0.812
3.11509	0.807
3.14887	0.817
3.18265	0.82
3.21644	0.825
3.25022	0.817
3.28401	0.782
3.31779	0.528
3.35157	0.228
3.38536	0.171
3.41914	0.298
3.45292	0.349
3.48671	0.341
3.52049	0.28
3.55428	0.21
3.58806	0.2
3.62184	0.14
3.65563	0.42
3.68941	0.556
3.7232	0.701
3.75698	0.782
3.79076	0.81
3.82455	0.828
3.85833	0.835
3.89212	0.84
3.9259	0.845
3.95968	0.841
3.99347	0.836
4.02725	0.84
4.06104	0.843
4.09482	0.848
4.1286	0.851
4.16239	0.853
4.19617	0.855
4.22995	0.855
4.26374	0.855
4.29752	0.855
4.33131	0.848
4.36509	0.848
4.39887	0.855
4.43266	0.855
4.46644	0.853
4.50023	0.85
4.53401	0.85
4.56779	0.853
4.60158	0.856
4.63536	0.853
4.66915	0.848
4.70293	0.841
4.73671	0.84
4.7705	0.84
4.80428	0.84
4.83807	0.833
4.87185	0.817
4.90563	0.822
4.93942	0.825
4.9732	0.828
5.00698	0.827
5.04077	0.833
5.07455	0.841
5.10834	0.843
5.14212	0.843
5.1759	0.84
5.20969	0.84
5.24347	0.836
5.27726	0.835
5.31104	0.831
5.34482	0.828
5.37861	0.825
5.41239	0.818
5.44618	0.812
5.47996	0.799
5.51374	0.78
5.54753	0.751
5.58131	0.708
5.6151	0.635
5.64888	0.581
5.68266	0.354
5.71645	0.116
5.75023	0.023
5.78402	0.021
5.8178	0.077
5.85158	0.423
5.88537	0.523
5.91915	0.598
5.95293	0.663
5.98672	0.698
6.0205	0.696
6.05429	0.693
6.08807	0.719
6.12185	0.747
6.15564	0.775
6.18942	0.787
6.22321	0.797
6.25699	0.805
6.29077	0.81
6.32456	0.81
6.35834	0.807
6.39213	0.805
6.42591	0.8
6.45969	0.794
6.49348	0.795
6.52726	0.792
6.56105	0.787
6.59483	0.771
6.62861	0.754
6.6624	0.726
6.69618	0.691
6.72996	0.616
6.76375	0.492
6.79753	0.365
6.83132	0.215
6.8651	0.148
6.89888	0.151
6.93267	0.225
6.96645	0.298
7.00024	0.36
7.03402	0.345
7.0678	0.329
7.10159	0.299
7.13537	0.326
7.16916	0.301
7.20294	0.309
7.23672	0.349
7.27051	0.322
7.30429	0.275
7.33808	0.266
7.37186	0.293
7.40564	0.293
7.43943	0.222
7.47321	0.294
7.50699	0.347
7.54078	0.375
7.57456	0.367
7.60835	0.314
7.64213	0.238
7.67591	0.224
7.7097	0.23
7.74348	0.224
7.77727	0.199
7.81105	0.169
7.84483	0.135
7.87862	0.11
7.9124	0.102
7.94619	0.103
7.97997	0.123
8.01375	0.149
8.04754	0.151
8.08132	0.153
8.11511	0.151
8.14889	0.163
8.18267	0.159
8.21646	0.141
8.25024	0.118
8.28403	0.097
8.31781	0.095
8.35159	0.098
8.38538	0.102
8.41916	0.1
8.45294	0.087
8.48673	0.077
8.52051	0.032
8.5543	0.024
8.58808	0.021
8.62186	0.018
8.65565	0.018
8.68943	0.021
8.72322	0.024
8.757	0.064
8.79078	0.176
8.82457	0.331
8.85835	0.408
8.89214	0.492
8.92592	0.551
8.9597	0.584
8.99349	0.599
9.02727	0.604
9.06106	0.528
9.09484	0.434
9.12862	0.345
9.16241	0.426
9.19619	0.474
9.22997	0.479
9.26376	0.476
9.29754	0.446
9.33133	0.433
9.36511	0.425
9.39889	0.398
9.43268	0.367
9.46646	0.349
9.50025	0.36
9.53403	0.36
9.56781	0.303
9.6016	0.232
9.63538	0.164
9.66917	0.171
9.70295	0.163
9.73673	0.174
9.77052	0.189
9.8043	0.202
9.83809	0.212
9.87187	0.219
9.90565	0.24
9.93944	0.288
9.97322	0.327
10.007	0.355
10.0408	0.364
10.0746	0.37
10.1084	0.395
10.1421	0.401
10.1759	0.415
10.2097	0.42
10.2435	0.433
10.2773	0.444
10.3111	0.448
10.3448	0.461
10.3786	0.476
10.4124	0.476
10.4462	0.454
10.48	0.441
10.5138	0.433
10.5475	0.474
10.5813	0.563
10.6151	0.604
10.6489	0.644
10.6827	0.67
10.7165	0.695
10.7503	0.706
10.784	0.718
10.8178	0.721
10.8516	0.731
10.8854	0.734
10.9192	0.734
10.953	0.736
10.9867	0.739
11.0205	0.747
11.0543	0.742
11.0881	0.738
11.1219	0.719
11.1557	0.713
11.1894	0.706
11.2232	0.705
11.257	0.705
11.2908	0.703
11.3246	0.706
11.3584	0.708
11.3921	0.716
11.4259	0.718
11.4597	0.714
11.4935	0.706
11.5273	0.693
11.5611	0.675
11.5948	0.64
11.6286	0.616
11.6624	0.579
11.6962	0.546
11.73	0.518
11.7638	0.481
11.7976	0.461
11.8313	0.454
11.8651	0.451
11.8989	0.453
11.9327	0.464
11.9665	0.485
12.0003	0.538
12.034	0.593
12.0678	0.614
12.1016	0.665
12.1354	0.683
12.1692	0.705
12.203	0.714
12.2367	0.716
12.2705	0.723
12.3043	0.718
12.3381	0.713
12.3719	0.705
12.4057	0.696
12.4394	0.678
12.4732	0.677
12.507	0.677
12.5408	0.682
12.5746	0.683
12.6084	0.672
12.6422	0.66
12.6759	0.632
12.7097	0.594
12.7435	0.553
12.7773	0.527
12.8111	0.517
12.8449	0.532
12.8786	0.565
12.9124	0.607
12.9462	0.644
12.98	0.672
13.0138	0.693
13.0476	0.714
13.0813	0.726
13.1151	0.741
13.1489	0.759
13.1827	0.762
13.2165	0.772
13.2503	0.771
13.284	0.774
13.3178	0.78
13.3516	0.775
13.3854	0.774
13.4192	0.78
13.453	0.777
13.4867	0.78
13.5205	0.784
13.5543	0.78
13.5881	0.775
13.6219	0.771
13.6557	0.774
13.6895	0.774
13.7232	0.771
13.757	0.774
13.7908	0.769
13.8246	0.771
13.8584	0.766
13.8922	0.762
13.9259	0.762
13.9597	0.759
13.9935	0.754
14.0273	0.757
14.0611	0.752
14.0949	0.746
14.1286	0.747
14.1624	0.747
14.1962	0.742
14.23	0.736
14.2638	0.734
14.2976	0.731
14.3313	0.729
14.3651	0.719
14.3989	0.716
14.4327	0.716
14.4665	0.71
14.5003	0.705
14.5341	0.7
14.5678	0.691
14.6016	0.691
14.6354	0.688
14.6692	0.682
14.703	0.672
14.7368	0.672
14.7705	0.672
14.8043	0.668
14.8381	0.662
14.8719	0.658
14.9057	0.652
14.9395	0.644
14.9732	0.64
15.007	0.639
15.0408	0.624
15.0746	0.619
15.1084	0.616
15.1422	0.607
15.1759	0.601
15.2097	0.599
15.2435	0.594
15.2773	0.584
15.3111	0.581
15.3449	0.573
15.3786	0.568
15.4124	0.565
15.4462	0.558
15.48	0.551
