Infrared Spectrum: 2-DIMETHYLAMINO-3,3-DIMETHYLCYCLO-BUTANECARBOXAMIDE
Formula: C9 H18 N2 O
CAS: 19244-93-0
State: SOLID (KBr PELLET)
Melting point: 145-146.5 C
Class: COBLENTZ
Instrument: Not specified, most likely a prism, grating, or hybrid spectrometer.
Sampling: TRANSMISSION
Resolution: 4
Origin: TENNESSEE EASTMAN COMPANY, RESEARCH LABORATORIES
MICROMETERS	TRANSMITTANCE
2.055	0.895
2.09597	0.897
2.13695	0.899
2.17792	0.897
2.21889	0.899
2.25987	0.897
2.30084	0.897
2.34181	0.897
2.38279	0.897
2.42376	0.897
2.46474	0.899
2.50571	0.902
2.54668	0.902
2.58766	0.902
2.62863	0.904
2.6696	0.904
2.71058	0.902
2.75155	0.88
2.79252	0.825
2.8335	0.783
2.87447	0.732
2.91544	0.558
2.95642	0.158
2.99739	0.158
3.03836	0.199
3.07934	0.223
3.12031	0.201
3.16129	0.145
3.20226	0.232
3.24323	0.312
3.28421	0.433
3.32518	0.416
3.36615	0.102
3.40713	0.356
3.4481	0.315
3.48907	0.378
3.53005	0.372
3.57102	0.302
3.61199	0.552
3.65297	0.754
3.69394	0.822
3.73491	0.861
3.77589	0.89
3.81686	0.916
3.85784	0.923
3.89881	0.93
3.93978	0.936
3.98076	0.938
4.02173	0.94
4.0627	0.943
4.10368	0.945
4.14465	0.947
4.18562	0.947
4.2266	0.947
4.26757	0.945
4.30854	0.943
4.34952	0.947
4.39049	0.948
4.43146	0.948
4.47244	0.957
4.51341	0.964
4.55439	0.967
4.59536	0.969
4.63633	0.969
4.67731	0.97
4.71828	0.969
4.75925	0.965
4.80023	0.967
4.8412	0.969
4.88217	0.97
4.92315	0.969
4.96412	0.97
5.00509	0.979
5.04607	0.979
5.08704	0.976
5.12801	0.974
5.16899	0.974
5.20996	0.972
5.25094	0.97
5.29191	0.967
5.33288	0.964
5.37386	0.962
5.41483	0.96
5.4558	0.955
5.49678	0.948
5.53775	0.93
5.57872	0.918
5.6197	0.895
5.66067	0.861
5.70164	0.839
5.74262	0.784
5.78359	0.668
5.82456	0.493
5.86554	0.238
5.90651	0.029
5.94749	0.023
5.98846	0.066
6.02943	0.174
6.07041	0.187
6.11138	0.186
6.15235	0.399
6.19333	0.583
6.2343	0.663
6.27527	0.72
6.31625	0.728
6.35722	0.74
6.39819	0.744
6.43917	0.761
6.48014	0.767
6.52111	0.773
6.56209	0.771
6.60306	0.769
6.64404	0.75
6.68501	0.716
6.72598	0.646
6.76696	0.377
6.80793	0.162
6.8489	0.165
6.88988	0.209
6.93085	0.266
6.97182	0.273
7.0128	0.145
7.05377	0.1
7.09474	0.276
7.13572	0.476
7.17669	0.587
7.21766	0.433
7.25864	0.532
7.29961	0.406
7.34059	0.563
7.38156	0.604
7.42253	0.365
7.46351	0.587
7.50448	0.728
7.54545	0.747
7.58643	0.733
7.6274	0.65
7.66837	0.247
7.70935	0.249
7.75032	0.551
7.79129	0.651
7.83227	0.616
7.87324	0.529
7.91421	0.465
7.95519	0.409
7.99616	0.561
8.03714	0.742
8.07811	0.769
8.11908	0.744
8.16006	0.503
8.20103	0.462
8.242	0.559
8.28298	0.558
8.32395	0.581
8.36492	0.465
8.4059	0.643
8.44687	0.66
8.48784	0.658
8.52882	0.733
8.56979	0.747
8.61076	0.733
8.65174	0.598
8.69271	0.378
8.73369	0.535
8.77466	0.733
8.81563	0.757
8.85661	0.713
8.89758	0.696
8.93855	0.711
8.97953	0.716
9.0205	0.689
9.06147	0.701
9.10245	0.672
9.14342	0.667
9.18439	0.764
9.22537	0.766
9.26634	0.651
9.30731	0.522
9.34829	0.498
9.38926	0.414
9.43024	0.566
9.47121	0.721
9.51218	0.745
9.55316	0.602
9.59413	0.508
9.6351	0.656
9.67608	0.783
9.71705	0.8
9.75802	0.771
9.799	0.75
9.83997	0.817
9.88094	0.853
9.92192	0.875
9.96289	0.894
10.0039	0.909
10.0448	0.919
10.0858	0.919
10.1268	0.902
10.1678	0.889
10.2087	0.89
10.2497	0.865
10.2907	0.87
10.3317	0.911
10.3726	0.928
10.4136	0.935
10.4546	0.94
10.4955	0.941
10.5365	0.941
10.5775	0.938
10.6185	0.931
10.6594	0.931
10.7004	0.919
10.7414	0.878
10.7824	0.836
10.8233	0.843
10.8643	0.887
10.9053	0.906
10.9463	0.892
10.9872	0.843
11.0282	0.614
11.0692	0.436
11.1102	0.346
11.1511	0.493
11.1921	0.703
11.2331	0.82
11.274	0.856
11.315	0.861
11.356	0.875
11.397	0.895
11.4379	0.911
11.4789	0.916
11.5199	0.919
11.5609	0.919
11.6018	0.916
11.6428	0.907
11.6838	0.889
11.7248	0.877
11.7657	0.851
11.8067	0.824
11.8477	0.781
11.8886	0.747
11.9296	0.699
11.9706	0.667
12.0116	0.662
12.0525	0.67
12.0935	0.689
12.1345	0.694
12.1755	0.696
12.2164	0.703
12.2574	0.726
12.2984	0.75
12.3394	0.767
12.3803	0.778
12.4213	0.784
12.4623	0.788
12.5033	0.791
12.5442	0.791
12.5852	0.791
12.6262	0.788
12.6671	0.784
12.7081	0.778
12.7491	0.766
12.7901	0.742
12.831	0.697
12.872	0.687
12.913	0.711
12.954	0.725
12.9949	0.726
13.0359	0.725
13.0769	0.703
13.1179	0.701
13.1588	0.687
13.1998	0.682
13.2408	0.668
13.2817	0.66
13.3227	0.648
13.3637	0.638
13.4047	0.633
13.4456	0.624
13.4866	0.619
13.5276	0.612
13.5686	0.607
13.6095	0.6
13.6505	0.593
13.6915	0.587
13.7325	0.569
13.7734	0.552
13.8144	0.535
13.8554	0.522
13.8963	0.511
13.9373	0.511
13.9783	0.513
14.0193	0.542
14.0602	0.564
14.1012	0.59
14.1422	0.612
14.1832	0.629
14.2241	0.641
14.2651	0.653
14.3061	0.662
14.3471	0.667
14.388	0.67
14.429	0.675
14.47	0.68
14.511	0.686
14.5519	0.686
14.5929	0.687
14.6339	0.686
14.6748	0.686
14.7158	0.684
14.7568	0.68
14.7978	0.674
14.8387	0.663
14.8797	0.658
14.9207	0.645
14.9617	0.633
15.0026	0.619
15.0436	0.593
15.0846	0.552
15.1256	0.523
15.1665	0.51
15.2075	0.508
15.2485	0.506
15.2895	0.498
15.3304	0.481
15.3714	0.46
15.4124	0.455
15.4533	0.459
15.4943	0.476
15.5353	0.498
15.5763	0.52
15.6172	0.534
15.6582	0.544
15.6992	0.552
15.7402	0.559
15.7811	0.563
15.8221	0.576
15.8631	0.581
15.9041	0.585
15.945	0.592
15.986	0.598
