Infrared Spectrum: Butyrimidicthio acid, N-phenyl-, ehtyl ester
Formula: C12 H17 N S
CAS: 19255-90-4
State: SOLUTION (10% CCl4 FOR 3800-1330, 10% CS2 FOR 1330-400 CM^-^1) VS SOLVENT
Class: COBLENTZ III
Instrument: BECKMAN IR-9 (GRATING)
Instrument parameters: ORDER CHANGES: 670, 1200, 2000 CM^-^1
Sampling: TRANSMISSION
Path length: 0.011 CM, 0.010 CM
Resolution: 2
Origin: DOW CHEMICAL COMPANY
1/CM	TRANSMITTANCE
3796	0.875
3787	0.8746
3778	0.8743
3769	0.8739
3760	0.8734
3751	0.8725
3742	0.8718
3733	0.871
3724	0.8704
3715	0.8697
3706	0.8697
3697	0.8698
3688	0.87
3679	0.8701
3670	0.8705
3661	0.8708
3652	0.8711
3643	0.8717
3634	0.8725
3625	0.8736
3616	0.8746
3607	0.8752
3598	0.8758
3589	0.8763
3580	0.8766
3571	0.8766
3562	0.8765
3553	0.8763
3544	0.876
3535	0.8756
3526	0.8753
3517	0.8746
3508	0.8739
3499	0.8731
3490	0.8721
3481	0.8712
3472	0.87
3463	0.8688
3454	0.8628
3445	0.8567
3436	0.854
3427	0.8611
3418	0.8642
3409	0.8638
3400	0.8633
3391	0.8621
3382	0.8612
3373	0.8603
3364	0.8596
3355	0.8593
3346	0.859
3337	0.8597
3328	0.8605
3319	0.8618
3310	0.8634
3301	0.8645
3292	0.865
3283	0.8652
3274	0.8647
3265	0.8632
3256	0.8593
3247	0.854
3238	0.8454
3229	0.8391
3220	0.8325
3211	0.8303
3202	0.8314
3193	0.8366
3184	0.842
3175	0.8453
3166	0.848
3157	0.8496
3148	0.8499
3139	0.8497
3130	0.8491
3121	0.846
3112	0.8396
3103	0.8254
3094	0.8008
3085	0.7462
3076	0.6608
3067	0.6421
3058	0.6166
3049	0.686
3040	0.7434
3031	0.726
3022	0.6456
3013	0.6493
3004	0.7128
2995	0.6896
2986	0.5612
2977	0.4245
2968	0.1695
2959	0.1571
2950	0.3612
2941	0.4426
2932	0.2653
2923	0.2544
2914	0.5445
2905	0.5872
2896	0.6098
2887	0.6283
2878	0.6135
2869	0.3646
2860	0.5265
2851	0.7121
2842	0.7585
2833	0.7805
2824	0.7946
2815	0.8062
2806	0.8165
2797	0.8266
2788	0.8357
2779	0.8425
2770	0.8482
2761	0.8496
2752	0.8486
2743	0.8448
2734	0.8435
2725	0.846
2716	0.8488
2707	0.8501
2698	0.8505
2689	0.8502
2680	0.8496
2671	0.8489
2662	0.8511
2653	0.8535
2644	0.8559
2635	0.8571
2626	0.8567
2617	0.856
2608	0.8565
2599	0.8571
2590	0.8578
2581	0.8587
2572	0.8568
2563	0.8511
2554	0.8497
2545	0.851
2536	0.8527
2527	0.8543
2518	0.8551
2509	0.8555
2500	0.8544
2491	0.8531
2482	0.852
2473	0.851
2464	0.8501
2455	0.8473
2446	0.8432
2437	0.8377
2428	0.833
2419	0.8293
2410	0.8301
2401	0.8344
2392	0.8412
2383	0.8477
2374	0.8518
2365	0.8532
2356	0.8527
2347	0.8513
2338	0.8503
2329	0.8495
2320	0.8491
2311	0.8496
2302	0.8528
2293	0.8556
2284	0.8571
2275	0.8578
2266	0.8577
2257	0.8568
2248	0.8562
2239	0.8556
2230	0.855
2221	0.855
2212	0.8551
2203	0.8557
2194	0.8564
2185	0.8571
2176	0.8586
2167	0.8587
2158	0.8589
2149	0.8589
2140	0.8589
2131	0.8588
2122	0.8585
2113	0.8581
2104	0.8585
2095	0.8589
2086	0.8595
2077	0.86
2068	0.8592
2059	0.8578
2050	0.8558
2041	0.8532
2032	0.8496
2023	0.8453
2014	0.843
2005	0.8477
1996	0.8442
1987	0.8485
1978	0.849
1969	0.8491
1960	0.8486
1951	0.8347
1942	0.8262
1933	0.8037
1924	0.8224
1915	0.8502
1906	0.8567
1897	0.8575
1888	0.8554
1879	0.8456
1870	0.8336
1861	0.8275
1852	0.8234
1843	0.8463
1834	0.8484
1825	0.8475
1816	0.8447
1807	0.8371
1798	0.8324
1789	0.8146
1780	0.8301
1771	0.8441
1762	0.8411
1753	0.8334
1744	0.8193
1735	0.8006
1726	0.7857
1717	0.7815
1708	0.7465
1699	0.7099
1690	0.7245
1681	0.7268
1672	0.6982
1663	0.6556
1654	0.5612
1645	0.4428
1636	0.1582
1627	0.0264
1618	0.0266
1609	0.0512
1600	0.1192
1591	0.0572
1582	0.3218
1573	0.5023
1564	0.7746
1555	0.8099
1546	0.8075
1537	0.7899
1528	0.7405
1519	0.7042
1510	0.7312
1501	0.7194
1492	0.5428
1483	0.3114
1474	0.4495
1465	0.4282
1456	0.3734
1447	0.3889
1438	0.5338
1429	0.6571
1420	0.7236
1411	0.668
1402	0.7343
1393	0.7765
1384	0.7497
1375	0.6707
1366	0.7524
1357	0.7868
1348	0.7656
1339	0.7596
1330	0.7807
1321	0.7796
1312	0.7849
1303	0.7789
1294	0.7835
1285	0.7744
1276	0.6894
1267	0.5489
1258	0.6127
1249	0.6728
1240	0.6521
1231	0.6811
1222	0.6841
1213	0.4746
1204	0.2591
1195	0.6922
1186	0.7368
1177	0.7232
1168	0.6592
1159	0.5784
1150	0.2504
1141	0.111
1132	0.4596
1123	0.5827
1114	0.7608
1105	0.8053
1096	0.8043
1087	0.733
1078	0.7611
1069	0.4973
1060	0.6546
1051	0.6533
1042	0.6686
1033	0.7136
1024	0.4312
1015	0.503
1006	0.5515
997	0.581
988	0.5395
979	0.6978
970	0.6434
961	0.7528
952	0.821
943	0.8282
934	0.8464
925	0.8477
916	0.8199
907	0.7098
898	0.6601
889	0.7387
880	0.8072
871	0.8211
862	0.8223
853	0.8092
844	0.8451
835	0.8294
826	0.8025
817	0.7295
808	0.6167
799	0.7098
790	0.6147
781	0.4188
772	0.5412
763	0.401
754	0.6369
745	0.4398
736	0.6751
727	0.7605
718	0.6939
709	0.5154
700	0.3452
691	0.1807
682	0.7045
673	0.7801
664	0.7399
655	0.7498
646	0.8312
637	0.8684
628	0.8763
619	0.8706
610	0.8547
601	0.8328
592	0.8051
583	0.7092
574	0.8011
565	0.8337
556	0.8375
547	0.8375
538	0.8321
529	0.8165
520	0.728
511	0.6171
502	0.6921
493	0.8003
484	0.836
475	0.8499
466	0.8483
457	0.843
448	0.8381
439	0.8385
430	0.8568
421	0.8674
412	0.8688
403	0.8675
