Infrared Spectrum: 1-Methyl-1-(2,4-dinitrophenyl)hydrazine
Formula: C7 H8 N4 O4
CAS: 19255-35-7
State: SOLID (SPLIT MULL), FLUOROLUBE FOR 3800-1330 CM^-^1, NUJOL FOR 1330-400 CM^-^1
Class: COBLENTZ III
Instrument: BECKMAN IR-9 (GRATING)
Instrument parameters: ORDER CHANGES: 670, 1200, 2000 CM^-^1
Sampling: TRANSMISSION
Resolution: 2
Origin: DOW CHEMICAL COMPANY
1/CM	TRANSMITTANCE
401	0.6041
410	0.6039
419	0.6179
428	0.6594
437	0.7186
446	0.7557
455	0.7938
464	0.815
473	0.831
482	0.7921
491	0.8157
500	0.8555
509	0.8695
518	0.871
527	0.7383
536	0.8143
545	0.8737
554	0.8815
563	0.88
572	0.8784
581	0.8745
590	0.8463
599	0.8356
608	0.8652
617	0.8632
626	0.835
635	0.7228
644	0.8559
653	0.853
662	0.7196
671	0.8218
680	0.8446
689	0.8355
698	0.8225
707	0.7925
716	0.669
725	0.3646
734	0.6736
743	0.2674
752	0.7034
761	0.6118
770	0.7781
779	0.7893
788	0.7946
797	0.7944
806	0.7845
815	0.7531
824	0.4166
833	0.4995
842	0.7708
851	0.7761
860	0.7756
869	0.7733
878	0.7632
887	0.7391
896	0.6634
905	0.5834
914	0.4064
923	0.6319
932	0.2594
941	0.6961
950	0.77
959	0.7664
968	0.7484
977	0.7203
986	0.7522
995	0.7488
1004	0.7365
1013	0.7187
1022	0.6965
1031	0.6551
1040	0.531
1049	0.3868
1058	0.6625
1067	0.5997
1076	0.5873
1085	0.6235
1094	0.5653
1103	0.4385
1112	0.2468
1121	0.4305
1130	0.4755
1139	0.2322
1148	0.2926
1157	0.7028
1166	0.591
1175	0.6817
1184	0.6524
1193	0.591
1202	0.3482
1211	0.1965
1220	0.5131
1229	0.6465
1238	0.637
1247	0.6012
1256	0.5321
1265	0.3258
1274	0.4857
1283	0.4007
1292	0.3584
1301	0.2726
1310	0.1111
1319	0.0094
1328	0.0289
1337	0.0339
1346	0.194
1355	0.435
1364	0.377
1373	0.4404
1382	0.4934
1391	0.498
1400	0.5026
1409	0.5073
1418	0.4612
1427	0.489
1436	0.6662
1445	0.6084
1454	0.586
1463	0.6038
1472	0.5866
1481	0.4779
1490	0.2592
1499	0.1572
1508	0.2522
1517	0.292
1526	0.152
1535	0.1762
1544	0.5798
1553	0.6928
1562	0.6496
1571	0.4641
1580	0.2176
1589	0.2421
1598	0.1961
1607	0.4292
1616	0.6475
1625	0.4819
1634	0.2763
1643	0.382
1652	0.6164
1661	0.7158
1670	0.7753
1679	0.8227
1688	0.8447
1697	0.8621
1706	0.8744
1715	0.8684
1724	0.8571
1733	0.8691
1742	0.8699
1751	0.866
1760	0.8593
1769	0.8508
1778	0.8388
1787	0.8164
1796	0.8171
1805	0.8321
1814	0.8337
1823	0.8311
1832	0.8259
1841	0.8198
1850	0.8145
1859	0.8103
1868	0.8068
1877	0.8057
1886	0.8058
1895	0.7971
1904	0.7922
1913	0.7928
1922	0.7925
1931	0.7861
1940	0.7671
1949	0.775
1958	0.7776
1967	0.7743
1976	0.7725
1985	0.7701
1994	0.7619
2003	0.7645
2012	0.7643
2021	0.7606
2030	0.7546
2039	0.7488
2048	0.7425
2057	0.736
2066	0.7334
2075	0.7331
2084	0.7324
2093	0.7297
2102	0.7255
2111	0.7207
2120	0.7175
2129	0.7158
2138	0.7137
2147	0.711
2156	0.7071
2165	0.7028
2174	0.6985
2183	0.694
2192	0.6895
2201	0.6847
2210	0.6778
2219	0.6701
2228	0.6628
2237	0.6597
2246	0.6574
2255	0.6553
2264	0.6539
2273	0.6526
2282	0.6515
2291	0.6503
2300	0.6491
2309	0.6476
2318	0.6458
2327	0.6439
2336	0.6444
2345	0.6455
2354	0.6465
2363	0.6475
2372	0.6428
2381	0.6332
2390	0.6268
2399	0.6242
2408	0.6219
2417	0.619
2426	0.6162
2435	0.6135
2444	0.611
2453	0.6094
2462	0.6133
2471	0.6164
2480	0.6172
2489	0.6168
2498	0.616
2507	0.6145
2516	0.6122
2525	0.6099
2534	0.6078
2543	0.6057
2552	0.6037
2561	0.6012
2570	0.5991
2579	0.5967
2588	0.5948
2597	0.5919
2606	0.5889
2615	0.5857
2624	0.5822
2633	0.5778
2642	0.5753
2651	0.5746
2660	0.5738
2669	0.5712
2678	0.5679
2687	0.5659
2696	0.565
2705	0.5645
2714	0.5642
2723	0.5627
2732	0.561
2741	0.5591
2750	0.5568
2759	0.5549
2768	0.5517
2777	0.5472
2786	0.541
2795	0.533
2804	0.526
2813	0.5195
2822	0.5182
2831	0.5265
2840	0.5249
2849	0.5216
2858	0.5175
2867	0.5129
2876	0.5033
2885	0.4879
2894	0.4747
2903	0.4636
2912	0.474
2921	0.4926
2930	0.501
2939	0.5089
2948	0.5125
2957	0.5112
2966	0.4994
2975	0.4884
2984	0.4998
2993	0.509
3002	0.5105
3011	0.5089
3020	0.5066
3029	0.5035
3038	0.4996
3047	0.4952
3056	0.4905
3065	0.4842
3074	0.4751
3083	0.4586
3092	0.4436
3101	0.4443
3110	0.452
3119	0.4628
3128	0.4835
3137	0.4837
3146	0.4829
3155	0.4812
3164	0.4793
3173	0.4765
3182	0.4733
3191	0.4682
3200	0.4596
3209	0.4483
3218	0.4374
3227	0.4309
3236	0.4306
3245	0.4305
3254	0.4306
3263	0.4364
3272	0.4365
3281	0.4307
3290	0.4227
3299	0.4252
3308	0.4274
3317	0.4123
3326	0.3137
3335	0.3123
3344	0.474
3353	0.4732
3362	0.4683
3371	0.4618
3380	0.4567
3389	0.4558
3398	0.455
3407	0.454
3416	0.4523
3425	0.4502
3434	0.4481
3443	0.4464
3452	0.4449
3461	0.4434
3470	0.4421
3479	0.4407
3488	0.4394
3497	0.4378
3506	0.4362
3515	0.4347
3524	0.4332
3533	0.4317
3542	0.4303
3551	0.4288
3560	0.4272
3569	0.4257
3578	0.4241
3587	0.4225
3596	0.4212
3605	0.42
3614	0.4188
3623	0.4175
3632	0.4162
3641	0.4147
3650	0.4133
3659	0.4118
3668	0.4107
3677	0.4095
3686	0.4084
3695	0.4079
3704	0.4074
3713	0.4068
3722	0.406
3731	0.4056
3740	0.4053
3749	0.4046
3758	0.4023
3767	0.3991
3776	0.3978
3785	0.3962
3794	0.3947
