Infrared Spectrum: 2-PROPANOL, 3-(6-CHLORO-9H-PURIN-9-YL)-1-(N,N-DIETHYLAMINO)-
Formula: C12 H18 Cl N5 O
CAS: 19270-70-3
State: SOLID (1 mg / 650 mg KBr DISC)
Class: COBLENTZ III
Instrument: PERKIN-ELMER 521 (GRATING)
Instrument parameters: FILTERS AT 3130, 2475, 2000, 1150, 700, 410. GRATING CHANGES: 2000, 620 CM^-^1
Sampling: TRANSMISSION
Resolution: 2
Origin: SOUTHERN RESEARCH INSTITUTE
1/CM	TRANSMITTANCE
250.333	0.2086
260.364	0.2235
270.395	0.2656
280.426	0.336
290.457	0.4083
300.489	0.474
310.52	0.5294
320.551	0.5504
330.582	0.6147
340.613	0.6576
350.644	0.6809
360.675	0.7349
370.706	0.7603
380.737	0.779
390.769	0.7702
400.8	0.7802
410.831	0.8054
420.862	0.7994
430.893	0.7669
440.924	0.8133
450.955	0.8302
460.986	0.8302
471.017	0.8285
481.049	0.824
491.08	0.8015
501.111	0.8306
511.142	0.7812
521.173	0.7471
531.204	0.7787
541.235	0.7488
551.266	0.7955
561.297	0.5625
571.329	0.6066
581.36	0.8123
591.391	0.815
601.422	0.7965
611.453	0.7393
621.484	0.7251
631.515	0.3015
641.546	0.7447
651.577	0.7395
661.609	0.7634
671.64	0.602
681.671	0.6053
691.702	0.5252
701.733	0.722
711.764	0.8322
721.795	0.8573
731.826	0.7914
741.857	0.7086
751.889	0.8961
761.92	0.8895
771.951	0.8759
781.982	0.7333
792.013	0.7932
802.044	0.6622
812.075	0.774
822.106	0.8785
832.137	0.8733
842.169	0.8365
852.2	0.6045
862.231	0.8552
872.262	0.8219
882.293	0.8488
892.324	0.7327
902.355	0.772
912.386	0.7413
922.418	0.7672
932.449	0.3084
942.48	0.7125
952.511	0.8555
962.542	0.8045
972.573	0.7569
982.604	0.5623
992.635	0.8097
1002.67	0.8162
1012.7	0.7678
1022.73	0.6393
1032.76	0.6358
1042.79	0.6585
1052.82	0.6764
1062.85	0.6692
1072.88	0.6922
1082.92	0.4734
1092.95	0.6117
1102.98	0.7986
1113.01	0.7417
1123.04	0.6714
1133.07	0.5989
1143.1	0.4544
1153.13	0.3369
1163.16	0.7348
1173.2	0.6874
1183.23	0.6122
1193.26	0.4949
1203.29	0.6766
1213.32	0.4628
1223.35	0.7628
1233.38	0.7347
1243.41	0.6652
1253.44	0.5715
1263.48	0.619
1273.51	0.4053
1283.54	0.5664
1293.57	0.5665
1303.6	0.6665
1313.63	0.608
1323.66	0.3815
1333.69	0.2517
1343.72	0.517
1353.76	0.5985
1363.79	0.5768
1373.82	0.6123
1383.85	0.4617
1393.88	0.2942
1403.91	0.2447
1413.94	0.4855
1423.97	0.5316
1434	0.511
1444.04	0.3976
1454.07	0.514
1464.1	0.4663
1474.13	0.6254
1484.16	0.6316
1494.19	0.5969
1504.22	0.6262
1514.25	0.8535
1524.28	0.8417
1534.32	0.7797
1544.35	0.5287
1554.38	0.2504
1564.41	0.3496
1574.44	0.6135
1584.47	0.3025
1594.5	0.3196
1604.53	0.7645
1614.56	0.8073
1624.6	0.8364
1634.63	0.8585
1644.66	0.8769
1654.69	0.8966
1664.72	0.908
1674.75	0.9073
1684.78	0.9039
1694.81	0.8951
1704.84	0.8878
1714.88	0.9184
1724.91	0.9371
1734.94	0.9424
1744.97	0.9439
1755	0.9434
1765.03	0.9415
1775.06	0.9368
1785.09	0.9286
1795.12	0.9149
1805.16	0.8935
1815.19	0.8714
1825.22	0.8878
1835.25	0.9309
1845.28	0.9275
1855.31	0.9185
1865.34	0.9267
1875.37	0.935
1885.4	0.9368
1895.44	0.936
1905.47	0.9344
1915.5	0.9334
1925.53	0.9325
1935.56	0.931
1945.59	0.9295
1955.62	0.9287
1965.65	0.9279
1975.68	0.9265
1985.72	0.9233
1995.75	0.9122
2005.78	0.911
2015.81	0.9111
2025.84	0.9105
2035.87	0.9096
2045.9	0.9089
2055.93	0.9084
2065.96	0.9078
2076	0.9067
2086.03	0.9056
2096.06	0.9045
2106.09	0.9034
2116.12	0.9023
2126.15	0.9007
2136.18	0.8988
2146.21	0.897
2156.24	0.8941
2166.28	0.8909
2176.31	0.8879
2186.34	0.8859
2196.37	0.8839
2206.4	0.8825
2216.43	0.8814
2226.46	0.879
2236.49	0.8763
2246.52	0.8754
2256.56	0.8742
2266.59	0.8726
2276.62	0.87
2286.65	0.8673
2296.68	0.8638
2306.71	0.8602
2316.74	0.8565
2326.77	0.8519
2336.8	0.8469
2346.84	0.8419
2356.87	0.8358
2366.9	0.8297
2376.93	0.8236
2386.96	0.8174
2396.99	0.8103
2407.02	0.8013
2417.05	0.7878
2427.08	0.7787
2437.12	0.7723
2447.15	0.7636
2457.18	0.7533
2467.21	0.749
2477.24	0.7291
2487.27	0.715
2497.3	0.709
2507.33	0.7089
2517.36	0.7117
2527.4	0.7178
2537.43	0.7166
2547.46	0.7034
2557.49	0.6873
2567.52	0.674
2577.55	0.6603
2587.58	0.6431
2597.61	0.6239
2607.64	0.5955
2617.68	0.5641
2627.71	0.5443
2637.74	0.5391
2647.77	0.5218
2657.8	0.4861
2667.83	0.4723
2677.86	0.4789
2687.89	0.4897
2697.92	0.4816
2707.96	0.4521
2717.99	0.4267
2728.02	0.4334
2738.05	0.4633
2748.08	0.4999
2758.11	0.5447
2768.14	0.5652
2778.17	0.5752
2788.2	0.5787
2798.24	0.5714
2808.27	0.551
2818.3	0.5322
2828.33	0.52
2838.36	0.4998
2848.39	0.4857
2858.42	0.4896
2868.45	0.5054
2878.48	0.5302
2888.52	0.5558
2898.55	0.5471
2908.58	0.5069
2918.61	0.487
2928.64	0.486
2938.67	0.4429
2948.7	0.4012
2958.73	0.3872
2968.76	0.3751
2978.8	0.3616
2988.83	0.4528
2998.86	0.5136
3008.89	0.5498
3018.92	0.5769
3028.95	0.5829
3038.98	0.5761
3049.01	0.5501
3059.04	0.4615
3069.08	0.5018
3079.11	0.538
3089.14	0.5219
3099.17	0.5047
3109.2	0.4683
3119.23	0.4347
3129.26	0.3966
3139.29	0.3481
3149.32	0.2728
3159.36	0.2128
3169.39	0.2021
3179.42	0.2393
3189.45	0.293
3199.48	0.3557
3209.51	0.4232
3219.54	0.4604
3229.57	0.5032
3239.6	0.543
3249.64	0.5727
3259.67	0.6073
3269.7	0.6339
3279.73	0.6539
3289.76	0.6713
3299.79	0.6878
3309.82	0.6955
3319.85	0.6966
3329.88	0.6939
3339.92	0.6896
3349.95	0.6837
3359.98	0.6773
3370.01	0.6714
3380.04	0.6651
3390.07	0.6583
3400.1	0.6536
3410.13	0.6519
3420.16	0.6559
3430.2	0.6612
3440.23	0.6671
3450.26	0.6731
3460.29	0.6788
3470.32	0.6842
3480.35	0.6893
3490.38	0.6951
3500.41	0.7023
3510.44	0.7115
3520.48	0.7222
3530.51	0.7329
3540.54	0.7434
3550.57	0.7544
3560.6	0.7665
3570.63	0.7802
3580.66	0.7933
3590.69	0.8051
3600.72	0.8175
3610.76	0.8305
3620.79	0.8408
3630.82	0.8482
3640.85	0.855
3650.88	0.8581
3660.91	0.8588
3670.94	0.8582
3680.97	0.8558
3691	0.8608
3701.04	0.8728
3711.07	0.8742
3721.1	0.8742
3731.13	0.8729
3741.16	0.8714
3751.19	0.8699
3761.22	0.8696
3771.25	0.869
3781.28	0.8683
3791.32	0.8673
3801.35	0.8659
3811.38	0.8642
3821.41	0.8625
3831.44	0.8608
3841.47	0.8591
3851.5	0.8575
3861.53	0.8565
3871.56	0.8558
3881.6	0.8551
3891.63	0.8544
3901.66	0.8537
3911.69	0.8531
3921.72	0.8523
3931.75	0.8516
3941.78	0.8507
3951.81	0.8492
3961.84	0.8476
3971.88	0.8455
3981.91	0.8429
3991.94	0.8412
4001.97	0.8394
4012	0.8367
