Infrared Spectrum: 1-Pentanol, 2,2-dimethyl-5-(6-purinylamino)-
Formula: C12 H19 N5 O
CAS: 19270-93-0
State: SOLID (1 mg / 650 mg KBr DISC)
Class: COBLENTZ III
Instrument: PERKIN-ELMER 521 (GRATING)
Instrument parameters: FILTERS AT 3150, 2500, 2000, 1150, 700, 410. GRATING CHANGES: 2000, 630
Sampling: TRANSMISSION
Resolution: 2
Origin: SOUTHERN RESEARCH INSTITUTE
1/CM	TRANSMITTANCE
248.1	0.2999
258.164	0.363
268.228	0.4285
278.291	0.4885
288.355	0.548
298.419	0.5795
308.483	0.6064
318.547	0.6272
328.61	0.6426
338.674	0.6579
348.738	0.6754
358.802	0.6895
368.866	0.701
378.929	0.7066
388.993	0.7065
399.057	0.7086
409.121	0.708
419.184	0.7058
429.248	0.7028
439.312	0.6996
449.376	0.6952
459.44	0.6913
469.503	0.6949
479.567	0.6993
489.631	0.6939
499.695	0.691
509.759	0.6876
519.822	0.67
529.886	0.6517
539.95	0.6392
550.014	0.6604
560.078	0.6794
570.141	0.6868
580.205	0.681
590.269	0.6749
600.333	0.6659
610.397	0.6583
620.46	0.6533
630.524	0.617
640.588	0.4196
650.652	0.6541
660.715	0.6568
670.779	0.7181
680.843	0.724
690.907	0.7219
700.971	0.7181
711.034	0.7201
721.098	0.7254
731.162	0.732
741.226	0.7257
751.29	0.7301
761.353	0.7341
771.417	0.7275
781.481	0.737
791.545	0.6171
801.609	0.7584
811.672	0.7516
821.736	0.7406
831.8	0.7357
841.864	0.7026
851.928	0.6864
861.991	0.7038
872.055	0.7331
882.119	0.7106
892.183	0.6525
902.246	0.661
912.31	0.7374
922.374	0.7453
932.438	0.626
942.502	0.6817
952.565	0.7036
962.629	0.7872
972.693	0.79
982.757	0.7883
992.821	0.7696
1002.88	0.762
1012.95	0.7265
1023.01	0.6579
1033.08	0.5725
1043.14	0.574
1053.2	0.6447
1063.27	0.6446
1073.33	0.7549
1083.39	0.7745
1093.46	0.7616
1103.52	0.7389
1113.59	0.675
1123.65	0.5734
1133.71	0.6059
1143.78	0.676
1153.84	0.6755
1163.91	0.7228
1173.97	0.7477
1184.03	0.7474
1194.1	0.7404
1204.16	0.735
1214.22	0.7369
1224.29	0.7244
1234.35	0.6257
1244.42	0.5569
1254.48	0.6628
1264.54	0.6929
1274.61	0.6665
1284.67	0.5205
1294.73	0.4514
1304.8	0.5453
1314.86	0.5408
1324.93	0.5054
1334.99	0.5101
1345.05	0.55
1355.12	0.5709
1365.18	0.5426
1375.24	0.6057
1385.31	0.6215
1395.37	0.5907
1405.44	0.6117
1415.5	0.6509
1425.56	0.6324
1435.63	0.5997
1445.69	0.5378
1455.76	0.5175
1465.82	0.5141
1475.88	0.6312
1485.95	0.6344
1496.01	0.6915
1506.07	0.708
1516.14	0.6927
1526.2	0.6632
1536.27	0.6584
1546.33	0.6712
1556.39	0.6474
1566.46	0.5969
1576.52	0.53
1586.58	0.335
1596.65	0.2505
1606.71	0.1459
1616.78	0.1103
1626.84	0.1938
1636.9	0.3741
1646.97	0.5498
1657.03	0.6289
1667.09	0.6937
1677.16	0.7337
1687.22	0.7588
1697.29	0.7768
1707.35	0.79
1717.41	0.8001
1727.48	0.8062
1737.54	0.8113
1747.6	0.8175
1757.67	0.8237
1767.73	0.8282
1777.8	0.8313
1787.86	0.834
1797.92	0.8369
1807.99	0.8401
1818.05	0.8422
1828.12	0.8439
1838.18	0.8446
1848.24	0.8453
1858.31	0.8458
1868.37	0.8458
1878.43	0.8457
1888.5	0.8456
1898.56	0.846
1908.63	0.8473
1918.69	0.8485
1928.75	0.8498
1938.82	0.8511
1948.88	0.8515
1958.94	0.8511
1969.01	0.8517
1979.07	0.8522
1989.14	0.8526
1999.2	0.8521
2009.26	0.8516
2019.33	0.8516
2029.39	0.852
2039.45	0.8524
2049.52	0.8528
2059.58	0.8532
2069.65	0.8536
2079.71	0.854
2089.77	0.855
2099.84	0.8562
2109.9	0.8569
2119.97	0.8558
2130.03	0.8547
2140.09	0.8518
2150.16	0.849
2160.22	0.8461
2170.28	0.8438
2180.35	0.8427
2190.41	0.8416
2200.48	0.8405
2210.54	0.8394
2220.6	0.8388
2230.67	0.8356
2240.73	0.8322
2250.79	0.8292
2260.86	0.827
2270.92	0.8259
2280.99	0.8253
2291.05	0.8242
2301.11	0.8222
2311.18	0.8182
2321.24	0.8144
2331.3	0.8082
2341.37	0.7984
2351.43	0.7908
2361.5	0.7888
2371.56	0.7879
2381.62	0.7872
2391.69	0.7841
2401.75	0.7799
2411.82	0.775
2421.88	0.7692
2431.94	0.7632
2442.01	0.7567
2452.07	0.7508
2462.13	0.7449
2472.2	0.7377
2482.26	0.73
2492.33	0.7216
2502.39	0.7131
2512.45	0.7023
2522.52	0.69
2532.58	0.6816
2542.64	0.673
2552.71	0.6646
2562.77	0.6585
2572.84	0.6574
2582.9	0.6586
2592.96	0.6558
2603.03	0.6499
2613.09	0.6452
2623.15	0.6404
2633.22	0.6344
2643.28	0.6266
2653.35	0.618
2663.41	0.6065
2673.47	0.5976
2683.54	0.5939
2693.6	0.5922
2703.67	0.5813
2713.73	0.5696
2723.79	0.5739
2733.86	0.5757
2743.92	0.5727
2753.98	0.5599
2764.05	0.5413
2774.11	0.5239
2784.18	0.5097
2794.24	0.4982
2804.3	0.4918
2814.37	0.4889
2824.43	0.49
2834.49	0.4861
2844.56	0.4774
2854.62	0.4591
2864.69	0.4421
2874.75	0.4599
2884.81	0.4547
2894.88	0.4424
2904.94	0.449
2915	0.4433
2925.07	0.4233
2935.13	0.3983
2945.2	0.3748
2955.26	0.3858
2965.32	0.4344
2975.39	0.4941
2985.45	0.5151
2995.52	0.5234
3005.58	0.5279
3015.64	0.5309
3025.71	0.5282
3035.77	0.522
3045.83	0.5106
3055.9	0.5009
3065.96	0.5007
3076.03	0.5007
3086.09	0.5013
3096.15	0.5018
3106.22	0.5036
3116.28	0.5064
3126.34	0.5122
3136.41	0.5153
3146.47	0.515
3156.54	0.5255
3166.6	0.5285
3176.66	0.5255
3186.73	0.5144
3196.79	0.5015
3206.85	0.491
3216.92	0.4849
3226.98	0.4798
3237.05	0.4754
3247.11	0.4696
3257.17	0.4562
3267.24	0.4364
3277.3	0.4194
3287.37	0.4162
3297.43	0.4221
3307.49	0.4361
3317.56	0.4509
3327.62	0.4624
3337.68	0.4695
3347.75	0.4747
3357.81	0.4763
3367.88	0.4748
3377.94	0.4721
3388	0.469
3398.07	0.4672
3408.13	0.4671
3418.19	0.4688
3428.26	0.4716
3438.32	0.4788
3448.39	0.489
3458.45	0.5015
3468.51	0.5173
3478.58	0.5348
3488.64	0.5488
3498.7	0.5604
3508.77	0.5756
3518.83	0.5924
3528.9	0.6153
3538.96	0.6366
3549.02	0.6558
3559.09	0.6746
3569.15	0.6952
3579.22	0.7162
3589.28	0.7365
3599.34	0.7587
3609.41	0.7806
3619.47	0.8013
3629.53	0.8193
3639.6	0.8328
3649.66	0.8433
3659.73	0.8497
3669.79	0.8502
3679.85	0.8517
3689.92	0.8562
3699.98	0.8652
3710.04	0.8725
3720.11	0.8759
3730.17	0.8789
3740.24	0.8803
3750.3	0.8804
3760.36	0.8807
3770.43	0.8813
3780.49	0.8819
3790.55	0.8825
3800.62	0.8823
3810.68	0.882
3820.75	0.8811
3830.81	0.8782
3840.87	0.8754
3850.94	0.8729
3861	0.8705
3871.07	0.8684
3881.13	0.8669
3891.19	0.8657
3901.26	0.8649
3911.32	0.8644
3921.38	0.864
3931.45	0.8641
3941.51	0.8642
3951.58	0.8649
3961.64	0.8658
3971.7	0.8667
3981.77	0.8684
3991.83	0.8697
4001.89	0.8705
4011.96	0.8714
