Infrared Spectrum: 2-t-Butoxytetrahydrofuran
Formula: C 8 H 16 O 2
CAS: 1927-59-9
State: gas
Origin: EPA-IR VAPOR PHASE LIBRARY
1/CM	ABSORBANCE
549.8	0.0011802
559.445	0.001478
569.09	0.001948
578.735	0.002238
588.38	0.001698
598.025	0.0012972
607.67	0.0010124
617.315	0.000817
626.96	0.0009909
636.605	0.0008086
646.251	0.00043666
655.896	0.00038954
665.541	0.0005275
675.186	0.00042196
684.831	0.0005512
694.476	0.0007038
704.121	0.0009436
713.766	0.0007457
723.411	0.0008862
733.056	0.0009087
742.701	0.0009272
752.346	0.0010059
761.991	0.0010064
771.636	0.0012422
781.281	0.0013405
790.926	0.001448
800.571	0.001638
810.216	0.002168
819.861	0.002658
829.507	0.003558
839.152	0.004318
848.797	0.005328
858.442	0.005868
868.087	0.005948
877.732	0.005798
887.377	0.006788
897.022	0.009008
906.667	0.011978
916.312	0.014348
925.957	0.013268
935.602	0.009728
945.247	0.007008
954.892	0.005978
964.537	0.006158
974.182	0.008398
983.827	0.014028
993.472	0.026488
1003.12	0.045988
1012.76	0.057208
1022.41	0.062098
1032.05	0.079928
1041.7	0.079458
1051.34	0.051638
1060.99	0.033998
1070.63	0.027028
1080.28	0.020388
1089.92	0.014168
1099.57	0.011378
1109.21	0.013598
1118.86	0.019578
1128.5	0.018938
1138.15	0.012258
1147.79	0.009328
1157.44	0.010778
1167.08	0.016768
1176.73	0.025808
1186.37	0.027458
1196.02	0.024118
1205.66	0.020758
1215.31	0.015028
1224.95	0.013488
1234.6	0.014658
1244.24	0.014478
1253.89	0.011398
1263.53	0.007258
1273.18	0.004518
1282.82	0.003768
1292.47	0.003728
1302.11	0.003798
1311.76	0.003848
1321.4	0.003658
1331.05	0.003018
1340.69	0.004318
1350.34	0.010178
1359.98	0.018368
1369.63	0.020508
1379.27	0.015788
1388.92	0.014018
1398.56	0.010408
1408.21	0.004138
1417.85	0.002388
1427.5	0.002398
1437.14	0.003368
1446.79	0.004868
1456.43	0.006398
1466.08	0.006688
1475.73	0.006058
1485.37	0.004668
1495.02	0.002638
1504.66	0.001408
1514.31	0.000688
1523.95	0.0004857
1533.6	0.000368686
1543.24	0.0002702
1552.89	0.000185
1562.53	0.000102
1572.18	0.000133
1581.82	0
1591.47	9.9e-05
1601.11	0.000179
1610.76	0.000187
1620.4	0.000107
1630.05	6.6e-05
1639.69	0.0001
1649.34	0.000136
1658.98	5.8e-05
1668.63	8.6e-05
1678.27	0.000109
1687.92	0.000223
1697.56	0.000151
1707.21	0.000211
1716.85	0.0003074
1726.5	0.0003253
1736.14	0.00038061
1745.79	0.000368572
1755.43	0.0003276
1765.08	0.00033
1774.72	0.0003068
1784.37	0.0002
1794.01	0.0003139
1803.66	0.0003324
1813.3	0.0003197
1822.95	0.0003153
1832.59	0.00036523
1842.24	0.0003502
1851.88	0.000322
1861.53	0.0003458
1871.17	0.0003191
1880.82	0.0003341
1890.46	0.0002802
1900.11	0.0003273
1909.75	0.0003801
1919.4	0.00043931
1929.04	0.00045191
1938.69	0.0004935
1948.33	0.00043707
1957.98	0.00041956
1967.62	0.0004778
1977.27	0.0004846
1986.91	0.00043103
1996.56	0.0003307
2006.2	0.0003159
2015.85	0.0002966
2025.49	0.0002892
2035.14	0.0002774
2044.78	0.0002734
2054.43	0.000235
2064.07	0.000245
2073.72	0.000233
2083.36	0.0002854
2093.01	0.000238
2102.65	0.000214
2112.3	0.000266
2121.94	0.000253
2131.59	0.0003408
2141.23	0.0002779
2150.88	0.000241
2160.52	0.000219
2170.17	0.000251
2179.81	0.000171
2189.46	0.000228
2199.1	0.00026
2208.75	0.000205
2218.39	0.0003158
2228.04	0.000259
2237.68	0.0003132
2247.33	0.00035916
2256.97	0.00039716
2266.62	0.00042356
2276.26	0.0003569
2285.91	0.000377646
2295.55	0.0003151
2305.2	0.0002764
2314.84	0.000274
2324.49	0.0002683
2334.13	0.000195
2343.78	0.000265
2353.42	0.0003168
2363.07	0.0003425
2372.72	0.0003018
2382.36	0.00039901
2392.01	0.000376175
2401.65	0.0002871
2411.3	0.000257
2420.94	0.000145
2430.59	0.00019
2440.23	0.000138
2449.88	0.000181
2459.52	0.000187
2469.17	0.000229
2478.81	0.0002862
2488.46	0.000232
2498.1	0.0002723
2507.75	0.0002786
2517.39	0.000259
2527.04	0.000233
2536.68	0.0003472
2546.33	0.00039776
2555.97	0.0003394
2565.62	0.0004735
2575.26	0.00043186
2584.91	0.0006157
2594.55	0.00046475
2604.2	0.000675
2613.84	0.0006138
2623.49	0.0007618
2633.13	0.0008569
2642.78	0.0008279
2652.42	0.000907
2662.07	0.0008478
2671.71	0.0009045
2681.36	0.0008619
2691	0.0009114
2700.65	0.0011367
2710.29	0.0012923
2719.94	0.0013178
2729.58	0.001388
2739.23	0.001378
2748.87	0.0012336
2758.52	0.0012735
2768.16	0.001368
2777.81	0.001488
2787.45	0.001568
2797.1	0.001908
2806.74	0.002288
2816.39	0.002918
2826.03	0.003508
2835.68	0.004228
2845.32	0.005378
2854.97	0.007518
2864.61	0.011348
2874.26	0.016958
2883.9	0.021198
2893.55	0.022168
2903.19	0.021508
2912.84	0.021688
2922.48	0.023548
2932.13	0.028478
2941.77	0.034788
2951.42	0.039748
2961.06	0.045378
2970.71	0.059918
2980.35	0.075598
2990	0.061798
2999.64	0.030258
3009.29	0.013418
3018.93	0.006798
3028.58	0.004348
3038.22	0.003018
3047.87	0.002238
3057.51	0.001868
3067.16	0.001588
3076.8	0.0013646
3086.45	0.001219
3096.09	0.0011638
3105.74	0.0012472
3115.38	0.0010568
3125.03	0.0010626
3134.67	0.0009303
3144.32	0.000864
3153.96	0.0010014
3163.61	0.0008519
3173.25	0.0008414
3182.9	0.000922
3192.54	0.0007482
3202.19	0.0007554
3211.83	0.0008174
3221.48	0.0007575
3231.12	0.0007463
3240.77	0.0008329
3250.41	0.0006341
3260.06	0.0006655
3269.7	0.0007071
3279.35	0.0005
3289	0.0005432
3298.64	0.0004595
3308.29	0.0003306
3317.93	0.00042633
3327.58	0.00038218
3337.22	0.0003845
3346.87	0.000182
3356.51	0.00038759
3366.16	0.000376929
3375.8	0.000237
3385.45	0.0002913
3395.09	0.0003256
3404.74	0.00038264
3414.38	0.000241
3424.03	0.000256
3433.67	0.0003207
3443.32	0.0002838
3452.96	0.00035828
3462.61	0.000254
3472.25	0.0003046
3481.9	0.0002789
3491.54	0.00018
3501.19	0.0003219
3510.83	0.000255
3520.48	0.000216
3530.12	0.0002954
3539.77	0.000214
3549.41	0.00015
3559.06	0.000189
3568.7	0.000264
3578.35	0.000176
3587.99	0.0002826
3597.64	6e-05
3607.28	0.000216
3616.93	0.000377591
3626.57	0.0005003
3636.22	0.000202
3645.86	0.000253
3655.51	0.0003249
3665.15	0.0003825
3674.8	0.0002832
3684.44	0.00039701
3694.09	0.00028
3703.73	0.000257
3713.38	0.0002722
3723.02	0.000263
3732.67	0.0004761
3742.31	0.00043589
3751.96	0.00045193
3761.6	0.000207
3771.25	0.0003379
3780.89	0.00041213
3790.54	0.00045633
3800.18	0.0004993
3809.83	0.0005095
3819.47	0.00036447
3829.12	0.00042297
3838.76	0.0006042
3848.41	0.0006757
3858.05	0.0007239
3867.7	0.0004726
3877.34	0.0006138
3886.99	0.0007266
3896.63	0.0006171
3906.28	0.000802
3915.92	0.0005844
3925.57	0.0006389
3935.21	0.0007251
3944.86	0.0006167
3954.5	0.0006824
3964.15	0.0007833
3973.79	0.000684
3983.44	0.0008824
3993.08	0.000711
