Infrared Spectrum: p-Toluenesulfonamide, Alpha-9H-purin-9-yl-
Formula: C12 H11 N5 O2 S
CAS: 19270-99-6
State: SOLID (1 mg / 650 mg KBr DISC)
Class: COBLENTZ III
Instrument: PERKIN-ELMER 521 (GRATING)
Instrument parameters: FILTERS AT 3130, 2475, 2000, 620. GRATING CHANGES: 2000, 630 CM^-^1
Sampling: TRANSMISSION
Resolution: 2
Origin: SOUTHERN RESEARCH INSTITUTE
1/CM	TRANSMITTANCE
250	0.3415
260.027	0.3904
270.053	0.4393
280.08	0.5046
290.107	0.5878
300.133	0.6477
310.16	0.6653
320.187	0.6865
330.213	0.6887
340.24	0.7466
350.267	0.7716
360.293	0.788
370.32	0.7964
380.347	0.7924
390.373	0.7652
400.4	0.7824
410.427	0.8023
420.453	0.7878
430.48	0.8071
440.507	0.8026
450.533	0.7964
460.56	0.7827
470.587	0.7571
480.613	0.7253
490.64	0.7095
500.667	0.6318
510.693	0.7421
520.72	0.7134
530.747	0.563
540.773	0.3907
550.8	0.6247
560.827	0.5011
570.853	0.5627
580.88	0.362
590.907	0.7484
600.933	0.5651
610.96	0.7416
620.987	0.6273
631.013	0.405
641.04	0.5806
651.067	0.6548
661.093	0.6064
671.12	0.3503
681.147	0.5152
691.173	0.6409
701.2	0.6485
711.227	0.638
721.253	0.4879
731.28	0.7141
741.307	0.7208
751.333	0.7026
761.36	0.4055
771.387	0.7653
781.413	0.6503
791.44	0.5673
801.467	0.7855
811.493	0.7959
821.52	0.8215
831.547	0.82
841.573	0.8135
851.6	0.7665
861.627	0.6502
871.653	0.7938
881.68	0.7133
891.707	0.5682
901.733	0.6653
911.76	0.634
921.787	0.529
931.813	0.6176
941.84	0.7902
951.867	0.7968
961.893	0.8494
971.92	0.8536
981.947	0.8533
991.973	0.8596
1002	0.8419
1012.03	0.7459
1022.05	0.8246
1032.08	0.8148
1042.11	0.8013
1052.13	0.7858
1062.16	0.7504
1072.19	0.6982
1082.21	0.5663
1092.24	0.3993
1102.27	0.5488
1112.29	0.6913
1122.32	0.6958
1132.35	0.6414
1142.37	0.4157
1152.4	0.088
1162.43	0.4058
1172.45	0.7543
1182.48	0.7493
1192.51	0.5777
1202.53	0.5357
1212.56	0.7185
1222.59	0.8046
1232.61	0.7144
1242.64	0.6896
1252.67	0.7842
1262.69	0.6819
1272.72	0.7242
1282.75	0.5401
1292.77	0.5187
1302.8	0.3147
1312.83	0.4899
1322.85	0.2449
1332.88	0.3942
1342.91	0.5482
1352.93	0.4696
1362.96	0.6545
1372.99	0.6143
1383.01	0.6997
1393.04	0.6084
1403.07	0.2411
1413.09	0.7422
1423.12	0.8309
1433.15	0.8042
1443.17	0.7851
1453.2	0.8575
1463.23	0.8554
1473.25	0.8474
1483.28	0.813
1493.31	0.6556
1503.33	0.4337
1513.36	0.8383
1523.39	0.837
1533.41	0.8309
1543.44	0.8211
1553.47	0.7856
1563.49	0.726
1573.52	0.4748
1583.55	0.4421
1593.57	0.233
1603.6	0.7032
1613.63	0.7894
1623.65	0.822
1633.68	0.8461
1643.71	0.863
1653.73	0.8765
1663.76	0.8858
1673.79	0.8931
1683.81	0.8997
1693.84	0.9058
1703.87	0.9062
1713.89	0.9061
1723.92	0.9052
1733.95	0.9041
1743.97	0.9033
1754	0.9025
1764.03	0.899
1774.05	0.8906
1784.08	0.8952
1794.11	0.9098
1804.13	0.9109
1814.16	0.9105
1824.19	0.9101
1834.21	0.9097
1844.24	0.9086
1854.27	0.9063
1864.29	0.902
1874.32	0.8987
1884.35	0.8984
1894.37	0.8999
1904.4	0.9022
1914.43	0.9025
1924.45	0.9019
1934.48	0.9007
1944.51	0.8995
1954.53	0.8986
1964.56	0.9024
1974.59	0.9011
1984.61	0.8984
1994.64	0.9019
2004.67	0.9032
2014.69	0.9006
2024.72	0.8967
2034.75	0.8934
2044.77	0.891
2054.8	0.889
2064.83	0.8874
2074.85	0.8862
2084.88	0.8846
2094.91	0.8836
2104.93	0.8831
2114.96	0.8821
2124.99	0.881
2135.01	0.8794
2145.04	0.8768
2155.07	0.8743
2165.09	0.8731
2175.12	0.8719
2185.15	0.8705
2195.17	0.8692
2205.2	0.8683
2215.23	0.8675
2225.25	0.8668
2235.28	0.866
2245.31	0.8654
2255.33	0.8647
2265.36	0.8641
2275.39	0.863
2285.41	0.8618
2295.44	0.8597
2305.47	0.8576
2315.49	0.8554
2325.52	0.8535
2335.55	0.852
2345.57	0.8505
2355.6	0.8495
2365.63	0.8487
2375.65	0.8479
2385.68	0.8474
2395.71	0.8471
2405.73	0.8468
2415.76	0.8461
2425.79	0.8454
2435.81	0.8446
2445.84	0.8415
2455.87	0.8357
2465.89	0.8301
2475.92	0.8275
2485.95	0.8267
2495.97	0.8265
2506	0.8254
2516.03	0.8254
2526.05	0.8261
2536.08	0.8255
2546.11	0.8205
2556.13	0.8143
2566.16	0.8075
2576.19	0.8005
2586.21	0.7928
2596.24	0.7843
2606.27	0.7746
2616.29	0.7658
2626.32	0.7563
2636.35	0.7437
2646.37	0.729
2656.4	0.7148
2666.43	0.7066
2676.45	0.7138
2686.48	0.724
2696.51	0.7352
2706.53	0.7456
2716.56	0.7491
2726.59	0.7463
2736.61	0.7431
2746.64	0.7395
2756.67	0.7356
2766.69	0.7312
2776.72	0.726
2786.75	0.7188
2796.77	0.7084
2806.8	0.6973
2816.83	0.6844
2826.85	0.6706
2836.88	0.6544
2846.91	0.6376
2856.93	0.6207
2866.96	0.6038
2876.99	0.5866
2887.01	0.5666
2897.04	0.5466
2907.07	0.5265
2917.09	0.5062
2927.12	0.4856
2937.15	0.4648
2947.17	0.4424
2957.2	0.42
2967.23	0.4043
2977.25	0.3926
2987.28	0.3861
2997.31	0.3911
3007.33	0.3963
3017.36	0.4044
3027.39	0.4131
3037.41	0.422
3047.44	0.4304
3057.47	0.437
3067.49	0.4424
3077.52	0.4447
3087.55	0.4449
3097.57	0.4441
3107.6	0.439
3117.63	0.4233
3127.65	0.4258
3137.68	0.449
3147.71	0.4481
3157.73	0.4422
3167.76	0.435
3177.79	0.4303
3187.81	0.4309
3197.84	0.4386
3207.87	0.454
3217.89	0.4759
3227.92	0.5075
3237.95	0.5373
3247.97	0.5721
3258	0.5958
3268.03	0.6168
3278.05	0.6398
3288.08	0.663
3298.11	0.6793
3308.13	0.6922
3318.16	0.7021
3328.19	0.7068
3338.21	0.7081
3348.24	0.7079
3358.27	0.7067
3368.29	0.705
3378.32	0.7034
3388.35	0.7027
3398.37	0.7024
3408.4	0.7026
3418.43	0.7036
3428.45	0.7055
3438.48	0.709
3448.51	0.7132
3458.53	0.7179
3468.56	0.723
3478.59	0.7289
3488.61	0.735
3498.64	0.7418
3508.67	0.7489
3518.69	0.7561
3528.72	0.7636
3538.75	0.7715
3548.77	0.7818
3558.8	0.7921
3568.83	0.8025
3578.85	0.813
3588.88	0.8241
3598.91	0.8332
3608.93	0.8423
3618.96	0.8501
3628.99	0.8577
3639.01	0.8608
3649.04	0.8625
3659.07	0.8631
3669.09	0.8636
3679.12	0.8638
3689.15	0.8637
3699.17	0.8625
3709.2	0.8616
3719.23	0.861
3729.25	0.8605
3739.28	0.8605
3749.31	0.8606
3759.33	0.8606
3769.36	0.8604
3779.39	0.8601
3789.41	0.8599
3799.44	0.8596
3809.47	0.8594
3819.49	0.8592
3829.52	0.8589
3839.55	0.8587
3849.57	0.8583
3859.6	0.8574
3869.63	0.8566
3879.65	0.8557
3889.68	0.8549
3899.71	0.8536
3909.73	0.8524
3919.76	0.8511
3929.79	0.8498
3939.81	0.8487
3949.84	0.8476
3959.87	0.8465
3969.89	0.8455
3979.92	0.8447
3989.95	0.8439
3999.97	0.8432
4010	0.8424
