Infrared Spectrum: 2,4-DICHLOROPHENOXYACETIC ACID, 3-(2-BUTOXYETHOXY) PROPYL ESTER
Formula: C17 H24 Cl2 O5
CAS: 1928-57-0
State: SOLUTION (10% IN CCl4 FOR 5000-1350 CM^-^1, 10% IN CS2 FOR 1350-625 CM^-^1)
Class: COBLENTZ
Instrument: Not specified, most likely a prism, grating, or hybrid spectrometer.
Sampling: TRANSMISSION
Path length: 0.01 CM, 0.01 CM
Resolution: 4
Origin: DOW CHEMICAL COMPANY
MICROMETERS	TRANSMITTANCE
2.022	0.845
2.06114	0.853
2.10027	0.853
2.13941	0.855
2.17854	0.856
2.21768	0.85
2.25681	0.837
2.29595	0.842
2.33508	0.85
2.37422	0.853
2.41335	0.853
2.45249	0.853
2.49162	0.855
2.53076	0.863
2.56989	0.863
2.60903	0.863
2.64816	0.868
2.6873	0.861
2.72643	0.861
2.76557	0.835
2.8047	0.824
2.84384	0.815
2.88297	0.825
2.92211	0.853
2.96125	0.863
3.00038	0.863
3.03952	0.863
3.07865	0.859
3.11779	0.855
3.15692	0.853
3.19606	0.843
3.23519	0.828
3.27433	0.82
3.31346	0.711
3.3526	0.403
3.39173	0.236
3.43087	0.263
3.47	0.239
3.50914	0.537
3.54827	0.69
3.58741	0.765
3.62654	0.796
3.66568	0.819
3.70481	0.843
3.74395	0.869
3.78308	0.871
3.82222	0.872
3.86135	0.874
3.90049	0.877
3.93963	0.882
3.97876	0.889
4.0179	0.892
4.05703	0.892
4.09617	0.89
4.1353	0.89
4.17444	0.889
4.21357	0.872
4.25271	0.872
4.29184	0.872
4.33098	0.877
4.37011	0.881
4.40925	0.89
4.44838	0.895
4.48752	0.899
4.52665	0.897
4.56579	0.894
4.60492	0.894
4.64406	0.892
4.68319	0.889
4.72233	0.889
4.76146	0.894
4.8006	0.894
4.83974	0.892
4.87887	0.889
4.91801	0.885
4.95714	0.884
4.99628	0.885
5.03541	0.885
5.07455	0.889
5.11368	0.884
5.15282	0.892
5.19195	0.892
5.23109	0.89
5.27022	0.892
5.30936	0.887
5.34849	0.872
5.38763	0.871
5.42676	0.871
5.4659	0.869
5.50503	0.859
5.54417	0.82
5.5833	0.684
5.62244	0.441
5.66157	0.198
5.70071	0.294
5.73985	0.314
5.77898	0.568
5.81812	0.789
5.85725	0.832
5.89639	0.85
5.93552	0.859
5.97466	0.866
6.01379	0.866
6.05293	0.863
6.09206	0.859
6.1312	0.84
6.17033	0.801
6.20947	0.713
6.2486	0.605
6.28774	0.542
6.32687	0.547
6.36601	0.542
6.40514	0.495
6.44428	0.478
6.48341	0.532
6.52255	0.579
6.56168	0.594
6.60082	0.597
6.63995	0.504
6.67909	0.333
6.71823	0.099
6.75736	0.192
6.7965	0.387
6.83563	0.426
6.87477	0.47
6.9139	0.501
6.95304	0.605
6.99217	0.684
7.03131	0.739
7.07044	0.71
7.10958	0.654
7.14871	0.511
7.18785	0.464
7.22698	0.423
7.26612	0.552
7.30525	0.57
7.34439	0.539
7.38352	0.6
7.42266	0.662
7.46179	0.675
7.50093	0.643
7.54006	0.581
7.5792	0.456
7.61834	0.315
7.65747	0.273
7.69661	0.298
7.73574	0.306
7.77488	0.307
7.81401	0.332
7.85315	0.32
7.89228	0.322
7.93142	0.338
7.97055	0.369
8.00969	0.387
8.04882	0.379
8.08796	0.371
8.12709	0.41
8.16623	0.415
8.20536	0.327
8.2445	0.175
8.28363	0.066
8.32277	0.053
8.3619	0.18
8.40104	0.408
8.44017	0.48
8.47931	0.49
8.51845	0.434
8.55758	0.389
8.59672	0.346
8.63585	0.312
8.67499	0.27
8.71412	0.219
8.75326	0.171
8.79239	0.144
8.83153	0.112
8.87066	0.084
8.9098	0.063
8.94893	0.057
8.98807	0.053
9.0272	0.05
9.06634	0.06
9.10547	0.073
9.14461	0.071
9.18374	0.071
9.22288	0.109
9.26201	0.151
9.30115	0.19
9.34028	0.25
9.37942	0.312
9.41855	0.369
9.45769	0.389
9.49683	0.4
9.53596	0.423
9.5751	0.462
9.61423	0.506
9.65337	0.539
9.6925	0.56
9.73164	0.579
9.77077	0.579
9.80991	0.584
9.84904	0.61
9.88818	0.628
9.92731	0.64
9.96645	0.649
10.0056	0.672
10.0447	0.69
10.0839	0.701
10.123	0.695
10.1621	0.68
10.2013	0.671
10.2404	0.669
10.2795	0.672
10.3187	0.672
10.3578	0.667
10.3969	0.661
10.4361	0.653
10.4752	0.662
10.5143	0.684
10.5535	0.695
10.5926	0.703
10.6317	0.711
10.6709	0.721
10.71	0.729
10.7492	0.739
10.7883	0.747
10.8274	0.749
10.8666	0.749
10.9057	0.739
10.9448	0.729
10.984	0.71
11.0231	0.7
11.0622	0.7
11.1014	0.7
11.1405	0.701
11.1796	0.7
11.2188	0.684
11.2579	0.671
11.297	0.659
11.3362	0.644
11.3753	0.62
11.4145	0.537
11.4536	0.42
11.4927	0.364
11.5319	0.447
11.571	0.511
11.6101	0.539
11.6493	0.55
11.6884	0.55
11.7275	0.545
11.7667	0.539
11.8058	0.526
11.8449	0.521
11.8841	0.521
11.9232	0.519
11.9623	0.53
12.0015	0.553
12.0406	0.576
12.0797	0.587
12.1189	0.592
12.158	0.609
12.1972	0.622
12.2363	0.627
12.2754	0.623
12.3146	0.609
12.3537	0.579
12.3928	0.534
12.432	0.456
12.4711	0.397
12.5102	0.416
12.5494	0.527
12.5885	0.617
12.6276	0.662
12.6668	0.679
12.7059	0.69
12.745	0.698
12.7842	0.7
12.8233	0.693
12.8625	0.679
12.9016	0.672
12.9407	0.675
12.9799	0.697
13.019	0.71
13.0581	0.714
13.0973	0.714
13.1364	0.713
13.1755	0.713
13.2147	0.711
13.2538	0.711
13.2929	0.71
13.3321	0.705
13.3712	0.7
13.4103	0.684
13.4495	0.671
13.4886	0.659
13.5278	0.641
13.5669	0.623
13.606	0.61
13.6452	0.594
13.6843	0.574
13.7234	0.552
13.7626	0.521
13.8017	0.486
13.8408	0.464
13.88	0.457
13.9191	0.482
13.9582	0.511
13.9974	0.539
14.0365	0.57
14.0756	0.583
14.1148	0.592
14.1539	0.594
14.1931	0.591
14.2322	0.583
14.2713	0.581
14.3105	0.589
14.3496	0.594
14.3887	0.599
14.4279	0.6
14.467	0.599
14.5061	0.591
14.5453	0.589
14.5844	0.581
14.6235	0.573
14.6627	0.568
14.7018	0.56
14.7409	0.553
14.7801	0.548
14.8192	0.539
14.8583	0.526
14.8975	0.508
14.9366	0.501
14.9758	0.511
15.0149	0.501
15.054	0.483
15.0932	0.47
15.1323	0.457
15.1714	0.442
15.2106	0.429
15.2497	0.415
15.2888	0.402
15.328	0.382
15.3671	0.359
15.4062	0.327
15.4454	0.291
15.4845	0.27
15.5236	0.27
15.5628	0.291
15.6019	0.307
15.6411	0.32
15.6802	0.327
15.7193	0.328
15.7585	0.328
15.7976	0.328
15.8367	0.328
15.8759	0.328
15.915	0.32
