Infrared Spectrum: 2,4,5-T methyl ester
Formula: C 9 H 7 Cl 3 O 3
CAS: 1928-37-6
State: gas
Instrument: HP-GC/MS/IRD
Origin: NIST Mass Spectrometry Data Center
1/CM	ABSORBANCE
550	0.0006072
562	0.0002772
574	0.0013794
586	0.0015246
598	0.0008976
610	0.0008448
622	0.000594
634	0.0004686
646	0.0006534
658	0.0012474
670	0.0073656
682	0.013101
694	0.0033462
706	0.0034386
718	0.0052668
730	0.0097086
742	0.006501
754	0.0038874
766	0.0037488
778	0.0034518
790	0.002178
802	0.0015576
814	0.0016368
826	0.0026928
838	0.0050952
850	0.0037158
862	0.0034914
874	0.0094974
886	0.008118
898	0.0027456
910	0.0018546
922	0.001353
934	0.00099
946	0.00066
958	0.0010164
970	0.0023562
982	0.0044352
994	0.0055176
1006	0.008151
1018	0.01155
1030	0.0148104
1042	0.0181698
1054	0.0214764
1066	0.0252714
1078	0.0380622
1090	0.0447546
1102	0.019833
1114	0.0146322
1126	0.0300762
1138	0.0284196
1150	0.0145596
1162	0.0140184
1174	0.0248556
1186	0.044286
1198	0.0548328
1210	0.0458634
1222	0.0369138
1234	0.0358116
1246	0.02871
1258	0.0230538
1270	0.0257202
1282	0.0293238
1294	0.0246378
1306	0.0153714
1318	0.0108108
1330	0.0131076
1342	0.023694
1354	0.0195294
1366	0.0119064
1378	0.0111078
1390	0.0059862
1402	0.0044418
1414	0.0056496
1426	0.0106128
1438	0.025476
1450	0.0410718
1462	0.066
1474	0.0530442
1486	0.0299112
1498	0.0116754
1510	0.0062832
1522	0.003729
1534	0.0030756
1546	0.0032472
1558	0.0035112
1570	0.0051348
1582	0.009207
1594	0.0045738
1606	0.0016566
1618	0.0011154
1630	0.0009108
1642	0.0007986
1654	0.0008514
1666	0.0009108
1678	0.0009372
1690	0.0010956
1702	0.0017292
1714	0.0030822
1726	0.005808
1738	0.0110418
1750	0.0203478
1762	0.044682
1774	0.0345444
1786	0.0366234
1798	0.0178266
1810	0.0077088
1822	0.0036102
1834	0.0019734
1846	0.0011088
1858	0.0007458
1870	0.0005874
1882	0.0005016
1894	0.0004752
1906	0.0003828
1918	0.0003564
1930	0.0003498
1942	0.0003828
1954	0.0004752
1966	0.0004488
1978	0.0003696
1990	0.0002904
2002	0.0003036
2014	0.0003432
2026	0.0003366
2038	0.0003168
2050	0.000396
2062	0.0004158
2074	0.0005016
2086	0.0005148
2098	0.000462
2110	0.000462
2122	0.0005016
2134	0.0004884
2146	0.0004422
2158	0.0003498
2170	0.0002574
2182	0.0002178
2194	0.000198
2206	0.0001188
2218	3.3e-05
2230	0
2242	3.3e-05
2254	0.0001386
2266	0.0001782
2278	0.0001782
2290	0.000132
2302	9.9e-05
2314	0.0001122
2326	9.9e-05
2338	0.0001122
2350	0.0001188
2362	0.0001848
2374	0.0001914
2386	0.0001914
2398	0.000165
2410	0.0001518
2422	0.000132
2434	0.0001056
2446	0.0001386
2458	0.0001848
2470	0.0001914
2482	0.0002244
2494	0.00033
2506	0.0003102
2518	0.0003168
2530	0.0002706
2542	0.000231
2554	0.000198
2566	0.0002178
2578	0.0002904
2590	0.0003366
2602	0.000297
2614	0.0002706
2626	0.000264
2638	0.0002442
2650	0.0002376
2662	0.0002706
2674	0.0002574
2686	0.0002508
2698	0.0002508
2710	0.000264
2722	0.0002838
2734	0.0003498
2746	0.00033
2758	0.0003168
2770	0.0003894
2782	0.0005148
2794	0.0005676
2806	0.000627
2818	0.0006072
2830	0.0007326
2842	0.0011616
2854	0.0022902
2866	0.0019206
2878	0.0016104
2890	0.001683
2902	0.0021714
2914	0.0028842
2926	0.0038544
2938	0.0057222
2950	0.0072864
2962	0.0128964
2974	0.0075042
2986	0.0043362
2998	0.0033726
3010	0.0032472
3022	0.0026004
3034	0.0025014
3046	0.001914
3058	0.0014058
3070	0.0011616
3082	0.001221
3094	0.0011616
3106	0.0011022
3118	0.0007788
3130	0.000594
3142	0.0005676
3154	0.0004818
3166	0.0004092
3178	0.000363
3190	0.0003432
3202	0.0002904
3214	0.0002904
3226	0.000198
3238	0.0002376
3250	0.0002046
3262	0.0002112
3274	0.000231
3286	0.0002574
3298	0.000264
3310	0.0002508
3322	0.000297
3334	0.0002046
3346	0.0002772
3358	0.0002772
3370	0.000297
3382	0.0003498
3394	0.0003234
3406	0.000363
3418	0.0003762
3430	0.0003366
3442	0.0004158
3454	0.0004422
3466	0.000462
3478	0.0005016
3490	0.0005478
3502	0.000759
3514	0.0007656
3526	0.0007854
3538	0.000726
3550	0.0007128
3562	0.0006666
3574	0.0005808
3586	0.0004884
3598	0.0005148
3610	0.0004884
3622	0.0004752
3634	0.0004356
3646	0.0004686
3658	0.000396
3670	0.0005082
3682	0.0004488
3694	0.0004554
3706	0.0004554
3718	0.0004356
3730	0.0004158
3742	0.000495
3754	0.0005346
3766	0.0005082
3778	0.000594
3790	0.000462
3802	0.0005082
3814	0.0005808
3826	0.0005676
3838	0.0005544
