Infrared Spectrum: DIBORANE
Formula: B2 H6
CAS: 19287-45-7
State: GAS AT 50 mmHg PRESSURE;
Class: COBLENTZ
Instrument: Not specified, most likely a prism, grating, or hybrid spectrometer.
Sampling: TRANSMISSION
Path length: 5 CM
Resolution: 4
Origin: KALLERY CHEMICAL COMPANY
MICROMETERS	TRANSMITTANCE
1.994	0.798
2.03138	0.799
2.06876	0.798
2.10615	0.801
2.14353	0.804
2.18091	0.805
2.21829	0.808
2.25567	0.805
2.29305	0.802
2.33044	0.801
2.36782	0.801
2.4052	0.802
2.44258	0.802
2.47996	0.807
2.51734	0.808
2.55473	0.812
2.59211	0.819
2.62949	0.819
2.66687	0.813
2.70425	0.713
2.74163	0.665
2.77902	0.696
2.8164	0.758
2.85378	0.781
2.89116	0.787
2.92854	0.788
2.96592	0.796
3.00331	0.799
3.04069	0.802
3.07807	0.804
3.11545	0.808
3.15283	0.812
3.19021	0.812
3.2276	0.81
3.26498	0.81
3.30236	0.812
3.33974	0.81
3.37712	0.807
3.4145	0.81
3.45189	0.81
3.48927	0.81
3.52665	0.801
3.56403	0.798
3.60141	0.796
3.63879	0.788
3.67618	0.781
3.71356	0.733
3.75094	0.437
3.78832	0.268
3.8257	0.177
3.86308	0.164
3.90047	0.212
3.93785	0.18
3.97523	0.181
4.01261	0.191
4.04999	0.44
4.08737	0.739
4.12476	0.778
4.16214	0.779
4.19952	0.771
4.2369	0.77
4.27428	0.764
4.31166	0.762
4.34905	0.767
4.38643	0.781
4.42381	0.802
4.46119	0.81
4.49857	0.81
4.53595	0.81
4.57334	0.807
4.61072	0.804
4.6481	0.802
4.68548	0.802
4.72286	0.801
4.76024	0.801
4.79763	0.801
4.83501	0.801
4.87239	0.798
4.90977	0.793
4.94715	0.788
4.98453	0.781
5.02192	0.768
5.0593	0.771
5.09668	0.773
5.13406	0.77
5.17144	0.761
5.20882	0.75
5.24621	0.728
5.28359	0.701
5.32097	0.554
5.35835	0.56
5.39573	0.6
5.43311	0.594
5.4705	0.617
5.50788	0.694
5.54526	0.744
5.58264	0.775
5.62002	0.796
5.6574	0.798
5.69479	0.804
5.73217	0.808
5.76955	0.807
5.80693	0.801
5.84431	0.802
5.88169	0.808
5.91908	0.808
5.95646	0.808
5.99384	0.802
6.03122	0.782
6.0686	0.516
6.10598	0.063
6.14337	0.021
6.18075	0.024
6.21813	0.041
6.25551	0.01
6.29289	0.021
6.33027	0.02
6.36766	0.026
6.40504	0.075
6.44242	0.275
6.4798	0.382
6.51718	0.545
6.55456	0.674
6.59195	0.724
6.62933	0.759
6.66671	0.775
6.70409	0.785
6.74147	0.788
6.77885	0.799
6.81624	0.802
6.85362	0.802
6.891	0.802
6.92838	0.801
6.96576	0.799
7.00314	0.798
7.04053	0.798
7.07791	0.798
7.11529	0.791
7.15267	0.787
7.19005	0.782
7.22743	0.776
7.26482	0.765
7.3022	0.756
7.33958	0.761
7.37696	0.762
7.41434	0.762
7.45172	0.762
7.48911	0.762
7.52649	0.762
7.56387	0.761
7.60125	0.759
7.63863	0.756
7.67601	0.756
7.7134	0.755
7.75078	0.753
7.78816	0.756
7.82554	0.758
7.86292	0.756
7.9003	0.755
7.93769	0.755
7.97507	0.758
8.01245	0.768
8.04983	0.776
8.08721	0.779
8.12459	0.776
8.16198	0.755
8.19936	0.707
8.23674	0.622
8.27412	0.469
8.3115	0.359
8.34888	0.297
8.38627	0.255
8.42365	0.255
8.46103	0.346
8.49841	0.34
8.53579	0.129
8.57317	0.44
8.61056	0.345
8.64794	0.275
8.68532	0.241
8.7227	0.244
8.76008	0.355
8.79746	0.496
8.83485	0.61
8.87223	0.685
8.90961	0.741
8.94699	0.762
8.98437	0.781
9.02175	0.79
9.05914	0.796
9.09652	0.798
9.1339	0.799
9.17128	0.802
9.20866	0.802
9.24604	0.801
9.28343	0.801
9.32081	0.801
9.35819	0.798
9.39557	0.793
9.43295	0.788
9.47033	0.784
9.50772	0.778
9.5451	0.768
9.58248	0.761
9.61986	0.751
9.65724	0.744
9.69462	0.736
9.73201	0.722
9.76939	0.708
9.80677	0.699
9.84415	0.687
9.88153	0.677
9.91891	0.665
9.9563	0.662
9.99368	0.656
10.0311	0.647
10.0684	0.642
10.1058	0.63
10.1432	0.617
10.1806	0.616
10.218	0.628
10.2553	0.574
10.2927	0.471
10.3301	0.613
10.3675	0.648
10.4049	0.651
10.4423	0.656
10.4796	0.657
10.517	0.657
10.5544	0.664
10.5918	0.668
10.6292	0.677
10.6665	0.688
10.7039	0.691
10.7413	0.701
10.7787	0.708
10.8161	0.718
10.8535	0.728
10.8908	0.736
10.9282	0.745
10.9656	0.756
11.003	0.761
11.0404	0.767
11.0777	0.776
11.1151	0.782
11.1525	0.79
11.1899	0.795
11.2273	0.799
11.2647	0.804
11.302	0.805
11.3394	0.807
11.3768	0.807
11.4142	0.807
11.4516	0.81
11.4889	0.812
11.5263	0.816
11.5637	0.819
11.6011	0.821
11.6385	0.821
11.6759	0.821
11.7132	0.821
11.7506	0.819
11.788	0.818
11.8254	0.816
11.8628	0.815
11.9001	0.815
11.9375	0.815
11.9749	0.815
12.0123	0.815
12.0497	0.816
12.0871	0.816
12.1244	0.816
12.1618	0.818
12.1992	0.818
12.2366	0.818
12.274	0.818
12.3113	0.818
12.3487	0.819
12.3861	0.819
12.4235	0.819
12.4609	0.819
12.4982	0.821
12.5356	0.821
12.573	0.821
12.6104	0.819
12.6478	0.818
12.6852	0.816
12.7225	0.816
12.7599	0.816
12.7973	0.816
12.8347	0.818
12.8721	0.821
12.9094	0.821
12.9468	0.821
12.9842	0.818
13.0216	0.816
13.059	0.815
13.0964	0.813
13.1337	0.813
13.1711	0.815
13.2085	0.815
13.2459	0.815
13.2833	0.813
13.3206	0.813
13.358	0.812
13.3954	0.81
13.4328	0.81
13.4702	0.808
13.5076	0.807
13.5449	0.805
13.5823	0.804
13.6197	0.802
13.6571	0.802
13.6945	0.802
13.7318	0.799
13.7692	0.799
13.8066	0.798
13.844	0.798
13.8814	0.796
13.9188	0.796
13.9561	0.795
13.9935	0.793
14.0309	0.79
14.0683	0.788
14.1057	0.788
14.143	0.788
14.1804	0.787
14.2178	0.784
14.2552	0.784
14.2926	0.781
14.33	0.779
14.3673	0.778
14.4047	0.775
14.4421	0.775
14.4795	0.773
14.5169	0.773
14.5542	0.771
14.5916	0.77
14.629	0.768
14.6664	0.765
14.7038	0.764
14.7411	0.761
14.7785	0.759
14.8159	0.756
14.8533	0.755
14.8907	0.751
14.9281	0.748
14.9654	0.744
