Infrared Spectrum: n-PROPYL ESTER OF 2,4,5-TRICHLOROPHENOXY ACETIC ACID
Formula: C11 H11 Cl3 O3
CAS: 1928-40-1
State: SOLUTION (10% CCl4 FOR 5000-1330, 10% CS2 FOR 1330-625 CM^-^1)
Class: COBLENTZ
Instrument: Not specified, most likely a prism, grating, or hybrid spectrometer.
Sampling: TRANSMISSION
Path length: 0.012 CM, 0.012 CM
Resolution: 4
Origin: DOW CHEMICAL COMPANY
MICROMETERS	TRANSMITTANCE
2.013	0.858
2.05285	0.857
2.0927	0.853
2.13254	0.85
2.17239	0.848
2.21224	0.84
2.25209	0.837
2.29194	0.84
2.33178	0.84
2.37163	0.843
2.41148	0.85
2.45133	0.855
2.49118	0.857
2.53103	0.863
2.57087	0.863
2.61072	0.862
2.65057	0.86
2.69042	0.862
2.73027	0.868
2.77011	0.877
2.80996	0.875
2.84981	0.875
2.88966	0.875
2.92951	0.877
2.96935	0.877
3.0092	0.877
3.04905	0.872
3.0889	0.867
3.12875	0.855
3.1686	0.843
3.20844	0.818
3.24829	0.838
3.28814	0.799
3.32799	0.599
3.36784	0.421
3.40768	0.637
3.44753	0.694
3.48738	0.813
3.52723	0.837
3.56708	0.852
3.60692	0.855
3.64677	0.852
3.68662	0.855
3.72647	0.862
3.76632	0.867
3.80616	0.863
3.84601	0.86
3.88586	0.858
3.92571	0.858
3.96556	0.86
4.00541	0.862
4.04525	0.867
4.0851	0.868
4.12495	0.863
4.1648	0.857
4.20465	0.862
4.24449	0.863
4.28434	0.863
4.32419	0.87
4.36404	0.868
4.40389	0.868
4.44373	0.873
4.48358	0.868
4.52343	0.867
4.56328	0.867
4.60313	0.862
4.64298	0.857
4.68282	0.853
4.72267	0.853
4.76252	0.86
4.80237	0.868
4.84222	0.868
4.88206	0.87
4.92191	0.872
4.96176	0.873
5.00161	0.873
5.04146	0.868
5.0813	0.867
5.12115	0.87
5.161	0.87
5.20085	0.868
5.2407	0.867
5.28054	0.867
5.32039	0.865
5.36024	0.857
5.40009	0.85
5.43994	0.842
5.47979	0.818
5.51963	0.799
5.55948	0.755
5.59933	0.546
5.63918	0.222
5.67903	0.049
5.71887	0.141
5.75872	0.229
5.79857	0.591
5.83842	0.699
5.87827	0.762
5.91811	0.8
5.95796	0.823
5.99781	0.84
6.03766	0.845
6.07751	0.86
6.11736	0.87
6.1572	0.868
6.19705	0.857
6.2369	0.795
6.27675	0.568
6.3166	0.534
6.35644	0.682
6.39629	0.745
6.43614	0.792
6.47599	0.802
6.51584	0.813
6.55568	0.812
6.59553	0.79
6.63538	0.7
6.67523	0.543
6.71508	0.343
6.75492	0.038
6.79477	0.059
6.83462	0.099
6.87447	0.264
6.91432	0.287
6.95417	0.493
6.99401	0.662
7.03386	0.719
7.07371	0.727
7.11356	0.644
7.15341	0.573
7.19325	0.561
7.2331	0.471
7.27295	0.416
7.3128	0.413
7.35265	0.418
7.39249	0.315
7.43234	0.413
7.47219	0.607
7.51204	0.686
7.55189	0.624
7.59174	0.533
7.63158	0.463
7.67143	0.368
7.71128	0.234
7.75113	0.207
7.79098	0.245
7.83082	0.259
7.87067	0.302
7.91052	0.307
7.95037	0.24
7.99022	0.244
8.03006	0.26
8.06991	0.244
8.10976	0.23
8.14961	0.3
8.18946	0.307
8.2293	0.222
8.26915	0.104
8.309	0.009
8.34885	0
8.3887	0.006
8.42855	0.179
8.46839	0.343
8.50824	0.458
8.54809	0.528
8.58794	0.578
8.62779	0.602
8.66763	0.596
8.70748	0.518
8.74733	0.358
8.78718	0.172
8.82703	0.232
8.86687	0.358
8.90672	0.445
8.94657	0.559
8.98642	0.609
9.02627	0.593
9.06611	0.493
9.10596	0.335
9.14581	0.102
9.18566	0.019
9.22551	0.026
9.26536	0.164
9.3052	0.31
9.34505	0.29
9.3849	0.259
9.42475	0.302
9.4646	0.338
9.50444	0.4
9.54429	0.493
9.58414	0.566
9.62399	0.591
9.66384	0.621
9.70368	0.652
9.74353	0.656
9.78338	0.659
9.82323	0.692
9.86308	0.73
9.90293	0.737
9.94277	0.735
9.98262	0.722
10.0225	0.696
10.0623	0.676
10.1022	0.662
10.142	0.652
10.1819	0.639
10.2217	0.601
10.2616	0.579
10.3014	0.566
10.3413	0.568
10.3811	0.594
10.421	0.636
10.4608	0.654
10.5006	0.649
10.5405	0.652
10.5803	0.672
10.6202	0.704
10.66	0.727
10.6999	0.727
10.7397	0.719
10.7796	0.707
10.8194	0.697
10.8593	0.674
10.8991	0.654
10.939	0.632
10.9788	0.622
11.0187	0.639
11.0585	0.667
11.0984	0.674
11.1382	0.679
11.1781	0.672
11.2179	0.659
11.2578	0.649
11.2976	0.634
11.3375	0.599
11.3773	0.511
11.4172	0.362
11.457	0.237
11.4968	0.425
11.5367	0.627
11.5765	0.696
11.6164	0.749
11.6562	0.77
11.6961	0.784
11.7359	0.795
11.7758	0.79
11.8156	0.78
11.8555	0.757
11.8953	0.72
11.9352	0.644
11.975	0.584
12.0149	0.554
12.0547	0.594
12.0946	0.702
12.1344	0.764
12.1743	0.795
12.2141	0.805
12.254	0.805
12.2938	0.805
12.3337	0.803
12.3735	0.799
12.4134	0.79
12.4532	0.787
12.4931	0.789
12.5329	0.792
12.5727	0.795
12.6126	0.792
12.6524	0.777
12.6923	0.765
12.7321	0.75
12.772	0.739
12.8118	0.727
12.8517	0.72
12.8915	0.719
12.9314	0.722
12.9712	0.732
13.0111	0.742
13.0509	0.752
13.0908	0.757
13.1306	0.757
13.1705	0.75
13.2103	0.735
13.2502	0.73
13.29	0.727
13.3299	0.727
13.3697	0.72
13.4096	0.705
13.4494	0.691
13.4893	0.649
13.5291	0.596
13.569	0.531
13.6088	0.45
13.6486	0.372
13.6885	0.337
13.7283	0.363
13.7682	0.461
13.808	0.549
13.8479	0.617
13.8877	0.657
13.9276	0.686
13.9674	0.709
14.0073	0.729
14.0471	0.737
14.087	0.749
14.1268	0.757
14.1667	0.764
14.2065	0.769
14.2464	0.769
14.2862	0.774
14.3261	0.774
14.3659	0.774
14.4058	0.764
14.4456	0.755
14.4855	0.737
14.5253	0.699
14.5652	0.612
14.605	0.528
14.6449	0.443
14.6847	0.398
14.7245	0.425
14.7644	0.504
14.8042	0.594
14.8441	0.651
14.8839	0.687
14.9238	0.715
14.9636	0.739
15.0035	0.775
15.0433	0.789
15.0832	0.795
15.123	0.797
15.1629	0.794
15.2027	0.794
15.2426	0.794
15.2824	0.794
15.3223	0.794
15.3621	0.795
15.402	0.794
15.4418	0.794
15.4817	0.792
15.5215	0.79
15.5614	0.787
15.6012	0.785
15.6411	0.784
15.6809	0.78
15.7207	0.777
15.7606	0.772
15.8004	0.772
15.8403	0.769
