Infrared Spectrum: 2,4-D Methyl ester
Formula: C 9 H 8 Cl 2 O 3
CAS: 1928-38-7
State: gas
Instrument: HP-GC/MS/IRD
Origin: NIST Mass Spectrometry Data Center
1/CM	ABSORBANCE
550	0.0008613
562	0.002079
574	0.0018018
586	0.0010692
598	0.0008811
610	0.0008415
622	0.0009108
634	0.0026136
646	0.0089298
658	0.0024255
670	0.0011187
682	0.0019602
694	0.0046431
706	0.008019
718	0.0089001
730	0.0083952
742	0.0055836
754	0.0058113
766	0.0065637
778	0.0055143
790	0.0068904
802	0.0109692
814	0.0098802
826	0.0117216
838	0.0148203
850	0.0099495
862	0.0084942
874	0.0090189
886	0.0028116
898	0.0009999
910	0.0004257
922	0.000198
934	0.0001683
946	0.0003663
958	0.0009603
970	0.0025047
982	0.004653
994	0.0064548
1006	0.0099891
1018	0.0154737
1030	0.0206118
1042	0.0216711
1054	0.0220176
1066	0.0331056
1078	0.0423819
1090	0.0336006
1102	0.0395307
1114	0.0243144
1126	0.0124443
1138	0.0101871
1150	0.0112662
1162	0.0192654
1174	0.0430056
1186	0.0697158
1198	0.0739629
1210	0.060093
1222	0.0507276
1234	0.0427185
1246	0.0427482
1258	0.0424017
1270	0.0413523
1282	0.0440253
1294	0.0419859
1306	0.0293238
1318	0.0150876
1330	0.0085635
1342	0.0062469
1354	0.0066825
1366	0.0078309
1378	0.0106425
1390	0.0109197
1402	0.0060885
1414	0.0064944
1426	0.0127908
1438	0.0216315
1450	0.0219384
1462	0.030888
1474	0.0873675
1486	0.0729927
1498	0.0289278
1510	0.0111771
1522	0.005148
1534	0.0032175
1546	0.0027621
1558	0.0037323
1570	0.0061974
1582	0.0075141
1594	0.0045837
1606	0.0019107
1618	0.001188
1630	0.0009603
1642	0.0008613
1654	0.0007623
1666	0.0008217
1678	0.0009999
1690	0.0013464
1702	0.0021186
1714	0.004059
1726	0.0081675
1738	0.015147
1750	0.0293733
1762	0.0580239
1774	0.0429858
1786	0.0454707
1798	0.0225126
1810	0.0096624
1822	0.0044451
1834	0.0025938
1846	0.0018513
1858	0.0013365
1870	0.0011286
1882	0.0010395
1894	0.0008019
1906	0.0005643
1918	0.0005049
1930	0.0005544
1942	0.0006336
1954	0.0006534
1966	0.0005247
1978	0.0004257
1990	0.0003762
2002	0.0003663
2014	0.0004158
2026	0.0005148
2038	0.0005346
2050	0.0005643
2062	0.000693
2074	0.0007722
2086	0.0007623
2098	0.0007623
2110	0.0007524
2122	0.0007722
2134	0.0007128
2146	0.0005445
2158	0.0004158
2170	0.000297
2182	0.0002079
2194	0.0001287
2206	6.93e-05
2218	0.0001089
2230	6.93e-05
2242	2.97e-05
2254	9.9e-06
2266	4.95e-05
2278	0.0001089
2290	0.0001881
2302	0.0002277
2314	0.0003069
2326	0.0003168
2338	0.0002277
2350	0.0001485
2362	5.94e-05
2374	7.92e-05
2386	8.91e-05
2398	0.0001089
2410	0.0001485
2422	0.0001485
2434	0.0001881
2446	0.0001881
2458	0.0001584
2470	0.000198
2482	0.0002277
2494	0.0002772
2506	0.0003564
2518	0.0004554
2530	0.0004653
2542	0.0004356
2554	0.0003267
2566	0.0002673
2578	0.0002079
2590	0.000198
2602	0.0002376
2614	0.0002475
2626	0.0001881
2638	0.0001188
2650	0.0002376
2662	0.0002178
2674	0.0002475
2686	0.0002475
2698	0.0002079
2710	0.0002574
2722	0.0003861
2734	0.0004257
2746	0.0003762
2758	0.0003762
2770	0.0004059
2782	0.0004158
2794	0.0005544
2806	0.0007821
2818	0.0009504
2830	0.0011187
2842	0.001683
2854	0.0030789
2866	0.0026532
2878	0.0022176
2890	0.0022968
2902	0.0030789
2914	0.0042075
2926	0.0057816
2938	0.0081477
2950	0.0101475
2962	0.0173745
2974	0.0100089
2986	0.005544
2998	0.0045243
3010	0.0043362
3022	0.0035937
3034	0.0034848
3046	0.0026928
3058	0.0020295
3070	0.0021681
3082	0.0022473
3094	0.0015444
3106	0.0011583
3118	0.0008316
3130	0.0006435
3142	0.0005841
3154	0.0004356
3166	0.0004059
3178	0.0003069
3190	0.0002178
3202	0.000297
3214	0.0002376
3226	0.0001188
3238	0.0001782
3250	0.0001188
3262	0.0001386
3274	0.0001485
3286	0.0001287
3298	0.0001287
3310	0.0001089
3322	8.91e-05
3334	0.0001881
3346	0.0001881
3358	6.93e-05
3370	0.0001188
3382	6.93e-05
3394	0.0001287
3406	0.0001386
3418	0.0001881
3430	0.0001188
3442	0.0001881
3454	0.000198
3466	0.0002574
3478	0.0002673
3490	0.0004653
3502	0.0007128
3514	0.0006336
3526	0.0006039
3538	0.000594
3550	0.0005841
3562	0.0004257
3574	0.0003663
3586	0.000297
3598	0.000198
3610	0.0002178
3622	0.0001881
3634	0.0001683
3646	0.000198
3658	0.0002079
3670	0.0001683
3682	0.0001782
3694	0.0001485
3706	0.0001782
3718	0.0002673
3730	0.0002376
3742	0.0002673
3754	0.0002376
3766	0.0001881
3778	0.0002772
3790	0.0001683
3802	0.0002673
3814	0.0002277
3826	0.0002178
3838	0.0002277
