Infrared Spectrum: 3-(4-Methoxyphenyl)propionic acid
Formula: C 10 H 12 O 3
CAS: 1929-29-9
State: gas
Origin: EPA-IR VAPOR PHASE LIBRARY
1/CM	ABSORBANCE
549.8	0.015841
559.445	0.016041
569.09	0.015581
578.734	0.013461
588.379	0.012241
598.024	0.011571
607.669	0.011801
617.313	0.011081
626.958	0.009861
636.603	0.007661
646.248	0.006021
655.893	0.004821
665.537	0.004241
675.182	0.004061
684.827	0.003621
694.472	0.003661
704.116	0.004971
713.761	0.004451
723.406	0.004291
733.051	0.003921
742.695	0.003381
752.34	0.004021
761.985	0.003331
771.63	0.002491
781.275	0.002401
790.919	0.003411
800.564	0.005171
810.209	0.007631
819.854	0.011911
829.498	0.014821
839.143	0.010011
848.788	0.004561
858.433	0.002761
868.078	0.002181
877.722	0.001751
887.367	0.001751
897.012	0.001921
906.657	0.001851
916.301	0.001961
925.946	0.002051
935.591	0.002761
945.236	0.003361
954.88	0.003451
964.525	0.003401
974.17	0.003741
983.815	0.004461
993.46	0.005121
1003.1	0.006221
1012.75	0.008631
1022.39	0.012041
1032.04	0.018131
1041.68	0.021801
1051.33	0.016301
1060.97	0.010761
1070.62	0.009671
1080.26	0.013331
1089.91	0.021431
1099.55	0.031641
1109.2	0.043331
1118.84	0.052801
1128.49	0.043371
1138.13	0.027271
1147.78	0.020221
1157.42	0.017301
1167.07	0.021781
1176.71	0.032341
1186.36	0.022651
1196	0.017261
1205.64	0.015491
1215.29	0.016601
1224.93	0.021411
1234.58	0.037671
1244.22	0.070151
1253.87	0.067361
1263.51	0.035551
1273.16	0.024421
1282.8	0.021091
1292.45	0.020471
1302.09	0.016031
1311.74	0.010011
1321.38	0.008311
1331.03	0.007641
1340.67	0.007711
1350.32	0.008221
1359.96	0.009731
1369.61	0.011641
1379.25	0.012551
1388.9	0.010471
1398.54	0.007281
1408.18	0.005921
1417.83	0.006071
1427.47	0.007011
1437.12	0.008521
1446.76	0.010471
1456.41	0.010331
1466.05	0.011051
1475.7	0.009051
1485.34	0.007021
1494.99	0.011681
1504.63	0.038021
1514.28	0.067611
1523.92	0.021131
1533.57	0.006221
1543.21	0.003721
1552.86	0.003011
1562.5	0.002771
1572.15	0.003691
1581.79	0.005381
1591.44	0.006701
1601.08	0.010011
1610.73	0.014191
1620.37	0.010131
1630.01	0.004531
1639.66	0.002971
1649.3	0.002241
1658.95	0.001821
1668.59	0.001631
1678.24	0.001721
1687.88	0.001961
1697.53	0.002331
1707.17	0.003141
1716.82	0.004751
1726.46	0.007491
1736.11	0.011981
1745.75	0.018541
1755.4	0.028091
1765.04	0.046261
1774.69	0.067211
1784.33	0.058221
1793.98	0.035211
1803.62	0.020671
1813.27	0.012241
1822.91	0.006831
1832.55	0.004041
1842.2	0.002821
1851.84	0.002241
1861.49	0.002131
1871.13	0.002051
1880.78	0.001921
1890.42	0.001661
1900.07	0.001401
1909.71	0.0012092
1919.36	0.0011225
1929	0.001058
1938.65	0.0010523
1948.29	0.0010873
1957.94	0.0011662
1967.58	0.0010614
1977.23	0.0011036
1986.87	0.0010221
1996.52	0.0011573
2006.16	0.0011607
2015.81	0.0011508
2025.45	0.0010928
2035.1	0.0011304
2044.74	0.0012525
2054.38	0.001381
2064.03	0.001481
2073.67	0.001451
2083.32	0.001331
2092.96	0.0010114
2102.61	0.000806
2112.25	0.0006386
2121.9	0.0005912
2131.54	0.0006134
2141.19	0.0005782
2150.83	0.000475
2160.48	0.0004871
2170.12	0.0004798
2179.77	0.0005231
2189.41	0.000572
2199.06	0.0006046
2208.7	0.0005576
2218.35	0.0007749
2227.99	0.0006238
2237.64	0.0007257
2247.28	0.0006136
2256.92	0.0006204
2266.57	0.0006146
2276.21	0.0006559
2285.86	0.0006894
2295.5	0.0006756
2305.15	0.0006337
2314.79	0.0006549
2324.44	0.000699
2334.08	0.0006949
2343.73	0.0006253
2353.37	0.0006334
2363.02	0.000602
2372.66	0.0004114
2382.31	0.0005247
2391.95	0.0004851
2401.6	0.0005186
2411.24	0.0005316
2420.89	0.0006248
2430.53	0.0005969
2440.18	0.0006548
2449.82	0.0005003
2459.47	0.0006321
2469.11	0.0006727
2478.75	0.000844
2488.4	0.0006886
2498.04	0.0006874
2507.69	0.0006418
2517.33	0.0006801
2526.98	0.0006705
2536.62	0.0007794
2546.27	0.0008095
2555.91	0.0008241
2565.56	0.0004694
2575.2	0.0004946
2584.85	0.0005382
2594.49	0.0006695
2604.14	0.0006405
2613.78	0.0003905
2623.43	0.00033136
2633.07	0.00036602
2642.72	0.0005031
2652.36	0.000485
2662.01	0.0004282
2671.65	0.0005613
2681.29	0.0004082
2690.94	0.0004999
2700.58	0.000559
2710.23	0.0004328
2719.87	0.0004492
2729.52	0.0005541
2739.16	0.0006828
2748.81	0.0006568
2758.45	0.0007234
2768.1	0.0006622
2777.74	0.0008431
2787.39	0.0009716
2797.03	0.0012605
2806.68	0.001631
2816.32	0.002171
2825.97	0.003181
2835.61	0.006101
2845.26	0.008961
2854.9	0.006091
2864.55	0.005031
2874.19	0.005101
2883.84	0.004841
2893.48	0.005341
2903.12	0.006891
2912.77	0.009461
2922.41	0.011761
2932.06	0.015041
2941.7	0.018331
2951.35	0.016461
2960.99	0.013681
2970.64	0.010331
2980.28	0.008481
2989.93	0.008811
2999.57	0.011701
3009.22	0.013401
3018.86	0.008261
3028.51	0.008461
3038.15	0.008711
3047.8	0.005321
3057.44	0.003901
3067.09	0.004331
3076.73	0.004391
3086.38	0.003251
3096.02	0.003051
3105.67	0.002671
3115.31	0.001951
3124.95	0.001381
3134.6	0.001311
3144.24	0.0008119
3153.89	0.0006981
3163.53	0.0006421
3173.18	0.0005031
3182.82	0.000277261
3192.47	0.0005188
3202.11	0.00031778
3211.76	0.0005666
3221.4	0.00032828
3231.05	0.00035818
3240.69	0.0002207
3250.34	0.0004362
3259.98	0.0002274
3269.63	0.0004012
3279.27	0.0002447
3288.92	0.0002426
3298.56	0.00036508
3308.21	0.0001735
3317.85	8.4e-05
3327.49	0.00033775
3337.14	0.000147
3346.78	0.00032862
3356.43	0.00035239
3366.07	0.000273099
3375.72	0.0002547
3385.36	0.000137
3395.01	0.00026266
3404.65	0.00036171
3414.3	0.000112
3423.94	0.0002018
3433.59	0.00035467
3443.23	0.0004916
3452.88	0.00029286
3462.52	0.00034983
3472.17	0.0002576
3481.81	0.0004021
3491.46	0.0004314
3501.1	0.000699
3510.75	0.0008757
3520.39	0.0012403
3530.04	0.001391
3539.68	0.001751
3549.32	0.002521
3558.97	0.005381
3568.61	0.021111
3578.26	0.028121
3587.9	0.006691
3597.55	0.002461
3607.19	0.001321
3616.84	0.0009889
3626.48	0.0008216
3636.13	0.0006077
3645.77	0.0006807
3655.42	0.0005312
3665.06	0.0003107
3674.71	0.0004381
3684.35	0.00034094
3694	0.00035851
3703.64	0.00030129
3713.29	0.00031959
3722.93	0.00032718
3732.58	0.0001872
3742.22	0.0001
3751.86	0.0002512
3761.51	0.000105
3771.15	0.000274594
3780.8	0.00032303
3790.44	0.00028141
3800.09	0.0002533
3809.73	0.00029494
3819.38	0.000128
3829.02	0.0001945
3838.67	0.0002339
3848.31	0.0001763
3857.96	0.0004134
3867.6	0.00032665
3877.25	0.0002455
3886.89	0.0002476
3896.54	0.0002966
3906.18	0.0002505
3915.83	0.0002301
3925.47	0.0003787
3935.12	0.000133
3944.76	0.00028112
3954.41	0.000138
3964.05	0.0004614
3973.69	0.000163
3983.34	0.0003855
3992.98	0.0004165
