Infrared Spectrum: Vernolate
Formula: C 10 H 21 N O S
CAS: 1929-77-7
State: gas
Instrument: HP-GC/MS/IRD
Origin: NIST Mass Spectrometry Data Center
1/CM	ABSORBANCE
550	0.0005328
562	0.0001488
574	0.0001344
586	0.0001296
598	0.00012
610	0.0001056
622	0.00036
634	0.0002736
646	0.0007152
658	0.0016656
670	0.0018672
682	0.0007728
694	0.000696
706	0.0012672
718	0.0017136
730	0.0012192
742	0.0014256
754	0.0017808
766	0.0018768
778	0.0016128
790	0.001392
802	0.0006816
814	0.0004128
826	0.000552
838	0.000936
850	0.0010704
862	0.0010368
874	0.0015312
886	0.0024576
898	0.0025536
910	0.0013296
922	0.0011376
934	0.0017616
946	0.00228
958	0.0013248
970	0.0004704
982	0.0003168
994	0.0003936
1006	0.0004368
1018	0.0006768
1030	0.0009792
1042	0.0014208
1054	0.001752
1066	0.0027648
1078	0.0049008
1090	0.008016
1102	0.0139008
1114	0.019944
1126	0.0136752
1138	0.0042384
1150	0.0021024
1162	0.0017376
1174	0.0023376
1186	0.0041472
1198	0.009264
1210	0.0185616
1222	0.0198288
1234	0.0076992
1246	0.003984
1258	0.0035232
1270	0.0052704
1282	0.0066576
1294	0.0068496
1306	0.005352
1318	0.0042912
1330	0.0039456
1342	0.005064
1354	0.0054432
1366	0.0073056
1378	0.010056
1390	0.0131184
1402	0.0122448
1414	0.0068256
1426	0.0041808
1438	0.004512
1450	0.005784
1462	0.007344
1474	0.0052272
1486	0.0022368
1498	0.0013104
1510	0.0009744
1522	0.000744
1534	0.000624
1546	0.000552
1558	0.0005136
1570	0.0005616
1582	0.0006288
1594	0.0007536
1606	0.0009888
1618	0.0014544
1630	0.0024576
1642	0.004248
1654	0.0127344
1666	0.0429456
1678	0.0309264
1690	0.0057888
1702	0.0021936
1714	0.001248
1726	0.0008832
1738	0.0007152
1750	0.000576
1762	0.0004656
1774	0.00036
1786	0.0002688
1798	0.0002112
1810	0.0001584
1822	0.000144
1834	0.000144
1846	0.0001056
1858	0.0001152
1870	8.64e-05
1882	9.12e-05
1894	0.0001152
1906	7.68e-05
1918	7.2e-05
1930	4.8e-05
1942	4.8e-05
1954	1.92e-05
1966	3.36e-05
1978	2.4e-05
1990	3.36e-05
2002	4.8e-06
2014	4.8e-06
2026	5.76e-05
2038	4.8e-05
2050	7.2e-05
2062	0.0001008
2074	6.24e-05
2086	8.64e-05
2098	4.32e-05
2110	4.8e-05
2122	5.28e-05
2134	4.32e-05
2146	4.32e-05
2158	4.8e-06
2170	6.24e-05
2182	4.32e-05
2194	2.4e-05
2206	6.24e-05
2218	4.8e-05
2230	3.36e-05
2242	5.76e-05
2254	2.88e-05
2266	1.92e-05
2278	3.36e-05
2290	3.84e-05
2302	6.24e-05
2314	9.12e-05
2326	0.0001008
2338	9.6e-05
2350	0.0001008
2362	6.24e-05
2374	6.24e-05
2386	0.0001008
2398	0.0001248
2410	0.000144
2422	0.0001248
2434	4.8e-05
2446	5.76e-05
2458	4.8e-05
2470	3.36e-05
2482	0.0001152
2494	0.0001104
2506	0.0001392
2518	3.84e-05
2530	5.76e-05
2542	7.68e-05
2554	0.0001008
2566	4.32e-05
2578	8.64e-05
2590	5.28e-05
2602	4.32e-05
2614	8.64e-05
2626	7.68e-05
2638	0.0001104
2650	0.0001824
2662	0.0002256
2674	0.0002496
2686	0.0002064
2698	0.0002496
2710	0.0002592
2722	0.000312
2734	0.000408
2746	0.0005088
2758	0.000528
2770	0.0005568
2782	0.0006048
2794	0.0007536
2806	0.0009168
2818	0.0011088
2830	0.0014496
2842	0.0019056
2854	0.0029328
2866	0.0057552
2878	0.0102864
2890	0.0112368
2902	0.0083136
2914	0.0099552
2926	0.0151296
2938	0.018432
2950	0.0164448
2962	0.0187968
2974	0.028104
2986	0.0135024
2998	0.0050592
3010	0.0029616
3022	0.002088
3034	0.0016752
3046	0.0012576
3058	0.0010032
3070	0.000816
3082	0.0007008
3094	0.0005856
3106	0.0005136
3118	0.0004512
3130	0.0003504
3142	0.0003648
3154	0.0003504
3166	0.0002976
3178	0.0002544
3190	0.0002592
3202	0.0002496
3214	0.000144
3226	0.0001392
3238	0.000168
3250	0.0001104
3262	0.0001152
3274	8.64e-05
3286	0.0001488
3298	0.0002352
3310	0.0003024
3322	0.0003168
3334	0.0002352
3346	0.0002208
3358	9.12e-05
3370	8.16e-05
3382	7.68e-05
3394	0.0001152
3406	6.24e-05
3418	3.84e-05
3430	6.72e-05
3442	7.68e-05
3454	4.8e-05
3466	9.12e-05
3478	3.84e-05
3490	4.8e-05
3502	2.4e-05
3514	2.4e-05
3526	4.8e-05
3538	5.28e-05
3550	0.0001056
3562	0.0001152
3574	4.32e-05
3586	6.24e-05
3598	6.72e-05
3610	0.0001056
3622	6.72e-05
3634	0.0001632
3646	9.6e-05
3658	0.0001152
3670	0.0001104
3682	6.72e-05
3694	6.72e-05
3706	0.0001248
3718	0.0001632
3730	0.0001776
3742	0.0001584
3754	0.0001344
3766	0.0001008
3778	3.84e-05
3790	0.0001344
3802	0.0001152
3814	0.0001008
3826	0.0001104
3838	0.00012
