Infrared Spectrum: Methylenesuccinyl chloride
Formula: C5 H4 Cl2 O2
CAS: 1931-60-8
State: SOLUTION (10% CCl4 FOR 3800-1330, 10% CS2 FOR 1330-460 CM^-^1)
Boiling point: 93 C AT 10 mmHg
Class: COBLENTZ II
Instrument: DOW KBr FOREPRISM-GRATING
Instrument parameters: BLAZED AT 3.5, 12.0, 20.0 MICRON AND CHANGED AT 5.0, 7.5, 14.9 MICRON
Sampling: TRANSMISSION
Path length: 0.011 CM, 0.012 CM
Resolution: 2
Origin: DOW CHEMICAL COMPANY
1/CM	TRANSMITTANCE
3800	0.8745
3791	0.8767
3782	0.8775
3773	0.8761
3764	0.8755
3755	0.8746
3746	0.8738
3737	0.88
3728	0.8824
3719	0.8798
3710	0.8777
3701	0.8761
3692	0.8758
3683	0.8753
3674	0.8748
3665	0.8751
3656	0.8775
3647	0.8668
3638	0.8655
3629	0.8638
3620	0.8618
3611	0.858
3602	0.8542
3593	0.8501
3584	0.8433
3575	0.8368
3566	0.8332
3557	0.8345
3548	0.8404
3539	0.8463
3530	0.853
3521	0.8595
3512	0.8637
3503	0.8633
3494	0.859
3485	0.8387
3476	0.8312
3467	0.83
3458	0.8371
3449	0.8492
3440	0.8603
3431	0.8677
3422	0.8699
3413	0.8715
3404	0.871
3395	0.8704
3386	0.8699
3377	0.8693
3368	0.869
3359	0.869
3350	0.869
3341	0.869
3332	0.8691
3323	0.8692
3314	0.8687
3305	0.8681
3296	0.8675
3287	0.867
3278	0.8666
3269	0.866
3260	0.8656
3251	0.8649
3242	0.8637
3233	0.8624
3224	0.8612
3215	0.8595
3206	0.8578
3197	0.8555
3188	0.853
3179	0.8505
3170	0.8482
3161	0.8456
3152	0.8414
3143	0.8364
3134	0.8321
3125	0.8278
3116	0.8243
3107	0.8249
3098	0.829
3089	0.8297
3080	0.8304
3071	0.8291
3062	0.8268
3053	0.8254
3044	0.8251
3035	0.8243
3026	0.8201
3017	0.8135
3008	0.8071
2999	0.8007
2990	0.7938
2981	0.7865
2972	0.7796
2963	0.779
2954	0.7946
2945	0.7954
2936	0.7801
2927	0.775
2918	0.7911
2909	0.8122
2900	0.8262
2891	0.8371
2882	0.847
2873	0.8551
2864	0.8584
2855	0.8577
2846	0.8566
2837	0.856
2828	0.8574
2819	0.8589
2810	0.8604
2801	0.8614
2792	0.8623
2783	0.8633
2774	0.8636
2765	0.8632
2756	0.8628
2747	0.8633
2738	0.8642
2729	0.8652
2720	0.8665
2711	0.8675
2702	0.8689
2693	0.8699
2684	0.871
2675	0.872
2666	0.8733
2657	0.8749
2648	0.8766
2639	0.8778
2630	0.8788
2621	0.8797
2612	0.8807
2603	0.8811
2594	0.8811
2585	0.8806
2576	0.8823
2567	0.884
2558	0.8857
2549	0.8864
2540	0.8866
2531	0.8867
2522	0.8868
2513	0.8868
2504	0.8868
2495	0.888
2486	0.8892
2477	0.8904
2468	0.8912
2459	0.892
2450	0.893
2441	0.8944
2432	0.8955
2423	0.8959
2414	0.8955
2405	0.8948
2396	0.8943
2387	0.8942
2378	0.8968
2369	0.9016
2360	0.9048
2351	0.9074
2342	0.9089
2333	0.9091
2324	0.9088
2315	0.9073
2306	0.9009
2297	0.8956
2288	0.8971
2279	0.8982
2270	0.8988
2261	0.8971
2252	0.8946
2243	0.8931
2234	0.8944
2225	0.8955
2216	0.8966
2207	0.8982
2198	0.8998
2189	0.9012
2180	0.9025
2171	0.9027
2162	0.9028
2153	0.9034
2144	0.904
2135	0.9051
2126	0.907
2117	0.9063
2108	0.9032
2099	0.9044
2090	0.9056
2081	0.9057
2072	0.9033
2063	0.8989
2054	0.8988
2045	0.8993
2036	0.9
2027	0.8994
2018	0.897
2009	0.8921
2000	0.8661
1991	0.8374
1982	0.8375
1973	0.835
1964	0.8132
1955	0.7825
1946	0.7686
1937	0.7754
1928	0.7824
1919	0.7797
1910	0.7748
1901	0.7635
1892	0.7454
1883	0.7038
1874	0.5966
1865	0.523
1856	0.5002
1847	0.4848
1838	0.4326
1829	0.2656
1820	0.1014
1811	0.0233
1802	0.0011
1793	0.0004
1784	0.0209
1775	0.0728
1766	0.1096
1757	0.0158
1748	0.0051
1739	0.0649
1730	0.3031
1721	0.5115
1712	0.6268
1703	0.6892
1694	0.7419
1685	0.768
1676	0.7388
1667	0.6864
1658	0.7458
1649	0.7756
1640	0.7446
1631	0.7705
1622	0.7778
1613	0.8128
1604	0.8255
1595	0.8356
1586	0.8458
1577	0.8389
1568	0.8368
1559	0.8478
1550	0.8528
1541	0.8559
1532	0.8574
1523	0.8578
1514	0.8551
1505	0.8528
1496	0.8497
1487	0.8453
1478	0.834
1469	0.829
1460	0.8128
1451	0.7811
1442	0.7147
1433	0.7118
1424	0.5462
1415	0.3968
1406	0.4587
1397	0.4569
1388	0.5054
1379	0.6557
1370	0.7114
1361	0.6975
1352	0.6854
1343	0.7093
1334	0.6861
1325	0.6182
1316	0.4721
1307	0.5272
1298	0.5214
1289	0.585
1280	0.4491
1271	0.3886
1262	0.5699
1253	0.6494
1244	0.629
1235	0.5934
1226	0.5557
1217	0.4694
1208	0.621
1199	0.6375
1190	0.5518
1181	0.4512
1172	0.6601
1163	0.6964
1154	0.6675
1145	0.6558
1136	0.6918
1127	0.7289
1118	0.7587
1109	0.7581
1100	0.7333
1091	0.7151
1082	0.6335
1073	0.6645
1064	0.6405
1055	0.5858
1046	0.4822
1037	0.3771
1028	0.3612
1019	0.3964
1010	0.3709
1001	0.1192
992	0.0728
983	0.1548
974	0.0771
965	0.029
956	0.0097
947	0.0371
938	0.2164
929	0.2367
920	0.2617
911	0.322
902	0.3355
893	0.2596
884	0.3678
875	0.5451
866	0.6068
857	0.6521
848	0.6775
839	0.6176
830	0.6378
821	0.6837
812	0.6801
803	0.5551
794	0.4014
785	0.1592
776	0.4791
767	0.5762
758	0.5386
749	0.6362
740	0.6933
731	0.601
722	0.699
713	0.6943
704	0.665
695	0.6615
686	0.6403
677	0.6314
668	0.6543
659	0.6051
650	0.4629
641	0.1885
632	0.4222
623	0.5816
614	0.6247
605	0.3516
596	0.4073
587	0.3005
578	0.551
569	0.6146
560	0.6619
551	0.7068
542	0.7146
533	0.7015
524	0.6708
515	0.6185
506	0.5754
497	0.5594
488	0.6388
479	0.5055
470	0.4983
461	0.5552
