Infrared Spectrum: AZELAIC ACID, BIS(2,2,4-TRIMETHYL PENTYL) ESTER
Formula: C25 H48 O4
CAS: 1931-83-5
Class: COBLENTZ
Instrument: Not specified, most likely a prism, grating, or hybrid spectrometer.
Sampling: TRANSMISSION
Path length: SMEAR
Resolution: 4
Origin: TENNESSEE EASTMAN COMPANY, RESEARCH LABORATORIES
MICROMETERS	TRANSMITTANCE
2.013	0.98
2.05282	0.973
2.09265	0.973
2.13247	0.973
2.17229	0.971
2.21211	0.933
2.25194	0.898
2.29176	0.906
2.33158	0.911
2.37141	0.913
2.41123	0.921
2.45105	0.928
2.49088	0.945
2.5307	0.95
2.57052	0.95
2.61034	0.953
2.65017	0.96
2.68999	0.961
2.72981	0.963
2.76964	0.963
2.80946	0.963
2.84928	0.953
2.88911	0.93
2.92893	0.95
2.96875	0.953
3.00857	0.953
3.0484	0.953
3.08822	0.93
3.12804	0.925
3.16787	0.928
3.20769	0.931
3.24751	0.908
3.28734	0.755
3.32716	0
3.36698	0.059
3.4068	0.124
3.44663	0.187
3.48645	0.691
3.52627	0.818
3.5661	0.878
3.60592	0.888
3.64574	0.868
3.68556	0.903
3.72539	0.911
3.76521	0.921
3.80503	0.933
3.84486	0.941
3.88468	0.951
3.9245	0.963
3.96433	0.971
4.00415	0.976
4.04397	0.976
4.08379	0.976
4.12362	0.976
4.16344	0.976
4.20326	0.983
4.24309	0.996
4.28291	0.998
4.32273	0.976
4.36256	0.976
4.40238	0.978
4.4422	0.98
4.48202	0.98
4.52185	0.98
4.56167	0.978
4.60149	0.978
4.64132	0.976
4.68114	0.975
4.72096	0.975
4.76079	0.975
4.80061	0.976
4.84043	0.975
4.88025	0.973
4.92008	0.971
4.9599	0.971
4.99972	0.975
5.03955	0.973
5.07937	0.973
5.11919	0.971
5.15901	0.971
5.19884	0.971
5.23866	0.973
5.27848	0.968
5.31831	0.968
5.35813	0.963
5.39795	0.955
5.43778	0.938
5.4776	0.916
5.51742	0.882
5.55724	0.827
5.59707	0.725
5.63689	0.508
5.67671	0.119
5.71654	0.026
5.75636	0.129
5.79618	0.418
5.83601	0.619
5.87583	0.696
5.91565	0.792
5.95547	0.843
5.9953	0.88
6.03512	0.901
6.07494	0.908
6.11477	0.918
6.15459	0.926
6.19441	0.933
6.23423	0.94
6.27406	0.943
6.31388	0.945
6.3537	0.943
6.39353	0.933
6.43335	0.938
6.47317	0.918
6.513	0.916
6.55282	0.893
6.59264	0.848
6.63246	0.799
6.67229	0.574
6.71211	0.262
6.75193	0.172
6.79176	0.22
6.83158	0.327
6.8714	0.441
6.91123	0.526
6.95105	0.566
6.99087	0.519
7.03069	0.626
7.07052	0.642
7.11034	0.466
7.15016	0.35
7.18999	0.275
7.22981	0.162
7.26963	0.161
7.30946	0.267
7.34928	0.4
7.3891	0.413
7.42892	0.475
7.46875	0.526
7.50857	0.516
7.54839	0.478
7.58822	0.438
7.62804	0.398
7.66786	0.39
7.70768	0.392
7.74751	0.37
7.78733	0.332
7.82715	0.312
7.86698	0.269
7.9068	0.234
7.94662	0.181
7.98645	0.146
8.02627	0.151
8.06609	0.176
8.10591	0.197
8.14574	0.214
8.18556	0.215
8.22538	0.202
8.26521	0.182
8.30503	0.144
8.34485	0.122
8.38468	0.102
8.4245	0.078
8.46432	0.063
8.50414	0.056
8.54397	0.058
8.58379	0.079
8.62361	0.132
8.66344	0.197
8.70326	0.262
8.74308	0.28
8.78291	0.285
8.82273	0.31
8.86255	0.4
8.90237	0.493
8.9422	0.558
8.98202	0.526
9.02184	0.446
9.06167	0.37
9.10149	0.347
9.14131	0.39
9.18113	0.426
9.22096	0.516
9.26078	0.594
9.3006	0.646
9.34043	0.666
9.38025	0.667
9.42007	0.657
9.4599	0.667
9.49972	0.676
9.53954	0.657
9.57936	0.612
9.61919	0.571
9.65901	0.508
9.69883	0.455
9.73866	0.4
9.77848	0.365
9.8183	0.347
9.85813	0.342
9.89795	0.362
9.93777	0.401
9.97759	0.423
10.0174	0.43
10.0572	0.428
10.0971	0.43
10.1369	0.471
10.1767	0.533
10.2165	0.566
10.2564	0.583
10.2962	0.626
10.336	0.684
10.3758	0.732
10.4156	0.779
10.4555	0.787
10.4953	0.79
10.5351	0.789
10.5749	0.775
10.6148	0.752
10.6546	0.749
10.6944	0.744
10.7342	0.724
10.7741	0.724
10.8139	0.729
10.8537	0.752
10.8935	0.779
10.9333	0.805
10.9732	0.813
11.013	0.82
11.0528	0.82
11.0926	0.828
11.1325	0.843
11.1723	0.855
11.2121	0.868
11.2519	0.878
11.2918	0.88
11.3316	0.88
11.3714	0.878
11.4112	0.87
11.451	0.865
11.4909	0.857
11.5307	0.843
11.5705	0.838
11.6103	0.842
11.6502	0.858
11.69	0.877
11.7298	0.888
11.7696	0.898
11.8095	0.903
11.8493	0.906
11.8891	0.906
11.9289	0.905
11.9687	0.901
12.0086	0.9
12.0484	0.898
12.0882	0.897
12.128	0.898
12.1679	0.9
12.2077	0.905
12.2475	0.908
12.2873	0.913
12.3271	0.92
12.367	0.925
12.4068	0.928
12.4466	0.928
12.4864	0.928
12.5263	0.926
12.5661	0.925
12.6059	0.925
12.6457	0.92
12.6856	0.918
12.7254	0.913
12.7652	0.91
12.805	0.905
12.8448	0.901
12.8847	0.893
12.9245	0.887
12.9643	0.887
13.0041	0.88
13.044	0.882
13.0838	0.877
13.1236	0.873
13.1634	0.868
13.2033	0.867
13.2431	0.862
13.2829	0.862
13.3227	0.86
13.3625	0.86
13.4024	0.858
13.4422	0.85
13.482	0.837
13.5218	0.825
13.5617	0.81
13.6015	0.797
13.6413	0.782
13.6811	0.765
13.721	0.764
13.7608	0.767
13.8006	0.787
13.8404	0.8
13.8802	0.81
13.9201	0.817
13.9599	0.822
13.9997	0.825
14.0395	0.822
14.0794	0.818
14.1192	0.817
14.159	0.815
14.1988	0.813
14.2387	0.81
14.2785	0.81
14.3183	0.808
14.3581	0.808
14.3979	0.805
14.4378	0.802
14.4776	0.8
14.5174	0.8
14.5572	0.799
14.5971	0.792
14.6369	0.79
14.6767	0.789
14.7165	0.782
14.7564	0.779
14.7962	0.772
14.836	0.772
14.8758	0.767
14.9156	0.767
14.9555	0.77
14.9953	0.764
15.0351	0.754
15.0749	0.745
15.1148	0.739
15.1546	0.734
15.1944	0.732
15.2342	0.729
15.274	0.724
15.3139	0.722
15.3537	0.717
15.3935	0.712
15.4333	0.71
15.4732	0.709
15.513	0.705
15.5528	0.702
15.5926	0.7
15.6325	0.702
15.6723	0.702
15.7121	0.7
15.7519	0.699
15.7917	0.699
15.8316	0.699
15.8714	0.7
15.9112	0.7
15.951	0.7
15.9909	0.7
