Infrared Spectrum: Propargyl propionate
Formula: C 6 H 8 O 2
CAS: 1932-92-9
State: gas
Instrument: HP-GC/MS/IRD
Origin: NIST Mass Spectrometry Data Center
1/CM	ABSORBANCE
550	0.0003712
562	0.0001984
574	0.0001504
586	0.0004896
598	0.0012608
610	0.002736
622	0.0055936
634	0.0080256
646	0.0063552
658	0.0059488
670	0.0080192
682	0.0044288
694	0.0011232
706	0.0002816
718	0
730	3.2e-05
742	1.6e-05
754	5.12e-05
766	0.0001696
778	0.00024
790	0.0003904
802	0.0005728
814	0.0009408
826	0.0012192
838	0.0012032
850	0.00096
862	0.0007008
874	0.000528
886	0.000432
898	0.000448
910	0.0006976
922	0.0013376
934	0.0021152
946	0.0025504
958	0.0026976
970	0.0029664
982	0.0034976
994	0.0044864
1006	0.0071808
1018	0.0099456
1030	0.0109696
1042	0.0093056
1054	0.0089728
1066	0.0109472
1078	0.0116224
1090	0.009872
1102	0.0071968
1114	0.0064864
1126	0.007648
1138	0.0104448
1150	0.0177216
1162	0.0283488
1174	0.0319584
1186	0.0269696
1198	0.0217824
1210	0.0161184
1222	0.0111232
1234	0.0091456
1246	0.0090016
1258	0.0085792
1270	0.0082368
1282	0.0067456
1294	0.0043072
1306	0.003296
1318	0.0042112
1330	0.006624
1342	0.007664
1354	0.0058304
1366	0.0043488
1378	0.0042208
1390	0.003024
1402	0.0020064
1414	0.0018848
1426	0.0025472
1438	0.003568
1450	0.0038304
1462	0.0037088
1474	0.0029056
1486	0.001488
1498	0.0007968
1510	0.0004928
1522	0.0003328
1534	0.0002976
1546	0.0002816
1558	0.0001504
1570	0.0001568
1582	0.0001632
1594	0.0001664
1606	0.000176
1618	0.000128
1630	0.0002112
1642	0.0002336
1654	0.0001952
1666	0.0003296
1678	0.0004544
1690	0.0007392
1702	0.0012896
1714	0.0024704
1726	0.0046208
1738	0.0094432
1750	0.0200384
1762	0.0299296
1774	0.0279008
1786	0.0135936
1798	0.0047776
1810	0.0020256
1822	0.001088
1834	0.000688
1846	0.0004704
1858	0.000384
1870	0.0002976
1882	0.00024
1894	0.0002048
1906	0.000208
1918	0.0002144
1930	0.0002304
1942	0.0002208
1954	0.000224
1966	0.0002496
1978	0.0002912
1990	0.0003072
2002	0.0002752
2014	0.000272
2026	0.0002112
2038	0.0001888
2050	0.0001568
2062	0.0001312
2074	0.000128
2086	0.0001088
2098	0.0001376
2110	0.0001696
2122	0.000192
2134	0.0002144
2146	0.0001632
2158	0.0001152
2170	5.76e-05
2182	5.12e-05
2194	2.56e-05
2206	3.52e-05
2218	2.88e-05
2230	3.84e-05
2242	3.84e-05
2254	1.28e-05
2266	4.8e-05
2278	6.4e-05
2290	6.08e-05
2302	5.76e-05
2314	3.84e-05
2326	3.2e-06
2338	6.4e-06
2350	1.28e-05
2362	0
2374	1.28e-05
2386	5.12e-05
2398	1.28e-05
2410	3.84e-05
2422	4.8e-05
2434	3.2e-05
2446	4.48e-05
2458	1.92e-05
2470	2.88e-05
2482	2.24e-05
2494	1.6e-05
2506	1.6e-05
2518	9.6e-06
2530	0
2542	1.92e-05
2554	2.24e-05
2566	2.56e-05
2578	2.24e-05
2590	3.84e-05
2602	6.4e-05
2614	0.0001024
2626	5.44e-05
2638	0.0001184
2650	7.36e-05
2662	9.28e-05
2674	0.0001088
2686	0.0001024
2698	0.0001152
2710	8.96e-05
2722	0.0001184
2734	0.0001568
2746	0.000192
2758	0.0002272
2770	0.0002624
2782	0.000256
2794	0.0003136
2806	0.0003488
2818	0.000416
2830	0.0004512
2842	0.000528
2854	0.0006944
2866	0.0009152
2878	0.001296
2890	0.0020128
2902	0.0023584
2914	0.002288
2926	0.0026528
2938	0.0039392
2950	0.0065248
2962	0.006816
2974	0.0053088
2986	0.0058624
2998	0.0052832
3010	0.0031328
3022	0.0019072
3034	0.001152
3046	0.0007392
3058	0.0005376
3070	0.0004512
3082	0.0003456
3094	0.0003232
3106	0.0003264
3118	0.00032
3130	0.00024
3142	0.000256
3154	0.0002464
3166	0.0002848
3178	0.0002496
3190	0.0002368
3202	0.0002688
3214	0.0002976
3226	0.0002432
3238	0.0002272
3250	0.0002912
3262	0.0004768
3274	0.0007296
3286	0.0012992
3298	0.002544
3310	0.0039232
3322	0.0072768
3334	0.0069952
3346	0.0023552
3358	0.0009728
3370	0.0004896
3382	0.000368
3394	0.0002528
3406	0.0001504
3418	0.0001696
3430	0.0001408
3442	0.0001568
3454	0.00016
3466	0.000192
3478	0.000224
3490	0.0003296
3502	0.0004448
3514	0.0004992
3526	0.0004032
3538	0.000288
3550	0.0002112
3562	0.0001952
3574	0.0001568
3586	0.000176
3598	8.32e-05
3610	0.000128
3622	0.0001248
3634	8.32e-05
3646	4.16e-05
3658	7.68e-05
3670	3.52e-05
3682	0.0001024
3694	0.0001088
3706	6.72e-05
3718	9.92e-05
3730	0.0001312
3742	8.32e-05
3754	6.72e-05
3766	0.000112
3778	0.0001216
3790	0.0001344
3802	2.24e-05
3814	8e-05
3826	0.0001312
3838	1.92e-05
