Infrared Spectrum: ANILINE, N-ALLYL-o-tert-BUTYL-
Formula: C13 H19 N
CAS: 193338-72-6
State: LIQUID (NEAT)
Class: COBLENTZ III
Instrument: BECKMAN IR-4 (HYBRID PRISM-GRATING)
Instrument parameters: NaCl PRISM
Sampling: TRANSMISSION
Path length: CAPILLARY
Resolution: 2
Origin: MONSANTO (J. FREEMAN)
1/CM	TRANSMITTANCE
3960.4	0.8558
3951.51	0.8566
3942.62	0.8574
3933.73	0.8582
3924.85	0.8591
3915.96	0.8599
3907.07	0.8607
3898.18	0.8616
3889.29	0.8625
3880.4	0.8636
3871.51	0.8645
3862.62	0.8656
3853.74	0.8666
3844.85	0.8675
3835.96	0.8686
3827.07	0.8696
3818.18	0.8704
3809.29	0.871
3800.4	0.8716
3791.51	0.8721
3782.63	0.8727
3773.74	0.8732
3764.85	0.8733
3755.96	0.8735
3747.07	0.8736
3738.18	0.8737
3729.29	0.8738
3720.4	0.8731
3711.52	0.8719
3702.63	0.8707
3693.74	0.8695
3684.85	0.8677
3675.96	0.8655
3667.07	0.8633
3658.18	0.8611
3649.29	0.8588
3640.41	0.8554
3631.52	0.8519
3622.63	0.8483
3613.74	0.8433
3604.85	0.8372
3595.96	0.8285
3587.07	0.8152
3578.18	0.8022
3569.3	0.7875
3560.41	0.7574
3551.52	0.7175
3542.63	0.6771
3533.74	0.6364
3524.85	0.5956
3515.96	0.5301
3507.07	0.5268
3498.19	0.5287
3489.3	0.5698
3480.41	0.6259
3471.52	0.6823
3462.63	0.7391
3453.74	0.7959
3444.85	0.8356
3435.96	0.8406
3427.08	0.8448
3418.19	0.8487
3409.3	0.8524
3400.41	0.8546
3391.52	0.8567
3382.63	0.8589
3373.74	0.8605
3364.85	0.8614
3355.97	0.8624
3347.08	0.8633
3338.19	0.8642
3329.3	0.8646
3320.41	0.865
3311.52	0.8655
3302.63	0.8659
3293.74	0.8662
3284.86	0.8662
3275.97	0.866
3267.08	0.8659
3258.19	0.8657
3249.3	0.8655
3240.41	0.8645
3231.52	0.8635
3222.63	0.8625
3213.75	0.8615
3204.86	0.8602
3195.97	0.8581
3187.08	0.856
3178.19	0.8532
3169.3	0.8483
3160.41	0.8432
3151.52	0.836
3142.64	0.8269
3133.75	0.8002
3124.86	0.7388
3115.97	0.6555
3107.08	0.5716
3098.19	0.4823
3089.3	0.4791
3080.41	0.4991
3071.53	0.5196
3062.64	0.5404
3053.75	0.5492
3044.86	0.5486
3035.97	0.486
3027.08	0.4337
3018.19	0.3812
3009.3	0.3284
3000.42	0.2753
2991.53	0.2219
2982.64	0.168
2973.75	0.1649
2964.86	0.1856
2955.97	0.2115
2947.08	0.2375
2938.19	0.2636
2929.31	0.2886
2920.42	0.2958
2911.53	0.3023
2902.64	0.3073
2893.75	0.3124
2884.86	0.3161
2875.97	0.3216
2867.08	0.3791
2858.2	0.4523
2849.31	0.5261
2840.42	0.6
2831.53	0.6442
2822.64	0.6819
2813.75	0.7264
2804.86	0.7479
2795.97	0.7673
2787.09	0.7865
2778.2	0.8069
2769.31	0.8287
2760.42	0.8443
2751.53	0.8525
2742.64	0.8603
2733.75	0.8667
2724.86	0.871
2715.98	0.8748
2707.09	0.879
2698.2	0.8842
2689.31	0.8884
2680.42	0.8911
2671.53	0.8921
2662.64	0.8929
2653.75	0.8939
2644.87	0.8944
2635.98	0.8945
2627.09	0.8946
2618.2	0.8944
2609.31	0.8937
2600.42	0.8932
2591.53	0.8932
2582.64	0.8935
2573.76	0.8949
2564.87	0.8965
2555.98	0.899
2547.09	0.9014
2538.2	0.9039
2529.31	0.9066
2520.42	0.9095
2511.53	0.9123
2502.65	0.9147
2493.76	0.917
2484.87	0.9195
2475.98	0.9213
2467.09	0.9229
2458.2	0.9242
2449.31	0.9253
2440.42	0.9261
2431.54	0.9251
2422.65	0.9232
2413.76	0.9202
2404.87	0.9162
2395.98	0.9114
2387.09	0.9044
2378.2	0.8986
2369.31	0.8988
2360.43	0.9028
2351.54	0.9069
2342.65	0.9112
2333.76	0.9157
2324.87	0.9196
2315.98	0.9223
2307.09	0.9251
2298.2	0.9279
2289.32	0.9294
2280.43	0.9304
2271.54	0.9314
2262.65	0.9324
2253.76	0.9335
2244.87	0.934
2235.98	0.9342
2227.09	0.9345
2218.21	0.9348
2209.32	0.9351
2200.43	0.9352
2191.54	0.9353
2182.65	0.9353
2173.76	0.9354
2164.87	0.9354
2155.98	0.9355
2147.1	0.9355
2138.21	0.9353
2129.32	0.9351
2120.43	0.9349
2111.54	0.9346
2102.65	0.9344
2093.76	0.9344
2084.87	0.9343
2075.99	0.9343
2067.1	0.9343
2058.21	0.9344
2049.32	0.9346
2040.43	0.9347
2031.54	0.9349
2022.65	0.9347
2013.76	0.9341
2004.88	0.9333
1995.99	0.9318
1987.1	0.9306
1978.21	0.9292
1969.32	0.9268
1960.43	0.9231
1951.54	0.9178
1942.65	0.911
1933.77	0.9039
1924.88	0.8976
1915.99	0.8922
1907.1	0.8859
1898.21	0.8767
1889.32	0.8685
1880.43	0.8667
1871.54	0.8675
1862.66	0.8714
1853.77	0.8778
1844.88	0.8843
1835.99	0.8903
1827.1	0.8952
1818.21	0.8987
1809.32	0.9014
1800.43	0.9035
1791.55	0.9036
1782.66	0.9014
1773.77	0.9004
1764.88	0.9108
1755.99	0.9234
1747.1	0.9258
1738.21	0.926
1729.32	0.9207
1720.44	0.9092
1711.55	0.8992
1702.66	0.889
1693.77	0.8778
1684.88	0.866
1675.99	0.854
1667.1	0.8344
1658.21	0.7116
1649.33	0.5831
1640.44	0.6852
1631.55	0.7733
1622.66	0.7459
1613.77	0.5258
1604.88	0.2719
1595.99	0.4048
1587.1	0.3595
1578.22	0.3357
1569.33	0.6796
1560.44	0.7497
1551.55	0.7344
1542.66	0.5994
1533.77	0.4652
1524.88	0.3139
1515.99	0.1827
1507.11	0.1194
1498.22	0.2966
1489.33	0.3138
1480.44	0.3638
1471.55	0.3828
1462.66	0.351
1453.77	0.1531
1444.88	0.1497
1436	0.2948
1427.11	0.4782
1418.22	0.4736
1409.33	0.5919
1400.44	0.4582
1391.55	0.6353
1382.66	0.727
1373.77	0.451
1364.89	0.5117
1356	0.6748
1347.11	0.7309
1338.22	0.7306
1329.33	0.621
1320.44	0.3885
1311.55	0.1864
1302.66	0.339
1293.78	0.4002
1284.89	0.4427
1276	0.5375
1267.11	0.3853
1258.22	0.224
1249.33	0.3036
1240.44	0.3512
1231.55	0.4179
1222.67	0.6173
1213.78	0.7343
1204.89	0.653
1196	0.4984
1187.11	0.647
1178.22	0.7162
1169.33	0.5578
1160.44	0.6859
1151.56	0.5793
1142.67	0.4869
1133.78	0.6831
1124.89	0.7093
1116	0.6094
1107.11	0.5766
1098.22	0.5419
1089.33	0.665
1080.45	0.7214
1071.56	0.6754
1062.67	0.5693
1053.78	0.3194
1044.89	0.6696
1036	0.7477
1027.11	0.6966
1018.22	0.6245
1009.34	0.6911
1000.45	0.5528
991.558	0.391
982.669	0.5657
973.781	0.6818
964.892	0.7733
956.003	0.7668
947.114	0.7491
938.226	0.6128
929.337	0.3977
920.448	0.2938
911.559	0.3221
902.671	0.5224
893.782	0.7473
884.893	0.8444
876.004	0.8752
867.116	0.8821
858.227	0.8411
849.338	0.8019
840.449	0.7618
831.561	0.8581
822.672	0.8536
813.783	0.8407
804.894	0.8621
796.006	0.8309
787.117	0.8056
778.228	0.798
769.339	0.7449
760.451	0.5519
751.562	0.2157
742.673	0.1008
733.784	0.3712
724.896	0.6781
716.007	0.7354
707.118	0.7472
698.229	0.7387
689.341	0.7408
680.452	0.7357
671.563	0.6357
662.674	0.5481
653.786	0.5732
644.897	0.5763
636.008	0.564
