Infrared Spectrum: 5-Aminoindazole
Formula: C 7 H 7 N 3
CAS: 19335-11-6
State: gas
Instrument: HP-GC/MS/IRD
Origin: NIST Mass Spectrometry Data Center
1/CM	ABSORBANCE
550	0.0007824
562	0.0011296
574	0.0017208
586	0.0021256
598	0.0028344
610	0.0020016
622	0.0014424
634	0.0018432
646	0.0029584
658	0.0038384
670	0.0031168
682	0.0019328
694	0.0013376
706	0.0011056
718	0.0010856
730	0.0010768
742	0.0011312
754	0.0011056
766	0.0015768
778	0.0033048
790	0.0058304
802	0.0049368
814	0.0030224
826	0.0023848
838	0.0029648
850	0.004112
862	0.0028808
874	0.0014928
886	0.0007088
898	0.0004752
910	0.0004032
922	0.0015296
934	0.0046744
946	0.0031416
958	0.0003592
970	0.0001328
982	6e-05
994	0.0001856
1006	0.0002384
1018	0.0002256
1030	0.0002248
1042	0.0003048
1054	0.0003512
1066	0.0004784
1078	0.0008336
1090	0.0006512
1102	0.0003952
1114	0.0003952
1126	0.0005144
1138	0.0011408
1150	0.0016624
1162	0.0013576
1174	0.0005656
1186	0.0002072
1198	0.0001528
1210	0.0004208
1222	0.0021288
1234	0.0036528
1246	0.0019256
1258	0.000492
1270	0.0001392
1282	9.68e-05
1294	0.0002504
1306	0.001092
1318	0.002452
1330	0.0020904
1342	0.0014552
1354	0.0013032
1366	0.0006592
1378	0.0002384
1390	0.0001936
1402	0.0003472
1414	0.0007568
1426	0.00114
1438	0.0009144
1450	0.0005488
1462	0.0007096
1474	0.000796
1486	0.0009312
1498	0.0040832
1510	0.008
1522	0.0044152
1534	0.0006616
1546	0.0002632
1558	0.000248
1570	0.0004416
1582	0.0009432
1594	0.0010912
1606	0.001608
1618	0.0028952
1630	0.0033216
1642	0.0023744
1654	0.0012584
1666	0.0006792
1678	0.000308
1690	0.0002824
1702	0.0003232
1714	0.0002952
1726	0.0001208
1738	4.48e-05
1750	0
1762	2.32e-05
1774	3.92e-05
1786	6.08e-05
1798	1.36e-05
1810	1.76e-05
1822	5.52e-05
1834	0.0001416
1846	0.0001816
1858	0.000104
1870	2.96e-05
1882	6.8e-05
1894	4.32e-05
1906	2.24e-05
1918	3.2e-06
1930	2.96e-05
1942	0
1954	6.4e-06
1966	4.4e-05
1978	2.72e-05
1990	4.08e-05
2002	1.92e-05
2014	4e-05
2026	2.24e-05
2038	2.88e-05
2050	3.68e-05
2062	5.12e-05
2074	8.56e-05
2086	0.0001048
2098	8.08e-05
2110	7.44e-05
2122	8.32e-05
2134	8.16e-05
2146	7.12e-05
2158	4.96e-05
2170	0.0001
2182	9.68e-05
2194	8.56e-05
2206	6.24e-05
2218	0.0001032
2230	9.92e-05
2242	8.32e-05
2254	9.52e-05
2266	8.24e-05
2278	7.6e-05
2290	0.0001016
2302	0.0001024
2314	6.32e-05
2326	7.44e-05
2338	8.8e-05
2350	4.72e-05
2362	7.52e-05
2374	9.44e-05
2386	0.0001048
2398	0.0001248
2410	9.2e-05
2422	9.84e-05
2434	8.72e-05
2446	0.0001384
2458	0.0001272
2470	9.2e-05
2482	7.2e-05
2494	8.16e-05
2506	7.52e-05
2518	9.76e-05
2530	5.84e-05
2542	9.76e-05
2554	8.08e-05
2566	0.0001024
2578	0.0001104
2590	0.000124
2602	0.0001224
2614	9.68e-05
2626	0.0001328
2638	0.0001184
2650	0.0001632
2662	0.0001512
2674	8.4e-05
2686	0.000132
2698	0.0001168
2710	0.000144
2722	0.0001184
2734	9.68e-05
2746	9.84e-05
2758	0.0001296
2770	0.0001048
2782	9.12e-05
2794	9.36e-05
2806	7.44e-05
2818	0.0001224
2830	0.0001024
2842	0.0001016
2854	0.0001136
2866	0.0001232
2878	0.0001392
2890	0.0001592
2902	0.0001536
2914	0.000112
2926	0.000188
2938	0.0001944
2950	0.0001752
2962	0.0002168
2974	0.000192
2986	0.0001568
2998	0.0002352
3010	0.0004744
3022	0.001028
3034	0.001716
3046	0.0017992
3058	0.0012608
3070	0.0007856
3082	0.0005176
3094	0.0004704
3106	0.0006376
3118	0.000616
3130	0.0004128
3142	0.0002432
3154	0.0001464
3166	0.0001352
3178	8.16e-05
3190	0.000156
3202	0.0001208
3214	0.0001608
3226	0.000132
3238	0.0001528
3250	0.0001496
3262	0.000224
3274	0.0001528
3286	0.0001448
3298	0.0001208
3310	0.000176
3322	0.0001704
3334	6.96e-05
3346	6.32e-05
3358	0.0001056
3370	0.0002296
3382	0.0002696
3394	0.000632
3406	0.0006112
3418	0.0004528
3430	0.0003144
3442	0.0003872
3454	0.0004752
3466	0.0009168
3478	0.001384
3490	0.0022616
3502	0.0032296
3514	0.0048928
3526	0.0044296
3538	0.001584
3550	0.0004304
3562	0.0001936
3574	0.0001448
3586	0.0001976
3598	8.16e-05
3610	0.0001504
3622	8.48e-05
3634	0.000136
3646	0.0001192
3658	0.0001472
3670	0.0001144
3682	0.0001184
3694	0.0001744
3706	7.2e-05
3718	0.0001544
3730	9.2e-05
3742	3.76e-05
3754	0.0002008
3766	7.44e-05
3778	0.0001088
3790	0.0001408
3802	3.52e-05
3814	9.04e-05
3826	0.0001048
3838	0.0001352
