Infrared Spectrum: 6-Chlorohexanoyl chloride
Formula: C 6 H 10 Cl 2 O
CAS: 19347-73-0
State: gas
Origin: EPA-IR VAPOR PHASE LIBRARY
1/CM	ABSORBANCE
549.8	0.013513
559.445	0.020423
569.09	0.028193
578.734	0.028983
588.379	0.027233
598.024	0.021993
607.669	0.015473
617.313	0.010623
626.958	0.008073
636.603	0.009343
646.248	0.012663
655.893	0.018213
665.537	0.022673
675.182	0.026453
684.827	0.029743
694.472	0.023223
704.116	0.020833
713.761	0.024543
723.406	0.033913
733.051	0.037733
742.695	0.038603
752.34	0.037683
761.985	0.028803
771.63	0.019363
781.275	0.015023
790.919	0.013763
800.564	0.011063
810.209	0.009593
819.854	0.009393
829.498	0.009773
839.143	0.010973
848.788	0.012613
858.433	0.014153
868.078	0.015013
877.722	0.016423
887.367	0.018923
897.012	0.021103
906.657	0.023613
916.301	0.026333
925.946	0.031993
935.591	0.040183
945.236	0.048393
954.88	0.050173
964.525	0.050313
974.17	0.051343
983.815	0.050913
993.46	0.046853
1003.1	0.040033
1012.75	0.034343
1022.39	0.030623
1032.04	0.024913
1041.68	0.018993
1051.33	0.017403
1060.97	0.017613
1070.62	0.018513
1080.26	0.018063
1089.91	0.018603
1099.55	0.014703
1109.2	0.008203
1118.84	0.007953
1128.49	0.007103
1138.13	0.009223
1147.78	0.009083
1157.42	0.010843
1167.07	0.009183
1176.71	0.009293
1186.36	0.007913
1196	0.008563
1205.64	0.006873
1215.29	0.008353
1224.93	0.008913
1234.58	0.009313
1244.22	0.009823
1253.87	0.011173
1263.51	0.012133
1273.16	0.013683
1282.8	0.016223
1292.45	0.020613
1302.09	0.020493
1311.74	0.018183
1321.38	0.014793
1331.03	0.011953
1340.67	0.011323
1350.32	0.011563
1359.96	0.010733
1369.61	0.007683
1379.25	0.005713
1388.9	0.005123
1398.54	0.006103
1408.18	0.009203
1417.83	0.011353
1427.47	0.012493
1437.12	0.013633
1446.76	0.017963
1456.41	0.020213
1466.05	0.014603
1475.7	0.008283
1485.34	0.004103
1494.99	0.002803
1504.63	0.002173
1514.28	0.001813
1523.92	0.001823
1533.57	0.001583
1543.21	0.0014317
1552.86	0.0013142
1562.5	0.001693
1572.15	0.0011954
1581.79	0.0012477
1591.44	0.0012166
1601.08	0.0013039
1610.73	0.0011843
1620.37	0.0014564
1630.01	0.0014975
1639.66	0.0013946
1649.3	0.0014705
1658.95	0.0014898
1668.59	0.001563
1678.24	0.001693
1687.88	0.001783
1697.53	0.002163
1707.17	0.002733
1716.82	0.003193
1726.46	0.003923
1736.11	0.005403
1745.75	0.008143
1755.4	0.012973
1765.04	0.021763
1774.69	0.037593
1784.33	0.068913
1793.98	0.123373
1803.62	0.178563
1813.27	0.172693
1822.91	0.111643
1832.55	0.059143
1842.2	0.032193
1851.84	0.019523
1861.49	0.013083
1871.13	0.009363
1880.78	0.007463
1890.42	0.006333
1900.07	0.005413
1909.71	0.004613
1919.36	0.004173
1929	0.003563
1938.65	0.003173
1948.29	0.002923
1957.94	0.002233
1967.58	0.002503
1977.23	0.002343
1986.87	0.001863
1996.52	0.001893
2006.16	0.001793
2015.81	0.001743
2025.45	0.001633
2035.1	0.001743
2044.74	0.001783
2054.38	0.002103
2064.03	0.002363
2073.67	0.003223
2083.32	0.004513
2092.96	0.006803
2102.61	0.011623
2112.25	0.020343
2121.9	0.029473
2131.54	0.026823
2141.19	0.014333
2150.83	0.006873
2160.48	0.003733
2170.12	0.002533
2179.77	0.001973
2189.41	0.001673
2199.06	0.0014244
2208.7	0.0013029
2218.35	0.0011703
2227.99	0.0013159
2237.64	0.0014952
2247.28	0.001593
2256.92	0.001593
2266.57	0.001358
2276.21	0.0014977
2285.86	0.0011463
2295.5	0.0013928
2305.15	0.0012993
2314.79	0.0009565
2324.44	0.0013031
2334.08	0.0011571
2343.73	0.0014116
2353.37	0.0012627
2363.02	0.001402
2372.66	0.0010686
2382.31	0.0009154
2391.95	0.0010806
2401.6	0.0010164
2411.24	0.0008835
2420.89	0.0007941
2430.53	0.0010845
2440.18	0.0009354
2449.82	0.00058661
2459.47	0.0007222
2469.11	0.0010862
2478.75	0.0010904
2488.4	0.0006598
2498.04	0.0007866
2507.69	0.0009421
2517.33	0.0010115
2526.98	0.0010316
2536.62	0.0011181
2546.27	0.0010774
2555.91	0.0008406
2565.56	0.00049892
2575.2	0.00059785
2584.85	0.0008112
2594.49	0.0010448
2604.14	0.0009457
2613.78	0.0010375
2623.43	0.0010823
2633.07	0.000898
2642.72	0.0010273
2652.36	0.0013701
2662.01	0.001553
2671.65	0.0013139
2681.29	0.001843
2690.94	0.001573
2700.58	0.001663
2710.23	0.001643
2719.87	0.001653
2729.52	0.001763
2739.16	0.001593
2748.81	0.002213
2758.45	0.001983
2768.1	0.001773
2777.74	0.002043
2787.39	0.001903
2797.03	0.002723
2806.68	0.002763
2816.32	0.002923
2825.97	0.003573
2835.61	0.005263
2845.26	0.007983
2854.9	0.012253
2864.55	0.018483
2874.19	0.022843
2883.84	0.022113
2893.48	0.018803
2903.12	0.020463
2912.77	0.025383
2922.41	0.032543
2932.06	0.042723
2941.7	0.055683
2951.35	0.065303
2960.99	0.063293
2970.64	0.046123
2980.28	0.029403
2989.93	0.021433
2999.57	0.020503
3009.22	0.012033
3018.86	0.005933
3028.51	0.004253
3038.15	0.003363
3047.8	0.002343
3057.44	0.002603
3067.09	0.002263
3076.73	0.001563
3086.38	0.001773
3096.02	0.001773
3105.67	0.0010437
3115.31	0.0013899
3124.95	0.0012235
3134.6	0.00089
3144.24	0.000977
3153.89	0.0008825
3163.53	0.0010939
3173.18	0.0010018
3182.82	0.0006607
3192.47	0.0014274
3202.11	0.0008375
3211.76	0.001491
3221.4	0.0010683
3231.05	0.00039
3240.69	0.00051534
3250.34	0.000776
3259.98	0.000339
3269.63	0.0004673
3279.27	0.0006116
3288.92	0.00055591
3298.56	0.0009264
3308.21	0.00052664
3317.85	0.000386
3327.49	0.0011035
3337.14	0.00055508
3346.78	0.0008022
3356.43	0.0004075
3366.07	0.000714
3375.72	0.0004906
3385.36	0.0007128
3395.01	0.0006785
3404.65	0.0009441
3414.3	0.000825
3423.94	0.000955
3433.59	0.0007896
3443.23	0.0011491
3452.88	0.000251
3462.52	0.000344
3472.17	0.0009298
3481.81	0.0010116
3491.46	0.000222
3501.1	0.0010193
3510.75	0.0006607
3520.39	0.00055937
3530.04	0.0009473
3539.68	0.0014185
3549.32	0.0010068
3558.97	0.001683
3568.61	0.002463
3578.26	0.002693
3587.9	0.003773
3597.55	0.003903
3607.19	0.003373
3616.84	0.002283
3626.48	0.002123
3636.13	0.0012433
3645.77	0.0008558
3655.42	0.0012652
3665.06	0.0012162
3674.71	0.0009354
3684.35	0.0010528
3694	0.0010356
3703.64	0.0010943
3713.29	0.0010004
3722.93	0.0008701
3732.58	0.0010825
3742.22	0.00054941
3751.86	0.0009162
3761.51	0.0013581
3771.15	0.0007372
3780.8	0.0011603
3790.44	0.001012
3800.09	0.0011759
3809.73	0.0008218
3819.38	0.0006647
3829.02	0.0008117
3838.67	0.0007987
3848.31	0.00076
3857.96	0.000216
3867.6	0.00059203
3877.25	0.0007732
3886.89	0.0008362
3896.54	0.0008525
3906.18	0.0010489
3915.83	0.0007234
3925.47	0.0013964
3935.12	0.0007773
3944.76	0.0007003
3954.41	0.0011829
3964.05	0.0010273
3973.69	0.001903
3983.34	0.0008586
3992.98	0.0006875
