Infrared Spectrum: 4-Dimethylaminobenzhydrazide
Formula: C 9 H 13 N 3 O
CAS: 19353-92-5
State: gas
Origin: EPA-IR VAPOR PHASE LIBRARY
1/CM	ABSORBANCE
549.8	0.0005203
559.445	0.0015128
569.09	0.0007914
578.734	0.0012302
588.379	0.0015008
598.024	0.0012305
607.669	0.0007522
617.313	0.0007277
626.958	0.0007408
636.603	0.0010434
646.248	0.0007783
655.893	0.0009068
665.537	0.0009586
675.182	0.0008296
684.827	0.0011017
694.472	0.0010881
704.116	0.0009708
713.761	0.0008789
723.406	0.0008151
733.051	0.00105
742.695	0.0010907
752.34	0.001629
761.985	0.001709
771.63	0.0015378
781.275	0.0011996
790.919	0.0011303
800.564	0.0010284
810.209	0.001559
819.854	0.002039
829.498	0.002629
839.143	0.002189
848.788	0.0013554
858.433	0.0009279
868.078	0.0009365
877.722	0.0010826
887.367	0.0011028
897.012	0.0011605
906.657	0.001879
916.301	0.002949
925.946	0.004369
935.591	0.006599
945.236	0.005619
954.88	0.002769
964.525	0.0015333
974.17	0.0011607
983.815	0.0008158
993.46	0.0009675
1003.1	0.0009936
1012.75	0.0008466
1022.39	0.00057068
1032.04	0.0011098
1041.68	0.0014834
1051.33	0.0011557
1060.97	0.001909
1070.62	0.001659
1080.26	0.001689
1089.91	0.001839
1099.55	0.0012529
1109.2	0.0011521
1118.84	0.0012677
1128.49	0.0014915
1138.13	0.002359
1147.78	0.003439
1157.42	0.004769
1167.07	0.005249
1176.71	0.003799
1186.36	0.003209
1196	0.005079
1205.64	0.004589
1215.29	0.002979
1224.93	0.002869
1234.58	0.002489
1244.22	0.002119
1253.87	0.002769
1263.51	0.003869
1273.16	0.007119
1282.8	0.009669
1292.45	0.007009
1302.09	0.004549
1311.74	0.003119
1321.38	0.002859
1331.03	0.003349
1340.67	0.004689
1350.32	0.006719
1359.96	0.006399
1369.61	0.003749
1379.25	0.002439
1388.9	0.002079
1398.54	0.002289
1408.18	0.002929
1417.83	0.003879
1427.47	0.005729
1437.12	0.009929
1446.76	0.011829
1456.41	0.008059
1466.05	0.005859
1475.7	0.004969
1485.34	0.004449
1494.99	0.003689
1504.63	0.003749
1514.28	0.005389
1523.92	0.006529
1533.57	0.004469
1543.21	0.002799
1552.86	0.002499
1562.5	0.002449
1572.15	0.002179
1581.79	0.002929
1591.44	0.005339
1601.08	0.010849
1610.73	0.016569
1620.37	0.009539
1630.01	0.005169
1639.66	0.004109
1649.3	0.002949
1658.95	0.002559
1668.59	0.002869
1678.24	0.004429
1687.88	0.009559
1697.53	0.012319
1707.17	0.006619
1716.82	0.003149
1726.46	0.002069
1736.11	0.001579
1745.75	0.0011745
1755.4	0.0011108
1765.04	0.0008965
1774.69	0.0008011
1784.33	0.0007428
1793.98	0.0008222
1803.62	0.0007707
1813.27	0.0007173
1822.91	0.0006729
1832.55	0.00065729
1842.2	0.0006695
1851.84	0.00061444
1861.49	0.0006461
1871.13	0.00059919
1880.78	0.0007771
1890.42	0.0006723
1900.07	0.0006929
1909.71	0.0007035
1919.36	0.0007002
1929	0.0006675
1938.65	0.00060773
1948.29	0.00061858
1957.94	0.00055619
1967.58	0.000558384
1977.23	0.00057151
1986.87	0.00058686
1996.52	0.00055093
2006.16	0.000459
2015.81	0.0005409
2025.45	0.000567871
2035.1	0.00061671
2044.74	0.00057282
2054.38	0.0005114
2064.03	0.000567977
2073.67	0.0005308
2083.32	0.000562134
2092.96	0.0005239
2102.61	0.0006668
2112.25	0.00061817
2121.9	0.00047
2131.54	0.000464
2141.19	0.000455
2150.83	0.0005128
2160.48	0.00062335
2170.12	0.0004751
2179.77	0.0005126
2189.41	0.0004626
2199.06	0.0005131
2208.7	0.0005472
2218.35	0.0004793
2227.99	0.00059585
2237.64	0.000439
2247.28	0.00059368
2256.92	0.0005146
2266.57	0.00058984
2276.21	0.00059164
2285.86	0.000511
2295.5	0.00059312
2305.15	0.00057047
2314.79	0.0004595
2324.44	0.0004672
2334.08	0.0005436
2343.73	0.0005137
2353.37	0.000549
2363.02	0.000497
2372.66	0.0004693
2382.31	0.0004604
2391.95	0.0005431
2401.6	0.000559098
2411.24	0.0005037
2420.89	0.000451
2430.53	0.00056948
2440.18	0.00060078
2449.82	0.0004893
2459.47	0.0004923
2469.11	0.000562976
2478.75	0.00061882
2488.4	0.00058539
2498.04	0.000560316
2507.69	0.000566977
2517.33	0.0007155
2526.98	0.00064795
2536.62	0.00058089
2546.27	0.00064169
2555.91	0.000560744
2565.56	0.00064976
2575.2	0.0006595
2584.85	0.0006785
2594.49	0.0006612
2604.14	0.00063724
2613.78	0.0007134
2623.43	0.0006633
2633.07	0.00060648
2642.72	0.00063961
2652.36	0.0007732
2662.01	0.0006693
2671.65	0.0005104
2681.29	0.00065458
2690.94	0.0004651
2700.58	0.0008146
2710.23	0.0006682
2719.87	0.000729
2729.52	0.000735
2739.16	0.0007684
2748.81	0.0007598
2758.45	0.0008469
2768.1	0.0010076
2777.74	0.0013447
2787.39	0.001699
2797.03	0.002329
2806.68	0.002659
2816.32	0.002639
2825.97	0.002389
2835.61	0.002149
2845.26	0.002339
2854.9	0.002589
2864.55	0.002779
2874.19	0.002819
2883.84	0.002879
2893.48	0.002699
2903.12	0.002679
2912.77	0.002599
2922.41	0.002719
2932.06	0.002739
2941.7	0.002879
2951.35	0.002869
2960.99	0.002629
2970.64	0.002339
2980.28	0.002179
2989.93	0.001939
2999.57	0.001979
3009.22	0.0013826
3018.86	0.0013441
3028.51	0.0014387
3038.15	0.001569
3047.8	0.00153
3057.44	0.0010498
3067.09	0.0010469
3076.73	0.0011591
3086.38	0.0012417
3096.02	0.0010274
3105.67	0.0009128
3115.31	0.0010297
3124.95	0.0007526
3134.6	0.00058312
3144.24	0.0005105
3153.89	0.000289
3163.53	0.0004822
3173.18	0.000416
3182.82	0.000387
3192.47	0.000475
3202.11	0.00055714
3211.76	0.00055079
3221.4	0.0006789
3231.05	0.000355
3240.69	0.000442
3250.34	0.000428
3259.98	0.0004633
3269.63	0.00045
3279.27	0.000361
3288.92	0.000565465
3298.56	0.0005057
3308.21	0.000397
3317.85	0.0007411
3327.49	0.00052
3337.14	0.000454
3346.78	0.000215
3356.43	0.0005091
3366.07	0.0004965
3375.72	0.000433
3385.36	0.0005227
3395.01	0.0004823
3404.65	0.000199
3414.3	0.00059322
3423.94	0.00055221
3433.59	0.0007964
3443.23	0.0008914
3452.88	0.0008364
3462.52	0.0013357
3472.17	0.001609
3481.81	0.001579
3491.46	0.0007733
3501.1	0.000427
3510.75	0.000792
3520.39	0.000559124
3530.04	0.000366
3539.68	0.000342
3549.32	0.000232
3558.97	0.000265
3568.61	0.000319
3578.26	0.0004633
3587.9	0.000325
3597.55	0.000334
3607.19	0.000379
3616.84	0.000418
3626.48	0.000109
3636.13	0.00061249
3645.77	0.000365
3655.42	0.000504
3665.06	0.000326
3674.71	0.0005424
3684.35	0.000372
3694	0.000325
3703.64	0.000293
3713.29	0.000419
3722.93	0.000448
3732.58	0.000301
3742.22	0.0005095
3751.86	0.00059758
3761.51	0.000425
3771.15	0.000317
3780.8	0.0005326
3790.44	0.000344
3800.09	0.000194
3809.73	0.000433
3819.38	0.00026
3829.02	0.000453
3838.67	0.000279
3848.31	0.000383
3857.96	0.00064619
3867.6	0.000267
3877.25	0.000375
3886.89	0.0004979
3896.54	0.000406
3906.18	0.0005031
3915.83	0.0004779
3925.47	0.000391
3935.12	0.000185
3944.76	0.0005195
3954.41	0.00056193
3964.05	0.0005369
3973.69	0.000238
3983.34	0.000326
3992.98	0.000371
