Infrared Spectrum: PYRIMIDO[5,4-e]-as-TRIAZINE, 5-(ETHYLAMINO)-
Formula: C7 H8 N6
CAS: 19359-60-5
State: SOLID (1 mg / 650 mg KBr DISC)
Class: COBLENTZ III
Instrument: PERKIN-ELMER 521 (GRATING)
Instrument parameters: FILTER CHANGES AT 3130, 2475, 2000, 1150, 700, 410 CM^-^1, GRATING CHANGES AT 2000, 620 CM^-^1
Sampling: TRANSMISSION
Resolution: 4
Origin: SOUTHERN RESEARCH INST.
1/CM	TRANSMITTANCE
290.67	0.537
300.258	0.639
309.845	0.664
319.433	0.687
329.021	0.717
338.608	0.757
348.196	0.797
357.783	0.828
367.371	0.843
376.959	0.854
386.546	0.851
396.134	0.765
405.722	0.813
415.309	0.888
424.897	0.895
434.485	0.897
444.072	0.897
453.66	0.893
463.248	0.852
472.835	0.774
482.423	0.861
492.01	0.777
501.598	0.819
511.186	0.851
520.773	0.913
530.361	0.913
539.949	0.911
549.536	0.909
559.124	0.904
568.712	0.898
578.299	0.849
587.887	0.845
597.474	0.863
607.062	0.499
616.65	0.838
626.237	0.886
635.825	0.897
645.413	0.896
655	0.893
664.588	0.887
674.176	0.88
683.763	0.87
693.351	0.849
702.939	0.748
712.526	0.403
722.114	0.891
731.701	0.86
741.289	0.842
750.877	0.866
760.464	0.85
770.052	0.819
779.64	0.787
789.227	0.74
798.815	0.764
808.403	0.701
817.99	0.649
827.578	0.858
837.165	0.69
846.753	0.826
856.341	0.631
865.928	0.869
875.516	0.817
885.104	0.863
894.691	0.909
904.279	0.906
913.867	0.901
923.454	0.88
933.042	0.864
942.63	0.878
952.217	0.89
961.805	0.882
971.392	0.87
980.98	0.856
990.568	0.826
1000.16	0.828
1009.74	0.782
1019.33	0.712
1028.92	0.529
1038.51	0.584
1048.09	0.842
1057.68	0.845
1067.27	0.828
1076.86	0.791
1086.44	0.74
1096.03	0.755
1105.62	0.782
1115.21	0.591
1124.79	0.8
1134.38	0.825
1143.97	0.78
1153.56	0.66
1163.15	0.358
1172.73	0.708
1182.32	0.801
1191.91	0.798
1201.5	0.792
1211.08	0.78
1220.67	0.752
1230.26	0.746
1239.85	0.682
1249.43	0.652
1259.02	0.486
1268.61	0.166
1278.2	0.526
1287.78	0.749
1297.37	0.679
1306.96	0.492
1316.55	0.274
1326.14	0.254
1335.72	0.134
1345.31	0.22
1354.9	0.4
1364.49	0.589
1374.07	0.508
1383.66	0.477
1393.25	0.381
1402.84	0.58
1412.42	0.358
1422.01	0.456
1431.6	0.341
1441.19	0.583
1450.77	0.649
1460.36	0.732
1469.95	0.837
1479.54	0.827
1489.12	0.668
1498.71	0.688
1508.3	0.779
1517.89	0.759
1527.48	0.71
1537.06	0.675
1546.65	0.606
1556.24	0.397
1565.83	0.283
1575.41	0.462
1585	0.414
1594.59	0.253
1604.18	0.171
1613.76	0.212
1623.35	0.309
1632.94	0.647
1642.53	0.795
1652.11	0.866
1661.7	0.888
1671.29	0.91
1680.88	0.936
1690.47	0.946
1700.05	0.949
1709.64	0.953
1719.23	0.956
1728.82	0.956
1738.4	0.956
1747.99	0.955
1757.58	0.954
1767.17	0.952
1776.75	0.95
1786.34	0.948
1795.93	0.947
1805.52	0.944
1815.1	0.942
1824.69	0.936
1834.28	0.918
1843.87	0.926
1853.46	0.937
1863.04	0.936
1872.63	0.935
1882.22	0.934
1891.81	0.932
1901.39	0.932
1910.98	0.931
1920.57	0.93
1930.16	0.928
1939.74	0.925
1949.33	0.922
1958.92	0.921
1968.51	0.921
1978.09	0.919
1987.68	0.917
1997.27	0.914
2006.86	0.911
2016.45	0.909
2026.03	0.906
2035.62	0.902
2045.21	0.901
2054.8	0.899
2064.38	0.896
2073.97	0.895
2083.56	0.894
2093.15	0.892
2102.73	0.89
2112.32	0.888
2121.91	0.886
2131.5	0.884
2141.08	0.884
2150.67	0.885
2160.26	0.885
2169.85	0.885
2179.44	0.884
2189.02	0.884
2198.61	0.883
2208.2	0.883
2217.79	0.882
2227.37	0.881
2236.96	0.88
2246.55	0.878
2256.14	0.876
2265.72	0.874
2275.31	0.87
2284.9	0.867
2294.49	0.865
2304.07	0.864
2313.66	0.862
2323.25	0.86
2332.84	0.857
2342.42	0.854
2352.01	0.851
2361.6	0.85
2371.19	0.85
2380.78	0.852
2390.36	0.853
2399.95	0.852
2409.54	0.85
2419.13	0.849
2428.71	0.847
2438.3	0.845
2447.89	0.844
2457.48	0.843
2467.06	0.842
2476.65	0.84
2486.24	0.838
2495.83	0.835
2505.41	0.834
2515	0.832
2524.59	0.831
2534.18	0.828
2543.77	0.828
2553.35	0.827
2562.94	0.826
2572.53	0.824
2582.12	0.821
2591.7	0.818
2601.29	0.816
2610.88	0.813
2620.47	0.811
2630.05	0.809
2639.64	0.805
2649.23	0.802
2658.82	0.798
2668.4	0.795
2677.99	0.792
2687.58	0.787
2697.17	0.782
2706.76	0.779
2716.34	0.776
2725.93	0.775
2735.52	0.774
2745.11	0.772
2754.69	0.766
2764.28	0.756
2773.87	0.746
2783.46	0.738
2793.04	0.735
2802.63	0.731
2812.22	0.728
2821.81	0.718
2831.39	0.706
2840.98	0.69
2850.57	0.679
2860.16	0.67
2869.75	0.666
2879.33	0.659
2888.92	0.65
2898.51	0.638
2908.1	0.628
2917.68	0.608
2927.27	0.567
2936.86	0.558
2946.45	0.542
2956.03	0.553
2965.62	0.493
2975.21	0.502
2984.8	0.527
2994.38	0.563
3003.97	0.603
3013.56	0.609
3023.15	0.602
3032.73	0.578
3042.32	0.557
3051.91	0.547
3061.5	0.54
3071.09	0.533
3080.67	0.526
3090.26	0.497
3099.85	0.465
3109.44	0.473
3119.02	0.518
3128.61	0.498
3138.2	0.478
3147.79	0.498
3157.37	0.526
3166.96	0.529
3176.55	0.511
3186.14	0.483
3195.72	0.483
3205.31	0.494
3214.9	0.502
3224.49	0.511
3234.08	0.524
3243.66	0.56
3253.25	0.606
3262.84	0.653
3272.43	0.687
3282.01	0.713
3291.6	0.734
3301.19	0.749
3310.78	0.761
3320.36	0.772
3329.95	0.779
3339.54	0.786
3349.13	0.787
3358.71	0.784
3368.3	0.783
3377.89	0.779
3387.48	0.776
3397.07	0.771
3406.65	0.77
3416.24	0.768
3425.83	0.768
3435.42	0.768
3445	0.768
3454.59	0.768
3464.18	0.768
3473.77	0.767
3483.35	0.768
3492.94	0.768
3502.53	0.77
3512.12	0.772
3521.7	0.775
3531.29	0.777
3540.88	0.779
3550.47	0.781
3560.06	0.783
3569.64	0.786
3579.23	0.79
3588.82	0.793
3598.41	0.795
3607.99	0.798
3617.58	0.798
3627.17	0.799
3636.76	0.799
3646.34	0.798
3655.93	0.798
3665.52	0.797
3675.11	0.797
3684.69	0.797
3694.28	0.796
3703.87	0.796
3713.46	0.795
3723.05	0.795
3732.63	0.794
3742.22	0.794
3751.81	0.793
3761.4	0.793
3770.98	0.792
3780.57	0.791
3790.16	0.791
3799.75	0.789
