Infrared Spectrum: 2,2-Dimethylthiazolidine
Formula: C 5 H 11 N S
CAS: 19351-18-9
State: gas
Origin: EPA-IR VAPOR PHASE LIBRARY
1/CM	ABSORBANCE
549.8	0.004456
559.445	0.003386
569.09	0.002666
578.734	0.001886
588.379	0.002246
598.024	0.002866
607.669	0.002276
617.313	0.001476
626.958	0.001096
636.603	0.0010251
646.248	0.001286
655.893	0.001556
665.537	0.002146
675.182	0.002506
684.827	0.002836
694.472	0.003616
704.116	0.004436
713.761	0.005616
723.406	0.006366
733.051	0.007826
742.695	0.010536
752.34	0.016706
761.985	0.027366
771.63	0.036926
781.275	0.039786
790.919	0.029496
800.564	0.016646
810.209	0.009156
819.854	0.007206
829.498	0.005326
839.143	0.003916
848.788	0.003236
858.433	0.002486
868.078	0.002526
877.722	0.002466
887.367	0.002296
897.012	0.002786
906.657	0.003766
916.301	0.004386
925.946	0.004056
935.591	0.003326
945.236	0.002346
954.88	0.001976
964.525	0.001736
974.17	0.001766
983.815	0.001966
993.46	0.002356
1003.1	0.002216
1012.75	0.002336
1022.39	0.002926
1032.04	0.002796
1041.68	0.004036
1051.33	0.006296
1060.97	0.008576
1070.62	0.007906
1080.26	0.006616
1089.91	0.006566
1099.55	0.009266
1109.2	0.015576
1118.84	0.021966
1128.49	0.022026
1138.13	0.015356
1147.78	0.009346
1157.42	0.006786
1167.07	0.006426
1176.71	0.006086
1186.36	0.005846
1196	0.007386
1205.64	0.010386
1215.29	0.013526
1224.93	0.013026
1234.58	0.010206
1244.22	0.006796
1253.87	0.004276
1263.51	0.003986
1273.16	0.004396
1282.8	0.004746
1292.45	0.004056
1302.09	0.003446
1311.74	0.003656
1321.38	0.004226
1331.03	0.004496
1340.67	0.005046
1350.32	0.006936
1359.96	0.009796
1369.61	0.018566
1379.25	0.015286
1388.9	0.011266
1398.54	0.006546
1408.18	0.004156
1417.83	0.005706
1427.47	0.009226
1437.12	0.012956
1446.76	0.014926
1456.41	0.013476
1466.05	0.009726
1475.7	0.005676
1485.34	0.003346
1494.99	0.002196
1504.63	0.001706
1514.28	0.001476
1523.92	0.001416
1533.57	0.001196
1543.21	0.001136
1552.86	0.001096
1562.5	0.001166
1572.15	0.001256
1581.79	0.0010334
1591.44	0.001086
1601.08	0.0010303
1610.73	0.0009145
1620.37	0.001106
1630.01	0.001486
1639.66	0.002066
1649.3	0.003746
1658.95	0.008096
1668.59	0.011646
1678.24	0.009116
1687.88	0.003056
1697.53	0.001516
1707.17	0.000994
1716.82	0.0008474
1726.46	0.0007179
1736.11	0.000633
1745.75	0.0005169
1755.4	0.0004487
1765.04	0.0005073
1774.69	0.0003681
1784.33	0.0004442
1793.98	0.0004704
1803.62	0.0005021
1813.27	0.0005631
1822.91	0.0006132
1832.55	0.0005923
1842.2	0.0006108
1851.84	0.0006047
1861.49	0.0005184
1871.13	0.0004774
1880.78	0.0004112
1890.42	0.0005217
1900.07	0.0004659
1909.71	0.0003561
1919.36	0.0004037
1929	0.0003484
1938.65	0.0003944
1948.29	0.0003405
1957.94	0.0004203
1967.58	0.000417
1977.23	0.0003819
1986.87	0.0004316
1996.52	0.0004189
2006.16	0.0004077
2015.81	0.0004008
2025.45	0.0004174
2035.1	0.0004545
2044.74	0.000409
2054.38	0.0004114
2064.03	0.0004156
2073.67	0.0004024
2083.32	0.0003686
2092.96	0.0003601
2102.61	0.0003971
2112.25	0.0004237
2121.9	0.0004479
2131.54	0.000376
2141.19	0.000353
2150.83	0.0004804
2160.48	0.000371
2170.12	0.0003882
2179.77	0.000394
2189.41	0.0004412
2199.06	0.0004379
2208.7	0.0004114
2218.35	0.0003803
2227.99	0.0003991
2237.64	0.0003742
2247.28	0.0003943
2256.92	0.0003458
2266.57	0.0003735
2276.21	0.0003284
2285.86	0.0003433
2295.5	0.0003511
2305.15	0.000395
2314.79	0.0003936
2324.44	0.0004285
2334.08	0.0004044
2343.73	0.0004622
2353.37	0.0004139
2363.02	0.0004772
2372.66	0.0005004
2382.31	0.000481
2391.95	0.0004343
2401.6	0.0004597
2411.24	0.0004511
2420.89	0.0003116
2430.53	0.0003336
2440.18	0.0003316
2449.82	0.0004127
2459.47	0.0003174
2469.11	0.0003716
2478.75	0.0003234
2488.4	0.0004251
2498.04	0.0004438
2507.69	0.0004801
2517.33	0.000457
2526.98	0.0004341
2536.62	0.0003504
2546.27	0.0004838
2555.91	0.0004288
2565.56	0.0005909
2575.2	0.0005663
2584.85	0.000789
2594.49	0.0008265
2604.14	0.0006902
2613.78	0.0007131
2623.43	0.0007989
2633.07	0.0007302
2642.72	0.0008275
2652.36	0.0007509
2662.01	0.0006995
2671.65	0.0007946
2681.29	0.0007102
2690.94	0.0006548
2700.58	0.0006991
2710.23	0.0007838
2719.87	0.0010086
2729.52	0.001126
2739.16	0.0010012
2748.81	0.0008982
2758.45	0.001086
2768.1	0.0010694
2777.74	0.001256
2787.39	0.001376
2797.03	0.001816
2806.68	0.002176
2816.32	0.002846
2825.97	0.003816
2835.61	0.004896
2845.26	0.006916
2854.9	0.011046
2864.55	0.015526
2874.19	0.019276
2883.84	0.020946
2893.48	0.021066
2903.12	0.022186
2912.77	0.025606
2922.41	0.032716
2932.06	0.039436
2941.7	0.041126
2951.35	0.044776
2960.99	0.050246
2970.64	0.060386
2980.28	0.052586
2989.93	0.038006
2999.57	0.019506
3009.22	0.007896
3018.86	0.004466
3028.51	0.003346
3038.15	0.002736
3047.8	0.002326
3057.44	0.001816
3067.09	0.001516
3076.73	0.001316
3086.38	0.001276
3096.02	0.001196
3105.67	0.001126
3115.31	0.0010373
3124.95	0.0008278
3134.6	0.0007695
3144.24	0.0009831
3153.89	0.0007264
3163.53	0.0007316
3173.18	0.0007979
3182.82	0.0009576
3192.47	0.0009477
3202.11	0.001022
3211.76	0.0010059
3221.4	0.0008123
3231.05	0.0010014
3240.69	0.0006063
3250.34	0.0007004
3259.98	0.0005816
3269.63	0.000357
3279.27	0.0003736
3288.92	0.0004784
3298.56	0.0003843
3308.21	0.0004892
3317.85	0.0008838
3327.49	0.0010745
3337.14	0.001096
3346.78	0.0010464
3356.43	0.0006372
3366.07	0.0004841
3375.72	0.0001988
3385.36	0.00016305
3395.01	0.0003086
3404.65	0.0003345
3414.3	0.0003229
3423.94	0.0002594
3433.59	0.0002884
3443.23	0.0005064
3452.88	0.000283
3462.52	0.0002136
3472.17	8.704e-05
3481.81	0.0002545
3491.46	0.00016562
3501.1	0.00011162
3510.75	0.00012979
3520.39	0.00010862
3530.04	0.00010655
3539.68	0.0002129
3549.32	0.00017508
3558.97	0.0002543
3568.61	0.0002044
3578.26	0.0003842
3587.9	0.000422
3597.55	0.00010752
3607.19	0.0002988
3616.84	0.0001761
3626.48	0.0001715
3636.13	0.0002003
3645.77	0.0002012
3655.42	0.0001803
3665.06	0.0003048
3674.71	0.0002298
3684.35	0.00016932
3694	0.00016988
3703.64	0.0002739
3713.29	0.0002292
3722.93	0.0002338
3732.58	0.0001681
3742.22	0.0002046
3751.86	9.773e-05
3761.51	0.0002569
3771.15	0.0004187
3780.8	0.0003503
3790.44	0.0003748
3800.09	0.00013671
3809.73	0.0001781
3819.38	0.000275
3829.02	0.0001717
3838.67	0.0001788
3848.31	0.0002862
3857.96	0.0004064
3867.6	0.000246
3877.25	0.00015297
3886.89	0.0002415
3896.54	0.0002433
3906.18	0.0003249
3915.83	0.000332
3925.47	0.0003215
3935.12	0.0003923
3944.76	0.0003723
3954.41	0.0003792
3964.05	0.0003398
3973.69	0.0002829
3983.34	0.0004779
3992.98	0.0002201
