Infrared Spectrum: AS-TRIAZINE-5-CARBOXAMIDINE, 6-AMINO-N-ETHYL-
Formula: C6 H10 N6
CAS: 19359-62-7
State: SOLID (1 mg / 650 mg KBr DISC)
Class: COBLENTZ III
Instrument: PERKIN-ELMER 521 (GRATING)
Instrument parameters: FILTER CHANGE AT 3150, 2500, 2000,1150, 700, 410 CM^-^1, GRATING CHANGES AT 2000, 630 CM^-^1
Sampling: TRANSMISSION
Resolution: 4
Origin: SOUTHERN RESEARCH INSTITUTE
1/CM	TRANSMITTANCE
218.306	0.236
227.335	0.239
236.363	0.245
245.392	0.281
254.421	0.336
263.449	0.381
272.478	0.412
281.507	0.421
290.535	0.465
299.564	0.52
308.592	0.551
317.621	0.568
326.65	0.554
335.678	0.629
344.707	0.675
353.736	0.681
362.764	0.685
371.793	0.698
380.822	0.707
389.85	0.692
398.879	0.675
407.908	0.622
416.936	0.612
425.965	0.631
434.994	0.548
444.022	0.591
453.051	0.603
462.079	0.597
471.108	0.568
480.137	0.546
489.165	0.517
498.194	0.536
507.223	0.549
516.251	0.543
525.28	0.422
534.309	0.428
543.337	0.568
552.366	0.582
561.395	0.422
570.423	0.42
579.452	0.57
588.48	0.547
597.509	0.503
606.538	0.489
615.566	0.552
624.595	0.492
633.624	0.511
642.652	0.467
651.681	0.62
660.71	0.691
669.738	0.716
678.767	0.751
687.796	0.749
696.824	0.785
705.853	0.818
714.882	0.833
723.91	0.842
732.939	0.842
741.967	0.835
750.996	0.801
760.025	0.683
769.053	0.777
778.082	0.853
787.111	0.874
796.139	0.871
805.168	0.887
814.197	0.896
823.225	0.896
832.254	0.894
841.283	0.892
850.311	0.891
859.34	0.886
868.369	0.874
877.397	0.823
886.426	0.8
895.454	0.823
904.483	0.794
913.512	0.733
922.54	0.852
931.569	0.847
940.598	0.84
949.626	0.829
958.655	0.813
967.684	0.793
976.712	0.775
985.741	0.76
994.77	0.746
1003.8	0.73
1012.83	0.705
1021.86	0.69
1030.88	0.701
1039.91	0.701
1048.94	0.669
1057.97	0.619
1067	0.623
1076.03	0.625
1085.06	0.533
1094.08	0.341
1103.11	0.168
1112.14	0.422
1121.17	0.672
1130.2	0.695
1139.23	0.69
1148.26	0.682
1157.29	0.673
1166.31	0.695
1175.34	0.706
1184.37	0.671
1193.4	0.599
1202.43	0.623
1211.46	0.707
1220.49	0.742
1229.51	0.709
1238.54	0.715
1247.57	0.771
1256.6	0.782
1265.63	0.785
1274.66	0.793
1283.69	0.793
1292.71	0.784
1301.74	0.772
1310.77	0.756
1319.8	0.727
1328.83	0.659
1337.86	0.495
1346.89	0.622
1355.92	0.726
1364.94	0.617
1373.97	0.437
1383	0.431
1392.03	0.452
1401.06	0.666
1410.09	0.734
1419.12	0.588
1428.14	0.58
1437.17	0.575
1446.2	0.495
1455.23	0.519
1464.26	0.527
1473.29	0.566
1482.32	0.638
1491.35	0.676
1500.37	0.695
1509.4	0.714
1518.43	0.718
1527.46	0.733
1536.49	0.758
1545.52	0.751
1554.55	0.712
1563.57	0.629
1572.6	0.505
1581.63	0.309
1590.66	0.308
1599.69	0.348
1608.72	0.391
1617.75	0.428
1626.77	0.208
1635.8	0.103
1644.83	0.151
1653.86	0.327
1662.89	0.593
1671.92	0.709
1680.95	0.756
1689.98	0.797
1699	0.836
1708.03	0.867
1717.06	0.878
1726.09	0.89
1735.12	0.899
1744.15	0.908
1753.18	0.909
1762.2	0.907
1771.23	0.909
1780.26	0.914
1789.29	0.917
1798.32	0.919
1807.35	0.921
1816.38	0.922
1825.41	0.926
1834.43	0.929
1843.46	0.929
1852.49	0.928
1861.52	0.924
1870.55	0.918
1879.58	0.917
1888.61	0.919
1897.63	0.917
1906.66	0.914
1915.69	0.913
1924.72	0.913
1933.75	0.913
1942.78	0.912
1951.81	0.911
1960.83	0.909
1969.86	0.909
1978.89	0.908
1987.92	0.907
1996.95	0.905
2005.98	0.903
2015.01	0.902
2024.04	0.9
2033.06	0.898
2042.09	0.897
2051.12	0.897
2060.15	0.896
2069.18	0.895
2078.21	0.893
2087.24	0.891
2096.26	0.89
2105.29	0.889
2114.32	0.887
2123.35	0.884
2132.38	0.881
2141.41	0.876
2150.44	0.874
2159.46	0.873
2168.49	0.872
2177.52	0.87
2186.55	0.869
2195.58	0.862
2204.61	0.854
2213.64	0.856
2222.67	0.862
2231.69	0.867
2240.72	0.869
2249.75	0.868
2258.78	0.864
2267.81	0.861
2276.84	0.858
2285.87	0.854
2294.89	0.853
2303.92	0.853
2312.95	0.854
2321.98	0.857
2331.01	0.858
2340.04	0.86
2349.07	0.86
2358.1	0.861
2367.12	0.861
2376.15	0.862
2385.18	0.861
2394.21	0.859
2403.24	0.857
2412.27	0.855
2421.3	0.854
2430.32	0.854
2439.35	0.853
2448.38	0.848
2457.41	0.845
2466.44	0.843
2475.47	0.837
2484.5	0.83
2493.52	0.827
2502.55	0.827
2511.58	0.827
2520.61	0.825
2529.64	0.824
2538.67	0.821
2547.7	0.815
2556.73	0.812
2565.75	0.81
2574.78	0.807
2583.81	0.803
2592.84	0.8
2601.87	0.795
2610.9	0.792
2619.93	0.788
2628.95	0.784
2637.98	0.775
2647.01	0.769
2656.04	0.765
2665.07	0.76
2674.1	0.759
2683.13	0.758
2692.16	0.757
2701.18	0.75
2710.21	0.744
2719.24	0.742
2728.27	0.738
2737.3	0.733
2746.33	0.729
2755.36	0.725
2764.38	0.722
2773.41	0.717
2782.44	0.714
2791.47	0.709
2800.5	0.692
2809.53	0.68
2818.56	0.652
2827.58	0.648
2836.61	0.645
2845.64	0.638
2854.67	0.6
2863.7	0.508
2872.73	0.515
2881.76	0.602
2890.79	0.639
2899.81	0.628
2908.84	0.616
2917.87	0.592
2926.9	0.549
2935.93	0.551
2944.96	0.603
2953.99	0.567
2963.01	0.503
2972.04	0.453
2981.07	0.495
2990.1	0.597
2999.13	0.593
3008.16	0.579
3017.19	0.562
3026.21	0.543
3035.24	0.538
3044.27	0.528
3053.3	0.513
3062.33	0.486
3071.36	0.443
3080.39	0.403
3089.42	0.379
3098.44	0.366
3107.47	0.342
3116.5	0.34
3125.53	0.339
3134.56	0.336
3143.59	0.324
3152.62	0.303
3161.64	0.287
3170.67	0.308
3179.7	0.305
3188.73	0.285
3197.76	0.258
3206.79	0.253
3215.82	0.258
3224.85	0.254
3233.87	0.226
3242.9	0.196
3251.93	0.18
3260.96	0.181
3269.99	0.208
3279.02	0.228
3288.05	0.23
3297.07	0.23
3306.1	0.25
3315.13	0.276
3324.16	0.36
3333.19	0.418
3342.22	0.465
3351.25	0.494
3360.27	0.509
3369.3	0.517
3378.33	0.517
3387.36	0.51
3396.39	0.493
3405.42	0.447
3414.45	0.368
3423.48	0.254
3432.5	0.294
3441.53	0.412
3450.56	0.439
3459.59	0.456
3468.62	0.575
3477.65	0.621
3486.68	0.631
3495.7	0.64
3504.73	0.665
3513.76	0.675
3522.79	0.691
3531.82	0.705
3540.85	0.715
3549.88	0.725
3558.91	0.734
3567.93	0.745
3576.96	0.758
3585.99	0.768
3595.02	0.776
3604.05	0.79
3613.08	0.8
3622.11	0.806
3631.13	0.812
3640.16	0.818
3649.19	0.819
3658.22	0.821
3667.25	0.818
3676.28	0.818
3685.31	0.821
3694.33	0.826
3703.36	0.826
3712.39	0.824
3721.42	0.82
3730.45	0.816
3739.48	0.814
3748.51	0.813
3757.54	0.816
3766.56	0.816
3775.59	0.815
3784.62	0.814
3793.65	0.811
3802.68	0.81
