Infrared Spectrum: ELAIDIC ACID, METHYL ESTER
Formula: C19 H36 O2
CAS: 1937-62-8
State: SOLUTION (10% CS2 FOR 5000-2380 AND 1390-625, 10% C2Cl4 FOR 2380-1390 CM^-^1)
Class: COBLENTZ
Instrument: PERKIN-ELMER
Sampling: TRANSMISSION
Path length: 0.01 CM, 0.01 CM
Resolution: 4
Origin: HORMEL INSTITUTE
MICROMETERS	TRANSMITTANCE
2.027	0.944
2.06091	0.945
2.09482	0.945
2.12872	0.945
2.16263	0.945
2.19654	0.945
2.23045	0.944
2.26436	0.934
2.29826	0.925
2.33217	0.912
2.36608	0.912
2.39999	0.912
2.4339	0.913
2.46781	0.92
2.50171	0.923
2.53562	0.925
2.56953	0.927
2.60344	0.927
2.63735	0.93
2.67125	0.934
2.70516	0.935
2.73907	0.935
2.77298	0.939
2.80689	0.94
2.84079	0.94
2.8747	0.932
2.90861	0.92
2.94252	0.92
2.97643	0.923
3.01033	0.925
3.04424	0.925
3.07815	0.93
3.11206	0.93
3.14597	0.928
3.17988	0.925
3.21378	0.925
3.24769	0.923
3.2816	0.903
3.31551	0.759
3.34942	0.614
3.38332	0.306
3.41723	0.062
3.45114	0.111
3.48505	0.282
3.51896	0.221
3.55286	0.663
3.58677	0.808
3.62068	0.862
3.65459	0.888
3.6885	0.895
3.7224	0.896
3.75631	0.893
3.79022	0.901
3.82413	0.905
3.85804	0.913
3.89195	0.918
3.92585	0.925
3.95976	0.927
3.99367	0.93
4.02758	0.934
4.06149	0.94
4.09539	0.94
4.1293	0.939
4.16321	0.94
4.19712	0.94
4.23103	0.935
4.26493	0.922
4.29884	0.92
4.33275	0.922
4.36666	0.928
4.40057	0.932
4.43447	0.935
4.46838	0.935
4.50229	0.94
4.5362	0.942
4.57011	0.94
4.60402	0.939
4.63792	0.939
4.67183	0.937
4.70574	0.935
4.73965	0.937
4.77356	0.937
4.80746	0.934
4.84137	0.93
4.87528	0.925
4.90919	0.925
4.9431	0.925
4.977	0.925
5.01091	0.927
5.04482	0.928
5.07873	0.932
5.11264	0.934
5.14654	0.934
5.18045	0.934
5.21436	0.935
5.24827	0.935
5.28218	0.937
5.31609	0.937
5.34999	0.937
5.3839	0.934
5.41781	0.934
5.45172	0.93
5.48563	0.922
5.51953	0.913
5.55344	0.903
5.58735	0.881
5.62126	0.837
5.65517	0.744
5.68907	0.507
5.72298	0.121
5.75689	0.093
5.7908	0.394
5.82471	0.575
5.85861	0.715
5.89252	0.744
5.92643	0.817
5.96034	0.847
5.99425	0.861
6.02816	0.868
6.06206	0.873
6.09597	0.879
6.12988	0.888
6.16379	0.886
6.1977	0.886
6.2316	0.891
6.26551	0.895
6.29942	0.895
6.33333	0.896
6.36724	0.896
6.40114	0.896
6.43505	0.896
6.46896	0.896
6.50287	0.896
6.53678	0.896
6.57068	0.895
6.60459	0.895
6.6385	0.89
6.67241	0.876
6.70632	0.862
6.74023	0.839
6.77413	0.774
6.80804	0.375
6.84195	0.336
6.87586	0.387
6.90977	0.438
6.94367	0.343
6.97758	0.423
7.01149	0.648
7.0454	0.659
7.07931	0.739
7.11321	0.78
7.14712	0.793
7.18103	0.795
7.21494	0.756
7.24885	0.566
7.28275	0.553
7.31666	0.522
7.35057	0.505
7.38448	0.527
7.41839	0.573
7.4523	0.604
7.4862	0.629
7.52011	0.642
7.55402	0.626
7.58793	0.607
7.62184	0.604
7.65574	0.602
7.68965	0.604
7.72356	0.609
7.75747	0.612
7.79138	0.605
7.82528	0.583
7.85919	0.573
7.8931	0.549
7.92701	0.514
7.96092	0.483
7.99482	0.448
8.02873	0.411
8.06264	0.414
8.09655	0.431
8.13046	0.458
8.16437	0.47
8.19827	0.461
8.23218	0.443
8.26609	0.412
8.3	0.362
8.33391	0.314
8.36781	0.301
8.40172	0.345
8.43563	0.389
8.46954	0.353
8.50345	0.275
8.53735	0.241
8.57126	0.262
8.60517	0.324
8.63908	0.382
8.67299	0.443
8.70689	0.5
8.7408	0.543
8.77471	0.578
8.80862	0.619
8.84253	0.641
8.87644	0.636
8.91034	0.624
8.94425	0.624
8.97816	0.653
9.01207	0.675
9.04598	0.686
9.07988	0.681
9.11379	0.675
9.1477	0.675
9.18161	0.683
9.21552	0.695
9.24942	0.705
9.28333	0.725
9.31724	0.737
9.35115	0.752
9.38506	0.756
9.41896	0.764
9.45287	0.768
9.48678	0.773
9.52069	0.78
9.5546	0.783
9.58851	0.783
9.62241	0.781
9.65632	0.774
9.69023	0.752
9.72414	0.741
9.75805	0.722
9.79195	0.707
9.82586	0.702
9.85977	0.702
9.89368	0.712
9.92759	0.724
9.96149	0.741
9.9954	0.742
10.0293	0.744
10.0632	0.744
10.0971	0.742
10.131	0.739
10.1649	0.732
10.1989	0.714
10.2328	0.656
10.2667	0.529
10.3006	0.37
10.3345	0.28
10.3684	0.323
10.4023	0.504
10.4362	0.653
10.4701	0.749
10.504	0.781
10.5379	0.815
10.5718	0.842
10.6057	0.852
10.6397	0.861
10.6736	0.869
10.7075	0.874
10.7414	0.878
10.7753	0.881
10.8092	0.883
10.8431	0.884
10.877	0.883
10.9109	0.884
10.9448	0.883
10.9787	0.883
11.0126	0.879
11.0466	0.876
11.0805	0.873
11.1144	0.868
11.1483	0.864
11.1822	0.857
11.2161	0.851
11.25	0.844
11.2839	0.835
11.3178	0.829
11.3517	0.82
11.3856	0.817
11.4195	0.813
11.4535	0.815
11.4874	0.815
11.5213	0.815
11.5552	0.815
11.5891	0.815
11.623	0.817
11.6569	0.818
11.6908	0.822
11.7247	0.825
11.7586	0.827
11.7925	0.832
11.8264	0.834
11.8603	0.835
11.8943	0.835
11.9282	0.835
11.9621	0.835
11.996	0.839
12.0299	0.842
12.0638	0.844
12.0977	0.847
12.1316	0.852
12.1655	0.854
12.1994	0.856
12.2333	0.859
12.2672	0.862
12.3012	0.864
12.3351	0.864
12.369	0.864
12.4029	0.866
12.4368	0.866
12.4707	0.866
12.5046	0.868
12.5385	0.868
12.5724	0.868
12.6063	0.869
12.6402	0.869
12.6741	0.869
12.7081	0.869
12.742	0.869
12.7759	0.868
12.8098	0.866
12.8437	0.864
12.8776	0.864
12.9115	0.864
12.9454	0.862
12.9793	0.859
13.0132	0.856
13.0471	0.856
13.081	0.854
13.1149	0.852
13.1489	0.851
13.1828	0.851
13.2167	0.851
13.2506	0.851
13.2845	0.851
13.3184	0.851
13.3523	0.847
13.3862	0.844
13.4201	0.844
13.454	0.839
13.4879	0.834
13.5218	0.832
13.5558	0.827
13.5897	0.822
13.6236	0.813
13.6575	0.807
13.6914	0.798
13.7253	0.781
13.7592	0.761
13.7931	0.739
13.827	0.72
13.8609	0.707
13.8948	0.71
13.9287	0.73
13.9626	0.759
13.9966	0.781
14.0305	0.802
14.0644	0.818
14.0983	0.829
14.1322	0.837
14.1661	0.844
14.2	0.851
14.2339	0.854
14.2678	0.861
14.3017	0.862
14.3356	0.868
14.3695	0.871
14.4035	0.874
14.4374	0.879
14.4713	0.879
14.5052	0.883
14.5391	0.89
14.573	0.895
14.6069	0.895
14.6408	0.896
14.6747	0.896
14.7086	0.898
14.7425	0.9
14.7764	0.9
14.8104	0.901
14.8443	0.901
14.8782	0.903
14.9121	0.903
14.946	0.901
14.9799	0.901
15.0138	0.906
15.0477	0.91
15.0816	0.91
15.1155	0.91
15.1494	0.91
15.1833	0.91
15.2172	0.908
15.2512	0.906
15.2851	0.905
15.319	0.905
