Infrared Spectrum: 4-ETHYL-4-HYDROXYMETHYL-2-METHYL-Delta^2-OXAZOLINE
Formula: C7 H13 N O2
CAS: 19383-04-1
Boiling point: 66-67 C AT 0.3 mmHg
Class: COBLENTZ
Instrument: Not specified, most likely a prism, grating, or hybrid spectrometer.
Sampling: TRANSMISSION
Path length: FILM
Resolution: 4
Origin: ARTHUR D. LITTLE, INC.
1/CM	TRANSMITTANCE
699.285	0.64
707.563	0.656
715.841	0.672
724.119	0.686
732.397	0.701
740.675	0.714
748.953	0.722
757.231	0.725
765.509	0.721
773.787	0.705
782.065	0.732
790.343	0.739
798.621	0.722
806.899	0.687
815.177	0.712
823.455	0.715
831.733	0.736
840.011	0.764
848.289	0.779
856.567	0.758
864.845	0.693
873.123	0.597
881.401	0.6
889.679	0.619
897.957	0.621
906.235	0.646
914.513	0.633
922.791	0.633
931.069	0.601
939.347	0.693
947.625	0.667
955.903	0.521
964.181	0.475
972.459	0.367
980.737	0.277
989.015	0.464
997.293	0.506
1005.57	0.543
1013.85	0.576
1022.13	0.558
1030.4	0.467
1038.68	0.446
1046.96	0.429
1055.24	0.41
1063.52	0.37
1071.79	0.453
1080.07	0.671
1088.35	0.764
1096.63	0.771
1104.91	0.766
1113.18	0.747
1121.46	0.726
1129.74	0.703
1138.02	0.667
1146.3	0.653
1154.57	0.642
1162.85	0.643
1171.13	0.583
1179.41	0.628
1187.69	0.683
1195.96	0.649
1204.24	0.593
1212.52	0.571
1220.8	0.492
1229.08	0.38
1237.35	0.359
1245.63	0.378
1253.91	0.346
1262.19	0.467
1270.47	0.581
1278.74	0.642
1287.02	0.642
1295.3	0.614
1303.58	0.611
1311.86	0.654
1320.13	0.651
1328.41	0.642
1336.69	0.613
1344.97	0.607
1353.25	0.579
1361.52	0.463
1369.8	0.327
1378.08	0.449
1386.36	0.611
1394.64	0.64
1402.91	0.617
1411.19	0.583
1419.47	0.502
1427.75	0.556
1436.03	0.497
1444.3	0.527
1452.58	0.533
1460.86	0.525
1469.14	0.558
1477.42	0.571
1485.69	0.654
1493.97	0.726
1502.25	0.747
1510.53	0.751
1518.81	0.753
1527.08	0.757
1535.36	0.753
1543.64	0.753
1551.92	0.757
1560.2	0.753
1568.47	0.742
1576.75	0.735
1585.03	0.746
1593.31	0.742
1601.59	0.736
1609.86	0.726
1618.14	0.701
1626.42	0.68
1634.7	0.638
1642.98	0.585
1651.25	0.406
1659.53	0.273
1667.81	0.185
1676.09	0.165
1684.37	0.356
1692.64	0.54
1700.92	0.654
1709.2	0.693
1717.48	0.718
1725.76	0.728
1734.03	0.719
1742.31	0.703
1750.59	0.725
1758.87	0.755
1767.15	0.789
1775.42	0.796
1783.7	0.808
1791.98	0.803
1800.26	0.805
1808.54	0.812
1816.81	0.808
1825.09	0.807
1833.37	0.805
1841.65	0.808
1849.93	0.812
1858.2	0.809
1866.48	0.809
1874.76	0.807
1883.04	0.804
1891.32	0.805
1899.59	0.807
1907.87	0.805
1916.15	0.804
1924.43	0.807
1932.71	0.808
1940.98	0.807
1949.26	0.807
1957.54	0.808
1965.82	0.809
1974.1	0.808
1982.37	0.807
1990.65	0.809
1998.93	0.811
2007.21	0.811
2015.49	0.811
2023.76	0.809
2032.04	0.808
2040.32	0.809
2048.6	0.809
2056.88	0.808
2065.15	0.807
2073.43	0.804
2081.71	0.801
2089.99	0.8
2098.27	0.8
2106.54	0.8
2114.82	0.798
2123.1	0.8
2131.38	0.801
2139.66	0.803
2147.93	0.807
2156.21	0.804
2164.49	0.803
2172.77	0.8
2181.05	0.801
2189.32	0.801
2197.6	0.8
2205.88	0.804
2214.16	0.808
2222.44	0.804
2230.71	0.803
2238.99	0.804
2247.27	0.803
2255.55	0.801
2263.83	0.804
2272.1	0.805
2280.38	0.804
2288.66	0.805
2296.94	0.807
2305.22	0.803
2313.49	0.791
2321.77	0.785
2330.05	0.782
2338.33	0.773
2346.61	0.772
2354.88	0.776
2363.16	0.78
2371.44	0.786
2379.72	0.793
2388	0.797
2396.27	0.798
2404.55	0.794
2412.83	0.793
2421.11	0.794
2429.39	0.789
2437.66	0.789
2445.94	0.785
2454.22	0.785
2462.5	0.787
2470.78	0.785
2479.05	0.78
2487.33	0.779
2495.61	0.78
2503.89	0.78
2512.17	0.78
2520.44	0.779
2528.72	0.78
2537	0.78
2545.28	0.778
2553.56	0.772
2561.83	0.766
2570.11	0.761
2578.39	0.76
2586.67	0.758
2594.95	0.755
2603.22	0.753
2611.5	0.75
2619.78	0.747
2628.06	0.746
2636.34	0.742
2644.61	0.736
2652.89	0.732
2661.17	0.729
2669.45	0.722
2677.73	0.717
2686	0.711
2694.28	0.707
2702.56	0.703
2710.84	0.7
2719.12	0.697
2727.39	0.692
2735.67	0.686
2743.95	0.678
2752.23	0.672
2760.51	0.671
2768.78	0.668
2777.06	0.667
2785.34	0.662
2793.62	0.654
2801.9	0.643
2810.17	0.628
2818.45	0.601
2826.73	0.578
2835.01	0.554
2843.29	0.531
2851.56	0.486
2859.84	0.442
2868.12	0.429
2876.4	0.432
2884.68	0.403
2892.95	0.402
2901.23	0.389
2909.51	0.373
2917.79	0.36
2926.07	0.341
2934.34	0.324
2942.62	0.335
2950.9	0.381
2959.18	0.399
2967.46	0.35
2975.73	0.285
2984.01	0.341
2992.29	0.446
3000.57	0.535
3008.85	0.57
3017.12	0.579
3025.4	0.593
3033.68	0.599
3041.96	0.586
3050.24	0.571
3058.51	0.567
3066.79	0.553
3075.07	0.54
3083.35	0.538
3091.63	0.528
3099.9	0.509
3108.18	0.493
3116.46	0.484
3124.74	0.478
3133.02	0.46
3141.29	0.452
3149.57	0.441
3157.85	0.428
3166.13	0.416
3174.41	0.4
3182.68	0.388
3190.96	0.378
3199.24	0.371
3207.52	0.364
3215.8	0.357
3224.07	0.353
3232.35	0.348
3240.63	0.343
3248.91	0.341
3257.18	0.339
3265.46	0.341
3273.74	0.342
3282.02	0.345
3290.3	0.348
3298.57	0.35
3306.85	0.353
3315.13	0.356
3323.41	0.359
3331.69	0.364
3339.96	0.37
3348.24	0.367
3356.52	0.368
3364.8	0.37
3373.08	0.373
3381.35	0.374
3389.63	0.377
3397.91	0.38
3406.19	0.386
3414.47	0.399
3422.74	0.407
3431.02	0.416
3439.3	0.425
3447.58	0.434
3455.86	0.454
3464.13	0.464
3472.41	0.479
3480.69	0.504
3488.97	0.52
3497.25	0.533
3505.52	0.547
3513.8	0.567
3522.08	0.578
3530.36	0.599
3538.64	0.608
3546.91	0.624
3555.19	0.639
3563.47	0.653
3571.75	0.662
3580.03	0.675
3588.3	0.69
3596.58	0.7
3604.86	0.715
3613.14	0.725
3621.42	0.735
3629.69	0.747
3637.97	0.755
3646.25	0.764
