Infrared Spectrum: trans,trans-2,8-Decadiene
Formula: C 10 H 18
CAS: 19398-85-7
State: gas
Instrument: HP-GC/MS/IRD
Origin: NIST Mass Spectrometry Data Center
1/CM	ABSORBANCE
550	0.000152
562	0
574	0.0001254
586	9.88e-05
598	0.0001634
610	0.0001368
622	0.0002736
634	0.0002052
646	0.0001862
658	0.0001748
670	0.000171
682	0.0001862
694	0.0002622
706	0.000399
718	0.0004978
730	0.0005624
742	0.0005776
754	0.0005396
766	0.00057
778	0.0005358
790	0.0004788
802	0.0004028
814	0.0004294
826	0.0004712
838	0.0005548
850	0.000589
862	0.0006726
874	0.000836
886	0.0009956
898	0.0013642
910	0.001824
922	0.0024928
934	0.003534
946	0.0059166
958	0.0111568
970	0.0106932
982	0.0054758
994	0.0032718
1006	0.0024244
1018	0.0019836
1030	0.0016264
1042	0.0014706
1054	0.0015542
1066	0.0018088
1078	0.001463
1090	0.00095
1102	0.000684
1114	0.0006194
1126	0.0005092
1138	0.0005054
1150	0.0004636
1162	0.0004902
1174	0.0005282
1186	0.0005548
1198	0.0005814
1210	0.0006384
1222	0.0006726
1234	0.0006688
1246	0.0006802
1258	0.0008246
1270	0.0009804
1282	0.0011476
1294	0.0013984
1306	0.0014896
1318	0.0013642
1330	0.0013452
1342	0.001615
1354	0.0016758
1366	0.0015124
1378	0.0017328
1390	0.0017252
1402	0.0014668
1414	0.0015998
1426	0.0021812
1438	0.0037164
1450	0.004655
1462	0.0038912
1474	0.0023978
1486	0.0014516
1498	0.0010944
1510	0.0008626
1522	0.000703
1534	0.000589
1546	0.0004826
1558	0.0004408
1570	0.0004104
1582	0.00038
1594	0.0003344
1606	0.0003344
1618	0.0003002
1630	0.0002964
1642	0.0003192
1654	0.0003344
1666	0.0004142
1678	0.0004256
1690	0.0004598
1702	0.0005054
1714	0.00057
1726	0.000532
1738	0.0004408
1750	0.000361
1762	0.0003268
1774	0.0003002
1786	0.0003078
1798	0.0002926
1810	0.0002774
1822	0.000228
1834	0.0001786
1846	0.0001672
1858	0.0001634
1870	0.000133
1882	0.0001292
1894	9.5e-05
1906	9.5e-05
1918	0.0001064
1930	0.0001026
1942	9.12e-05
1954	0.0001102
1966	9.88e-05
1978	0.0001216
1990	0.0001748
2002	0.00019
2014	0.000114
2026	0.0001102
2038	7.22e-05
2050	6.46e-05
2062	5.32e-05
2074	3.42e-05
2086	4.18e-05
2098	1.14e-05
2110	3.8e-05
2122	2.66e-05
2134	2.28e-05
2146	7.6e-06
2158	1.14e-05
2170	4.94e-05
2182	2.66e-05
2194	2.28e-05
2206	2.28e-05
2218	2.66e-05
2230	3.8e-06
2242	2.28e-05
2254	4.94e-05
2266	6.46e-05
2278	5.7e-05
2290	5.7e-05
2302	7.22e-05
2314	6.84e-05
2326	6.08e-05
2338	9.88e-05
2350	9.5e-05
2362	9.12e-05
2374	0.000133
2386	0.0001368
2398	0.0001292
2410	0.0001368
2422	0.000133
2434	0.0001292
2446	0.000133
2458	0.0001368
2470	0.0001558
2482	0.0001672
2494	0.0001368
2506	0.0001596
2518	0.0001672
2530	0.0001786
2542	0.0001824
2554	0.0001672
2566	0.0001558
2578	0.0001672
2590	0.000209
2602	0.0002318
2614	0.0002394
2626	0.000285
2638	0.0003268
2650	0.0003344
2662	0.0003686
2674	0.000418
2686	0.000456
2698	0.0004674
2710	0.0004674
2722	0.0005548
2734	0.0008132
2746	0.0009804
2758	0.0007676
2770	0.0007562
2782	0.000931
2794	0.0011096
2806	0.0014174
2818	0.001957
2830	0.003097
2842	0.0060876
2854	0.0111454
2866	0.01501
2878	0.0126502
2890	0.0116128
2902	0.0152228
2914	0.0222528
2926	0.0352298
2938	0.0352374
2950	0.0215346
2962	0.0136572
2974	0.0110314
2986	0.0091162
2998	0.0083866
3010	0.0083752
3022	0.0084284
3034	0.006669
3046	0.0043548
3058	0.0030286
3070	0.0022458
3082	0.0017442
3094	0.0013984
3106	0.0011248
3118	0.0009424
3130	0.0007904
3142	0.0006536
3154	0.0004864
3166	0.000361
3178	0.0003192
3190	0.0002812
3202	0.0002698
3214	0.0002356
3226	0.000209
3238	0.0001444
3250	0.0001672
3262	0.000152
3274	0.0001102
3286	0.0001026
3298	7.98e-05
3310	7.22e-05
3322	0.0001102
3334	8.36e-05
3346	5.32e-05
3358	9.88e-05
3370	9.88e-05
3382	6.84e-05
3394	8.74e-05
3406	7.98e-05
3418	6.84e-05
3430	7.22e-05
3442	0.0001026
3454	9.12e-05
3466	5.7e-05
3478	3.42e-05
3490	4.18e-05
3502	4.94e-05
3514	3.04e-05
3526	3.8e-06
3538	1.14e-05
3550	4.18e-05
3562	7.6e-06
3574	3.42e-05
3586	2.66e-05
3598	0
3610	4.18e-05
3622	5.32e-05
3634	7.22e-05
3646	4.56e-05
3658	7.6e-05
3670	5.32e-05
3682	1.9e-05
3694	3.04e-05
3706	5.7e-05
3718	4.94e-05
3730	3.8e-05
3742	5.32e-05
3754	5.7e-05
3766	9.88e-05
3778	8.36e-05
3790	7.6e-05
3802	9.88e-05
3814	9.12e-05
3826	0.0001064
3838	0.0001026
