Infrared Spectrum: 4-Decene, (E)
Formula: C10 H20
CAS: 19398-89-1
State: LIQUID (NEAT)
Class: COBLENTZ III
Instrument: BECKMAN IR-12 (GRATING)
Instrument parameters: GRATING
Sampling: TRANSMISSION
Path length: 0.01056 CM
Resolution: 2
Origin: COLGATE-PALMOLIVE COMPANY (KELLENBACH)
1/CM	TRANSMITTANCE
402	0.6163
412	0.6434
422	0.6892
432	0.7255
442	0.7525
452	0.7693
462	0.7783
472	0.7793
482	0.7864
492	0.7959
502	0.7929
512	0.8051
522	0.8167
532	0.8184
542	0.8384
552	0.8542
562	0.8613
572	0.8678
582	0.8698
592	0.8714
602	0.8707
612	0.8728
622	0.8669
632	0.8678
642	0.8752
652	0.8752
662	0.8777
672	0.8718
682	0.8562
692	0.8372
702	0.7961
712	0.6654
722	0.4123
732	0.2211
742	0.3461
752	0.5057
762	0.5041
772	0.4959
782	0.5309
792	0.6229
802	0.7028
812	0.7546
822	0.7592
832	0.7154
842	0.643
852	0.6301
862	0.633
872	0.6049
882	0.5447
892	0.4066
902	0.5136
912	0.5874
922	0.57
932	0.5946
942	0.4027
952	0.1411
962	0.0143
972	0.0046
982	0.0402
992	0.3098
1002	0.3945
1012	0.4238
1022	0.5159
1032	0.5792
1042	0.556
1052	0.4531
1062	0.2639
1072	0.2936
1082	0.4234
1092	0.4473
1102	0.4174
1112	0.4327
1122	0.6972
1132	0.7085
1142	0.6689
1152	0.6956
1162	0.7434
1172	0.7505
1182	0.7294
1192	0.662
1202	0.6889
1212	0.6444
1222	0.6059
1232	0.5979
1242	0.6558
1252	0.6358
1262	0.4935
1272	0.4528
1282	0.4619
1292	0.4407
1302	0.371
1312	0.3775
1322	0.4312
1332	0.4063
1342	0.211
1352	0.3025
1362	0.3479
1372	0.2713
1382	0.0229
1392	0.3426
1402	0.4586
1412	0.4469
1422	0.4
1432	0.1654
1442	0.0211
1452	0.0073
1462	0.0075
1472	0.1732
1482	0.4126
1492	0.5036
1502	0.5708
1512	0.6278
1522	0.6621
1532	0.6968
1542	0.725
1552	0.7419
1562	0.7494
1572	0.7642
1582	0.7738
1592	0.7827
1602	0.7893
1612	0.7916
1622	0.7929
1632	0.7923
1642	0.7907
1652	0.783
1662	0.7344
1672	0.7094
1682	0.747
1692	0.751
1702	0.7437
1712	0.7407
1722	0.7406
1732	0.7414
1742	0.7286
1752	0.7206
1762	0.7512
1772	0.7775
1782	0.7938
1792	0.8021
1802	0.8002
1812	0.795
1822	0.786
1832	0.7682
1842	0.7765
1852	0.7902
1862	0.8007
1872	0.8122
1882	0.8215
1892	0.8302
1902	0.8347
1912	0.8325
1922	0.8275
1932	0.8261
1942	0.8268
1952	0.8291
1962	0.832
1972	0.8318
1982	0.8327
1992	0.837
2002	0.8358
2012	0.8274
2022	0.817
2032	0.8027
2042	0.8016
2052	0.8049
2062	0.8101
2072	0.8165
2082	0.825
2092	0.8291
2102	0.8273
2112	0.8259
2122	0.8258
2132	0.823
2142	0.8171
2152	0.8105
2162	0.8046
2172	0.8044
2182	0.8052
2192	0.8052
2202	0.8057
2212	0.8064
2222	0.807
2232	0.8077
2242	0.8086
2252	0.8091
2262	0.8086
2272	0.8077
2282	0.8066
2292	0.8046
2302	0.8017
2312	0.7939
2322	0.788
2332	0.7846
2342	0.7847
2352	0.7839
2362	0.7828
2372	0.7816
2382	0.7798
2392	0.7782
2402	0.7773
2412	0.7784
2422	0.7823
2432	0.7877
2442	0.7916
2452	0.7943
2462	0.8015
2472	0.8076
2482	0.8066
2492	0.8044
2502	0.7993
2512	0.7866
2522	0.7744
2532	0.7596
2542	0.7461
2552	0.7373
2562	0.7284
2572	0.7175
2582	0.7072
2592	0.6971
2602	0.6872
2612	0.679
2622	0.6641
2632	0.6381
2642	0.6258
2652	0.6115
2662	0.5766
2672	0.5331
2682	0.5786
2692	0.6015
2702	0.607
2712	0.5817
2722	0.5291
2732	0.452
2742	0.5194
2752	0.5352
2762	0.528
2772	0.4701
2782	0.388
2792	0.27
2802	0.1957
2812	0.1214
2822	0.0342
2832	0.0068
2842	0.0039
2852	0.0028
2862	0.0019
2872	0.0018
2882	0.0017
2892	0.0016
2902	0.0015
2912	0.0014
2922	0.0013
2932	0.0012
2942	0.0011
2952	0.001
2962	0.0009
2972	0.0008
2982	0.0034
2992	0.0147
3002	0.0271
3012	0.0347
3022	0.0441
3032	0.1027
3042	0.2607
3052	0.3992
3062	0.4931
3072	0.5354
3082	0.5747
3092	0.6049
3102	0.627
3112	0.6469
3122	0.6623
3132	0.6742
3142	0.6821
3152	0.6862
3162	0.6886
3172	0.6893
3182	0.6903
3192	0.6924
3202	0.712
3212	0.7406
3222	0.7592
3232	0.7736
3242	0.7857
3252	0.7939
3262	0.7974
3272	0.802
3282	0.8087
3292	0.8098
3302	0.8108
3312	0.8112
3322	0.8114
3332	0.8113
3342	0.8111
3352	0.8098
3362	0.8083
3372	0.8056
3382	0.8037
3392	0.8023
3402	0.8014
3412	0.8007
3422	0.7996
3432	0.7981
3442	0.7966
3452	0.7951
3462	0.7935
3472	0.7938
3482	0.7947
3492	0.7971
3502	0.801
3512	0.804
3522	0.8009
3532	0.8014
3542	0.81
3552	0.8159
3562	0.817
3572	0.8194
3582	0.8283
3592	0.8311
3602	0.8291
3612	0.8271
3622	0.8221
3632	0.8106
3642	0.8075
3652	0.8087
3662	0.8094
3672	0.8097
3682	0.809
3692	0.8043
3702	0.7995
3712	0.8053
3722	0.8098
3732	0.8114
3742	0.8095
3752	0.8057
3762	0.7997
3772	0.7943
3782	0.7961
3792	0.797
3802	0.798
3812	0.7984
3822	0.7973
3832	0.7949
3842	0.7944
3852	0.7943
3862	0.7942
3872	0.7958
3882	0.7989
3892	0.7982
3902	0.7943
3912	0.7919
3922	0.7889
3932	0.7822
3942	0.7753
3952	0.7667
3962	0.7568
3972	0.7506
3982	0.7517
3992	0.7505
4002	0.7464
