Infrared Spectrum: 1,4-Dibromo-2-butanol
Formula: C4 H8 Br2 O
CAS: 19398-47-1
State: LIQUID (NEAT)
Class: COBLENTZ III
Instrument: DOW KBr FOREPRISM-GRATING
Instrument parameters: BLAZED AT 3.5, 12.0, 20.0 MICRON AND CHANGED AT 5.0, 7.5, 14.9 MICRON
Sampling: TRANSMISSION
Path length: CAPILLARY
Resolution: 2
Origin: DOW CHEMICAL COMPANY
1/CM	TRANSMITTANCE
3800	0.9671
3791	0.9677
3782	0.9685
3773	0.9691
3764	0.9691
3755	0.9717
3746	0.9767
3737	0.975
3728	0.9728
3719	0.9707
3710	0.9686
3701	0.9662
3692	0.9624
3683	0.9575
3674	0.9512
3665	0.9427
3656	0.9338
3647	0.9254
3638	0.9163
3629	0.9047
3620	0.8921
3611	0.8735
3602	0.8493
3593	0.8263
3584	0.7971
3575	0.759
3566	0.7254
3557	0.698
3548	0.6668
3539	0.6206
3530	0.5792
3521	0.5389
3512	0.4972
3503	0.4497
3494	0.4271
3485	0.4034
3476	0.37
3467	0.338
3458	0.3031
3449	0.2729
3440	0.2492
3431	0.2313
3422	0.2176
3413	0.2101
3404	0.2058
3395	0.2036
3386	0.2022
3377	0.2021
3368	0.2035
3359	0.2069
3350	0.2123
3341	0.2194
3332	0.2272
3323	0.2372
3314	0.2492
3305	0.2634
3296	0.2808
3287	0.2994
3278	0.3193
3269	0.3392
3260	0.3595
3251	0.3803
3242	0.4016
3233	0.4201
3224	0.4388
3215	0.4612
3206	0.491
3197	0.52
3188	0.5447
3179	0.5645
3170	0.5887
3161	0.6099
3152	0.6249
3143	0.6441
3134	0.6668
3125	0.6928
3116	0.7128
3107	0.7287
3098	0.7412
3089	0.7522
3080	0.7603
3071	0.7675
3062	0.7737
3053	0.7768
3044	0.7764
3035	0.7725
3026	0.7581
3017	0.7461
3008	0.7004
2999	0.5929
2990	0.4937
2981	0.4537
2972	0.4226
2963	0.3968
2954	0.4007
2945	0.4315
2936	0.4535
2927	0.4758
2918	0.4964
2909	0.5003
2900	0.4886
2891	0.4426
2882	0.432
2873	0.4386
2864	0.4882
2855	0.5456
2846	0.598
2837	0.6793
2828	0.7175
2819	0.7458
2810	0.7718
2801	0.7918
2792	0.8078
2783	0.8176
2774	0.8242
2765	0.8299
2756	0.8328
2747	0.8338
2738	0.8333
2729	0.8328
2720	0.8353
2711	0.8396
2702	0.8437
2693	0.8434
2684	0.8418
2675	0.8421
2666	0.8461
2657	0.85
2648	0.8537
2639	0.8573
2630	0.8613
2621	0.8654
2612	0.8696
2603	0.873
2594	0.8766
2585	0.88
2576	0.8834
2567	0.8861
2558	0.8887
2549	0.891
2540	0.8925
2531	0.894
2522	0.8947
2513	0.8953
2504	0.8962
2495	0.8971
2486	0.898
2477	0.899
2468	0.9
2459	0.9011
2450	0.9021
2441	0.9033
2432	0.9046
2423	0.906
2414	0.9075
2405	0.909
2396	0.9104
2387	0.9117
2378	0.9131
2369	0.9151
2360	0.9177
2351	0.9203
2342	0.9238
2333	0.9271
2324	0.9287
2315	0.914
2306	0.9121
2297	0.9113
2288	0.9099
2279	0.9089
2270	0.908
2261	0.9078
2252	0.9084
2243	0.9081
2234	0.9081
2225	0.9086
2216	0.9092
2207	0.9098
2198	0.911
2189	0.9121
2180	0.9134
2171	0.9144
2162	0.9152
2153	0.916
2144	0.9168
2135	0.9173
2126	0.9178
2117	0.9184
2108	0.9191
2099	0.9197
2090	0.9199
2081	0.9201
2072	0.9201
2063	0.9201
2054	0.9201
2045	0.9199
2036	0.9197
2027	0.919
2018	0.918
2009	0.917
2000	0.9123
1991	0.8831
1982	0.8834
1973	0.8824
1964	0.8838
1955	0.8862
1946	0.8851
1937	0.8848
1928	0.885
1919	0.8855
1910	0.8853
1901	0.8851
1892	0.884
1883	0.8824
1874	0.8808
1865	0.8791
1856	0.8777
1847	0.8763
1838	0.8749
1829	0.8734
1820	0.8721
1811	0.8714
1802	0.8704
1793	0.8691
1784	0.8677
1775	0.8661
1766	0.8634
1757	0.8592
1748	0.851
1739	0.8432
1730	0.8364
1721	0.8246
1712	0.8192
1703	0.8245
1694	0.8366
1685	0.8434
1676	0.847
1667	0.8484
1658	0.849
1649	0.85
1640	0.8517
1631	0.8551
1622	0.8609
1613	0.8674
1604	0.8736
1595	0.8787
1586	0.8817
1577	0.8823
1568	0.8818
1559	0.8809
1550	0.8796
1541	0.8764
1532	0.8718
1523	0.8661
1514	0.8601
1505	0.8527
1496	0.8398
1487	0.8021
1478	0.7735
1469	0.7356
1460	0.6957
1451	0.5925
1442	0.5247
1433	0.5321
1424	0.5295
1415	0.6239
1406	0.6665
1397	0.7028
1388	0.7158
1379	0.7257
1370	0.6782
1361	0.6504
1352	0.6334
1343	0.5998
1334	0.5679
1325	0.5449
1316	0.5682
1307	0.5815
1298	0.5848
1289	0.5918
1280	0.5975
1271	0.4792
1262	0.4317
1253	0.5308
1244	0.5481
1235	0.5117
1226	0.539
1217	0.5603
1208	0.5798
1199	0.6154
1190	0.6458
1181	0.6461
1172	0.6537
1163	0.6715
1154	0.6896
1145	0.6889
1136	0.599
1127	0.3947
1118	0.4466
1109	0.5484
1100	0.5616
1091	0.4703
1082	0.3607
1073	0.278
1064	0.2971
1055	0.3266
1046	0.3065
1037	0.4421
1028	0.5881
1019	0.631
1010	0.6218
1001	0.508
992	0.5724
983	0.6243
974	0.5105
965	0.5641
956	0.7193
947	0.7804
938	0.7836
929	0.7558
920	0.635
911	0.5228
902	0.4852
893	0.5079
884	0.6398
875	0.7198
866	0.7092
857	0.6818
848	0.706
839	0.739
830	0.7876
821	0.8251
812	0.8471
803	0.8608
794	0.8552
785	0.8338
776	0.8115
767	0.7782
758	0.7908
749	0.8145
740	0.8232
731	0.8241
722	0.8227
713	0.8175
704	0.806
695	0.7854
686	0.7254
677	0.6706
668	0.6389
659	0.636
650	0.6407
641	0.7038
632	0.7305
623	0.7401
614	0.7433
605	0.7461
596	0.7474
587	0.7414
578	0.6855
569	0.6748
560	0.7118
551	0.7469
542	0.7518
533	0.7568
524	0.7641
515	0.7761
506	0.7837
497	0.7851
488	0.7733
479	0.7658
470	0.7601
461	0.7586
452	0.7595
443	0.7576
434	0.7511
425	0.7412
416	0.7346
407	0.7304
398	0.7275
389	0.7264
