Infrared Spectrum: 2'-Trifluoromethylbenzanilide
Formula: C 14 H 10 F 3 N O
CAS: 1939-24-8
State: gas
Origin: EPA-IR VAPOR PHASE LIBRARY
1/CM	ABSORBANCE
549.8	0.002924
559.445	0.002504
569.09	0.002514
578.734	0.003564
588.379	0.005804
598.024	0.004394
607.669	0.002374
617.313	0.001754
626.958	0.001274
636.603	0.002134
646.248	0.007194
655.893	0.008234
665.537	0.003724
675.182	0.006064
684.827	0.011084
694.472	0.012774
704.116	0.018694
713.761	0.012664
723.406	0.006664
733.051	0.004624
742.695	0.007454
752.34	0.018904
761.985	0.025084
771.63	0.006364
781.275	0.002914
790.919	0.002374
800.564	0.002044
810.209	0.001454
819.854	0.001554
829.498	0.001215
839.143	0.001504
848.788	0.0011561
858.433	0.001304
868.078	0.001844
877.722	0.002234
887.367	0.003204
897.012	0.002864
906.657	0.002154
916.301	0.001654
925.946	0.001714
935.591	0.001814
945.236	0.002584
954.88	0.002354
964.525	0.001434
974.17	0.001374
983.815	0.001574
993.46	0.002014
1003.1	0.002954
1012.75	0.003784
1022.39	0.011164
1032.04	0.024934
1041.68	0.018574
1051.33	0.011794
1060.97	0.018564
1070.62	0.015524
1080.26	0.014154
1089.91	0.017004
1099.55	0.019834
1109.2	0.032724
1118.84	0.063194
1128.49	0.076764
1138.13	0.041904
1147.78	0.026814
1157.42	0.024624
1167.07	0.037424
1176.71	0.052294
1186.36	0.023604
1196	0.009404
1205.64	0.008524
1215.29	0.011154
1224.93	0.018044
1234.58	0.028364
1244.22	0.041724
1253.87	0.039084
1263.51	0.033424
1273.16	0.059664
1282.8	0.085244
1292.45	0.070644
1302.09	0.049894
1311.74	0.070284
1321.38	0.091584
1331.03	0.033424
1340.67	0.012144
1350.32	0.007404
1359.96	0.005204
1369.61	0.003844
1379.25	0.003534
1388.9	0.003514
1398.54	0.003774
1408.18	0.004754
1417.83	0.006324
1427.47	0.010534
1437.12	0.025264
1446.76	0.053734
1456.41	0.059094
1466.05	0.020284
1475.7	0.012024
1485.34	0.015664
1494.99	0.024554
1504.63	0.028384
1514.28	0.046054
1523.92	0.065464
1533.57	0.050824
1543.21	0.024914
1552.86	0.013784
1562.5	0.010394
1572.15	0.013444
1581.79	0.028514
1591.44	0.048174
1601.08	0.026494
1610.73	0.017284
1620.37	0.010734
1630.01	0.006634
1639.66	0.004384
1649.3	0.003594
1658.95	0.003524
1668.59	0.004354
1678.24	0.005744
1687.88	0.007874
1697.53	0.014234
1707.17	0.033704
1716.82	0.047824
1726.46	0.024964
1736.11	0.012164
1745.75	0.007514
1755.4	0.005204
1765.04	0.003714
1774.69	0.002654
1784.33	0.001974
1793.98	0.001894
1803.62	0.002344
1813.27	0.002064
1822.91	0.001554
1832.55	0.0010838
1842.2	0.001102
1851.84	0.000934
1861.49	0.0008691
1871.13	0.0008797
1880.78	0.0011515
1890.42	0.001454
1900.07	0.001534
1909.71	0.001194
1919.36	0.0011446
1929	0.001404
1938.65	0.0011657
1948.29	0.001284
1957.94	0.001574
1967.58	0.001444
1977.23	0.0009416
1986.87	0.0005566
1996.52	0.0006287
2006.16	0.0006133
2015.81	0.0005671
2025.45	0.0005455
2035.1	0.0004831
2044.74	0.0004999
2054.38	0.0004689
2064.03	0.0005894
2073.67	0.0007702
2083.32	0.0008105
2092.96	0.0005934
2102.61	0.0005829
2112.25	0.0005815
2121.9	0.0006098
2131.54	0.0006244
2141.19	0.0005722
2150.83	0.0006361
2160.48	0.0007527
2170.12	0.0006111
2179.77	0.0006173
2189.41	0.0005315
2199.06	0.0006451
2208.7	0.0006224
2218.35	0.0006501
2227.99	0.000655
2237.64	0.0006856
2247.28	0.0005428
2256.92	0.0005923
2266.57	0.0004289
2276.21	0.0004867
2285.86	0.000598
2295.5	0.0005961
2305.15	0.0006083
2314.79	0.0007419
2324.44	0.0007956
2334.08	0.0008238
2343.73	0.0007843
2353.37	0.0006813
2363.02	0.0006224
2372.66	0.000627
2382.31	0.0005059
2391.95	0.000473
2401.6	0.0005156
2411.24	0.0004834
2420.89	0.0005487
2430.53	0.0004847
2440.18	0.0005817
2449.82	0.0005177
2459.47	0.0005766
2469.11	0.0005209
2478.75	0.0005788
2488.4	0.0005453
2498.04	0.0004173
2507.69	0.0003651
2517.33	0.0005233
2526.98	0.0004637
2536.62	0.0003922
2546.27	0.0004481
2555.91	0.0005421
2565.56	0.0005059
2575.2	0.0005238
2584.85	0.0005281
2594.49	0.0006534
2604.14	0.000619
2613.78	0.0007223
2623.43	0.0005127
2633.07	0.0004263
2642.72	0.00033299
2652.36	0.0003651
2662.01	0.00026487
2671.65	0.00028002
2681.29	0.0002322
2690.94	0.0003249
2700.58	0.0003764
2710.23	0.0002284
2719.87	0.000256137
2729.52	0.00025229
2739.16	0.000473
2748.81	0.0004474
2758.45	0.0004508
2768.1	0.0005257
2777.74	0.000435
2787.39	0.00026729
2797.03	0.0003112
2806.68	0.00032398
2816.32	0.0003734
2825.97	0.00028014
2835.61	0.0004675
2845.26	0.0005107
2854.9	0.0004565
2864.55	0.0005148
2874.19	0.0003486
2883.84	0.0004269
2893.48	0.0004319
2903.12	0.0002133
2912.77	0.0003691
2922.41	0.0004228
2932.06	0.00033789
2941.7	0.000434
2951.35	0.000445
2960.99	0.0005162
2970.64	0.0003789
2980.28	0.0003996
2989.93	0.0004684
2999.57	0.0005277
3009.22	0.0009188
3018.86	0.001704
3028.51	0.003244
3038.15	0.004734
3047.8	0.003804
3057.44	0.004774
3067.09	0.008554
3076.73	0.010904
3086.38	0.007034
3096.02	0.005914
3105.67	0.003824
3115.31	0.002084
3124.95	0.001294
3134.6	0.0009246
3144.24	0.0008376
3153.89	0.0005978
3163.53	0.0006897
3173.18	0.0006532
3182.82	0.0004347
3192.47	0.000413
3202.11	0.0004152
3211.76	0.0003596
3221.4	0.0002082
3231.05	0.000108
3240.69	0.000146
3250.34	0.0003769
3259.98	0.000128
3269.63	0.00025049
3279.27	0.0004235
3288.92	9.2e-05
3298.56	0
3308.21	0.00033067
3317.85	0.0002159
3327.49	0.00028305
3337.14	0.0003685
3346.78	0.0003256
3356.43	0.0003668
3366.07	0.000257192
3375.72	0.00026984
3385.36	0.0005512
3395.01	0.0008048
3404.65	0.000857
3414.3	0.001274
3423.94	0.001444
3433.59	0.001213
3443.23	0.0011143
3452.88	0.001774
3462.52	0.003044
3472.17	0.005234
3481.81	0.008384
3491.46	0.008204
3501.1	0.004864
3510.75	0.002374
3520.39	0.001354
3530.04	0.0009346
3539.68	0.000696
3549.32	0.0006056
3558.97	0.0005087
3568.61	0.00027202
3578.26	0.0005018
3587.9	0.00028278
3597.55	0.000253807
3607.19	0.00030424
3616.84	0.0003954
3626.48	0.0004719
3636.13	0.0004423
3645.77	0.0003987
3655.42	0.00033466
3665.06	0.0003926
3674.71	0.0006407
3684.35	0.0003917
3694	0.00034476
3703.64	0.00034702
3713.29	0.00024488
3722.93	0.000217
3732.58	0.000262612
3742.22	0.000306
3751.86	0.00029125
3761.51	0.00028208
3771.15	0.0003204
3780.8	0.0001688
3790.44	0.00024697
3800.09	0.00032024
3809.73	0.0002287
3819.38	0.00034874
3829.02	0.00034558
3838.67	0.0001813
3848.31	0.00034981
3857.96	0.0002148
3867.6	5.4e-05
3877.25	0.00033212
3886.89	0.0005642
3896.54	0.000121
3906.18	0.0003749
3915.83	0.0003638
3925.47	0.0004985
3935.12	0.0003915
3944.76	7.9e-05
3954.41	0.0003225
3964.05	0.00027527
3973.69	0.0003998
3983.34	0.0002819
3992.98	0.0004674
