Infrared Spectrum: 3'-Trifluoromethylisobutyranilide
Formula: C 11 H 12 F 3 N O
CAS: 1939-27-1
State: gas
Origin: EPA-IR VAPOR PHASE LIBRARY
1/CM	ABSORBANCE
549.8	0.004876
559.445	0.003026
569.09	0.002236
578.734	0.002526
588.379	0.003606
598.024	0.004026
607.669	0.002086
617.313	0.001386
626.958	0.001456
636.603	0.001836
646.248	0.003716
655.893	0.009166
665.537	0.011596
675.182	0.004696
684.827	0.007746
694.472	0.021836
704.116	0.013916
713.761	0.004226
723.406	0.002566
733.051	0.002216
742.695	0.002806
752.34	0.004836
761.985	0.003096
771.63	0.004096
781.275	0.012336
790.919	0.021256
800.564	0.011446
810.209	0.003616
819.854	0.002076
829.498	0.001846
839.143	0.002116
848.788	0.002736
858.433	0.004946
868.078	0.009756
877.722	0.011766
887.367	0.008876
897.012	0.010736
906.657	0.013056
916.301	0.009046
925.946	0.005996
935.591	0.006306
945.236	0.005526
954.88	0.004286
964.525	0.003286
974.17	0.003186
983.815	0.003226
993.46	0.003636
1003.1	0.004836
1012.75	0.003636
1022.39	0.004726
1032.04	0.006476
1041.68	0.010486
1051.33	0.018306
1060.97	0.031606
1070.62	0.047806
1080.26	0.033266
1089.91	0.029536
1099.55	0.041136
1109.2	0.031176
1118.84	0.037196
1128.49	0.065096
1138.13	0.142286
1147.78	0.209256
1157.42	0.112116
1167.07	0.088956
1176.71	0.124086
1186.36	0.088766
1196	0.034966
1205.64	0.022736
1215.29	0.025776
1224.93	0.033176
1234.58	0.032456
1244.22	0.023756
1253.87	0.016986
1263.51	0.017456
1273.16	0.022486
1282.8	0.024406
1292.45	0.029736
1302.09	0.039386
1311.74	0.051166
1321.38	0.115146
1331.03	0.269226
1340.67	0.097486
1350.32	0.024036
1359.96	0.013946
1369.61	0.011256
1379.25	0.011026
1388.9	0.014746
1398.54	0.015456
1408.18	0.020836
1417.83	0.035196
1427.47	0.066046
1437.12	0.086676
1446.76	0.039696
1456.41	0.025126
1466.05	0.030226
1475.7	0.043606
1485.34	0.075546
1494.99	0.077676
1504.63	0.060336
1514.28	0.076186
1523.92	0.093536
1533.57	0.065086
1543.21	0.031716
1552.86	0.018276
1562.5	0.013356
1572.15	0.012236
1581.79	0.015026
1591.44	0.019716
1601.08	0.021926
1610.73	0.020916
1620.37	0.018936
1630.01	0.008166
1639.66	0.005106
1649.3	0.004586
1658.95	0.004806
1668.59	0.005626
1678.24	0.007576
1687.88	0.011596
1697.53	0.018276
1707.17	0.026956
1716.82	0.054626
1726.46	0.081506
1736.11	0.044496
1745.75	0.019666
1755.4	0.012736
1765.04	0.007326
1774.69	0.004536
1784.33	0.003326
1793.98	0.002576
1803.62	0.002286
1813.27	0.002116
1822.91	0.001736
1832.55	0.001416
1842.2	0.001336
1851.84	0.001496
1861.49	0.001466
1871.13	0.001296
1880.78	0.001576
1890.42	0.001386
1900.07	0.0010207
1909.71	0.0008758
1919.36	0.0011157
1929	0.001436
1938.65	0.001326
1948.29	0.001216
1957.94	0.0010153
1967.58	0.000723
1977.23	0.0007377
1986.87	0.0006518
1996.52	0.000649
2006.16	0.0006356
2015.81	0.000598
2025.45	0.0005231
2035.1	0.0006788
2044.74	0.0006529
2054.38	0.0006124
2064.03	0.0007215
2073.67	0.0007705
2083.32	0.0011591
2092.96	0.0010245
2102.61	0.0008274
2112.25	0.0006335
2121.9	0.0005439
2131.54	0.0006209
2141.19	0.0006796
2150.83	0.0006011
2160.48	0.0005751
2170.12	0.0006698
2179.77	0.0006513
2189.41	0.0006284
2199.06	0.0006367
2208.7	0.0007115
2218.35	0.000648
2227.99	0.0007573
2237.64	0.0008548
2247.28	0.0008842
2256.92	0.000916
2266.57	0.0008856
2276.21	0.0010399
2285.86	0.0009343
2295.5	0.0009324
2305.15	0.0008328
2314.79	0.0007856
2324.44	0.0007732
2334.08	0.0009219
2343.73	0.0010035
2353.37	0.0009333
2363.02	0.0008819
2372.66	0.0008435
2382.31	0.0008851
2391.95	0.0008175
2401.6	0.0008099
2411.24	0.0006958
2420.89	0.0006793
2430.53	0.0006134
2440.18	0.0006092
2449.82	0.000704
2459.47	0.0005939
2469.11	0.0005885
2478.75	0.0007145
2488.4	0.0006285
2498.04	0.0006342
2507.69	0.0008475
2517.33	0.0007985
2526.98	0.0007198
2536.62	0.0007281
2546.27	0.0005252
2555.91	0.000613
2565.56	0.0006137
2575.2	0.0006594
2584.85	0.0006237
2594.49	0.0006164
2604.14	0.0006473
2613.78	0.0004309
2623.43	0.0005204
2633.07	0.0005384
2642.72	0.0006539
2652.36	0.0008538
2662.01	0.000942
2671.65	0.0007385
2681.29	0.0005777
2690.94	0.0004026
2700.58	0.0005407
2710.23	0.0004478
2719.87	0.0005998
2729.52	0.0006289
2739.16	0.0009069
2748.81	0.0008314
2758.45	0.0008103
2768.1	0.0008291
2777.74	0.0007738
2787.39	0.0007458
2797.03	0.0007044
2806.68	0.0008463
2816.32	0.001018
2825.97	0.001256
2835.61	0.001386
2845.26	0.001736
2854.9	0.002476
2864.55	0.003756
2874.19	0.006506
2883.84	0.010346
2893.48	0.011436
2903.12	0.012286
2912.77	0.011286
2922.41	0.011116
2932.06	0.012656
2941.7	0.015206
2951.35	0.016666
2960.99	0.020206
2970.64	0.032266
2980.28	0.035366
2989.93	0.017706
2999.57	0.008686
3009.22	0.005056
3018.86	0.003736
3028.51	0.003576
3038.15	0.003686
3047.8	0.004246
3057.44	0.003906
3067.09	0.003816
3076.73	0.003526
3086.38	0.003766
3096.02	0.003616
3105.67	0.003106
3115.31	0.002436
3124.95	0.002016
3134.6	0.001536
3144.24	0.001286
3153.89	0.001166
3163.53	0.0010754
3173.18	0.0009735
3182.82	0.000911
3192.47	0.000797
3202.11	0.0008154
3211.76	0.0006714
3221.4	0.0004153
3231.05	0.0005456
3240.69	0.0004527
3250.34	0.00025768
3259.98	0.0001105
3269.63	0.00024437
3279.27	0.0003408
3288.92	0.00022868
3298.56	0.000169199
3308.21	0.00020278
3317.85	8.71e-05
3327.49	0.00019562
3337.14	0.0003484
3346.78	0.0002892
3356.43	0.000426
3366.07	0.00024276
3375.72	0.0005358
3385.36	0.0004808
3395.01	0.0008799
3404.65	0.001326
3414.3	0.001626
3423.94	0.001846
3433.59	0.002936
3443.23	0.004426
3452.88	0.006716
3462.52	0.009376
3472.17	0.006236
3481.81	0.002726
3491.46	0.001516
3501.1	0.0009069
3510.75	0.0006739
3520.39	0.0004455
3530.04	0.0003582
3539.68	0.0002212
3549.32	0.000306
3558.97	0.0003044
3568.61	0.00018248
3578.26	0.00020462
3587.9	0.0001537
3597.55	0.000165426
3607.19	0.00023341
3616.84	6.1e-05
3626.48	0.00024895
3636.13	0.0002773
3645.77	0.0002888
3655.42	0.0004332
3665.06	0.0002769
3674.71	0.00018866
3684.35	0.0003318
3694	0.0001288
3703.64	0.0001544
3713.29	0.0004118
3722.93	0.0004969
3732.58	0.0001275
3742.22	0.0002266
3751.86	0.0003856
3761.51	0.00024891
3771.15	0.0003452
3780.8	0.0003654
3790.44	0.0003382
3800.09	0.00021838
3809.73	0.00022649
3819.38	0.0003243
3829.02	0.0004795
3838.67	0.0004308
3848.31	0.000169046
3857.96	0.0004188
3867.6	0.0003658
3877.25	0.0002713
3886.89	0.00017815
3896.54	0.0003649
3906.18	0.0001243
3915.83	0.00018943
3925.47	0.0004578
3935.12	0.00025292
3944.76	0.00020971
3954.41	0.0003986
3964.05	0.0004045
3973.69	0.0003413
3983.34	0.0004356
3992.98	0.0003405
