Infrared Spectrum: cis-4-Decene
Formula: C 10 H 20
CAS: 19398-88-0
State: gas
Instrument: HP-GC/MS/IRD
Origin: NIST Mass Spectrometry Data Center
1/CM	ABSORBANCE
550	0.0001715
562	0.000161
574	0.000259
586	0.000245
598	7e-05
610	9.45e-05
622	0.00014
634	8.4e-05
646	6.3e-05
658	0.000112
670	9.45e-05
682	2.1e-05
694	0.000182
706	0.000294
718	0.000378
730	0.0005355
742	0.000567
754	0.0004725
766	0.000476
778	0.000469
790	0.000364
802	0.000224
814	0.0001505
826	0.000196
838	0.0002485
850	0.0002485
862	0.0003185
874	0.0003465
886	0.000427
898	0.000546
910	0.000504
922	0.000637
934	0.0008925
946	0.0019005
958	0.0040215
970	0.0047425
982	0.0026635
994	0.001309
1006	0.000875
1018	0.000623
1030	0.000539
1042	0.0005635
1054	0.000707
1066	0.0009065
1078	0.000826
1090	0.0007735
1102	0.0007245
1114	0.000504
1126	0.000336
1138	0.0002485
1150	0.000189
1162	0.000196
1174	0.0002135
1186	0.000266
1198	0.000252
1210	0.000301
1222	0.0003465
1234	0.0003465
1246	0.000378
1258	0.000511
1270	0.000686
1282	0.000763
1294	0.0007665
1306	0.0008505
1318	0.000875
1330	0.001106
1342	0.001421
1354	0.0011795
1366	0.001064
1378	0.001414
1390	0.00133
1402	0.000868
1414	0.0008575
1426	0.001218
1438	0.0022085
1450	0.003192
1462	0.003535
1474	0.002527
1486	0.0012915
1498	0.000728
1510	0.0004725
1522	0.0003395
1534	0.0002625
1546	0.000182
1558	0.00021
1570	0.000175
1582	0.000161
1594	0.000147
1606	0.0001505
1618	0.0001365
1630	0.000126
1642	0.000133
1654	0.000154
1666	0.0001365
1678	0.0001435
1690	0.00014
1702	0.0001575
1714	0.000147
1726	0.0001575
1738	0.0001715
1750	0.0001645
1762	0.000147
1774	9.1e-05
1786	8.75e-05
1798	9.8e-05
1810	8.4e-05
1822	8.75e-05
1834	9.45e-05
1846	8.4e-05
1858	6.65e-05
1870	7e-05
1882	2.45e-05
1894	2.8e-05
1906	4.2e-05
1918	3.15e-05
1930	2.1e-05
1942	3.5e-05
1954	3.15e-05
1966	2.8e-05
1978	3.5e-05
1990	1.4e-05
2002	1.75e-05
2014	3.5e-05
2026	6.3e-05
2038	7.35e-05
2050	3.5e-05
2062	4.9e-05
2074	3.85e-05
2086	1.75e-05
2098	1.75e-05
2110	3.85e-05
2122	3.85e-05
2134	3.5e-05
2146	3.15e-05
2158	1.75e-05
2170	3.85e-05
2182	2.8e-05
2194	3.5e-05
2206	3.5e-05
2218	2.8e-05
2230	3.15e-05
2242	3.5e-05
2254	1.05e-05
2266	4.2e-05
2278	4.55e-05
2290	4.2e-05
2302	3.5e-05
2314	4.55e-05
2326	7.35e-05
2338	7.35e-05
2350	9.8e-05
2362	7.7e-05
2374	7.35e-05
2386	7e-05
2398	5.95e-05
2410	6.65e-05
2422	6.3e-05
2434	5.95e-05
2446	4.55e-05
2458	4.55e-05
2470	3.15e-05
2482	4.55e-05
2494	4.2e-05
2506	3.85e-05
2518	8.4e-05
2530	0.0001225
2542	0.000112
2554	0.0001085
2566	0.0001505
2578	0.0001645
2590	0.0001645
2602	0.0001575
2614	0.0001855
2626	0.0002205
2638	0.000245
2650	0.0002695
2662	0.000336
2674	0.000392
2686	0.0003745
2698	0.000322
2710	0.0003465
2722	0.000406
2734	0.000525
2746	0.0005985
2758	0.0006055
2770	0.0006895
2782	0.0008295
2794	0.001092
2806	0.0014245
2818	0.0019565
2830	0.003052
2842	0.0057645
2854	0.010101
2866	0.0131775
2878	0.0142835
2890	0.013398
2902	0.0144165
2914	0.020909
2926	0.031451
2938	0.0340025
2950	0.025354
2962	0.0244265
2974	0.022414
2986	0.011424
2998	0.006678
3010	0.004816
3022	0.0039445
3034	0.002975
3046	0.0019985
3058	0.0013545
3070	0.001071
3082	0.000861
3094	0.0006825
3106	0.000595
3118	0.0004935
3130	0.0004515
3142	0.0003745
3154	0.00035
3166	0.0003255
3178	0.00028
3190	0.000238
3202	0.000231
3214	0.0001645
3226	0.000133
3238	0.000105
3250	0.000105
3262	7e-05
3274	6.3e-05
3286	4.2e-05
3298	4.9e-05
3310	3.85e-05
3322	3.85e-05
3334	6.3e-05
3346	4.9e-05
3358	7e-05
3370	3.5e-05
3382	8.05e-05
3394	3.15e-05
3406	7e-05
3418	6.65e-05
3430	2.45e-05
3442	0
3454	5.25e-05
3466	0
3478	2.8e-05
3490	3.15e-05
3502	2.1e-05
3514	1.05e-05
3526	4.2e-05
3538	1.4e-05
3550	2.45e-05
3562	1.4e-05
3574	4.2e-05
3586	5.95e-05
3598	4.55e-05
3610	8.4e-05
3622	7.7e-05
3634	0.000119
3646	0.000133
3658	0.000105
3670	7.35e-05
3682	0.0001155
3694	9.1e-05
3706	0.0001505
3718	0.000119
3730	0.0001155
3742	0.0001575
3754	0.0001645
3766	0.0001435
3778	0.0001505
3790	0.0001715
3802	0.000154
3814	0.000126
3826	0.000175
3838	0.000168
