Infrared Spectrum: 2-Biphenylisothiocyanate
Formula: C 13 H 9 N S
CAS: 19394-61-7
State: gas
Origin: EPA-IR VAPOR PHASE LIBRARY
1/CM	ABSORBANCE
551.7	0.022905
563.274	0.015695
574.848	0.011005
586.421	0.007845
597.995	0.005705
609.569	0.006605
621.143	0.006725
632.717	0.003995
644.291	0.005085
655.864	0.008095
667.438	0.014415
679.012	0.025175
690.586	0.037055
702.16	0.044635
713.734	0.016375
725.307	0.015945
736.881	0.030175
748.455	0.105655
760.029	0.057795
771.603	0.015855
783.177	0.007115
794.75	0.005635
806.324	0.003685
817.898	0.002345
829.472	0.002505
841.046	0.003545
852.619	0.003395
864.193	0.002585
875.767	0.002265
887.341	0.002985
898.915	0.005425
910.489	0.010595
922.062	0.019505
933.636	0.028865
945.21	0.028745
956.784	0.018525
968.358	0.009635
979.932	0.005545
991.505	0.004885
1003.08	0.010525
1014.65	0.011365
1026.23	0.003185
1037.8	0.002615
1049.37	0.003815
1060.95	0.003705
1072.52	0.005145
1084.1	0.002285
1095.67	0.001985
1107.24	0.003955
1118.82	0.003565
1130.39	0.0013007
1141.97	0.001206
1153.54	0.001243
1165.11	0.001128
1176.69	0.001845
1188.26	0.002195
1199.83	0.001995
1211.41	0.002275
1222.98	0.003215
1234.56	0.005105
1246.13	0.005795
1257.7	0.007695
1269.28	0.008705
1280.85	0.006675
1292.42	0.003675
1304	0.002665
1315.57	0.002055
1327.15	0.002085
1338.72	0.001595
1350.29	0.001365
1361.87	0.001435
1373.44	0.002035
1385.02	0.002415
1396.59	0.003025
1408.16	0.005125
1419.74	0.008835
1431.31	0.017645
1442.88	0.020995
1454.46	0.014655
1466.03	0.026745
1477.61	0.052415
1489.18	0.018125
1500.75	0.012965
1512.33	0.007055
1523.9	0.004925
1535.48	0.004815
1547.05	0.004995
1558.62	0.009225
1570.2	0.017925
1581.77	0.017455
1593.34	0.022215
1604.92	0.016285
1616.49	0.007615
1628.07	0.004225
1639.64	0.002995
1651.21	0.002785
1662.79	0.002995
1674.36	0.003435
1685.93	0.004255
1697.51	0.003965
1709.08	0.003205
1720.66	0.003865
1732.23	0.003535
1743.8	0.003455
1755.38	0.003185
1766.95	0.003265
1778.53	0.003855
1790.1	0.005465
1801.67	0.007005
1813.25	0.005365
1824.82	0.005435
1836.39	0.005815
1847.97	0.005575
1859.54	0.006635
1871.12	0.008515
1882.69	0.009935
1894.26	0.009835
1905.84	0.011695
1917.41	0.014645
1928.99	0.017405
1940.56	0.025965
1952.13	0.033595
1963.71	0.043185
1975.28	0.059805
1986.85	0.085575
1998.43	0.121905
2010	0.170385
2021.58	0.231245
2033.15	0.300495
2044.72	0.359135
2056.3	0.378225
2067.87	0.347585
2079.44	0.309165
2091.02	0.312585
2102.59	0.282825
2114.17	0.201155
2125.74	0.148735
2137.31	0.120555
2148.89	0.091725
2160.46	0.071935
2172.04	0.059005
2183.61	0.047085
2195.18	0.035845
2206.76	0.026405
2218.33	0.017835
2229.9	0.011105
2241.48	0.007365
2253.05	0.005425
2264.63	0.004275
2276.2	0.003635
2287.77	0.003085
2299.35	0.002835
2310.92	0.003335
2322.5	0.003595
2334.07	0.003405
2345.64	0.003455
2357.22	0.003115
2368.79	0.003175
2380.36	0.002915
2391.94	0.002535
2403.51	0.002375
2415.09	0.002505
2426.66	0.002605
2438.23	0.002865
2449.81	0.003495
2461.38	0.004005
2472.96	0.004195
2484.53	0.004235
2496.1	0.004615
2507.68	0.004585
2519.25	0.004525
2530.82	0.004565
2542.4	0.004695
2553.97	0.004745
2565.55	0.005025
2577.12	0.005195
2588.69	0.005195
2600.27	0.004335
2611.84	0.003025
2623.41	0.002115
2634.99	0.001705
2646.56	0.001415
2658.14	0.0012818
2669.71	0.0012557
2681.28	0.001355
2692.86	0.001585
2704.43	0.001945
2716.01	0.002365
2727.58	0.002915
2739.15	0.003395
2750.73	0.003405
2762.3	0.002985
2773.87	0.002775
2785.45	0.002515
2797.02	0.002145
2808.6	0.001715
2820.17	0.001545
2831.74	0.001445
2843.32	0.001465
2854.89	0.001395
2866.47	0.001405
2878.04	0.001455
2889.61	0.001405
2901.19	0.001267
2912.76	0.0012231
2924.33	0.0012072
2935.91	0.001425
2947.48	0.001645
2959.06	0.001985
2970.63	0.002305
2982.2	0.002815
2993.78	0.003415
3005.35	0.004615
3016.92	0.008905
3028.5	0.018405
3040.07	0.020935
3051.65	0.017725
3063.22	0.034135
3074.79	0.046555
3086.37	0.028045
3097.94	0.014075
3109.52	0.007455
3121.09	0.004425
3132.66	0.002925
3144.24	0.002205
3155.81	0.001405
3167.38	0.0007359
3178.96	0.000497
3190.53	0.000301
3202.11	0.0003407
3213.68	0.0002206
3225.25	8.1e-05
3236.83	0.000143
3248.4	7.6e-05
3259.98	0.000158
3271.55	8.8e-05
3283.12	6.7e-05
3294.7	0
3306.27	0.000115
3317.84	0.000139
3329.42	0.000117
3340.99	0.000139
3352.57	0.000207
3364.14	0.000107
3375.71	0.0002459
3387.29	0.0003669
3398.86	0.000174
3410.43	0.000145
3422.01	0.00038675
3433.58	0.00035789
3445.16	0.0002911
3456.73	0.00031793
3468.3	0.0002734
3479.88	0.0004648
3491.45	0.0005117
3503.03	0.00032301
3514.6	0.00031884
3526.17	0.0002417
3537.75	0.0004416
3549.32	0.0005664
3560.89	0.0004248
3572.47	0.000218
3584.04	0.00033697
3595.62	0.00036527
3607.19	0.000405
3618.76	0.0005625
3630.34	0.0006505
3641.91	0.0006936
3653.49	0.0007001
3665.06	0.000723
3676.63	0.0007641
3688.21	0.0007936
3699.78	0.000918
3711.35	0.000735
3722.93	0.0006912
3734.5	0.0005575
3746.08	0.0006439
3757.65	0.0007094
3769.22	0.0005571
3780.8	0.0007026
3792.37	0.0007929
3803.94	0.0009402
3815.52	0.0010282
3827.09	0.0009749
3838.67	0.0008722
3850.24	0.0007849
3861.81	0.0007622
3873.39	0.0006845
3884.96	0.0009976
3896.54	0.0008405
3908.11	0.0007326
3919.68	0.0012224
3931.26	0.0009741
3942.83	0.0011074
3954.4	0.0011553
3965.98	0.0011333
3977.55	0.0013008
3989.13	0.001485
4000.7	0.001605
