Infrared Spectrum: cis-3-Decene
Formula: C 10 H 20
CAS: 19398-86-8
State: gas
Instrument: HP-GC/MS/IRD
Origin: NIST Mass Spectrometry Data Center
1/CM	ABSORBANCE
550	0.0003456
562	4.32e-05
574	0.0001152
586	0.0003528
598	0.000234
610	7.56e-05
622	0.000126
634	0.0001044
646	0.0002952
658	0.0005148
670	0.0008892
682	0.0013284
694	0.0019548
706	0.002412
718	0.0023544
730	0.0018828
742	0.0012276
754	0.0008568
766	0.0006192
778	0.0004968
790	0.0003888
802	0.00036
814	0.0002556
826	0.0002124
838	0.0001584
850	0.0002736
862	0.000342
874	0.0003312
886	0.0003168
898	0.0001908
910	0.000216
922	0.0002484
934	0.0002376
946	0.0001836
958	0.0002664
970	0.0002556
982	0.0002052
994	0.0001944
1006	0.0002376
1018	0.000342
1030	0.000342
1042	0.000342
1054	0.0003852
1066	0.0005616
1078	0.0005004
1090	0.0003672
1102	0.0002268
1114	0.0002232
1126	0.0001476
1138	0.0001296
1150	5.4e-05
1162	2.16e-05
1174	7.92e-05
1186	0.0001188
1198	0.0001008
1210	9.72e-05
1222	0.0001332
1234	0.000144
1246	0.00027
1258	0.0003672
1270	0.0005652
1282	0.000648
1294	0.001026
1306	0.0013644
1318	0.0008892
1330	0.0007092
1342	0.0008496
1354	0.000936
1366	0.0008388
1378	0.0010692
1390	0.001134
1402	0.0013068
1414	0.0011124
1426	0.0010764
1438	0.0017856
1450	0.002988
1462	0.0037224
1474	0.0027612
1486	0.0013932
1498	0.0007164
1510	0.0003456
1522	0.000234
1534	0.0001512
1546	8.64e-05
1558	1.8e-05
1570	9.72e-05
1582	0.0001404
1594	0.000144
1606	0.0001836
1618	0.0001944
1630	0.0002844
1642	0.000432
1654	0.0004536
1666	0.0003924
1678	0.0003204
1690	0.0002556
1702	0.0001584
1714	0.0001188
1726	0.0001116
1738	6.12e-05
1750	3.96e-05
1762	8.28e-05
1774	4.68e-05
1786	5.04e-05
1798	5.04e-05
1810	5.76e-05
1822	5.4e-05
1834	3.96e-05
1846	3.24e-05
1858	4.32e-05
1870	2.52e-05
1882	2.52e-05
1894	3.96e-05
1906	5.04e-05
1918	2.52e-05
1930	4.68e-05
1942	5.4e-05
1954	5.04e-05
1966	5.4e-05
1978	5.04e-05
1990	5.04e-05
2002	5.4e-05
2014	6.12e-05
2026	7.92e-05
2038	0.0001152
2050	7.92e-05
2062	7.56e-05
2074	7.2e-05
2086	2.88e-05
2098	4.32e-05
2110	2.52e-05
2122	4.32e-05
2134	3.24e-05
2146	4.68e-05
2158	3.96e-05
2170	3.96e-05
2182	5.76e-05
2194	5.4e-05
2206	3.96e-05
2218	3.6e-05
2230	2.52e-05
2242	4.68e-05
2254	5.76e-05
2266	6.12e-05
2278	6.48e-05
2290	6.84e-05
2302	5.4e-05
2314	7.56e-05
2326	8.28e-05
2338	0.0001044
2350	7.56e-05
2362	0.0001044
2374	9e-05
2386	6.84e-05
2398	6.48e-05
2410	6.12e-05
2422	5.4e-05
2434	7.56e-05
2446	8.28e-05
2458	5.04e-05
2470	9.36e-05
2482	7.2e-05
2494	5.76e-05
2506	9.36e-05
2518	0.0001044
2530	0.0001188
2542	0.000126
2554	0.0001476
2566	0.0001656
2578	0.0001944
2590	0.0001728
2602	0.0002052
2614	0.0001872
2626	0.0002304
2638	0.000288
2650	0.000306
2662	0.0003636
2674	0.0004104
2686	0.0003708
2698	0.000378
2710	0.0004248
2722	0.000486
2734	0.0006012
2746	0.0006876
2758	0.0006948
2770	0.000756
2782	0.0009108
2794	0.0011268
2806	0.0014652
2818	0.0019944
2830	0.0029916
2842	0.0051984
2854	0.0101952
2866	0.0146772
2878	0.0150984
2890	0.0143028
2902	0.01467
2914	0.0205812
2926	0.031806
2938	0.0354348
2950	0.0269604
2962	0.0252288
2974	0.0234684
2986	0.0125496
2998	0.008712
3010	0.0098064
3022	0.0071856
3034	0.0034308
3046	0.001926
3058	0.0014688
3070	0.0012096
3082	0.000972
3094	0.000792
3106	0.0006768
3118	0.00063
3130	0.0005616
3142	0.0004428
3154	0.0004068
3166	0.0003852
3178	0.0003708
3190	0.0003096
3202	0.0002232
3214	0.000216
3226	0.0001872
3238	0.0001584
3250	0.0001008
3262	0.000126
3274	0.0001224
3286	0.0001224
3298	0.0001116
3310	9.72e-05
3322	0.0001512
3334	7.92e-05
3346	8.28e-05
3358	0.000108
3370	8.28e-05
3382	7.56e-05
3394	8.28e-05
3406	6.12e-05
3418	7.56e-05
3430	9.72e-05
3442	6.84e-05
3454	6.12e-05
3466	9.36e-05
3478	7.2e-05
3490	8.64e-05
3502	0.0001044
3514	0.000108
3526	3.96e-05
3538	0.000108
3550	6.48e-05
3562	6.48e-05
3574	0.0001224
3586	2.16e-05
3598	0.0001116
3610	7.2e-05
3622	0.0001548
3634	0.0001296
3646	0.000126
3658	0.000144
3670	0.0001584
3682	0.000162
3694	0.000144
3706	0.0001368
3718	0.0001476
3730	0.000108
3742	0.0001296
3754	0.00018
3766	0.00018
3778	0.0001836
3790	0.0001764
3802	0.0001692
3814	0.0001584
3826	0.0001908
3838	0.0001692
