Infrared Spectrum: N-(3-Trifluoromethylphenyl)-2-methylbenzamide
Formula: C 15 H 12 F 3 N O
CAS: 1939-22-6
State: gas
Origin: EPA-IR VAPOR PHASE LIBRARY
1/CM	ABSORBANCE
551.7	0.00765
563.274	0.0065
574.848	0.00483
586.421	0.00689
597.995	0.01558
609.569	0.00453
621.143	0.00314
632.717	0.00338
644.291	0.00477
655.864	0.01439
667.438	0.00664
679.012	0.00507
690.586	0.01479
702.16	0.0158
713.734	0.00756
725.307	0.01479
736.881	0.02707
748.455	0.0156
760.029	0.00734
771.603	0.00829
783.177	0.01691
794.75	0.01842
806.324	0.00542
817.898	0.00273
829.472	0.00242
841.046	0.00257
852.619	0.00297
864.193	0.00597
875.767	0.01059
887.341	0.0095
898.915	0.01132
910.489	0.01148
922.062	0.00813
933.636	0.00546
945.21	0.0052
956.784	0.00337
968.358	0.00333
979.932	0.00325
991.505	0.00342
1003.08	0.00422
1014.65	0.00432
1026.23	0.00605
1037.8	0.01055
1049.37	0.01749
1060.95	0.03589
1072.52	0.05829
1084.1	0.04364
1095.67	0.03391
1107.24	0.02204
1118.82	0.02426
1130.39	0.05538
1141.97	0.11955
1153.54	0.10713
1165.11	0.06434
1176.69	0.09689
1188.26	0.05681
1199.83	0.02401
1211.41	0.02561
1222.98	0.04444
1234.56	0.06157
1246.13	0.04013
1257.7	0.02248
1269.28	0.02387
1280.85	0.03331
1292.42	0.05089
1304	0.06992
1315.57	0.07599
1327.15	0.2014
1338.72	0.11537
1350.29	0.02276
1361.87	0.01177
1373.44	0.0092
1385.02	0.01011
1396.59	0.01305
1408.16	0.02417
1419.74	0.04684
1431.31	0.08646
1442.88	0.05757
1454.46	0.02794
1466.03	0.02911
1477.61	0.05105
1489.18	0.08278
1500.75	0.06007
1512.33	0.08113
1523.9	0.09519
1535.48	0.04472
1547.05	0.0227
1558.62	0.01466
1570.2	0.01272
1581.77	0.01586
1593.34	0.02252
1604.92	0.02344
1616.49	0.02001
1628.07	0.00976
1639.64	0.0059
1651.21	0.0057
1662.79	0.00701
1674.36	0.00976
1685.93	0.01516
1697.51	0.03412
1709.08	0.08146
1720.66	0.0597
1732.23	0.02061
1743.8	0.01177
1755.38	0.00774
1766.95	0.00534
1778.53	0.00408
1790.1	0.00351
1801.67	0.00321
1813.25	0.00249
1824.82	0.00198
1836.39	0.00189
1847.97	0.00161
1859.54	0.00148
1871.12	0.0015
1882.69	0.00182
1894.26	0.00154
1905.84	0.00152
1917.41	0.00218
1928.99	0.00197
1940.56	0.00191
1952.13	0.00212
1963.71	0.00119
1975.28	0.0008705
1986.85	0.0007731
1998.43	0.0006777
2010	0.0006094
2021.58	0.0005891
2033.15	0.000636
2044.72	0.000606
2056.3	0.0006037
2067.87	0.0007898
2079.44	0.0009631
2091.02	0.0008124
2102.59	0.0008354
2114.17	0.0008243
2125.74	0.0007839
2137.31	0.0007553
2148.89	0.0006987
2160.46	0.0007121
2172.04	0.0007523
2183.61	0.0008186
2195.18	0.0008273
2206.76	0.0007853
2218.33	0.0007751
2229.9	0.0007055
2241.48	0.0006921
2253.05	0.0007276
2264.63	0.0008708
2276.2	0.0009915
2287.77	0.0009263
2299.35	0.0008622
2310.92	0.0008334
2322.5	0.0009798
2334.07	0.0009478
2345.64	0.00108
2357.22	0.000998
2368.79	0.0008885
2380.36	0.0008162
2391.94	0.0008187
2403.51	0.0007799
2415.09	0.0007732
2426.66	0.0006929
2438.23	0.0006993
2449.81	0.0006476
2461.38	0.0006537
2472.96	0.000669
2484.53	0.0007158
2496.1	0.0007533
2507.68	0.0008373
2519.25	0.0008421
2530.82	0.000676
2542.4	0.0006011
2553.97	0.0006727
2565.55	0.0006707
2577.12	0.000681
2588.69	0.000668
2600.27	0.0006224
2611.84	0.0006227
2623.41	0.0005466
2634.99	0.0006091
2646.56	0.000705
2658.14	0.0008428
2669.71	0.000538
2681.28	0.000442
2692.86	0.0004051
2704.43	0.0005189
2716.01	0.0005408
2727.58	0.000522
2739.15	0.0006419
2750.73	0.0007412
2762.3	0.0006637
2773.87	0.0006005
2785.45	0.0004814
2797.02	0.0005187
2808.6	0.0005611
2820.17	0.0006892
2831.74	0.0008617
2843.32	0.00109
2854.89	0.00154
2866.47	0.00222
2878.04	0.00287
2889.61	0.00283
2901.19	0.00283
2912.76	0.00327
2924.33	0.00437
2935.91	0.00598
2947.48	0.00556
2959.06	0.00454
2970.63	0.00439
2982.2	0.00438
2993.78	0.00405
3005.35	0.00409
3016.92	0.00683
3028.5	0.00987
3040.07	0.00773
3051.65	0.00817
3063.22	0.01156
3074.79	0.01438
3086.37	0.0091
3097.94	0.0061
3109.52	0.00385
3121.09	0.00243
3132.66	0.00165
3144.24	0.00121
3155.81	0.0009272
3167.38	0.000703
3178.96	0.0006459
3190.53	0.0003639
3202.11	0.0003767
3213.68	0.0003604
3225.25	0.0003184
3236.83	0.000339
3248.4	0.0002493
3259.98	0.0001867
3271.55	0.0003083
3283.12	0.0002239
3294.7	0.0003046
3306.27	0.0002542
3317.84	0.0003554
3329.42	0.0002695
3340.99	0.0002729
3352.57	0.0003196
3364.14	0.0004013
3375.71	0.0005801
3387.29	0.00105
3398.86	0.0018
3410.43	0.00288
3422.01	0.00232
3433.58	0.00269
3445.16	0.00545
3456.73	0.00829
3468.3	0.00323
3479.88	0.00128
3491.45	0.0008098
3503.03	0.000616
3514.6	0.0004871
3526.17	0.0003981
3537.75	0.0001904
3549.32	0.0002068
3560.89	0.0002937
3572.47	0.0002823
3584.04	0.0002077
3595.62	0.0002006
3607.19	0.0001293
3618.76	0.0001456
3630.34	0.0001917
3641.91	0.000199
3653.49	0.0002094
3665.06	0.0002355
3676.63	0.0002421
3688.21	0.0002408
3699.78	0.0002568
3711.35	0.0001992
3722.93	0.000274
3734.5	0.0001626
3746.08	0.0001694
3757.65	0.0002603
3769.22	0.0002496
3780.8	0.0002147
3792.37	0.0001953
3803.94	0.0001729
3815.52	0.0001979
3827.09	0.0002402
3838.67	0.0001482
3850.24	0.0002987
3861.81	0.000348
3873.39	0.0003196
3884.96	0.0002644
3896.54	0.0001642
3908.11	0.0004348
3919.68	0.0001907
3931.26	0.0004635
3942.83	0.0002852
3954.4	0.0002316
3965.98	0.0004113
3977.55	0.0003776
3989.13	0.0003189
4000.7	0.0003689
