Infrared Spectrum: 2,2,2-Trichloro-3'-trifluoromethylacetanilide
Formula: C 9 H 5 Cl 3 F 3 N O
CAS: 1939-29-3
State: gas
Origin: EPA-IR VAPOR PHASE LIBRARY
1/CM	ABSORBANCE
549.8	0.013746
559.445	0.029806
569.09	0.045086
578.734	0.014956
588.379	0.009166
598.024	0.004316
607.669	0.003316
617.313	0.003426
626.958	0.004576
636.603	0.006806
646.248	0.011706
655.893	0.040066
665.537	0.037206
675.182	0.034896
684.827	0.029316
694.472	0.049356
704.116	0.028056
713.761	0.008426
723.406	0.005776
733.051	0.010356
742.695	0.013246
752.34	0.007666
761.985	0.009976
771.63	0.018266
781.275	0.036716
790.919	0.056116
800.564	0.065826
810.209	0.078356
819.854	0.085546
829.498	0.071366
839.143	0.063566
848.788	0.037606
858.433	0.022226
868.078	0.020676
877.722	0.024756
887.367	0.027816
897.012	0.037436
906.657	0.031476
916.301	0.029606
925.946	0.033906
935.591	0.017036
945.236	0.011866
954.88	0.012546
964.525	0.015496
974.17	0.012386
983.815	0.006656
993.46	0.005486
1003.1	0.007926
1012.75	0.005326
1022.39	0.004806
1032.04	0.005076
1041.68	0.005946
1051.33	0.008686
1060.97	0.023086
1070.62	0.052326
1080.26	0.042906
1089.91	0.034456
1099.55	0.044666
1109.2	0.022526
1118.84	0.023536
1128.49	0.043706
1138.13	0.118296
1147.78	0.253886
1157.42	0.213316
1167.07	0.164566
1176.71	0.262226
1186.36	0.170886
1196	0.054206
1205.64	0.026096
1215.29	0.026086
1224.93	0.040806
1234.58	0.045356
1244.22	0.031576
1253.87	0.021266
1263.51	0.018306
1273.16	0.023276
1282.8	0.031456
1292.45	0.042356
1302.09	0.064376
1311.74	0.091536
1321.38	0.194416
1331.03	0.431806
1340.67	0.130086
1350.32	0.027386
1359.96	0.013846
1369.61	0.010636
1379.25	0.009306
1388.9	0.009566
1398.54	0.009916
1408.18	0.012906
1417.83	0.022596
1427.47	0.037306
1437.12	0.077216
1446.76	0.131056
1456.41	0.052846
1466.05	0.033156
1475.7	0.040876
1485.34	0.076216
1494.99	0.107746
1504.63	0.073546
1514.28	0.088486
1523.92	0.129736
1533.57	0.183126
1543.21	0.144316
1552.86	0.062576
1562.5	0.033766
1572.15	0.023686
1581.79	0.023206
1591.44	0.031796
1601.08	0.039206
1610.73	0.038116
1620.37	0.031896
1630.01	0.012466
1639.66	0.007776
1649.3	0.006156
1658.95	0.005776
1668.59	0.005646
1678.24	0.005556
1687.88	0.006286
1697.53	0.007776
1707.17	0.011226
1716.82	0.016186
1726.46	0.029106
1736.11	0.057996
1745.75	0.112206
1755.4	0.137566
1765.04	0.071246
1774.69	0.029876
1784.33	0.015866
1793.98	0.010216
1803.62	0.006896
1813.27	0.004756
1822.91	0.003716
1832.55	0.002786
1842.2	0.002146
1851.84	0.001926
1861.49	0.002256
1871.13	0.002386
1880.78	0.002706
1890.42	0.002756
1900.07	0.001796
1909.71	0.001636
1919.36	0.001566
1929	0.001726
1938.65	0.001976
1948.29	0.001826
1957.94	0.001636
1967.58	0.0011815
1977.23	0.0009048
1986.87	0.0007511
1996.52	0.0007237
2006.16	0.0006608
2015.81	0.0006966
2025.45	0.000706
2035.1	0.0007161
2044.74	0.0009063
2054.38	0.0010454
2064.03	0.001366
2073.67	0.001196
2083.32	0.0008836
2092.96	0.0007759
2102.61	0.0007909
2112.25	0.000908
2121.9	0.0009623
2131.54	0.0009806
2141.19	0.0009618
2150.83	0.0009634
2160.48	0.0007806
2170.12	0.0007675
2179.77	0.0008395
2189.41	0.0008208
2199.06	0.0008575
2208.7	0.0008824
2218.35	0.0009488
2227.99	0.0008943
2237.64	0.0009118
2247.28	0.0011144
2256.92	0.001306
2266.57	0.001586
2276.21	0.001756
2285.86	0.001606
2295.5	0.001276
2305.15	0.0010211
2314.79	0.0010572
2324.44	0.0011393
2334.08	0.001286
2343.73	0.001606
2353.37	0.001626
2363.02	0.001446
2372.66	0.001236
2382.31	0.0010919
2391.95	0.001236
2401.6	0.001336
2411.24	0.001216
2420.89	0.0010025
2430.53	0.0008543
2440.18	0.0006928
2449.82	0.0007081
2459.47	0.0007365
2469.11	0.0007802
2478.75	0.0008418
2488.4	0.0008371
2498.04	0.0008533
2507.69	0.0008592
2517.33	0.0007443
2526.98	0.0007186
2536.62	0.0006911
2546.27	0.0006089
2555.91	0.0005223
2565.56	0.0005705
2575.2	0.0004336
2584.85	0.0005129
2594.49	0.0006333
2604.14	0.0007142
2613.78	0.0008465
2623.43	0.0007776
2633.07	0.0006517
2642.72	0.0008437
2652.36	0.0010338
2662.01	0.0010921
2671.65	0.0007397
2681.29	0.0007054
2690.94	0.0008255
2700.58	0.0010521
2710.23	0.001296
2719.87	0.0010765
2729.52	0.0005987
2739.16	0.0004525
2748.81	0.0004905
2758.45	0.0004377
2768.1	0.000463
2777.74	0.00028529
2787.39	0.000355
2797.03	0.00021443
2806.68	0.0001563
2816.32	0.00020536
2825.97	0.00021238
2835.61	0.0003073
2845.26	0.00023245
2854.9	0.0003888
2864.55	0.0003733
2874.19	0.0004787
2883.84	0.0005138
2893.48	0.0007315
2903.12	0.0007061
2912.77	0.0009816
2922.41	0.0011387
2932.06	0.001216
2941.7	0.001336
2951.35	0.001226
2960.99	0.0010619
2970.64	0.0008875
2980.28	0.000761
2989.93	0.0007761
2999.57	0.0006915
3009.22	0.00069
3018.86	0.0011762
3028.51	0.002216
3038.15	0.003136
3047.8	0.004026
3057.44	0.004336
3067.09	0.004446
3076.73	0.004276
3086.38	0.004416
3096.02	0.004286
3105.67	0.003206
3115.31	0.002446
3124.95	0.001606
3134.6	0.001206
3144.24	0.0009311
3153.89	0.0007607
3163.53	0.0006768
3173.18	0.0006028
3182.82	0.0006514
3192.47	0.000597
3202.11	0.0004316
3211.76	0.0004414
3221.4	0.0003351
3231.05	0.0003787
3240.69	0.00020272
3250.34	0.0001714
3259.98	0.00026977
3269.63	0.0003565
3279.27	0.00026672
3288.92	0.0003364
3298.56	0.0003091
3308.21	0.0001088
3317.85	0.0004109
3327.49	0.000305
3337.14	0.000346
3346.78	0.0004712
3356.43	0.0006006
3366.07	0.0006471
3375.72	0.0009653
3385.36	0.001536
3395.01	0.002646
3404.65	0.004496
3414.3	0.008506
3423.94	0.016326
3433.59	0.031346
3443.23	0.045336
3452.88	0.015306
3462.52	0.006126
3472.17	0.004076
3481.81	0.003156
3491.46	0.002396
3501.1	0.001366
3510.75	0.0010152
3520.39	0.0006853
3530.04	0.0005257
3539.68	0.0005176
3549.32	0.0003574
3558.97	0.0005068
3568.61	0.00026222
3578.26	0.0004386
3587.9	0.0003432
3597.55	0.0003502
3607.19	0.0003137
3616.84	0.0004948
3626.48	0.0003032
3636.13	0.0003034
3645.77	0.00028286
3655.42	0.0004264
3665.06	0.0004316
3674.71	0.0001146
3684.35	0.0003631
3694	0.00025757
3703.64	0.00024738
3713.29	0.00021722
3722.93	0.00019772
3732.58	0.00028385
3742.22	0.0004438
3751.86	0.0003991
3761.51	0.00025936
3771.15	0.0001302
3780.8	0.00028159
3790.44	0.00023045
3800.09	6.4e-05
3809.73	0.000313
3819.38	0.00026943
3829.02	0.0003817
3838.67	0.00023757
3848.31	0.0003039
3857.96	0.00025049
3867.6	0.00024394
3877.25	0.0003268
3886.89	0.00027911
3896.54	0.0003741
3906.18	0.0001689
3915.83	0.0003026
3925.47	0.00024123
3935.12	0.0006012
3944.76	0.0004271
3954.41	0.0004736
3964.05	0.0003691
3973.69	0.0004749
3983.34	0.0005035
3992.98	0.0004496
