Infrared Spectrum: 3'-Trifluoromethyl-2-phenylacetanilide
Formula: C 15 H 12 F 3 N O
CAS: 1939-21-5
State: gas
Origin: EPA-IR VAPOR PHASE LIBRARY
1/CM	ABSORBANCE
549.8	0.0148319
559.445	0.0099519
569.09	0.0076419
578.734	0.0066919
588.379	0.0056519
598.024	0.0042519
607.669	0.0036119
617.313	0.0034819
626.958	0.0032719
636.603	0.0040419
646.248	0.0084119
655.893	0.0175119
665.537	0.0122719
675.182	0.0117919
684.827	0.0190219
694.472	0.0515119
704.116	0.0530819
713.761	0.0280519
723.406	0.0164619
733.051	0.0129819
742.695	0.0199119
752.34	0.0181319
761.985	0.0058019
771.63	0.0068119
781.275	0.0157019
790.919	0.0285419
800.564	0.0157919
810.209	0.0052619
819.854	0.0043619
829.498	0.0042419
839.143	0.0038619
848.788	0.0040019
858.433	0.0052819
868.078	0.0104019
877.722	0.0148219
887.367	0.0131719
897.012	0.0158019
906.657	0.0170219
916.301	0.0113219
925.946	0.0102319
935.591	0.0112119
945.236	0.0124319
954.88	0.0126319
964.525	0.0105919
974.17	0.0068619
983.815	0.0049719
993.46	0.0051419
1003.1	0.0090419
1012.75	0.0052319
1022.39	0.0065019
1032.04	0.0088219
1041.68	0.0065419
1051.33	0.0102519
1060.97	0.0246319
1070.62	0.0544719
1080.26	0.0396419
1089.91	0.0336219
1099.55	0.0481219
1109.2	0.0350919
1118.84	0.0462419
1128.49	0.0825619
1138.13	0.167852
1147.78	0.235622
1157.42	0.135922
1167.07	0.127752
1176.71	0.165782
1186.36	0.116922
1196	0.0543919
1205.64	0.0460119
1215.29	0.0464419
1224.93	0.0456419
1234.58	0.0493019
1244.22	0.0409319
1253.87	0.0275119
1263.51	0.0239019
1273.16	0.0290019
1282.8	0.0337819
1292.45	0.0421719
1302.09	0.0647119
1311.74	0.0849819
1321.38	0.156062
1331.03	0.360232
1340.67	0.133732
1350.32	0.0322919
1359.96	0.0174819
1369.61	0.0121719
1379.25	0.0100919
1388.9	0.0109519
1398.54	0.0144719
1408.18	0.0246219
1417.83	0.0452819
1427.47	0.0804619
1437.12	0.120402
1446.76	0.0684019
1456.41	0.0338619
1466.05	0.0292719
1475.7	0.0465519
1485.34	0.104832
1494.99	0.106842
1504.63	0.0706419
1514.28	0.0910119
1523.92	0.127912
1533.57	0.117672
1543.21	0.0583919
1552.86	0.0299319
1562.5	0.0195219
1572.15	0.0170119
1581.79	0.0216219
1591.44	0.0319719
1601.08	0.0399419
1610.73	0.0337919
1620.37	0.0273819
1630.01	0.0121419
1639.66	0.0077719
1649.3	0.0072319
1658.95	0.0078419
1668.59	0.0093519
1678.24	0.0132919
1687.88	0.0186219
1697.53	0.0278719
1707.17	0.0533919
1716.82	0.112362
1726.46	0.129342
1736.11	0.0718319
1745.75	0.0380119
1755.4	0.0230619
1765.04	0.0140119
1774.69	0.0091719
1784.33	0.0071019
1793.98	0.0060919
1803.62	0.0054519
1813.27	0.0045419
1822.91	0.0036319
1832.55	0.0028719
1842.2	0.0026019
1851.84	0.0028519
1861.49	0.0031319
1871.13	0.0032919
1880.78	0.0035519
1890.42	0.0030719
1900.07	0.0021719
1909.71	0.0020319
1919.36	0.0022219
1929	0.0028319
1938.65	0.0033119
1948.29	0.0035819
1957.94	0.0029919
1967.58	0.0019819
1977.23	0.0013919
1986.87	0.0012019
1996.52	0.00096
2006.16	0.0010206
2015.81	0.0010103
2025.45	0.000999
2035.1	0.0009908
2044.74	0.0010319
2054.38	0.0010519
2064.03	0.0011719
2073.67	0.0013419
2083.32	0.0014119
2092.96	0.0012819
2102.61	0.0012819
2112.25	0.0013219
2121.9	0.0011819
2131.54	0.0011119
2141.19	0.0011719
2150.83	0.0010619
2160.48	0.0010175
2170.12	0.0010919
2179.77	0.0010719
2189.41	0.0010319
2199.06	0.0009485
2208.7	0.0010519
2218.35	0.0010519
2227.99	0.0009848
2237.64	0.0009894
2247.28	0.0011319
2256.92	0.0011319
2266.57	0.0012919
2276.21	0.0013419
2285.86	0.0012519
2295.5	0.0010719
2305.15	0.0010619
2314.79	0.0012219
2324.44	0.0012419
2334.08	0.0013019
2343.73	0.0013719
2353.37	0.0014319
2363.02	0.0012119
2372.66	0.0010819
2382.31	0.0010519
2391.95	0.0010619
2401.6	0.000961
2411.24	0.0009812
2420.89	0.0010232
2430.53	0.000899
2440.18	0.0008293
2449.82	0.0007349
2459.47	0.0007633
2469.11	0.000823
2478.75	0.0008059
2488.4	0.0008455
2498.04	0.00082
2507.69	0.0009309
2517.33	0.0009064
2526.98	0.0008991
2536.62	0.0007724
2546.27	0.0007307
2555.91	0.0007443
2565.56	0.0007087
2575.2	0.0005382
2584.85	0.0005465
2594.49	0.0007626
2604.14	0.0006744
2613.78	0.0007015
2623.43	0.0006907
2633.07	0.0007681
2642.72	0.0007461
2652.36	0.0008754
2662.01	0.0009302
2671.65	0.0007045
2681.29	0.00049
2690.94	0.0004424
2700.58	0.0004405
2710.23	0.0004674
2719.87	0.0005234
2729.52	0.0004764
2739.16	0.000601
2748.81	0.0005406
2758.45	0.0005485
2768.1	0.0004991
2777.74	0.0004023
2787.39	0.0005348
2797.03	0.0003871
2806.68	0.0004161
2816.32	0.0006079
2825.97	0.0008657
2835.61	0.0010619
2845.26	0.0011419
2854.9	0.0011319
2864.55	0.0009672
2874.19	0.0011919
2883.84	0.0012419
2893.48	0.0018219
2903.12	0.0028019
2912.77	0.0041019
2922.41	0.0057319
2932.06	0.0064119
2941.7	0.0056719
2951.35	0.0045019
2960.99	0.0036219
2970.64	0.0027919
2980.28	0.0022319
2989.93	0.0020619
2999.57	0.0030619
3009.22	0.0048519
3018.86	0.0083619
3028.51	0.0162219
3038.15	0.0182819
3047.8	0.0126419
3057.44	0.0118719
3067.09	0.0177719
3076.73	0.0200819
3086.38	0.0151519
3096.02	0.0111619
3105.67	0.0074719
3115.31	0.0052219
3124.95	0.0030719
3134.6	0.0019119
3144.24	0.0013519
3153.89	0.0008461
3163.53	0.0008372
3173.18	0.0004958
3182.82	0.0005869
3192.47	0.0003045
3202.11	0.0004165
3211.76	0.0005168
3221.4	0.0004473
3231.05	0.0003582
3240.69	0.0003963
3250.34	0.0001918
3259.98	0.0002099
3269.63	4.0328e-05
3279.27	0.000151
3288.92	0.0001407
3298.56	0.0002489
3308.21	0.0002266
3317.85	0.0003327
3327.49	0.0004494
3337.14	0.0004497
3346.78	0.0005647
3356.43	0.0006541
3366.07	0.0008602
3375.72	0.0013019
3385.36	0.0020419
3395.01	0.0035719
3404.65	0.0067119
3414.3	0.0127619
3423.94	0.0257819
3433.59	0.0264319
3443.23	0.0121719
3452.88	0.0073019
3462.52	0.0055719
3472.17	0.0036519
3481.81	0.0018719
3491.46	0.0012519
3501.1	0.0009692
3510.75	0.0007879
3520.39	0.000567
3530.04	0.0006514
3539.68	0.0002583
3549.32	0.0003252
3558.97	0.0003085
3568.61	0.0002322
3578.26	0.0003833
3587.9	0.0002458
3597.55	0.0004531
3607.19	0.0002558
3616.84	0.0004138
3626.48	0.0001754
3636.13	0.0004176
3645.77	0.0003219
3655.42	0.0004055
3665.06	0.0002759
3674.71	0.0003216
3684.35	0.0004581
3694	0.0004466
3703.64	0.0004934
3713.29	0.0003711
3722.93	0.0003467
3732.58	0.0003001
3742.22	0.0001915
3751.86	0.0002202
3761.51	0.000537
3771.15	0.0002465
3780.8	0.0003469
3790.44	0.00026
3800.09	0.0002452
3809.73	0.0002843
3819.38	0.0001884
3829.02	0.0002871
3838.67	0.0002815
3848.31	0.0003333
3857.96	0.0003565
3867.6	0.0002707
3877.25	0.0002958
3886.89	0.0001891
3896.54	0.000329
3906.18	0.0002579
3915.83	0.0004283
3925.47	0.0004872
3935.12	0.0004645
3944.76	0.0003167
3954.41	0.0004745
3964.05	0.0004487
3973.69	0.0004154
3983.34	0.0004819
3992.98	0.0004095
