Infrared Spectrum: 1-Bromo-2,4,6-trichlorobenzene
Formula: C 6 H 2 Br Cl 3
CAS: 19393-96-5
State: gas
Origin: EPA-IR VAPOR PHASE LIBRARY
1/CM	ABSORBANCE
549.8	0.033429
559.445	0.020339
569.09	0.007119
578.734	0.003829
588.379	0.002889
598.024	0.001579
607.669	0.001579
617.313	0.002769
626.958	0.007599
636.603	0.002829
646.248	0.0015396
655.893	0.001919
665.537	0.002479
675.182	0.009729
684.827	0.028199
694.472	0.011139
704.116	0.002639
713.761	0.002729
723.406	0.004959
733.051	0.005999
742.695	0.009879
752.34	0.005509
761.985	0.006839
771.63	0.013609
781.275	0.027899
790.919	0.100499
800.564	0.180679
810.209	0.174489
819.854	0.263939
829.498	0.258119
839.143	0.064289
848.788	0.073359
858.433	0.158909
868.078	0.087339
877.722	0.021509
887.367	0.015739
897.012	0.007089
906.657	0.004439
916.301	0.004189
925.946	0.002409
935.591	0.001829
945.236	0.001839
954.88	0.001879
964.525	0.002649
974.17	0.002579
983.815	0.002839
993.46	0.004079
1003.1	0.008229
1012.75	0.027239
1022.39	0.089169
1032.04	0.072039
1041.68	0.010809
1051.33	0.006549
1060.97	0.003319
1070.62	0.004419
1080.26	0.008349
1089.91	0.025989
1099.55	0.119219
1109.2	0.122379
1118.84	0.108979
1128.49	0.077469
1138.13	0.011379
1147.78	0.014719
1157.42	0.017469
1167.07	0.026939
1176.71	0.069789
1186.36	0.069579
1196	0.022839
1205.64	0.009029
1215.29	0.006869
1224.93	0.011979
1234.58	0.025989
1244.22	0.020429
1253.87	0.005259
1263.51	0.003169
1273.16	0.002049
1282.8	0.002279
1292.45	0.003369
1302.09	0.003319
1311.74	0.003679
1321.38	0.005869
1331.03	0.014209
1340.67	0.040709
1350.32	0.098869
1359.96	0.209349
1369.61	0.212109
1379.25	0.161829
1388.9	0.245499
1398.54	0.313019
1408.18	0.170029
1417.83	0.099119
1427.47	0.090019
1437.12	0.028069
1446.76	0.009139
1456.41	0.007509
1466.05	0.005909
1475.7	0.004799
1485.34	0.005519
1494.99	0.007989
1504.63	0.011879
1514.28	0.020259
1523.92	0.061539
1533.57	0.186629
1543.21	0.352789
1552.86	0.302829
1562.5	0.221569
1572.15	0.092789
1581.79	0.031349
1591.44	0.015039
1601.08	0.008779
1610.73	0.008549
1620.37	0.008289
1630.01	0.006619
1639.66	0.005989
1649.3	0.005219
1658.95	0.002839
1668.59	0.001659
1678.24	0.001869
1687.88	0.002759
1697.53	0.004839
1707.17	0.009549
1716.82	0.020159
1726.46	0.020699
1736.11	0.009209
1745.75	0.003029
1755.4	0.001999
1765.04	0.001719
1774.69	0.0014497
1784.33	0.00103
1793.98	0.0008023
1803.62	0.0007925
1813.27	0.0007492
1822.91	0.000864
1832.55	0.0007755
1842.2	0.0007709
1851.84	0.0007704
1861.49	0.0007173
1871.13	0.0007627
1880.78	0.0008353
1890.42	0.0010792
1900.07	0.0014529
1909.71	0.001909
1919.36	0.002589
1929	0.003089
1938.65	0.003179
1948.29	0.003149
1957.94	0.002799
1967.58	0.002479
1977.23	0.002269
1986.87	0.001969
1996.52	0.0013539
2006.16	0.000973
2015.81	0.0007335
2025.45	0.0006945
2035.1	0.0006618
2044.74	0.0007253
2054.38	0.0007939
2064.03	0.0006593
2073.67	0.00043
2083.32	0.0004624
2092.96	0.000448
2102.61	0.000386
2112.25	0.000381
2121.9	0.000447
2131.54	0.0004813
2141.19	0.0005253
2150.83	0.0006659
2160.48	0.00052
2170.12	0.0006546
2179.77	0.0007995
2189.41	0.0009837
2199.06	0.0010318
2208.7	0.0011072
2218.35	0.0012532
2227.99	0.001222
2237.64	0.0008799
2247.28	0.0009626
2256.92	0.0009726
2266.57	0.0009812
2276.21	0.0010644
2285.86	0.0012893
2295.5	0.0012632
2305.15	0.0012119
2314.79	0.0007783
2324.44	0.0007262
2334.08	0.0008003
2343.73	0.0008032
2353.37	0.0008994
2363.02	0.0008515
2372.66	0.0007814
2382.31	0.0007524
2391.95	0.0008492
2401.6	0.0008964
2411.24	0.0010559
2420.89	0.0009479
2430.53	0.000551231
2440.18	0.000517
2449.82	0.000509
2459.47	0.00060399
2469.11	0.0007187
2478.75	0.0008051
2488.4	0.0007206
2498.04	0.0005861
2507.69	0.0006767
2517.33	0.0007066
2526.98	0.000738
2536.62	0.0008528
2546.27	0.0009865
2555.91	0.0010628
2565.56	0.0012583
2575.2	0.0014912
2584.85	0.0015384
2594.49	0.001759
2604.14	0.001779
2613.78	0.0013558
2623.43	0.0012203
2633.07	0.0013039
2642.72	0.0011282
2652.36	0.0009664
2662.01	0.0010336
2671.65	0.0006632
2681.29	0.00061148
2690.94	0.0007476
2700.58	0.0010051
2710.23	0.0012365
2719.87	0.0013388
2729.52	0.001285
2739.16	0.0010531
2748.81	0.001175
2758.45	0.001639
2768.1	0.002429
2777.74	0.002749
2787.39	0.001939
2797.03	0.0010631
2806.68	0.0006553
2816.32	0.000407
2825.97	0.00037
2835.61	0.000215
2845.26	0.000182
2854.9	0.000152
2864.55	0.000196
2874.19	0.000276
2883.84	0.0004727
2893.48	0.0006546
2903.12	0.0008629
2912.77	0.001006
2922.41	0.000861
2932.06	0.000908
2941.7	0.0010884
2951.35	0.0009882
2960.99	0.0009552
2970.64	0.0007368
2980.28	0.0004652
2989.93	0.0004757
2999.57	0.000375
3009.22	0.000121
3018.86	0.00025
3028.51	0.000194
3038.15	0.000214
3047.8	0.00036
3057.44	0.0008033
3067.09	0.002039
3076.73	0.003989
3086.38	0.004149
3096.02	0.003599
3105.67	0.004679
3115.31	0.005119
3124.95	0.003379
3134.6	0.0014859
3144.24	0.00063549
3153.89	0.000417
3163.53	0.000219
3173.18	0.000273
3182.82	0.000242
3192.47	0.000296
3202.11	0.000175
3211.76	0.000291
3221.4	0.000123
3231.05	0.000129
3240.69	0.000203
3250.34	0.000157
3259.98	0.000183
3269.63	0.000241
3279.27	0.000218
3288.92	0.000313
3298.56	0.000317
3308.21	7.5e-05
3317.85	0.000311
3327.49	0.0003
3337.14	0.000257
3346.78	0.000315
3356.43	0.000215
3366.07	0.000226
3375.72	0.000247
3385.36	0.000155
3395.01	0.0002
3404.65	0.000319
3414.3	0.000296
3423.94	0.000362
3433.59	0.000379
3443.23	0.000171
3452.88	0.000317
3462.52	0.00027
3472.17	0.000274
3481.81	0.000357
3491.46	0.000319
3501.1	0.000404
3510.75	0.000241
3520.39	0.000281
3530.04	0.000252
3539.68	0.0004527
3549.32	0.0004734
3558.97	0.000231
3568.61	0.00021
3578.26	0.000295
3587.9	0.000445
3597.55	0.000446
3607.19	0.000345
3616.84	0.0004906
3626.48	0.0005298
3636.13	0.000446
3645.77	0.000334
3655.42	0.000364
3665.06	0.000267
3674.71	0.000353
3684.35	0.000343
3694	0.000322
3703.64	0.000166
3713.29	0.000336
3722.93	0.000145
3732.58	0.000372
3742.22	0.000253
3751.86	0.000194
3761.51	0.000235
3771.15	0.00034
3780.8	0.000282
3790.44	0.000169
3800.09	0.000245
3809.73	0.000276
3819.38	0.000239
3829.02	0.0002
3838.67	0.000207
3848.31	0.000351
3857.96	0.000446
3867.6	0.000393
3877.25	0.0007414
3886.89	0.0008418
3896.54	0.0010648
3906.18	0.0010988
3915.83	0.000982
3925.47	0.0008079
3935.12	0.0008897
3944.76	0.0006769
3954.41	0.0006031
3964.05	0.000408
3973.69	0.000399
3983.34	0.000353
3992.98	0.000287
