Infrared Spectrum: 3'-Trifluoromethyl-1,2-methylvaleranilide
Formula: C 13 H 16 F 3 N O
CAS: 1939-26-0
State: gas
Origin: EPA-IR VAPOR PHASE LIBRARY
1/CM	ABSORBANCE
549.8	0.007482
559.445	0.005272
569.09	0.003742
578.734	0.003252
588.379	0.004542
598.024	0.005442
607.669	0.002772
617.313	0.001732
626.958	0.001822
636.603	0.002282
646.248	0.004552
655.893	0.011682
665.537	0.012822
675.182	0.005672
684.827	0.008502
694.472	0.026532
704.116	0.016172
713.761	0.004972
723.406	0.003512
733.051	0.003752
742.695	0.004602
752.34	0.005882
761.985	0.005042
771.63	0.005882
781.275	0.013952
790.919	0.025672
800.564	0.013302
810.209	0.003862
819.854	0.002602
829.498	0.002422
839.143	0.003142
848.788	0.003522
858.433	0.005722
868.078	0.011592
877.722	0.013592
887.367	0.011502
897.012	0.014382
906.657	0.015452
916.301	0.011062
925.946	0.007232
935.591	0.006732
945.236	0.007022
954.88	0.005082
964.525	0.004162
974.17	0.003972
983.815	0.004242
993.46	0.005782
1003.1	0.008232
1012.75	0.007402
1022.39	0.007252
1032.04	0.009212
1041.68	0.011082
1051.33	0.016132
1060.97	0.030512
1070.62	0.055432
1080.26	0.038662
1089.91	0.034752
1099.55	0.048632
1109.2	0.037522
1118.84	0.043392
1128.49	0.079222
1138.13	0.168692
1147.78	0.219382
1157.42	0.127322
1167.07	0.126412
1176.71	0.146762
1186.36	0.091192
1196	0.038202
1205.64	0.027342
1215.29	0.028982
1224.93	0.039322
1234.58	0.038842
1244.22	0.029002
1253.87	0.021502
1263.51	0.022322
1273.16	0.027762
1282.8	0.029712
1292.45	0.037282
1302.09	0.049722
1311.74	0.062792
1321.38	0.133802
1331.03	0.325392
1340.67	0.108372
1350.32	0.027802
1359.96	0.016492
1369.61	0.014162
1379.25	0.015852
1388.9	0.016942
1398.54	0.016912
1408.18	0.025382
1417.83	0.043132
1427.47	0.080292
1437.12	0.104612
1446.76	0.047932
1456.41	0.035482
1466.05	0.040482
1475.7	0.051562
1485.34	0.093512
1494.99	0.086832
1504.63	0.069432
1514.28	0.093872
1523.92	0.113802
1533.57	0.069622
1543.21	0.034172
1552.86	0.020652
1562.5	0.014842
1572.15	0.013592
1581.79	0.017402
1591.44	0.023952
1601.08	0.026832
1610.73	0.025582
1620.37	0.022812
1630.01	0.009582
1639.66	0.006352
1649.3	0.005832
1658.95	0.006202
1668.59	0.007332
1678.24	0.009482
1687.88	0.012722
1697.53	0.019552
1707.17	0.035842
1716.82	0.074142
1726.46	0.092182
1736.11	0.037922
1745.75	0.016842
1755.4	0.010582
1765.04	0.007062
1774.69	0.005362
1784.33	0.004202
1793.98	0.003342
1803.62	0.002792
1813.27	0.002592
1822.91	0.002112
1832.55	0.001712
1842.2	0.001692
1851.84	0.001892
1861.49	0.001812
1871.13	0.001602
1880.78	0.001912
1890.42	0.001712
1900.07	0.001282
1909.71	0.001312
1919.36	0.001442
1929	0.001732
1938.65	0.001582
1948.29	0.001512
1957.94	0.001282
1967.58	0.000967
1977.23	0.0008218
1986.87	0.000877
1996.52	0.0008757
2006.16	0.0008306
2015.81	0.0007927
2025.45	0.0007923
2035.1	0.0008405
2044.74	0.001001
2054.38	0.0008905
2064.03	0.0009711
2073.67	0.0011552
2083.32	0.001362
2092.96	0.001252
2102.61	0.0010655
2112.25	0.001002
2121.9	0.0008855
2131.54	0.0008568
2141.19	0.0009153
2150.83	0.0008669
2160.48	0.0009124
2170.12	0.000964
2179.77	0.0010094
2189.41	0.0010464
2199.06	0.0009787
2208.7	0.0009215
2218.35	0.001022
2227.99	0.0010488
2237.64	0.0011429
2247.28	0.0011137
2256.92	0.0011488
2266.57	0.001242
2276.21	0.001322
2285.86	0.001302
2295.5	0.0011242
2305.15	0.001114
2314.79	0.0010996
2324.44	0.001149
2334.08	0.001172
2343.73	0.001362
2353.37	0.001332
2363.02	0.001292
2372.66	0.0011107
2382.31	0.0010265
2391.95	0.001096
2401.6	0.0011385
2411.24	0.0010637
2420.89	0.0009872
2430.53	0.00092
2440.18	0.0008442
2449.82	0.0008276
2459.47	0.0008742
2469.11	0.0010194
2478.75	0.0009209
2488.4	0.0009754
2498.04	0.0011488
2507.69	0.001058
2517.33	0.001192
2526.98	0.0010769
2536.62	0.000921
2546.27	0.0009513
2555.91	0.0009062
2565.56	0.0008904
2575.2	0.0009403
2584.85	0.0009056
2594.49	0.0010403
2604.14	0.0010645
2613.78	0.0010663
2623.43	0.0008468
2633.07	0.0010471
2642.72	0.0010165
2652.36	0.001332
2662.01	0.001352
2671.65	0.0010766
2681.29	0.0009863
2690.94	0.0009547
2700.58	0.0010592
2710.23	0.0010356
2719.87	0.0011536
2729.52	0.001232
2739.16	0.001512
2748.81	0.001732
2758.45	0.001622
2768.1	0.001492
2777.74	0.001522
2787.39	0.001672
2797.03	0.002042
2806.68	0.002152
2816.32	0.002702
2825.97	0.003402
2835.61	0.004402
2845.26	0.006132
2854.9	0.010222
2864.55	0.015182
2874.19	0.020072
2883.84	0.027642
2893.48	0.026052
2903.12	0.023952
2912.77	0.026142
2922.41	0.030232
2932.06	0.038372
2941.7	0.047532
2951.35	0.039572
2960.99	0.044582
2970.64	0.062302
2980.28	0.043742
2989.93	0.021012
2999.57	0.010332
3009.22	0.006602
3018.86	0.005752
3028.51	0.006092
3038.15	0.005922
3047.8	0.006192
3057.44	0.005742
3067.09	0.005332
3076.73	0.004832
3086.38	0.005292
3096.02	0.005142
3105.67	0.004022
3115.31	0.003442
3124.95	0.002712
3134.6	0.002162
3144.24	0.001752
3153.89	0.001432
3163.53	0.001192
3173.18	0.001202
3182.82	0.001172
3192.47	0.0011544
3202.11	0.001018
3211.76	0.0007691
3221.4	0.000525
3231.05	0.0006383
3240.69	0.0005108
3250.34	0.0003848
3259.98	0.0003719
3269.63	0.0003345
3279.27	0.00022692
3288.92	0.0004505
3298.56	0.0005055
3308.21	0.00023725
3317.85	0.0003326
3327.49	0.0004041
3337.14	0.0003413
3346.78	0.0003863
3356.43	0.0004113
3366.07	0.0003914
3375.72	0.0005565
3385.36	0.0007267
3395.01	0.001182
3404.65	0.001572
3414.3	0.002042
3423.94	0.002442
3433.59	0.003452
3443.23	0.005042
3452.88	0.009162
3462.52	0.011382
3472.17	0.005372
3481.81	0.002162
3491.46	0.001562
3501.1	0.0010214
3510.75	0.0006427
3520.39	0.0004349
3530.04	0.0003896
3539.68	0.0004138
3549.32	0.0002736
3558.97	0.00020093
3568.61	0.0003342
3578.26	0.0002696
3587.9	0.000163519
3597.55	0.00024167
3607.19	6.41e-05
3616.84	0.00018179
3626.48	0.00022796
3636.13	0.000171322
3645.77	0.00022593
3655.42	0.0003037
3665.06	0.0002768
3674.71	0.00022291
3684.35	0.0003347
3694	0.0004153
3703.64	0.0003943
3713.29	0.0003512
3722.93	0.0003769
3732.58	0.00014
3742.22	0.0002878
3751.86	0.0002934
3761.51	0.000408
3771.15	0.00021088
3780.8	0.00020494
3790.44	0.0002947
3800.09	0.0003857
3809.73	9.92e-05
3819.38	0.000167822
3829.02	0.0002649
3838.67	0.0002827
3848.31	0.0002222
3857.96	0.00023656
3867.6	0.0003803
3877.25	0.0002041
3886.89	0.0003632
3896.54	0.0003141
3906.18	0.0002986
3915.83	0.0002983
3925.47	0.0004023
3935.12	0.0004032
3944.76	0.000301
3954.41	0.0002845
3964.05	0.0005139
3973.69	0.0003685
3983.34	0.0004251
3992.98	0.0003949
