Infrared Spectrum: 9-Bromofluorene
Formula: C 13 H 9 Br
CAS: 1940-57-4
State: gas
Instrument: HP-GC/MS/IRD
Origin: NIST Mass Spectrometry Data Center
1/CM	ABSORBANCE
550	0.0003003
562	6.27e-05
574	7.92e-05
586	0.0002508
598	0.0002178
610	0.0004983
622	0.0021912
634	0.0030228
646	0.0072402
658	0.0088902
670	0.0020394
682	0.0011418
694	0.0005775
706	0.0007986
718	0.0047355
730	0.0314292
742	0.0140547
754	0.0024816
766	0.0020625
778	0.0045045
790	0.0012243
802	0.0003762
814	0.0002343
826	0.0008811
838	0.0011352
850	0.0028347
862	0.0029238
874	0.0013068
886	0.0004554
898	0.000198
910	8.58e-05
922	0.0002211
934	0.0006402
946	0.0003729
958	0.0001518
970	0.0001254
982	0.0003762
994	0.0009966
1006	0.0008976
1018	0.0008976
1030	0.0008811
1042	0.0004224
1054	0.0001881
1066	0.0002277
1078	0.0002673
1090	0.0003498
1102	0.000396
1114	0.0008811
1126	0.0020361
1138	0.007062
1150	0.0045573
1162	0.0013398
1174	0.0013662
1186	0.0037455
1198	0.0013893
1210	0.0010923
1222	0.0004257
1234	0.0002805
1246	0.0002112
1258	0.0001287
1270	0.0002112
1282	0.0004851
1294	0.0007788
1306	0.0014784
1318	0.0006798
1330	0.0002739
1342	0.0002772
1354	0.0002112
1366	0.0001023
1378	0.0001914
1390	0.000198
1402	0.0002937
1414	0.0007722
1426	0.0009405
1438	0.0024684
1450	0.0086031
1462	0.0042471
1474	0.0014388
1486	0.0007755
1498	0.000297
1510	0.0003267
1522	0.0001815
1534	0.000132
1546	0.0002046
1558	0.0002508
1570	0.000528
1582	0.0012111
1594	0.0014421
1606	0.0019041
1618	0.000924
1630	0.0003366
1642	0.0003564
1654	0.0001947
1666	0.0004719
1678	0.0003432
1690	0.000165
1702	0.0002871
1714	0.0004884
1726	0.0003597
1738	0.0002706
1750	0.000264
1762	0.0001848
1774	0.0002112
1786	0.0003828
1798	0.0007722
1810	0.0005643
1822	0.0002937
1834	0.0004983
1846	0.0003663
1858	0.0002442
1870	0.0005841
1882	0.0004521
1894	0.000429
1906	0.001155
1918	0.0005379
1930	0.0004059
1942	0.001287
1954	0.0005049
1966	0.0001518
1978	0.0001452
1990	0.0001221
2002	9.57e-05
2014	0.0001287
2026	0.0001221
2038	0.0001221
2050	0.0001155
2062	0.0001221
2074	9.24e-05
2086	5.94e-05
2098	8.25e-05
2110	0.000132
2122	8.91e-05
2134	4.95e-05
2146	8.91e-05
2158	9.57e-05
2170	0.0001056
2182	0.0001023
2194	0.0001089
2206	0.0001188
2218	8.91e-05
2230	9.9e-05
2242	0.0001254
2254	0.0002211
2266	0.0002112
2278	0.0001287
2290	0.0001353
2302	0.0002178
2314	0.0003135
2326	0.0003069
2338	0.0002211
2350	0.0001419
2362	6.93e-05
2374	8.58e-05
2386	9.24e-05
2398	0.0001254
2410	0.0001188
2422	0.0001155
2434	0.0001221
2446	0.0001452
2458	0.0001287
2470	0.0001254
2482	0.0001518
2494	0.0001419
2506	8.25e-05
2518	9.9e-05
2530	8.91e-05
2542	8.91e-05
2554	5.94e-05
2566	7.92e-05
2578	9.9e-05
2590	0.0001584
2602	0.0001815
2614	0.0001914
2626	0.0001815
2638	0.000165
2650	0.0001155
2662	0.000132
2674	0.0001287
2686	6.27e-05
2698	8.25e-05
2710	8.91e-05
2722	6.27e-05
2734	7.92e-05
2746	9.9e-05
2758	7.92e-05
2770	0.0001056
2782	0.0001452
2794	0.0001848
2806	0.0001353
2818	8.91e-05
2830	8.91e-05
2842	8.91e-05
2854	9.9e-05
2866	0.0001287
2878	0.0002013
2890	0.0003003
2902	0.0003069
2914	0.0003366
2926	0.0002805
2938	0.0002772
2950	0.0002706
2962	0.0006171
2974	0.0005346
2986	0.0003069
2998	0.0004257
3010	0.0010164
3022	0.0028908
3034	0.0041613
3046	0.0047718
3058	0.0059367
3070	0.0114972
3082	0.008745
3094	0.0037125
3106	0.0011814
3118	0.0003795
3130	0.0002871
3142	0.0002871
3154	0.0003729
3166	0.0003762
3178	0.0002211
3190	0.0001221
3202	0.0001287
3214	6.27e-05
3226	0.0001221
3238	0.0001584
3250	0.0001254
3262	7.26e-05
3274	2.97e-05
3286	9.57e-05
3298	0.0001155
3310	8.58e-05
3322	0.0001122
3334	7.59e-05
3346	0.0001155
3358	9.9e-05
3370	0.000132
3382	6.27e-05
3394	9.57e-05
3406	9.24e-05
3418	0.0001518
3430	0.000132
3442	0.0001056
3454	0.0001485
3466	0.0001122
3478	9.24e-05
3490	0.0001683
3502	0.000165
3514	9.57e-05
3526	0.0001353
3538	0.0001419
3550	0.000165
3562	0.0001815
3574	0.0001089
3586	0.0001617
3598	0.0001749
3610	0.0001584
3622	0.0002244
3634	0.0001782
3646	0.0001782
3658	0.0002013
3670	0.0001716
3682	0.0001617
3694	0.0001683
3706	0.0001485
3718	0.0002244
3730	0.0001749
3742	0.0002409
3754	0.0001947
3766	0.0001848
3778	0.0001881
3790	0.0002145
3802	0.0001848
3814	0.0002145
3826	0.0002409
3838	0.0001716
