Infrared Spectrum: 2-Acetamido-6-chlorobenzoic acid
Formula: C 9 H 8 Cl N O 3
CAS: 19407-42-2
State: gas
Origin: EPA-IR VAPOR PHASE LIBRARY
1/CM	ABSORBANCE
549.8	0
559.445	0.001192
569.09	0.003106
578.734	0.004636
588.379	0.006526
598.024	0.011186
607.669	0.004976
617.313	0.002146
626.958	0.003636
636.603	0.004936
646.248	0.004186
655.893	0.002586
665.537	0.002646
675.182	0.009356
684.827	0.026336
694.472	0.014896
704.116	0.004446
713.761	0.001956
723.406	0.002056
733.051	0.002536
742.695	0.004226
752.34	0.008976
761.985	0.017646
771.63	0.029326
781.275	0.018306
790.919	0.006896
800.564	0.017626
810.209	0.048496
819.854	0.028156
829.498	0.006776
839.143	0.002596
848.788	0.002886
858.433	0.002246
868.078	0.002936
877.722	0.003886
887.367	0.006686
897.012	0.008896
906.657	0.014136
916.301	0.032016
925.946	0.061156
935.591	0.083866
945.236	0.089256
954.88	0.103916
964.525	0.088166
974.17	0.070496
983.815	0.046786
993.46	0.016426
1003.1	0.010776
1012.75	0.010196
1022.39	0.014536
1032.04	0.025126
1041.68	0.022236
1051.33	0.008526
1060.97	0.007546
1070.62	0.017396
1080.26	0.014966
1089.91	0.007326
1099.55	0.004686
1109.2	0.003756
1118.84	0.004806
1128.49	0.003966
1138.13	0.006196
1147.78	0.010586
1157.42	0.009086
1167.07	0.011626
1176.71	0.023136
1186.36	0.049366
1196	0.099226
1205.64	0.072746
1215.29	0.013716
1224.93	0.007436
1234.58	0.012276
1244.22	0.028456
1253.87	0.064746
1263.51	0.085636
1273.16	0.077126
1282.8	0.038886
1292.45	0.017806
1302.09	0.008796
1311.74	0.005706
1321.38	0.004406
1331.03	0.004006
1340.67	0.003816
1350.32	0.004076
1359.96	0.005946
1369.61	0.009946
1379.25	0.017416
1388.9	0.014746
1398.54	0.007616
1408.18	0.006386
1417.83	0.010736
1427.47	0.024956
1437.12	0.039056
1446.76	0.061746
1456.41	0.094346
1466.05	0.064716
1475.7	0.017176
1485.34	0.007506
1494.99	0.006336
1504.63	0.006026
1514.28	0.006136
1523.92	0.008506
1533.57	0.011506
1543.21	0.018266
1552.86	0.044236
1562.5	0.071636
1572.15	0.052336
1581.79	0.061646
1591.44	0.106376
1601.08	0.080646
1610.73	0.025036
1620.37	0.020496
1630.01	0.030136
1639.66	0.058136
1649.3	0.146276
1658.95	0.235666
1668.59	0.143906
1678.24	0.034736
1687.88	0.014446
1697.53	0.009956
1707.17	0.008516
1716.82	0.007626
1726.46	0.007486
1736.11	0.010316
1745.75	0.017456
1755.4	0.022526
1765.04	0.026936
1774.69	0.048776
1784.33	0.133536
1793.98	0.326236
1803.62	0.299016
1813.27	0.068156
1822.91	0.014726
1832.55	0.010066
1842.2	0.011116
1851.84	0.012496
1861.49	0.010216
1871.13	0.009886
1880.78	0.009246
1890.42	0.008166
1900.07	0.008126
1909.71	0.008236
1919.36	0.008276
1929	0.008676
1938.65	0.008176
1948.29	0.007406
1957.94	0.005406
1967.58	0.003366
1977.23	0.002936
1986.87	0.002816
1996.52	0.002346
2006.16	0.002326
2015.81	0.002396
2025.45	0.002766
2035.1	0.002496
2044.74	0.001976
2054.38	0.001906
2064.03	0.0017825
2073.67	0.0016924
2083.32	0.0017496
2092.96	0.0017172
2102.61	0.0015082
2112.25	0.0016049
2121.9	0.0017796
2131.54	0.002216
2141.19	0.002186
2150.83	0.001916
2160.48	0.001866
2170.12	0.001946
2179.77	0.001946
2189.41	0.002166
2199.06	0.002616
2208.7	0.002896
2218.35	0.002606
2227.99	0.002386
2237.64	0.002336
2247.28	0.002136
2256.92	0.002056
2266.57	0.0017237
2276.21	0.0013366
2285.86	0.0015115
2295.5	0.0016628
2305.15	0.0016442
2314.79	0.0012154
2324.44	0.0013404
2334.08	0.001425
2343.73	0.0014378
2353.37	0.0015189
2363.02	0.001806
2372.66	0.002256
2382.31	0.002316
2391.95	0.002386
2401.6	0.001846
2411.24	0.0015288
2420.89	0.0014974
2430.53	0.0013474
2440.18	0.0015662
2449.82	0.0015949
2459.47	0.002066
2469.11	0.001976
2478.75	0.001926
2488.4	0.0014918
2498.04	0.0012534
2507.69	0.001321
2517.33	0.0014498
2526.98	0.0017799
2536.62	0.0017064
2546.27	0.0016661
2555.91	0.001946
2565.56	0.001936
2575.2	0.002286
2584.85	0.002036
2594.49	0.002326
2604.14	0.002516
2613.78	0.002646
2623.43	0.002146
2633.07	0.002126
2642.72	0.0017417
2652.36	0.0014179
2662.01	0.0013768
2671.65	0.0014147
2681.29	0.001492
2690.94	0.001452
2700.58	0.0016604
2710.23	0.0016919
2719.87	0.0016513
2729.52	0.0015828
2739.16	0.0015298
2748.81	0.0013122
2758.45	0.0013051
2768.1	0.0012483
2777.74	0.0011912
2787.39	0.0010776
2797.03	0.0011115
2806.68	0.0011644
2816.32	0.0013406
2825.97	0.0011658
2835.61	0.001557
2845.26	0.001956
2854.9	0.002016
2864.55	0.002326
2874.19	0.001866
2883.84	0.001334
2893.48	0.0013059
2903.12	0.001258
2912.77	0.0011657
2922.41	0.0015796
2932.06	0.002606
2941.7	0.005706
2951.35	0.004916
2960.99	0.002596
2970.64	0.002956
2980.28	0.003796
2989.93	0.004626
2999.57	0.003916
3009.22	0.002966
3018.86	0.002346
3028.51	0.002616
3038.15	0.002206
3047.8	0.002216
3057.44	0.004096
3067.09	0.006496
3076.73	0.007246
3086.38	0.006626
3096.02	0.003856
3105.67	0.002496
3115.31	0.002796
3124.95	0.002156
3134.6	0.001886
3144.24	0.0016103
3153.89	0.0013226
3163.53	0.0012952
3173.18	0.0009628
3182.82	0.00083545
3192.47	0.0012118
3202.11	0.0014071
3211.76	0.001063
3221.4	0.0012125
3231.05	0.0011431
3240.69	0.0013135
3250.34	0.0009928
3259.98	0.00083154
3269.63	0.0011314
3279.27	0.0015428
3288.92	0.001499
3298.56	0.002196
3308.21	0.001846
3317.85	0.0011373
3327.49	0.0012335
3337.14	0.0011395
3346.78	0.0011956
3356.43	0.000795978
3366.07	0.0007532
3375.72	0.0009269
3385.36	0.0009172
3395.01	0.00083267
3404.65	0.0010266
3414.3	0.0009128
3423.94	0.000694
3433.59	0.000732
3443.23	0.0009038
3452.88	0.0009047
3462.52	0.0010068
3472.17	0.00087546
3481.81	0.0010749
3491.46	0.0011336
3501.1	0.0007491
3510.75	0.0011483
3520.39	0.0008916
3530.04	0.0009248
3539.68	0.001368
3549.32	0.0016177
3558.97	0.002726
3568.61	0.004016
3578.26	0.004156
3587.9	0.002716
3597.55	0.002016
3607.19	0.0011929
3616.84	0.00088063
3626.48	0.0008919
3636.13	0.0007272
3645.77	0.000576
3655.42	0.00085807
3665.06	0.000594
3674.71	0.0010232
3684.35	0.0010851
3694	0.0007277
3703.64	0.0007532
3713.29	0.000367
3722.93	0.00086073
3732.58	0.0006968
3742.22	0.000547
3751.86	0.000481
3761.51	0.0010174
3771.15	0.000599
3780.8	0.000579
3790.44	0.0011064
3800.09	0.0007005
3809.73	0.0010516
3819.38	0.0009021
3829.02	0.000789774
3838.67	0.0010307
3848.31	0.0010838
3857.96	0.0009584
3867.6	0.0006875
3877.25	0.000605
3886.89	0.000671
3896.54	0.0007009
3906.18	0.00069
3915.83	0.000658
3925.47	0.000785636
3935.12	0.0009799
3944.76	0.0007105
3954.41	0.000501
3964.05	0.001211
3973.69	0.00087518
3983.34	0.000904
3992.98	0.0007756
