Infrared Spectrum: 4-Octyne
Formula: C 8 H 14
CAS: 1942-45-6
State: gas
Instrument: HP-GC/MS/IRD
Origin: NIST Mass Spectrometry Data Center
1/CM	ABSORBANCE
550	0.0005215
562	0.0003675
574	0.000273
586	0.0004095
598	0.0002975
610	0.000224
622	0.0002065
634	0.000203
646	0.0001225
658	0.0001225
670	9.8e-05
682	7e-05
694	0.0001575
706	0.0001855
718	0.0002695
730	0.000238
742	0.0002905
754	0.000364
766	0.0003675
778	0.000686
790	0.000672
802	0.000462
814	0.0004445
826	0.0003115
838	0.000238
850	0.000294
862	0.0004515
874	0.000616
886	0.0006895
898	0.0005775
910	0.0003885
922	0.0002345
934	0.000126
946	9.8e-05
958	4.55e-05
970	0.000105
982	0.000133
994	0.0002275
1006	0.000553
1018	0.0008085
1030	0.000651
1042	0.000364
1054	0.000378
1066	0.0006195
1078	0.0006545
1090	0.0005355
1102	0.0004095
1114	0.0002065
1126	0.0001435
1138	0.0001435
1150	0.000182
1162	0.0001295
1174	0.0001435
1186	0.0001715
1198	0.0002065
1210	0.000238
1222	0.0005495
1234	0.0006405
1246	0.0005145
1258	0.0007315
1270	0.0017535
1282	0.0024325
1294	0.001204
1306	0.001162
1318	0.002373
1330	0.0054775
1342	0.005474
1354	0.0022435
1366	0.00147
1378	0.002198
1390	0.0023625
1402	0.001505
1414	0.001323
1426	0.0021035
1438	0.003416
1450	0.004116
1462	0.004172
1474	0.0031745
1486	0.0018725
1498	0.001071
1510	0.0006615
1522	0.0004305
1534	0.000364
1546	0.0003045
1558	0.0002205
1570	0.0002345
1582	0.000252
1594	0.0002415
1606	0.0001995
1618	0.0001715
1630	0.0001435
1642	0.0001225
1654	9.45e-05
1666	0.0001295
1678	0.000119
1690	0.0001225
1702	6.65e-05
1714	4.55e-05
1726	7.35e-05
1738	1.4e-05
1750	1.75e-05
1762	4.9e-05
1774	2.45e-05
1786	3.5e-05
1798	3.15e-05
1810	1.05e-05
1822	4.55e-05
1834	1.05e-05
1846	4.2e-05
1858	1.4e-05
1870	3.15e-05
1882	3.85e-05
1894	2.8e-05
1906	1.4e-05
1918	3.5e-05
1930	1.75e-05
1942	6.3e-05
1954	7.7e-05
1966	3.85e-05
1978	4.9e-05
1990	4.2e-05
2002	4.2e-05
2014	2.1e-05
2026	5.95e-05
2038	0.000105
2050	6.3e-05
2062	3.85e-05
2074	3.15e-05
2086	3.5e-05
2098	2.8e-05
2110	7e-05
2122	8.05e-05
2134	3.5e-05
2146	6.65e-05
2158	0.000105
2170	9.8e-05
2182	9.45e-05
2194	9.1e-05
2206	6.65e-05
2218	6.3e-05
2230	7.35e-05
2242	4.9e-05
2254	3.15e-05
2266	5.6e-05
2278	4.9e-05
2290	6.3e-05
2302	1.4e-05
2314	4.2e-05
2326	3.5e-05
2338	3.85e-05
2350	4.9e-05
2362	3.85e-05
2374	5.6e-05
2386	4.9e-05
2398	8.05e-05
2410	8.05e-05
2422	9.1e-05
2434	8.05e-05
2446	7e-05
2458	5.6e-05
2470	5.25e-05
2482	2.45e-05
2494	4.9e-05
2506	4.55e-05
2518	0.000105
2530	0.0001085
2542	0.000126
2554	0.000147
2566	0.0001295
2578	0.0001995
2590	0.000161
2602	0.0001575
2614	0.0001855
2626	0.000196
2638	0.0002415
2650	0.000371
2662	0.000392
2674	0.000434
2686	0.000364
2698	0.000385
2710	0.0003745
2722	0.000434
2734	0.0004935
2746	0.00063
2758	0.0007385
2770	0.0007525
2782	0.000854
2794	0.0010885
2806	0.0013195
2818	0.0018025
2830	0.002716
2842	0.004718
2854	0.0073255
2866	0.0096915
2878	0.014616
2890	0.015183
2902	0.014861
2914	0.0192325
2926	0.0249585
2938	0.033922
2950	0.031927
2962	0.0280315
2974	0.031066
2986	0.020566
2998	0.008519
3010	0.0041265
3022	0.002625
3034	0.002002
3046	0.001659
3058	0.0013195
3070	0.0010325
3082	0.000924
3094	0.000812
3106	0.0007595
3118	0.000609
3130	0.000532
3142	0.000476
3154	0.0004025
3166	0.000392
3178	0.0004025
3190	0.0003605
3202	0.000266
3214	0.000273
3226	0.000203
3238	0.000168
3250	0.000147
3262	9.1e-05
3274	0.000161
3286	0.000126
3298	0.000112
3310	0.0001085
3322	0.0001435
3334	0.0001575
3346	0.000175
3358	0.000182
3370	0.0001435
3382	8.75e-05
3394	7.35e-05
3406	8.75e-05
3418	7.7e-05
3430	0.000133
3442	0.000175
3454	0.0001575
3466	0.0001085
3478	0.0001155
3490	0.0001295
3502	9.45e-05
3514	1.05e-05
3526	8.05e-05
3538	9.45e-05
3550	8.75e-05
3562	0.0001015
3574	7.7e-05
3586	2.1e-05
3598	5.25e-05
3610	4.2e-05
3622	0.000119
3634	0.00014
3646	0.0001645
3658	9.1e-05
3670	0.0001225
3682	0.0001295
3694	0.0001085
3706	0.0001295
3718	0.0001715
3730	8.75e-05
3742	9.8e-05
3754	0.0001155
3766	0.0001435
3778	0.00014
3790	0.000133
3802	0.0001505
3814	0.000196
3826	0.000119
3838	0.0001365
