Infrared Spectrum: 5-Decyne
Formula: C 10 H 18
CAS: 1942-46-7
State: gas
Instrument: HP-GC/MS/IRD
Origin: NIST Mass Spectrometry Data Center
1/CM	ABSORBANCE
550	0.000336
562	0.0002496
574	0.0002352
586	0.0001584
598	0.00012
610	9.6e-05
622	0.0001056
634	1.92e-05
646	0.0001056
658	4.32e-05
670	6.24e-05
682	0.0001104
694	0.0002256
706	0.0002592
718	0.0004224
730	0.0006768
742	0.0009888
754	0.0008112
766	0.0005664
778	0.0004464
790	0.0003936
802	0.0002352
814	0.0001776
826	8.64e-05
838	5.76e-05
850	8.64e-05
862	8.64e-05
874	0.0001488
886	0.0001824
898	0.0002832
910	0.0002016
922	0.0002736
934	0.0003408
946	0.0004032
958	0.0005088
970	0.000384
982	0.0002736
994	0.0002064
1006	0.0001104
1018	8.64e-05
1030	0.00012
1042	0.0001392
1054	0.0001824
1066	0.0002304
1078	0.000288
1090	0.0004896
1102	0.00072
1114	0.0004368
1126	0.0002112
1138	0.0001632
1150	0.0001584
1162	0.0001488
1174	0.0001632
1186	0.0002256
1198	0.0003936
1210	0.000456
1222	0.0004512
1234	0.0004896
1246	0.0008784
1258	0.0010032
1270	0.0007008
1282	0.0009264
1294	0.0016128
1306	0.0021216
1318	0.003288
1330	0.005064
1342	0.0034752
1354	0.0027936
1366	0.002376
1378	0.002208
1390	0.00204
1402	0.001344
1414	0.0013056
1426	0.0022272
1438	0.0041136
1450	0.0048432
1462	0.0050352
1474	0.0038208
1486	0.0019728
1498	0.0010464
1510	0.0006768
1522	0.0005136
1534	0.0004176
1546	0.0003312
1558	0.0002688
1570	0.0002496
1582	0.00024
1594	0.0002016
1606	0.0001728
1618	0.0001536
1630	0.000168
1642	0.0001152
1654	0.0001104
1666	0.00012
1678	8.64e-05
1690	8.64e-05
1702	9.12e-05
1714	6.24e-05
1726	4.32e-05
1738	5.76e-05
1750	4.8e-05
1762	2.4e-05
1774	3.36e-05
1786	3.84e-05
1798	3.36e-05
1810	2.88e-05
1822	2.4e-05
1834	2.4e-05
1846	2.4e-05
1858	2.4e-05
1870	4.32e-05
1882	2.4e-05
1894	2.4e-05
1906	1.44e-05
1918	4.8e-06
1930	1.92e-05
1942	4.32e-05
1954	0
1966	1.92e-05
1978	1.92e-05
1990	4.8e-06
2002	5.28e-05
2014	4.8e-05
2026	0.0001008
2038	0.0001104
2050	9.6e-05
2062	6.72e-05
2074	4.32e-05
2086	3.84e-05
2098	3.36e-05
2110	3.84e-05
2122	4.32e-05
2134	6.24e-05
2146	4.8e-05
2158	5.28e-05
2170	3.84e-05
2182	4.32e-05
2194	7.2e-05
2206	4.8e-05
2218	5.28e-05
2230	5.28e-05
2242	5.76e-05
2254	2.4e-05
2266	3.84e-05
2278	4.8e-05
2290	4.8e-05
2302	2.88e-05
2314	1.92e-05
2326	2.4e-05
2338	2.4e-05
2350	4.8e-06
2362	2.88e-05
2374	5.76e-05
2386	7.2e-05
2398	9.12e-05
2410	8.64e-05
2422	7.68e-05
2434	6.72e-05
2446	4.8e-05
2458	2.88e-05
2470	3.36e-05
2482	1.92e-05
2494	3.84e-05
2506	2.4e-05
2518	5.76e-05
2530	0.0001104
2542	0.0001776
2554	0.0001488
2566	0.0002064
2578	0.0002544
2590	0.0002208
2602	0.0002304
2614	0.0002448
2626	0.0002688
2638	0.0004272
2650	0.0004896
2662	0.0005424
2674	0.0005808
2686	0.0005232
2698	0.0004416
2710	0.0004224
2722	0.0004704
2734	0.0006096
2746	0.000816
2758	0.0008112
2770	0.000912
2782	0.001008
2794	0.001248
2806	0.0016272
2818	0.0021264
2830	0.0031824
2842	0.0056688
2854	0.0103824
2866	0.0160656
2878	0.0182304
2890	0.016824
2902	0.0162288
2914	0.0235344
2926	0.0375648
2938	0.048
2950	0.0394752
2962	0.0359712
2974	0.0297888
2986	0.01356
2998	0.0064176
3010	0.0039504
3022	0.0028752
3034	0.0022272
3046	0.0017136
3058	0.0013056
3070	0.0010896
3082	0.0009456
3094	0.0008448
3106	0.0007008
3118	0.0006336
3130	0.0005472
3142	0.0005136
3154	0.0004608
3166	0.0004272
3178	0.0004128
3190	0.0003744
3202	0.0003408
3214	0.0002592
3226	0.0002064
3238	0.0001488
3250	0.00012
3262	0.0001536
3274	0.00012
3286	0.0001008
3298	0.0001344
3310	0.0001248
3322	0.0001248
3334	0.000144
3346	0.000192
3358	0.0001488
3370	0.0001296
3382	0.0001056
3394	7.2e-05
3406	8.64e-05
3418	8.64e-05
3430	0.00012
3442	0.0001152
3454	0.0001056
3466	9.6e-05
3478	8.64e-05
3490	0.0001104
3502	2.4e-05
3514	7.68e-05
3526	9.6e-06
3538	1.44e-05
3550	2.4e-05
3562	4.8e-05
3574	8.64e-05
3586	4.32e-05
3598	3.36e-05
3610	6.72e-05
3622	8.64e-05
3634	5.76e-05
3646	0.00012
3658	6.72e-05
3670	0.000144
3682	0.0001296
3694	0.000144
3706	0.0001776
3718	6.24e-05
3730	0.0001344
3742	9.6e-05
3754	0.000168
3766	0.0001248
3778	0.0001152
3790	0.0001776
3802	0.0001872
3814	0.0002064
3826	0.0001824
3838	0.0002064
