Infrared Spectrum: s-Triazine], 2,2'-cyclobut-1,2-ylene-bis[4,6-diamino-
Formula: C10 H14 N10
CAS: 19438-85-8
State: SOLID (SPLIT MULL), FLUOROLUBE FOR 3800-1330 CM^-^1, NUJOL FOR 1330-400 CM^-^1
Melting point: 306 C
Class: COBLENTZ III
Instrument: BECKMAN IR-9 (GRATING)
Instrument parameters: ORDER CHANGES: 670, 1200, 2000 CM^-^1
Sampling: TRANSMISSION
Resolution: 2
Origin: DOW CHEMICAL COMPANY
1/CM	TRANSMITTANCE
401	0.403
410	0.3969
419	0.4032
428	0.4371
437	0.4877
446	0.5135
455	0.531
464	0.534
473	0.5273
482	0.5184
491	0.5159
500	0.5239
509	0.5367
518	0.538
527	0.5335
536	0.5279
545	0.5328
554	0.542
563	0.5465
572	0.5351
581	0.4925
590	0.4439
599	0.4896
608	0.4851
617	0.4871
626	0.4503
635	0.4604
644	0.5102
653	0.535
662	0.5346
671	0.5407
680	0.5502
689	0.5602
698	0.5721
707	0.5613
716	0.5357
725	0.5091
734	0.5492
743	0.5807
752	0.6058
761	0.5968
770	0.619
779	0.7198
788	0.7586
797	0.7779
806	0.7769
815	0.5986
824	0.3802
833	0.5231
842	0.7166
851	0.807
860	0.8215
869	0.8293
878	0.8229
887	0.8084
896	0.8228
905	0.8267
914	0.8128
923	0.7951
932	0.7906
941	0.7674
950	0.7565
959	0.7613
968	0.755
977	0.7162
986	0.6347
995	0.6332
1004	0.6547
1013	0.5682
1022	0.5046
1031	0.5217
1040	0.6192
1049	0.6468
1058	0.6766
1067	0.6609
1076	0.637
1085	0.6188
1094	0.6164
1103	0.6198
1112	0.6232
1121	0.6044
1130	0.613
1139	0.6258
1148	0.6315
1157	0.6312
1166	0.6285
1175	0.6213
1184	0.5901
1193	0.5764
1202	0.5965
1211	0.6093
1220	0.6308
1229	0.6301
1238	0.5939
1247	0.5543
1256	0.445
1265	0.4478
1274	0.5803
1283	0.5983
1292	0.5687
1301	0.539
1310	0.5269
1319	0.5121
1328	0.4992
1337	0.3756
1346	0.3866
1355	0.4081
1364	0.4078
1373	0.394
1382	0.3547
1391	0.2919
1400	0.2006
1409	0.1859
1418	0.2162
1427	0.2127
1436	0.1735
1445	0.157
1454	0.1568
1463	0.2476
1472	0.3344
1481	0.3477
1490	0.2724
1499	0.1936
1508	0.1207
1517	0.0537
1526	0.0281
1535	0.0187
1544	0.022
1553	0.0339
1562	0.055
1571	0.0947
1580	0.149
1589	0.2809
1598	0.4099
1607	0.3958
1616	0.2798
1625	0.1657
1634	0.1076
1643	0.0897
1652	0.0894
1661	0.1508
1670	0.1729
1679	0.2609
1688	0.437
1697	0.6359
1706	0.7325
1715	0.766
1724	0.7763
1733	0.8347
1742	0.8503
1751	0.8641
1760	0.8744
1769	0.8806
1778	0.8826
1787	0.8823
1796	0.8848
1805	0.8857
1814	0.8826
1823	0.8776
1832	0.8741
1841	0.8701
1850	0.868
1859	0.8625
1868	0.8575
1877	0.8573
1886	0.8578
1895	0.859
1904	0.8569
1913	0.8538
1922	0.8497
1931	0.8445
1940	0.8393
1949	0.8345
1958	0.8304
1967	0.8265
1976	0.8213
1985	0.8161
1994	0.8098
2003	0.7923
2012	0.7869
2021	0.7823
2030	0.7779
2039	0.7739
2048	0.7706
2057	0.7673
2066	0.7641
2075	0.7614
2084	0.7589
2093	0.7563
2102	0.7532
2111	0.7491
2120	0.7452
2129	0.7412
2138	0.7372
2147	0.7331
2156	0.7285
2165	0.7239
2174	0.7193
2183	0.7148
2192	0.7103
2201	0.7058
2210	0.7013
2219	0.6964
2228	0.6914
2237	0.6862
2246	0.6811
2255	0.6751
2264	0.6703
2273	0.6662
2282	0.6634
2291	0.6617
2300	0.66
2309	0.6583
2318	0.6567
2327	0.6557
2336	0.6553
2345	0.6548
2354	0.6544
2363	0.6539
2372	0.6536
2381	0.6535
2390	0.6534
2399	0.6519
2408	0.6493
2417	0.646
2426	0.6428
2435	0.6395
2444	0.6364
2453	0.6332
2462	0.6301
2471	0.6268
2480	0.6235
2489	0.6202
2498	0.6169
2507	0.6133
2516	0.6096
2525	0.6064
2534	0.6046
2543	0.6035
2552	0.6019
2561	0.6
2570	0.5963
2579	0.5922
2588	0.588
2597	0.5832
2606	0.5784
2615	0.5731
2624	0.5672
2633	0.5613
2642	0.5542
2651	0.5467
2660	0.5398
2669	0.534
2678	0.5319
2687	0.5297
2696	0.5276
2705	0.5259
2714	0.5244
2723	0.5207
2732	0.517
2741	0.5105
2750	0.5015
2759	0.4914
2768	0.4822
2777	0.4738
2786	0.4666
2795	0.4611
2804	0.4557
2813	0.4515
2822	0.4474
2831	0.4444
2840	0.4414
2849	0.4383
2858	0.4316
2867	0.4244
2876	0.4186
2885	0.4128
2894	0.4024
2903	0.3889
2912	0.375
2921	0.3589
2930	0.3415
2939	0.3294
2948	0.3211
2957	0.3167
2966	0.3127
2975	0.3077
2984	0.3021
2993	0.2958
3002	0.2893
3011	0.2791
3020	0.2685
3029	0.2557
3038	0.2427
3047	0.2293
3056	0.2157
3065	0.2017
3074	0.1871
3083	0.1716
3092	0.1604
3101	0.1536
3110	0.1494
3119	0.1476
3128	0.1477
3137	0.1488
3146	0.1521
3155	0.1572
3164	0.164
3173	0.1728
3182	0.1827
3191	0.194
3200	0.2065
3209	0.2164
3218	0.2297
3227	0.2455
3236	0.2665
3245	0.2914
3254	0.302
3263	0.3029
3272	0.2979
3281	0.284
3290	0.263
3299	0.2427
3308	0.2267
3317	0.2186
3326	0.2167
3335	0.2204
3344	0.2364
3353	0.2513
3362	0.2683
3371	0.2907
3380	0.309
3389	0.3139
3398	0.31
3407	0.301
3416	0.2946
3425	0.2959
3434	0.3048
3443	0.3219
3452	0.3399
3461	0.3594
3470	0.3665
3479	0.4265
3488	0.5151
3497	0.5668
3506	0.5873
3515	0.5972
3524	0.6019
3533	0.6048
3542	0.6064
3551	0.6075
3560	0.6078
3569	0.6082
3578	0.6086
3587	0.6092
3596	0.6106
3605	0.612
3614	0.6131
3623	0.6106
3632	0.5987
3641	0.5883
3650	0.5859
3659	0.6007
3668	0.616
3677	0.6181
3686	0.6158
3695	0.6128
3704	0.6095
3713	0.6057
3722	0.6019
3731	0.5984
3740	0.595
3749	0.5913
3758	0.5876
3767	0.5835
3776	0.5794
3785	0.5761
3794	0.5749
