Infrared Spectrum: m-HYDROXY BENZOIC ACID, METHYL ESTER
Formula: C8 H8 O3
CAS: 19438-10-9
State: SOLID (MINERAL OIL MULL)
Melting point: 71.0-72.5 C
Class: COBLENTZ
Instrument: Not specified, most likely a prism, grating, or hybrid spectrometer.
Sampling: TRANSMISSION
Resolution: 4
Origin: WYANDOTTE CHEMICALS CORP., WYANDOTTE, MICHIGAN, USA
MICROMETERS	TRANSMITTANCE
2.027	0.621
2.0678	0.634
2.10859	0.639
2.14939	0.645
2.19019	0.645
2.23099	0.648
2.27178	0.656
2.31258	0.674
2.35338	0.668
2.39417	0.68
2.43497	0.696
2.47577	0.711
2.51656	0.72
2.55736	0.752
2.59816	0.738
2.63896	0.761
2.67975	0.771
2.72055	0.781
2.76135	0.784
2.80214	0.74
2.84294	0.653
2.88374	0.459
2.92454	0.223
2.96533	0.09
3.00613	0.192
3.04693	0.389
3.08772	0.474
3.12852	0.529
3.16932	0.569
3.21012	0.593
3.25091	0.547
3.29171	0.453
3.33251	0.218
3.3733	0.066
3.4141	0.1
3.4549	0.168
3.49569	0.196
3.53649	0.704
3.57729	0.757
3.61809	0.781
3.65888	0.749
3.69968	0.745
3.74048	0.776
3.78127	0.791
3.82207	0.793
3.86287	0.769
3.90367	0.762
3.94446	0.796
3.98526	0.829
4.02606	0.827
4.06685	0.82
4.10765	0.808
4.14845	0.817
4.18925	0.836
4.23004	0.827
4.27084	0.843
4.31164	0.883
4.35243	0.921
4.39323	0.907
4.43403	0.902
4.47482	0.911
4.51562	0.911
4.55642	0.904
4.59722	0.919
4.63801	0.94
4.67881	0.936
4.71961	0.933
4.7604	0.94
4.8012	0.947
4.842	0.952
4.8828	0.957
4.92359	0.95
4.96439	0.943
5.00519	0.962
5.04598	0.967
5.08678	0.979
5.12758	0.989
5.16838	0.95
5.20917	0.994
5.24997	0.989
5.29077	0.989
5.33156	0.953
5.37236	0.998
5.41316	0.998
5.45395	1.001
5.49475	0.986
5.53555	0.955
5.57635	0.955
5.61714	0.948
5.65794	0.815
5.69874	0.803
5.73953	0.686
5.78033	0.518
5.82113	0.291
5.86193	0.087
5.90272	0.093
5.94352	0.312
5.98432	0.489
6.02511	0.638
6.06591	0.737
6.10671	0.747
6.14751	0.412
6.1883	0.09
6.2291	0.245
6.2699	0.387
6.31069	0.576
6.35149	0.66
6.39229	0.747
6.43308	0.752
6.47388	0.737
6.51468	0.774
6.55548	0.755
6.59627	0.563
6.63707	0.744
6.67787	0.752
6.71866	0.643
6.75946	0.327
6.80026	0.116
6.84106	0.073
6.88185	0.1
6.92265	0.116
6.96345	0.438
7.00424	0.58
7.04504	0.679
7.08584	0.75
7.12664	0.755
7.16743	0.691
7.20823	0.523
7.24903	0.433
7.28982	0.397
7.33062	0.261
7.37142	0.29
7.41221	0.419
7.45301	0.331
7.49381	0.191
7.53461	0.153
7.5754	0.107
7.6162	0.059
7.657	0.177
7.69779	0.307
7.73859	0.438
7.77939	0.513
7.82019	0.501
7.86098	0.465
7.90178	0.354
7.94258	0.186
7.98337	0.069
8.02417	0.042
8.06497	0.049
8.10576	0.069
8.14656	0.095
8.18736	0.172
8.22816	0.269
8.26895	0.313
8.30975	0.354
8.35055	0.402
8.39134	0.385
8.43214	0.462
8.47294	0.511
8.51374	0.535
8.55453	0.561
8.59533	0.508
8.63613	0.493
8.67692	0.576
8.71772	0.61
8.75852	0.624
8.79932	0.621
8.84011	0.622
8.88091	0.621
8.92171	0.597
8.9625	0.361
9.0033	0.312
9.0441	0.522
9.08489	0.631
9.12569	0.66
9.16649	0.663
9.20729	0.605
9.24808	0.276
9.28888	0.327
9.32968	0.592
9.37047	0.67
9.41127	0.711
9.45207	0.732
9.49287	0.75
9.53366	0.761
9.57446	0.771
9.61526	0.786
9.65605	0.79
9.69685	0.8
9.73765	0.812
9.77845	0.819
9.81924	0.822
9.86004	0.825
9.90084	0.841
9.94163	0.829
9.98243	0.559
10.0232	0.752
10.064	0.798
10.1048	0.784
10.1456	0.742
10.1864	0.655
10.2272	0.525
10.268	0.324
10.3088	0.32
10.3496	0.527
10.3904	0.626
10.4312	0.706
10.472	0.742
10.5128	0.762
10.5536	0.783
10.5944	0.796
10.6352	0.796
10.676	0.81
10.7168	0.815
10.7576	0.817
10.7984	0.831
10.8392	0.822
10.88	0.651
10.9208	0.718
10.9616	0.757
11.0024	0.788
11.0432	0.824
11.084	0.844
11.1247	0.843
11.1655	0.834
11.2063	0.779
11.2471	0.656
11.2879	0.339
11.3287	0.286
11.3695	0.598
11.4103	0.788
11.4511	0.849
11.4919	0.866
11.5327	0.89
11.5735	0.899
11.6143	0.899
11.6551	0.902
11.6959	0.907
11.7367	0.907
11.7775	0.911
11.8183	0.911
11.8591	0.912
11.8999	0.912
11.9407	0.916
11.9815	0.911
12.0223	0.919
12.0631	0.919
12.1039	0.921
12.1447	0.919
12.1855	0.911
12.2263	0.882
12.2671	0.779
12.3079	0.82
12.3487	0.895
12.3895	0.901
12.4303	0.902
12.4711	0.831
12.5118	0.656
12.5526	0.462
12.5934	0.501
12.6342	0.687
12.675	0.773
12.7158	0.779
12.7566	0.779
12.7974	0.764
12.8382	0.745
12.879	0.706
12.9198	0.66
12.9606	0.588
13.0014	0.457
13.0422	0.296
13.083	0.141
13.1238	0.078
13.1646	0.129
13.2054	0.249
13.2462	0.406
13.287	0.5
13.3278	0.556
13.3686	0.624
13.4094	0.711
13.4502	0.747
13.491	0.773
13.5318	0.793
13.5726	0.803
13.6134	0.815
13.6542	0.827
13.695	0.839
13.7358	0.841
13.7766	0.844
13.8174	0.844
13.8582	0.846
13.899	0.843
13.9397	0.856
13.9805	0.865
14.0213	0.872
14.0621	0.878
14.1029	0.878
14.1437	0.873
14.1845	0.882
14.2253	0.875
14.2661	0.872
14.3069	0.87
14.3477	0.868
14.3885	0.86
14.4293	0.849
14.4701	0.825
14.5109	0.762
14.5517	0.667
14.5925	0.607
14.6333	0.597
14.6741	0.674
14.7149	0.684
14.7557	0.648
14.7965	0.587
14.8373	0.571
14.8781	0.598
14.9189	0.646
14.9597	0.682
15.0005	0.711
15.0413	0.699
15.0821	0.725
15.1229	0.744
15.1637	0.74
15.2045	0.749
15.2453	0.742
15.2861	0.728
15.3268	0.715
15.3676	0.697
15.4084	0.694
15.4492	0.675
15.49	0.667
15.5308	0.658
15.5716	0.648
15.6124	0.638
15.6532	0.633
15.694	0.624
15.7348	0.612
15.7756	0.605
15.8164	0.598
15.8572	0.592
15.898	0.588
15.9388	0.578
15.9796	0.569
