Infrared Spectrum: 4-Methylphthalic anhydride
Formula: C 9 H 6 O 3
CAS: 19438-61-0
State: gas
Origin: EPA-IR VAPOR PHASE LIBRARY
1/CM	ABSORBANCE
549.8	0.011011
559.445	0.009481
569.09	0.003851
578.734	0.0005386
588.379	0.000215
598.024	0.00044694
607.669	0.000360597
617.313	0.0012568
626.958	0.001851
636.603	0.0012523
646.248	0.002521
655.893	0.004961
665.537	0.010171
675.182	0.004571
684.827	0.0012421
694.472	0.0008402
704.116	0.001811
713.761	0.009531
723.406	0.033231
733.051	0.065861
742.695	0.042471
752.34	0.014491
761.985	0.005401
771.63	0.002751
781.275	0.001981
790.919	0.002141
800.564	0.002251
810.209	0.002361
819.854	0.005991
829.498	0.013801
839.143	0.018801
848.788	0.012301
858.433	0.016451
868.078	0.039611
877.722	0.089931
887.367	0.148421
897.012	0.138551
906.657	0.093051
916.301	0.115231
925.946	0.104531
935.591	0.045061
945.236	0.021641
954.88	0.014671
964.525	0.009591
974.17	0.007471
983.815	0.008141
993.46	0.009151
1003.1	0.007371
1012.75	0.003881
1022.39	0.002551
1032.04	0.002381
1041.68	0.003711
1051.33	0.005221
1060.97	0.006271
1070.62	0.008381
1080.26	0.015461
1089.91	0.027341
1099.55	0.033681
1109.2	0.029931
1118.84	0.016461
1128.49	0.007431
1138.13	0.011961
1147.78	0.039561
1157.42	0.040141
1167.07	0.009561
1176.71	0.003951
1186.36	0.005241
1196	0.015101
1205.64	0.024431
1215.29	0.028511
1224.93	0.030531
1234.58	0.033261
1244.22	0.068151
1253.87	0.155511
1263.51	0.144101
1273.16	0.057351
1282.8	0.047811
1292.45	0.036501
1302.09	0.028911
1311.74	0.024831
1321.38	0.038991
1331.03	0.043671
1340.67	0.020991
1350.32	0.009081
1359.96	0.008811
1369.61	0.008451
1379.25	0.008061
1388.9	0.010021
1398.54	0.009851
1408.18	0.008831
1417.83	0.009571
1427.47	0.012801
1437.12	0.014441
1446.76	0.012881
1456.41	0.011471
1466.05	0.010491
1475.7	0.010931
1485.34	0.015171
1494.99	0.013531
1504.63	0.006931
1514.28	0.005061
1523.92	0.005071
1533.57	0.004801
1543.21	0.003941
1552.86	0.003481
1562.5	0.003491
1572.15	0.003421
1581.79	0.003441
1591.44	0.005381
1601.08	0.009881
1610.73	0.016411
1620.37	0.015791
1630.01	0.010861
1639.66	0.007751
1649.3	0.005261
1658.95	0.004831
1668.59	0.004621
1678.24	0.003551
1687.88	0.003461
1697.53	0.004221
1707.17	0.005021
1716.82	0.005781
1726.46	0.006731
1736.11	0.008201
1745.75	0.011001
1755.4	0.018321
1765.04	0.035031
1774.69	0.071541
1784.33	0.200761
1793.98	0.467831
1803.62	0.535651
1813.27	0.278731
1822.91	0.119001
1832.55	0.086261
1842.2	0.075801
1851.84	0.082901
1861.49	0.147781
1871.13	0.154001
1880.78	0.072961
1890.42	0.033091
1900.07	0.017941
1909.71	0.010191
1919.36	0.006811
1929	0.005511
1938.65	0.005481
1948.29	0.005371
1957.94	0.005371
1967.58	0.005241
1977.23	0.005211
1986.87	0.005781
1996.52	0.006731
2006.16	0.006751
2015.81	0.005561
2025.45	0.004491
2035.1	0.003631
2044.74	0.002841
2054.38	0.002491
2064.03	0.002911
2073.67	0.003041
2083.32	0.002401
2092.96	0.001701
2102.61	0.0013567
2112.25	0.0012014
2121.9	0.001371
2131.54	0.001451
2141.19	0.001511
2150.83	0.001581
2160.48	0.001691
2170.12	0.001841
2179.77	0.001881
2189.41	0.001591
2199.06	0.0013537
2208.7	0.0012642
2218.35	0.0011779
2227.99	0.001381
2237.64	0.001821
2247.28	0.001831
2256.92	0.001561
2266.57	0.0010051
2276.21	0.0008608
2285.86	0.0007641
2295.5	0.0008193
2305.15	0.0008551
2314.79	0.0009307
2324.44	0.001008
2334.08	0.0010622
2343.73	0.001381
2353.37	0.001511
2363.02	0.001651
2372.66	0.001511
2382.31	0.0011903
2391.95	0.0008166
2401.6	0.0007834
2411.24	0.000934
2420.89	0.0012529
2430.53	0.0012125
2440.18	0.0009016
2449.82	0.0005678
2459.47	0.0005608
2469.11	0.0006511
2478.75	0.0006479
2488.4	0.0007451
2498.04	0.0006648
2507.69	0.0006961
2517.33	0.0008852
2526.98	0.0010362
2536.62	0.0013166
2546.27	0.001143
2555.91	0.0009266
2565.56	0.0007546
2575.2	0.0009859
2584.85	0.0011538
2594.49	0.0011271
2604.14	0.0010466
2613.78	0.0009065
2623.43	0.0005611
2633.07	0.0006036
2642.72	0.0008469
2652.36	0.0009326
2662.01	0.0008374
2671.65	0.0008675
2681.29	0.0008837
2690.94	0.0011359
2700.58	0.0012951
2710.23	0.0012335
2719.87	0.0011697
2729.52	0.0008871
2739.16	0.0007631
2748.81	0.0010182
2758.45	0.000816
2768.1	0.000643
2777.74	0.0005564
2787.39	0.0005918
2797.03	0.0006399
2806.68	0.0008647
2816.32	0.0009617
2825.97	0.0010578
2835.61	0.0012266
2845.26	0.001711
2854.9	0.002271
2864.55	0.003361
2874.19	0.004441
2883.84	0.005201
2893.48	0.004861
2903.12	0.004681
2912.77	0.005131
2922.41	0.006921
2932.06	0.011391
2941.7	0.012541
2951.35	0.008801
2960.99	0.005451
2970.64	0.004211
2980.28	0.003611
2989.93	0.003671
2999.57	0.004291
3009.22	0.005531
3018.86	0.005961
3028.51	0.006361
3038.15	0.007921
3047.8	0.009041
3057.44	0.007691
3067.09	0.006361
3076.73	0.005501
3086.38	0.003921
3096.02	0.002851
3105.67	0.002001
3115.31	0.001431
3124.95	0.0008938
3134.6	0.0006742
3144.24	0.0005174
3153.89	0.0005916
3163.53	0.000155
3173.18	0.000237
3182.82	0.0003062
3192.47	0.00042249
3202.11	0.0005318
3211.76	0.0008598
3221.4	0.0007502
3231.05	0.0008982
3240.69	0.0006364
3250.34	0.00042948
3259.98	0.00038972
3269.63	5.8e-05
3279.27	0.000182
3288.92	0.0002724
3298.56	0.00043564
3308.21	0.0003403
3317.85	0.000165
3327.49	0.000226
3337.14	0.000211
3346.78	3.8e-05
3356.43	0.0003145
3366.07	0.000138
3375.72	0.0002792
3385.36	0.000202
3395.01	0.00028
3404.65	0.000526
3414.3	0.0004747
3423.94	0.0005692
3433.59	0.00040721
3443.23	0.00039406
3452.88	0.0003434
3462.52	0.000158
3472.17	0.000258
3481.81	0.000137
3491.46	0.000242
3501.1	0.0005414
3510.75	0.000195
3520.39	0.000326
3530.04	0.0006325
3539.68	0.0006384
3549.32	0.0008415
3558.97	0.0008303
3568.61	0.001391
3578.26	0.001931
3587.9	0.002861
3597.55	0.003221
3607.19	0.003181
3616.84	0.003681
3626.48	0.004351
3636.13	0.005031
3645.77	0.005201
3655.42	0.004721
3665.06	0.003321
3674.71	0.002181
3684.35	0.001531
3694	0.0013353
3703.64	0.000927
3713.29	0.0013302
3722.93	0.0011987
3732.58	0.0010217
3742.22	0.0006503
3751.86	0.0010582
3761.51	0.000649
3771.15	0.00024
3780.8	0.0005277
3790.44	0.00042877
3800.09	0.0006684
3809.73	0.000224
3819.38	0.000302
3829.02	0.00040685
3838.67	0.0004764
3848.31	0.00044081
3857.96	8.6e-05
3867.6	0.0003205
3877.25	0.000116
3886.89	0.000177
3896.54	0.0003045
3906.18	0.00043124
3915.83	0.0005491
3925.47	0.000632
3935.12	0.0004215
3944.76	0.0005027
3954.41	0.00040998
3964.05	0.00037826
3973.69	0.00041734
3983.34	0.0002778
3992.98	0.0005208
