Infrared Spectrum: .alpha.-Phthalimidopropiophenone
Formula: C 17 H 13 N O 3
CAS: 19437-20-8
State: gas
Origin: EPA-IR VAPOR PHASE LIBRARY
1/CM	ABSORBANCE
549.8	0.010901
559.445	0.004381
569.09	0.002191
578.734	0.002371
588.379	0.003011
598.024	0.004191
607.669	0.007871
617.313	0.004061
626.958	0.005451
636.603	0.012391
646.248	0.005671
655.893	0.004021
665.537	0.005261
675.182	0.009211
684.827	0.019551
694.472	0.044021
704.116	0.029551
713.761	0.084221
723.406	0.066811
733.051	0.014801
742.695	0.017521
752.34	0.015901
761.985	0.008571
771.63	0.005771
781.275	0.008171
790.919	0.008671
800.564	0.003521
810.209	0.002591
819.854	0.002031
829.498	0.002241
839.143	0.002621
848.788	0.002671
858.433	0.003381
868.078	0.007271
877.722	0.021301
887.367	0.019331
897.012	0.013601
906.657	0.007321
916.301	0.007591
925.946	0.008321
935.591	0.006761
945.236	0.009011
954.88	0.021381
964.525	0.049531
974.17	0.030181
983.815	0.011131
993.46	0.010901
1003.1	0.018541
1012.75	0.021101
1022.39	0.017951
1032.04	0.012431
1041.68	0.009811
1051.33	0.012141
1060.97	0.014461
1070.62	0.017551
1080.26	0.020671
1089.91	0.017751
1099.55	0.015331
1109.2	0.011031
1118.84	0.008801
1128.49	0.011171
1138.13	0.018321
1147.78	0.019741
1157.42	0.016551
1167.07	0.014451
1176.71	0.017691
1186.36	0.018731
1196	0.015631
1205.64	0.016361
1215.29	0.028411
1224.93	0.048291
1234.58	0.039581
1244.22	0.024801
1253.87	0.013871
1263.51	0.010291
1273.16	0.010951
1282.8	0.015361
1292.45	0.018341
1302.09	0.021431
1311.74	0.028631
1321.38	0.037821
1331.03	0.042761
1340.67	0.060291
1350.32	0.070221
1359.96	0.087721
1369.61	0.146901
1379.25	0.224591
1388.9	0.093181
1398.54	0.031561
1408.18	0.017111
1417.83	0.015131
1427.47	0.013361
1437.12	0.011881
1446.76	0.019831
1456.41	0.017531
1466.05	0.016451
1475.7	0.011011
1485.34	0.005561
1494.99	0.004231
1504.63	0.003581
1514.28	0.003601
1523.92	0.003681
1533.57	0.003891
1543.21	0.003881
1552.86	0.003731
1562.5	0.004251
1572.15	0.006191
1581.79	0.008041
1591.44	0.009971
1601.08	0.011431
1610.73	0.010741
1620.37	0.007351
1630.01	0.005031
1639.66	0.004431
1649.3	0.004751
1658.95	0.005631
1668.59	0.007721
1678.24	0.011101
1687.88	0.016681
1697.53	0.029931
1707.17	0.061301
1716.82	0.143961
1726.46	0.280311
1736.11	0.351101
1745.75	0.101671
1755.4	0.048931
1765.04	0.039131
1774.69	0.037731
1784.33	0.054261
1793.98	0.041311
1803.62	0.014321
1813.27	0.008171
1822.91	0.005241
1832.55	0.004801
1842.2	0.004841
1851.84	0.003841
1861.49	0.003511
1871.13	0.003681
1880.78	0.003281
1890.42	0.003481
1900.07	0.003731
1909.71	0.003541
1919.36	0.002651
1929	0.002741
1938.65	0.003451
1948.29	0.003261
1957.94	0.002921
1967.58	0.003451
1977.23	0.002391
1986.87	0.0013494
1996.52	0.0010895
2006.16	0.0009435
2015.81	0.000808
2025.45	0.0008514
2035.1	0.0009581
2044.74	0.0010286
2054.38	0.0012093
2064.03	0.0012095
2073.67	0.0012148
2083.32	0.0011438
2092.96	0.0010202
2102.61	0.0009061
2112.25	0.0008253
2121.9	0.0007425
2131.54	0.0007521
2141.19	0.0007481
2150.83	0.0007468
2160.48	0.0008347
2170.12	0.0008042
2179.77	0.0007942
2189.41	0.0007724
2199.06	0.0008186
2208.7	0.0007776
2218.35	0.0007596
2227.99	0.0009099
2237.64	0.0009166
2247.28	0.0012457
2256.92	0.0012511
2266.57	0.0011194
2276.21	0.0009312
2285.86	0.0009538
2295.5	0.0009183
2305.15	0.0009935
2314.79	0.001451
2324.44	0.001431
2334.08	0.0011955
2343.73	0.0012068
2353.37	0.0011508
2363.02	0.0011522
2372.66	0.0012272
2382.31	0.0012284
2391.95	0.0011609
2401.6	0.0010839
2411.24	0.0011225
2420.89	0.0011112
2430.53	0.0012056
2440.18	0.0012416
2449.82	0.001268
2459.47	0.0013245
2469.11	0.0011726
2478.75	0.0010464
2488.4	0.0008931
2498.04	0.0007876
2507.69	0.0008337
2517.33	0.0009514
2526.98	0.0008464
2536.62	0.0008599
2546.27	0.0008215
2555.91	0.0007651
2565.56	0.000744
2575.2	0.0007872
2584.85	0.0006029
2594.49	0.0007689
2604.14	0.0006067
2613.78	0.0005977
2623.43	0.0007765
2633.07	0.0009304
2642.72	0.0009274
2652.36	0.0008851
2662.01	0.0007883
2671.65	0.0009682
2681.29	0.0009332
2690.94	0.0009201
2700.58	0.0008664
2710.23	0.0005498
2719.87	0.00040973
2729.52	0.00050303
2739.16	0.0006568
2748.81	0.0006924
2758.45	0.0006125
2768.1	0.0007859
2777.74	0.0008917
2787.39	0.0011098
2797.03	0.0009446
2806.68	0.0008475
2816.32	0.0010219
2825.97	0.0009579
2835.61	0.0010235
2845.26	0.0009263
2854.9	0.0011751
2864.55	0.001481
2874.19	0.002371
2883.84	0.003381
2893.48	0.003241
2903.12	0.003701
2912.77	0.005911
2922.41	0.009911
2932.06	0.006591
2941.7	0.009881
2951.35	0.012261
2960.99	0.005031
2970.64	0.003421
2980.28	0.003991
2989.93	0.008131
2999.57	0.011491
3009.22	0.007561
3018.86	0.004611
3028.51	0.005621
3038.15	0.007001
3047.8	0.007631
3057.44	0.012231
3067.09	0.020111
3076.73	0.019051
3086.38	0.017631
3096.02	0.011821
3105.67	0.005011
3115.31	0.002471
3124.95	0.001421
3134.6	0.001261
3144.24	0.001022
3153.89	0.0011568
3163.53	0.0009453
3173.18	0.0008932
3182.82	0.0005662
3192.47	0.000645
3202.11	0.0006856
3211.76	0.0009321
3221.4	0.0006363
3231.05	0.0005105
3240.69	0.0004031
3250.34	0.00045166
3259.98	0.000343
3269.63	0.00041465
3279.27	0.000309
3288.92	0.000257
3298.56	0.00026
3308.21	0.000148
3317.85	0.000235
3327.49	0.0005172
3337.14	0.000344
3346.78	0.00047833
3356.43	0.000547
3366.07	0.000234
3375.72	0.0005583
3385.36	0.0006558
3395.01	0.0010019
3404.65	0.0013061
3414.3	0.001531
3423.94	0.0013691
3433.59	0.0009656
3443.23	0.0010019
3452.88	0.001461
3462.52	0.001541
3472.17	0.001641
3481.81	0.001881
3491.46	0.002491
3501.1	0.003101
3510.75	0.002491
3520.39	0.001571
3530.04	0.0009308
3539.68	0.0007192
3549.32	0.0006282
3558.97	0.0006038
3568.61	0.00040925
3578.26	0.0005761
3587.9	0.000303
3597.55	0.0006055
3607.19	0.0004706
3616.84	0.000171
3626.48	0.000301
3636.13	0.0003985
3645.77	0.00049369
3655.42	0.0003645
3665.06	0.000301
3674.71	0.0003443
3684.35	0.0003437
3694	0.00021
3703.64	0.0003802
3713.29	0.0005764
3722.93	0.000418168
3732.58	0.000414348
3742.22	0.0003143
3751.86	0.000261
3761.51	0.0003745
3771.15	0.00044013
3780.8	0.0005267
3790.44	0.000264
3800.09	0.000221
3809.73	0.0003987
3819.38	0.000116
3829.02	0.00014
3838.67	8.2e-05
3848.31	0.00049534
3857.96	0.000166
3867.6	0.000235
3877.25	0.000257
3886.89	0.00029
3896.54	0.000268
3906.18	0.0003213
3915.83	0.0003953
3925.47	0.000266
3935.12	0.00044879
3944.76	0.00050201
3954.41	0.0003702
3964.05	0.00023
3973.69	0.000298
3983.34	0.000171
3992.98	0.0003692
