Infrared Spectrum: 2-Nonyne
Formula: C 9 H 16
CAS: 19447-29-1
State: gas
Instrument: HP-GC/MS/IRD
Origin: NIST Mass Spectrometry Data Center
1/CM	ABSORBANCE
550	0.000325
562	0.000375
574	0.000325
586	0.000175
598	0.000165
610	0.000105
622	0.000125
634	7.5e-05
646	3.5e-05
658	3.5e-05
670	9.5e-05
682	0.00012
694	0.000225
706	0.00036
718	0.000535
730	0.000635
742	0.00055
754	0.00034
766	0.00032
778	0.00027
790	0.000165
802	0.000225
814	0.00012
826	0.000165
838	0.00016
850	0.00018
862	0.000235
874	0.00027
886	0.00031
898	0.00023
910	0.000205
922	0.000195
934	0.00016
946	0.000175
958	0.00018
970	0.000205
982	0.0002
994	0.00022
1006	0.00022
1018	0.000245
1030	0.000245
1042	0.00025
1054	0.000275
1066	0.000225
1078	0.000185
1090	0.000235
1102	0.000285
1114	0.00031
1126	0.000155
1138	0.00015
1150	0.000135
1162	0.00017
1174	0.000185
1186	0.00026
1198	0.00027
1210	0.000295
1222	0.00035
1234	0.000435
1246	0.00049
1258	0.000625
1270	0.00082
1282	0.000955
1294	0.001205
1306	0.001495
1318	0.00195
1330	0.00272
1342	0.002695
1354	0.00237
1366	0.00217
1378	0.0026
1390	0.002145
1402	0.00134
1414	0.001445
1426	0.00198
1438	0.00341
1450	0.00428
1462	0.004655
1474	0.003355
1486	0.001915
1498	0.001375
1510	0.00096
1522	0.000785
1534	0.00068
1546	0.000605
1558	0.000455
1570	0.0004
1582	0.000385
1594	0.00029
1606	0.000245
1618	0.00023
1630	0.00016
1642	0.000145
1654	0.00011
1666	9.5e-05
1678	0.000105
1690	5.5e-05
1702	6.5e-05
1714	5e-05
1726	5e-05
1738	4e-05
1750	5.5e-05
1762	4e-05
1774	3e-05
1786	5e-05
1798	2e-05
1810	1.5e-05
1822	4e-05
1834	3e-05
1846	3.5e-05
1858	3.5e-05
1870	5e-06
1882	2e-05
1894	2e-05
1906	1e-05
1918	0
1930	2e-05
1942	1e-05
1954	2e-05
1966	5e-06
1978	4.5e-05
1990	2e-05
2002	5e-05
2014	5e-05
2026	7e-05
2038	0.000135
2050	0.0002
2062	0.000175
2074	0.000115
2086	6e-05
2098	6e-05
2110	5.5e-05
2122	8e-05
2134	5e-05
2146	5.5e-05
2158	6.5e-05
2170	9e-05
2182	8e-05
2194	6.5e-05
2206	6e-05
2218	6.5e-05
2230	6.5e-05
2242	5.5e-05
2254	6e-05
2266	6e-05
2278	8e-05
2290	7.5e-05
2302	7.5e-05
2314	7e-05
2326	8.5e-05
2338	8e-05
2350	9e-05
2362	9e-05
2374	0.000105
2386	0.000125
2398	0.000145
2410	0.00017
2422	0.000145
2434	0.00016
2446	0.000135
2458	0.000165
2470	0.00017
2482	0.0002
2494	0.0002
2506	0.00021
2518	0.000205
2530	0.0002
2542	0.00022
2554	0.000265
2566	0.00026
2578	0.000285
2590	0.00027
2602	0.000285
2614	0.0003
2626	0.00035
2638	0.000425
2650	0.00046
2662	0.00053
2674	0.000555
2686	0.00054
2698	0.000515
2710	0.000525
2722	0.00062
2734	0.00079
2746	0.001035
2758	0.00097
2770	0.000935
2782	0.00101
2794	0.00129
2806	0.00158
2818	0.00219
2830	0.003215
2842	0.00587
2854	0.011675
2866	0.01768
2878	0.0179
2890	0.01459
2902	0.015375
2914	0.02376
2926	0.040365
2938	0.05
2950	0.035675
2962	0.0257
2974	0.019625
2986	0.00909
2998	0.005165
3010	0.00375
3022	0.00275
3034	0.002395
3046	0.001755
3058	0.00152
3070	0.00121
3082	0.001
3094	0.000905
3106	0.00068
3118	0.000625
3130	0.000535
3142	0.00048
3154	0.000445
3166	0.000375
3178	0.000365
3190	0.00034
3202	0.000315
3214	0.00029
3226	0.00023
3238	0.00019
3250	0.000155
3262	0.000115
3274	0.00014
3286	0.00019
3298	0.00013
3310	0.000195
3322	0.000185
3334	0.000215
3346	0.00019
3358	0.000145
3370	0.000135
3382	0.000135
3394	0.000135
3406	0.00014
3418	0.000145
3430	0.000155
3442	0.00013
3454	0.000205
3466	0.00012
3478	8.5e-05
3490	7e-05
3502	0.00011
3514	6.5e-05
3526	9.5e-05
3538	5.5e-05
3550	5e-05
3562	9e-05
3574	4.5e-05
3586	4e-05
3598	8.5e-05
3610	0.000135
3622	0.0001
3634	0.000155
3646	0.00019
3658	0.000155
3670	0.000105
3682	0.0001
3694	0.00015
3706	9e-05
3718	0.00013
3730	0.000145
3742	0.000145
3754	0.00016
3766	0.00014
3778	0.00012
3790	0.00014
3802	0.00014
3814	0.00013
3826	0.00018
3838	0.000105
