Infrared Spectrum: N,N-Dimethylformamide ethylene acetal
Formula: C 5 H 11 N O 2
CAS: 19449-26-4
State: gas
Origin: EPA-IR VAPOR PHASE LIBRARY
1/CM	ABSORBANCE
549.9	0.002479
559.547	0.002516
569.193	0.002361
578.84	0.00207
588.486	0.00182
598.133	0.00178
607.779	0.00173
617.426	0.00197
627.072	0.00217
636.719	0.002863
646.365	0.0034045
656.012	0.0038885
665.658	0.0037065
675.305	0.00331583
684.951	0.002749
694.598	0.002603
704.245	0.00273
713.891	0.0045
723.538	0.00744
733.184	0.00824
742.831	0.00652
752.477	0.0034688
762.124	0.003097
771.77	0.00329497
781.417	0.00337756
791.063	0.0035145
800.71	0.0038275
810.356	0.00453
820.003	0.00551
829.649	0.00723
839.296	0.01108
848.943	0.01278
858.589	0.01363
868.236	0.01676
877.882	0.01674
887.529	0.02066
897.175	0.02633
906.822	0.03376
916.468	0.03876
926.115	0.04115
935.761	0.04056
945.408	0.03491
955.054	0.02775
964.701	0.02248
974.347	0.02195
983.994	0.02226
993.64	0.02199
1003.29	0.02223
1012.93	0.02376
1022.58	0.0273
1032.23	0.03298
1041.87	0.04066
1051.52	0.04829
1061.17	0.05341
1070.81	0.05971
1080.46	0.07918
1090.11	0.10446
1099.75	0.11746
1109.4	0.1129
1119.05	0.10035
1128.69	0.08709
1138.34	0.0678
1147.99	0.04926
1157.63	0.03354
1167.28	0.02422
1176.92	0.01854
1186.57	0.01614
1196.22	0.0166
1205.86	0.01854
1215.51	0.02068
1225.16	0.02164
1234.8	0.0207
1244.45	0.01886
1254.1	0.01783
1263.74	0.01834
1273.39	0.01975
1283.04	0.01961
1292.68	0.02002
1302.33	0.02331
1311.98	0.02725
1321.62	0.02685
1331.27	0.02402
1340.92	0.02239
1350.56	0.0247
1360.21	0.0268
1369.86	0.02662
1379.5	0.02632
1389.15	0.03008
1398.79	0.03114
1408.44	0.02603
1418.09	0.0195
1427.73	0.01564
1437.38	0.01807
1447.03	0.02375
1456.67	0.02748
1466.32	0.02909
1475.97	0.02855
1485.61	0.02491
1495.26	0.01804
1504.91	0.01228
1514.55	0.00917
1524.2	0.0071
1533.85	0.00589
1543.49	0.00509
1553.14	0.00467
1562.79	0.00439
1572.43	0.0042456
1582.08	0.0040866
1591.73	0.0040525
1601.37	0.0039565
1611.02	0.0038895
1620.67	0.0039748
1630.31	0.0039989
1639.96	0.0040792
1649.6	0.00431
1659.25	0.00507
1668.9	0.00688
1678.54	0.01318
1688.19	0.03081
1697.84	0.05452
1707.48	0.06381
1717.13	0.06654
1726.78	0.06856
1736.42	0.03211
1746.07	0.01878
1755.72	0.00873
1765.36	0.00599
1775.01	0.00452
1784.66	0.0036309
1794.3	0.0031915
1803.95	0.002862
1813.6	0.002718
1823.24	0.002614
1832.89	0.002513
1842.54	0.002509
1852.18	0.002566
1861.83	0.002551
1871.47	0.002586
1881.12	0.002623
1890.77	0.002607
1900.41	0.002687
1910.06	0.002599
1919.71	0.002756
1929.35	0.002787
1939	0.002778
1948.65	0.002733
1958.29	0.002723
1967.94	0.002744
1977.59	0.002745
1987.23	0.002708
1996.88	0.002744
2006.53	0.002782
2016.17	0.002864
2025.82	0.002862
2035.47	0.002883
2045.11	0.00276
2054.76	0.002774
2064.41	0.002827
2074.05	0.002944
2083.7	0.003
2093.35	0.002968
2102.99	0.002873
2112.64	0.002712
2122.28	0.002541
2131.93	0.002406
2141.58	0.00227
2151.22	0.002336
2160.87	0.00232
2170.52	0.00226
2180.16	0.002284
2189.81	0.00225
2199.46	0.00225
2209.1	0.00219
2218.75	0.00223
2228.4	0.0022
2238.04	0.00223
2247.69	0.002307
2257.34	0.002317
2266.98	0.002321
2276.63	0.002319
2286.28	0.002381
2295.92	0.002424
2305.57	0.002503
2315.22	0.002519
2324.86	0.002571
2334.51	0.002575
2344.16	0.002611
2353.8	0.002712
2363.45	0.002812
2373.09	0.002711
2382.74	0.002344
2392.39	0.00208
2402.03	0.00214
2411.68	0.00213
2421.33	0.00212
2430.97	0.00209
2440.62	0.00219
2450.27	0.00213
2459.91	0.00211
2469.56	0.00205
2479.21	0.00215
2488.85	0.00206
2498.5	0.00212
2508.15	0.00219
2517.79	0.00225
2527.44	0.00227
2537.09	0.00225
2546.73	0.002392
2556.38	0.002651
2566.03	0.002773
2575.67	0.002761
2585.32	0.002754
2594.96	0.002842
2604.61	0.002966
2614.26	0.003032
2623.9	0.0033229
2633.55	0.0034347
2643.2	0.0036591
2652.84	0.0036206
2662.49	0.0036997
2672.14	0.0039774
2681.78	0.00447
2691.43	0.00485
2701.08	0.00483
2710.72	0.00496
2720.37	0.00545
2730.02	0.00639
2739.66	0.00779
2749.31	0.00959
2758.96	0.01239
2768.6	0.01668
2778.25	0.02247
2787.9	0.02736
2797.54	0.02851
2807.19	0.02749
2816.84	0.02972
2826.48	0.036
2836.13	0.04166
2845.77	0.04673
2855.42	0.05157
2865.07	0.0582
2874.71	0.06479
2884.36	0.06881
2894.01	0.06857
2903.65	0.06561
2913.3	0.06216
2922.95	0.0583
2932.59	0.05879
2942.24	0.06461
2951.89	0.07217
2961.53	0.07165
2971.18	0.06412
2980.83	0.05361
2990.47	0.044
3000.12	0.03429
3009.77	0.02414
3019.41	0.01637
3029.06	0.01244
3038.71	0.01
3048.35	0.00832
3058	0.00956
3067.64	0.01049
3077.29	0.00525
3086.94	0.00504
3096.58	0.00489
3106.23	0.00439
3115.88	0.0035747
3125.52	0.00282
3135.17	0.00199
3144.82	0.00167
3154.46	0.00165
3164.11	0.00116
3173.76	0.00106
3183.4	0.00102
3193.05	0.00077
3202.7	0.00065
3212.34	0.00061
3221.99	0.00059
3231.64	0.00025
3241.28	0.00037
3250.93	0.00036
3260.58	0.00035
3270.22	0.00026
3279.87	0.00041
3289.52	0.00015
3299.16	0.00029
3308.81	0.00029
3318.45	0.00029
3328.1	0.00011
3337.75	0.00028
3347.39	0.00045
3357.04	0.00055
3366.69	0.00047
3376.33	0.0005
3385.98	0.00076
3395.63	0.00095
3405.27	0.00098
3414.92	0.00115
3424.57	0.00101
3434.21	0.00055
3443.86	0.00073
3453.51	0.0005
3463.15	0.00056
3472.8	0.0006
3482.45	0.00058
3492.09	0.00061
3501.74	0.00059
3511.39	0.00053
3521.03	0.00068
3530.68	0.00071
3540.33	0.00074
3549.97	0.00062
3559.62	0.00065
3569.26	0.00065
3578.91	0.00051
3588.56	0.00081
3598.2	0.00097
3607.85	0.00077
3617.5	0.00073
3627.14	0.00085
3636.79	0.00083
3646.44	0.0008
3656.08	0.00092
3665.73	0.00086
3675.38	0.00094
3685.02	0.00109
3694.67	0.00111
3704.32	0.00092
3713.96	0.0012
3723.61	0.0011
3733.26	0.00114
3742.9	0.00121
3752.55	0.00119
3762.2	0.00119
3771.84	0.00118
3781.49	0.00129
3791.13	0.0013
3800.78	0.00124
3810.43	0.00131
3820.07	0.00125
3829.72	0.0015
3839.37	0.00136
3849.01	0.00132
3858.66	0.00138
3868.31	0.00141
3877.95	0.00145
3887.6	0.00145
3897.25	0.00162
3906.89	0.00152
3916.54	0.00164
3926.19	0.0018
3935.83	0.00181
3945.48	0.00163
3955.13	0.0016
3964.77	0.00177
3974.42	0.0017
3984.07	0.00179
3993.71	0.00183
