Infrared Spectrum: 2-Ethynylpyridine
Formula: C 7 H 5 N
CAS: 1945-84-2
State: gas
Origin: EPA-IR VAPOR PHASE LIBRARY
1/CM	ABSORBANCE
549.8	0.00217
559.445	0.001766
569.09	0.0019492
578.734	0.0014559
588.379	0.0012076
598.024	0.00251
607.669	0.0067
617.313	0.01506
626.958	0.02896
636.603	0.05358
646.248	0.06647
655.893	0.02823
665.537	0.01368
675.182	0.00533
684.827	0.0032
694.472	0.00243
704.116	0.00256
713.761	0.00383
723.406	0.00651
733.051	0.00992
742.695	0.01123
752.34	0.01464
761.985	0.02201
771.63	0.03209
781.275	0.03214
790.919	0.02082
800.564	0.01044
810.209	0.00423
819.854	0.00283
829.498	0.00204
839.143	0.00263
848.788	0.00159
858.433	0.00304
868.078	0.00206
877.722	0.00244
887.367	0.00228
897.012	0.00265
906.657	0.0026
916.301	0.00217
925.946	0.0014532
935.591	0.0016868
945.236	0.00208
954.88	0.001222
964.525	0.00216
974.17	0.00348
983.815	0.00441
993.46	0.00512
1003.1	0.00296
1012.75	0.00213
1022.39	0.00271
1032.04	0.00412
1041.68	0.00448
1051.33	0.00443
1060.97	0.00233
1070.62	0.0033
1080.26	0.00322
1089.91	0.00358
1099.55	0.00229
1109.2	0.00435
1118.84	0.00377
1128.49	0.00392
1138.13	0.00667
1147.78	0.00835
1157.42	0.00684
1167.07	0.00303
1176.71	0.00268
1186.36	0.00456
1196	0.00501
1205.64	0.00614
1215.29	0.00718
1224.93	0.00806
1234.58	0.01169
1244.22	0.01778
1253.87	0.02545
1263.51	0.02491
1273.16	0.022
1282.8	0.0117
1292.45	0.00766
1302.09	0.00486
1311.74	0.00376
1321.38	0.00249
1331.03	0.0018048
1340.67	0.0014022
1350.32	0.0015262
1359.96	0.0013393
1369.61	0.0016256
1379.25	0.0018371
1388.9	0.00219
1398.54	0.0029
1408.18	0.00636
1417.83	0.01837
1427.47	0.02187
1437.12	0.02308
1446.76	0.01814
1456.41	0.02963
1466.05	0.02852
1475.7	0.01505
1485.34	0.00515
1494.99	0.00278
1504.63	0.00263
1514.28	0.00265
1523.92	0.0031
1533.57	0.00436
1543.21	0.0074
1552.86	0.01226
1562.5	0.0226
1572.15	0.03966
1581.79	0.03946
1591.44	0.02532
1601.08	0.0084
1610.73	0.00363
1620.37	0.00275
1630.01	0.00247
1639.66	0.00232
1649.3	0.00211
1658.95	0.00228
1668.59	0.00212
1678.24	0.0015497
1687.88	0.0018163
1697.53	0.0016737
1707.17	0.0016564
1716.82	0.0019563
1726.46	0.00225
1736.11	0.00239
1745.75	0.00232
1755.4	0.00216
1765.04	0.00235
1774.69	0.00218
1784.33	0.0017862
1793.98	0.0014382
1803.62	0.0014676
1813.27	0.0016319
1822.91	0.0016337
1832.55	0.00213
1842.2	0.00201
1851.84	0.00232
1861.49	0.00232
1871.13	0.00209
1880.78	0.0017838
1890.42	0.0013737
1900.07	0.0016816
1909.71	0.00233
1919.36	0.00232
1929	0.00259
1938.65	0.00252
1948.29	0.00236
1957.94	0.00237
1967.58	0.00218
1977.23	0.0019505
1986.87	0.0014312
1996.52	0.0013078
2006.16	0.0011534
2015.81	0.0012003
2025.45	0.0011249
2035.1	0.0011356
2044.74	0.0009886
2054.38	0.00101278
2064.03	0.0012196
2073.67	0.001201
2083.32	0.001266
2092.96	0.001871
2102.61	0.0019801
2112.25	0.00234
2121.9	0.00254
2131.54	0.0019766
2141.19	0.0011863
2150.83	0.0011349
2160.48	0.0011036
2170.12	0.0012353
2179.77	0.000845
2189.41	0.00108378
2199.06	0.0012153
2208.7	0.0011111
2218.35	0.0012511
2227.99	0.00102697
2237.64	0.0011884
2247.28	0.0011792
2256.92	0.0013173
2266.57	0.0013618
2276.21	0.00104774
2285.86	0.0014108
2295.5	0.0011012
2305.15	0.00107302
2314.79	0.00108647
2324.44	0.000852
2334.08	0.00101914
2343.73	0.00103251
2353.37	0.0012736
2363.02	0.0011326
2372.66	0.00102366
2382.31	0.0009699
2391.95	0.0010185
2401.6	0.0009481
2411.24	0.000826
2420.89	0.0011812
2430.53	0.00104206
2440.18	0.0011681
2449.82	0.000873
2459.47	0.00108986
2469.11	0.0011755
2478.75	0.000826
2488.4	0.00099063
2498.04	0.0009688
2507.69	0.000869
2517.33	0.0009888
2526.98	0.0011456
2536.62	0.0009882
2546.27	0.000944
2555.91	0.000725
2565.56	0.000783
2575.2	0.0012992
2584.85	0.000709
2594.49	0.000642
2604.14	0.0014671
2613.78	0.00086
2623.43	0.000617
2633.07	0.000703
2642.72	0.0009431
2652.36	0.0010957
2662.01	0.0015684
2671.65	0.00107768
2681.29	0.0011539
2690.94	0.000809
2700.58	0.0013616
2710.23	0.00108695
2719.87	0.00082
2729.52	0.000846
2739.16	0.0009619
2748.81	0.0012357
2758.45	0.0012336
2768.1	0.0011114
2777.74	0.0012248
2787.39	0.0011384
2797.03	0.001103
2806.68	0.0011438
2816.32	0.0012347
2825.97	0.00072
2835.61	0.000841
2845.26	0.0015297
2854.9	0.0013281
2864.55	0.00099311
2874.19	0.0010453
2883.84	0.0013397
2893.48	0.0015308
2903.12	0.00106738
2912.77	0.0012772
2922.41	0.0011323
2932.06	0.0013419
2941.7	0.0010838
2951.35	0.0012009
2960.99	0.0014549
2970.64	0.0012746
2980.28	0.00216
2989.93	0.00304
2999.57	0.0057
3009.22	0.00665
3018.86	0.0057
3028.51	0.00417
3038.15	0.00468
3047.8	0.00863
3057.44	0.01409
3067.09	0.01785
3076.73	0.01788
3086.38	0.01195
3096.02	0.00842
3105.67	0.00352
3115.31	0.00319
3124.95	0.002
3134.6	0.00242
3144.24	0.0016559
3153.89	0.0016185
3163.53	0.0011765
3173.18	0.00209
3182.82	0.000712
3192.47	0.00105096
3202.11	0.000741
3211.76	0.000676
3221.4	0.0012099
3231.05	0.00101203
3240.69	0.0012711
3250.34	0.0012662
3259.98	0.0013327
3269.63	0.00255
3279.27	0.0045
3288.92	0.00746
3298.56	0.0139
3308.21	0.02161
3317.85	0.03535
3327.49	0.03519
3337.14	0.02421
3346.78	0.00813
3356.43	0.00357
3366.07	0.00231
3375.72	0.0017793
3385.36	0.0014418
3395.01	0.0009185
3404.65	0.000682
3414.3	0.0012922
3423.94	0.0009481
3433.59	0.000735
3443.23	0.000798
3452.88	0.000775
3462.52	0.0011555
3472.17	0.00103974
3481.81	0.0010764
3491.46	0.000516
3501.1	0.0013054
3510.75	0.0012408
3520.39	0.0011698
3530.04	0.0011075
3539.68	0.0009337
3549.32	0.000753
3558.97	0.00061
3568.61	0.0013789
3578.26	0.0016717
3587.9	0.0014017
3597.55	0.0009775
3607.19	0.0013801
3616.84	0.0012236
3626.48	0.000406
3636.13	0.000811
3645.77	0.0011893
3655.42	0.0016295
3665.06	0.00101834
3674.71	0.0013038
3684.35	0.00104297
3694	0.0013469
3703.64	0.00106623
3713.29	0.0016693
3722.93	0.0015589
3732.58	0.0010142
3742.22	0.0013369
3751.86	0.000626
3761.51	0.0014507
3771.15	0.000653
3780.8	0.00109835
3790.44	0.00109371
3800.09	0.0013453
3809.73	0.000848
3819.38	0.00109611
3829.02	0.0013726
3838.67	0.0016081
3848.31	0.0014837
3857.96	0.000731
3867.6	0.0015299
3877.25	0.0011517
3886.89	0.000532
3896.54	0.00102788
3906.18	0.00105009
3915.83	0.0011321
3925.47	0.0013582
3935.12	0.00209
3944.76	0.0012738
3954.41	0.0016531
3964.05	0.0011359
3973.69	0.0009375
3983.34	0.0013997
3992.98	0.0012635
