Infrared Spectrum: Hexanoic acid, 6-(carboxyamino)-, N-benzyl ester
Formula: C14 H19 N O4
CAS: 1947-00-8
State: SOLID (SPLIT MULL), FLUOROLUBE FOR 3800-1330 CM^-^1, NUJOL FOR 1330-400 CM^-^1
Class: COBLENTZ III
Instrument: DOW KBr FOREPRISM-GRATING
Instrument parameters: BLAZED AT 3.5, 12.0, 20.0 MICRON AND CHANGED AT 5.0, 7.5, 14.9 MICRON
Sampling: TRANSMISSION
Resolution: 2
Origin: DOW CHEMICAL COMPANY
1/CM	TRANSMITTANCE
3796	0.6176
3787	0.6193
3778	0.621
3769	0.6227
3760	0.6237
3751	0.624
3742	0.6252
3733	0.6268
3724	0.6287
3715	0.6308
3706	0.6331
3697	0.635
3688	0.6365
3679	0.638
3670	0.6395
3661	0.641
3652	0.6425
3643	0.6444
3634	0.6462
3625	0.6482
3616	0.65
3607	0.6518
3598	0.6539
3589	0.6562
3580	0.6586
3571	0.661
3562	0.6634
3553	0.6658
3544	0.6684
3535	0.671
3526	0.6736
3517	0.6761
3508	0.6793
3499	0.6822
3490	0.6855
3481	0.6892
3472	0.6928
3463	0.6965
3454	0.7008
3445	0.7054
3436	0.7099
3427	0.7136
3418	0.7175
3409	0.7184
3400	0.7174
3391	0.7147
3382	0.708
3373	0.6897
3364	0.621
3355	0.4864
3346	0.1667
3337	0.3144
3328	0.3932
3319	0.4462
3310	0.4838
3301	0.5164
3292	0.5483
3283	0.5714
3274	0.5868
3265	0.5959
3256	0.6006
3247	0.6037
3238	0.6036
3229	0.6034
3220	0.6018
3211	0.5997
3202	0.5973
3193	0.5934
3184	0.5895
3175	0.5851
3166	0.5805
3157	0.5741
3148	0.567
3139	0.5587
3130	0.5503
3121	0.5418
3112	0.5318
3103	0.5216
3094	0.5119
3085	0.5039
3076	0.4922
3067	0.4791
3058	0.4746
3049	0.476
3040	0.4737
3031	0.4614
3022	0.4779
3013	0.4847
3004	0.4927
2995	0.5012
2986	0.5082
2977	0.4716
2968	0.4358
2959	0.459
2950	0.4276
2941	0.3028
2932	0.288
2923	0.335
2914	0.3637
2905	0.3858
2896	0.4328
2887	0.4476
2878	0.4589
2869	0.4473
2860	0.4341
2851	0.4262
2842	0.461
2833	0.4858
2824	0.5046
2815	0.5172
2806	0.5292
2797	0.5372
2788	0.5451
2779	0.5522
2770	0.5582
2761	0.5617
2752	0.5644
2743	0.5666
2734	0.572
2725	0.5778
2716	0.5805
2707	0.5828
2698	0.5859
2689	0.5866
2680	0.5864
2671	0.5859
2662	0.5905
2653	0.5944
2644	0.5958
2635	0.5977
2626	0.5996
2617	0.6016
2608	0.6039
2599	0.6065
2590	0.6105
2581	0.618
2572	0.6254
2563	0.6266
2554	0.6281
2545	0.6298
2536	0.6315
2527	0.6342
2518	0.6371
2509	0.6401
2500	0.6443
2491	0.6486
2482	0.6528
2473	0.6571
2464	0.6615
2455	0.6647
2446	0.668
2437	0.6711
2428	0.6744
2419	0.6775
2410	0.6784
2401	0.6789
2392	0.6794
2383	0.6789
2374	0.6785
2365	0.6778
2356	0.6772
2347	0.6775
2338	0.6783
2329	0.6815
2320	0.6867
2311	0.6906
2302	0.6943
2293	0.6968
2284	0.6995
2275	0.7024
2266	0.7064
2257	0.711
2248	0.7171
2239	0.7234
2230	0.7328
2221	0.7418
2212	0.7471
2203	0.7521
2194	0.7561
2185	0.7599
2176	0.7636
2167	0.7675
2158	0.7715
2149	0.7755
2140	0.7794
2131	0.7833
2122	0.7871
2113	0.791
2104	0.7949
2095	0.7988
2086	0.8028
2077	0.8071
2068	0.8115
2059	0.8162
2050	0.822
2041	0.827
2032	0.8317
2023	0.8364
2014	0.8404
2005	0.8446
1996	0.8405
1987	0.8464
1978	0.8475
1969	0.8492
1960	0.864
1951	0.8481
1942	0.8556
1933	0.8609
1924	0.8639
1915	0.8656
1906	0.867
1897	0.8668
1888	0.8662
1879	0.8663
1870	0.8671
1861	0.8689
1852	0.8718
1843	0.8736
1834	0.8733
1825	0.8704
1816	0.8612
1807	0.855
1798	0.8507
1789	0.8475
1780	0.8451
1771	0.8421
1762	0.8362
1753	0.8211
1744	0.7887
1735	0.7356
1726	0.6375
1717	0.4404
1708	0.2
1699	0.0735
1690	0.1069
1681	0.2547
1672	0.4004
1663	0.5183
1654	0.541
1645	0.6134
1636	0.6607
1627	0.6944
1618	0.7188
1609	0.7385
1600	0.7488
1591	0.7353
1582	0.7325
1573	0.7065
1564	0.6222
1555	0.3566
1546	0.2443
1537	0.404
1528	0.5412
1519	0.6519
1510	0.6949
1501	0.6338
1492	0.7393
1483	0.7686
1474	0.7625
1465	0.5379
1456	0.6262
1447	0.5538
1438	0.5807
1429	0.4548
1420	0.5312
1411	0.6083
1402	0.6671
1393	0.6888
1384	0.665
1375	0.6538
1366	0.6354
1357	0.6299
1348	0.5676
1339	0.5672
1330	0.5447
1321	0.5141
1312	0.5716
1303	0.4155
1294	0.4492
1285	0.2728
1276	0.2354
1267	0.1087
1258	0.2714
1249	0.3532
1240	0.3606
1231	0.5447
1222	0.5934
1213	0.5297
1204	0.3006
1195	0.5323
1186	0.6176
1177	0.6386
1168	0.6024
1159	0.6611
1150	0.6461
1141	0.3436
1132	0.6435
1123	0.6762
1114	0.6908
1105	0.7071
1096	0.7045
1087	0.6243
1078	0.6946
1069	0.6975
1060	0.6338
1051	0.5104
1042	0.6725
1033	0.6865
1024	0.6921
1015	0.6575
1006	0.4068
997	0.6304
988	0.6639
979	0.6486
970	0.4967
961	0.633
952	0.6653
943	0.6755
934	0.6568
925	0.6396
916	0.5093
907	0.5103
898	0.539
889	0.5835
880	0.6475
871	0.6818
862	0.7014
853	0.6865
844	0.6847
835	0.699
826	0.6382
817	0.6781
808	0.7118
799	0.7264
790	0.7267
781	0.6864
772	0.684
763	0.6851
754	0.4937
745	0.6796
736	0.6341
727	0.6418
718	0.6671
709	0.6739
700	0.1802
691	0.5022
682	0.5356
673	0.5565
664	0.531
655	0.5868
646	0.7054
637	0.7611
628	0.8072
619	0.8193
610	0.8357
601	0.6042
592	0.8233
583	0.8608
574	0.8663
565	0.8658
556	0.8596
547	0.7962
538	0.8513
529	0.8615
520	0.873
511	0.8816
502	0.8771
493	0.8172
484	0.8399
475	0.8925
466	0.901
457	0.8947
448	0.8765
439	0.8828
430	0.8888
421	0.8918
412	0.8945
403	0.8975
394	0.9004
385	0.9021
