Infrared Spectrum: t-Butylhydroquinone
Formula: C 10 H 14 O 2
CAS: 1948-33-0
State: gas
Instrument: HP-GC/MS/IRD
Origin: NIST Mass Spectrometry Data Center
1/CM	ABSORBANCE
550	0.000999
562	0.000999
574	0.002034
586	0.001926
598	0.001647
610	0.002214
622	0.001053
634	0.000243
646	0.000108
658	3.6e-05
670	9e-05
682	0.00072
694	0.001548
706	0.000792
718	0.000531
730	0.000972
742	0.001989
754	0.007065
766	0.025632
778	0.02736
790	0.018846
802	0.018063
814	0.009504
826	0.003852
838	0.00378
850	0.006255
862	0.00576
874	0.005094
886	0.002385
898	0.001629
910	0.002673
922	0.00819
934	0.010836
946	0.003501
958	0.001368
970	0.001107
982	0.001062
994	0.001143
1006	0.001881
1018	0.003582
1030	0.002925
1042	0.002331
1054	0.003438
1066	0.006444
1078	0.006876
1090	0.00549
1102	0.00594
1114	0.009441
1126	0.016317
1138	0.01998
1150	0.044298
1162	0.086355
1174	0.085797
1186	0.088461
1198	0.058248
1210	0.034236
1222	0.030888
1234	0.029016
1246	0.023796
1258	0.01503
1270	0.020394
1282	0.03771
1294	0.037557
1306	0.02106
1318	0.018
1330	0.009045
1342	0.004635
1354	0.006714
1366	0.01368
1378	0.011484
1390	0.010719
1402	0.013131
1414	0.016524
1426	0.032895
1438	0.035298
1450	0.022212
1462	0.021474
1474	0.027675
1486	0.041202
1498	0.051894
1510	0.032049
1522	0.010701
1534	0.004698
1546	0.003105
1558	0.002907
1570	0.004932
1582	0.009459
1594	0.011601
1606	0.010422
1618	0.008145
1630	0.004068
1642	0.001872
1654	0.001539
1666	0.002151
1678	0.002043
1690	0.001584
1702	0.001404
1714	0.00108
1726	0.000864
1738	0.000828
1750	0.000639
1762	0.000639
1774	0.000684
1786	0.000639
1798	0.000558
1810	0.000648
1822	0.000972
1834	0.000819
1846	0.000495
1858	0.000396
1870	0.000198
1882	7.2e-05
1894	2.7e-05
1906	3.6e-05
1918	4.5e-05
1930	5.4e-05
1942	9.9e-05
1954	0.00018
1966	0.000216
1978	0.000207
1990	0.00027
2002	0.000441
2014	0.000441
2026	0.000216
2038	0.000189
2050	0.000243
2062	0.000117
2074	0
2086	0
2098	3.6e-05
2110	2.7e-05
2122	8.1e-05
2134	3.6e-05
2146	3.6e-05
2158	2.7e-05
2170	8.1e-05
2182	0.000117
2194	0.000135
2206	0.000135
2218	0.000126
2230	4.5e-05
2242	4.5e-05
2254	8.1e-05
2266	0.000126
2278	0.000144
2290	0.000261
2302	0.000306
2314	0.000342
2326	0.000351
2338	0.000459
2350	0.000504
2362	0.00054
2374	0.000639
2386	0.000837
2398	0.000936
2410	0.000882
2422	0.000702
2434	0.00063
2446	0.000621
2458	0.000783
2470	0.000846
2482	0.000666
2494	0.000432
2506	0.000297
2518	0.000216
2530	0.000216
2542	0.000162
2554	0.000189
2566	0.000225
2578	0.000135
2590	9.9e-05
2602	9.9e-05
2614	0.000135
2626	0.000171
2638	0.000207
2650	0.000198
2662	0.000234
2674	0.000234
2686	0.000234
2698	0.000252
2710	0.000342
2722	0.00063
2734	0.000648
2746	0.000594
2758	0.000693
2770	0.000684
2782	0.000837
2794	0.000972
2806	0.001134
2818	0.00144
2830	0.001728
2842	0.002376
2854	0.004293
2866	0.009927
2878	0.017982
2890	0.019332
2902	0.018891
2914	0.023103
2926	0.02619
2938	0.026973
2950	0.03645
2962	0.056763
2974	0.058149
2986	0.025758
2998	0.014004
3010	0.012042
3022	0.010386
3034	0.009945
3046	0.00747
3058	0.005733
3070	0.004428
3082	0.003231
3094	0.001953
3106	0.001548
3118	0.001512
3130	0.001242
3142	0.00081
3154	0.000675
3166	0.000648
3178	0.000531
3190	0.00045
3202	0.000405
3214	0.000279
3226	0.00027
3238	0.000288
3250	0.000216
3262	0.000207
3274	0.000216
3286	0.000216
3298	0.000225
3310	0.000189
3322	0.000144
3334	0.000108
3346	9e-05
3358	0.000252
3370	0.000396
3382	0.00072
3394	0.000837
3406	0.000774
3418	0.000792
3430	0.000738
3442	0.000549
3454	0.000549
3466	0.00054
3478	0.000459
3490	0.000414
3502	0.000288
3514	0.000234
3526	0.000189
3538	0.000189
3550	0.000126
3562	0.000207
3574	0.000252
3586	0.000378
3598	0.000648
3610	0.001368
3622	0.00315
3634	0.011799
3646	0.040482
3658	0.048141
3670	0.016056
3682	0.006363
3694	0.003573
3706	0.001881
3718	0.001008
3730	0.000567
3742	0.000405
3754	0.000405
3766	0.000441
3778	0.000432
3790	0.000414
3802	0.000387
3814	0.00054
3826	0.000657
3838	0.000666
