Infrared Spectrum: 1-Ethyl-3-methylcyclohexane
Formula: C 9 H 18
CAS: 19489-10-2
State: gas
Instrument: HP-GC/MS/IRD
Origin: NIST Mass Spectrometry Data Center
1/CM	ABSORBANCE
550	7.6e-05
562	4.4e-05
574	9.6e-05
586	0.000144
598	0.000124
610	9.6e-05
622	8.4e-05
634	8.8e-05
646	9.6e-05
658	7.6e-05
670	3.2e-05
682	6.8e-05
694	0.00012
706	0.00014
718	0.000112
730	9.6e-05
742	0.000116
754	0.000184
766	0.000224
778	0.000256
790	0.000248
802	0.000184
814	0.00028
826	0.000408
838	0.000284
850	0.000312
862	0.000268
874	0.000332
886	0.000332
898	0.000356
910	0.000264
922	0.000216
934	0.000336
946	0.000492
958	0.00038
970	0.000328
982	0.000256
994	0.000212
1006	0.000244
1018	0.00032
1030	0.000264
1042	0.000248
1054	0.000252
1066	0.000208
1078	0.000152
1090	0.000164
1102	0.000288
1114	0.000316
1126	0.000228
1138	0.00018
1150	0.000164
1162	0.000224
1174	0.000192
1186	0.000108
1198	9.6e-05
1210	0.000136
1222	0.000184
1234	0.0003
1246	0.000388
1258	0.000472
1270	0.000592
1282	0.000512
1294	0.000376
1306	0.000344
1318	0.000352
1330	0.000468
1342	0.000888
1354	0.0011
1366	0.001148
1378	0.00156
1390	0.001296
1402	0.000568
1414	0.0004
1426	0.000656
1438	0.001784
1450	0.003588
1462	0.00386
1474	0.00226
1486	0.000856
1498	0.000392
1510	0.00026
1522	0.000192
1534	0.000172
1546	0.000184
1558	0.00014
1570	0.000136
1582	0.000136
1594	0.000148
1606	0.000128
1618	0.00012
1630	8.8e-05
1642	0.000108
1654	0.000116
1666	0.000116
1678	9.6e-05
1690	8e-05
1702	0.000108
1714	8e-05
1726	4.8e-05
1738	7.2e-05
1750	6e-05
1762	5.6e-05
1774	4.4e-05
1786	5.2e-05
1798	6e-05
1810	2.8e-05
1822	5.6e-05
1834	4.4e-05
1846	3.6e-05
1858	4.4e-05
1870	2.8e-05
1882	4e-05
1894	2.8e-05
1906	3.2e-05
1918	2.8e-05
1930	3.2e-05
1942	1.2e-05
1954	2.4e-05
1966	3.6e-05
1978	2.4e-05
1990	3.2e-05
2002	3.2e-05
2014	1.2e-05
2026	4e-06
2038	2.8e-05
2050	8e-06
2062	2e-05
2074	2.4e-05
2086	8e-06
2098	1.6e-05
2110	3.2e-05
2122	2e-05
2134	2e-05
2146	2.8e-05
2158	2.4e-05
2170	2.4e-05
2182	2.4e-05
2194	3.2e-05
2206	5.6e-05
2218	2.8e-05
2230	3.2e-05
2242	5.2e-05
2254	5.6e-05
2266	5.2e-05
2278	4.8e-05
2290	5.2e-05
2302	8.8e-05
2314	8e-05
2326	7.6e-05
2338	9.6e-05
2350	0.0001
2362	0.000108
2374	0.000112
2386	0.000124
2398	0.00014
2410	0.000132
2422	0.000144
2434	0.000152
2446	0.000116
2458	8.4e-05
2470	9.6e-05
2482	0.000112
2494	0.000112
2506	0.000116
2518	0.000132
2530	0.000156
2542	0.000144
2554	0.000156
2566	0.000188
2578	0.000244
2590	0.000292
2602	0.000356
2614	0.000384
2626	0.000424
2638	0.000436
2650	0.00048
2662	0.000484
2674	0.000496
2686	0.000512
2698	0.000492
2710	0.000544
2722	0.000572
2734	0.000648
2746	0.000652
2758	0.000632
2770	0.00072
2782	0.000896
2794	0.001164
2806	0.001392
2818	0.001696
2830	0.003052
2842	0.007284
2854	0.012972
2866	0.01464
2878	0.013516
2890	0.013736
2902	0.01732
2914	0.028568
2926	0.04
2938	0.029988
2950	0.019648
2962	0.01864
2974	0.012188
2986	0.00458
2998	0.001884
3010	0.001252
3022	0.000968
3034	0.00086
3046	0.000824
3058	0.00078
3070	0.000684
3082	0.000672
3094	0.0006
3106	0.00054
3118	0.000464
3130	0.000412
3142	0.000388
3154	0.000376
3166	0.000388
3178	0.000336
3190	0.000304
3202	0.000256
3214	0.000196
3226	0.000136
3238	0.000152
3250	0.000144
3262	0.000208
3274	0.000192
3286	0.000172
3298	0.00014
3310	0.000152
3322	0.00012
3334	0.000152
3346	0.000172
3358	0.000172
3370	0.000128
3382	0.000112
3394	0.000108
3406	9.6e-05
3418	0.0001
3430	9.2e-05
3442	0.0001
3454	0.000124
3466	9.6e-05
3478	7.6e-05
3490	9.2e-05
3502	8e-05
3514	5.2e-05
3526	6.8e-05
3538	0.000104
3550	7.6e-05
3562	8e-05
3574	4.8e-05
3586	4e-05
3598	9.6e-05
3610	9.6e-05
3622	6.4e-05
3634	0.000108
3646	6.8e-05
3658	0.000116
3670	0.00012
3682	0.000124
3694	0.00014
3706	0.000132
3718	0.00014
3730	0.000156
3742	0.000148
3754	0.000188
3766	0.0002
3778	0.000156
3790	0.000164
3802	0.000208
3814	0.00018
3826	0.000196
3838	0.00018
