Infrared Spectrum: 2-Butene, 2-amino-3-cyano-,
Formula: C5 H8 N2
CAS: 19483-78-4
State: SOLUTION (5% CHCl3 FOR 2.5-15 MICRON) VS SOLVENT
Class: COBLENTZ
Instrument: PERKIN-ELMER 21 (GRATING)
Instrument parameters: FILTER AT ABOUT 10 MICRONS
Path length: 0.010 CM
Resolution: 2
Origin: ABBOTT LABORATORIES
1/CM	TRANSMITTANCE
668	0.813
677	0.7805
686	0.763
695	0.7963
704	0.8189
713	0.8463
722	0.847
731	0.8426
740	0.8385
749	0.835
758	0.84
767	0.8313
776	0.8337
785	0.8313
794	0.8191
803	0.7793
812	0.7507
821	0.7261
830	0.722
839	0.729
848	0.7464
857	0.7315
866	0.7275
875	0.7307
884	0.7339
893	0.7354
902	0.7414
911	0.7423
920	0.7815
929	0.8105
938	0.7755
947	0.7612
956	0.7568
965	0.7498
974	0.735
983	0.7138
992	0.6721
1001	0.5963
1010	0.6841
1019	0.7273
1028	0.7129
1037	0.7076
1046	0.7441
1055	0.7676
1064	0.7807
1073	0.7915
1082	0.797
1091	0.8045
1100	0.8058
1109	0.8066
1118	0.8078
1127	0.8111
1136	0.8204
1145	0.8208
1154	0.8213
1163	0.8183
1172	0.8049
1181	0.8046
1190	0.7865
1199	0.6724
1208	0.5542
1217	0.5238
1226	0.5169
1235	0.522
1244	0.5767
1253	0.7201
1262	0.7669
1271	0.7784
1280	0.7792
1289	0.7741
1298	0.7657
1307	0.7529
1316	0.7212
1325	0.6556
1334	0.4983
1343	0.2371
1352	0.1262
1361	0.4582
1370	0.6647
1379	0.4864
1388	0.5481
1397	0.3224
1406	0.2547
1415	0.5396
1424	0.6126
1433	0.5595
1442	0.4975
1451	0.4774
1460	0.5833
1469	0.6949
1478	0.767
1487	0.7699
1496	0.7834
1505	0.8031
1514	0.8156
1523	0.8118
1532	0.8002
1541	0.7762
1550	0.7623
1559	0.7364
1568	0.7113
1577	0.6866
1586	0.6426
1595	0.5424
1604	0.3556
1613	0.1773
1622	0.1542
1631	0.1037
1640	0.0144
1649	0.0402
1658	0.2273
1667	0.4124
1676	0.5901
1685	0.6637
1694	0.7103
1703	0.7491
1712	0.7852
1721	0.811
1730	0.8285
1739	0.8414
1748	0.8512
1757	0.8534
1766	0.8534
1775	0.8592
1784	0.8629
1793	0.8627
1802	0.8623
1811	0.862
1820	0.8621
1829	0.8615
1838	0.8603
1847	0.8599
1856	0.8598
1865	0.8605
1874	0.8628
1883	0.8651
1892	0.8663
1901	0.8658
1910	0.8644
1919	0.8638
1928	0.8642
1937	0.8649
1946	0.8656
1955	0.8665
1964	0.8675
1973	0.8676
1982	0.8648
1991	0.8606
2000	0.8681
2009	0.8713
2018	0.8713
2027	0.8711
2036	0.8699
2045	0.8685
2054	0.8674
2063	0.8662
2072	0.8647
2081	0.863
2090	0.861
2099	0.8586
2108	0.8552
2117	0.8502
2126	0.8373
2135	0.8093
2144	0.7765
2153	0.6679
2162	0.5685
2171	0.3742
2180	0.1865
2189	0.0524
2198	0.2105
2207	0.4408
2216	0.6693
2225	0.7645
2234	0.8089
2243	0.8257
2252	0.8375
2261	0.8462
2270	0.8533
2279	0.859
2288	0.8611
2297	0.8627
2306	0.864
2315	0.8659
2324	0.8682
2333	0.8707
2342	0.8743
2351	0.878
2360	0.8812
2369	0.8843
2378	0.8859
2387	0.8866
2396	0.8785
2405	0.8513
2414	0.8422
2423	0.8377
2432	0.8363
2441	0.8358
2450	0.8367
2459	0.8379
2468	0.8403
2477	0.8445
2486	0.8514
2495	0.8576
2504	0.863
2513	0.8674
2522	0.871
2531	0.8719
2540	0.8724
2549	0.8726
2558	0.8727
2567	0.8714
2576	0.8701
2585	0.8689
2594	0.8677
2603	0.8664
2612	0.8652
2621	0.8638
2630	0.8623
2639	0.8613
2648	0.8605
2657	0.8604
2666	0.8615
2675	0.8627
2684	0.864
2693	0.8642
2702	0.8623
2711	0.8599
2720	0.8568
2729	0.8535
2738	0.8506
2747	0.8476
2756	0.8452
2765	0.8438
2774	0.8424
2783	0.8411
2792	0.8396
2801	0.8348
2810	0.8258
2819	0.815
2828	0.8011
2837	0.7805
2846	0.7466
2855	0.7319
2864	0.7227
2873	0.717
2882	0.7132
2891	0.7065
2900	0.6777
2909	0.6491
2918	0.6378
2927	0.6468
2936	0.6607
2945	0.6704
2954	0.6687
2963	0.6387
2972	0.6054
2981	0.5722
2990	0.5392
2999	0.5332
3008	0.6577
3017	0.8063
3026	0.8181
3035	0.8266
3044	0.8337
3053	0.8399
3062	0.8454
3071	0.8493
3080	0.8516
3089	0.8524
3098	0.8521
3107	0.8518
3116	0.8514
3125	0.851
3134	0.8506
3143	0.8491
3152	0.8451
3161	0.8393
3170	0.8289
3179	0.8072
3188	0.7819
3197	0.7569
3206	0.732
3215	0.7077
3224	0.7018
3233	0.7112
3242	0.7261
3251	0.7408
3260	0.7554
3269	0.7693
3278	0.7722
3287	0.7707
3296	0.7649
3305	0.7359
3314	0.6538
3323	0.5683
3332	0.4834
3341	0.4478
3350	0.4299
3359	0.4161
3368	0.4036
3377	0.3857
3386	0.3502
3395	0.3141
3404	0.3075
3413	0.3623
3422	0.464
3431	0.5652
3440	0.6533
3449	0.6566
3458	0.6314
3467	0.5883
3476	0.5454
3485	0.5027
3494	0.4767
3503	0.4786
3512	0.5294
3521	0.6081
3530	0.6865
3539	0.7645
3548	0.8283
3557	0.8515
3566	0.8605
3575	0.8654
3584	0.8683
3593	0.8707
3602	0.8715
3611	0.8708
3620	0.8694
3629	0.8671
3638	0.8646
3647	0.8628
3656	0.8639
3665	0.8681
3674	0.8723
3683	0.877
3692	0.8815
3701	0.8838
3710	0.8846
3719	0.8852
3728	0.8854
3737	0.8856
3746	0.8856
3755	0.8856
3764	0.8856
3773	0.8855
3782	0.8854
3791	0.8852
3800	0.885
3809	0.8851
3818	0.8859
3827	0.887
3836	0.8889
3845	0.8906
3854	0.8915
3863	0.8921
3872	0.892
3881	0.8918
3890	0.8913
3899	0.8907
3908	0.8903
3917	0.89
3926	0.8897
3935	0.8893
3944	0.8888
3953	0.8884
3962	0.8879
3971	0.8875
3980	0.8871
3989	0.8866
3998	0.8863
