Infrared Spectrum: Di-2-ethylhexylamine, hydrochloride
Formula: C16 H36 Cl N
CAS: 19507-61-0
State: LIQUID (NEAT)
Class: COBLENTZ III
Instrument: PERKIN-ELMER 157
Sampling: TRANSMISSION
Resolution: 2
Origin: BRITISH PETROLEUM CO. LTD., ENGLAND
1/CM	TRANSMITTANCE
668	0.7827
677	0.7827
686	0.783
695	0.7814
704	0.772
713	0.7367
722	0.6172
731	0.5522
740	0.6689
749	0.6825
758	0.6293
767	0.5438
776	0.5147
785	0.5373
794	0.5855
803	0.5838
812	0.5976
821	0.6316
830	0.6367
839	0.6205
848	0.5781
857	0.5611
866	0.5899
875	0.6185
884	0.6364
893	0.6356
902	0.6362
911	0.6279
920	0.6096
929	0.564
938	0.5476
947	0.572
956	0.5974
965	0.5984
974	0.5853
983	0.5841
992	0.5691
1001	0.5304
1010	0.4949
1019	0.46
1028	0.4289
1037	0.4059
1046	0.4386
1055	0.4972
1064	0.5736
1073	0.6079
1082	0.6264
1091	0.687
1100	0.6904
1109	0.656
1118	0.6385
1127	0.6393
1136	0.6368
1145	0.626
1154	0.6277
1163	0.6495
1172	0.6995
1181	0.709
1190	0.7032
1199	0.6489
1208	0.6253
1217	0.6076
1226	0.6028
1235	0.6018
1244	0.5882
1253	0.5868
1262	0.5416
1271	0.5232
1280	0.5245
1289	0.5236
1298	0.5148
1307	0.4942
1316	0.4844
1325	0.4758
1334	0.4484
1343	0.4338
1352	0.4298
1361	0.3806
1370	0.3048
1379	0.1486
1388	0.2928
1397	0.3894
1406	0.3364
1415	0.2602
1424	0.1903
1433	0.1455
1442	0.0967
1451	0.0471
1460	0.031
1469	0.031
1478	0.2173
1487	0.4246
1496	0.5327
1505	0.5644
1514	0.5666
1523	0.5648
1532	0.5565
1541	0.5082
1550	0.4419
1559	0.3779
1568	0.3185
1577	0.2463
1586	0.1723
1595	0.2161
1604	0.3651
1613	0.5406
1622	0.609
1631	0.6317
1640	0.6412
1649	0.6436
1658	0.6466
1667	0.6712
1676	0.6789
1685	0.6939
1694	0.7133
1703	0.7254
1712	0.7324
1721	0.7338
1730	0.7411
1739	0.7512
1748	0.7585
1757	0.7629
1766	0.7654
1775	0.7644
1784	0.7623
1793	0.7588
1802	0.7581
1811	0.7588
1820	0.7556
1829	0.7488
1838	0.7461
1847	0.745
1856	0.7445
1865	0.744
1874	0.7435
1883	0.7442
1892	0.7482
1901	0.754
1910	0.7606
1919	0.7648
1928	0.7662
1937	0.7667
1946	0.7667
1955	0.7667
1964	0.7662
1973	0.7655
1982	0.763
1991	0.7594
2000	0.7559
2009	0.7516
2018	0.7468
2027	0.741
2036	0.7368
2045	0.7347
2054	0.734
2063	0.7339
2072	0.734
2081	0.7339
2090	0.7322
2099	0.7273
2108	0.7205
2117	0.7165
2126	0.7142
2135	0.7093
2144	0.6909
2153	0.6862
2162	0.6807
2171	0.6746
2180	0.6672
2189	0.6593
2198	0.6506
2207	0.6414
2216	0.6317
2225	0.6176
2234	0.6043
2243	0.5909
2252	0.5759
2261	0.5636
2270	0.5511
2279	0.5371
2288	0.5173
2297	0.483
2306	0.4486
2315	0.4182
2324	0.3582
2333	0.3221
2342	0.3056
2351	0.2933
2360	0.2794
2369	0.2507
2378	0.2395
2387	0.2304
2396	0.2226
2405	0.217
2414	0.2124
2423	0.2097
2432	0.2078
2441	0.2065
2450	0.2053
2459	0.2039
2468	0.202
2477	0.1972
2486	0.1892
2495	0.1781
2504	0.1625
2513	0.1429
2522	0.1286
2531	0.1167
2540	0.1044
2549	0.0898
2558	0.0746
2567	0.0661
2576	0.0614
2585	0.0587
2594	0.0564
2603	0.0529
2612	0.0493
2621	0.045
2630	0.0406
2639	0.0364
2648	0.0324
2657	0.0293
2666	0.0262
2675	0.0231
2684	0.0226
2693	0.0224
2702	0.0222
2711	0.022
2720	0.0223
2729	0.0226
2738	0.023
2747	0.0233
2756	0.0237
2765	0.024
2774	0.0241
2783	0.0243
2792	0.024
2801	0.0223
2810	0.0184
2819	0.0156
2828	0.0131
2837	0.0113
2846	0.0101
2855	0.0096
2864	0.0093
2873	0.0091
2882	0.0091
2891	0.0092
2900	0.0093
2909	0.0099
2918	0.0104
2927	0.011
2936	0.0122
2945	0.0159
2954	0.0204
2963	0.0264
2972	0.0372
2981	0.0503
2990	0.0611
2999	0.0728
3008	0.0928
3017	0.1137
3026	0.1512
3035	0.1914
3044	0.2312
3053	0.2709
3062	0.3104
3071	0.3496
3080	0.3857
3089	0.4082
3098	0.4305
3107	0.4527
3116	0.4747
3125	0.4967
3134	0.5185
3143	0.5402
3152	0.5558
3161	0.56
3170	0.5635
3179	0.5907
3188	0.6224
3197	0.6347
3206	0.6402
3215	0.6434
3224	0.6448
3233	0.6457
3242	0.6465
3251	0.6467
3260	0.6465
3269	0.6453
3278	0.6416
3287	0.6379
3296	0.6339
3305	0.629
3314	0.6244
3323	0.62
3332	0.6152
3341	0.6106
3350	0.607
3359	0.6049
3368	0.6048
3377	0.6049
3386	0.6053
3395	0.6059
3404	0.6068
3413	0.608
3422	0.6096
3431	0.6134
3440	0.6208
3449	0.6301
3458	0.6379
3467	0.6485
3476	0.6584
3485	0.6664
3494	0.6737
3503	0.681
3512	0.6896
3521	0.6994
3530	0.7048
3539	0.7138
3548	0.7369
3557	0.7682
3566	0.7845
3575	0.7966
3584	0.8068
3593	0.8116
3602	0.8141
3611	0.8157
3620	0.8169
3629	0.8177
3638	0.8185
3647	0.8192
3656	0.8198
3665	0.8201
3674	0.8204
3683	0.8206
3692	0.8208
3701	0.8211
3710	0.821
3719	0.821
3728	0.8209
3737	0.8209
3746	0.8208
3755	0.8208
3764	0.8207
3773	0.8205
3782	0.8204
3791	0.8201
3800	0.8198
3809	0.8197
3818	0.8194
3827	0.8191
3836	0.8184
3845	0.8176
3854	0.8168
3863	0.8159
3872	0.8151
3881	0.8143
3890	0.8134
3899	0.8123
3908	0.8112
3917	0.8101
3926	0.809
3935	0.8076
3944	0.806
3953	0.8044
3962	0.8024
3971	0.8004
3980	0.7983
3989	0.7964
3998	0.7954
