Infrared Spectrum: L-Tyrosine, N-benzoyl-3,5-diiodo-, ethyl ester
Formula: C18 H17 I2 N O4
CAS: 195067-03-9
State: SOLID (SPLIT MULL), FLUOROLUBE FOR 3800-1330 CM^-^1, NUJOL FOR 1330-460 CM^-^1
Melting point: 154 C
Class: COBLENTZ III
Instrument: DOW FOREPRISM-GRATING
Instrument parameters: BLAZED AT 3.5, 12.0, 20.0 MICRON AND CHANGED AT 5.0, 7.5, 14.9 MICRON
Sampling: TRANSMISSION
Resolution: 2
Origin: DOW CHEMICAL COMPANY
1/CM	TRANSMITTANCE
459	0.8124
468	0.8154
477	0.8205
486	0.8261
495	0.8226
504	0.756
513	0.8321
522	0.8371
531	0.8311
540	0.6452
549	0.8401
558	0.8365
567	0.7696
576	0.84
585	0.8403
594	0.8345
603	0.8243
612	0.7556
621	0.8362
630	0.8033
639	0.7614
648	0.6438
657	0.66
666	0.7536
675	0.6824
684	0.6362
693	0.4935
702	0.6235
711	0.7047
720	0.5942
729	0.3887
738	0.7441
747	0.7711
756	0.8192
765	0.842
774	0.8531
783	0.8295
792	0.8335
801	0.7602
810	0.8815
819	0.8815
828	0.8777
837	0.8647
846	0.8318
855	0.7772
864	0.8256
873	0.765
882	0.6461
891	0.8504
900	0.7942
909	0.8626
918	0.858
927	0.787
936	0.8541
945	0.8504
954	0.8488
963	0.8438
972	0.8296
981	0.7269
990	0.8269
999	0.8164
1008	0.7853
1017	0.5894
1026	0.7057
1035	0.8152
1044	0.8169
1053	0.7869
1062	0.8084
1071	0.7456
1080	0.7983
1089	0.7705
1098	0.5862
1107	0.7571
1116	0.8076
1125	0.8019
1134	0.7699
1143	0.5556
1152	0.4511
1161	0.5272
1170	0.3156
1179	0.4167
1188	0.1595
1197	0.2339
1206	0.6824
1215	0.7506
1224	0.7759
1233	0.7655
1242	0.52
1251	0.6982
1260	0.4758
1269	0.4612
1278	0.7001
1287	0.6673
1296	0.5616
1305	0.5343
1314	0.386
1323	0.4018
1332	0.4132
1341	0.5705
1350	0.5784
1359	0.4676
1368	0.6758
1377	0.4955
1386	0.717
1395	0.6363
1404	0.6745
1413	0.7588
1422	0.7684
1431	0.7567
1440	0.705
1449	0.4392
1458	0.3374
1467	0.4406
1476	0.7323
1485	0.5769
1494	0.6649
1503	0.7083
1512	0.4649
1521	0.0879
1530	0.4933
1539	0.7445
1548	0.6317
1557	0.8153
1566	0.8164
1575	0.7854
1584	0.7142
1593	0.8258
1602	0.6653
1611	0.7871
1620	0.7647
1629	0.704
1638	0.4681
1647	0.0293
1656	0.6406
1665	0.8205
1674	0.8436
1683	0.8418
1692	0.8264
1701	0.8184
1710	0.8133
1719	0.7593
1728	0.622
1737	0.4019
1746	0.1795
1755	0.7181
1764	0.8466
1773	0.8563
1782	0.8616
1791	0.8703
1800	0.8589
1809	0.88
1818	0.8741
1827	0.8789
1836	0.8794
1845	0.8761
1854	0.8734
1863	0.8726
1872	0.8723
1881	0.8727
1890	0.8702
1899	0.8589
1908	0.8729
1917	0.8702
1926	0.8677
1935	0.8679
1944	0.8668
1953	0.8667
1962	0.8578
1971	0.858
1980	0.8567
1989	0.851
1998	0.8494
2007	0.8981
2016	0.8988
2025	0.8964
2034	0.8915
2043	0.8863
2052	0.8819
2061	0.8816
2070	0.8828
2079	0.8828
2088	0.8819
2097	0.8795
2106	0.876
2115	0.872
2124	0.8675
2133	0.8632
2142	0.8595
2151	0.8556
2160	0.8517
2169	0.8479
2178	0.8447
2187	0.8414
2196	0.8387
2205	0.8358
2214	0.8311
2223	0.8254
2232	0.8184
2241	0.8113
2250	0.8042
2259	0.7973
2268	0.7933
2277	0.7894
2286	0.7863
2295	0.7834
2304	0.7818
2313	0.7809
2322	0.7809
2331	0.7813
2340	0.7824
2349	0.7834
2358	0.7835
2367	0.7829
2376	0.7826
2385	0.7825
2394	0.7828
2403	0.7832
2412	0.7837
2421	0.7842
2430	0.7841
2439	0.7833
2448	0.7825
2457	0.7817
2466	0.7804
2475	0.7791
2484	0.7781
2493	0.7772
2502	0.7767
2511	0.777
2520	0.7764
2529	0.776
2538	0.775
2547	0.7735
2556	0.7719
2565	0.7702
2574	0.7685
2583	0.7665
2592	0.7643
2601	0.7617
2610	0.7595
2619	0.7584
2628	0.7598
2637	0.7595
2646	0.7578
2655	0.7559
2664	0.7539
2673	0.7517
2682	0.7495
2691	0.7454
2700	0.7412
2709	0.7365
2718	0.7318
2727	0.7282
2736	0.7249
2745	0.7215
2754	0.7184
2763	0.7155
2772	0.7126
2781	0.7115
2790	0.7173
2799	0.7133
2808	0.7088
2817	0.7039
2826	0.699
2835	0.6937
2844	0.6885
2853	0.6834
2862	0.6783
2871	0.6732
2880	0.6682
2889	0.6631
2898	0.6582
2907	0.6533
2916	0.6461
2925	0.6335
2934	0.6267
2943	0.6341
2952	0.6188
2961	0.6029
2970	0.592
2979	0.6205
2988	0.5837
2997	0.6064
3006	0.5828
3015	0.6467
3024	0.642
3033	0.6294
3042	0.6318
3051	0.6235
3060	0.6166
3069	0.5999
3078	0.5944
3087	0.638
3096	0.6476
3105	0.6473
3114	0.6456
3123	0.6428
3132	0.6382
3141	0.6327
3150	0.6263
3159	0.6189
3168	0.6162
3177	0.6168
3186	0.6165
3195	0.6108
3204	0.6032
3213	0.5947
3222	0.5857
3231	0.5736
3240	0.5584
3249	0.5386
3258	0.5077
3267	0.4796
3276	0.4435
3285	0.4052
3294	0.3738
3303	0.3028
3312	0.2318
3321	0.2614
3330	0.463
3339	0.5259
3348	0.5688
3357	0.5948
3366	0.6035
3375	0.6034
3384	0.6006
3393	0.5956
3402	0.587
3411	0.5751
3420	0.5567
3429	0.5217
3438	0.5077
3447	0.3213
3456	0.3655
3465	0.5707
3474	0.5699
3483	0.602
3492	0.6019
3501	0.601
3510	0.5988
3519	0.5965
3528	0.5938
3537	0.591
3546	0.5887
3555	0.5869
3564	0.5851
3573	0.5834
3582	0.5817
3591	0.5799
3600	0.5782
3609	0.5765
3618	0.5747
3627	0.5728
3636	0.5709
3645	0.569
3654	0.5671
3663	0.565
3672	0.563
3681	0.5609
3690	0.5588
3699	0.5567
3708	0.5547
3717	0.5525
3726	0.5504
3735	0.5483
3744	0.5463
3753	0.5443
3762	0.5423
3771	0.5403
3780	0.5383
