Infrared Spectrum: Alpha-Benzamido-4-hydroxy-3,5-diiodohydrocinnamamide
Formula: C16 H14 I2 N2 O3
CAS: 195067-02-8
State: SOLID (SPLIT MULL), FLUOROLUBE FOR 3800-1330 CM^-^1, NUJOL FOR 1330-400 CM^-^1
Class: COBLENTZ III
Instrument: BECKMAN IR-9 (GRATING)
Instrument parameters: ORDER CHANGES: 670, 1200, 2000 CM^-^1
Sampling: TRANSMISSION
Resolution: 2
Origin: DOW CHEMICAL COMPANY
1/CM	TRANSMITTANCE
3798	0.5824
3789	0.584
3780	0.5858
3771	0.5876
3762	0.5894
3753	0.5912
3744	0.593
3735	0.5948
3726	0.5966
3717	0.5984
3708	0.6
3699	0.6012
3690	0.6025
3681	0.6034
3672	0.6041
3663	0.6047
3654	0.6057
3645	0.6069
3636	0.6082
3627	0.6094
3618	0.6102
3609	0.6105
3600	0.609
3591	0.6038
3582	0.6102
3573	0.6136
3564	0.6153
3555	0.6167
3546	0.6171
3537	0.6171
3528	0.6172
3519	0.6182
3510	0.6192
3501	0.6103
3492	0.5994
3483	0.5964
3474	0.5966
3465	0.5918
3456	0.571
3447	0.4921
3438	0.4662
3429	0.514
3420	0.5306
3411	0.5122
3402	0.4456
3393	0.434
3384	0.4424
3375	0.4599
3366	0.4756
3357	0.4862
3348	0.4809
3339	0.4469
3330	0.4257
3321	0.3945
3312	0.3687
3303	0.3404
3294	0.2994
3285	0.2484
3276	0.2414
3267	0.2431
3258	0.2844
3249	0.3543
3240	0.3893
3231	0.3958
3222	0.393
3213	0.3709
3204	0.3639
3195	0.3787
3186	0.3942
3177	0.4101
3168	0.426
3159	0.4412
3150	0.4576
3141	0.4691
3132	0.479
3123	0.4854
3114	0.4862
3105	0.4839
3096	0.4795
3087	0.4644
3078	0.4496
3069	0.4362
3060	0.4264
3051	0.4271
3042	0.4283
3033	0.4312
3024	0.4374
3015	0.4475
3006	0.4569
2997	0.4641
2988	0.4666
2979	0.468
2970	0.472
2961	0.4785
2952	0.4835
2943	0.4764
2934	0.4693
2925	0.4718
2916	0.4847
2907	0.4926
2898	0.4928
2889	0.4912
2880	0.4896
2871	0.4893
2862	0.491
2853	0.4967
2844	0.5032
2835	0.5072
2826	0.5103
2817	0.5133
2808	0.5166
2799	0.5199
2790	0.5232
2781	0.5268
2772	0.5305
2763	0.5341
2754	0.5378
2745	0.5414
2736	0.546
2727	0.5508
2718	0.5555
2709	0.5602
2700	0.5649
2691	0.5698
2682	0.5748
2673	0.5797
2664	0.5847
2655	0.5896
2646	0.5944
2637	0.5992
2628	0.604
2619	0.6088
2610	0.6136
2601	0.6179
2592	0.6221
2583	0.626
2574	0.6303
2565	0.6344
2556	0.6396
2547	0.6449
2538	0.6503
2529	0.6555
2520	0.6599
2511	0.6643
2502	0.6686
2493	0.673
2484	0.6772
2475	0.681
2466	0.6848
2457	0.6885
2448	0.6922
2439	0.696
2430	0.6999
2421	0.703
2412	0.7057
2403	0.708
2394	0.7084
2385	0.7087
2376	0.7078
2367	0.7064
2358	0.7054
2349	0.7047
2340	0.705
2331	0.7072
2322	0.7101
2313	0.7142
2304	0.7183
2295	0.7217
2286	0.7247
2277	0.7275
2268	0.7304
2259	0.7325
2250	0.7347
2241	0.7368
2232	0.7392
2223	0.7419
2214	0.7449
2205	0.7478
2196	0.7508
2187	0.7546
2178	0.7584
2169	0.7621
2160	0.766
2151	0.7699
2142	0.774
2133	0.7784
2124	0.7825
2115	0.786
2106	0.7886
2097	0.7897
2088	0.7911
2079	0.7926
2070	0.7944
2061	0.7961
2052	0.7989
2043	0.801
2034	0.8024
2025	0.8039
2016	0.8056
2007	0.8056
1998	0.8036
1989	0.8022
1980	0.8026
1971	0.7951
1962	0.7904
1953	0.7915
1944	0.7955
1935	0.8011
1926	0.8055
1917	0.8083
1908	0.8128
1899	0.8151
1890	0.8268
1881	0.8368
1872	0.8445
1863	0.8512
1854	0.8575
1845	0.8632
1836	0.867
1827	0.8694
1818	0.8636
1809	0.8633
1800	0.8666
1791	0.8674
1782	0.8666
1773	0.864
1764	0.8675
1755	0.8655
1746	0.8561
1737	0.8548
1728	0.8517
1719	0.8448
1710	0.821
1701	0.7733
1692	0.6487
1683	0.6683
1674	0.5722
1665	0.4423
1656	0.3132
1647	0.2184
1638	0.0718
1629	0.1115
1620	0.2161
1611	0.374
1602	0.4526
1593	0.6245
1584	0.546
1575	0.5687
1566	0.7004
1557	0.7085
1548	0.6747
1539	0.434
1530	0.2167
1521	0.2573
1512	0.5496
1503	0.5709
1494	0.3966
1485	0.3772
1476	0.4873
1467	0.3218
1458	0.3432
1449	0.3828
1440	0.3692
1431	0.4079
1422	0.3238
1413	0.3849
1404	0.5078
1395	0.5623
1386	0.5915
1377	0.6451
1368	0.6669
1359	0.6557
1350	0.5975
1341	0.4773
1332	0.5332
1323	0.5972
1314	0.5678
1305	0.4825
1296	0.4199
1287	0.32
1278	0.4317
1269	0.5855
1260	0.5649
1251	0.5168
1242	0.5787
1233	0.6832
1224	0.6944
1215	0.6347
1206	0.6582
1197	0.6601
1188	0.6475
1179	0.6765
1170	0.5895
1161	0.5956
1152	0.5668
1143	0.5778
1134	0.5948
1125	0.6192
1116	0.6188
1107	0.6128
1098	0.6222
1089	0.6199
1080	0.6067
1071	0.6685
1062	0.6988
1053	0.7047
1044	0.7301
1035	0.7422
1026	0.7534
1017	0.7926
1008	0.8021
999	0.8054
990	0.8183
981	0.8149
972	0.8083
963	0.8311
954	0.841
945	0.8381
936	0.8338
927	0.834
918	0.8534
909	0.8414
900	0.8231
891	0.7834
882	0.8055
873	0.6721
864	0.8261
855	0.8528
846	0.8294
837	0.8635
828	0.8613
819	0.8004
810	0.7201
801	0.7526
792	0.833
783	0.808
774	0.8075
765	0.8058
756	0.7843
747	0.7786
738	0.7365
729	0.5342
720	0.5787
711	0.4603
702	0.4244
693	0.4537
684	0.6403
675	0.684
666	0.6544
657	0.6946
648	0.6828
639	0.6424
630	0.6378
621	0.6327
612	0.6398
603	0.6768
594	0.6972
585	0.694
576	0.6725
567	0.6831
558	0.6668
549	0.6768
540	0.7243
531	0.7487
522	0.7378
513	0.6436
504	0.6734
495	0.7175
486	0.7038
477	0.7158
468	0.7222
459	0.7243
450	0.7132
441	0.6945
432	0.6574
423	0.6009
414	0.5371
405	0.5486
