Infrared Spectrum: 2-HYDROXY-N-(o-HYDROXYBENZYLIDENE) ETHYL AMINE
Formula: C9 H11 N O2
CAS: 1952-38-1
State: SOLUTION (10% CCl4 FOR 5000-1300, 10% CS2 FOR 1300-625 CM^-^1)
Class: COBLENTZ
Instrument: Not specified, most likely a prism, grating, or hybrid spectrometer.
Sampling: TRANSMISSION
Path length: 0.011 CM, 0.011 CM
Resolution: 4
Origin: DOW CHEMICAL COMPANY
MICROMETERS	TRANSMITTANCE
2.034	0.87
2.07472	0.871
2.11544	0.87
2.15615	0.871
2.19687	0.876
2.23759	0.873
2.27831	0.87
2.31902	0.876
2.35974	0.878
2.40046	0.878
2.44118	0.876
2.48189	0.871
2.52261	0.87
2.56333	0.873
2.60405	0.878
2.64476	0.88
2.68548	0.873
2.7262	0.836
2.76692	0.733
2.80763	0.642
2.84835	0.494
2.88907	0.394
2.92979	0.362
2.9705	0.386
3.01122	0.426
3.05194	0.458
3.09266	0.507
3.13338	0.522
3.17409	0.537
3.21481	0.526
3.25553	0.475
3.29625	0.482
3.33696	0.475
3.37768	0.35
3.4184	0.279
3.45912	0.251
3.49983	0.347
3.54055	0.458
3.58127	0.467
3.62199	0.487
3.6627	0.504
3.70342	0.544
3.74414	0.527
3.78486	0.549
3.82557	0.581
3.86629	0.596
3.90701	0.613
3.94773	0.642
3.98844	0.662
4.02916	0.694
4.06988	0.709
4.1106	0.721
4.15131	0.736
4.19203	0.735
4.23275	0.747
4.27347	0.765
4.31419	0.79
4.3549	0.799
4.39562	0.809
4.43634	0.824
4.47706	0.834
4.51777	0.843
4.55849	0.849
4.59921	0.86
4.63993	0.861
4.68064	0.865
4.72136	0.87
4.76208	0.87
4.8028	0.876
4.84351	0.873
4.88423	0.873
4.92495	0.878
4.96567	0.876
5.00638	0.871
5.0471	0.878
5.08782	0.866
5.12854	0.841
5.16925	0.844
5.20997	0.866
5.25069	0.858
5.29141	0.88
5.33213	0.866
5.37284	0.873
5.41356	0.871
5.45428	0.861
5.495	0.868
5.53571	0.868
5.57643	0.841
5.61715	0.844
5.65787	0.87
5.69858	0.858
5.7393	0.851
5.78002	0.843
5.82074	0.814
5.86145	0.775
5.90217	0.728
5.94289	0.684
5.98361	0.588
6.02432	0.455
6.06504	0.193
6.10576	0.035
6.14648	0.116
6.18719	0.227
6.22791	0.298
6.26863	0.197
6.30935	0.16
6.35007	0.295
6.39078	0.325
6.4315	0.327
6.47222	0.337
6.51294	0.367
6.55365	0.379
6.59437	0.362
6.63509	0.224
6.67581	0.134
6.71652	0.34
6.75724	0.401
6.79796	0.264
6.83868	0.261
6.87939	0.318
6.92011	0.295
6.96083	0.364
7.00155	0.357
7.04226	0.296
7.08298	0.29
7.1237	0.32
7.16442	0.389
7.20513	0.408
7.24585	0.396
7.28657	0.47
7.32729	0.575
7.368	0.58
7.40872	0.495
7.44944	0.424
7.49016	0.553
7.53088	0.59
7.57159	0.578
7.61231	0.59
7.65303	0.581
7.69375	0.509
7.73446	0.3
7.77518	0.053
7.8159	0.131
7.85662	0.376
7.89733	0.529
7.93805	0.598
7.97877	0.608
8.01949	0.576
8.0602	0.585
8.10092	0.559
8.14164	0.46
8.18236	0.392
8.22307	0.411
8.26379	0.416
8.30451	0.436
8.34523	0.499
8.38594	0.588
8.42666	0.701
8.46738	0.748
8.5081	0.768
8.54882	0.775
8.58953	0.741
8.63025	0.588
8.67097	0.36
8.71169	0.595
8.7524	0.748
8.79312	0.763
8.83384	0.74
8.87456	0.639
8.91527	0.468
8.95599	0.495
8.99671	0.632
9.03743	0.662
9.07814	0.63
9.11886	0.569
9.15958	0.512
9.2003	0.458
9.24101	0.394
9.28173	0.31
9.32245	0.237
9.36317	0.197
9.40388	0.192
9.4446	0.22
9.48532	0.261
9.52604	0.263
9.56676	0.251
9.60747	0.305
9.64819	0.369
9.68891	0.386
9.72963	0.369
9.77034	0.44
9.81106	0.536
9.85178	0.61
9.8925	0.677
9.93321	0.728
9.97393	0.76
10.0146	0.78
10.0554	0.789
10.0961	0.792
10.1368	0.78
10.1775	0.76
10.2182	0.723
10.259	0.693
10.2997	0.689
10.3404	0.708
10.3811	0.762
10.4218	0.792
10.4625	0.802
10.5033	0.806
10.544	0.795
10.5847	0.777
10.6254	0.728
10.6661	0.659
10.7068	0.649
10.7476	0.694
10.7883	0.669
10.829	0.598
10.8697	0.507
10.9104	0.448
10.9512	0.455
10.9919	0.534
11.0326	0.586
11.0733	0.62
11.114	0.615
11.1547	0.569
11.1955	0.553
11.2362	0.526
11.2769	0.467
11.3176	0.397
11.3583	0.377
11.399	0.381
11.4398	0.392
11.4805	0.37
11.5212	0.344
11.5619	0.345
11.6026	0.384
11.6434	0.403
11.6841	0.379
11.7248	0.359
11.7655	0.379
11.8062	0.423
11.8469	0.438
11.8877	0.446
11.9284	0.448
11.9691	0.443
12.0098	0.436
12.0505	0.431
12.0912	0.426
12.132	0.423
12.1727	0.421
12.2134	0.418
12.2541	0.418
12.2948	0.423
12.3356	0.428
12.3763	0.436
12.417	0.44
12.4577	0.438
12.4984	0.418
12.5391	0.367
12.5799	0.298
12.6206	0.18
12.6613	0.099
12.702	0.059
12.7427	0.057
12.7834	0.074
12.8242	0.099
12.8649	0.128
12.9056	0.151
12.9463	0.168
12.987	0.163
13.0278	0.133
13.0685	0.101
13.1092	0.07
13.1499	0.037
13.1906	0.006
13.2313	0
13.2721	0
13.3128	0.043
13.3535	0.138
13.3942	0.22
13.4349	0.327
13.4756	0.362
13.5164	0.347
13.5571	0.264
13.5978	0.251
13.6385	0.349
13.6792	0.458
13.7199	0.526
13.7607	0.558
13.8014	0.575
13.8421	0.58
13.8828	0.581
13.9235	0.58
13.9643	0.578
14.005	0.578
14.0457	0.578
14.0864	0.578
14.1271	0.578
14.1678	0.576
14.2086	0.575
14.2493	0.569
14.29	0.568
14.3307	0.564
14.3714	0.558
14.4121	0.553
14.4529	0.546
14.4936	0.546
14.5343	0.541
14.575	0.536
14.6157	0.527
14.6565	0.524
14.6972	0.516
14.7379	0.505
14.7786	0.497
14.8193	0.492
14.86	0.48
14.9008	0.468
14.9415	0.456
14.9822	0.448
15.0229	0.438
15.0636	0.423
15.1043	0.411
15.1451	0.396
15.1858	0.382
15.2265	0.37
15.2672	0.365
15.3079	0.357
15.3487	0.354
15.3894	0.347
15.4301	0.335
15.4708	0.32
15.5115	0.298
15.5522	0.271
15.593	0.252
15.6337	0.241
15.6744	0.237
15.7151	0.239
15.7558	0.241
15.7965	0.242
15.8373	0.247
15.878	0.244
15.9187	0.241
