Infrared Spectrum: 2-ETHOXY-1-NAPHTHALDEHYDE
Formula: C13 H12 O2
CAS: 19523-57-0
State: SOLID (1.0% IN KBr PELLET)
Class: COBLENTZ
Instrument: Not specified, most likely a prism, grating, or hybrid spectrometer.
Sampling: TRANSMISSION
Path length: 0.0355 CM
Resolution: 4
Origin: ANDERSON PHYSICAL LABORATORY
1/CM	TRANSMITTANCE
668.015	0.857
676.416	0.866
684.817	0.854
693.217	0.829
701.618	0.6992
710.019	0.452
718.42	0.821
726.82	0.72
735.221	0.7359
743.622	0.868
752.023	0.793
760.424	0.6332
768.824	0.4645
777.225	0.486
785.626	0.802
794.027	0.6601
802.427	0.1691
810.828	0.3469
819.229	0.717
827.63	0.793
836.031	0.787
844.431	0.7321
852.832	0.51
861.233	0.823
869.634	0.8
878.035	0.724
886.435	0.6031
894.836	0.482
903.237	0.869
911.638	0.857
920.038	0.845
928.439	0.827
936.84	0.809
945.241	0.752
953.642	0.775
962.042	0.76
970.443	0.727
978.844	0.742
987.245	0.706
995.645	0.682
1004.05	0.666
1012.45	0.637
1020.85	0.571
1029.25	0.4261
1037.65	0.5649
1046.05	0.485
1054.45	0.297
1062.85	0.167
1071.25	0.296
1079.65	0.308
1088.05	0.4921
1096.45	0.631
1104.86	0.5071
1113.26	0.303
1121.66	0.4999
1130.06	0.594
1138.46	0.532
1146.86	0.368
1155.26	0.125
1163.66	0.22
1172.06	0.492
1180.46	0.3751
1188.86	0.6939
1197.26	0.723
1205.66	0.619
1214.07	0.474
1222.47	0.372
1230.87	0.44
1239.27	0.363
1247.67	0.08
1256.07	0.3662
1264.47	0.5741
1272.87	0.1569
1281.27	0.5129
1289.67	0.7029
1298.07	0.841
1306.47	0.794
1314.88	0.738
1323.28	0.657
1331.68	0.547
1340.08	0.3049
1348.48	0.2439
1356.88	0.664
1365.28	0.5641
1373.68	0.3711
1382.08	0.315
1390.48	0.685
1398.88	0.574
1407.28	0.568
1415.68	0.592
1424.09	0.431
1432.49	0.35
1440.89	0.1731
1449.29	0.3598
1457.69	0.514
1466.09	0.411
1474.49	0.627
1482.89	0.453
1491.29	0.604
1499.69	0.5109
1508.09	0.273
1516.49	0.25
1524.89	0.6149
1533.3	0.727
1541.7	0.705
1550.1	0.684
1558.5	0.52
1566.9	0.462
1575.3	0.528
1583.7	0.437
1592.1	0.1999
1600.5	0.2939
1608.9	0.5
1617.3	0.232
1625.7	0.359
1634.1	0.437
1642.51	0.377
1650.91	0.131
1659.31	0.055
1667.71	0.1691
1676.11	0.5001
1684.51	0.793
1692.91	0.859
1701.31	0.883
1709.71	0.874
1718.11	0.85
1726.51	0.851
1734.91	0.85
1743.31	0.848
1751.72	0.853
1760.12	0.853
1768.52	0.842
1776.92	0.839
1785.32	0.838
1793.72	0.838
1802.12	0.832
1810.52	0.82
1818.92	0.812
1827.32	0.794
1835.72	0.799
1844.12	0.805
1852.53	0.785
1860.93	0.773
1869.33	0.776
1877.73	0.764
1886.13	0.738
1894.53	0.752
1902.93	0.751
1911.33	0.744
1919.73	0.739
1928.13	0.726
1936.53	0.729
1944.93	0.727
1953.33	0.712
1961.74	0.702
1970.14	0.708
1978.54	0.705
1986.94	0.703
1995.34	0.702
2003.74	0.72
2012.14	0.7177
2020.54	0.714
2028.94	0.714
2037.34	0.7139
2045.74	0.7104
2054.14	0.7069
2062.54	0.6999
2070.95	0.6879
2079.35	0.6834
2087.75	0.6799
2096.15	0.6782
2104.55	0.6748
2112.95	0.6697
2121.35	0.6664
2129.75	0.6615
2138.15	0.6579
2146.55	0.656
2154.95	0.6484
2163.35	0.648
2171.75	0.646
2180.16	0.6409
2188.56	0.6321
2196.96	0.6282
2205.36	0.622
2213.76	0.621
2222.16	0.619
2230.56	0.616
2238.96	0.615
2247.36	0.615
2255.76	0.613
2264.16	0.6063
2272.56	0.6005
2280.96	0.5894
2289.37	0.5853
2297.77	0.583
2306.17	0.583
2314.57	0.583
2322.97	0.583
2331.37	0.583
2339.77	0.5828
2348.17	0.582
2356.57	0.5793
2364.97	0.574
2373.37	0.5723
2381.77	0.5675
2390.17	0.565
2398.58	0.552
2406.98	0.5485
2415.38	0.547
2423.78	0.546
2432.18	0.544
2440.58	0.541
2448.98	0.5405
2457.38	0.5322
2465.78	0.528
2474.18	0.528
2482.58	0.5269
2490.98	0.525
2499.39	0.5229
2507.79	0.5197
2516.19	0.5164
2524.59	0.516
2532.99	0.514
2541.39	0.5136
2549.79	0.513
2558.19	0.513
2566.59	0.5109
2574.99	0.5069
2583.39	0.5007
2591.79	0.4971
2600.19	0.4949
2608.6	0.494
2617	0.49
2625.4	0.4833
2633.8	0.4787
2642.2	0.4757
2650.6	0.473
2659	0.4701
2667.4	0.4666
2675.8	0.4597
2684.2	0.4523
2692.6	0.449
2701	0.4462
2709.4	0.4361
2717.81	0.4268
2726.21	0.423
2734.61	0.4133
2743.01	0.4065
2751.41	0.4043
2759.81	0.401
2768.21	0.401
2776.61	0.4015
2785.01	0.402
2793.41	0.4009
2801.81	0.3928
2810.21	0.3727
2818.61	0.3514
2827.02	0.3348
2835.42	0.3206
2843.82	0.3114
2852.22	0.3118
2860.62	0.3308
2869.02	0.3536
2877.42	0.3697
2885.82	0.3745
2894.22	0.3747
2902.62	0.37
2911.02	0.366
2919.42	0.365
2927.82	0.3612
2936.23	0.3436
2944.63	0.3335
2953.03	0.3318
2961.43	0.3465
2969.83	0.4022
2978.23	0.4213
2986.63	0.422
2995.03	0.4198
3003.43	0.4166
3011.83	0.4147
3020.23	0.414
3028.63	0.4144
3037.04	0.416
3045.44	0.416
3053.84	0.416
3062.24	0.416
3070.64	0.416
3079.04	0.416
3087.44	0.416
3095.84	0.416
3104.24	0.415
3112.64	0.4081
3121.04	0.404
3129.44	0.401
3137.84	0.3985
3146.25	0.3965
3154.65	0.396
3163.05	0.3945
3171.45	0.3925
3179.85	0.3892
3188.25	0.3869
3196.65	0.3821
3205.05	0.3775
3213.45	0.3754
3221.85	0.3749
3230.25	0.374
3238.65	0.3714
3247.05	0.3665
3255.46	0.36
3263.86	0.3583
3272.26	0.357
3280.66	0.357
3289.06	0.357
3297.46	0.356
3305.86	0.3548
3314.26	0.3513
3322.66	0.347
3331.06	0.3446
3339.46	0.3427
3347.86	0.342
3356.26	0.3376
3364.67	0.3318
3373.07	0.3293
3381.47	0.327
3389.87	0.329
3398.27	0.329
3406.67	0.3263
3415.07	0.323
3423.47	0.321
3431.87	0.321
3440.27	0.321
3448.67	0.323
3457.07	0.323
3465.47	0.323
3473.88	0.323
3482.28	0.321
3490.68	0.321
3499.08	0.321
3507.48	0.3225
3515.88	0.323
3524.28	0.3245
3532.68	0.327
3541.08	0.327
3549.48	0.329
3557.88	0.329
3566.28	0.329
3574.68	0.329
3583.09	0.332
3591.49	0.3323
3599.89	0.333
3608.29	0.333
3616.69	0.335
3625.09	0.335
3633.49	0.335
3641.89	0.335
3650.29	0.3348
3658.69	0.3327
3667.09	0.3294
3675.49	0.3261
3683.9	0.3258
3692.3	0.3236
3700.7	0.323
3709.1	0.323
3717.5	0.3227
3725.9	0.3206
3734.3	0.318
3742.7	0.318
3751.1	0.318
3759.5	0.317
3767.9	0.3113
3776.3	0.3092
3784.7	0.308
3793.11	0.3084
3801.51	0.311
3809.91	0.3119
3818.31	0.312
3826.71	0.3115
3835.11	0.309
3843.51	0.306
3851.91	0.3046
3860.31	0.3025
3868.71	0.3
3877.11	0.3
3885.51	0.302
3893.91	0.302
3902.32	0.3028
3910.72	0.303
3919.12	0.3015
3927.52	0.2995
3935.92	0.297
3944.32	0.297
3952.72	0.296
3961.12	0.296
3969.52	0.296
3977.92	0.296
3986.32	0.296
