Infrared Spectrum: 2-n-Butylaminoethylamine
Formula: C 6 H 16 N 2
CAS: 19522-69-1
State: gas
Origin: EPA-IR VAPOR PHASE LIBRARY
1/CM	ABSORBANCE
549.8	0.001888
559.445	0.001528
569.09	0.002098
578.734	0.0007509
588.379	0.002758
598.024	0.002178
607.669	0.001678
617.313	0.003098
626.958	0.001698
636.603	0.002258
646.248	0.002458
655.893	0.004118
665.537	0.004498
675.182	0.004578
684.827	0.005528
694.472	0.005238
704.116	0.006578
713.761	0.006138
723.406	0.006368
733.051	0.006988
742.695	0.007328
752.34	0.007938
761.985	0.008698
771.63	0.007498
781.275	0.006858
790.919	0.006218
800.564	0.005998
810.209	0.004908
819.854	0.004308
829.498	0.003708
839.143	0.004118
848.788	0.003638
858.433	0.003698
868.078	0.003048
877.722	0.003858
887.367	0.002638
897.012	0.002928
906.657	0.003358
916.301	0.0013486
925.946	0.002278
935.591	0.002058
945.236	0.002208
954.88	0.002468
964.525	0.002298
974.17	0.002678
983.815	0.002848
993.46	0.002428
1003.1	0.002678
1012.75	0.001778
1022.39	0.002408
1032.04	0.003808
1041.68	0.004108
1051.33	0.003828
1060.97	0.004378
1070.62	0.005628
1080.26	0.004268
1089.91	0.005538
1099.55	0.002708
1109.2	0.004038
1118.84	0.006258
1128.49	0.003918
1138.13	0.005228
1147.78	0.005448
1157.42	0.004098
1167.07	0.002198
1176.71	0.001378
1186.36	0.002168
1196	0.0008681
1205.64	0.002448
1215.29	0.0008969
1224.93	0.002438
1234.58	0.0009355
1244.22	0.0006385
1253.87	0.002318
1263.51	0.001418
1273.16	0.0010986
1282.8	0.001598
1292.45	0.002058
1302.09	0.002108
1311.74	0.002438
1321.38	0.002888
1331.03	0.003078
1340.67	0.003578
1350.32	0.004328
1359.96	0.004178
1369.61	0.004068
1379.25	0.003378
1388.9	0.002808
1398.54	0.002698
1408.18	0.002168
1417.83	0.002328
1427.47	0.003148
1437.12	0.004278
1446.76	0.005858
1456.41	0.007958
1466.05	0.007468
1475.7	0.005538
1485.34	0.003238
1494.99	0.002828
1504.63	0.001558
1514.28	0.001978
1523.92	0.001598
1533.57	0.001748
1543.21	0.001578
1552.86	0.001628
1562.5	0.001438
1572.15	0.002168
1581.79	0.002028
1591.44	0.002198
1601.08	0.002798
1610.73	0.003108
1620.37	0.003448
1630.01	0.002908
1639.66	0.002568
1649.3	0.001718
1658.95	0.001998
1668.59	0.001334
1678.24	0.0011998
1687.88	0.0013508
1697.53	0.001418
1707.17	0.0005805
1716.82	0.0010081
1726.46	0.0010957
1736.11	0.0010898
1745.75	0.0012081
1755.4	0.0011995
1765.04	0.0011966
1774.69	0.0010746
1784.33	0.0008355
1793.98	0.0006989
1803.62	0.0012377
1813.27	0.0012558
1822.91	0.0010179
1832.55	0.0007651
1842.2	0.0011849
1851.84	0.0009404
1861.49	0.0010494
1871.13	0.0010937
1880.78	0.0009954
1890.42	0.001408
1900.07	0.001025
1909.71	0.0008134
1919.36	0.0011806
1929	0.0008372
1938.65	0.0008816
1948.29	0.0010422
1957.94	0.0012864
1967.58	0.0010176
1977.23	0.001548
1986.87	0.001038
1996.52	0.0009449
2006.16	0.0010702
2015.81	0.0007897
2025.45	0.0010578
2035.1	0.00082
2044.74	0.0011192
2054.38	0.0008462
2064.03	0.0008587
2073.67	0.0008412
2083.32	0.0012407
2092.96	0.0011775
2102.61	0.0011327
2112.25	0.0009996
2121.9	0.0010237
2131.54	0.0011423
2141.19	0.001152
2150.83	0.0006723
2160.48	0.0008811
2170.12	0.0013069
2179.77	0.0007099
2189.41	0.0012007
2199.06	0.0009156
2208.7	0.0008093
2218.35	0.0006558
2227.99	0.0009205
2237.64	0.0010219
2247.28	0.0008376
2256.92	0.0010093
2266.57	0.0012145
2276.21	0.0007572
2285.86	0.0008348
2295.5	0.0012617
2305.15	0.0012513
2314.79	0.0009765
2324.44	0.0011613
2334.08	0.0011171
2343.73	0.0012766
2353.37	0.0012675
2363.02	0.0007546
2372.66	0.0009962
2382.31	0.0010589
2391.95	0.001498
2401.6	0.001155
2411.24	0.001388
2420.89	0.0012303
2430.53	0.0011391
2440.18	0.0011312
2449.82	0.0012556
2459.47	0.0011357
2469.11	0.0013561
2478.75	0.0010747
2488.4	0.0008975
2498.04	0.0011683
2507.69	0.0012933
2517.33	0.0009158
2526.98	0.001468
2536.62	0.001428
2546.27	0.0007231
2555.91	0.001186
2565.56	0.0012823
2575.2	0.0011161
2584.85	0.001458
2594.49	0.001768
2604.14	0.001818
2613.78	0.001998
2623.43	0.0008026
2633.07	0.0012102
2642.72	0.002088
2652.36	0.001368
2662.01	0.002168
2671.65	0.001738
2681.29	0.001998
2690.94	0.002118
2700.58	0.002508
2710.23	0.002258
2719.87	0.003278
2729.52	0.003348
2739.16	0.003668
2748.81	0.003648
2758.45	0.003928
2768.1	0.003988
2777.74	0.005098
2787.39	0.006378
2797.03	0.007928
2806.68	0.010058
2816.32	0.011998
2825.97	0.011958
2835.61	0.011818
2845.26	0.012498
2854.9	0.012988
2864.55	0.015198
2874.19	0.015698
2883.84	0.016358
2893.48	0.016428
2903.12	0.017318
2912.77	0.020998
2922.41	0.025478
2932.06	0.028408
2941.7	0.026338
2951.35	0.022558
2960.99	0.020298
2970.64	0.017948
2980.28	0.011798
2989.93	0.005988
2999.57	0.004108
3009.22	0.003698
3018.86	0.003308
3028.51	0.002818
3038.15	0.002128
3047.8	0.002038
3057.44	0.001918
3067.09	0.002438
3076.73	0.001538
3086.38	0.001838
3096.02	0.0010406
3105.67	0.001798
3115.31	0.0013201
3124.95	0.001518
3134.6	0.001538
3144.24	0.0010818
3153.89	0.001408
3163.53	0.001408
3173.18	0.0012178
3182.82	0.0007606
3192.47	0.001778
3202.11	0.0004846
3211.76	0.0007106
3221.4	0.001398
3231.05	0.0010937
3240.69	0.0007098
3250.34	0.000907
3259.98	0.0011615
3269.63	0.001968
3279.27	0.001448
3288.92	0.0005946
3298.56	0.000856
3308.21	0.001638
3317.85	0.000506
3327.49	0.0007934
3337.14	0.0010635
3346.78	0.0012877
3356.43	0.001918
3366.07	0.002308
3375.72	0.0010825
3385.36	0.0009135
3395.01	0.001538
3404.65	0.001828
3414.3	0.001368
3423.94	0.001558
3433.59	0.001368
3443.23	0.002488
3452.88	0.0012096
3462.52	0.001548
3472.17	0.001243
3481.81	0.001488
3491.46	8.2e-05
3501.1	0.0008332
3510.75	0.00045373
3520.39	0.0011095
3530.04	0.0013546
3539.68	0.001878
3549.32	0.001688
3558.97	0.0012668
3568.61	0.001578
3578.26	0.001398
3587.9	0.0010081
3597.55	0.001256
3607.19	0.0008573
3616.84	0.0004677
3626.48	0.000885
3636.13	0.001558
3645.77	0.0010126
3655.42	0.0012696
3665.06	0.0012864
3674.71	0.0012514
3684.35	0.001037
3694	0.0012528
3703.64	0.001568
3713.29	0.0010597
3722.93	0.0010749
3732.58	0.0005214
3742.22	0.0007784
3751.86	0.0009649
3761.51	0.0010894
3771.15	0.002158
3780.8	0.002078
3790.44	0.001948
3800.09	0.000198
3809.73	0.0007432
3819.38	0.0012325
3829.02	0.0011471
3838.67	0.0005725
3848.31	0.0006525
3857.96	0.001678
3867.6	0.002058
3877.25	0.001498
3886.89	0.001478
3896.54	0.001818
3906.18	0.001638
3915.83	0.001438
3925.47	0.0006532
3935.12	0.001658
3944.76	0.0012469
3954.41	0.0008491
3964.05	0.001608
3973.69	0.0012501
3983.34	0.001518
3992.98	0.0011347
