Infrared Spectrum: 5-Hydroxyindole
Formula: C 8 H 7 N O
CAS: 1953-54-4
State: gas
Origin: EPA-IR VAPOR PHASE LIBRARY
1/CM	ABSORBANCE
501.5	0.00162
513.074	0.00119
524.648	0.00108
536.222	0.00108
547.796	0.00107
559.37	0.00107
570.944	0.00181
582.518	0.00305
594.092	0.00304
605.666	0.00271
617.24	0.00216
628.814	0.00121
640.388	0.0009634
651.962	0.0009725
663.536	0.0009223
675.11	0.00128
686.684	0.00306
698.258	0.00825
709.832	0.01616
721.406	0.01385
732.98	0.01337
744.554	0.01383
756.128	0.01036
767.702	0.00856
779.276	0.01084
790.85	0.01509
802.423	0.01339
813.997	0.00837
825.571	0.00782
837.145	0.0073
848.719	0.00692
860.293	0.00634
871.867	0.00352
883.441	0.00265
895.015	0.00637
906.589	0.00611
918.163	0.00243
929.737	0.00239
941.311	0.00541
952.885	0.00498
964.459	0.00165
976.033	0.00111
987.607	0.0009895
999.181	0.00104
1010.76	0.00105
1022.33	0.00101
1033.9	0.00142
1045.48	0.00151
1057.05	0.00302
1068.63	0.00392
1080.2	0.00373
1091.77	0.00409
1103.35	0.00506
1114.92	0.00938
1126.49	0.01764
1138.07	0.02982
1149.64	0.03043
1161.22	0.02275
1172.79	0.02159
1184.36	0.01664
1195.94	0.01193
1207.51	0.01058
1219.09	0.01345
1230.66	0.01218
1242.23	0.00773
1253.81	0.00582
1265.38	0.00426
1276.96	0.00699
1288.53	0.00736
1300.1	0.00366
1311.68	0.00371
1323.25	0.00727
1334.83	0.01428
1346.4	0.01197
1357.97	0.00379
1369.55	0.00172
1381.12	0.00162
1392.7	0.00249
1404.27	0.00389
1415.84	0.00421
1427.42	0.00358
1438.99	0.00707
1450.57	0.01457
1462.14	0.01839
1473.71	0.0188
1485.29	0.01622
1496.86	0.00895
1508.44	0.0057
1520.01	0.00539
1531.58	0.00385
1543.16	0.00395
1554.73	0.00555
1566.31	0.00556
1577.88	0.0067
1589.45	0.00746
1601.03	0.00458
1612.6	0.00383
1624.18	0.00566
1635.75	0.00435
1647.32	0.00218
1658.9	0.00227
1670.47	0.00231
1682.05	0.00206
1693.62	0.00187
1705.19	0.00152
1716.77	0.00108
1728.34	0.0006149
1739.92	0.0003411
1751.49	0.0002367
1763.06	0.0002413
1774.64	0.0002844
1786.21	0.0003486
1797.79	0.0004661
1809.36	0.0005087
1820.93	0.0005744
1832.51	0.0006766
1844.08	0.0005766
1855.66	0.0003287
1867.23	0.0002438
1878.8	0.0002399
1890.38	0.0002883
1901.95	0.0002123
1913.53	0.0001914
1925.1	0.0002085
1936.67	0.0002281
1948.25	0.0002184
1959.82	0.0002094
1971.4	0.0001515
1982.97	0.0001286
1994.54	9.606e-05
2006.12	0.0001209
2017.69	0.0001671
2029.27	0.000181
2040.84	0.000178
2052.41	0.0001368
2063.99	0.0001673
2075.56	0.000188
2087.14	0.000181
2098.71	0.000211
2110.28	0.0002244
2121.86	0.0002209
2133.43	0.000233
2145.01	0.000205
2156.58	0.0002289
2168.15	0.0002078
2179.73	0.000225
2191.3	0.0002424
2202.88	0.0002204
2214.45	0.0002377
2226.02	0.0002687
2237.6	0.0002175
2249.17	0.0002128
2260.74	0.0002126
2272.32	0.0002307
2283.89	0.0003014
2295.47	0.0003589
2307.04	0.0004152
2318.61	0.0003763
2330.19	0.0004171
2341.76	0.0004425
2353.34	0.0004361
2364.91	0.0004461
2376.48	0.0004323
2388.06	0.0003618
2399.63	0.0004043
2411.21	0.0004347
2422.78	0.0004866
2434.35	0.0004736
2445.93	0.0004786
2457.5	0.0005676
2469.08	0.0006506
2480.65	0.0006523
2492.22	0.0005654
2503.8	0.0004482
2515.37	0.0005144
2526.95	0.0004775
2538.52	0.0003906
2550.09	0.0003357
2561.67	0.0003538
2573.24	0.000411
2584.82	0.000368
2596.39	0.0003498
2607.96	0.0003072
2619.54	0.0003495
2631.11	0.0004833
2642.69	0.0004986
2654.26	0.0004247
2665.83	0.0003178
2677.41	0.0002427
2688.98	0.00024
2700.56	0.0002535
2712.13	0.0002137
2723.7	0.0002192
2735.28	0.0002107
2746.85	0.0001925
2758.43	0.0001955
2770	0.0001578
2781.57	0.0002259
2793.15	0.0002187
2804.72	0.0002596
2816.3	0.0002311
2827.87	0.0002209
2839.44	0.0002372
2851.02	0.0002573
2862.59	0.0002889
2874.17	0.0002295
2885.74	0.0002104
2897.31	0.0002364
2908.89	0.0003074
2920.46	0.0003893
2932.04	0.0004064
2943.61	0.000455
2955.18	0.000523
2966.76	0.0005979
2978.33	0.0005375
2989.91	0.0006783
3001.48	0.00103
3013.05	0.00214
3024.63	0.00398
3036.2	0.00481
3047.78	0.00379
3059.35	0.00304
3070.92	0.00245
3082.5	0.00197
3094.07	0.00166
3105.65	0.00142
3117.22	0.0013
3128.79	0.00173
3140.37	0.00163
3151.94	0.0008443
3163.52	0.0004526
3175.09	0.0003693
3186.66	0.0002606
3198.24	0.0003003
3209.81	0.0003492
3221.39	0.000311
3232.96	0.0003506
3244.53	0.0003497
3256.11	0.0004099
3267.68	0.0003744
3279.26	0.0003416
3290.83	0.0003894
3302.4	0.000401
3313.98	0.0003569
3325.55	0.0004314
3337.13	0.0004949
3348.7	0.0004547
3360.27	0.0004781
3371.85	0.0005626
3383.42	0.0006505
3395	0.0006693
3406.57	0.0008102
3418.14	0.0009221
3429.72	0.000979
3441.29	0.00106
3452.86	0.00133
3464.44	0.00181
3476.01	0.00274
3487.59	0.00471
3499.16	0.00636
3510.73	0.01
3522.31	0.01215
3533.88	0.00792
3545.46	0.0022
3557.03	0.0007544
3568.6	0.0005724
3580.18	0.0004966
3591.75	0.0004869
3603.33	0.0005404
3614.9	0.0007152
3626.47	0.00148
3638.05	0.00411
3649.62	0.01181
3661.2	0.01287
3672.77	0.00489
3684.34	0.00105
3695.92	0.0005331
3707.49	0.0003574
3719.07	0.000321
3730.64	0.0002898
3742.21	0.0002988
3753.79	0.0002796
3765.36	0.0003094
3776.94	0.0003974
3788.51	0.0004048
3800.08	0.0004726
3811.66	0.0005188
3823.23	0.000513
3834.81	0.0005843
3846.38	0.0005965
3857.95	0.0006085
3869.53	0.0005659
3881.1	0.0005464
3892.68	0.0004861
3904.25	0.0004938
3915.82	0.0004994
3927.4	0.0003752
3938.97	0.0003191
3950.55	0.0003222
3962.12	0.0003196
3973.69	0.0003575
3985.27	0.0003
3996.84	0.0004189
