Infrared Spectrum: (3-METHYLBUT-2-YL) GLYCINE
Formula: C7 H15 N O2
CAS: 19531-09-0
State: SOLID (KBr PELLET)
Class: COBLENTZ
Instrument: PERKIN-ELMER
Sampling: TRANSMISSION
Resolution: 4
Origin: ABBOTT LABORATORIES - WASHBURN
MICROMETERS	TRANSMITTANCE
2.03	0.722
2.0636	0.727
2.0972	0.724
2.1308	0.719
2.1644	0.7209
2.198	0.719
2.2316	0.717
2.2652	0.717
2.2988	0.715
2.3324	0.7149
2.366	0.709
2.3996	0.707
2.4332	0.7151
2.4668	0.719
2.5004	0.7189
2.534	0.717
2.5676	0.721
2.6012	0.7205
2.6348	0.7194
2.6684	0.714
2.702	0.705
2.7356	0.6871
2.7692	0.6196
2.8028	0.5568
2.8364	0.5145
2.87	0.4818
2.9036	0.457
2.9372	0.4706
2.9708	0.5124
3.0044	0.5217
3.038	0.497
3.0716	0.4481
3.1052	0.3925
3.1388	0.3189
3.1724	0.2569
3.206	0.1972
3.2396	0.1504
3.2732	0.1311
3.3068	0.1281
3.3404	0.1141
3.374	0.139
3.4076	0.1629
3.4412	0.1781
3.4748	0.2572
3.5084	0.3075
3.542	0.3463
3.5756	0.3763
3.6092	0.3942
3.6428	0.4004
3.6764	0.4151
3.71	0.423
3.7436	0.42
3.7772	0.41
3.8108	0.4382
3.8444	0.4672
3.878	0.4852
3.9116	0.5272
3.9452	0.5518
3.9788	0.5795
4.0124	0.6083
4.046	0.631
4.0796	0.643
4.1132	0.667
4.1468	0.6771
4.1804	0.6941
4.214	0.7021
4.2476	0.712
4.2812	0.71
4.3148	0.7209
4.3484	0.7468
4.382	0.752
4.4156	0.757
4.4492	0.759
4.4828	0.759
4.5164	0.7541
4.55	0.7559
4.5836	0.751
4.6172	0.7419
4.6508	0.7291
4.6844	0.709
4.718	0.694
4.7516	0.685
4.7852	0.685
4.8188	0.694
4.8524	0.707
4.886	0.7191
4.9196	0.7311
4.9532	0.744
4.9868	0.747
5.0204	0.752
5.054	0.7567
5.0876	0.761
5.1212	0.763
5.1548	0.763
5.1884	0.763
5.222	0.764
5.2556	0.763
5.2892	0.761
5.3228	0.759
5.3564	0.754
5.39	0.752
5.4236	0.749
5.4572	0.7419
5.4908	0.7373
5.5244	0.7294
5.558	0.7212
5.5916	0.7093
5.6252	0.6951
5.6588	0.6774
5.6924	0.664
5.726	0.648
5.7596	0.6286
5.7932	0.5996
5.8268	0.5677
5.8604	0.5484
5.894	0.4997
5.9276	0.4045
5.9612	0.2652
5.9948	0.1683
6.0284	0.1917
6.062	0.1795
6.0956	0.1362
6.1292	0.1323
6.1628	0.1448
6.1964	0.1444
6.23	0.1114
6.2636	0.0904
6.2972	0.1052
6.3308	0.1358
6.3644	0.2021
6.398	0.2525
6.4316	0.3048
6.4652	0.2898
6.4988	0.2114
6.5324	0.1322
6.566	0.1045
6.5996	0.089
6.6332	0.1124
6.6668	0.154
6.7004	0.1989
6.734	0.2532
6.7676	0.262
6.8012	0.273
6.8348	0.2568
6.8684	0.3205
6.902	0.3854
6.9356	0.4168
6.9692	0.4179
7.0028	0.3932
7.0364	0.3019
7.07	0.1679
7.1036	0.0936
7.1372	0.1165
7.1708	0.1832
7.2044	0.2159
7.238	0.282
7.2716	0.3712
7.3052	0.3705
7.3388	0.2782
7.3724	0.205
7.406	0.2574
7.4396	0.3107
7.4732	0.3592
7.5068	0.3801
7.5404	0.3642
7.574	0.4214
7.6076	0.4777
7.6412	0.498
7.6748	0.5774
7.7084	0.6024
7.742	0.6291
7.7756	0.649
7.8092	0.6702
7.8428	0.677
7.8764	0.666
7.91	0.6478
7.9436	0.6353
7.9772	0.6487
8.0108	0.6823
8.0444	0.6996
8.078	0.721
8.1116	0.7317
8.1452	0.737
8.1788	0.7357
8.2124	0.737
8.246	0.7349
8.2796	0.7214
8.3132	0.6948
8.3468	0.6791
8.3804	0.672
8.414	0.6814
8.4476	0.6744
8.4812	0.662
8.5148	0.6718
8.5484	0.672
8.582	0.6833
8.6156	0.6859
8.6492	0.6634
8.6828	0.5991
8.7164	0.5634
8.75	0.5753
8.7836	0.5763
8.8172	0.564
8.8508	0.5683
8.8844	0.5503
8.918	0.5238
8.9516	0.5221
8.9852	0.5658
9.0188	0.6021
9.0524	0.6302
9.086	0.6556
9.1196	0.6718
9.1532	0.683
9.1868	0.6855
9.2204	0.6944
9.254	0.7
9.2876	0.7047
9.3212	0.6936
9.3548	0.692
9.3884	0.694
9.422	0.6999
9.4556	0.709
9.4892	0.7164
9.5228	0.709
9.5564	0.6963
9.59	0.6715
9.6236	0.667
9.6572	0.6896
9.6908	0.7112
9.7244	0.719
9.758	0.722
9.7916	0.7219
9.8252	0.724
9.8588	0.726
9.8924	0.727
9.926	0.7245
9.9596	0.6946
9.9932	0.6631
10.0268	0.6814
10.0604	0.7172
10.094	0.7462
10.1276	0.7633
10.1612	0.7751
10.1948	0.7657
10.2284	0.7591
10.262	0.7631
10.2956	0.7739
10.3292	0.7789
10.3628	0.7857
10.3964	0.7953
10.43	0.803
10.4636	0.8005
10.4972	0.8
10.5308	0.801
10.5644	0.7973
10.598	0.7904
10.6316	0.7776
10.6652	0.759
10.6988	0.7512
10.7324	0.751
10.766	0.7587
10.7996	0.763
10.8332	0.7596
10.8668	0.7567
10.9004	0.7714
10.934	0.7919
10.9676	0.794
11.0012	0.7925
11.0348	0.7783
11.0684	0.7533
11.102	0.7406
11.1356	0.7259
11.1692	0.7091
11.2028	0.707
11.2364	0.7137
11.27	0.7475
11.3036	0.7714
11.3372	0.793
11.3708	0.7979
11.4044	0.7936
11.438	0.7947
11.4716	0.8
11.5052	0.791
11.5388	0.784
11.5724	0.783
11.606	0.7808
11.6396	0.7939
11.6732	0.793
11.7068	0.7865
11.7404	0.7669
11.774	0.7378
11.8076	0.7264
11.8412	0.7247
11.8748	0.7254
11.9084	0.7208
11.942	0.7577
11.9756	0.786
12.0092	0.7942
12.0428	0.8
12.0764	0.7996
12.11	0.7965
12.1436	0.7916
12.1772	0.7708
12.2108	0.733
12.2444	0.6869
12.278	0.6731
12.3116	0.7035
12.3452	0.7426
12.3788	0.7576
12.4124	0.7639
12.446	0.7559
12.4796	0.7391
12.5132	0.7123
12.5468	0.7065
12.5804	0.7314
12.614	0.7534
12.6476	0.7661
12.6812	0.763
12.7148	0.757
12.7484	0.7427
12.782	0.7576
12.8156	0.7766
12.8492	0.7897
12.8828	0.789
12.9164	0.7931
12.95	0.786
12.9836	0.791
13.0172	0.7833
13.0508	0.7767
13.0844	0.7718
13.118	0.774
13.1516	0.7735
13.1852	0.7747
13.2188	0.774
13.2524	0.7739
13.286	0.7639
13.3196	0.761
13.3532	0.7521
13.3868	0.7343
13.4204	0.6861
13.454	0.6654
13.4876	0.6704
13.5212	0.7042
13.5548	0.7375
13.5884	0.7572
13.622	0.7721
13.6556	0.7766
13.6892	0.7795
13.7228	0.7827
13.7564	0.779
13.79	0.7763
13.8236	0.771
13.8572	0.7644
13.8908	0.756
13.9244	0.7497
13.958	0.7416
13.9916	0.7388
14.0252	0.7303
14.0588	0.722
14.0924	0.719
14.126	0.714
14.1596	0.71
14.1932	0.7049
14.2268	0.705
14.2604	0.7041
14.294	0.699
14.3276	0.6943
14.3612	0.6881
14.3948	0.68
14.4284	0.6714
14.462	0.6528
14.4956	0.636
14.5292	0.6064
14.5628	0.58
14.5964	0.5568
14.63	0.546
14.6636	0.547
14.6972	0.5626
14.7308	0.5898
14.7644	0.6239
14.798	0.6444
14.8316	0.6675
14.8652	0.6759
14.8988	0.6878
14.9324	0.69
14.966	0.694
14.9996	0.704
15.0332	0.704
15.0668	0.7072
15.1004	0.7118
15.134	0.712
15.1676	0.7136
15.2012	0.715
15.2348	0.719
15.2684	0.7182
15.302	0.717
15.3356	0.721
15.3692	0.7277
15.4028	0.7262
