Infrared Spectrum: 3,5-Dimethyl-3-heptanol
Formula: C 9 H 20 O
CAS: 19549-74-7
State: gas
Instrument: HP-GC/MS/IRD
Origin: NIST Mass Spectrometry Data Center
1/CM	ABSORBANCE
550	0.0005842
562	0.000345
574	0.0003036
586	0.000184
598	0.00023
610	0.0001932
622	0.000161
634	8.28e-05
646	6.44e-05
658	0.0001242
670	2.76e-05
682	9.2e-05
694	9.66e-05
706	7.36e-05
718	0.0002576
730	0.0004784
742	0.0006578
754	0.0005382
766	0.000552
778	0.0008418
790	0.0009338
802	0.0006394
814	0.000483
826	0.000598
838	0.0006808
850	0.001081
862	0.0011776
874	0.0012144
886	0.0016008
898	0.0026036
910	0.003818
922	0.0039836
934	0.0031464
946	0.0025852
958	0.0020654
970	0.0024012
982	0.0031418
994	0.003726
1006	0.0037674
1018	0.0034776
1030	0.0030406
1042	0.002829
1054	0.0023092
1066	0.0022218
1078	0.0026358
1090	0.0030682
1102	0.0033396
1114	0.003749
1126	0.0046276
1138	0.005934
1150	0.0071208
1162	0.007383
1174	0.006325
1186	0.0045816
1198	0.0033442
1210	0.002806
1222	0.0028336
1234	0.0030452
1246	0.003266
1258	0.0034454
1270	0.0035282
1282	0.0035144
1294	0.0033718
1306	0.0031004
1318	0.0030084
1330	0.003105
1342	0.0035052
1354	0.0044666
1366	0.0064446
1378	0.0090528
1390	0.0072588
1402	0.0032614
1414	0.0020378
1426	0.002093
1438	0.0031372
1450	0.0054234
1462	0.0077326
1474	0.0060812
1486	0.0027784
1498	0.0013294
1510	0.0008786
1522	0.0006486
1534	0.0005152
1546	0.0004508
1558	0.00046
1570	0.0003772
1582	0.0003312
1594	0.0002944
1606	0.0002714
1618	0.0002484
1630	0.0002392
1642	0.0002346
1654	0.0002346
1666	0.0001978
1678	0.0001702
1690	0.0001426
1702	0.0001564
1714	0.0001242
1726	8.28e-05
1738	8.28e-05
1750	7.82e-05
1762	4.6e-05
1774	6.44e-05
1786	6.44e-05
1798	7.82e-05
1810	4.6e-05
1822	6.9e-05
1834	5.06e-05
1846	7.36e-05
1858	5.06e-05
1870	5.52e-05
1882	4.6e-05
1894	5.98e-05
1906	4.6e-05
1918	5.06e-05
1930	4.14e-05
1942	5.52e-05
1954	1.84e-05
1966	2.3e-05
1978	2.3e-05
1990	4.6e-05
2002	1.84e-05
2014	2.76e-05
2026	4.14e-05
2038	4.6e-05
2050	3.68e-05
2062	4.6e-05
2074	5.06e-05
2086	3.22e-05
2098	5.52e-05
2110	3.22e-05
2122	3.22e-05
2134	3.22e-05
2146	1.38e-05
2158	4.6e-06
2170	2.76e-05
2182	2.3e-05
2194	1.38e-05
2206	2.3e-05
2218	3.22e-05
2230	1.84e-05
2242	5.06e-05
2254	1.84e-05
2266	2.3e-05
2278	2.76e-05
2290	2.3e-05
2302	3.68e-05
2314	3.68e-05
2326	4.14e-05
2338	3.22e-05
2350	3.68e-05
2362	3.68e-05
2374	7.36e-05
2386	7.82e-05
2398	8.28e-05
2410	7.36e-05
2422	5.98e-05
2434	6.44e-05
2446	6.9e-05
2458	4.6e-05
2470	1.38e-05
2482	2.76e-05
2494	2.3e-05
2506	1.84e-05
2518	1.38e-05
2530	4.14e-05
2542	3.22e-05
2554	7.36e-05
2566	0.0001242
2578	0.0001564
2590	0.000184
2602	0.0002162
2614	0.0002208
2626	0.0002392
2638	0.0002576
2650	0.0002898
2662	0.0003266
2674	0.0003358
2686	0.0003818
2698	0.0004186
2710	0.0005244
2722	0.0006624
2734	0.0008326
2746	0.0009154
2758	0.0008602
2770	0.000874
2782	0.0010626
2794	0.0012972
2806	0.0016376
2818	0.0021436
2830	0.002967
2842	0.0044988
2854	0.0076866
2866	0.0117622
2878	0.0160632
2890	0.0188968
2902	0.0196466
2914	0.0253828
2926	0.0328348
2938	0.034086
2950	0.0310546
2962	0.039008
2974	0.045586
2986	0.0279772
2998	0.0112884
3010	0.004991
3022	0.0029854
3034	0.0022356
3046	0.0018216
3058	0.0016192
3070	0.0015088
3082	0.0013662
3094	0.0011776
3106	0.0009982
3118	0.0008556
3130	0.000782
3142	0.00069
3154	0.0006072
3166	0.0005842
3178	0.000529
3190	0.0004738
3202	0.0003726
3214	0.0003266
3226	0.0002116
3238	0.000184
3250	0.0001702
3262	0.0001196
3274	0.0001104
3286	0.0001288
3298	0.0001058
3310	6.9e-05
3322	9.2e-05
3334	7.36e-05
3346	0.0001058
3358	0.0001196
3370	0.000115
3382	0.0001518
3394	0.0001748
3406	0.0001288
3418	0.0001334
3430	0.0001426
3442	0.0001564
3454	0.0001288
3466	0.0001058
3478	0.0001058
3490	9.2e-05
3502	0.0001242
3514	5.98e-05
3526	3.68e-05
3538	2.76e-05
3550	3.22e-05
3562	5.06e-05
3574	5.06e-05
3586	7.82e-05
3598	8.28e-05
3610	0.000299
3622	0.0007636
3634	0.00184
3646	0.0019274
3658	0.000851
3670	0.0003588
3682	0.0001978
3694	0.0001242
3706	0.0001242
3718	5.52e-05
3730	8.74e-05
3742	0.000115
3754	0.0001012
3766	5.52e-05
3778	0.0001196
3790	8.28e-05
3802	8.74e-05
3814	0.0001058
3826	0.0001104
3838	0.0001472
