Infrared Spectrum: 3,5-Dimethyl-4-heptanone
Formula: C 9 H 18 O
CAS: 19549-84-9
State: gas
Instrument: HP-GC/MS/IRD
Origin: NIST Mass Spectrometry Data Center
1/CM	ABSORBANCE
550	9.5e-05
562	0.0001159
574	2.47e-05
586	0.0002413
598	0.0002755
610	0.0003743
622	0.0002945
634	0.0001634
646	0.00019
658	0.0002641
670	0.0001957
682	0.0002603
694	0.0002299
706	0.0002603
718	0.0002736
730	0.0002907
742	0.0003876
754	0.0004294
766	0.0004047
778	0.0004807
790	0.0005928
802	0.0007847
814	0.0006631
826	0.0005244
838	0.0003249
850	0.0003458
862	0.0003268
874	0.0002679
886	0.0002584
898	0.0002964
910	0.0003667
922	0.000437
934	0.0006612
946	0.0011419
958	0.0015523
970	0.002109
982	0.0029963
994	0.0034105
1006	0.0033516
1018	0.0028785
1030	0.0027246
1042	0.0028994
1054	0.0021413
1066	0.0014763
1078	0.0014098
1090	0.0012027
1102	0.0009861
1114	0.0008075
1126	0.0007049
1138	0.0006574
1150	0.0008037
1162	0.001311
1174	0.0014326
1186	0.0009462
1198	0.0004541
1210	0.0002888
1222	0.0002299
1234	0.0003458
1246	0.0005814
1258	0.0009253
1270	0.0009937
1282	0.0009424
1294	0.0009937
1306	0.0008341
1318	0.0006954
1330	0.0008341
1342	0.0011913
1354	0.0017537
1366	0.0023199
1378	0.0030343
1390	0.0026828
1402	0.0012445
1414	0.0008246
1426	0.0008759
1438	0.001425
1450	0.0029013
1462	0.0044479
1474	0.0033288
1486	0.0014231
1498	0.0007543
1510	0.0004826
1522	0.0004313
1534	0.0003439
1546	0.0003211
1558	0.0003401
1570	0.0002698
1582	0.000247
1594	0.0002185
1606	0.0002508
1618	0.0002793
1630	0.0003021
1642	0.0003401
1654	0.0004351
1666	0.0005852
1678	0.0009443
1690	0.0017138
1702	0.0046132
1714	0.0091675
1726	0.0077121
1738	0.0025688
1750	0.0008474
1762	0.0004826
1774	0.0002907
1786	0.0002109
1798	0.0001653
1810	0.0001235
1822	0.0001368
1834	0.0001007
1846	0.0001026
1858	9.69e-05
1870	8.74e-05
1882	0.0001026
1894	9.31e-05
1906	6.65e-05
1918	8.17e-05
1930	6.27e-05
1942	7.6e-05
1954	5.89e-05
1966	7.41e-05
1978	7.79e-05
1990	6.46e-05
2002	5.32e-05
2014	4.37e-05
2026	4.18e-05
2038	6.08e-05
2050	3.8e-05
2062	6.46e-05
2074	6.08e-05
2086	2.66e-05
2098	3.61e-05
2110	2.47e-05
2122	2.85e-05
2134	3.04e-05
2146	4.37e-05
2158	3.04e-05
2170	4.75e-05
2182	4.56e-05
2194	5.51e-05
2206	5.32e-05
2218	5.7e-05
2230	6.08e-05
2242	5.13e-05
2254	3.04e-05
2266	2.66e-05
2278	5.89e-05
2290	4.75e-05
2302	4.37e-05
2314	7.98e-05
2326	0.0001064
2338	0.0001254
2350	0.0001064
2362	0.0001501
2374	0.0001121
2386	7.79e-05
2398	9.12e-05
2410	9.12e-05
2422	8.93e-05
2434	9.69e-05
2446	6.46e-05
2458	7.98e-05
2470	4.94e-05
2482	4.75e-05
2494	4.75e-05
2506	4.75e-05
2518	6.84e-05
2530	7.03e-05
2542	5.89e-05
2554	6.08e-05
2566	5.51e-05
2578	8.55e-05
2590	6.84e-05
2602	9.69e-05
2614	0.0001121
2626	9.5e-05
2638	0.0001273
2650	0.0001273
2662	0.0001197
2674	0.0001425
2686	0.0001577
2698	0.0001919
2710	0.0002413
2722	0.0002755
2734	0.0003249
2746	0.0003971
2758	0.0003914
2770	0.0003325
2782	0.0004085
2794	0.0004997
2806	0.000608
2818	0.0007011
2830	0.0009671
2842	0.0012217
2854	0.0019741
2866	0.0037278
2878	0.0064049
2890	0.0077026
2902	0.0067317
2914	0.0070775
2926	0.0095114
2938	0.0117952
2950	0.0111834
2962	0.0135546
2974	0.019
2986	0.0120992
2998	0.0045961
3010	0.0020235
3022	0.0012331
3034	0.0008949
3046	0.0007125
3058	0.0006821
3070	0.000627
3082	0.0005358
3094	0.0005073
3106	0.0004636
3118	0.0004275
3130	0.0004009
3142	0.0004047
3154	0.0003686
3166	0.0003306
3178	0.0002717
3190	0.0002603
3202	0.0002584
3214	0.0001596
3226	0.0001634
3238	0.0001083
3250	9.31e-05
3262	8.17e-05
3274	0.0001178
3286	4.18e-05
3298	9.88e-05
3310	0.0001007
3322	4.37e-05
3334	7.41e-05
3346	9.12e-05
3358	6.84e-05
3370	0.0001007
3382	8.55e-05
3394	0.0001634
3406	0.0002166
3418	0.0002204
3430	0.000152
3442	0.0001482
3454	5.32e-05
3466	7.41e-05
3478	5.89e-05
3490	3.8e-05
3502	6.46e-05
3514	1.52e-05
3526	3.8e-05
3538	6.27e-05
3550	9.69e-05
3562	5.13e-05
3574	6.46e-05
3586	2.28e-05
3598	3.23e-05
3610	4.37e-05
3622	5.32e-05
3634	8.74e-05
3646	0.0001235
3658	0.0001026
3670	7.98e-05
3682	0.0001102
3694	7.22e-05
3706	0.0001026
3718	7.79e-05
3730	9.12e-05
3742	0.0001482
3754	0.0001444
3766	0.0001463
3778	0.0001045
3790	5.51e-05
3802	0.0001007
3814	0.000133
3826	0.0001311
3838	0.000133
