Infrared Spectrum: 4,6-Dimethyl-2-heptanone
Formula: C 9 H 18 O
CAS: 19549-80-5
State: gas
Instrument: HP-GC/MS/IRD
Origin: NIST Mass Spectrometry Data Center
1/CM	ABSORBANCE
550	0.000618
562	0.000291
574	0.000213
586	0.000495
598	0.000987
610	0.000786
622	0.000333
634	0.000201
646	9.9e-05
658	1.2e-05
670	3.9e-05
682	3.9e-05
694	6.3e-05
706	0
718	6.3e-05
730	8.7e-05
742	0.00012
754	0.000225
766	0.000246
778	0.000282
790	0.00027
802	0.00033
814	0.000366
826	0.000444
838	0.000459
850	0.00042
862	0.00042
874	0.000438
886	0.000432
898	0.000399
910	0.000489
922	0.000807
934	0.000915
946	0.001161
958	0.001644
970	0.001518
982	0.001218
994	0.001056
1006	0.000873
1018	0.000702
1030	0.000591
1042	0.000579
1054	0.00063
1066	0.000597
1078	0.000582
1090	0.000756
1102	0.001065
1114	0.001599
1126	0.002229
1138	0.003027
1150	0.0051
1162	0.007692
1174	0.006117
1186	0.003429
1198	0.002346
1210	0.002271
1222	0.002742
1234	0.002727
1246	0.002598
1258	0.002235
1270	0.002106
1282	0.002157
1294	0.002373
1306	0.002448
1318	0.002349
1330	0.002973
1342	0.004731
1354	0.008892
1366	0.009981
1378	0.006633
1390	0.005064
1402	0.003291
1414	0.002901
1426	0.002862
1438	0.002883
1450	0.003441
1462	0.004416
1474	0.004008
1486	0.002154
1498	0.00117
1510	0.000861
1522	0.000723
1534	0.000669
1546	0.000627
1558	0.000624
1570	0.000552
1582	0.000489
1594	0.000468
1606	0.000438
1618	0.000465
1630	0.000495
1642	0.000567
1654	0.000774
1666	0.00105
1678	0.001665
1690	0.002847
1702	0.005016
1714	0.010389
1726	0.017337
1738	0.013143
1750	0.005346
1762	0.00261
1774	0.001467
1786	0.000852
1798	0.000537
1810	0.000357
1822	0.000252
1834	0.000204
1846	0.000168
1858	0.000132
1870	0.000114
1882	9.9e-05
1894	7.5e-05
1906	9e-05
1918	6.3e-05
1930	6e-05
1942	7.5e-05
1954	6.3e-05
1966	5.7e-05
1978	3.3e-05
1990	3e-05
2002	3e-05
2014	1.5e-05
2026	2.1e-05
2038	1.5e-05
2050	1.2e-05
2062	1.5e-05
2074	2.1e-05
2086	3.6e-05
2098	2.4e-05
2110	3e-05
2122	3.3e-05
2134	7.2e-05
2146	4.8e-05
2158	6e-05
2170	6.3e-05
2182	6.9e-05
2194	4.5e-05
2206	5.1e-05
2218	3.3e-05
2230	3.6e-05
2242	1.5e-05
2254	1.5e-05
2266	0
2278	1.8e-05
2290	9e-06
2302	1.8e-05
2314	9e-06
2326	1.2e-05
2338	0
2350	9e-06
2362	0
2374	2.1e-05
2386	3.6e-05
2398	5.4e-05
2410	4.2e-05
2422	2.7e-05
2434	4.2e-05
2446	5.7e-05
2458	6e-05
2470	5.1e-05
2482	6.6e-05
2494	5.7e-05
2506	9.3e-05
2518	0.000105
2530	9.3e-05
2542	0.000123
2554	0.000129
2566	0.000138
2578	0.00018
2590	0.000207
2602	0.00021
2614	0.000231
2626	0.000216
2638	0.000237
2650	0.00024
2662	0.000252
2674	0.000249
2686	0.000288
2698	0.000339
2710	0.000399
2722	0.000528
2734	0.000645
2746	0.000624
2758	0.000591
2770	0.000633
2782	0.000705
2794	0.000888
2806	0.001143
2818	0.001503
2830	0.002169
2842	0.003438
2854	0.004638
2866	0.006402
2878	0.010569
2890	0.012498
2902	0.014196
2914	0.015906
2926	0.016113
2938	0.017067
2950	0.019524
2962	0.02922
2974	0.02319
2986	0.008631
2998	0.003936
3010	0.002781
3022	0.001902
3034	0.00132
3046	0.001125
3058	0.001062
3070	0.000993
3082	0.000918
3094	0.000771
3106	0.000669
3118	0.000576
3130	0.000486
3142	0.00045
3154	0.00045
3166	0.000417
3178	0.000447
3190	0.000363
3202	0.000318
3214	0.000252
3226	0.00018
3238	0.000129
3250	0.000144
3262	0.000117
3274	7.2e-05
3286	8.4e-05
3298	0.000105
3310	0.000114
3322	0.000114
3334	0.000144
3346	0.00012
3358	0.000153
3370	0.000135
3382	0.00012
3394	0.000171
3406	0.000207
3418	0.000282
3430	0.000339
3442	0.000369
3454	0.000261
3466	0.000174
3478	0.000102
3490	0.000105
3502	7.5e-05
3514	4.5e-05
3526	6e-06
3538	0
3550	2.4e-05
3562	3.9e-05
3574	3.3e-05
3586	3e-06
3598	2.7e-05
3610	2.4e-05
3622	3e-05
3634	1.5e-05
3646	7.8e-05
3658	7.8e-05
3670	5.1e-05
3682	4.8e-05
3694	7.8e-05
3706	6.9e-05
3718	6.3e-05
3730	7.5e-05
3742	6.3e-05
3754	6.9e-05
3766	0.000114
3778	0.000141
3790	9.9e-05
3802	0.000117
3814	0.000147
3826	0.000147
3838	0.000159
