Infrared Spectrum: 2,6-Dimethyl-3-heptanol
Formula: C 9 H 20 O
CAS: 19549-73-6
State: gas
Instrument: HP-GC/MS/IRD
Origin: NIST Mass Spectrometry Data Center
1/CM	ABSORBANCE
550	0.0002236
562	5.2e-05
574	0.0001404
586	0.0003328
598	0.0001924
610	0.0003328
622	0.000234
634	0.00013
646	4.16e-05
658	0.0001768
670	9.88e-05
682	0.000104
694	0.00013
706	6.24e-05
718	7.8e-05
730	0.0001456
742	0.0001872
754	0.0002912
766	0.0003484
778	0.0003744
790	0.0004472
802	0.0004836
814	0.0004368
826	0.000468
838	0.000572
850	0.0006084
862	0.0006448
874	0.001014
886	0.0016224
898	0.0016848
910	0.001638
922	0.0020072
934	0.0021008
946	0.0021528
958	0.0024076
970	0.0029224
982	0.0041704
994	0.00559
1006	0.0062244
1018	0.0068484
1030	0.0066404
1042	0.004992
1054	0.0040196
1066	0.0031876
1078	0.00273
1090	0.002808
1102	0.003016
1114	0.002912
1126	0.0028444
1138	0.0030472
1150	0.003198
1162	0.0034112
1174	0.0030576
1186	0.0023192
1198	0.0023244
1210	0.0026624
1222	0.0029068
1234	0.0031148
1246	0.0032136
1258	0.0031044
1270	0.0027508
1282	0.0024388
1294	0.0023348
1306	0.00234
1318	0.00234
1330	0.0024128
1342	0.0026468
1354	0.0035724
1366	0.0056628
1378	0.0071916
1390	0.0073684
1402	0.0042588
1414	0.0022724
1426	0.0018772
1438	0.0024336
1450	0.0040144
1462	0.0062556
1474	0.006266
1486	0.003224
1498	0.001456
1510	0.0008684
1522	0.0005876
1534	0.0004316
1546	0.0003536
1558	0.0003536
1570	0.000234
1582	0.0001976
1594	0.0001872
1606	0.0002028
1618	0.0002184
1630	0.000182
1642	0.000182
1654	0.0002184
1666	0.0001612
1678	0.0001456
1690	0.0001456
1702	0.0001612
1714	0.0001196
1726	6.24e-05
1738	5.72e-05
1750	4.68e-05
1762	3.12e-05
1774	4.16e-05
1786	3.64e-05
1798	2.6e-05
1810	1.56e-05
1822	1.04e-05
1834	2.6e-05
1846	3.12e-05
1858	2.08e-05
1870	1.04e-05
1882	2.6e-05
1894	2.08e-05
1906	3.64e-05
1918	2.6e-05
1930	2.08e-05
1942	2.08e-05
1954	1.56e-05
1966	1.56e-05
1978	1.04e-05
1990	2.6e-05
2002	1.04e-05
2014	1.04e-05
2026	0
2038	1.04e-05
2050	3.64e-05
2062	2.6e-05
2074	1.56e-05
2086	3.12e-05
2098	3.64e-05
2110	4.16e-05
2122	2.08e-05
2134	1.56e-05
2146	3.12e-05
2158	2.6e-05
2170	4.16e-05
2182	3.12e-05
2194	6.24e-05
2206	3.64e-05
2218	4.68e-05
2230	7.28e-05
2242	5.72e-05
2254	7.8e-05
2266	8.32e-05
2278	0.000104
2290	9.88e-05
2302	0.0001092
2314	9.88e-05
2326	0.0001092
2338	0.0001404
2350	0.00013
2362	0.0001664
2374	0.0001404
2386	0.0001716
2398	0.000156
2410	0.0001768
2422	0.0001768
2434	0.0001508
2446	0.0001872
2458	0.0001872
2470	0.000182
2482	0.000182
2494	0.0001976
2506	0.0001872
2518	0.0001872
2530	0.0002132
2542	0.0002652
2554	0.0002756
2566	0.0003432
2578	0.000416
2590	0.000494
2602	0.0005512
2614	0.0006032
2626	0.000624
2638	0.0006604
2650	0.0006396
2662	0.0006292
2674	0.0006812
2686	0.0007332
2698	0.0008008
2710	0.0008684
2722	0.0010608
2734	0.0012064
2746	0.0012012
2758	0.0011804
2770	0.0012948
2782	0.001378
2794	0.001612
2806	0.001976
2818	0.0025116
2830	0.0034632
2842	0.0056628
2854	0.009594
2866	0.0144976
2878	0.02041
2890	0.020982
2902	0.0207844
2914	0.0231504
2926	0.02613
2938	0.0307684
2950	0.0348868
2962	0.0506324
2974	0.0398268
2986	0.0146016
2998	0.0059228
3010	0.00312
3022	0.0020592
3034	0.001586
3046	0.0013104
3058	0.0012064
3070	0.0011076
3082	0.0010556
3094	0.0009828
3106	0.0008788
3118	0.0007904
3130	0.0007748
3142	0.0007488
3154	0.0007436
3166	0.0007488
3178	0.0007176
3190	0.0006292
3202	0.0005304
3214	0.00039
3226	0.000286
3238	0.0002184
3250	0.0001456
3262	0.0001508
3274	0.00013
3286	0.0001456
3298	0.0001612
3310	0.0001144
3322	0.0001664
3334	0.000182
3346	0.0001612
3358	0.0001404
3370	0.0001612
3382	0.0001716
3394	0.0001404
3406	0.0001144
3418	0.0001612
3430	0.00013
3442	0.0001716
3454	0.000104
3466	0.0001092
3478	9.88e-05
3490	0.0001092
3502	8.32e-05
3514	6.24e-05
3526	5.2e-05
3538	5.2e-05
3550	4.68e-05
3562	4.68e-05
3574	3.64e-05
3586	5.72e-05
3598	9.36e-05
3610	0.0001664
3622	0.0004056
3634	0.000832
3646	0.0015912
3658	0.0021372
3670	0.0014352
3682	0.00052
3694	0.0002132
3706	0.000104
3718	0.000104
3730	0.0001092
3742	8.84e-05
3754	8.32e-05
3766	0.000104
3778	9.36e-05
3790	0.000104
3802	0.0001872
3814	0.0001716
3826	0.0002184
3838	0.0002652
