Infrared Spectrum: 2,4-Dimethyl-1-heptene
Formula: C 9 H 18
CAS: 19549-87-2
State: gas
Instrument: HP-GC/MS/IRD
Origin: NIST Mass Spectrometry Data Center
1/CM	ABSORBANCE
550	0.0004686
562	0.0003322
574	0.000231
586	9.68e-05
598	7.04e-05
610	0.0001958
622	3.3e-05
634	6.38e-05
646	9.02e-05
658	6.38e-05
670	2.86e-05
682	0.0001056
694	0.0001562
706	7.04e-05
718	0.0001342
730	0.0002464
742	0.00033
754	0.0002662
766	0.0001826
778	0.0001672
790	0.0002046
802	0.000253
814	0.000253
826	0.000341
838	0.0003872
850	0.0004884
862	0.0009042
874	0.0022528
886	0.005324
898	0.004818
910	0.0017622
922	0.000814
934	0.000693
946	0.000616
958	0.000418
970	0.0003586
982	0.0003608
994	0.0003212
1006	0.0002926
1018	0.0002552
1030	0.0002618
1042	0.0002024
1054	0.0002024
1066	0.0001496
1078	0.0002134
1090	0.000264
1102	0.000418
1114	0.0005236
1126	0.0003608
1138	0.0004312
1150	0.000583
1162	0.0004576
1174	0.0002332
1186	0.0002134
1198	0.0003322
1210	0.0003806
1222	0.0003476
1234	0.0004202
1246	0.0004972
1258	0.0005368
1270	0.0006336
1282	0.000693
1294	0.000616
1306	0.000583
1318	0.00055
1330	0.0006842
1342	0.0008888
1354	0.0011264
1366	0.0019184
1378	0.003157
1390	0.0025322
1402	0.0012694
1414	0.0011374
1426	0.0014322
1438	0.0023056
1450	0.00352
1462	0.0039512
1474	0.0027478
1486	0.00132
1498	0.0006754
1510	0.0004862
1522	0.0003674
1534	0.0003322
1546	0.0003234
1558	0.0003212
1570	0.0003366
1582	0.0003696
1594	0.0004048
1606	0.0005148
1618	0.000748
1630	0.001353
1642	0.0022374
1654	0.0019602
1666	0.0007876
1678	0.0003498
1690	0.0002244
1702	0.0001518
1714	0.0001342
1726	0.0001056
1738	9.9e-05
1750	8.58e-05
1762	0.0001562
1774	0.0002926
1786	0.0004334
1798	0.000319
1810	0.0001628
1822	7.92e-05
1834	7.48e-05
1846	5.5e-05
1858	3.08e-05
1870	3.52e-05
1882	2.64e-05
1894	2.86e-05
1906	1.76e-05
1918	3.96e-05
1930	3.08e-05
1942	1.54e-05
1954	1.32e-05
1966	6.6e-06
1978	2.42e-05
1990	3.08e-05
2002	2.64e-05
2014	0
2026	6.6e-06
2038	2.2e-05
2050	3.08e-05
2062	1.32e-05
2074	2.64e-05
2086	5.06e-05
2098	3.96e-05
2110	8.8e-06
2122	6.6e-06
2134	3.08e-05
2146	1.76e-05
2158	3.08e-05
2170	5.28e-05
2182	3.74e-05
2194	3.3e-05
2206	3.74e-05
2218	3.3e-05
2230	2.2e-05
2242	3.96e-05
2254	3.96e-05
2266	3.3e-05
2278	3.3e-05
2290	4.62e-05
2302	3.3e-05
2314	2.86e-05
2326	4.62e-05
2338	6.6e-05
2350	5.5e-05
2362	5.94e-05
2374	3.74e-05
2386	4.18e-05
2398	4.62e-05
2410	6.16e-05
2422	6.16e-05
2434	5.72e-05
2446	4.4e-05
2458	6.16e-05
2470	4.84e-05
2482	4.4e-05
2494	4.84e-05
2506	7.48e-05
2518	6.82e-05
2530	0.00011
2542	7.04e-05
2554	0.000121
2566	0.0001056
2578	0.0001408
2590	0.000121
2602	0.0001694
2614	0.0001584
2626	0.0001782
2638	0.0001606
2650	0.000198
2662	0.0002332
2674	0.0002574
2686	0.0002552
2698	0.0002838
2710	0.0003256
2722	0.000407
2734	0.0005082
2746	0.0005412
2758	0.0004774
2770	0.0005082
2782	0.0006182
2794	0.000814
2806	0.001056
2818	0.001485
2830	0.0022638
2842	0.0037752
2854	0.0055902
2866	0.0072754
2878	0.009933
2890	0.0110374
2902	0.0123838
2914	0.0160446
2926	0.018865
2938	0.0182732
2950	0.0165946
2962	0.0206976
2974	0.0196944
2986	0.0093654
2998	0.0043186
3010	0.0026004
3022	0.0018898
3034	0.0015202
3046	0.0014256
3058	0.0017336
3070	0.0030184
3082	0.0037576
3094	0.0019448
3106	0.0008844
3118	0.0006028
3130	0.0004862
3142	0.0003696
3154	0.0003212
3166	0.0003432
3178	0.0002706
3190	0.0002464
3202	0.000209
3214	0.0001826
3226	0.0001496
3238	0.000132
3250	0.0001232
3262	0.0001078
3274	7.7e-05
3286	8.14e-05
3298	7.7e-05
3310	7.7e-05
3322	9.9e-05
3334	0.0001012
3346	0.0001166
3358	7.26e-05
3370	4.18e-05
3382	8.36e-05
3394	6.82e-05
3406	8.58e-05
3418	5.94e-05
3430	5.72e-05
3442	6.38e-05
3454	8.36e-05
3466	6.82e-05
3478	8.14e-05
3490	6.6e-05
3502	5.5e-05
3514	5.72e-05
3526	5.5e-05
3538	7.48e-05
3550	8.14e-05
3562	7.92e-05
3574	4.84e-05
3586	3.96e-05
3598	7.48e-05
3610	5.94e-05
3622	7.04e-05
3634	7.92e-05
3646	0.0001034
3658	8.36e-05
3670	9.9e-05
3682	0.0001012
3694	0.0001034
3706	9.24e-05
3718	0.0001188
3730	0.000132
3742	0.000121
3754	5.94e-05
3766	7.48e-05
3778	0.0001628
3790	0.0001298
3802	0.0001364
3814	0.0001342
3826	0.0001364
3838	0.0001342
