Infrared Spectrum: 2,4-Dimethyl-3-heptanol
Formula: C 9 H 20 O
CAS: 19549-72-5
State: gas
Instrument: HP-GC/MS/IRD
Origin: NIST Mass Spectrometry Data Center
1/CM	ABSORBANCE
550	0.0003828
562	0.0001914
574	0.0002013
586	0.000264
598	0.0001881
610	0.000231
622	0.0002904
634	0.0002706
646	0.0002046
658	0.0001716
670	3.3e-05
682	6.27e-05
694	9.24e-05
706	0.0001221
718	0.0001452
730	0.0002574
742	0.0003927
754	0.0003498
766	0.0001914
778	0.0002871
790	0.0002343
802	0.0002442
814	0.0001782
826	4.29e-05
838	0.0002772
850	0.0003168
862	0.0003135
874	0.0003729
886	0.0004224
898	0.0005379
910	0.0006699
922	0.0009504
934	0.0011352
946	0.0019833
958	0.0036003
970	0.0052503
982	0.0059829
994	0.0052239
1006	0.0039468
1018	0.0033792
1030	0.0026004
1042	0.0018381
1054	0.0016335
1066	0.0016863
1078	0.001815
1090	0.0021846
1102	0.0023529
1114	0.0020988
1126	0.0018249
1138	0.0020889
1150	0.0023529
1162	0.0021615
1174	0.0016797
1186	0.0013233
1198	0.0013992
1210	0.0016995
1222	0.0019503
1234	0.0020493
1246	0.0019965
1258	0.0017919
1270	0.0016335
1282	0.0015081
1294	0.0014025
1306	0.0013134
1318	0.001254
1330	0.0012639
1342	0.001419
1354	0.0018909
1366	0.0029997
1378	0.0044352
1390	0.0046431
1402	0.0026334
1414	0.0013893
1426	0.0011385
1438	0.0015345
1450	0.0028116
1462	0.0045144
1474	0.0043197
1486	0.0022176
1498	0.0009933
1510	0.0006501
1522	0.0004818
1534	0.00033
1546	0.0002739
1558	0.0002772
1570	0.0002112
1582	0.0001914
1594	0.0001848
1606	0.0001485
1618	0.000198
1630	0.0001683
1642	0.0001551
1654	0.0001848
1666	0.0001518
1678	0.0001122
1690	8.91e-05
1702	9.9e-05
1714	6.6e-05
1726	2.64e-05
1738	2.97e-05
1750	4.62e-05
1762	3.3e-05
1774	2.64e-05
1786	2.97e-05
1798	1.98e-05
1810	1.98e-05
1822	2.31e-05
1834	2.64e-05
1846	3.96e-05
1858	5.61e-05
1870	3.96e-05
1882	3.96e-05
1894	5.61e-05
1906	3.63e-05
1918	5.28e-05
1930	3.3e-05
1942	7.26e-05
1954	4.62e-05
1966	5.61e-05
1978	4.95e-05
1990	4.95e-05
2002	3.96e-05
2014	3.63e-05
2026	3.96e-05
2038	3.96e-05
2050	1.65e-05
2062	1.65e-05
2074	2.64e-05
2086	3.3e-05
2098	1.98e-05
2110	9.9e-06
2122	3.63e-05
2134	3.3e-05
2146	3.96e-05
2158	3.63e-05
2170	2.97e-05
2182	6.6e-05
2194	4.62e-05
2206	4.29e-05
2218	4.62e-05
2230	6.27e-05
2242	7.92e-05
2254	6.27e-05
2266	5.94e-05
2278	9.24e-05
2290	0.0001056
2302	7.26e-05
2314	9.24e-05
2326	0.0001089
2338	0.0001089
2350	0.0001221
2362	0.0001188
2374	0.000132
2386	0.0001452
2398	0.0001419
2410	0.0001551
2422	0.0001584
2434	0.000132
2446	0.0001518
2458	0.0001287
2470	0.0001353
2482	0.0001287
2494	0.0001287
2506	0.0001287
2518	0.0001584
2530	0.0001617
2542	0.0001914
2554	0.0002079
2566	0.0002277
2578	0.0003069
2590	0.000363
2602	0.0004125
2614	0.0004356
2626	0.0004191
2638	0.0004488
2650	0.0004422
2662	0.000462
2674	0.0004983
2686	0.0005247
2698	0.0005346
2710	0.0006468
2722	0.0007161
2734	0.0008547
2746	0.0009108
2758	0.0008976
2770	0.0009471
2782	0.001023
2794	0.0011517
2806	0.0014025
2818	0.0018381
2830	0.002607
2842	0.0040854
2854	0.0064581
2866	0.0094974
2878	0.0137082
2890	0.0139689
2902	0.0131109
2914	0.0156288
2926	0.0191103
2938	0.0215424
2950	0.0214467
2962	0.0301554
2974	0.0300597
2986	0.0139491
2998	0.0057618
3010	0.0030756
3022	0.0020361
3034	0.0015543
3046	0.0012177
3058	0.0009999
3070	0.000858
3082	0.0008217
3094	0.0007326
3106	0.0006732
3118	0.0006435
3130	0.0005676
3142	0.0005313
3154	0.0004983
3166	0.0005016
3178	0.0004818
3190	0.0003993
3202	0.0003234
3214	0.0002574
3226	0.0002013
3238	0.0001716
3250	0.0001386
3262	8.91e-05
3274	9.24e-05
3286	7.92e-05
3298	5.94e-05
3310	7.92e-05
3322	6.27e-05
3334	8.25e-05
3346	9.24e-05
3358	0.0001023
3370	9.9e-05
3382	9.24e-05
3394	0.0001188
3406	0.0001023
3418	8.58e-05
3430	7.92e-05
3442	0.0001518
3454	8.25e-05
3466	0.0001155
3478	7.92e-05
3490	6.93e-05
3502	5.94e-05
3514	5.61e-05
3526	4.95e-05
3538	6.6e-05
3550	7.26e-05
3562	6.27e-05
3574	3.3e-05
3586	2.64e-05
3598	0.0001056
3610	0.0001485
3622	0.0002607
3634	0.0005874
3646	0.0009669
3658	0.0014355
3670	0.0013266
3682	0.0006204
3694	0.0002376
3706	9.57e-05
3718	8.58e-05
3730	0.0001122
3742	0.0001089
3754	7.26e-05
3766	0.0001155
3778	0.0001287
3790	0.0001089
3802	0.0001386
3814	0.0001188
3826	0.000132
3838	0.0001749
