Infrared Spectrum: Copper, bis(2-acetyl-5,5-dimethyl-1,3-cyclohexanedionato)-
Formula: C20 H26 Cu O6
CAS: 19542-89-3
State: SOLID (0.7 mg / 650 mg KBr DISC)
Class: COBLENTZ III
Instrument: PERKIN-ELMER 21 (GRATING)
Instrument parameters: FILTER CHANGE ABOUT 1075 CM^-^1
Sampling: TRANSMISSION
Resolution: 2
Origin: SOUTHERN RESEARCH INSTITUTE
1/CM	TRANSMITTANCE
611.26	0.8035
619.302	0.8042
627.344	0.8044
635.386	0.8035
643.428	0.7978
651.47	0.7926
659.512	0.7981
667.554	0.7933
675.596	0.8412
683.638	0.864
691.68	0.8621
699.722	0.8529
707.764	0.8184
715.806	0.7728
723.848	0.8429
731.89	0.8631
739.932	0.8649
747.974	0.8635
756.016	0.86
764.058	0.8561
772.1	0.8522
780.142	0.8473
788.184	0.8423
796.226	0.8374
804.268	0.8328
812.31	0.823
820.352	0.8018
828.394	0.8321
836.436	0.8532
844.478	0.8519
852.52	0.8478
860.562	0.8426
868.604	0.8371
876.646	0.8312
884.688	0.8213
892.73	0.8304
900.772	0.8385
908.814	0.8275
916.856	0.7736
924.898	0.7167
932.94	0.7813
940.982	0.7565
949.024	0.7417
957.066	0.797
965.108	0.8214
973.15	0.8202
981.192	0.8183
989.234	0.8127
997.276	0.7963
1005.32	0.7602
1013.36	0.717
1021.4	0.6842
1029.44	0.7003
1037.49	0.6471
1045.53	0.3302
1053.57	0.3944
1061.61	0.7143
1069.65	0.7845
1077.7	0.7987
1085.74	0.801
1093.78	0.8016
1101.82	0.7998
1109.86	0.7926
1117.91	0.7566
1125.95	0.785
1133.99	0.7681
1142.03	0.6944
1150.07	0.7519
1158.12	0.7843
1166.16	0.7834
1174.2	0.8138
1182.24	0.823
1190.28	0.8233
1198.33	0.8219
1206.37	0.8179
1214.41	0.8116
1222.45	0.8034
1230.49	0.7914
1238.54	0.764
1246.58	0.7228
1254.62	0.7247
1262.66	0.7131
1270.7	0.6941
1278.75	0.7047
1286.79	0.64
1294.83	0.5694
1302.87	0.5237
1310.91	0.3355
1318.96	0.4476
1327	0.6555
1335.04	0.6833
1343.08	0.6508
1351.12	0.4889
1359.17	0.5273
1367.21	0.4813
1375.25	0.3822
1383.29	0.229
1391.33	0.071
1399.38	0.0681
1407.42	0.0929
1415.46	0.1437
1423.5	0.153
1431.54	0.3216
1439.59	0.4653
1447.63	0.4636
1455.67	0.3535
1463.71	0.3869
1471.75	0.567
1479.8	0.6767
1487.84	0.692
1495.88	0.668
1503.92	0.6106
1511.96	0.5836
1520.01	0.4913
1528.05	0.4394
1536.09	0.2473
1544.13	0.0971
1552.17	0.0302
1560.22	0.0183
1568.26	0.0524
1576.3	0.0791
1584.34	0.1823
1592.38	0.4528
1600.43	0.5273
1608.47	0.568
1616.51	0.5484
1624.55	0.4047
1632.59	0.219
1640.64	0.3472
1648.68	0.5572
1656.72	0.6292
1664.76	0.7415
1672.8	0.7874
1680.85	0.803
1688.89	0.8138
1696.93	0.8226
1704.97	0.83
1713.01	0.8368
1721.06	0.8446
1729.1	0.8495
1737.14	0.8504
1745.18	0.8502
1753.22	0.8495
1761.27	0.851
1769.31	0.8555
1777.35	0.8551
1785.39	0.858
1793.43	0.863
1801.48	0.8649
1809.52	0.8637
1817.56	0.8631
1825.6	0.8628
1833.64	0.8628
1841.69	0.8607
1849.73	0.8584
1857.77	0.8578
1865.81	0.8577
1873.85	0.8579
1881.9	0.858
1889.94	0.858
1897.98	0.8575
1906.02	0.8566
1914.06	0.8563
1922.11	0.856
1930.15	0.8557
1938.19	0.8554
1946.23	0.8555
1954.27	0.8555
1962.32	0.8555
1970.36	0.8556
1978.4	0.8556
1986.44	0.8557
1994.48	0.8554
2002.53	0.8551
2010.57	0.8547
2018.61	0.854
2026.65	0.8532
2034.69	0.8534
2042.74	0.8541
2050.78	0.8547
2058.82	0.855
2066.86	0.8535
2074.9	0.8519
2082.95	0.8505
2090.99	0.8491
2099.03	0.8507
2107.07	0.8557
2115.11	0.8588
2123.16	0.8591
2131.2	0.8589
2139.24	0.858
2147.28	0.8568
2155.32	0.8544
2163.37	0.8525
2171.41	0.8515
2179.45	0.853
2187.49	0.8564
2195.53	0.8567
2203.58	0.8567
2211.62	0.8555
2219.66	0.8542
2227.7	0.8526
2235.74	0.8505
2243.79	0.8486
2251.83	0.8474
2259.87	0.846
2267.91	0.8471
2275.95	0.8505
2284	0.8511
2292.04	0.8538
2300.08	0.8576
2308.12	0.8588
2316.16	0.8591
2324.21	0.8595
2332.25	0.8598
2340.29	0.858
2348.33	0.8561
2356.37	0.8545
2364.42	0.8531
2372.46	0.8517
2380.5	0.851
2388.54	0.8507
2396.58	0.8505
2404.63	0.8495
2412.67	0.8484
2420.71	0.8472
2428.75	0.8457
2436.79	0.8442
2444.83	0.8439
2452.88	0.8437
2460.92	0.8434
2468.96	0.8431
2477	0.8428
2485.04	0.8425
2493.09	0.8417
2501.13	0.8395
2509.17	0.8383
2517.21	0.8409
2525.25	0.8409
2533.3	0.8395
2541.34	0.8384
2549.38	0.8372
2557.42	0.8359
2565.46	0.8347
2573.51	0.8338
2581.55	0.8329
2589.59	0.8343
2597.63	0.8356
2605.67	0.836
2613.72	0.8344
2621.76	0.833
2629.8	0.8318
2637.84	0.8307
2645.88	0.8301
2653.93	0.8301
2661.97	0.83
2670.01	0.8299
2678.05	0.8294
2686.09	0.826
2694.14	0.8207
2702.18	0.8183
2710.22	0.8193
2718.26	0.8204
2726.3	0.8199
2734.35	0.8148
2742.39	0.808
2750.43	0.8027
2758.47	0.7979
2766.51	0.7949
2774.56	0.7917
2782.6	0.7869
2790.64	0.7807
2798.68	0.7717
2806.72	0.7575
2814.77	0.735
2822.81	0.7131
2830.85	0.6866
2838.89	0.6733
2846.93	0.6761
2854.98	0.6827
2863.02	0.6863
2871.06	0.6862
2879.1	0.683
2887.14	0.6737
2895.19	0.6567
2903.23	0.6149
2911.27	0.5564
2919.31	0.54
2927.35	0.5474
2935.4	0.5854
2943.44	0.666
2951.48	0.7141
2959.52	0.7507
2967.56	0.7756
2975.61	0.7892
2983.65	0.7962
2991.69	0.8032
2999.73	0.8093
3007.77	0.808
3015.82	0.805
3023.86	0.809
3031.9	0.8121
3039.94	0.8129
3047.98	0.8117
3056.03	0.8097
3064.07	0.8068
3072.11	0.804
3080.15	0.8006
3088.19	0.7963
3096.24	0.7936
3104.28	0.7921
3112.32	0.7907
3120.36	0.7894
3128.4	0.7887
3136.45	0.788
3144.49	0.787
3152.53	0.7852
3160.57	0.7844
3168.61	0.7819
3176.66	0.7779
3184.7	0.7767
3192.74	0.7727
3200.78	0.7684
3208.82	0.7656
3216.87	0.7632
3224.91	0.7612
3232.95	0.7588
3240.99	0.7586
3249.03	0.7588
3257.08	0.7562
3265.12	0.7517
3273.16	0.7493
3281.2	0.7473
3289.24	0.7425
3297.29	0.7399
3305.33	0.7348
3313.37	0.7293
3321.41	0.7203
3329.45	0.7078
3337.5	0.7034
3345.54	0.6995
3353.58	0.6956
3361.62	0.6913
3369.66	0.6881
3377.71	0.6771
3385.75	0.6755
3393.79	0.6722
3401.83	0.6685
3409.87	0.668
3417.92	0.6731
3425.96	0.675
3434	0.6815
3442.04	0.6857
3450.08	0.6866
3458.13	0.6896
3466.17	0.7007
3474.21	0.71
3482.25	0.7189
3490.29	0.7243
3498.34	0.7302
3506.38	0.7406
3514.42	0.7439
3522.46	0.7521
3530.5	0.7549
3538.55	0.756
3546.59	0.7641
3554.63	0.7678
3562.67	0.7791
3570.71	0.7859
3578.76	0.7915
3586.8	0.7952
3594.84	0.8072
3602.88	0.8104
3610.92	0.81
3618.97	0.8155
3627.01	0.8159
3635.05	0.8155
3643.09	0.817
3651.13	0.8239
3659.18	0.8259
3667.22	0.8267
3675.26	0.8267
3683.3	0.8267
3691.34	0.8266
3699.39	0.8264
3707.43	0.8252
3715.47	0.8239
3723.51	0.8221
3731.55	0.8207
3739.6	0.8196
3747.64	0.819
3755.68	0.8191
3763.72	0.8207
3771.76	0.8226
3779.81	0.8245
3787.85	0.8259
3795.89	0.8273
3803.93	0.828
3811.97	0.8278
