Infrared Spectrum: 2,6-Dimethyl-3-heptanone
Formula: C 9 H 18 O
CAS: 19549-83-8
State: gas
Instrument: HP-GC/MS/IRD
Origin: NIST Mass Spectrometry Data Center
1/CM	ABSORBANCE
550	0.0003237
562	0.0001755
574	0.0003276
586	0.0002574
598	0.0002964
610	0.0003939
622	0.00039
634	0.0003159
646	0.0002184
658	0.0002223
670	4.68e-05
682	3.12e-05
694	4.29e-05
706	0.0001092
718	0.0001209
730	0.0002379
742	0.0002847
754	0.0003783
766	0.0005304
778	0.0005733
790	0.0004095
802	0.0001989
814	0.000195
826	0.0002028
838	0.0002652
850	0.0003978
862	0.0004992
874	0.0005616
886	0.0006864
898	0.0007293
910	0.000702
922	0.0009516
934	0.0011037
946	0.00117
958	0.0012285
970	0.0013611
982	0.0017628
994	0.0025779
1006	0.00351
1018	0.0031668
1030	0.0031044
1042	0.0046995
1054	0.0057837
1066	0.0044616
1078	0.0029874
1090	0.0027456
1102	0.0032214
1114	0.0034164
1126	0.0033579
1138	0.0029757
1150	0.0025077
1162	0.0022152
1174	0.0023088
1186	0.0019071
1198	0.0016146
1210	0.001599
1222	0.0014196
1234	0.0015405
1246	0.0018798
1258	0.0020787
1270	0.0019656
1282	0.0017784
1294	0.0016419
1306	0.0018057
1318	0.0025467
1330	0.0035607
1342	0.0044343
1354	0.0046527
1366	0.0051987
1378	0.0059163
1390	0.0062595
1402	0.0032721
1414	0.0024687
1426	0.0024531
1438	0.0030342
1450	0.0044343
1462	0.00663
1474	0.0066183
1486	0.003315
1498	0.0015522
1510	0.0009087
1522	0.0005967
1534	0.0004056
1546	0.0003432
1558	0.0003666
1570	0.0002691
1582	0.0002886
1594	0.0002808
1606	0.0002964
1618	0.0003588
1630	0.0004446
1642	0.0005343
1654	0.0007059
1666	0.0009945
1678	0.001638
1690	0.0030966
1702	0.0071721
1714	0.0154401
1726	0.0190983
1738	0.0101088
1750	0.0033033
1762	0.0014274
1774	0.0007722
1786	0.0004914
1798	0.0003471
1810	0.0002769
1822	0.0002145
1834	0.0001716
1846	0.0001521
1858	0.0001131
1870	0.0001014
1882	0.0001092
1894	8.58e-05
1906	6.63e-05
1918	8.19e-05
1930	6.63e-05
1942	5.46e-05
1954	5.85e-05
1966	3.12e-05
1978	3.51e-05
1990	2.73e-05
2002	4.68e-05
2014	4.68e-05
2026	3.9e-05
2038	5.07e-05
2050	5.07e-05
2062	4.29e-05
2074	3.12e-05
2086	2.73e-05
2098	2.73e-05
2110	1.95e-05
2122	3.9e-05
2134	2.34e-05
2146	1.95e-05
2158	1.95e-05
2170	2.73e-05
2182	2.73e-05
2194	3.12e-05
2206	3.12e-05
2218	3.51e-05
2230	5.07e-05
2242	5.46e-05
2254	4.29e-05
2266	5.85e-05
2278	5.46e-05
2290	5.07e-05
2302	5.85e-05
2314	5.46e-05
2326	7.02e-05
2338	7.41e-05
2350	7.8e-05
2362	7.02e-05
2374	8.97e-05
2386	6.24e-05
2398	7.41e-05
2410	8.97e-05
2422	7.02e-05
2434	8.58e-05
2446	6.63e-05
2458	9.75e-05
2470	8.19e-05
2482	8.58e-05
2494	9.75e-05
2506	0.0001014
2518	8.97e-05
2530	9.36e-05
2542	0.0001053
2554	0.0001365
2566	0.0001443
2578	0.000156
2590	0.0002028
2602	0.0002106
2614	0.0002379
2626	0.0002379
2638	0.000273
2650	0.0002964
2662	0.0002925
2674	0.0002769
2686	0.0002847
2698	0.0003081
2710	0.0003744
2722	0.0005148
2734	0.0006669
2746	0.0006396
2758	0.0006318
2770	0.0007254
2782	0.0007956
2794	0.000936
2806	0.0011466
2818	0.001482
2830	0.0018798
2842	0.0026208
2854	0.0043914
2866	0.0077649
2878	0.0130065
2890	0.0144729
2902	0.0145431
2914	0.0160719
2926	0.0186498
2938	0.0220155
2950	0.0251355
2962	0.0362544
2974	0.0353418
2986	0.0171093
2998	0.0069303
3010	0.003276
3022	0.0018603
3034	0.001248
3046	0.0009789
3058	0.0008775
3070	0.0008268
3082	0.0008112
3094	0.0007839
3106	0.0006903
3118	0.0006123
3130	0.0006006
3142	0.0005538
3154	0.0006006
3166	0.0006279
3178	0.0006201
3190	0.0005538
3202	0.0004212
3214	0.000312
3226	0.0002496
3238	0.0001443
3250	0.0001482
3262	9.75e-05
3274	0.0001131
3286	0.0001209
3298	0.0001209
3310	0.0001287
3322	0.0001404
3334	0.0001443
3346	0.0001521
3358	0.0001716
3370	0.0001521
3382	0.0001677
3394	0.0002106
3406	0.0002964
3418	0.0003705
3430	0.0004485
3442	0.000312
3454	0.0001872
3466	0.0001404
3478	8.58e-05
3490	8.97e-05
3502	8.19e-05
3514	4.29e-05
3526	3.51e-05
3538	5.85e-05
3550	7.02e-05
3562	3.12e-05
3574	5.85e-05
3586	8.58e-05
3598	8.58e-05
3610	5.07e-05
3622	7.8e-05
3634	4.29e-05
3646	6.63e-05
3658	5.46e-05
3670	0.000117
3682	5.85e-05
3694	7.8e-05
3706	6.63e-05
3718	7.8e-05
3730	7.8e-05
3742	6.63e-05
3754	9.36e-05
3766	0.0001131
3778	0.0001092
3790	0.0001248
3802	0.0001365
3814	0.0001482
3826	0.0001599
3838	0.0001833
