Infrared Spectrum: 2,3-Dimethyl-3-heptanol
Formula: C 9 H 20 O
CAS: 19549-71-4
State: gas
Instrument: HP-GC/MS/IRD
Origin: NIST Mass Spectrometry Data Center
1/CM	ABSORBANCE
550	0.000164
562	7.38e-05
574	0.000246
586	0.0002747
598	0.0002747
610	0.0001271
622	4.1e-06
634	4.1e-06
646	3.28e-05
658	5.33e-05
670	9.43e-05
682	8.61e-05
694	0.0002214
706	0.0002829
718	0.0003649
730	0.000369
742	0.0003362
754	0.0004264
766	0.0003731
778	0.0004059
790	0.0004223
802	0.0003075
814	0.0002583
826	0.0003116
838	0.0007257
850	0.0010865
862	0.0012259
874	0.0010496
886	0.0011849
898	0.0019762
910	0.0028495
922	0.0034153
934	0.0033538
946	0.0020664
958	0.0011234
970	0.0009717
982	0.0012751
994	0.001845
1006	0.0026199
1018	0.0032144
1030	0.0031488
1042	0.0031693
1054	0.0036777
1066	0.0040959
1078	0.0040549
1090	0.0034686
1102	0.0029151
1114	0.0030791
1126	0.004018
1138	0.0049364
1150	0.0053382
1162	0.0050389
1174	0.0040713
1186	0.0031611
1198	0.002788
1210	0.0027593
1222	0.0027019
1234	0.0025871
1246	0.0026445
1258	0.0028536
1270	0.0029274
1282	0.0030463
1294	0.002993
1306	0.002747
1318	0.0024969
1330	0.0025953
1342	0.0029971
1354	0.0033948
1366	0.005412
1378	0.0081262
1390	0.0068511
1402	0.0032923
1414	0.0017794
1426	0.0017261
1438	0.0024108
1450	0.0039073
1462	0.0055637
1474	0.0049364
1486	0.0025584
1498	0.001189
1510	0.0007503
1522	0.0005699
1534	0.0004469
1546	0.0003485
1558	0.0002624
1570	0.000246
1582	0.0002091
1594	0.0002132
1606	0.0001927
1618	0.000164
1630	0.0001722
1642	0.000164
1654	0.0001517
1666	0.0001394
1678	0.0001435
1690	9.02e-05
1702	5.33e-05
1714	6.15e-05
1726	3.69e-05
1738	4.1e-05
1750	4.92e-05
1762	4.51e-05
1774	3.28e-05
1786	2.05e-05
1798	3.28e-05
1810	1.23e-05
1822	2.05e-05
1834	2.87e-05
1846	4.51e-05
1858	3.69e-05
1870	3.69e-05
1882	2.87e-05
1894	2.46e-05
1906	2.05e-05
1918	2.05e-05
1930	2.87e-05
1942	4.1e-06
1954	2.46e-05
1966	4.1e-06
1978	1.23e-05
1990	2.46e-05
2002	1.64e-05
2014	1.23e-05
2026	2.05e-05
2038	3.69e-05
2050	4.1e-05
2062	2.87e-05
2074	2.87e-05
2086	4.1e-05
2098	1.23e-05
2110	1.64e-05
2122	8.2e-06
2134	2.87e-05
2146	4.1e-06
2158	1.64e-05
2170	2.05e-05
2182	8.2e-06
2194	2.46e-05
2206	2.46e-05
2218	1.64e-05
2230	4.51e-05
2242	4.1e-05
2254	5.33e-05
2266	3.28e-05
2278	6.15e-05
2290	5.33e-05
2302	6.56e-05
2314	6.56e-05
2326	4.51e-05
2338	7.38e-05
2350	8.2e-05
2362	9.43e-05
2374	9.43e-05
2386	0.0001148
2398	0.0001107
2410	0.0001025
2422	9.02e-05
2434	7.79e-05
2446	8.2e-05
2458	7.79e-05
2470	7.79e-05
2482	9.84e-05
2494	0.0001025
2506	0.0001107
2518	0.0001271
2530	0.0001394
2542	0.000123
2554	0.000164
2566	0.0002091
2578	0.0002296
2590	0.0002665
2602	0.000328
2614	0.0003444
2626	0.0003239
2638	0.0003239
2650	0.0003321
2662	0.0003485
2674	0.0003526
2686	0.0004182
2698	0.0004018
2710	0.0004469
2722	0.0005658
2734	0.0007134
2746	0.0007667
2758	0.0007585
2770	0.0008159
2782	0.0009307
2794	0.0011111
2806	0.0013899
2818	0.0017876
2830	0.0023903
2842	0.0034768
2854	0.0058794
2866	0.0103402
2878	0.0153914
2890	0.0166542
2902	0.0153463
2914	0.0172036
2926	0.0222015
2938	0.0297701
2950	0.031939
2962	0.0373387
2974	0.0394502
2986	0.0244729
2998	0.0113078
3010	0.0049692
3022	0.002952
3034	0.0021361
3046	0.0016646
3058	0.0013694
3070	0.0011972
3082	0.0010865
3094	0.0009963
3106	0.0008692
3118	0.0007667
3130	0.0006847
3142	0.0006191
3154	0.000615
3166	0.0005658
3178	0.0005658
3190	0.0005166
3202	0.0004305
3214	0.0003034
3226	0.0002501
3238	0.0001722
3250	0.0001435
3262	0.0001066
3274	9.43e-05
3286	0.0001066
3298	7.79e-05
3310	4.51e-05
3322	7.79e-05
3334	8.61e-05
3346	7.79e-05
3358	7.79e-05
3370	0.000123
3382	0.0001107
3394	0.0001107
3406	0.0001353
3418	0.0001353
3430	0.0001312
3442	0.0001353
3454	0.0001189
3466	0.0001271
3478	8.61e-05
3490	9.84e-05
3502	8.2e-05
3514	2.87e-05
3526	4.1e-05
3538	4.92e-05
3550	6.56e-05
3562	5.33e-05
3574	3.69e-05
3586	9.02e-05
3598	7.38e-05
3610	0.0001353
3622	0.0004797
3634	0.0013448
3646	0.0017671
3658	0.0009143
3670	0.0003239
3682	0.0001107
3694	8.61e-05
3706	6.15e-05
3718	3.28e-05
3730	5.33e-05
3742	2.87e-05
3754	8.2e-06
3766	4.1e-05
3778	6.97e-05
3790	9.43e-05
3802	9.02e-05
3814	0.0001189
3826	0.0001681
3838	0.0001353
