Infrared Spectrum: PIVALIC ACID, HYDROXY-, LACTONE
Formula: C5 H8 O2
CAS: 1955-45-9
Boiling point: 58 C AT 15 mmHg
Class: COBLENTZ
Instrument: Not specified, most likely a prism, grating, or hybrid spectrometer.
Sampling: TRANSMISSION
Path length: SMEAR
Resolution: 4
Origin: TENNESSEE EASTMAN COMPANY, RESEARCH LABORATORIES
MICROMETERS	TRANSMITTANCE
1.993	0.915
2.03429	0.915
2.07558	0.913
2.11687	0.913
2.15816	0.915
2.19945	0.908
2.24074	0.901
2.28204	0.896
2.32333	0.898
2.36462	0.9
2.40591	0.903
2.4472	0.905
2.48849	0.905
2.52978	0.9
2.57107	0.893
2.61236	0.893
2.65365	0.896
2.69494	0.865
2.73623	0.858
2.77752	0.874
2.81881	0.881
2.86011	0.889
2.9014	0.893
2.94269	0.893
2.98398	0.891
3.02527	0.889
3.06656	0.889
3.10785	0.889
3.14914	0.884
3.19043	0.895
3.23172	0.884
3.27301	0.843
3.3143	0.64
3.35559	0.676
3.39689	0.659
3.43818	0.724
3.47947	0.867
3.52076	0.882
3.56205	0.901
3.60334	0.903
3.64463	0.905
3.68592	0.91
3.72721	0.913
3.7685	0.915
3.80979	0.912
3.85108	0.893
3.89237	0.905
3.93367	0.917
3.97496	0.919
4.01625	0.919
4.05754	0.92
4.09883	0.92
4.14012	0.903
4.18141	0.913
4.2227	0.932
4.26399	0.931
4.30528	0.927
4.34657	0.919
4.38786	0.922
4.42915	0.922
4.47044	0.915
4.51174	0.895
4.55303	0.895
4.59432	0.907
4.63561	0.92
4.6769	0.92
4.71819	0.915
4.75948	0.922
4.80077	0.922
4.84206	0.915
4.88335	0.901
4.92464	0.867
4.96593	0.874
5.00722	0.888
5.04852	0.869
5.08981	0.802
5.1311	0.85
5.17239	0.882
5.21368	0.862
5.25497	0.826
5.29626	0.662
5.33755	0.444
5.37884	0.308
5.42013	0.065
5.46142	0.03
5.50271	0.139
5.544	0.493
5.5853	0.641
5.62659	0.679
5.66788	0.741
5.70917	0.833
5.75046	0.86
5.79175	0.872
5.83304	0.862
5.87433	0.833
5.91562	0.851
5.95691	0.862
5.9982	0.867
6.03949	0.862
6.08078	0.869
6.12207	0.872
6.16337	0.872
6.20466	0.893
6.24595	0.903
6.28724	0.91
6.32853	0.898
6.36982	0.888
6.41111	0.881
6.4524	0.853
6.49369	0.872
6.53498	0.86
6.57627	0.862
6.61756	0.857
6.65885	0.82
6.70015	0.697
6.74144	0.629
6.78273	0.55
6.82402	0.678
6.86531	0.719
6.9066	0.807
6.94789	0.846
6.98918	0.857
7.03047	0.862
7.07176	0.85
7.11305	0.765
7.15434	0.592
7.19563	0.759
7.23693	0.786
7.27822	0.736
7.31951	0.846
7.3608	0.872
7.40209	0.864
7.44338	0.795
7.48467	0.635
7.52596	0.741
7.56725	0.836
7.60854	0.865
7.64983	0.888
7.69112	0.895
7.73241	0.896
7.7737	0.895
7.815	0.889
7.85629	0.881
7.89758	0.867
7.93887	0.814
7.98016	0.678
8.02145	0.746
8.06274	0.8
8.10403	0.826
8.14532	0.833
8.18661	0.807
8.2279	0.796
8.26919	0.759
8.31048	0.629
8.35178	0.535
8.39307	0.631
8.43436	0.724
8.47565	0.762
8.51694	0.795
8.55823	0.8
8.59952	0.81
8.64081	0.81
8.6821	0.805
8.72339	0.79
8.76468	0.753
8.80597	0.705
8.84726	0.648
8.88855	0.569
8.92985	0.421
8.97114	0.283
9.01243	0.151
9.05372	0.104
9.09501	0.113
9.1363	0.225
9.17759	0.395
9.21888	0.524
9.26017	0.624
9.30146	0.703
9.34275	0.741
9.38404	0.757
9.42533	0.771
9.46663	0.779
9.50792	0.793
9.54921	0.803
9.5905	0.814
9.63179	0.824
9.67308	0.833
9.71437	0.836
9.75566	0.838
9.79695	0.841
9.83824	0.846
9.87953	0.853
9.92082	0.85
9.96211	0.851
10.0034	0.841
10.0447	0.831
10.086	0.829
10.1273	0.833
10.1686	0.841
10.2099	0.845
10.2511	0.841
10.2924	0.838
10.3337	0.819
10.375	0.812
10.4163	0.803
10.4576	0.814
10.4989	0.808
10.5402	0.788
10.5815	0.76
10.6228	0.743
10.6641	0.703
10.7053	0.654
10.7466	0.612
10.7879	0.523
10.8292	0.356
10.8705	0.208
10.9118	0.137
10.9531	0.13
10.9944	0.235
11.0357	0.407
11.077	0.542
11.1183	0.621
11.1595	0.679
11.2008	0.71
11.2421	0.731
11.2834	0.748
11.3247	0.76
11.366	0.776
11.4073	0.793
11.4486	0.805
11.4899	0.814
11.5312	0.819
11.5725	0.819
11.6137	0.795
11.655	0.709
11.6963	0.574
11.7376	0.528
11.7789	0.664
11.8202	0.752
11.8615	0.803
11.9028	0.827
11.9441	0.843
11.9854	0.853
12.0267	0.862
12.0679	0.867
12.1092	0.87
12.1505	0.872
12.1918	0.872
12.2331	0.874
12.2744	0.874
12.3157	0.877
12.357	0.879
12.3983	0.879
12.4396	0.882
12.4809	0.881
12.5221	0.881
12.5634	0.881
12.6047	0.877
12.646	0.877
12.6873	0.877
12.7286	0.877
12.7699	0.87
12.8112	0.865
12.8525	0.846
12.8938	0.831
12.935	0.815
12.9763	0.822
13.0176	0.838
13.0589	0.848
13.1002	0.855
13.1415	0.862
13.1828	0.855
13.2241	0.858
13.2654	0.846
13.3067	0.841
13.348	0.808
13.3892	0.779
13.4305	0.714
13.4718	0.695
13.5131	0.734
13.5544	0.786
13.5957	0.817
13.637	0.843
13.6783	0.851
13.7196	0.858
13.7609	0.862
13.8022	0.865
13.8434	0.865
13.8847	0.869
13.926	0.867
13.9673	0.87
14.0086	0.869
14.0499	0.869
14.0912	0.869
14.1325	0.865
14.1738	0.867
14.2151	0.867
14.2564	0.865
14.2976	0.864
14.3389	0.862
14.3802	0.858
14.4215	0.857
14.4628	0.853
14.5041	0.851
14.5454	0.848
14.5867	0.85
14.628	0.848
14.6693	0.846
14.7106	0.843
14.7518	0.841
14.7931	0.839
14.8344	0.833
14.8757	0.827
14.917	0.815
14.9583	0.8
14.9996	0.796
15.0409	0.798
15.0822	0.802
15.1235	0.808
15.1647	0.822
15.206	0.824
15.2473	0.824
15.2886	0.822
15.3299	0.817
15.3712	0.815
15.4125	0.812
15.4538	0.807
15.4951	0.803
15.5364	0.8
15.5777	0.802
15.6189	0.796
15.6602	0.795
15.7015	0.791
15.7428	0.788
15.7841	0.783
15.8254	0.774
15.8667	0.772
15.908	0.771
15.9493	0.764
