Infrared Spectrum: 4,4-Dimethyl-3-hexanone
Formula: C 8 H 16 O
CAS: 19550-14-2
State: gas
Instrument: HP-GC/MS/IRD
Origin: NIST Mass Spectrometry Data Center
1/CM	ABSORBANCE
550	0.0006665
562	0.0005549
574	0.0002542
586	1.24e-05
598	0.0001116
610	0.0001364
622	0.0001612
634	0.0001209
646	9.61e-05
658	2.48e-05
670	2.79e-05
682	0.0001209
694	6.2e-05
706	0.0002108
718	0.0001953
730	0.0001643
742	0.000124
754	0.0002697
766	0.00062
778	0.000899
790	0.0008122
802	0.000713
814	0.0008153
826	0.0006789
838	0.000341
850	0.0002449
862	0.0002356
874	0.0002604
886	0.0003813
898	0.0006758
910	0.0008804
922	0.000961
934	0.0014787
946	0.0033387
958	0.0061318
970	0.0060078
982	0.0030659
994	0.0022289
1006	0.0031217
1018	0.0035185
1030	0.002697
1042	0.0021297
1054	0.0022599
1066	0.002542
1078	0.0030659
1090	0.005177
1102	0.0064666
1114	0.004681
1126	0.0026319
1138	0.0016275
1150	0.0010881
1162	0.001085
1174	0.0010819
1186	0.0009889
1198	0.0010323
1210	0.0011656
1222	0.0012834
1234	0.0012059
1246	0.0008897
1258	0.0007471
1270	0.0006634
1282	0.0007254
1294	0.0009703
1306	0.0013175
1318	0.001984
1330	0.0029605
1342	0.003534
1354	0.003503
1366	0.0043493
1378	0.0054839
1390	0.0056079
1402	0.0034937
1414	0.0022227
1426	0.0024087
1438	0.0030938
1450	0.0048546
1462	0.0074865
1474	0.0077748
1486	0.0043834
1498	0.0017081
1510	0.0009548
1522	0.0006975
1534	0.0005611
1546	0.0004743
1558	0.0004464
1570	0.0004278
1582	0.0004278
1594	0.0003968
1606	0.0004278
1618	0.0004464
1630	0.0005642
1642	0.0006851
1654	0.0008959
1666	0.0014508
1678	0.0025265
1690	0.0048949
1702	0.0121334
1714	0.0216504
1726	0.0168175
1738	0.0055893
1750	0.0019282
1762	0.0009269
1774	0.0005332
1786	0.0003472
1798	0.0002635
1810	0.0002356
1822	0.0001891
1834	0.0001612
1846	0.0001519
1858	0.0001178
1870	0.0001147
1882	8.68e-05
1894	9.92e-05
1906	7.13e-05
1918	7.75e-05
1930	8.99e-05
1942	8.37e-05
1954	8.37e-05
1966	6.2e-05
1978	7.44e-05
1990	4.96e-05
2002	5.27e-05
2014	5.89e-05
2026	6.2e-05
2038	5.27e-05
2050	4.34e-05
2062	3.1e-05
2074	4.03e-05
2086	2.17e-05
2098	2.48e-05
2110	3.72e-05
2122	2.79e-05
2134	1.86e-05
2146	2.79e-05
2158	2.48e-05
2170	3.1e-05
2182	9.3e-06
2194	2.17e-05
2206	1.55e-05
2218	1.24e-05
2230	3.41e-05
2242	3.1e-05
2254	3.1e-05
2266	4.03e-05
2278	4.65e-05
2290	5.58e-05
2302	5.58e-05
2314	7.44e-05
2326	0.0001023
2338	9.3e-05
2350	0.0001023
2362	0.0001023
2374	9.3e-05
2386	8.37e-05
2398	8.68e-05
2410	7.13e-05
2422	6.51e-05
2434	7.75e-05
2446	7.13e-05
2458	8.99e-05
2470	6.2e-05
2482	4.65e-05
2494	3.72e-05
2506	4.96e-05
2518	5.58e-05
2530	7.75e-05
2542	7.13e-05
2554	6.51e-05
2566	6.51e-05
2578	9.61e-05
2590	0.0001023
2602	0.0001209
2614	0.0001364
2626	0.0001581
2638	0.0002139
2650	0.0002108
2662	0.0002387
2674	0.0002356
2686	0.0002139
2698	0.000248
2710	0.0002821
2722	0.0003596
2734	0.0004743
2746	0.0005828
2758	0.00062
2770	0.0006603
2782	0.0007006
2794	0.0008153
2806	0.0009641
2818	0.0012431
2830	0.0015469
2842	0.0020801
2854	0.0033821
2866	0.0059272
2878	0.0090427
2890	0.0112933
2902	0.0115041
2914	0.0132184
2926	0.0164331
2938	0.0196261
2950	0.0213714
2962	0.0246667
2974	0.031
2986	0.0251348
2998	0.0127658
3010	0.005704
3022	0.0031372
3034	0.0021111
3046	0.0016151
3058	0.0013144
3070	0.0011687
3082	0.0010726
3094	0.0009238
3106	0.0008277
3118	0.0007657
3130	0.0006789
3142	0.000589
3154	0.0006014
3166	0.0005735
3178	0.0004898
3190	0.0004495
3202	0.0003658
3214	0.0003162
3226	0.000279
3238	0.0002263
3250	0.0002046
3262	0.0001581
3274	0.0001736
3286	0.000124
3298	0.000155
3310	0.0001364
3322	0.000124
3334	0.0001395
3346	0.0001395
3358	0.0001643
3370	0.0001674
3382	0.0002077
3394	0.0003193
3406	0.0004681
3418	0.0004681
3430	0.0003472
3442	0.0001798
3454	0.0001426
3466	9.3e-05
3478	8.37e-05
3490	8.99e-05
3502	0.0001054
3514	5.27e-05
3526	7.44e-05
3538	6.2e-06
3550	5.27e-05
3562	6.2e-05
3574	2.79e-05
3586	7.13e-05
3598	6.82e-05
3610	3.41e-05
3622	5.27e-05
3634	6.82e-05
3646	3.1e-05
3658	7.75e-05
3670	7.75e-05
3682	5.58e-05
3694	0.0001147
3706	4.65e-05
3718	7.75e-05
3730	7.44e-05
3742	7.75e-05
3754	3.1e-05
3766	3.41e-05
3778	5.58e-05
3790	8.68e-05
3802	5.58e-05
3814	7.13e-05
3826	7.13e-05
3838	9.3e-05
