Infrared Spectrum: trans-3,4-Dimethyl-2-hexene
Formula: C 8 H 16
CAS: 19550-82-4
State: gas
Instrument: HP-GC/MS/IRD
Origin: NIST Mass Spectrometry Data Center
1/CM	ABSORBANCE
550	0.0010757
562	0.0007068
574	0.0002976
586	0.0002852
598	0.0001643
610	0.0001271
622	0.0001085
634	7.75e-05
646	3.1e-06
658	0.0001116
670	3.1e-06
682	5.58e-05
694	7.44e-05
706	0.0001457
718	0.000248
730	0.0002604
742	0.0002418
754	0.0002108
766	0.0002883
778	0.0004681
790	0.0007998
802	0.0014043
814	0.0023684
826	0.0021917
838	0.0010943
850	0.000496
862	0.0002759
874	0.0002232
886	0.0001767
898	0.0001829
910	0.000248
922	0.0002945
934	0.000434
946	0.0005425
958	0.000837
970	0.0010633
982	0.0011749
994	0.0014322
1006	0.001674
1018	0.0015934
1030	0.0012555
1042	0.000992
1054	0.0010199
1066	0.0011966
1078	0.0015531
1090	0.0016895
1102	0.001333
1114	0.0007688
1126	0.0004991
1138	0.0005208
1150	0.0004867
1162	0.000372
1174	0.0002573
1186	0.0002697
1198	0.0003224
1210	0.0003255
1222	0.0002697
1234	0.0002635
1246	0.0003038
1258	0.0003689
1270	0.0004464
1282	0.0005456
1294	0.0005983
1306	0.0007316
1318	0.0010633
1330	0.001178
1342	0.0011935
1354	0.0016275
1366	0.0028427
1378	0.0044423
1390	0.0041881
1402	0.0023033
1414	0.0015655
1426	0.0016802
1438	0.0023591
1450	0.0037479
1462	0.0047089
1474	0.0035092
1486	0.0019747
1498	0.0012958
1510	0.0010695
1522	0.0009734
1534	0.0008928
1546	0.0007967
1558	0.0006913
1570	0.0005797
1582	0.0004588
1594	0.0004216
1606	0.0003999
1618	0.0004216
1630	0.0004526
1642	0.0004898
1654	0.0005456
1666	0.0005084
1678	0.0003007
1690	0.0001705
1702	0.0001178
1714	8.68e-05
1726	7.13e-05
1738	6.51e-05
1750	6.2e-05
1762	6.2e-05
1774	6.2e-05
1786	7.75e-05
1798	0.0001085
1810	0.000124
1822	0.0001612
1834	0.0002046
1846	0.000217
1858	0.000186
1870	0.0001209
1882	7.44e-05
1894	4.65e-05
1906	7.13e-05
1918	4.96e-05
1930	3.72e-05
1942	4.65e-05
1954	9.3e-06
1966	1.86e-05
1978	2.79e-05
1990	3.72e-05
2002	3.1e-05
2014	3.41e-05
2026	2.48e-05
2038	3.72e-05
2050	4.03e-05
2062	3.1e-05
2074	2.17e-05
2086	1.55e-05
2098	2.48e-05
2110	9.3e-06
2122	2.48e-05
2134	2.17e-05
2146	1.55e-05
2158	9.3e-06
2170	2.79e-05
2182	2.48e-05
2194	3.41e-05
2206	3.1e-05
2218	2.48e-05
2230	1.86e-05
2242	3.72e-05
2254	2.17e-05
2266	2.79e-05
2278	2.17e-05
2290	3.1e-05
2302	4.34e-05
2314	6.2e-05
2326	4.65e-05
2338	6.2e-05
2350	6.51e-05
2362	8.68e-05
2374	9.92e-05
2386	0.0001085
2398	0.0001178
2410	0.0001209
2422	0.0001147
2434	0.000124
2446	9.92e-05
2458	9.3e-05
2470	8.68e-05
2482	6.82e-05
2494	7.13e-05
2506	6.2e-05
2518	5.58e-05
2530	9.3e-05
2542	0.0001178
2554	0.000124
2566	0.0001705
2578	0.0001705
2590	0.0001767
2602	0.0001736
2614	0.000186
2626	0.0001922
2638	0.000186
2650	0.0001953
2662	0.0002604
2674	0.0002666
2686	0.0003038
2698	0.0003317
2710	0.0004619
2722	0.0006634
2734	0.000806
2746	0.0008463
2758	0.0007967
2770	0.0007781
2782	0.0008556
2794	0.0010478
2806	0.0013175
2818	0.0017391
2830	0.0023777
2842	0.0035743
2854	0.0067053
2866	0.0129952
2878	0.0178033
2890	0.0165261
2902	0.0144243
2914	0.0180637
2926	0.0246419
2938	0.0247318
2950	0.0220162
2962	0.0290036
2974	0.0288796
2986	0.016399
2998	0.0094209
3010	0.0075578
3022	0.0065162
3034	0.0053196
3046	0.0041044
3058	0.0031527
3070	0.0023591
3082	0.0016368
3094	0.0012648
3106	0.0010602
3118	0.0009052
3130	0.0007316
3142	0.0006045
3154	0.0005456
3166	0.0004805
3178	0.0003999
3190	0.0003224
3202	0.0002945
3214	0.000248
3226	0.0001674
3238	0.000124
3250	0.0001147
3262	0.0001116
3274	9.92e-05
3286	6.51e-05
3298	4.34e-05
3310	8.99e-05
3322	3.72e-05
3334	5.58e-05
3346	5.27e-05
3358	4.03e-05
3370	8.99e-05
3382	6.82e-05
3394	3.72e-05
3406	5.89e-05
3418	5.27e-05
3430	7.44e-05
3442	4.96e-05
3454	4.96e-05
3466	7.13e-05
3478	4.34e-05
3490	3.72e-05
3502	9.61e-05
3514	4.03e-05
3526	3.72e-05
3538	2.17e-05
3550	3.1e-05
3562	2.48e-05
3574	4.03e-05
3586	1.86e-05
3598	5.27e-05
3610	3.1e-05
3622	4.96e-05
3634	3.72e-05
3646	5.27e-05
3658	2.79e-05
3670	5.27e-05
3682	4.03e-05
3694	5.27e-05
3706	9.92e-05
3718	9.3e-05
3730	5.27e-05
3742	9.61e-05
3754	8.68e-05
3766	6.82e-05
3778	6.82e-05
3790	7.75e-05
3802	5.89e-05
3814	7.75e-05
3826	9.92e-05
3838	8.06e-05
