Infrared Spectrum: 2,5-Dimethyl-3-hexanol
Formula: C 8 H 18 O
CAS: 19550-07-3
State: gas
Instrument: HP-GC/MS/IRD
Origin: NIST Mass Spectrometry Data Center
1/CM	ABSORBANCE
550	0.000392
562	0.000322
574	0.0001575
586	0.000112
598	0.000252
610	0.000175
622	9.8e-05
634	3.5e-05
646	8.4e-05
658	0.0001155
670	7.7e-05
682	1.05e-05
694	7e-06
706	1.75e-05
718	2.8e-05
730	6.3e-05
742	2.8e-05
754	4.55e-05
766	7.35e-05
778	0.000126
790	0.0003045
802	0.000357
814	0.00035
826	0.000518
838	0.0008855
850	0.000882
862	0.0006195
874	0.0004025
886	0.0003885
898	0.000476
910	0.0008435
922	0.0012705
934	0.0016275
946	0.001813
958	0.0018165
970	0.002485
982	0.004053
994	0.004613
1006	0.0039515
1018	0.0035
1030	0.003388
1042	0.0030275
1054	0.002457
1066	0.0020615
1078	0.002065
1090	0.002275
1102	0.0024605
1114	0.0023905
1126	0.0024465
1138	0.002786
1150	0.0027965
1162	0.0027545
1174	0.002373
1186	0.0016555
1198	0.001659
1210	0.0019775
1222	0.002128
1234	0.0020195
1246	0.0020055
1258	0.0020265
1270	0.002107
1282	0.001967
1294	0.001715
1306	0.001547
1318	0.0014385
1330	0.0015365
1342	0.0018865
1354	0.0025935
1366	0.0042245
1378	0.0054775
1390	0.005047
1402	0.0030345
1414	0.001589
1426	0.001351
1438	0.0016835
1450	0.002646
1462	0.004158
1474	0.004298
1486	0.0023765
1498	0.001022
1510	0.0005495
1522	0.0003675
1534	0.000287
1546	0.0002135
1558	0.000161
1570	0.000161
1582	0.000133
1594	0.0001295
1606	0.0001225
1618	9.8e-05
1630	0.000112
1642	0.000119
1654	8.05e-05
1666	0.0001085
1678	9.8e-05
1690	8.05e-05
1702	6.65e-05
1714	8.75e-05
1726	3.85e-05
1738	4.2e-05
1750	1.75e-05
1762	1.75e-05
1774	3.5e-06
1786	1.05e-05
1798	1.05e-05
1810	1.75e-05
1822	2.1e-05
1834	1.75e-05
1846	1.75e-05
1858	1.75e-05
1870	2.1e-05
1882	2.8e-05
1894	2.8e-05
1906	5.6e-05
1918	1.4e-05
1930	3.5e-06
1942	2.1e-05
1954	2.1e-05
1966	3.5e-06
1978	2.45e-05
1990	3.15e-05
2002	3.5e-05
2014	2.45e-05
2026	2.1e-05
2038	2.1e-05
2050	1.05e-05
2062	1.05e-05
2074	7e-06
2086	1.05e-05
2098	2.1e-05
2110	1.4e-05
2122	3.5e-05
2134	1.4e-05
2146	2.45e-05
2158	7e-06
2170	3.15e-05
2182	3.85e-05
2194	2.8e-05
2206	2.8e-05
2218	7e-06
2230	2.1e-05
2242	2.1e-05
2254	2.1e-05
2266	3.15e-05
2278	2.8e-05
2290	3.5e-05
2302	2.8e-05
2314	4.2e-05
2326	3.15e-05
2338	1.05e-05
2350	4.2e-05
2362	5.25e-05
2374	8.4e-05
2386	9.8e-05
2398	8.4e-05
2410	8.4e-05
2422	7.7e-05
2434	6.65e-05
2446	8.75e-05
2458	9.45e-05
2470	0.000105
2482	8.75e-05
2494	8.75e-05
2506	7e-05
2518	0.0001015
2530	9.45e-05
2542	0.000112
2554	0.00014
2566	0.000161
2578	0.0002065
2590	0.0002765
2602	0.0003465
2614	0.000315
2626	0.0003115
2638	0.0003255
2650	0.000343
2662	0.0003465
2674	0.0003605
2686	0.0003955
2698	0.000413
2710	0.0005005
2722	0.000623
2734	0.0007385
2746	0.0007315
2758	0.0007105
2770	0.0007595
2782	0.000833
2794	0.000945
2806	0.001155
2818	0.001498
2830	0.00203
2842	0.0029925
2854	0.004564
2866	0.007819
2878	0.01281
2890	0.0140245
2902	0.013853
2914	0.014987
2926	0.017318
2938	0.019614
2950	0.0224945
2962	0.03402
2974	0.0282205
2986	0.0108465
2998	0.004137
3010	0.002072
3022	0.0013265
3034	0.0009555
3046	0.000854
3058	0.000756
3070	0.0006825
3082	0.0006545
3094	0.0006335
3106	0.000574
3118	0.0004865
3130	0.000434
3142	0.0004445
3154	0.000441
3166	0.0004445
3178	0.000427
3190	0.0004025
3202	0.000294
3214	0.000196
3226	0.000154
3238	0.000105
3250	7.35e-05
3262	4.55e-05
3274	5.6e-05
3286	4.55e-05
3298	4.2e-05
3310	4.9e-05
3322	4.9e-05
3334	3.85e-05
3346	6.3e-05
3358	7e-05
3370	4.55e-05
3382	0.000105
3394	8.4e-05
3406	8.75e-05
3418	8.75e-05
3430	3.85e-05
3442	7.7e-05
3454	5.95e-05
3466	7e-05
3478	6.65e-05
3490	6.3e-05
3502	2.8e-05
3514	2.45e-05
3526	2.1e-05
3538	7e-06
3550	7e-06
3562	1.75e-05
3574	3.5e-05
3586	5.25e-05
3598	6.3e-05
3610	0.000161
3622	0.000322
3634	0.000672
3646	0.0011935
3658	0.0015155
3670	0.0010465
3682	0.0004165
3694	0.0001435
3706	0.0001155
3718	0.000112
3730	7e-05
3742	5.25e-05
3754	3.5e-05
3766	7e-05
3778	7.7e-05
3790	9.45e-05
3802	8.75e-05
3814	0.0001225
3826	0.0001785
3838	0.000126
