Infrared Spectrum: trans-4,4-Dimethyl-2-hexene
Formula: C 8 H 16
CAS: 19550-83-5
State: gas
Instrument: HP-GC/MS/IRD
Origin: NIST Mass Spectrometry Data Center
1/CM	ABSORBANCE
550	0
562	1.32e-05
574	5.61e-05
586	0.0001716
598	0.0002541
610	0.0001947
622	0.0001287
634	0.0001716
646	0.000231
658	0.0001749
670	0.0002178
682	0.0002178
694	0.000231
706	0.0001782
718	0.0001782
730	0.0002376
742	0.0002574
754	0.0002739
766	0.000363
778	0.0005511
790	0.0006138
802	0.0005511
814	0.0003564
826	0.0003267
838	0.0002871
850	0.0003234
862	0.0003465
874	0.0003927
886	0.000429
898	0.0005874
910	0.0008151
922	0.0010395
934	0.0012903
946	0.0019074
958	0.0037422
970	0.006039
982	0.0058476
994	0.0035739
1006	0.0021714
1018	0.0015972
1030	0.001122
1042	0.0008613
1054	0.0007161
1066	0.0005379
1078	0.0004587
1090	0.0004125
1102	0.0003663
1114	0.0003795
1126	0.0003828
1138	0.0004818
1150	0.0006105
1162	0.0008217
1174	0.0009702
1186	0.0010263
1198	0.0009108
1210	0.0007821
1222	0.0006798
1234	0.0006534
1246	0.0005511
1258	0.0004422
1270	0.000462
1282	0.000528
1294	0.0007392
1306	0.000825
1318	0.0008118
1330	0.000792
1342	0.0009174
1354	0.0016995
1366	0.0031911
1378	0.0038412
1390	0.0033825
1402	0.0018612
1414	0.0011715
1426	0.0013893
1438	0.0020889
1450	0.0035376
1462	0.0047619
1474	0.0041976
1486	0.002376
1498	0.0011022
1510	0.0007524
1522	0.0005841
1534	0.0004488
1546	0.0004158
1558	0.000396
1570	0.0003927
1582	0.00033
1594	0.0003036
1606	0.0003102
1618	0.0002838
1630	0.0002607
1642	0.0002574
1654	0.0002607
1666	0.0002475
1678	0.0002112
1690	0.0001848
1702	0.0002145
1714	0.0002079
1726	0.0002376
1738	0.0003564
1750	0.0004158
1762	0.0003663
1774	0.0002475
1786	0.0001848
1798	0.0001683
1810	0.000198
1822	0.0002145
1834	0.0002079
1846	0.0001815
1858	0.0001188
1870	0.0001122
1882	0.0001122
1894	0.0001056
1906	7.59e-05
1918	9.9e-05
1930	9.24e-05
1942	5.94e-05
1954	5.61e-05
1966	7.59e-05
1978	8.25e-05
1990	7.92e-05
2002	0.0001056
2014	9.24e-05
2026	8.25e-05
2038	7.26e-05
2050	5.94e-05
2062	5.94e-05
2074	5.61e-05
2086	4.29e-05
2098	5.61e-05
2110	5.28e-05
2122	2.97e-05
2134	1.98e-05
2146	3.63e-05
2158	2.31e-05
2170	4.62e-05
2182	3.3e-05
2194	3.3e-05
2206	1.65e-05
2218	9.9e-06
2230	3.96e-05
2242	2.31e-05
2254	1.98e-05
2266	2.31e-05
2278	4.62e-05
2290	7.59e-05
2302	7.26e-05
2314	8.58e-05
2326	7.59e-05
2338	7.92e-05
2350	8.91e-05
2362	0.0001221
2374	9.9e-05
2386	9.9e-05
2398	9.9e-05
2410	0.0001023
2422	6.93e-05
2434	8.25e-05
2446	8.25e-05
2458	8.58e-05
2470	9.57e-05
2482	9.24e-05
2494	7.92e-05
2506	0.0001023
2518	8.58e-05
2530	0.0001287
2542	0.0001188
2554	0.0001221
2566	0.0001056
2578	0.0001122
2590	0.0001419
2602	0.0001617
2614	0.0001848
2626	0.0002079
2638	0.0002442
2650	0.0002343
2662	0.0002409
2674	0.000231
2686	0.0002475
2698	0.0003036
2710	0.0003894
2722	0.0005016
2734	0.0006633
2746	0.0007293
2758	0.0006303
2770	0.0006336
2782	0.0007095
2794	0.0008085
2806	0.0009999
2818	0.0012639
2830	0.0016929
2842	0.0027258
2854	0.0056265
2866	0.0097218
2878	0.0119724
2890	0.0123486
2902	0.0131472
2914	0.0166023
2926	0.0203577
2938	0.0204468
2950	0.0219648
2962	0.0311058
2974	0.0304293
2986	0.0152592
2998	0.0064713
3010	0.0043857
3022	0.0041712
3034	0.0040854
3046	0.003102
3058	0.0022407
3070	0.001815
3082	0.0014784
3094	0.0012045
3106	0.0010098
3118	0.0008547
3130	0.0007227
3142	0.0006336
3154	0.0005247
3166	0.000462
3178	0.0004719
3190	0.0004323
3202	0.0004455
3214	0.0004125
3226	0.0003696
3238	0.0002937
3250	0.0002838
3262	0.0002673
3274	0.0001749
3286	0.0001584
3298	0.0001518
3310	0.0001584
3322	0.0001848
3334	0.0001584
3346	0.0001386
3358	0.0001155
3370	8.91e-05
3382	0.0001254
3394	0.0001155
3406	0.0001386
3418	0.000132
3430	8.91e-05
3442	9.9e-05
3454	9.24e-05
3466	7.92e-05
3478	8.58e-05
3490	8.58e-05
3502	0.0001056
3514	0.0001122
3526	4.62e-05
3538	5.28e-05
3550	7.26e-05
3562	3.63e-05
3574	3.96e-05
3586	1.65e-05
3598	3.96e-05
3610	4.95e-05
3622	2.31e-05
3634	5.94e-05
3646	6.27e-05
3658	6.27e-05
3670	7.92e-05
3682	7.59e-05
3694	9.57e-05
3706	9.9e-05
3718	8.25e-05
3730	0.0001155
3742	6.27e-05
3754	9.24e-05
3766	4.62e-05
3778	5.61e-05
3790	4.95e-05
3802	9.57e-05
3814	9.57e-05
3826	0.0001056
3838	0.0001386
