Infrared Spectrum: 1,4-Dimethyl-2-(3,7-dimethyloctyl)benzene
Formula: C 18 H 30
CAS: 19550-60-8
State: gas
Instrument: HP-GC/MS/IRD
Origin: NIST Mass Spectrometry Data Center
1/CM	ABSORBANCE
550	0.0004655
562	0.0003528
574	0.0002352
586	0.0001617
598	0.0001421
610	0.0002891
622	0.0002156
634	2.94e-05
646	3.92e-05
658	8.33e-05
670	2.94e-05
682	4.9e-06
694	0.0001225
706	0.0003136
718	0.0005341
730	0.0005782
742	0.0004459
754	0.0003038
766	0.0003822
778	0.0006027
790	0.0020335
802	0.007252
814	0.0028224
826	0.0008085
838	0.0005439
850	0.0004802
862	0.0006174
874	0.0011809
886	0.0008624
898	0.0003626
910	0.0003969
922	0.0006468
934	0.0006615
946	0.0005439
958	0.0005096
970	0.000588
982	0.0008134
994	0.0009016
1006	0.0008085
1018	0.0006958
1030	0.0006517
1042	0.0007987
1054	0.0007938
1066	0.0007007
1078	0.0005978
1090	0.0006223
1102	0.0006958
1114	0.0006713
1126	0.0008232
1138	0.0008869
1150	0.0013671
1162	0.0018081
1174	0.0013524
1186	0.0008624
1198	0.000784
1210	0.0010192
1222	0.0009457
1234	0.0009016
1246	0.0009359
1258	0.0008722
1270	0.0009016
1282	0.0010143
1294	0.0010192
1306	0.0011368
1318	0.0014112
1330	0.0018228
1342	0.0021413
1354	0.0027538
1366	0.0037583
1378	0.0055321
1390	0.0046158
1402	0.0020874
1414	0.0019698
1426	0.0023422
1438	0.0034594
1450	0.0057771
1462	0.0082859
1474	0.0066101
1486	0.0045423
1498	0.0065121
1510	0.0048951
1522	0.0018767
1534	0.0012103
1546	0.0010045
1558	0.0009457
1570	0.0010388
1582	0.0009947
1594	0.0011417
1606	0.0020041
1618	0.0019012
1630	0.000637
1642	0.0003332
1654	0.0002597
1666	0.0002352
1678	0.0002254
1690	0.0001715
1702	0.000147
1714	0.0001519
1726	0.000245
1738	0.0003675
1750	0.0003283
1762	0.0001764
1774	0.0001176
1786	7.35e-05
1798	8.82e-05
1810	0.0001372
1822	0.0001617
1834	0.0001372
1846	0.0001421
1858	0.0001764
1870	0.0003381
1882	0.0004704
1894	0.0001617
1906	5.88e-05
1918	4.9e-05
1930	3.92e-05
1942	2.94e-05
1954	1.47e-05
1966	2.45e-05
1978	1.96e-05
1990	2.45e-05
2002	1.96e-05
2014	2.45e-05
2026	4.9e-06
2038	1.47e-05
2050	0
2062	9.8e-06
2074	2.45e-05
2086	4.41e-05
2098	2.94e-05
2110	4.9e-06
2122	9.8e-06
2134	4.9e-06
2146	4.9e-06
2158	9.8e-06
2170	1.47e-05
2182	9.8e-06
2194	4.9e-06
2206	1.47e-05
2218	2.94e-05
2230	2.94e-05
2242	2.94e-05
2254	3.92e-05
2266	6.37e-05
2278	4.41e-05
2290	7.35e-05
2302	5.39e-05
2314	9.31e-05
2326	8.82e-05
2338	0.0001029
2350	5.88e-05
2362	9.8e-05
2374	7.84e-05
2386	0.0001176
2398	0.0001127
2410	0.0001127
2422	0.0001274
2434	0.0001519
2446	0.0001372
2458	0.000147
2470	0.0001519
2482	0.0001421
2494	0.0001617
2506	0.0001764
2518	0.0001813
2530	0.0001862
2542	0.0002156
2554	0.0002401
2566	0.0002744
2578	0.0003234
2590	0.0004116
2602	0.0004361
2614	0.0004802
2626	0.0004753
2638	0.0005047
2650	0.0004949
2662	0.0005194
2674	0.0005341
2686	0.0006027
2698	0.0007007
2710	0.0007938
2722	0.0009653
2734	0.0012642
2746	0.0012789
2758	0.0010633
2770	0.0011074
2782	0.0012985
2794	0.0016611
2806	0.002107
2818	0.0027979
2830	0.0039592
2842	0.0067326
2854	0.0135289
2866	0.0190855
2878	0.0252791
2890	0.0224322
2902	0.0258083
2914	0.033859
2926	0.0441343
2938	0.046354
2950	0.0385532
2962	0.049
2974	0.0300223
2986	0.0130193
2998	0.0102116
3010	0.0098196
3022	0.0076587
3034	0.0061985
3046	0.0070707
3058	0.0050666
3070	0.003185
3082	0.0022246
3094	0.001617
3106	0.0013818
3118	0.0012691
3130	0.0010094
3142	0.0007791
3154	0.0006762
3166	0.0006076
3178	0.0005439
3190	0.0004998
3202	0.0003822
3214	0.0002989
3226	0.0002009
3238	0.0001568
3250	0.0001029
3262	0.0001225
3274	0.0001225
3286	0.0001274
3298	0.0001078
3310	0.0001666
3322	0.000147
3334	0.0001225
3346	0.0001911
3358	9.8e-05
3370	0.0001225
3382	9.8e-05
3394	0.0001029
3406	9.31e-05
3418	6.86e-05
3430	8.82e-05
3442	5.88e-05
3454	5.88e-05
3466	2.94e-05
3478	2.45e-05
3490	4.41e-05
3502	3.92e-05
3514	1.96e-05
3526	0
3538	6.37e-05
3550	1.47e-05
3562	9.8e-06
3574	2.45e-05
3586	3.43e-05
3598	2.45e-05
3610	2.45e-05
3622	6.86e-05
3634	5.88e-05
3646	5.39e-05
3658	6.86e-05
3670	5.88e-05
3682	0.0001078
3694	8.33e-05
3706	0.0001078
3718	0.0001176
3730	0.0001225
3742	0.0001519
3754	0.0001274
3766	0.0001519
3778	0.0001225
3790	0.0001519
3802	0.0002058
3814	0.0001715
3826	0.0002156
3838	0.0002058
