Infrared Spectrum: trans-2,2-Dimethyl-3-heptene
Formula: C 9 H 18
CAS: 19550-75-5
State: gas
Instrument: HP-GC/MS/IRD
Origin: NIST Mass Spectrometry Data Center
1/CM	ABSORBANCE
550	0.0001596
562	1.4e-05
574	4.76e-05
586	0.0001708
598	0.0001596
610	0.0001596
622	0.0001932
634	0.000126
646	0.0001512
658	8.12e-05
670	0.0001876
682	0.0002352
694	0.0002492
706	0.0001904
718	0.0002072
730	0.0002436
742	0.0002688
754	0.0003892
766	0.0004396
778	0.000448
790	0.0003892
802	0.000336
814	0.0003416
826	0.000252
838	0.0002688
850	0.0002772
862	0.0003472
874	0.0004536
886	0.0005796
898	0.0005572
910	0.0005936
922	0.0007448
934	0.0009856
946	0.0013804
958	0.0023688
970	0.0033432
982	0.0025312
994	0.0012656
1006	0.0007784
1018	0.000588
1030	0.00056
1042	0.0006664
1054	0.0007056
1066	0.0005824
1078	0.0005208
1090	0.0004256
1102	0.0003192
1114	0.0002968
1126	0.0002492
1138	0.0002436
1150	0.0002492
1162	0.0003444
1174	0.000476
1186	0.0007448
1198	0.000952
1210	0.0008008
1222	0.0007952
1234	0.0007364
1246	0.000812
1258	0.0011088
1270	0.0010304
1282	0.0006188
1294	0.0004956
1306	0.000546
1318	0.0005908
1330	0.0008736
1342	0.0012964
1354	0.0018732
1366	0.0027468
1378	0.0022036
1390	0.001484
1402	0.0009492
1414	0.0006104
1426	0.0007952
1438	0.0012488
1450	0.0019768
1462	0.0026628
1474	0.0028336
1486	0.0019516
1498	0.0007952
1510	0.0004424
1522	0.0003304
1534	0.0002632
1546	0.0002352
1558	0.0001932
1570	0.0002072
1582	0.0001848
1594	0.0001904
1606	0.0001512
1618	0.0001512
1630	0.00014
1642	0.0001288
1654	0.000168
1666	0.0001456
1678	0.0001288
1690	0.0001484
1702	0.0001428
1714	0.00014
1726	0.0001428
1738	0.000168
1750	0.00021
1762	0.0002044
1774	0.0002128
1786	0.0001848
1798	0.000154
1810	0.0001316
1822	0.0001288
1834	0.0001428
1846	0.0001428
1858	0.0001148
1870	0.0001008
1882	9.52e-05
1894	7.84e-05
1906	7e-05
1918	6.72e-05
1930	6.44e-05
1942	7.84e-05
1954	5.6e-05
1966	5.88e-05
1978	5.88e-05
1990	3.92e-05
2002	3.64e-05
2014	4.76e-05
2026	6.44e-05
2038	4.48e-05
2050	4.76e-05
2062	5.32e-05
2074	3.92e-05
2086	3.36e-05
2098	5.32e-05
2110	2.52e-05
2122	1.96e-05
2134	3.64e-05
2146	4.76e-05
2158	2.52e-05
2170	1.96e-05
2182	3.36e-05
2194	3.92e-05
2206	4.48e-05
2218	1.68e-05
2230	2.8e-05
2242	4.48e-05
2254	1.4e-05
2266	2.8e-06
2278	1.68e-05
2290	4.48e-05
2302	3.92e-05
2314	4.48e-05
2326	2.8e-05
2338	3.36e-05
2350	5.88e-05
2362	6.16e-05
2374	8.12e-05
2386	5.32e-05
2398	5.6e-05
2410	4.48e-05
2422	4.48e-05
2434	5.6e-05
2446	2.8e-05
2458	4.48e-05
2470	3.92e-05
2482	2.24e-05
2494	2.52e-05
2506	5.6e-05
2518	5.04e-05
2530	7.28e-05
2542	0.0001036
2554	0.0001288
2566	0.0001204
2578	0.0001204
2590	0.0001232
2602	0.0001148
2614	0.00014
2626	0.0001596
2638	0.0001596
2650	0.0002016
2662	0.0002044
2674	0.0002156
2686	0.000252
2698	0.0002688
2710	0.0003248
2722	0.0003668
2734	0.00042
2746	0.0003808
2758	0.0004088
2770	0.0004172
2782	0.0004816
2794	0.0005936
2806	0.0007616
2818	0.0009996
2830	0.0014616
2842	0.0025116
2854	0.0042
2866	0.006846
2878	0.008918
2890	0.008414
2902	0.0089292
2914	0.010878
2926	0.012908
2938	0.0154364
2950	0.0198464
2962	0.0278824
2974	0.0212548
2986	0.0081872
2998	0.0038528
3010	0.0027804
3022	0.0025228
3034	0.002044
3046	0.0014112
3058	0.0009828
3070	0.0007812
3082	0.0006384
3094	0.0005404
3106	0.0004592
3118	0.000406
3130	0.000378
3142	0.0003948
3154	0.0003556
3166	0.0003388
3178	0.0003864
3190	0.0003444
3202	0.000308
3214	0.000294
3226	0.0003024
3238	0.0002688
3250	0.0002212
3262	0.000154
3274	0.0001428
3286	0.000112
3298	0.0001484
3310	0.0001176
3322	0.0001204
3334	0.0001148
3346	8.68e-05
3358	4.76e-05
3370	0.0001064
3382	0.0001176
3394	6.44e-05
3406	0.0001176
3418	7.56e-05
3430	3.36e-05
3442	8.4e-05
3454	5.88e-05
3466	5.32e-05
3478	4.76e-05
3490	6.16e-05
3502	3.64e-05
3514	1.96e-05
3526	5.04e-05
3538	3.08e-05
3550	2.8e-05
3562	3.36e-05
3574	1.4e-05
3586	4.2e-05
3598	0
3610	2.24e-05
3622	3.36e-05
3634	4.76e-05
3646	6.16e-05
3658	2.52e-05
3670	4.2e-05
3682	3.64e-05
3694	4.48e-05
3706	7e-05
3718	4.2e-05
3730	4.2e-05
3742	6.72e-05
3754	3.64e-05
3766	5.04e-05
3778	7.84e-05
3790	8.4e-05
3802	0.0001008
3814	4.76e-05
3826	5.32e-05
3838	7.84e-05
