Infrared Spectrum: 3,4-Dimethyl-2-hexanone
Formula: C 8 H 16 O
CAS: 19550-10-8
State: gas
Instrument: HP-GC/MS/IRD
Origin: NIST Mass Spectrometry Data Center
1/CM	ABSORBANCE
550	0.000744
562	0.0007533
574	0.0007223
586	0.0009362
598	0.0010323
610	0.0008246
622	0.0006789
634	0.0005363
646	0.000403
658	0.0001395
670	9.3e-06
682	2.17e-05
694	0.0001271
706	9.61e-05
718	0.0001612
730	0.0001829
742	0.0002201
754	0.0002666
766	0.0003999
778	0.0004681
790	0.0004309
802	0.0002666
814	0.0002046
826	0.0001612
838	6.82e-05
850	0.0001023
862	0.0001147
874	0.0002666
886	0.0002976
898	0.0003069
910	0.0004526
922	0.0010292
934	0.0020553
946	0.0027838
958	0.0024986
970	0.0019592
982	0.0016833
994	0.0014787
1006	0.0014694
1018	0.0015097
1030	0.0013454
1042	0.0012369
1054	0.0011036
1066	0.0015376
1078	0.0029791
1090	0.0036642
1102	0.002759
1114	0.0027497
1126	0.0036487
1138	0.0042749
1150	0.0040765
1162	0.0043369
1174	0.0056544
1186	0.0050561
1198	0.0031186
1210	0.0025792
1222	0.0028086
1234	0.0026226
1246	0.0021855
1258	0.0021018
1270	0.0019313
1282	0.0018321
1294	0.002046
1306	0.0021762
1318	0.0022785
1330	0.0031744
1342	0.0057536
1354	0.0098146
1366	0.0093093
1378	0.0074431
1390	0.0063364
1402	0.0035402
1414	0.0024273
1426	0.0025761
1438	0.0032953
1450	0.0051987
1462	0.006727
1474	0.0051708
1486	0.0026691
1498	0.0015283
1510	0.0010199
1522	0.001023
1534	0.0009486
1546	0.0008246
1558	0.0009362
1570	0.0007626
1582	0.0006634
1594	0.0006262
1606	0.0006014
1618	0.0006696
1630	0.0007006
1642	0.000806
1654	0.001147
1666	0.001581
1678	0.0024242
1690	0.004061
1702	0.0088164
1714	0.0192231
1726	0.0244652
1738	0.0131564
1750	0.0044206
1762	0.0022165
1774	0.0014167
1786	0.0007533
1798	0.0004402
1810	0.0002976
1822	0.0002015
1834	0.0001674
1846	0.0001426
1858	0.0001519
1870	0.0001271
1882	0.000155
1894	0.0001457
1906	0.0001333
1918	0.0001054
1930	0.0001457
1942	0.0001209
1954	0.000124
1966	0.0001147
1978	0.0001116
1990	6.82e-05
2002	8.99e-05
2014	7.44e-05
2026	7.13e-05
2038	8.06e-05
2050	8.37e-05
2062	5.89e-05
2074	8.06e-05
2086	8.37e-05
2098	7.75e-05
2110	6.2e-05
2122	7.44e-05
2134	7.13e-05
2146	8.37e-05
2158	5.58e-05
2170	5.89e-05
2182	2.79e-05
2194	2.17e-05
2206	2.79e-05
2218	9.3e-06
2230	3.72e-05
2242	4.03e-05
2254	4.34e-05
2266	6.51e-05
2278	5.58e-05
2290	7.44e-05
2302	6.51e-05
2314	3.72e-05
2326	3.1e-06
2338	2.79e-05
2350	4.96e-05
2362	0
2374	9.3e-06
2386	0.0001178
2398	0.0001023
2410	0.0001302
2422	0.0001178
2434	0.000124
2446	0.0001023
2458	0.0001085
2470	0.0001209
2482	0.0001209
2494	0.0001147
2506	0.0001085
2518	0.0001457
2530	0.0001488
2542	0.0001519
2554	0.0001519
2566	0.0001767
2578	0.0002232
2590	0.0002573
2602	0.0002604
2614	0.0002604
2626	0.0002418
2638	0.0002604
2650	0.0003007
2662	0.0002976
2674	0.0003379
2686	0.0003503
2698	0.0003317
2710	0.0003813
2722	0.0004805
2734	0.0005983
2746	0.0006417
2758	0.0006355
2770	0.0006448
2782	0.0007378
2794	0.0008401
2806	0.0010602
2818	0.0013485
2830	0.0017918
2842	0.0024087
2854	0.0037231
2866	0.0069502
2878	0.0121892
2890	0.0144429
2902	0.0125984
2914	0.0133269
2926	0.016492
2938	0.0190774
2950	0.019251
2962	0.024924
2974	0.031
2986	0.0211606
2998	0.0097991
3010	0.0050096
3022	0.003224
3034	0.0023777
3046	0.0019437
3058	0.0016957
3070	0.0014849
3082	0.0013392
3094	0.0011594
3106	0.0010168
3118	0.0008897
3130	0.000806
3142	0.0007409
3154	0.0006386
3166	0.0006045
3178	0.0005239
3190	0.0004805
3202	0.0003689
3214	0.0002604
3226	0.000279
3238	0.0001953
3250	0.0001612
3262	0.000155
3274	0.0001488
3286	0.0001364
3298	0.0001457
3310	0.0001426
3322	0.0001643
3334	0.000124
3346	0.0001333
3358	0.0001333
3370	0.000155
3382	0.0002015
3394	0.0002759
3406	0.0003627
3418	0.0005177
3430	0.0006231
3442	0.0005115
3454	0.0003255
3466	0.0002201
3478	0.000186
3490	0.0001612
3502	0.0001147
3514	0.0001612
3526	0.0001116
3538	0.0001271
3550	0.0001519
3562	5.58e-05
3574	0.0001457
3586	7.44e-05
3598	0.0001333
3610	7.75e-05
3622	0.0001023
3634	0.0001085
3646	0.0001736
3658	0.0001891
3670	0.0002046
3682	0.000186
3694	0.0001922
3706	0.0002077
3718	0.0001643
3730	0.0002356
3742	0.0002449
3754	0.0003038
3766	0.0002666
3778	0.0002728
3790	0.0002604
3802	0.0002976
3814	0.0002542
3826	0.0002635
3838	0.0003441
