Infrared Spectrum: trans-3,4-Dimethylcyclopentanone
Formula: C 7 H 12 O
CAS: 19550-73-3
State: gas
Instrument: HP-GC/MS/IRD
Origin: NIST Mass Spectrometry Data Center
1/CM	ABSORBANCE
550	0.0002737
562	0.0001426
574	5.06e-05
586	4.14e-05
598	0.0001035
610	9.89e-05
622	6.9e-05
634	0.0001587
646	6.21e-05
658	7.13e-05
670	0.0001449
682	0.0001955
694	0.0001886
706	0.000207
718	0.0001449
730	0.0002254
742	0.0001679
754	0.0001932
766	0.0002484
778	0.0004462
790	0.0005497
802	0.0004163
814	0.0002461
826	0.0002162
838	0.0002369
850	0.0002116
862	0.0002553
874	0.0002438
886	0.0002806
898	0.0003657
910	0.0003427
922	0.0003335
934	0.0003266
946	0.000276
958	0.0003059
970	0.0003381
982	0.0004025
994	0.0004278
1006	0.0004646
1018	0.0006072
1030	0.0007061
1042	0.000897
1054	0.000966
1066	0.0008073
1078	0.000483
1090	0.0004232
1102	0.0004393
1114	0.0005934
1126	0.0011132
1138	0.0022264
1150	0.0032591
1162	0.0032223
1174	0.0022011
1186	0.0017779
1198	0.0019895
1210	0.0018078
1222	0.0014628
1234	0.001426
1246	0.0011615
1258	0.0007245
1270	0.0006992
1282	0.0007728
1294	0.0007383
1306	0.0007245
1318	0.0006118
1330	0.000529
1342	0.0006532
1354	0.0007314
1366	0.0009315
1378	0.0014674
1390	0.0017319
1402	0.0018929
1414	0.0021275
1426	0.0016974
1438	0.0011914
1450	0.0015203
1462	0.0018055
1474	0.0013386
1486	0.0006808
1498	0.0003473
1510	0.0002484
1522	0.0001886
1534	0.0001679
1546	0.0001725
1558	0.0001748
1570	0.0002116
1582	0.0002208
1594	0.0002047
1606	0.0002369
1618	0.0002369
1630	0.000253
1642	0.0002967
1654	0.0003933
1666	0.0005198
1678	0.0006026
1690	0.0007291
1702	0.0009798
1714	0.001472
1726	0.0023782
1738	0.0053291
1750	0.0139679
1762	0.0228137
1774	0.018446
1786	0.0052325
1798	0.0015226
1810	0.0008694
1822	0.0006325
1834	0.0005359
1846	0.0004278
1858	0.0002852
1870	0.0001702
1882	0.0001265
1894	8.74e-05
1906	7.59e-05
1918	6.9e-05
1930	5.98e-05
1942	6.44e-05
1954	7.36e-05
1966	6.21e-05
1978	6.44e-05
1990	7.13e-05
2002	5.75e-05
2014	5.29e-05
2026	3.91e-05
2038	5.75e-05
2050	7.36e-05
2062	5.75e-05
2074	4.6e-05
2086	4.6e-05
2098	4.14e-05
2110	3.22e-05
2122	2.53e-05
2134	2.76e-05
2146	3.68e-05
2158	1.84e-05
2170	2.3e-05
2182	2.99e-05
2194	2.76e-05
2206	3.45e-05
2218	3.45e-05
2230	3.45e-05
2242	3.68e-05
2254	4.37e-05
2266	1.38e-05
2278	2.3e-05
2290	5.06e-05
2302	5.06e-05
2314	4.83e-05
2326	5.29e-05
2338	3.68e-05
2350	4.6e-05
2362	4.83e-05
2374	4.14e-05
2386	5.75e-05
2398	5.29e-05
2410	5.75e-05
2422	5.29e-05
2434	7.13e-05
2446	8.28e-05
2458	5.52e-05
2470	5.98e-05
2482	3.45e-05
2494	3.22e-05
2506	5.98e-05
2518	6.44e-05
2530	6.67e-05
2542	6.67e-05
2554	9.43e-05
2566	0.0001081
2578	0.0001242
2590	0.0001219
2602	0.0001173
2614	0.0001334
2626	0.0001357
2638	0.0001288
2650	0.0001196
2662	0.0001403
2674	0.0001495
2686	0.0001334
2698	0.0001449
2710	0.0001426
2722	0.0001748
2734	0.0002645
2746	0.000322
2758	0.000276
2770	0.0002783
2782	0.0002645
2794	0.000345
2806	0.0004853
2818	0.0006164
2830	0.0006647
2842	0.0007383
2854	0.0010971
2866	0.0025231
2878	0.0048024
2890	0.006026
2902	0.0061318
2914	0.0057109
2926	0.005773
2938	0.0059225
2950	0.0081259
2962	0.0139035
2974	0.0116817
2986	0.0043102
2998	0.0012144
3010	0.0006808
3022	0.0005704
3034	0.0004991
3046	0.0004255
3058	0.0003703
3070	0.0003588
3082	0.0003312
3094	0.0003082
3106	0.0002806
3118	0.000253
3130	0.0002415
3142	0.0002208
3154	0.0002162
3166	0.0002461
3178	0.0002461
3190	0.0002162
3202	0.0001794
3214	0.0001449
3226	0.0001288
3238	0.0001058
3250	9.89e-05
3262	8.97e-05
3274	0.0001081
3286	9.89e-05
3298	0.0001541
3310	0.0001127
3322	4.83e-05
3334	8.51e-05
3346	7.13e-05
3358	0.0001104
3370	5.98e-05
3382	0.0001058
3394	6.67e-05
3406	7.36e-05
3418	9.66e-05
3430	9.89e-05
3442	0.0001426
3454	0.0001104
3466	0.0001288
3478	0.0002139
3490	0.0003381
3502	0.0004669
3514	0.0004508
3526	0.0003151
3538	0.0001886
3550	0.0001242
3562	6.9e-05
3574	7.36e-05
3586	5.98e-05
3598	5.52e-05
3610	5.98e-05
3622	6.21e-05
3634	5.98e-05
3646	5.29e-05
3658	2.76e-05
3670	3.91e-05
3682	3.91e-05
3694	4.14e-05
3706	5.98e-05
3718	6.21e-05
3730	9.2e-05
3742	8.74e-05
3754	4.83e-05
3766	9.43e-05
3778	7.13e-05
3790	8.51e-05
3802	9.89e-05
3814	9.2e-05
3826	8.74e-05
3838	8.28e-05
