Infrared Spectrum: 3,4-Dimethyl-2-hexanol
Formula: C 8 H 18 O
CAS: 19550-05-1
State: gas
Instrument: HP-GC/MS/IRD
Origin: NIST Mass Spectrometry Data Center
1/CM	ABSORBANCE
550	0.0005152
562	0.0001288
574	0.000138
586	0.000115
598	8.28e-05
610	0.0002254
622	0.0002438
634	0.0002392
646	0.0001472
658	5.06e-05
670	9.2e-05
682	0
694	6.9e-05
706	4.6e-05
718	9.66e-05
730	0.0001242
742	0.0001794
754	0.0003404
766	0.0004094
778	0.0004922
790	0.0005152
802	0.0004416
814	0.0004692
826	0.0004324
838	0.0004094
850	0.0004278
862	0.0007636
874	0.0015272
886	0.0018492
898	0.002254
910	0.0039744
922	0.0039606
934	0.0021068
946	0.001564
958	0.0021482
970	0.0029118
982	0.0038824
994	0.0048024
1006	0.0050232
1018	0.0048116
1030	0.0050278
1042	0.005888
1054	0.0069874
1066	0.007636
1078	0.007176
1090	0.0058098
1102	0.0049082
1114	0.0046046
1126	0.004715
1138	0.0046966
1150	0.0044666
1162	0.0037168
1174	0.0027738
1186	0.002162
1198	0.0021436
1210	0.002622
1222	0.0033856
1234	0.0040388
1246	0.0041262
1258	0.0035558
1270	0.002829
1282	0.0024334
1294	0.0022724
1306	0.0022908
1318	0.0023
1330	0.0025024
1342	0.0028428
1354	0.0036386
1366	0.0059754
1378	0.009752
1390	0.009062
1402	0.0046828
1414	0.0024978
1426	0.0021528
1438	0.002875
1450	0.0050554
1462	0.0067022
1474	0.0052992
1486	0.0027002
1498	0.0013248
1510	0.0007268
1522	0.0005566
1534	0.000506
1546	0.0003864
1558	0.0002622
1570	0.0003634
1582	0.0004002
1594	0.0003542
1606	0.0003588
1618	0.0003082
1630	0.000322
1642	0.0002714
1654	0.0001472
1666	0.0002438
1678	0.0001656
1690	0.0001426
1702	3.22e-05
1714	5.52e-05
1726	0.000115
1738	5.06e-05
1750	9.2e-06
1762	8.74e-05
1774	6.9e-05
1786	7.82e-05
1798	6.9e-05
1810	0.0001104
1822	8.28e-05
1834	9.2e-05
1846	5.52e-05
1858	9.66e-05
1870	8.28e-05
1882	9.2e-05
1894	9.66e-05
1906	0.0001012
1918	7.36e-05
1930	6.9e-05
1942	5.52e-05
1954	7.36e-05
1966	6.44e-05
1978	5.98e-05
1990	5.52e-05
2002	5.98e-05
2014	2.76e-05
2026	3.68e-05
2038	3.22e-05
2050	4.6e-05
2062	4.14e-05
2074	3.68e-05
2086	3.22e-05
2098	3.22e-05
2110	2.3e-05
2122	3.68e-05
2134	3.68e-05
2146	2.76e-05
2158	1.38e-05
2170	2.76e-05
2182	2.3e-05
2194	1.84e-05
2206	1.84e-05
2218	2.3e-05
2230	3.68e-05
2242	4.14e-05
2254	5.06e-05
2266	7.36e-05
2278	6.44e-05
2290	7.36e-05
2302	6.9e-05
2314	8.28e-05
2326	8.28e-05
2338	0.0001242
2350	0.0001334
2362	0.0001012
2374	0.0001288
2386	0.0001334
2398	0.0001564
2410	0.000184
2422	0.0001794
2434	0.0001886
2446	0.000161
2458	0.000138
2470	0.0001334
2482	0.0001564
2494	0.0001242
2506	0.0001196
2518	0.0001334
2530	0.0001518
2542	0.0001978
2554	0.0002668
2566	0.000322
2578	0.0003772
2590	0.000437
2602	0.0004922
2614	0.0005244
2626	0.0005704
2638	0.0005888
2650	0.0006072
2662	0.000621
2674	0.0006624
2686	0.00069
2698	0.0006946
2710	0.000759
2722	0.0008694
2734	0.001035
2746	0.0010626
2758	0.0010396
2770	0.0010626
2782	0.0011684
2794	0.0013754
2806	0.0016744
2818	0.0021114
2830	0.0027324
2842	0.0036846
2854	0.0059432
2866	0.0114448
2878	0.019872
2890	0.0234094
2902	0.020746
2914	0.0204286
2926	0.023368
2938	0.0259072
2950	0.0267582
2962	0.0377706
2974	0.046
2986	0.030107
2998	0.0125902
3010	0.005336
3022	0.0031004
3034	0.0022632
3046	0.0018124
3058	0.0015318
3070	0.001334
3082	0.001173
3094	0.0010856
3106	0.0009752
3118	0.0008832
3130	0.0007958
3142	0.0007406
3154	0.0007176
3166	0.0006486
3178	0.0005888
3190	0.0005152
3202	0.0003818
3214	0.0002714
3226	0.000207
3238	0.0001288
3250	0.0001104
3262	7.36e-05
3274	6.44e-05
3286	3.68e-05
3298	5.06e-05
3310	1.84e-05
3322	4.14e-05
3334	0
3346	4.14e-05
3358	1.38e-05
3370	4.14e-05
3382	0.0001012
3394	7.36e-05
3406	9.2e-05
3418	7.36e-05
3430	0.0001242
3442	0.0001012
3454	0.0001242
3466	0.0001012
3478	6.9e-05
3490	7.36e-05
3502	3.68e-05
3514	3.22e-05
3526	9.2e-06
3538	3.22e-05
3550	6.44e-05
3562	4.14e-05
3574	9.2e-05
3586	3.22e-05
3598	8.28e-05
3610	0.0001334
3622	0.0004232
3634	0.0009522
3646	0.0019228
3658	0.0026772
3670	0.0015226
3682	0.0005934
3694	0.000276
3706	0.0001748
3718	0.0001242
3730	3.22e-05
3742	0
3754	1.84e-05
3766	4.6e-05
3778	8.74e-05
3790	8.28e-05
3802	3.68e-05
3814	0.0001058
3826	0.0001104
3838	8.74e-05
