Infrared Spectrum: 2,3-Dimethyl-2-hexanol
Formula: C 8 H 18 O
CAS: 19550-03-9
State: gas
Instrument: HP-GC/MS/IRD
Origin: NIST Mass Spectrometry Data Center
1/CM	ABSORBANCE
550	0.0002904
562	0.0002211
574	0.0001617
586	0.0001584
598	4.29e-05
610	0.0001551
622	0.0001287
634	7.26e-05
646	0.000132
658	0.000132
670	0.0002112
682	0.0002244
694	0.0003267
706	0.0003366
718	0.0003894
730	0.0005082
742	0.0005016
754	0.0004092
766	0.0004059
778	0.0003795
790	0.0002805
802	0.0002673
814	0.000297
826	0.0005115
838	0.0008547
850	0.0012342
862	0.0014124
874	0.0016863
886	0.0017424
898	0.0016203
910	0.0024519
922	0.0039864
934	0.004422
946	0.0034023
958	0.0017886
970	0.0009636
982	0.0007821
994	0.0008382
1006	0.0008976
1018	0.0009108
1030	0.0010329
1042	0.001353
1054	0.0017919
1066	0.0025344
1078	0.003366
1090	0.0041316
1102	0.004389
1114	0.0043395
1126	0.0047652
1138	0.0050094
1150	0.0050556
1162	0.0056595
1174	0.0059697
1186	0.0045705
1198	0.0032241
1210	0.0028281
1222	0.0026664
1234	0.0025509
1246	0.0025707
1258	0.0025674
1270	0.0024915
1282	0.0024849
1294	0.0026334
1306	0.0026928
1318	0.0026103
1330	0.0024486
1342	0.0024123
1354	0.0031779
1366	0.0059004
1378	0.0079926
1390	0.0061512
1402	0.002904
1414	0.0015873
1426	0.0014784
1438	0.0019272
1450	0.0031647
1462	0.0044451
1474	0.0038742
1486	0.0020922
1498	0.0010197
1510	0.0006534
1522	0.000462
1534	0.0004026
1546	0.00033
1558	0.0002475
1570	0.0002409
1582	0.0002112
1594	0.0001815
1606	0.0001716
1618	0.0001749
1630	0.0001914
1642	0.0001914
1654	0.0001881
1666	0.0001452
1678	0.0001122
1690	0.0001188
1702	0.0001254
1714	0.0001188
1726	8.58e-05
1738	6.27e-05
1750	4.95e-05
1762	7.59e-05
1774	6.6e-05
1786	7.59e-05
1798	6.27e-05
1810	7.26e-05
1822	7.59e-05
1834	6.6e-05
1846	4.95e-05
1858	5.94e-05
1870	4.62e-05
1882	3.63e-05
1894	4.62e-05
1906	3.63e-05
1918	2.31e-05
1930	2.31e-05
1942	1.65e-05
1954	3.3e-06
1966	1.65e-05
1978	2.97e-05
1990	3.63e-05
2002	3.3e-05
2014	3.63e-05
2026	3.63e-05
2038	4.95e-05
2050	4.95e-05
2062	5.61e-05
2074	5.28e-05
2086	4.95e-05
2098	3.96e-05
2110	3.96e-05
2122	4.29e-05
2134	2.97e-05
2146	4.29e-05
2158	6.6e-05
2170	3.96e-05
2182	5.94e-05
2194	4.95e-05
2206	5.61e-05
2218	6.93e-05
2230	4.95e-05
2242	8.58e-05
2254	8.25e-05
2266	5.94e-05
2278	6.6e-05
2290	8.91e-05
2302	8.91e-05
2314	6.27e-05
2326	7.59e-05
2338	8.58e-05
2350	5.28e-05
2362	6.93e-05
2374	9.24e-05
2386	0.0001386
2398	0.0001155
2410	0.0001056
2422	9.24e-05
2434	9.9e-05
2446	9.9e-05
2458	8.58e-05
2470	8.58e-05
2482	8.58e-05
2494	8.58e-05
2506	0.000132
2518	9.9e-05
2530	0.0001155
2542	0.0001122
2554	0.0001485
2566	0.0001947
2578	0.000198
2590	0.0002277
2602	0.0002376
2614	0.0002871
2626	0.0002805
2638	0.0002607
2650	0.0002772
2662	0.0003003
2674	0.0003102
2686	0.0003267
2698	0.0003663
2710	0.0004026
2722	0.0004752
2734	0.0006138
2746	0.0006468
2758	0.0006336
2770	0.0006402
2782	0.0007293
2794	0.0009042
2806	0.001122
2818	0.0013959
2830	0.0018018
2842	0.0025773
2854	0.0042504
2866	0.0077385
2878	0.012309
2890	0.0130218
2902	0.0113751
2914	0.0124608
2926	0.0162063
2938	0.0202257
2950	0.0214731
2962	0.0280071
2974	0.033
2986	0.0231594
2998	0.0109692
3010	0.0046167
3022	0.0025245
3034	0.0017655
3046	0.0013596
3058	0.0010626
3070	0.0009141
3082	0.0008151
3094	0.0007326
3106	0.0006468
3118	0.0006138
3130	0.0005973
3142	0.0005478
3154	0.0005346
3166	0.0005016
3178	0.0004554
3190	0.0004356
3202	0.0004356
3214	0.0003531
3226	0.0002409
3238	0.0002475
3250	0.000198
3262	0.0001716
3274	0.0001419
3286	9.9e-05
3298	9.9e-05
3310	9.9e-05
3322	8.58e-05
3334	0.0001122
3346	0.0001188
3358	0.000132
3370	0.0001419
3382	0.0001155
3394	0.0001386
3406	0.000165
3418	0.0001089
3430	0.0001419
3442	0.0001485
3454	0.0001485
3466	0.0001188
3478	0.0001254
3490	0.0001386
3502	7.59e-05
3514	9.9e-05
3526	6.27e-05
3538	8.58e-05
3550	5.28e-05
3562	7.26e-05
3574	7.59e-05
3586	5.61e-05
3598	9.57e-05
3610	0.000231
3622	0.0004917
3634	0.0013167
3646	0.0017226
3658	0.0008877
3670	0.0003366
3682	0.0001716
3694	0.000132
3706	9.24e-05
3718	8.25e-05
3730	3.96e-05
3742	8.25e-05
3754	0.0001056
3766	7.92e-05
3778	0.0001452
3790	9.57e-05
3802	0.0001221
3814	0.0001155
3826	0.0001452
3838	0.000165
