Infrared Spectrum: 2,3-Dimethyl-5-hexen-3-ol
Formula: C 8 H 16 O
CAS: 19550-90-4
State: gas
Instrument: HP-GC/MS/IRD
Origin: NIST Mass Spectrometry Data Center
1/CM	ABSORBANCE
550	0.0007743
562	0.0003538
574	0.0002523
586	0.0002378
598	0.0002871
610	0.0005046
622	0.000609
634	0.00087
646	0.0006989
658	0.0003161
670	0.0001508
682	0.000116
694	7.25e-05
706	0.0003306
718	0.000493
730	0.0005452
742	0.0006844
754	0.0006496
766	0.000377
778	0.0001508
790	0.0001131
802	0.000145
814	0.0004205
826	0.0010672
838	0.0016646
850	0.001885
862	0.0014616
874	0.001566
886	0.0023258
898	0.0041296
910	0.0084187
922	0.0103907
934	0.0072848
946	0.0040977
958	0.0025375
970	0.0022272
982	0.0033176
994	0.0054781
1006	0.0056173
1018	0.0047763
1030	0.004524
1042	0.004292
1054	0.0045646
1066	0.0052722
1078	0.0055477
1090	0.0051823
1102	0.0044863
1114	0.0042949
1126	0.004698
1138	0.005133
1150	0.0055883
1162	0.0056782
1174	0.0049416
1186	0.0038106
1198	0.0030885
1210	0.0028362
1222	0.0028594
1234	0.0030363
1246	0.0033553
1258	0.0035873
1270	0.0035351
1282	0.0032886
1294	0.0031581
1306	0.0031059
1318	0.0030972
1330	0.003074
1342	0.0032364
1354	0.003799
1366	0.0058058
1378	0.0082302
1390	0.0072036
1402	0.0039672
1414	0.0023664
1426	0.0026013
1438	0.0035061
1450	0.0041151
1462	0.0044399
1474	0.0038773
1486	0.0022765
1498	0.0010875
1510	0.0006902
1522	0.0005568
1534	0.000464
1546	0.0004118
1558	0.0004495
1570	0.0002871
1582	0.0002465
1594	0.0002668
1606	0.0004234
1618	0.0009744
1630	0.0022533
1642	0.0026709
1654	0.0012122
1666	0.000348
1678	0.0002291
1690	0.0001624
1702	0.0002059
1714	0.0001508
1726	3.19e-05
1738	0.0001102
1750	0.0001073
1762	7.54e-05
1774	8.12e-05
1786	5.51e-05
1798	9.57e-05
1810	0.0001711
1822	0.0004466
1834	0.0007888
1846	0.0006844
1858	0.0003103
1870	0.0001276
1882	6.67e-05
1894	6.67e-05
1906	4.06e-05
1918	6.38e-05
1930	1.74e-05
1942	5.8e-06
1954	2.9e-05
1966	3.77e-05
1978	6.67e-05
1990	7.83e-05
2002	5.22e-05
2014	3.77e-05
2026	2.03e-05
2038	2.61e-05
2050	3.19e-05
2062	3.48e-05
2074	3.77e-05
2086	3.19e-05
2098	2.61e-05
2110	2.61e-05
2122	4.35e-05
2134	4.93e-05
2146	5.22e-05
2158	3.19e-05
2170	5.51e-05
2182	3.77e-05
2194	4.35e-05
2206	4.64e-05
2218	3.77e-05
2230	5.51e-05
2242	6.38e-05
2254	5.22e-05
2266	5.8e-05
2278	5.51e-05
2290	6.09e-05
2302	5.8e-05
2314	5.51e-05
2326	4.64e-05
2338	4.64e-05
2350	6.09e-05
2362	9.86e-05
2374	9.57e-05
2386	8.99e-05
2398	0.0001015
2410	8.7e-05
2422	5.51e-05
2434	6.96e-05
2446	4.93e-05
2458	3.77e-05
2470	4.93e-05
2482	2.9e-05
2494	5.8e-05
2506	6.09e-05
2518	6.67e-05
2530	6.96e-05
2542	7.54e-05
2554	8.41e-05
2566	0.0001305
2578	0.0001334
2590	0.0001711
2602	0.0002088
2614	0.0002088
2626	0.0001972
2638	0.0001363
2650	0.0001595
2662	0.000145
2674	0.0001566
2686	0.000174
2698	0.0001914
2710	0.000232
2722	0.0003335
2734	0.0004205
2746	0.0004553
2758	0.0004321
2770	0.0004553
2782	0.0005017
2794	0.0006061
2806	0.000754
2818	0.0010324
2830	0.0014529
2842	0.0020039
2854	0.0027898
2866	0.0043471
2878	0.0078677
2890	0.0111389
2902	0.0115855
2914	0.0116319
2926	0.0128702
2938	0.0153265
2950	0.0173913
2962	0.0224692
2974	0.029
2986	0.0241976
2998	0.0125947
3010	0.0058435
3022	0.003451
3034	0.0021895
3046	0.0018995
3058	0.0022214
3070	0.0035148
3082	0.0053505
3094	0.0036859
3106	0.0012122
3118	0.0007047
3130	0.0006235
3142	0.0005916
3154	0.0005365
3166	0.000464
3178	0.0004321
3190	0.0004002
3202	0.0003277
3214	0.0002552
3226	0.0001595
3238	0.0001218
3250	8.7e-05
3262	7.54e-05
3274	5.8e-05
3286	4.35e-05
3298	4.35e-05
3310	3.48e-05
3322	4.64e-05
3334	6.38e-05
3346	5.51e-05
3358	7.54e-05
3370	8.12e-05
3382	9.57e-05
3394	6.38e-05
3406	6.38e-05
3418	4.93e-05
3430	8.99e-05
3442	7.54e-05
3454	7.83e-05
3466	6.67e-05
3478	4.64e-05
3490	4.06e-05
3502	2.9e-05
3514	5.51e-05
3526	5.22e-05
3538	2.61e-05
3550	1.74e-05
3562	9.28e-05
3574	0.000116
3586	0.0003364
3598	0.000812
3610	0.0013427
3622	0.0014993
3634	0.0017429
3646	0.0016559
3658	0.0008613
3670	0.0003422
3682	0.000116
3694	4.93e-05
3706	1.74e-05
3718	2.9e-05
3730	2.03e-05
3742	8.99e-05
3754	4.35e-05
3766	0
3778	2.9e-06
3790	4.64e-05
3802	5.8e-05
3814	8.99e-05
3826	5.8e-05
3838	0.0001276
