Infrared Spectrum: 2,3-Dimethyl-1-butanol
Formula: C 6 H 14 O
CAS: 19550-30-2
State: gas
Instrument: HP-GC/MS/IRD
Origin: NIST Mass Spectrometry Data Center
1/CM	ABSORBANCE
550	0.0002964
562	0.0002262
574	0.0001534
586	4.68e-05
598	0.0001274
610	0.0001508
622	8.06e-05
634	0.0001014
646	0.0001768
658	0.000117
670	0.0001612
682	0.000117
694	0.0001378
706	0.0001378
718	0.0001586
730	0.0001326
742	0.0001898
754	0.0002002
766	0.0002158
778	0.0001664
790	0.0001196
802	0.0001794
814	0.0001326
826	0.0002158
838	0.0002886
850	0.0003744
862	0.0005096
874	0.000546
886	0.0005798
898	0.0007176
910	0.0008996
922	0.0011388
934	0.0011622
946	0.001196
958	0.0015418
970	0.0021788
982	0.0028964
994	0.003939
1006	0.006123
1018	0.0093236
1030	0.0109824
1042	0.0091988
1054	0.006058
1066	0.0033228
1078	0.0019682
1090	0.0017654
1102	0.0017732
1114	0.001872
1126	0.0016484
1138	0.0014378
1150	0.0013858
1162	0.0014534
1174	0.0014742
1186	0.0014794
1198	0.0015314
1210	0.0016978
1222	0.0016952
1234	0.0015678
1246	0.0014664
1258	0.0013884
1270	0.0013806
1282	0.0014196
1294	0.0014118
1306	0.0014144
1318	0.0014014
1330	0.0013884
1342	0.0015626
1354	0.0020826
1366	0.0031616
1378	0.0041886
1390	0.0040638
1402	0.0026442
1414	0.0014482
1426	0.0010998
1438	0.0015028
1450	0.002457
1462	0.0035152
1474	0.00351
1486	0.0023712
1498	0.0011518
1510	0.0005642
1522	0.0003458
1534	0.0002678
1546	0.0002106
1558	0.0001976
1570	0.0001404
1582	0.000169
1594	0.000156
1606	0.000169
1618	0.000156
1630	0.00013
1642	0.0001274
1654	0.0001222
1666	9.36e-05
1678	9.62e-05
1690	8.32e-05
1702	7.54e-05
1714	5.2e-05
1726	4.16e-05
1738	2.86e-05
1750	3.64e-05
1762	3.9e-05
1774	2.86e-05
1786	5.2e-06
1798	1.56e-05
1810	2.34e-05
1822	2.08e-05
1834	1.56e-05
1846	2.6e-05
1858	1.04e-05
1870	1.82e-05
1882	2.08e-05
1894	2.34e-05
1906	2.08e-05
1918	2.6e-05
1930	3.9e-05
1942	5.2e-05
1954	2.86e-05
1966	5.2e-05
1978	2.86e-05
1990	3.38e-05
2002	4.68e-05
2014	7.02e-05
2026	0.0001014
2038	6.76e-05
2050	7.54e-05
2062	7.02e-05
2074	4.94e-05
2086	2.6e-05
2098	2.86e-05
2110	2.34e-05
2122	1.04e-05
2134	7.8e-06
2146	2.08e-05
2158	1.04e-05
2170	2.6e-06
2182	1.3e-05
2194	2.34e-05
2206	2.6e-05
2218	3.38e-05
2230	5.46e-05
2242	6.5e-05
2254	5.98e-05
2266	5.2e-05
2278	6.24e-05
2290	7.02e-05
2302	8.58e-05
2314	7.02e-05
2326	9.88e-05
2338	0.0001248
2350	0.0001196
2362	0.000143
2374	0.0001456
2386	0.0001352
2398	0.0001352
2410	0.0001274
2422	0.0001482
2434	0.0001586
2446	0.0001456
2458	0.0001274
2470	0.0001248
2482	0.0001144
2494	0.0001378
2506	0.000104
2518	0.00013
2530	0.0001248
2542	0.0001612
2554	0.0001846
2566	0.0002184
2578	0.0002366
2590	0.000299
2602	0.0003094
2614	0.0003172
2626	0.0003484
2638	0.0003666
2650	0.0003614
2662	0.0003926
2674	0.000377
2686	0.0004134
2698	0.000468
2710	0.0005668
2722	0.0006812
2734	0.0008138
2746	0.0008762
2758	0.0008762
2770	0.0009646
2782	0.00104
2794	0.0011258
2806	0.001287
2818	0.0015002
2830	0.0018278
2842	0.0025428
2854	0.004225
2866	0.008281
2878	0.0137124
2890	0.01599
2902	0.0141726
2914	0.0131716
2926	0.0141752
2938	0.0156494
2950	0.0188266
2962	0.0249652
2974	0.0234208
2986	0.01352
2998	0.0056368
3010	0.0023738
3022	0.0013728
3034	0.001014
3046	0.0008476
3058	0.0007488
3070	0.0006292
3082	0.00065
3094	0.0005668
3106	0.0005668
3118	0.0004862
3130	0.000481
3142	0.0004394
3154	0.0004732
3166	0.000416
3178	0.0003952
3190	0.0003432
3202	0.0002704
3214	0.000221
3226	0.0001768
3238	0.0001222
3250	7.8e-05
3262	8.58e-05
3274	4.16e-05
3286	8.32e-05
3298	9.62e-05
3310	6.5e-05
3322	8.06e-05
3334	3.12e-05
3346	6.76e-05
3358	5.72e-05
3370	2.08e-05
3382	6.76e-05
3394	8.06e-05
3406	0.000104
3418	8.58e-05
3430	7.8e-05
3442	7.02e-05
3454	0.0001196
3466	0.0001144
3478	9.62e-05
3490	0.0001118
3502	0.0001118
3514	9.88e-05
3526	7.54e-05
3538	7.02e-05
3550	7.28e-05
3562	6.5e-05
3574	0.0001066
3586	7.02e-05
3598	0.0001404
3610	0.00013
3622	0.0002158
3634	0.0003978
3646	0.0009282
3658	0.0019136
3670	0.00234
3682	0.001703
3694	0.0006734
3706	0.0002834
3718	0.0001846
3730	0.0001274
3742	0.00013
3754	0.0001482
3766	0.000117
3778	0.0001378
3790	0.0001378
3802	0.0001742
3814	0.00013
3826	0.0001872
3838	0.0001794
