Infrared Spectrum: 1,3-Dimethyl cyclopentanol
Formula: C 7 H 14 O
CAS: 19550-46-0
State: gas
Instrument: HP-GC/MS/IRD
Origin: NIST Mass Spectrometry Data Center
1/CM	ABSORBANCE
550	0.0002278
562	0.0001768
574	0.0002635
586	0.0002992
598	0.0002227
610	0.0002261
622	0.000136
634	9.69e-05
646	2.38e-05
658	6.8e-05
670	7.31e-05
682	3.57e-05
694	6.63e-05
706	1.7e-05
718	7.31e-05
730	0.0001003
742	0.0001173
754	0.0001768
766	0.0001734
778	0.0001734
790	0.0002363
802	0.0002261
814	0.0002023
826	0.0002312
838	0.0003111
850	0.0003672
862	0.0004709
874	0.0005559
886	0.0007752
898	0.0011288
910	0.0016932
922	0.0020587
934	0.0018309
946	0.0011934
958	0.0007446
970	0.0005372
982	0.0005287
994	0.0005202
1006	0.0006545
1018	0.0010166
1030	0.0014705
1042	0.0015045
1054	0.0012206
1066	0.0010897
1078	0.001258
1090	0.0016303
1102	0.0018938
1114	0.0017408
1126	0.0016915
1138	0.0017969
1150	0.0019584
1162	0.0021148
1174	0.0021828
1186	0.0020893
1198	0.0021726
1210	0.0021964
1222	0.0021369
1234	0.0019907
1246	0.0019159
1258	0.0018683
1270	0.0017833
1282	0.0016558
1294	0.0015725
1306	0.0014229
1318	0.0013073
1330	0.0013498
1342	0.0017034
1354	0.0017799
1366	0.0018921
1378	0.0022117
1390	0.0017255
1402	0.0008364
1414	0.0006426
1426	0.0008585
1438	0.0013634
1450	0.0017119
1462	0.0017
1474	0.0011934
1486	0.000612
1498	0.0003247
1510	0.0002091
1522	0.0001445
1534	9.18e-05
1546	8.67e-05
1558	6.63e-05
1570	5.1e-05
1582	4.93e-05
1594	3.4e-05
1606	4.76e-05
1618	7.48e-05
1630	6.8e-05
1642	7.82e-05
1654	9.69e-05
1666	8.33e-05
1678	7.48e-05
1690	8.84e-05
1702	8.84e-05
1714	7.65e-05
1726	4.93e-05
1738	4.25e-05
1750	4.76e-05
1762	3.06e-05
1774	2.55e-05
1786	2.89e-05
1798	4.76e-05
1810	2.89e-05
1822	2.89e-05
1834	4.25e-05
1846	5.95e-05
1858	3.23e-05
1870	3.4e-05
1882	2.89e-05
1894	3.4e-05
1906	2.55e-05
1918	1.87e-05
1930	1.7e-05
1942	3.57e-05
1954	2.21e-05
1966	3.06e-05
1978	3.4e-05
1990	3.74e-05
2002	2.38e-05
2014	2.21e-05
2026	2.38e-05
2038	3.06e-05
2050	3.57e-05
2062	2.21e-05
2074	3.4e-05
2086	3.4e-05
2098	8.5e-06
2110	3.57e-05
2122	4.08e-05
2134	5.27e-05
2146	4.25e-05
2158	1.53e-05
2170	2.72e-05
2182	3.06e-05
2194	2.21e-05
2206	2.89e-05
2218	1.53e-05
2230	0
2242	2.38e-05
2254	1.7e-06
2266	4.76e-05
2278	8.5e-06
2290	2.55e-05
2302	3.06e-05
2314	3.57e-05
2326	1.53e-05
2338	4.08e-05
2350	3.06e-05
2362	1.19e-05
2374	8.5e-06
2386	3.91e-05
2398	2.89e-05
2410	2.55e-05
2422	1.36e-05
2434	8.5e-06
2446	2.21e-05
2458	3.23e-05
2470	1.19e-05
2482	1.53e-05
2494	2.89e-05
2506	3.57e-05
2518	2.38e-05
2530	2.89e-05
2542	8.5e-06
2554	6.46e-05
2566	7.48e-05
2578	4.25e-05
2590	5.1e-05
2602	6.8e-05
2614	5.95e-05
2626	5.95e-05
2638	6.12e-05
2650	5.78e-05
2662	6.63e-05
2674	7.14e-05
2686	0.0001122
2698	0.0001513
2710	0.0001513
2722	0.0001564
2734	0.0002074
2746	0.0002278
2758	0.0001785
2770	0.0001785
2782	0.0002363
2794	0.0002533
2806	0.0004012
2818	0.0005797
2830	0.0008194
2842	0.0013974
2854	0.0024667
2866	0.0042993
2878	0.0055386
2890	0.0051748
2902	0.0048756
2914	0.0063274
2926	0.0089471
2938	0.0119408
2950	0.0152711
2962	0.017
2974	0.0124253
2986	0.0055352
2998	0.0018581
3010	0.0007769
3022	0.0004573
3034	0.0003332
3046	0.0002601
3058	0.0002397
3070	0.0002074
3082	0.0001853
3094	0.0001615
3106	0.0001411
3118	0.0001224
3130	0.0001207
3142	0.0001173
3154	0.0001445
3166	0.0001326
3178	0.0001326
3190	0.0001241
3202	0.0001139
3214	9.01e-05
3226	6.12e-05
3238	2.21e-05
3250	4.42e-05
3262	1.36e-05
3274	4.59e-05
3286	2.55e-05
3298	4.93e-05
3310	5.1e-06
3322	1.19e-05
3334	5.61e-05
3346	7.82e-05
3358	5.27e-05
3370	0.000102
3382	7.48e-05
3394	9.52e-05
3406	4.76e-05
3418	6.63e-05
3430	3.91e-05
3442	4.08e-05
3454	2.72e-05
3466	5.1e-06
3478	1.02e-05
3490	4.93e-05
3502	0
3514	6.29e-05
3526	4.59e-05
3538	2.55e-05
3550	7.82e-05
3562	6.46e-05
3574	2.04e-05
3586	8.5e-06
3598	7.31e-05
3610	0.0001547
3622	0.0003519
3634	0.000748
3646	0.0008262
3658	0.0004454
3670	0.0001666
3682	3.91e-05
3694	4.25e-05
3706	2.72e-05
3718	2.55e-05
3730	8.5e-05
3742	7.48e-05
3754	3.4e-05
3766	2.89e-05
3778	5.61e-05
3790	6.97e-05
3802	7.48e-05
3814	3.57e-05
3826	0.0001258
3838	0.0001088
