Infrared Spectrum: 5,9-Dimethyl-8-decen-3-ol
Formula: C 12 H 24 O
CAS: 19550-54-0
State: gas
Instrument: HP-GC/MS/IRD
Origin: NIST Mass Spectrometry Data Center
1/CM	ABSORBANCE
550	0.0003503
562	5.58e-05
574	6.82e-05
586	0.0001147
598	5.89e-05
610	0.0001333
622	8.68e-05
634	0.0001054
646	8.37e-05
658	0.0001333
670	0.0001147
682	0.0001984
694	0.0001736
706	0.0002294
718	0.0002108
730	0.0003813
742	0.0005177
754	0.0004681
766	0.0004991
778	0.000651
790	0.0007409
802	0.0009207
814	0.0012834
826	0.0017143
838	0.0016864
850	0.0014198
862	0.0011315
874	0.0010695
886	0.0012338
898	0.001426
910	0.0013857
922	0.0014136
934	0.00186
946	0.0024397
958	0.003782
970	0.0043431
982	0.0036673
994	0.0034007
1006	0.003348
1018	0.0030132
1030	0.0025296
1042	0.0023157
1054	0.0022382
1066	0.0024583
1078	0.0028427
1090	0.0033883
1102	0.0038657
1114	0.0041013
1126	0.0035495
1138	0.0027807
1150	0.0022196
1162	0.0019406
1174	0.0018848
1186	0.0018073
1198	0.0019623
1210	0.0022847
1222	0.0025482
1234	0.0025234
1246	0.0023033
1258	0.0020801
1270	0.0020212
1282	0.0019716
1294	0.0018972
1306	0.001891
1318	0.0018073
1330	0.0018507
1342	0.0022568
1354	0.0029915
1366	0.0040951
1378	0.0059086
1390	0.0051026
1402	0.0029047
1414	0.0021111
1426	0.0022754
1438	0.0033573
1450	0.0044826
1462	0.0049755
1474	0.0033759
1486	0.0016802
1498	0.001054
1510	0.0007502
1522	0.0005983
1534	0.0005487
1546	0.0005022
1558	0.0004433
1570	0.0004154
1582	0.0003999
1594	0.0003596
1606	0.0003472
1618	0.0003224
1630	0.0003286
1642	0.0003596
1654	0.0003379
1666	0.0003999
1678	0.0002821
1690	0.0001829
1702	0.000124
1714	8.99e-05
1726	8.37e-05
1738	6.51e-05
1750	6.51e-05
1762	4.96e-05
1774	5.27e-05
1786	4.96e-05
1798	6.82e-05
1810	6.82e-05
1822	5.58e-05
1834	4.65e-05
1846	3.41e-05
1858	5.58e-05
1870	4.65e-05
1882	3.41e-05
1894	2.48e-05
1906	5.27e-05
1918	1.86e-05
1930	2.79e-05
1942	7.13e-05
1954	4.65e-05
1966	4.03e-05
1978	4.96e-05
1990	1.55e-05
2002	1.24e-05
2014	1.24e-05
2026	0
2038	2.17e-05
2050	1.24e-05
2062	9.3e-06
2074	2.79e-05
2086	2.17e-05
2098	1.55e-05
2110	3.1e-05
2122	1.55e-05
2134	3.41e-05
2146	9.3e-06
2158	3.72e-05
2170	4.96e-05
2182	5.89e-05
2194	3.41e-05
2206	3.1e-05
2218	3.72e-05
2230	5.27e-05
2242	4.03e-05
2254	5.58e-05
2266	5.89e-05
2278	5.89e-05
2290	6.51e-05
2302	6.2e-05
2314	7.13e-05
2326	7.13e-05
2338	9.61e-05
2350	8.99e-05
2362	8.06e-05
2374	0.0001178
2386	0.0001364
2398	0.000155
2410	0.0001612
2422	0.0001519
2434	0.0001612
2446	0.0001488
2458	0.0001736
2470	0.0001581
2482	0.0001674
2494	0.0001829
2506	0.0001674
2518	0.0001829
2530	0.0002232
2542	0.0002294
2554	0.0002449
2566	0.0002666
2578	0.0003286
2590	0.000341
2602	0.0003689
2614	0.0003999
2626	0.0003999
2638	0.0004433
2650	0.0004526
2662	0.0004805
2674	0.000527
2686	0.0005828
2698	0.0006541
2710	0.0007316
2722	0.0008463
2734	0.001116
2746	0.0011532
2758	0.001023
2770	0.001054
2782	0.0011625
2794	0.0014291
2806	0.0017949
2818	0.0023405
2830	0.0033325
2842	0.0055769
2854	0.00961
2866	0.0132153
2878	0.0152737
2890	0.0161944
2902	0.0177072
2914	0.0245954
2926	0.0309039
2938	0.0277884
2950	0.020956
2962	0.023188
2974	0.0232779
2986	0.0127534
2998	0.0070122
3010	0.0044144
3022	0.0033263
3034	0.0027404
3046	0.0023064
3058	0.0019065
3070	0.0015779
3082	0.0013206
3094	0.0011284
3106	0.0009579
3118	0.000806
3130	0.0006758
3142	0.000589
3154	0.0004867
3166	0.0004495
3178	0.0004278
3190	0.0003782
3202	0.0002976
3214	0.0002387
3226	0.0002139
3238	0.0002046
3250	0.0001612
3262	0.0001736
3274	0.0001488
3286	0.0001457
3298	0.0001271
3310	0.0001333
3322	0.0001767
3334	0.0001395
3346	0.0001271
3358	0.0001395
3370	0.0001736
3382	0.0001302
3394	0.0001457
3406	0.0001457
3418	0.0001984
3430	0.0001209
3442	0.0001426
3454	0.0001705
3466	0.0001023
3478	0.0001209
3490	9.61e-05
3502	4.65e-05
3514	8.37e-05
3526	5.89e-05
3538	2.48e-05
3550	7.75e-05
3562	8.37e-05
3574	9.3e-05
3586	0.0001147
3598	0.0001643
3610	0.0002573
3622	0.0004712
3634	0.0007564
3646	0.0013175
3658	0.0014322
3670	0.0006789
3682	0.000279
3694	0.0001674
3706	0.0001116
3718	0.0001178
3730	7.75e-05
3742	5.89e-05
3754	7.75e-05
3766	5.58e-05
3778	0.0001054
3790	0.0001054
3802	7.75e-05
3814	0.0001271
3826	0.0001116
3838	0.0001395
