Infrared Spectrum: 2,2-Dimethyl-5-hexen-3-ol
Formula: C 8 H 16 O
CAS: 19550-89-1
State: gas
Instrument: HP-GC/MS/IRD
Origin: NIST Mass Spectrometry Data Center
1/CM	ABSORBANCE
550	0.001197
562	0.00077
574	0.000511
586	0.000392
598	0.000511
610	0.000791
622	0.0012635
634	0.001386
646	0.000875
658	0.000392
670	0.000168
682	0.0001925
694	0.0001505
706	0.0001225
718	0.000126
730	0.0001085
742	5.6e-05
754	0.000126
766	0.000112
778	6.65e-05
790	0.0001015
802	7e-05
814	0.0001785
826	0.000448
838	0.000861
850	0.001757
862	0.0022575
874	0.0021665
886	0.002492
898	0.0042315
910	0.00665
922	0.006678
934	0.004018
946	0.0025305
958	0.002352
970	0.003472
982	0.0065275
994	0.0097405
1006	0.0100905
1018	0.00714
1030	0.004543
1042	0.004487
1054	0.0058275
1066	0.0068005
1078	0.0060305
1090	0.0041265
1102	0.003066
1114	0.0026285
1126	0.002086
1138	0.001778
1150	0.001806
1162	0.0022785
1174	0.0029645
1186	0.0036435
1198	0.004081
1210	0.0039585
1222	0.0039725
1234	0.004011
1246	0.0034405
1258	0.0030765
1270	0.0031325
1282	0.0030695
1294	0.002751
1306	0.0022295
1318	0.001694
1330	0.001631
1342	0.002303
1354	0.0043855
1366	0.0072835
1378	0.006223
1390	0.0045465
1402	0.0047005
1414	0.003213
1426	0.002499
1438	0.002667
1450	0.002737
1462	0.003493
1474	0.0050225
1486	0.004508
1498	0.001981
1510	0.000819
1522	0.0005005
1534	0.000378
1546	0.000315
1558	0.0002695
1570	0.0002345
1582	0.000203
1594	0.0002555
1606	0.0004235
1618	0.0009205
1630	0.002548
1642	0.003269
1654	0.0013055
1666	0.000343
1678	0.000182
1690	0.000119
1702	9.1e-05
1714	5.25e-05
1726	2.45e-05
1738	3.5e-06
1750	2.45e-05
1762	1.4e-05
1774	2.45e-05
1786	5.25e-05
1798	7.35e-05
1810	0.000161
1822	0.0004515
1834	0.0007105
1846	0.0005705
1858	0.000273
1870	0.0001155
1882	6.3e-05
1894	4.2e-05
1906	7e-05
1918	5.25e-05
1930	5.6e-05
1942	7.35e-05
1954	8.75e-05
1966	0.000105
1978	0.000105
1990	0.0001015
2002	5.95e-05
2014	5.25e-05
2026	5.95e-05
2038	6.65e-05
2050	5.25e-05
2062	6.65e-05
2074	6.3e-05
2086	5.95e-05
2098	5.95e-05
2110	7.7e-05
2122	9.1e-05
2134	9.45e-05
2146	7.35e-05
2158	7e-05
2170	5.6e-05
2182	5.95e-05
2194	5.95e-05
2206	5.6e-05
2218	8.05e-05
2230	7.7e-05
2242	7.7e-05
2254	6.3e-05
2266	9.1e-05
2278	0.0001015
2290	0.0001225
2302	0.000119
2314	0.000126
2326	0.0001155
2338	0.0001155
2350	0.000105
2362	0.000126
2374	0.000126
2386	0.000126
2398	0.0001155
2410	0.000133
2422	0.0001295
2434	0.0001225
2446	8.4e-05
2458	9.1e-05
2470	9.45e-05
2482	8.05e-05
2494	8.4e-05
2506	8.75e-05
2518	9.8e-05
2530	0.0001295
2542	0.000161
2554	0.000161
2566	0.0001855
2578	0.00021
2590	0.0001925
2602	0.0002065
2614	0.0002275
2626	0.0002625
2638	0.000329
2650	0.0004095
2662	0.0004725
2674	0.000462
2686	0.0004515
2698	0.0004725
2710	0.000539
2722	0.0006335
2734	0.000665
2746	0.000637
2758	0.000672
2770	0.000686
2782	0.000735
2794	0.0008995
2806	0.00119
2818	0.001596
2830	0.002352
2842	0.0037695
2854	0.0062685
2866	0.010143
2878	0.012894
2890	0.01176
2902	0.01085
2914	0.012292
2926	0.014007
2938	0.0171045
2950	0.02436
2962	0.034237
2974	0.030373
2986	0.0159565
2998	0.007665
3010	0.0043295
3022	0.0027125
3034	0.0018165
3046	0.0016275
3058	0.001939
3070	0.0029085
3082	0.004837
3094	0.003829
3106	0.001253
3118	0.0007315
3130	0.000609
3142	0.0005425
3154	0.0004935
3166	0.000448
3178	0.0004095
3190	0.0004375
3202	0.0003815
3214	0.0003255
3226	0.00028
3238	0.000189
3250	0.0001995
3262	0.0001505
3274	0.000133
3286	0.000105
3298	9.45e-05
3310	0.0001155
3322	7.7e-05
3334	8.4e-05
3346	0.0001085
3358	0.000105
3370	0.0001155
3382	0.000105
3394	9.45e-05
3406	8.4e-05
3418	0.000126
3430	9.1e-05
3442	0.000112
3454	0.00014
3466	0.00014
3478	0.000105
3490	9.45e-05
3502	0.000126
3514	9.8e-05
3526	0.0001505
3538	0.000119
3550	0.0001785
3562	0.00021
3574	0.0002415
3586	0.0002975
3598	0.0005845
3610	0.0015435
3622	0.002366
3634	0.0022155
3646	0.0019705
3658	0.0018725
3670	0.0014105
3682	0.0006965
3694	0.0003325
3706	0.000189
3718	0.000147
3730	0.0001365
3742	9.1e-05
3754	9.1e-05
3766	9.1e-05
3778	9.8e-05
3790	7.7e-05
3802	8.4e-05
3814	9.8e-05
3826	0.000112
3838	0.00014
