Infrared Spectrum: Biguanide, 1-(p-ethoxyphenyl)-, hydrochloride
Formula: C10 H16 Cl N5 O
CAS: 19579-46-5
State: SOLID (SPLIT MULL), FLUOROLUBE FOR 3800-1330 CM^-^1, NUJOL FOR 1330-400 CM^-^1
Class: COBLENTZ III
Instrument: BECKMAN IR-9 (GRATING)
Instrument parameters: ORDER CHANGES: 670, 1200, 2000 CM^-^1
Sampling: TRANSMISSION
Resolution: 2
Origin: DOW CHEMICAL COMPANY
1/CM	TRANSMITTANCE
3806	0.568
3797	0.569
3788	0.5704
3779	0.572
3770	0.5739
3761	0.5757
3752	0.5778
3743	0.5799
3734	0.582
3725	0.5838
3716	0.5857
3707	0.5874
3698	0.5892
3689	0.591
3680	0.593
3671	0.595
3662	0.597
3653	0.5988
3644	0.6005
3635	0.6024
3626	0.6043
3617	0.6058
3608	0.6069
3599	0.6067
3590	0.6076
3581	0.6112
3572	0.6153
3563	0.6185
3554	0.6219
3545	0.6257
3536	0.6294
3527	0.6326
3518	0.6348
3509	0.6364
3500	0.6371
3491	0.6369
3482	0.6352
3473	0.6291
3464	0.6203
3455	0.6051
3446	0.5781
3437	0.5372
3428	0.3654
3419	0.3732
3410	0.4246
3401	0.4324
3392	0.4187
3383	0.406
3374	0.4143
3365	0.4167
3356	0.4089
3347	0.3893
3338	0.3521
3329	0.3159
3320	0.2803
3311	0.2621
3302	0.2563
3293	0.2764
3284	0.2992
3275	0.3177
3266	0.3295
3257	0.3312
3248	0.3274
3239	0.3129
3230	0.2966
3221	0.2805
3212	0.2701
3203	0.2693
3194	0.2695
3185	0.2611
3176	0.2379
3167	0.2207
3158	0.214
3149	0.2241
3140	0.2412
3131	0.2585
3122	0.2762
3113	0.2973
3104	0.3184
3095	0.339
3086	0.3566
3077	0.3737
3068	0.3895
3059	0.4046
3050	0.4181
3041	0.4309
3032	0.4439
3023	0.4557
3014	0.4636
3005	0.4659
2996	0.4558
2987	0.4459
2978	0.4512
2969	0.4719
2960	0.474
2951	0.481
2942	0.4849
2933	0.4765
2924	0.4827
2915	0.5031
2906	0.5155
2897	0.5215
2888	0.5258
2879	0.5344
2870	0.5462
2861	0.5567
2852	0.5668
2843	0.576
2834	0.5851
2825	0.593
2816	0.599
2807	0.6046
2798	0.6103
2789	0.6143
2780	0.6183
2771	0.6212
2762	0.6221
2753	0.6222
2744	0.6222
2735	0.6227
2726	0.6232
2717	0.6237
2708	0.6254
2699	0.6279
2690	0.6316
2681	0.637
2672	0.6424
2663	0.6478
2654	0.653
2645	0.6568
2636	0.6607
2627	0.6645
2618	0.6684
2609	0.6722
2600	0.6762
2591	0.6795
2582	0.6826
2573	0.6858
2564	0.6887
2555	0.6912
2546	0.694
2537	0.6965
2528	0.6992
2519	0.701
2510	0.7007
2501	0.6989
2492	0.6971
2483	0.6951
2474	0.6932
2465	0.6921
2456	0.694
2447	0.6968
2438	0.7004
2429	0.7038
2420	0.7061
2411	0.7084
2402	0.7104
2393	0.7117
2384	0.7137
2375	0.7215
2366	0.7328
2357	0.7325
2348	0.7311
2339	0.7291
2330	0.7276
2321	0.7265
2312	0.7255
2303	0.7265
2294	0.7291
2285	0.7314
2276	0.7341
2267	0.7372
2258	0.7406
2249	0.7441
2240	0.7484
2231	0.7524
2222	0.7561
2213	0.7597
2204	0.7618
2195	0.764
2186	0.7661
2177	0.7682
2168	0.7704
2159	0.7724
2150	0.7745
2141	0.7765
2132	0.7786
2123	0.781
2114	0.7836
2105	0.7861
2096	0.7888
2087	0.7915
2078	0.7946
2069	0.7975
2060	0.8007
2051	0.8043
2042	0.808
2033	0.8112
2024	0.8146
2015	0.8181
2006	0.8216
1997	0.8216
1988	0.8252
1979	0.828
1970	0.8302
1961	0.8324
1952	0.834
1943	0.8355
1934	0.8373
1925	0.8399
1916	0.8424
1907	0.8443
1898	0.8464
1889	0.8478
1880	0.8417
1871	0.8378
1862	0.8423
1853	0.8481
1844	0.8524
1835	0.8563
1826	0.8591
1817	0.8602
1808	0.8591
1799	0.8595
1790	0.8616
1781	0.8642
1772	0.8667
1763	0.8683
1754	0.8685
1745	0.8682
1736	0.8671
1727	0.8663
1718	0.8618
1709	0.8534
1700	0.8409
1691	0.8236
1682	0.7896
1673	0.7261
1664	0.6356
1655	0.2856
1646	0.123
1637	0.1844
1628	0.3709
1619	0.4938
1610	0.4278
1601	0.39
1592	0.5157
1583	0.2647
1574	0.3778
1565	0.2552
1556	0.3266
1547	0.3209
1538	0.1654
1529	0.155
1520	0.2261
1511	0.0868
1502	0.2261
1493	0.2698
1484	0.2774
1475	0.2803
1466	0.3946
1457	0.4653
1448	0.5039
1439	0.5262
1430	0.519
1421	0.4804
1412	0.555
1403	0.576
1394	0.4817
1385	0.5176
1376	0.5701
1367	0.5901
1358	0.6012
1349	0.5835
1340	0.5751
1331	0.5896
1322	0.5805
1313	0.5477
1304	0.4572
1295	0.4439
1286	0.536
1277	0.5672
1268	0.5562
1259	0.4402
1250	0.1434
1241	0.1151
1232	0.2681
1223	0.3775
1214	0.4266
1205	0.4626
1196	0.4753
1187	0.4756
1178	0.4285
1169	0.5158
1160	0.5516
1151	0.5644
1142	0.5929
1133	0.5992
1124	0.5415
1115	0.4128
1106	0.5209
1097	0.5516
1088	0.5255
1079	0.5471
1070	0.5264
1061	0.4705
1052	0.3314
1043	0.4077
1034	0.564
1025	0.6343
1016	0.6817
1007	0.653
998	0.7312
989	0.7512
980	0.7561
971	0.7589
962	0.771
953	0.7881
944	0.7918
935	0.7408
926	0.6296
917	0.6167
908	0.8132
899	0.8293
890	0.8521
881	0.8678
872	0.8471
863	0.7981
854	0.8448
845	0.8167
836	0.7258
827	0.5401
818	0.3941
809	0.763
800	0.7987
791	0.7128
782	0.8595
773	0.8575
764	0.8421
755	0.8164
746	0.5524
737	0.6776
728	0.448
719	0.5316
710	0.6708
701	0.6778
692	0.7192
683	0.723
674	0.6762
665	0.6587
656	0.6015
647	0.57
638	0.4881
629	0.6046
620	0.572
611	0.5495
602	0.4843
593	0.4799
584	0.5141
575	0.5515
566	0.5546
557	0.5746
548	0.5929
539	0.5326
530	0.6249
521	0.6739
512	0.5801
503	0.5965
494	0.6865
485	0.6564
476	0.6525
467	0.6886
458	0.7228
449	0.7375
440	0.7384
431	0.7114
422	0.6582
413	0.6244
404	0.6048
