Infrared Spectrum: 4-Benzyloxyiodobenzene
Formula: C 13 H 11 I O
CAS: 19578-68-8
State: gas
Origin: EPA-IR VAPOR PHASE LIBRARY
1/CM	ABSORBANCE
551.7	0.00336
563.274	0.00387
574.848	0.00671
586.421	0.00683
597.995	0.00589
609.569	0.00638
621.143	0.0064
632.717	0.01007
644.291	0.014
655.864	0.0055
667.438	0.00632
679.012	0.01152
690.586	0.02173
702.16	0.02183
713.734	0.01824
725.307	0.02453
736.881	0.02859
748.455	0.01778
760.029	0.00924
771.603	0.00552
783.177	0.00639
794.75	0.01072
806.324	0.01726
817.898	0.0295
829.472	0.021
841.046	0.01077
852.619	0.00767
864.193	0.00466
875.767	0.0038
887.341	0.00415
898.915	0.00559
910.489	0.00583
922.062	0.0047
933.636	0.00419
945.21	0.0045
956.784	0.00584
968.358	0.00935
979.932	0.01705
991.505	0.03227
1003.08	0.06024
1014.65	0.04556
1026.23	0.04343
1037.8	0.02373
1049.37	0.01377
1060.95	0.0151
1072.52	0.0077
1084.1	0.00688
1095.67	0.00764
1107.24	0.00821
1118.82	0.00604
1130.39	0.00461
1141.97	0.00516
1153.54	0.00858
1165.11	0.03071
1176.69	0.05159
1188.26	0.02189
1199.83	0.03873
1211.41	0.08513
1222.98	0.15459
1234.56	0.13862
1246.13	0.08335
1257.7	0.05122
1269.28	0.06322
1280.85	0.06045
1292.42	0.03601
1304	0.02373
1315.57	0.01747
1327.15	0.01119
1338.72	0.00893
1350.29	0.00901
1361.87	0.01164
1373.44	0.01762
1385.02	0.01622
1396.59	0.00767
1408.16	0.00614
1419.74	0.00732
1431.31	0.00889
1442.88	0.013
1454.46	0.02229
1466.03	0.0426
1477.61	0.0939
1489.18	0.13679
1500.75	0.02957
1512.33	0.01101
1523.9	0.00679
1535.48	0.00603
1547.05	0.00689
1558.62	0.01186
1570.2	0.028
1581.77	0.04144
1593.34	0.02649
1604.92	0.01066
1616.49	0.00586
1628.07	0.00428
1639.64	0.00368
1651.21	0.00288
1662.79	0.00238
1674.36	0.00205
1685.93	0.00191
1697.51	0.00192
1709.08	0.00206
1720.66	0.00248
1732.23	0.00284
1743.8	0.00338
1755.38	0.00281
1766.95	0.00246
1778.53	0.00263
1790.1	0.00342
1801.67	0.00383
1813.25	0.00263
1824.82	0.00227
1836.39	0.0024
1847.97	0.00286
1859.54	0.00373
1871.12	0.00437
1882.69	0.00382
1894.26	0.00273
1905.84	0.002
1917.41	0.00191
1928.99	0.00219
1940.56	0.00277
1952.13	0.00326
1963.71	0.00298
1975.28	0.00219
1986.85	0.00225
1998.43	0.00245
2010	0.00266
2021.58	0.00258
2033.15	0.00254
2044.72	0.00237
2056.3	0.00231
2067.87	0.00217
2079.44	0.00186
2091.02	0.00166
2102.59	0.00143
2114.17	0.00131
2125.74	0.00113
2137.31	0.000884
2148.89	0.0008116
2160.46	0.0007514
2172.04	0.0007303
2183.61	0.0007903
2195.18	0.0008285
2206.76	0.0008607
2218.33	0.0008818
2229.9	0.0009125
2241.48	0.0009409
2253.05	0.00105
2264.63	0.00119
2276.2	0.00133
2287.77	0.00128
2299.35	0.00115
2310.92	0.00115
2322.5	0.00114
2334.07	0.00116
2345.64	0.00137
2357.22	0.00141
2368.79	0.00144
2380.36	0.00146
2391.94	0.00148
2403.51	0.00145
2415.09	0.00143
2426.66	0.00142
2438.23	0.0015
2449.81	0.00152
2461.38	0.00152
2472.96	0.00153
2484.53	0.00167
2496.1	0.00172
2507.68	0.00182
2519.25	0.00163
2530.82	0.00144
2542.4	0.00134
2553.97	0.00115
2565.55	0.00108
2577.12	0.00106
2588.69	0.00101
2600.27	0.001
2611.84	0.0009356
2623.41	0.0008477
2634.99	0.0008861
2646.56	0.0008963
2658.14	0.0008342
2669.71	0.0007844
2681.28	0.0008446
2692.86	0.0009129
2704.43	0.0009963
2716.01	0.00102
2727.58	0.00117
2739.15	0.00112
2750.73	0.00112
2762.3	0.00105
2773.87	0.00118
2785.45	0.00145
2797.02	0.00178
2808.6	0.00216
2820.17	0.0025
2831.74	0.00272
2843.32	0.00311
2854.89	0.00403
2866.47	0.00608
2878.04	0.00943
2889.61	0.01118
2901.19	0.00831
2912.76	0.0077
2924.33	0.0084
2935.91	0.00961
2947.48	0.01012
2959.06	0.01008
2970.63	0.00629
2982.2	0.00373
2993.78	0.00288
3005.35	0.00377
3016.92	0.00683
3028.5	0.01438
3040.07	0.01918
3051.65	0.01387
3063.22	0.01626
3074.79	0.02533
3086.37	0.01669
3097.94	0.01207
3109.52	0.00661
3121.09	0.00342
3132.66	0.00169
3144.24	0.00117
3155.81	0.0009827
3167.38	0.0009502
3178.96	0.0007921
3190.53	0.0005954
3202.11	0.0005328
3213.68	0.0004754
3225.25	0.000465
3236.83	0.0004666
3248.4	0.0005035
3259.98	0.0004648
3271.55	0.0005186
3283.12	0.0004642
3294.7	0.0004543
3306.27	0.0005252
3317.84	0.0004993
3329.42	0.0004722
3340.99	0.0004448
3352.57	0.0003766
3364.14	0.0004429
3375.71	0.0004075
3387.29	0.0004216
3398.86	0.0004225
3410.43	0.0004172
3422.01	0.0004467
3433.58	0.0003999
3445.16	0.0004165
3456.73	0.000469
3468.3	0.0004246
3479.88	0.0005217
3491.45	0.0004751
3503.03	0.0004231
3514.6	0.0003911
3526.17	0.0003546
3537.75	0.0004804
3549.32	0.0004504
3560.89	0.0003584
3572.47	0.0004661
3584.04	0.0004486
3595.62	0.0004748
3607.19	0.0004574
3618.76	0.0005457
3630.34	0.0005202
3641.91	0.0006277
3653.49	0.0007274
3665.06	0.0006518
3676.63	0.0006247
3688.21	0.0006501
3699.78	0.0006297
3711.35	0.0006911
3722.93	0.0006526
3734.5	0.0005529
3746.08	0.0005416
3757.65	0.0004591
3769.22	0.0004709
3780.8	0.0003765
3792.37	0.0004741
3803.94	0.0004761
3815.52	0.0005165
3827.09	0.0004871
3838.67	0.0005299
3850.24	0.0006781
3861.81	0.0006515
3873.39	0.0006952
3884.96	0.0006552
3896.54	0.0006022
3908.11	0.0006588
3919.68	0.0007024
3931.26	0.0006703
3942.83	0.0005679
3954.4	0.0005556
3965.98	0.000611
3977.55	0.0005355
3989.13	0.0004846
4000.7	0.0005564
