Infrared Spectrum: 1,3-Diphenyl-2,4-pentanedione
Formula: C 17 H 16 O 2
CAS: 19588-08-0
State: gas
Origin: EPA-IR VAPOR PHASE LIBRARY
1/CM	ABSORBANCE
549.8	0.024784
559.445	0.018434
569.09	0.011494
578.734	0.008774
588.379	0.008304
598.024	0.006694
607.669	0.006214
617.313	0.005174
626.958	0.004584
636.603	0.005244
646.248	0.006434
655.893	0.007324
665.537	0.010614
675.182	0.015194
684.827	0.025704
694.472	0.066864
704.116	0.093014
713.761	0.047154
723.406	0.038994
733.051	0.023054
742.695	0.017884
752.34	0.019704
761.985	0.017494
771.63	0.010164
781.275	0.005424
790.919	0.004404
800.564	0.004154
810.209	0.004494
819.854	0.004044
829.498	0.005484
839.143	0.006244
848.788	0.005924
858.433	0.005954
868.078	0.006574
877.722	0.007624
887.367	0.008744
897.012	0.013064
906.657	0.018204
916.301	0.016594
925.946	0.014524
935.591	0.015254
945.236	0.016234
954.88	0.016114
964.525	0.017084
974.17	0.020194
983.815	0.018724
993.46	0.014194
1003.1	0.016874
1012.75	0.013594
1022.39	0.014004
1032.04	0.019234
1041.68	0.013334
1051.33	0.013894
1060.97	0.016254
1070.62	0.021134
1080.26	0.017284
1089.91	0.016834
1099.55	0.016104
1109.2	0.017314
1118.84	0.015114
1128.49	0.017244
1138.13	0.022274
1147.78	0.028454
1157.42	0.029034
1167.07	0.025414
1176.71	0.026514
1186.36	0.030354
1196	0.030934
1205.64	0.028134
1215.29	0.025704
1224.93	0.025324
1234.58	0.027474
1244.22	0.029434
1253.87	0.030304
1263.51	0.032854
1273.16	0.036394
1282.8	0.039704
1292.45	0.043484
1302.09	0.046064
1311.74	0.048604
1321.38	0.052364
1331.03	0.054664
1340.67	0.054044
1350.32	0.053334
1359.96	0.053134
1369.61	0.047604
1379.25	0.048714
1388.9	0.049334
1398.54	0.045604
1408.18	0.042954
1417.83	0.042154
1427.47	0.043094
1437.12	0.044864
1446.76	0.045504
1456.41	0.043234
1466.05	0.037934
1475.7	0.038024
1485.34	0.046804
1494.99	0.068634
1504.63	0.049854
1514.28	0.042624
1523.92	0.044504
1533.57	0.048534
1543.21	0.053654
1552.86	0.059854
1562.5	0.068414
1572.15	0.079084
1581.79	0.089644
1591.44	0.100764
1601.08	0.106014
1610.73	0.098594
1620.37	0.092494
1630.01	0.082004
1639.66	0.067734
1649.3	0.053954
1658.95	0.044374
1668.59	0.037634
1678.24	0.033734
1687.88	0.032134
1697.53	0.034824
1707.17	0.046944
1716.82	0.061624
1726.46	0.056934
1736.11	0.044884
1745.75	0.035454
1755.4	0.023204
1765.04	0.016514
1774.69	0.013444
1784.33	0.011934
1793.98	0.012364
1803.62	0.011604
1813.27	0.009784
1822.91	0.008534
1832.55	0.007544
1842.2	0.007354
1851.84	0.007014
1861.49	0.007614
1871.13	0.008354
1880.78	0.008044
1890.42	0.007354
1900.07	0.006334
1909.71	0.005914
1919.36	0.005974
1929	0.006754
1938.65	0.008574
1948.29	0.009074
1957.94	0.007954
1967.58	0.006354
1977.23	0.005304
1986.87	0.005314
1996.52	0.005064
2006.16	0.004874
2015.81	0.004674
2025.45	0.004814
2035.1	0.004554
2044.74	0.004614
2054.38	0.004674
2064.03	0.004444
2073.67	0.004454
2083.32	0.004624
2092.96	0.004394
2102.61	0.004394
2112.25	0.004434
2121.9	0.004144
2131.54	0.004154
2141.19	0.004124
2150.83	0.004054
2160.48	0.004154
2170.12	0.003924
2179.77	0.004084
2189.41	0.004034
2199.06	0.004144
2208.7	0.004244
2218.35	0.004064
2227.99	0.004074
2237.64	0.004314
2247.28	0.004224
2256.92	0.004454
2266.57	0.004334
2276.21	0.004394
2285.86	0.004574
2295.5	0.004304
2305.15	0.004724
2314.79	0.004834
2324.44	0.004564
2334.08	0.004874
2343.73	0.004654
2353.37	0.004734
2363.02	0.004484
2372.66	0.004554
2382.31	0.004504
2391.95	0.004294
2401.6	0.004274
2411.24	0.004494
2420.89	0.004354
2430.53	0.004264
2440.18	0.004254
2449.82	0.004224
2459.47	0.004404
2469.11	0.004274
2478.75	0.004334
2488.4	0.004564
2498.04	0.004684
2507.69	0.004804
2517.33	0.004834
2526.98	0.004804
2536.62	0.005064
2546.27	0.004964
2555.91	0.005184
2565.56	0.005364
2575.2	0.005274
2584.85	0.005494
2594.49	0.005594
2604.14	0.005784
2613.78	0.005304
2623.43	0.005224
2633.07	0.005444
2642.72	0.005444
2652.36	0.004834
2662.01	0.005124
2671.65	0.005144
2681.29	0.005144
2690.94	0.005094
2700.58	0.005374
2710.23	0.005234
2719.87	0.005244
2729.52	0.005084
2739.16	0.005324
2748.81	0.005284
2758.45	0.005494
2768.1	0.005574
2777.74	0.005624
2787.39	0.005644
2797.03	0.005394
2806.68	0.005404
2816.32	0.005394
2825.97	0.005784
2835.61	0.005884
2845.26	0.006714
2854.9	0.006484
2864.55	0.006504
2874.19	0.006944
2883.84	0.006714
2893.48	0.008144
2903.12	0.009214
2912.77	0.010514
2922.41	0.012404
2932.06	0.015514
2941.7	0.013124
2951.35	0.010514
2960.99	0.010174
2970.64	0.010484
2980.28	0.009764
2989.93	0.009474
2999.57	0.010154
3009.22	0.014194
3018.86	0.022774
3028.51	0.039714
3038.15	0.041684
3047.8	0.027404
3057.44	0.031954
3067.09	0.054774
3076.73	0.047704
3086.38	0.030964
3096.02	0.020854
3105.67	0.014094
3115.31	0.009484
3124.95	0.006464
3134.6	0.005244
3144.24	0.004604
3153.89	0.003934
3163.53	0.003964
3173.18	0.003664
3182.82	0.003324
3192.47	0.003064
3202.11	0.003244
3211.76	0.002984
3221.4	0.003234
3231.05	0.002514
3240.69	0.002504
3250.34	0.002704
3259.98	0.002374
3269.63	0.002324
3279.27	0.001984
3288.92	0.002404
3298.56	0.001774
3308.21	0.001424
3317.85	0.002314
3327.49	0.001824
3337.14	0.001374
3346.78	0.001424
3356.43	0.001534
3366.07	0.001584
3375.72	0.001474
3385.36	0.0009678
3395.01	0.0012109
3404.65	0.001404
3414.3	0.002044
3423.94	0.002164
3433.59	0.001864
3443.23	0.001594
3452.88	0.001324
3462.52	0.0011335
3472.17	0.001284
3481.81	0.001354
3491.46	0.001364
3501.1	0.0011117
3510.75	0.0005568
3520.39	0.0008359
3530.04	0.0005552
3539.68	0.0009057
3549.32	0.0008826
3558.97	0.001194
3568.61	0.001244
3578.26	0.0001955
3587.9	0.0002043
3597.55	0.0004924
3607.19	0.0001504
3616.84	0.000761
3626.48	0.0006663
3636.13	0.0005946
3645.77	0.0008812
3655.42	0.0011016
3665.06	0.0005352
3674.71	0.0008509
3684.35	0.001224
3694	0.0010645
3703.64	0.0010745
3713.29	0.0008763
3722.93	0.0010316
3732.58	0.0007266
3742.22	0.0004147
3751.86	0.0005655
3761.51	0.0009145
3771.15	0.0008887
3780.8	0.0009596
3790.44	0.0005461
3800.09	0.0010113
3809.73	0.0009366
3819.38	0.0005869
3829.02	0.0008386
3838.67	0.0008649
3848.31	0.0011301
3857.96	0.000904
3867.6	0.0006354
3877.25	0.0003946
3886.89	0.0004968
3896.54	0.0004695
3906.18	0.0003475
3915.83	0.0007756
3925.47	0.0007729
3935.12	0.0007009
3944.76	0.0008238
3954.41	0.0010844
3964.05	0.0009467
3973.69	0.000176
3983.34	0.0009134
3992.98	0.0007738
