Infrared Spectrum: 2-Bromothioanisole
Formula: C 7 H 7 Br S
CAS: 19614-16-5
State: gas
Origin: EPA-IR VAPOR PHASE LIBRARY
1/CM	ABSORBANCE
501.5	0.000447
513.074	0.0006131
524.648	0.0003587
536.222	0.0003402
547.796	0.0002863
559.37	0.0002674
570.944	0.0002527
582.518	0.0004586
594.092	0.0003931
605.666	0.0003449
617.24	0.0003775
628.814	0.0007503
640.388	0.0031365
651.962	0.0045365
663.536	0.0013765
675.11	0.0007332
686.684	0.0012665
698.258	0.0028965
709.832	0.0040265
721.406	0.0073365
732.98	0.0235365
744.554	0.0346565
756.128	0.0137565
767.702	0.0024265
779.276	0.0008049
790.85	0.0005732
802.423	0.0008116
813.997	0.0008545
825.571	0.000639
837.145	0.0005396
848.719	0.0006849
860.293	0.0006708
871.867	0.0005346
883.441	0.0005278
895.015	0.0005275
906.589	0.0005975
918.163	0.0007424
929.737	0.0011065
941.311	0.0017065
952.885	0.0022065
964.459	0.0031265
976.033	0.0029965
987.607	0.0023265
999.181	0.0036565
1010.76	0.0103665
1022.33	0.0207765
1033.9	0.0131765
1045.48	0.0041865
1057.05	0.0013465
1068.63	0.0007941
1080.2	0.0011465
1091.77	0.0028165
1103.35	0.0060765
1114.92	0.0061565
1126.49	0.0031965
1138.07	0.0015865
1149.64	0.0008768
1161.22	0.0008549
1172.79	0.0006724
1184.36	0.000536
1195.94	0.0004973
1207.51	0.0004443
1219.09	0.0006242
1230.66	0.0011265
1242.23	0.0034965
1253.81	0.0042765
1265.38	0.0019665
1276.96	0.0011265
1288.53	0.000806
1300.1	0.0008763
1311.68	0.0016065
1323.25	0.0018565
1334.83	0.0010665
1346.4	0.0010086
1357.97	0.0011065
1369.55	0.0011665
1381.12	0.0014365
1392.7	0.0022165
1404.27	0.0039065
1415.84	0.0083065
1427.42	0.0168965
1438.99	0.0263265
1450.57	0.0265665
1462.14	0.0087565
1473.71	0.0032765
1485.29	0.0021565
1496.86	0.0013865
1508.44	0.0009502
1520.01	0.0007951
1531.58	0.0009718
1543.16	0.0019365
1554.73	0.0042565
1566.31	0.0057465
1577.88	0.0052765
1589.45	0.0021965
1601.03	0.0011265
1612.6	0.0008017
1624.18	0.0005252
1635.75	0.0005098
1647.32	0.0005471
1658.9	0.0007285
1670.47	0.0009494
1682.05	0.0010111
1693.62	0.0007797
1705.19	0.0005058
1716.77	0.0004109
1728.34	0.0002711
1739.92	0.0002277
1751.49	0.0003135
1763.06	0.0004991
1774.64	0.0005619
1786.21	0.0006162
1797.79	0.0007899
1809.36	0.0006737
1820.93	0.0005285
1832.51	0.000446
1844.08	0.0003429
1855.66	0.0003804
1867.23	0.0004056
1878.8	0.0006072
1890.38	0.0008894
1901.95	0.0009485
1913.53	0.000953
1925.1	0.0008747
1936.67	0.0008735
1948.25	0.0006624
1959.82	0.0002892
1971.4	0.0001665
1982.97	0.0001681
1994.54	0.0001797
2006.12	0.0001762
2017.69	0.0001867
2029.27	0.0001734
2040.84	0.0001755
2052.41	0.000148
2063.99	0.00011115
2075.56	9.403e-05
2087.14	0.00011348
2098.71	0.00011102
2110.28	0.00010533
2121.86	8.32e-05
2133.43	0.000123
2145.01	0.0001346
2156.58	6.713e-05
2168.15	9.005e-05
2179.73	5.104e-05
2191.3	8.861e-05
2202.88	7.117e-05
2214.45	6.939e-05
2226.02	9.407e-05
2237.6	0.0001072
2249.17	0.0001495
2260.74	0.0002002
2272.32	0.0002809
2283.89	0.0002891
2295.47	0.0002189
2307.04	0.0001529
2318.61	0.0002487
2330.19	0.0002366
2341.76	0.0001923
2353.34	0.0001907
2364.91	0.0001965
2376.48	0.0001925
2388.06	0.0001926
2399.63	0.0002328
2411.21	0.0002274
2422.78	0.0002125
2434.35	0.0001402
2445.93	0.0001342
2457.5	0.00010575
2469.08	7.966e-05
2480.65	6.408e-05
2492.22	0.0001511
2503.8	0.00024
2515.37	0.0003381
2526.95	0.0002974
2538.52	0.0002233
2550.09	0.0001961
2561.67	0.000186
2573.24	0.000244
2584.82	0.0002542
2596.39	0.0002179
2607.96	0.0001184
2619.54	6.855e-05
2631.11	3.985e-05
2642.69	3.853e-05
2654.26	1.7794e-05
2665.83	6.864e-05
2677.41	8.417e-05
2688.98	0.0001194
2700.56	0.0001003
2712.13	4.856e-05
2723.7	4.486e-05
2735.28	9.861e-05
2746.85	8.806e-05
2758.43	0.0001126
2770	7.889e-05
2781.57	0.00011335
2793.15	0.000208
2804.72	0.0002991
2816.3	0.0004899
2827.87	0.0008503
2839.44	0.0014865
2851.02	0.0019565
2862.59	0.0016165
2874.17	0.0012265
2885.74	0.0011265
2897.31	0.0012165
2908.89	0.0019865
2920.46	0.0052965
2932.04	0.0114365
2943.61	0.0072865
2955.18	0.0022865
2966.76	0.0017065
2978.33	0.0023265
2989.91	0.0041665
3001.48	0.0042265
3013.05	0.0021665
3024.63	0.0012565
3036.2	0.0013065
3047.78	0.0028865
3059.35	0.0084565
3070.92	0.0105865
3082.5	0.0059165
3094.07	0.0031665
3105.65	0.0016965
3117.22	0.0017965
3128.79	0.0013765
3140.37	0.0006406
3151.94	0.0003946
3163.52	0.0002421
3175.09	0.0001899
3186.66	0.000128
3198.24	0.0001606
3209.81	0.0001832
3221.39	8.553e-05
3232.96	0.0001271
3244.53	8.035e-05
3256.11	0.00010013
3267.68	2.718e-05
3279.26	6.5e-05
3290.83	7.918e-05
3302.4	5.678e-05
3313.98	8.499e-05
3325.55	0.00010264
3337.13	9.297e-05
3348.7	0.00010257
3360.27	0.00010953
3371.85	0.000129
3383.42	5.402e-05
3395	3.16e-05
3406.57	3.079e-05
3418.14	0.00010409
3429.72	7.474e-05
3441.29	5.783e-05
3452.86	6.29e-05
3464.44	9.612e-05
3476.01	5.808e-05
3487.59	5.982e-05
3499.16	6.207e-05
3510.73	9.659e-05
3522.31	9.698e-05
3533.88	3.641e-05
3545.46	0.00010003
3557.03	5.946e-05
3568.6	0.0001303
3580.18	7.69e-05
3591.75	7.786e-05
3603.33	4.707e-05
3614.9	0.0001426
3626.47	0.0001472
3638.05	0.0001425
3649.62	0.0001326
3661.2	9.786e-05
3672.77	0.0001491
3684.34	8.335e-05
3695.92	0.0001423
3707.49	0.0001854
3719.07	0.0002145
3730.64	0.0002244
3742.21	0.0002667
3753.79	0.0001653
3765.36	0.000166
3776.94	0.0002511
3788.51	0.0003066
3800.08	0.000267
3811.66	0.0001736
3823.23	0.0001274
3834.81	9.8e-05
3846.38	8.036e-05
3857.95	8.666e-05
3869.53	0.0001691
3881.1	0.0001703
3892.68	0.00010303
3904.25	0.0001246
3915.82	0.0002331
3927.4	0.000174
3938.97	0.0001368
3950.55	0.0001442
3962.12	0.0001477
3973.69	0.0001208
3985.27	8.157e-05
3996.84	0.0001415
