Infrared Spectrum: 4-Methoxycinnamaldehyde
Formula: C 10 H 10 O 2
CAS: 1963-36-6
State: gas
Origin: EPA-IR VAPOR PHASE LIBRARY
1/CM	ABSORBANCE
549.9	0.03453
559.547	0.03716
569.193	0.03128
578.84	0.02969
588.486	0.02561
598.133	0.0141
607.779	0.00859
617.426	0.00646
627.072	0.00607
636.719	0.00735
646.365	0.00642
656.012	0.004724
665.658	0.0052036
675.305	0.00819
684.951	0.00683
694.598	0.00431
704.245	0.004263
713.891	0.00464451
723.538	0.00458185
733.184	0.0045462
742.831	0.00559
752.477	0.00988
762.124	0.01634
771.77	0.01452
781.417	0.02176
791.063	0.03701
800.71	0.05059
810.356	0.06049
820.003	0.05137
829.649	0.03462
839.296	0.03014
848.943	0.03587
858.589	0.0265
868.236	0.01373
877.882	0.01
887.529	0.01017
897.175	0.00883
906.822	0.00853
916.468	0.01045
926.115	0.01349
935.761	0.01638
945.408	0.02388
955.054	0.04912
964.701	0.09061
974.347	0.08248
983.994	0.04959
993.64	0.03296
1003.29	0.02979
1012.93	0.03702
1022.58	0.06524
1032.23	0.11432
1041.87	0.11894
1051.52	0.06492
1061.17	0.0346
1070.81	0.03207
1080.46	0.05314
1090.11	0.12282
1099.75	0.19901
1109.4	0.20587
1119.05	0.24936
1128.69	0.13844
1138.34	0.04429
1147.99	0.02841
1157.63	0.03833
1167.28	0.15216
1176.92	0.21406
1186.57	0.06261
1196.22	0.04326
1205.86	0.04028
1215.51	0.04737
1225.16	0.07744
1234.8	0.15658
1244.45	0.32833
1254.1	0.46088
1263.74	0.28988
1273.39	0.12441
1283.04	0.12104
1292.68	0.14962
1302.33	0.12396
1311.98	0.07018
1321.62	0.0497
1331.27	0.03364
1340.92	0.02158
1350.56	0.01491
1360.21	0.0119
1369.86	0.01036
1379.5	0.01122
1389.15	0.0143
1398.79	0.01735
1408.44	0.02153
1418.09	0.0416
1427.73	0.04
1437.38	0.03276
1447.03	0.04565
1456.67	0.04376
1466.32	0.06167
1475.97	0.05277
1485.61	0.04328
1495.26	0.07692
1504.91	0.23892
1514.55	0.30853
1524.2	0.09003
1533.85	0.03855
1543.49	0.0259
1553.14	0.02608
1562.79	0.04192
1572.43	0.07371
1582.08	0.09098
1591.73	0.18213
1601.37	0.36391
1611.02	0.3302
1620.67	0.16986
1630.31	0.14483
1639.96	0.06779
1649.6	0.03854
1659.25	0.04338
1668.9	0.05478
1678.54	0.07347
1688.19	0.13172
1697.84	0.35448
1707.48	0.69357
1717.13	0.24943
1726.78	0.05046
1736.42	0.02379
1746.07	0.02002
1755.72	0.01773
1765.36	0.0134
1775.01	0.0118
1784.66	0.01123
1794.3	0.01062
1803.95	0.00907
1813.6	0.00759
1823.24	0.0066
1832.89	0.00604
1842.54	0.00643
1852.18	0.00729
1861.83	0.00804
1871.47	0.00859
1881.12	0.00911
1890.77	0.00856
1900.41	0.00714
1910.06	0.00651
1919.71	0.00682
1929.35	0.00822
1939	0.00816
1948.65	0.00661
1958.29	0.00648
1967.94	0.00651
1977.59	0.00685
1987.23	0.00736
1996.88	0.00761
2006.53	0.0088
2016.17	0.0107
2025.82	0.00993
2035.47	0.00814
2045.11	0.00831
2054.76	0.00907
2064.41	0.00928
2074.05	0.00818
2083.7	0.00646
2093.35	0.0051579
2102.99	0.0045183
2112.64	0.003819
2122.28	0.00338
2131.93	0.00324
2141.58	0.00336
2151.22	0.0035
2160.87	0.00355
2170.52	0.003788
2180.16	0.004454
2189.81	0.0052795
2199.46	0.00609
2209.1	0.00659
2218.75	0.00639
2228.4	0.005412
2238.04	0.004746
2247.69	0.004208
2257.34	0.004136
2266.98	0.0046952
2276.63	0.0050957
2286.28	0.004819
2295.92	0.004382
2305.57	0.003624
2315.22	0.00302
2324.86	0.00286
2334.51	0.00298
2344.16	0.00334
2353.8	0.00367
2363.45	0.003765
2373.09	0.00351
2382.74	0.00323
2392.39	0.00318
2402.03	0.00332
2411.68	0.003677
2421.33	0.004053
2430.97	0.004
2440.62	0.003904
2450.27	0.004257
2459.91	0.00458676
2469.56	0.00461808
2479.21	0.0047039
2488.85	0.0049247
2498.5	0.0052914
2508.15	0.00577
2517.79	0.00597
2527.44	0.00619
2537.09	0.00726
2546.73	0.00895
2556.38	0.00948
2566.03	0.00799
2575.67	0.00638
2585.32	0.00588
2594.96	0.0056
2604.61	0.00585
2614.26	0.0061
2623.9	0.00668
2633.55	0.00685
2643.2	0.0066
2652.84	0.00645
2662.49	0.00748
2672.14	0.01134
2681.78	0.01909
2691.43	0.0288
2701.08	0.03604
2710.72	0.04162
2720.37	0.05515
2730.02	0.06444
2739.66	0.05867
2749.31	0.03369
2758.96	0.02077
2768.6	0.01962
2778.25	0.02514
2787.9	0.0395
2797.54	0.05562
2807.19	0.05775
2816.84	0.05592
2826.48	0.0568
2836.13	0.04697
2845.77	0.05477
2855.42	0.03878
2865.07	0.02109
2874.71	0.01674
2884.36	0.01678
2894.01	0.01954
2903.65	0.02592
2913.3	0.03434
2922.95	0.03557
2932.59	0.03895
2942.24	0.05542
2951.89	0.05845
2961.53	0.0513
2971.18	0.04142
2980.83	0.0361
2990.47	0.0389
3000.12	0.04395
3009.77	0.06102
3019.41	0.04781
3029.06	0.03258
3038.71	0.03934
3048.35	0.03494
3058	0.02442
3067.64	0.01969
3077.29	0.02162
3086.94	0.01832
3096.58	0.01638
3106.23	0.01332
3115.88	0.00905
3125.52	0.0063
3135.17	0.004106
3144.82	0.00266
3154.46	0.00211
3164.11	0.00147
3173.76	0.00135
3183.4	0.00132
3193.05	0.00152
3202.7	0.00172
3212.34	0.00165
3221.99	0.0015
3231.64	0.00086
3241.28	0.00061
3250.93	0.0002
3260.58	0.00024
3270.22	0.00017
3279.87	0.00034
3289.52	0.00022
3299.16	0.00058
3308.81	0.00077
3318.45	0.00086
3328.1	0.00114
3337.75	0.00141
3347.39	0.0013
3357.04	0.00181
3366.69	0.00264
3376.33	0.0048402
3385.98	0.00842
3395.63	0.00926
3405.27	0.00588
3414.92	0.00283
3424.57	0.00149
3434.21	0.00121
3443.86	0.00083
3453.51	0.00099
3463.15	0.00089
3472.8	0.00095
3482.45	0.00108
3492.09	0.0009
3501.74	0.00113
3511.39	0.00089
3521.03	0.00104
3530.68	0.00103
3540.33	0.00107
3549.97	0.00145
3559.62	0.00126
3569.26	0.00127
3578.91	0.00139
3588.56	0.00134
3598.2	0.00158
3607.85	0.00149
3617.5	0.00156
3627.14	0.0016
3636.79	0.00162
3646.44	0.00168
3656.08	0.0017
3665.73	0.00188
3675.38	0.00174
3685.02	0.00209
3694.67	0.00203
3704.32	0.00194
3713.96	0.00184
3723.61	0.00189
3733.26	0.00177
3742.9	0.00192
3752.55	0.0018
3762.2	0.00188
3771.84	0.00185
3781.49	0.00196
3791.13	0.00189
3800.78	0.00202
3810.43	0.00229
3820.07	0.00211
3829.72	0.00209
3839.37	0.00219
3849.01	0.00224
3858.66	0.00214
3868.31	0.0024
3877.95	0.0026
3887.6	0.0026
3897.25	0.00235
3906.89	0.0024
3916.54	0.00234
3926.19	0.00256
3935.83	0.00248
3945.48	0.00252
3955.13	0.0025
3964.77	0.00255
3974.42	0.00261
3984.07	0.00264
3993.71	0.00266
