Infrared Spectrum: 4,4'-Dihydroxydiphenyl ether
Formula: C 12 H 10 O 3
CAS: 1965-09-9
State: gas
Instrument: HP-GC/MS/IRD
Origin: NIST Mass Spectrometry Data Center
1/CM	ABSORBANCE
550	0.0005031
562	0.000936
574	0.0012285
586	0.0009594
598	0.0006357
610	0.0004329
622	0.0003588
634	0.0005343
646	0.0003198
658	0.0003783
670	0.0003276
682	0.0004407
694	0.0005577
706	0.0004251
718	0.0003627
730	0.0003822
742	0.0003783
754	0.0005538
766	0.0007215
778	0.0016926
790	0.0067548
802	0.0028548
814	0.0034788
826	0.0058578
838	0.0048282
850	0.002652
862	0.0015171
874	0.0025584
886	0.0009984
898	0.000351
910	0.0003237
922	0.0002457
934	0.0002379
946	0.0001287
958	0.0001638
970	8.97e-05
982	8.97e-05
994	0.0001872
1006	0.0005538
1018	0.0003315
1030	0.0002223
1042	0.0004095
1054	0.0004875
1066	0.0006201
1078	0.0013143
1090	0.0025506
1102	0.0019929
1114	0.001638
1126	0.0018018
1138	0.0024882
1150	0.0045084
1162	0.0133575
1174	0.0264459
1186	0.0149292
1198	0.0100308
1210	0.0126945
1222	0.0237978
1234	0.0242658
1246	0.0099021
1258	0.0042627
1270	0.0032214
1282	0.0027378
1294	0.0022113
1306	0.0024804
1318	0.0041067
1330	0.0029952
1342	0.0016965
1354	0.0009672
1366	0.0006591
1378	0.0005031
1390	0.0005187
1402	0.0007527
1414	0.0015639
1426	0.0031044
1438	0.0033189
1450	0.0014625
1462	0.0011973
1474	0.002418
1486	0.011856
1498	0.039
1510	0.0184119
1522	0.0054366
1534	0.0023361
1546	0.0009906
1558	0.0006825
1570	0.0006357
1582	0.000702
1594	0.000858
1606	0.0009672
1618	0.0008697
1630	0.0007332
1642	0.0005499
1654	0.0003978
1666	0.0003783
1678	0.0003549
1690	0.0003432
1702	0.0002535
1714	0.0003549
1726	0.000429
1738	0.0003705
1750	0.000273
1762	0.0002457
1774	0.0002457
1786	0.0002028
1798	0.0002184
1810	0.0002262
1822	0.0002652
1834	0.0003939
1846	0.0004524
1858	0.0005421
1870	0.0005109
1882	0.0004095
1894	0.000312
1906	0.0002535
1918	0.0002379
1930	0.0002496
1942	0.0002808
1954	0.0003198
1966	0.0003744
1978	0.0003588
1990	0.0002808
2002	0.0003471
2014	0.0003588
2026	0.0003315
2038	0.0003549
2050	0.0003666
2062	0.0003705
2074	0.000351
2086	0.0002925
2098	0.000195
2110	0.0001989
2122	0.0001755
2134	0.0001287
2146	0.0001014
2158	0.000117
2170	0.0001131
2182	0.0001209
2194	8.58e-05
2206	9.36e-05
2218	0.0001092
2230	8.19e-05
2242	0.000117
2254	0.0001716
2266	0.0001521
2278	9.36e-05
2290	0.000117
2302	9.75e-05
2314	0.0001248
2326	0.0001131
2338	0.0001599
2350	0.0001677
2362	0.0001404
2374	0.0002184
2386	0.0003198
2398	0.0003549
2410	0.0004173
2422	0.0004797
2434	0.0003666
2446	0.0003042
2458	0.0003354
2470	0.0002613
2482	0.0002847
2494	0.000234
2506	0.0002223
2518	0.0001521
2530	8.19e-05
2542	0.0001365
2554	0.0001248
2566	0.0001209
2578	0.0001521
2590	0.000117
2602	9.75e-05
2614	0.0001014
2626	7.8e-05
2638	0.0001404
2650	0.0001092
2662	0.0001014
2674	0.0001677
2686	0.0001365
2698	0.0001131
2710	9.75e-05
2722	7.8e-05
2734	5.07e-05
2746	0.0001053
2758	0.000117
2770	0.0001092
2782	0.0001365
2794	5.07e-05
2806	0
2818	7.8e-05
2830	7.41e-05
2842	5.85e-05
2854	9.75e-05
2866	0.0001287
2878	9.75e-05
2890	8.58e-05
2902	0.000117
2914	0.0001092
2926	0.0001521
2938	0.000117
2950	0.0001014
2962	0.0001365
2974	0.0001911
2986	0.0002496
2998	0.0003939
3010	0.0008151
3022	0.00156
3034	0.0017004
3046	0.0017199
3058	0.000975
3070	0.0007839
3082	0.0007215
3094	0.0004953
3106	0.0004095
3118	0.0003432
3130	0.0002652
3142	0.0001521
3154	7.41e-05
3166	0.0001872
3178	0.0001677
3190	0.0001326
3202	0.0001287
3214	0.0001482
3226	0.0001794
3238	0.0001677
3250	0.0001677
3262	0.0002262
3274	0.000273
3286	0.0001209
3298	0.0002028
3310	0.000234
3322	0.0002067
3334	0.0002184
3346	0.000273
3358	0.000234
3370	0.0003276
3382	0.0003081
3394	0.0003549
3406	0.0003627
3418	0.0003939
3430	0.0004173
3442	0.00039
3454	0.0004524
3466	0.000351
3478	0.00039
3490	0.0004095
3502	0.0004056
3514	0.0004407
3526	0.0003627
3538	0.0003822
3550	0.000351
3562	0.0004056
3574	0.0003549
3586	0.0003822
3598	0.0004953
3610	0.0005694
3622	0.0007605
3634	0.0015288
3646	0.0049842
3658	0.0086385
3670	0.0020787
3682	0.0007293
3694	0.0005772
3706	0.0004875
3718	0.0003705
3730	0.0002964
3742	0.0003627
3754	0.0004017
3766	0.0003939
3778	0.000468
3790	0.0004524
3802	0.0004407
3814	0.0003666
3826	0.0004875
3838	0.0004368
