Infrared Spectrum: 3-Bromo-5-chloro-2-hydroxybenzaldehyde
Formula: C 7 H 4 Br Cl O 2
CAS: 19652-32-5
State: gas
Origin: EPA-IR VAPOR PHASE LIBRARY
1/CM	ABSORBANCE
549.8	0.01497
559.445	0.02296
569.09	0.01893
578.734	0.01093
588.379	0.01149
598.024	0.01322
607.669	0.01366
617.313	0.01015
626.958	0.008
636.603	0.00957
646.248	0.01255
655.893	0.01696
665.537	0.0202
675.182	0.03694
684.827	0.11793
694.472	0.18293
704.116	0.12318
713.761	0.08344
723.406	0.11136
733.051	0.15686
742.695	0.14099
752.34	0.07666
761.985	0.02968
771.63	0.01037
781.275	0.00716
790.919	0.00507
800.564	0.00368
810.209	0.0043
819.854	0.00735
829.498	0.01917
839.143	0.0184
848.788	0.00971
858.433	0.0201
868.078	0.05311
877.722	0.03335
887.367	0.01463
897.012	0.01501
906.657	0.01383
916.301	0.0237
925.946	0.05165
935.591	0.02212
945.236	0.0033
954.88	0.00223
964.525	0.00196
974.17	0.0019
983.815	0.0027
993.46	0.00335
1003.1	0.00398
1012.75	0.00276
1022.39	0.00238
1032.04	0.0025
1041.68	0.00347
1051.33	0.00404
1060.97	0.00476
1070.62	0.00571
1080.26	0.0099
1089.91	0.01887
1099.55	0.0301
1109.2	0.03099
1118.84	0.03029
1128.49	0.03855
1138.13	0.0475
1147.78	0.08868
1157.42	0.1788
1167.07	0.15533
1176.71	0.06302
1186.36	0.11058
1196	0.22889
1205.64	0.14876
1215.29	0.05858
1224.93	0.03732
1234.58	0.03895
1244.22	0.04697
1253.87	0.06628
1263.51	0.11755
1273.16	0.21648
1282.8	0.29005
1292.45	0.14085
1302.09	0.02987
1311.74	0.04044
1321.38	0.0663
1331.03	0.06598
1340.67	0.05095
1350.32	0.05607
1359.96	0.08454
1369.61	0.09329
1379.25	0.05716
1388.9	0.05428
1398.54	0.0839
1408.18	0.17472
1417.83	0.23978
1427.47	0.20348
1437.12	0.18718
1446.76	0.23657
1456.41	0.18064
1466.05	0.07726
1475.7	0.03583
1485.34	0.02325
1494.99	0.01522
1504.63	0.01171
1514.28	0.0093
1523.92	0.0079
1533.57	0.00822
1543.21	0.00976
1552.86	0.01394
1562.5	0.01875
1572.15	0.01778
1581.79	0.0198
1591.44	0.02974
1601.08	0.03874
1610.73	0.03472
1620.37	0.02751
1630.01	0.02395
1639.66	0.02555
1649.3	0.04049
1658.95	0.07653
1668.59	0.21296
1678.24	0.58155
1687.88	0.38837
1697.53	0.07989
1707.17	0.07445
1716.82	0.055
1726.46	0.03057
1736.11	0.02633
1745.75	0.01958
1755.4	0.01732
1765.04	0.01463
1774.69	0.01133
1784.33	0.01041
1793.98	0.00745
1803.62	0.00436
1813.27	0.00301
1822.91	0.00318
1832.55	0.0037
1842.2	0.00516
1851.84	0.00762
1861.49	0.00648
1871.13	0.0038
1880.78	0.00315
1890.42	0.00261
1900.07	0.00195
1909.71	0.00158
1919.36	0.00167
1929	0.00191
1938.65	0.002
1948.29	0.00151
1957.94	0.00159
1967.58	0.00205
1977.23	0.00169
1986.87	0.00149
1996.52	0.00176
2006.16	0.00162
2015.81	0.00162
2025.45	0.00177
2035.1	0.00126
2044.74	0.00117
2054.38	0.00115
2064.03	0.00112
2073.67	0.00121
2083.32	0.00162
2092.96	0.00187
2102.61	0.00224
2112.25	0.0027
2121.9	0.00244
2131.54	0.00143
2141.19	0.00114
2150.83	0.0012
2160.48	0.0009851
2170.12	0.00103
2179.77	0.0009614
2189.41	0.00108
2199.06	0.00142
2208.7	0.00157
2218.35	0.0012
2227.99	0.0009779
2237.64	0.00113
2247.28	0.00118
2256.92	0.0011
2266.57	0.00154
2276.21	0.00177
2285.86	0.00223
2295.5	0.0021
2305.15	0.00157
2314.79	0.00157
2324.44	0.00148
2334.08	0.00179
2343.73	0.00203
2353.37	0.00176
2363.02	0.00149
2372.66	0.00148
2382.31	0.00147
2391.95	0.00173
2401.6	0.00174
2411.24	0.0019
2420.89	0.00218
2430.53	0.00235
2440.18	0.00231
2449.82	0.0025
2459.47	0.00248
2469.11	0.00285
2478.75	0.00353
2488.4	0.0035
2498.04	0.0028
2507.69	0.00301
2517.33	0.00286
2526.98	0.00326
2536.62	0.00387
2546.27	0.00516
2555.91	0.00611
2565.56	0.00603
2575.2	0.00547
2584.85	0.00523
2594.49	0.00476
2604.14	0.00486
2613.78	0.00463
2623.43	0.00465
2633.07	0.00441
2642.72	0.00474
2652.36	0.00523
2662.01	0.00533
2671.65	0.00596
2681.29	0.00693
2690.94	0.00733
2700.58	0.00827
2710.23	0.01024
2719.87	0.0152
2729.52	0.02372
2739.16	0.02432
2748.81	0.01882
2758.45	0.01662
2768.1	0.0149
2777.74	0.01306
2787.39	0.01288
2797.03	0.01495
2806.68	0.01744
2816.32	0.02237
2825.97	0.03573
2835.61	0.08169
2845.26	0.13332
2854.9	0.06581
2864.55	0.02488
2874.19	0.01999
2883.84	0.01384
2893.48	0.01039
2903.12	0.00893
2912.77	0.00837
2922.41	0.0081
2932.06	0.00778
2941.7	0.00844
2951.35	0.00904
2960.99	0.00996
2970.64	0.01006
2980.28	0.00995
2989.93	0.0104
2999.57	0.01085
3009.22	0.01082
3018.86	0.0111
3028.51	0.01049
3038.15	0.0117
3047.8	0.01266
3057.44	0.01368
3067.09	0.01432
3076.73	0.01622
3086.38	0.01885
3096.02	0.02018
3105.67	0.02203
3115.31	0.02411
3124.95	0.02677
3134.6	0.02827
3144.24	0.02996
3153.89	0.03264
3163.53	0.0346
3173.18	0.03642
3182.82	0.038
3192.47	0.03848
3202.11	0.03775
3211.76	0.03652
3221.4	0.03472
3231.05	0.03279
3240.69	0.0311
3250.34	0.02995
3259.98	0.03114
3269.63	0.03189
3279.27	0.03216
3288.92	0.03202
3298.56	0.03047
3308.21	0.02896
3317.85	0.02676
3327.49	0.02605
3337.14	0.02711
3346.78	0.02884
3356.43	0.02601
3366.07	0.02188
3375.72	0.01952
3385.36	0.0181
3395.01	0.01769
3404.65	0.01652
3414.3	0.01478
3423.94	0.01346
3433.59	0.01283
3443.23	0.01195
3452.88	0.01192
3462.52	0.01131
3472.17	0.01045
3481.81	0.0095
3491.46	0.0091
3501.1	0.00835
3510.75	0.00784
3520.39	0.0081
3530.04	0.01124
3539.68	0.0265
3549.32	0.02213
3558.97	0.01056
3568.61	0.00593
3578.26	0.00439
3587.9	0.00363
3597.55	0.00296
3607.19	0.00238
3616.84	0.00274
3626.48	0.00236
3636.13	0.00236
3645.77	0.00167
3655.42	0.00194
3665.06	0.00172
3674.71	0.00176
3684.35	0.00123
3694	0.00139
3703.64	0.00111
3713.29	0.00105
3722.93	0.00125
3732.58	0.0009076
3742.22	0.0009544
3751.86	0.00123
3761.51	0.00109
3771.15	0.0008896
3780.8	0.0008096
3790.44	0.00104
3800.09	0.0009163
3809.73	0.00103
3819.38	0.0006618
3829.02	0.0007026
3838.67	0.0005772
3848.31	0.0006218
3857.96	0.0005099
3867.6	0.00103
3877.25	0.000918
3886.89	0.00105
3896.54	0.0008734
3906.18	0.00111
3915.83	0.000893
3925.47	0.00122
3935.12	0.00102
3944.76	0.001
3954.41	0.0013
3964.05	0.00101
3973.69	0.00103
3983.34	0.00182
3992.98	0.00206
