Infrared Spectrum: Oxadiazon
Formula: C 15 H 18 Cl 2 N 2 O 3
CAS: 19666-30-9
State: gas
Instrument: HP-GC/MS/IRD
Origin: NIST Mass Spectrometry Data Center
1/CM	ABSORBANCE
550	0.0014148
562	0.0001703
574	0.001048
586	0.0034584
598	0.0032095
610	0.0022794
622	0.0016637
634	0.0009563
646	0.0014148
658	0.0051745
670	0.0125891
682	0.0056985
694	0.0029082
706	0.0039955
718	0.0040741
730	0.0047291
742	0.0134406
754	0.0274445
766	0.0092748
778	0.0039562
790	0.0025938
802	0.0032226
814	0.0068382
826	0.0095237
838	0.0117376
850	0.0053579
862	0.0057771
874	0.0146458
886	0.0210255
898	0.017161
910	0.0149602
922	0.036549
934	0.0413829
946	0.0257808
958	0.0165453
970	0.0066286
982	0.004323
994	0.0044802
1006	0.0082137
1018	0.0277851
1030	0.0429418
1042	0.0186413
1054	0.0084888
1066	0.0082792
1078	0.0146065
1090	0.0375577
1102	0.0397847
1114	0.0633123
1126	0.0484307
1138	0.0268157
1150	0.0149209
1162	0.0130214
1174	0.0206718
1186	0.0368896
1198	0.0296977
1210	0.0206063
1222	0.0273659
1234	0.0513389
1246	0.0679497
1258	0.0345054
1270	0.0246018
1282	0.0156152
1294	0.0111481
1306	0.0151043
1318	0.0355403
1330	0.0434527
1342	0.0244577
1354	0.0182614
1366	0.0179863
1378	0.0263703
1390	0.0337849
1402	0.0392607
1414	0.0547973
1426	0.028558
1438	0.0165322
1450	0.0224927
1462	0.0428108
1474	0.0847308
1486	0.118123
1498	0.0456666
1510	0.0179994
1522	0.0107813
1534	0.0081482
1546	0.0081351
1558	0.0098119
1570	0.0102573
1582	0.013362
1594	0.0196238
1606	0.0228464
1618	0.0415663
1630	0.015065
1642	0.0063535
1654	0.0041396
1666	0.0030654
1678	0.0025152
1690	0.0024759
1702	0.0026331
1714	0.0031047
1726	0.0038776
1738	0.0049649
1750	0.0076635
1762	0.0119865
1774	0.0194797
1786	0.0348329
1798	0.0713164
1810	0.12424
1822	0.125
1834	0.0809056
1846	0.0435706
1858	0.0299728
1870	0.0194142
1882	0.0101263
1894	0.0061832
1906	0.0051352
1918	0.0044409
1930	0.0033929
1942	0.0030916
1954	0.0029868
1966	0.0022794
1978	0.0016899
1990	0.0014541
2002	0.0013493
2014	0.0011921
2026	0.0010218
2038	0.0009432
2050	0.0009432
2062	0.0008384
2074	0.0007074
2086	0.0005764
2098	0.000524
2110	0.0006288
2122	0.000655
2134	0.0006026
2146	0.0005764
2158	0.0006026
2170	0.0005109
2182	0.0004061
2194	0.0004061
2206	0.0004454
2218	0.0004585
2230	0.0004716
2242	0.0006026
2254	0.0007074
2266	0.0006681
2278	0.0004585
2290	0.0003537
2302	0.0003537
2314	0.0003275
2326	0.0002489
2338	0.0001572
2350	0.0001179
2362	0.0001179
2374	9.17e-05
2386	9.17e-05
2398	0.0001048
2410	9.17e-05
2422	0.0001441
2434	0.000262
2446	0.0003275
2458	0.0003537
2470	0.0004192
2482	0.0004978
2494	0.0006157
2506	0.000655
2518	0.0005371
2530	0.000393
2542	0.0003799
2554	0.0003668
2566	0.0003799
2578	0.0004323
2590	0.0004454
2602	0.000393
2614	0.0003668
2626	0.0005502
2638	0.0006812
2650	0.0008384
2662	0.000655
2674	0.0004323
2686	0.0003668
2698	0.0003668
2710	0.0004192
2722	0.0005633
2734	0.0008253
2746	0.0009563
2758	0.0008384
2770	0.0008122
2782	0.0009301
2794	0.0011004
2806	0.0013886
2818	0.0016113
2830	0.001965
2842	0.0021746
2854	0.0028558
2866	0.0052269
2878	0.0103097
2890	0.0119341
2902	0.0115018
2914	0.0165715
2926	0.019126
2938	0.024759
2950	0.0243922
2962	0.0238289
2974	0.0480639
2986	0.0759276
2998	0.0264751
3010	0.0090652
3022	0.0039431
3034	0.0021877
3046	0.0014803
3058	0.0010742
3070	0.0010087
3082	0.001179
3094	0.0011528
3106	0.0009956
3118	0.0008646
3130	0.0008253
3142	0.0007467
3154	0.000786
3166	0.0008122
3178	0.0008515
3190	0.0008646
3202	0.0008646
3214	0.0008122
3226	0.0007729
3238	0.0006288
3250	0.0004192
3262	0.0002882
3274	0.0001965
3286	0.000131
3298	0.0001572
3310	9.17e-05
3322	7.86e-05
3334	0.0001441
3346	0.000131
3358	9.17e-05
3370	9.17e-05
3382	0.0001048
3394	6.55e-05
3406	0.0001703
3418	0.0001965
3430	0.0002096
3442	9.17e-05
3454	7.86e-05
3466	0.0001048
3478	0.0001179
3490	7.86e-05
3502	0.000131
3514	0.0001572
3526	0.0001834
3538	0.0002096
3550	0.000262
3562	0.0003144
3574	0.0005502
3586	0.0007074
3598	0.000917
3610	0.0010873
3622	0.0011528
3634	0.0010742
3646	0.0008646
3658	0.0006419
3670	0.0005764
3682	0.0004978
3694	0.000393
3706	0.0003668
3718	0.0003799
3730	0.000393
3742	0.0003144
3754	0.0003799
3766	0.0003013
3778	0.0004454
3790	0.0004061
3802	0.0003799
3814	0.0004585
3826	0.0003275
3838	0.0004585
