Infrared Spectrum: 3-Methyl-1-phenyl-1-pentyn-3-ol
Formula: C 12 H 14 O
CAS: 1966-65-0
State: gas
Instrument: HP-GC/MS/IRD
Origin: NIST Mass Spectrometry Data Center
1/CM	ABSORBANCE
550	0.001576
562	0.001544
574	0.0013264
586	0.0008096
598	0.000408
610	0.000384
622	0.0003568
634	0.0003472
646	0.000624
658	0.001224
670	0.002304
682	0.0042336
694	0.00464
706	0.0029248
718	0.001464
730	0.002112
742	0.0052
754	0.0078016
766	0.0047664
778	0.0014544
790	0.0005216
802	0.0005296
814	0.0004208
826	9.12e-05
838	7.52e-05
850	0.0002096
862	0.0002464
874	0.0004768
886	0.0013168
898	0.003296
910	0.0054544
922	0.0060704
934	0.0033248
946	0.0012944
958	0.0008608
970	0.0012144
982	0.00256
994	0.0041248
1006	0.004136
1018	0.0038416
1030	0.0037216
1042	0.003512
1054	0.0030192
1066	0.0020112
1078	0.0017248
1090	0.0021024
1102	0.0029056
1114	0.0041664
1126	0.0057456
1138	0.0064384
1150	0.0068256
1162	0.0071488
1174	0.004456
1186	0.0024688
1198	0.0017952
1210	0.0017376
1222	0.0018656
1234	0.0023344
1246	0.0031008
1258	0.0035936
1270	0.0037248
1282	0.0036336
1294	0.0041136
1306	0.0053936
1318	0.0069344
1330	0.0081808
1342	0.0093696
1354	0.0073984
1366	0.0049232
1378	0.0049056
1390	0.0031728
1402	0.001512
1414	0.0011456
1426	0.0014304
1438	0.0021696
1450	0.0026608
1462	0.0026784
1474	0.0028608
1486	0.0059296
1498	0.0047968
1510	0.0018208
1522	0.0007296
1534	0.0004928
1546	0.000368
1558	0.0004448
1570	0.0006768
1582	0.0012448
1594	0.003072
1606	0.0020832
1618	0.0003008
1630	0.000128
1642	9.92e-05
1654	0.000248
1666	0.00036
1678	0.000112
1690	3.84e-05
1702	3.36e-05
1714	7.04e-05
1726	0.0001936
1738	0.0002352
1750	0.0001984
1762	0.0001216
1774	0.0001344
1786	0.000272
1798	0.0004096
1810	0.0002224
1822	0.0002112
1834	0.000104
1846	9.76e-05
1858	0.0001824
1870	0.000288
1882	0.0004528
1894	0.0003184
1906	9.6e-05
1918	0.0001888
1930	0.0003104
1942	0.0004096
1954	0.000536
1966	0.0002448
1978	3.2e-05
1990	2.88e-05
2002	8e-06
2014	6.4e-06
2026	1.44e-05
2038	3.04e-05
2050	4.48e-05
2062	3.52e-05
2074	5.92e-05
2086	3.2e-05
2098	5.12e-05
2110	3.84e-05
2122	4.64e-05
2134	6.08e-05
2146	8.64e-05
2158	0.0001024
2170	0.0001104
2182	0.0001408
2194	0.0001952
2206	0.0002912
2218	0.0004464
2230	0.000344
2242	0.0001984
2254	0.0001376
2266	0.0001376
2278	0.0001504
2290	7.68e-05
2302	9.76e-05
2314	0.0001888
2326	0.0001344
2338	0.0001408
2350	0.0001152
2362	9.44e-05
2374	0.0001024
2386	0.0001008
2398	0.0001072
2410	0.0001008
2422	8e-05
2434	8.64e-05
2446	7.52e-05
2458	8.64e-05
2470	8.64e-05
2482	6.88e-05
2494	4.8e-05
2506	9.92e-05
2518	6.56e-05
2530	3.84e-05
2542	6.08e-05
2554	5.44e-05
2566	8e-05
2578	8.8e-05
2590	0.0001216
2602	0.0001264
2614	0.000104
2626	0.0001056
2638	9.44e-05
2650	9.6e-05
2662	0.0001024
2674	8.16e-05
2686	9.28e-05
2698	0.000112
2710	0.0001104
2722	0.00016
2734	0.00024
2746	0.0002704
2758	0.0003056
2770	0.0002864
2782	0.0002768
2794	0.000328
2806	0.0003952
2818	0.0004976
2830	0.000656
2842	0.0009456
2854	0.0014816
2866	0.0021552
2878	0.0030384
2890	0.0039696
2902	0.0034528
2914	0.0036272
2926	0.0064368
2938	0.0100832
2950	0.008568
2962	0.006464
2974	0.0123552
2986	0.0153504
2998	0.0074576
3010	0.002784
3022	0.0022512
3034	0.0031904
3046	0.0029344
3058	0.0038688
3070	0.0060608
3082	0.0042464
3094	0.0035248
3106	0.0022912
3118	0.0009664
3130	0.00052
3142	0.0004448
3154	0.0003904
3166	0.0003008
3178	0.000256
3190	0.0001968
3202	0.0002064
3214	0.0001984
3226	0.0001936
3238	0.0001808
3250	7.68e-05
3262	0.0001248
3274	6.4e-05
3286	6.88e-05
3298	9.44e-05
3310	6.56e-05
3322	0.0001168
3334	0.00012
3346	0.0001056
3358	0.0001088
3370	0.0001088
3382	0.00012
3394	0.0001264
3406	6.08e-05
3418	8.16e-05
3430	9.28e-05
3442	8e-05
3454	8.32e-05
3466	0.0001152
3478	0.0001568
3490	9.6e-05
3502	0.0001056
3514	0.0001216
3526	9.6e-05
3538	0.0001008
3550	6.72e-05
3562	6.88e-05
3574	3.84e-05
3586	9.44e-05
3598	0.000112
3610	0.0002128
3622	0.0007776
3634	0.0022496
3646	0.0026752
3658	0.0010288
3670	0.0002768
3682	0.0001424
3694	0.0001296
3706	0.0001088
3718	9.6e-05
3730	6.72e-05
3742	0.0001504
3754	8.48e-05
3766	8.16e-05
3778	6.08e-05
3790	8.16e-05
3802	5.6e-05
3814	5.12e-05
3826	3.68e-05
3838	6.4e-05
