Infrared Spectrum: Ethyl pent-4-enoate
Formula: C 7 H 12 O 2
CAS: 1968-40-7
State: gas
Origin: EPA-IR VAPOR PHASE LIBRARY
1/CM	ABSORBANCE
549.8	0.003414
559.445	0.003824
569.09	0.004534
578.734	0.004904
588.379	0.005944
598.024	0.005644
607.669	0.005874
617.313	0.005954
626.958	0.007114
636.603	0.008254
646.248	0.007344
655.893	0.006224
665.537	0.005374
675.182	0.005004
684.827	0.004654
694.472	0.003844
704.116	0.003804
713.761	0.003334
723.406	0.002844
733.051	0.002504
742.695	0.002824
752.34	0.002814
761.985	0.003124
771.63	0.004004
781.275	0.004844
790.919	0.005394
800.564	0.005704
810.209	0.005834
819.854	0.006104
829.498	0.006974
839.143	0.009774
848.788	0.012344
858.433	0.012604
868.078	0.011144
877.722	0.010564
887.367	0.012834
897.012	0.017534
906.657	0.027384
916.301	0.037624
925.946	0.035234
935.591	0.025364
945.236	0.020074
954.88	0.016594
964.525	0.015304
974.17	0.016214
983.815	0.020564
993.46	0.023404
1003.1	0.024584
1012.75	0.028864
1022.39	0.038334
1032.04	0.052114
1041.68	0.059914
1051.33	0.049284
1060.97	0.033534
1070.62	0.027594
1080.26	0.030664
1089.91	0.040584
1099.55	0.051604
1109.2	0.055404
1118.84	0.056154
1128.49	0.061404
1138.13	0.075704
1147.78	0.107164
1157.42	0.152554
1167.07	0.186814
1176.71	0.179434
1186.36	0.141124
1196	0.110054
1205.64	0.093554
1215.29	0.088284
1224.93	0.093774
1234.58	0.104064
1244.22	0.105314
1253.87	0.090854
1263.51	0.073674
1273.16	0.063304
1282.8	0.054974
1292.45	0.046194
1302.09	0.041334
1311.74	0.035154
1321.38	0.030204
1331.03	0.032604
1340.67	0.040854
1350.32	0.041114
1359.96	0.036664
1369.61	0.043674
1379.25	0.040924
1388.9	0.023304
1398.54	0.018504
1408.18	0.018284
1417.83	0.020484
1427.47	0.024664
1437.12	0.028664
1446.76	0.028484
1456.41	0.024294
1466.05	0.021114
1475.7	0.017324
1485.34	0.011794
1494.99	0.008074
1504.63	0.005814
1514.28	0.004784
1523.92	0.004394
1533.57	0.004124
1543.21	0.003934
1552.86	0.003744
1562.5	0.003674
1572.15	0.003504
1581.79	0.003554
1591.44	0.003894
1601.08	0.003984
1610.73	0.004984
1620.37	0.006994
1630.01	0.011134
1639.66	0.015834
1649.3	0.013934
1658.95	0.007864
1668.59	0.006504
1678.24	0.006754
1687.88	0.008334
1697.53	0.011444
1707.17	0.016734
1716.82	0.026464
1726.46	0.050314
1736.11	0.106734
1745.75	0.186274
1755.4	0.219044
1765.04	0.168204
1774.69	0.078894
1784.33	0.031774
1793.98	0.016164
1803.62	0.010374
1813.27	0.007864
1822.91	0.007234
1832.55	0.007394
1842.2	0.006694
1851.84	0.005024
1861.49	0.003904
1871.13	0.003444
1880.78	0.003294
1890.42	0.003194
1900.07	0.003094
1909.71	0.002734
1919.36	0.002534
1929	0.002514
1938.65	0.002474
1948.29	0.002484
1957.94	0.002564
1967.58	0.002634
1977.23	0.002674
1986.87	0.002554
1996.52	0.002364
2006.16	0.002484
2015.81	0.002494
2025.45	0.002494
2035.1	0.002324
2044.74	0.002114
2054.38	0.001984
2064.03	0.001844
2073.67	0.001824
2083.32	0.001914
2092.96	0.001814
2102.61	0.001604
2112.25	0.001404
2121.9	0.001374
2131.54	0.001334
2141.19	0.001234
2150.83	0.0010616
2160.48	0.0011105
2170.12	0.0010372
2179.77	0.0008549
2189.41	0.0009894
2199.06	0.001054
2208.7	0.0009511
2218.35	0.0010094
2227.99	0.0009585
2237.64	0.0009561
2247.28	0.0009163
2256.92	0.0010418
2266.57	0.0010496
2276.21	0.0010939
2285.86	0.001072
2295.5	0.0011323
2305.15	0.0011312
2314.79	0.0011449
2324.44	0.0011042
2334.08	0.0010306
2343.73	0.0009571
2353.37	0.001115
2363.02	0.0009617
2372.66	0.0009545
2382.31	0.0009491
2391.95	0.0009958
2401.6	0.0010246
2411.24	0.0008345
2420.89	0.0009621
2430.53	0.0009779
2440.18	0.0009797
2449.82	0.000796
2459.47	0.0008983
2469.11	0.0007532
2478.75	0.000801
2488.4	0.0006522
2498.04	0.0005706
2507.69	0.0005148
2517.33	0.0004301
2526.98	0.0004732
2536.62	0.0005851
2546.27	0.0007032
2555.91	0.000614
2565.56	0.000496
2575.2	0.0004817
2584.85	0.0005827
2594.49	0.000568
2604.14	0.0006787
2613.78	0.0006765
2623.43	0.0007034
2633.07	0.000584
2642.72	0.0004892
2652.36	0.0006971
2662.01	0.000636
2671.65	0.0007332
2681.29	0.0006974
2690.94	0.0007337
2700.58	0.0007251
2710.23	0.0008994
2719.87	0.0010441
2729.52	0.0011005
2739.16	0.001049
2748.81	0.001234
2758.45	0.001514
2768.1	0.001674
2777.74	0.001914
2787.39	0.002034
2797.03	0.002014
2806.68	0.002434
2816.32	0.003054
2825.97	0.003784
2835.61	0.005224
2845.26	0.006864
2854.9	0.008834
2864.55	0.010884
2874.19	0.012994
2883.84	0.015514
2893.48	0.017414
2903.12	0.021494
2912.77	0.029144
2922.41	0.037554
2932.06	0.045534
2941.7	0.051974
2951.35	0.050304
2960.99	0.046664
2970.64	0.053954
2980.28	0.071014
2989.93	0.072594
2999.57	0.054314
3009.22	0.038884
3018.86	0.025904
3028.51	0.015944
3038.15	0.011004
3047.8	0.009304
3057.44	0.009154
3067.09	0.011374
3076.73	0.015624
3086.38	0.021594
3096.02	0.018364
3105.67	0.008374
3115.31	0.004574
3124.95	0.003404
3134.6	0.002814
3144.24	0.002424
3153.89	0.001894
3163.53	0.001844
3173.18	0.001374
3182.82	0.001264
3192.47	0.0010308
3202.11	0.0009034
3211.76	0.0008428
3221.4	0.0007102
3231.05	0.0004725
3240.69	0.000594
3250.34	0.000479
3259.98	0.0001876
3269.63	0.0004311
3279.27	0.0003402
3288.92	0.0002632
3298.56	0.00023588
3308.21	0.0003363
3317.85	0.00024451
3327.49	0.0003999
3337.14	0.0003669
3346.78	0.0004015
3356.43	0.00028389
3366.07	0.00031452
3375.72	0.0004497
3385.36	0.000421
3395.01	0.00027602
3404.65	0.0004276
3414.3	0.00030578
3423.94	0.0004051
3433.59	0.0007121
3443.23	0.000674
3452.88	0.0008165
3462.52	0.0011148
3472.17	0.001744
3481.81	0.002354
3491.46	0.002514
3501.1	0.002004
3510.75	0.001264
3520.39	0.0009698
3530.04	0.000727
3539.68	0.0005885
3549.32	0.00025046
3558.97	0.00031125
3568.61	0.0004326
3578.26	8.9e-05
3587.9	9.6e-05
3597.55	0.00031249
3607.19	0.00021441
3616.84	0.0003756
3626.48	0.0001667
3636.13	0.00023497
3645.77	0.00026718
3655.42	0.00025331
3665.06	0.000199
3674.71	0.00030557
3684.35	0.00026447
3694	0.000153
3703.64	0.0003654
3713.29	0.0003695
3722.93	0.0004255
3732.58	0.0004686
3742.22	0.000332
3751.86	0.0003891
3761.51	0.0005372
3771.15	0.0003303
3780.8	0.000232904
3790.44	0.000356
3800.09	0.0003454
3809.73	0.0003339
3819.38	0.0005121
3829.02	0.0003322
3838.67	0.0005008
3848.31	0.000534
3857.96	0.000518
3867.6	0.0003864
3877.25	0.0003804
3886.89	0.0004207
3896.54	0.000397
3906.18	0.0005071
3915.83	0.0004671
3925.47	0.0005323
3935.12	0.0005099
3944.76	0.0004303
3954.41	0.0005337
3964.05	0.0004012
3973.69	0.0005583
3983.34	0.0006934
3992.98	0.0004856
