Infrared Spectrum: RUBICENE
Formula: C26 H14
CAS: 197-61-5
State: SOLID (KBr PELLET)
Melting point: 306 C
Class: COBLENTZ
Instrument: Not specified, most likely a prism, grating, or hybrid spectrometer.
Sampling: TRANSMISSION
Resolution: 4
Origin: UNION CARBIDE CORPORATION (CARBON PRODUCTS DIVISION)
MICROMETERS	TRANSMITTANCE
2.027	0.109
2.06021	0.109
2.09343	0.109
2.12664	0.109
2.15986	0.11
2.19307	0.11
2.22629	0.11
2.2595	0.111
2.29271	0.111
2.32593	0.114
2.35914	0.114
2.39236	0.115
2.42557	0.115
2.45878	0.117
2.492	0.121
2.52521	0.121
2.55843	0.121
2.59164	0.121
2.62486	0.122
2.65807	0.123
2.69128	0.125
2.7245	0.125
2.75771	0.126
2.79093	0.127
2.82414	0.13
2.85735	0.133
2.89057	0.137
2.92378	0.139
2.957	0.142
2.99021	0.145
3.02343	0.149
3.05664	0.151
3.08985	0.155
3.12307	0.158
3.15628	0.162
3.1895	0.165
3.22271	0.169
3.25592	0.169
3.28914	0.167
3.32235	0.167
3.35557	0.17
3.38878	0.17
3.422	0.173
3.45521	0.174
3.48842	0.177
3.52164	0.181
3.55485	0.189
3.58807	0.191
3.62128	0.195
3.65449	0.198
3.68771	0.201
3.72092	0.205
3.75414	0.209
3.78735	0.21
3.82057	0.213
3.85378	0.215
3.88699	0.218
3.92021	0.221
3.95342	0.226
3.98664	0.229
4.01985	0.229
4.05306	0.23
4.08628	0.237
4.11949	0.238
4.15271	0.242
4.18592	0.246
4.21914	0.249
4.25235	0.247
4.28556	0.249
4.31878	0.249
4.35199	0.251
4.38521	0.256
4.41842	0.263
4.45163	0.266
4.48485	0.27
4.51806	0.272
4.55128	0.276
4.58449	0.278
4.61771	0.28
4.65092	0.28
4.68413	0.282
4.71735	0.284
4.75056	0.29
4.78378	0.291
4.81699	0.292
4.8502	0.295
4.88342	0.299
4.91663	0.3
4.94985	0.304
4.98306	0.307
5.01628	0.311
5.04949	0.312
5.0827	0.319
5.11592	0.322
5.14913	0.324
5.18235	0.324
5.21556	0.326
5.24878	0.327
5.28199	0.327
5.3152	0.338
5.34842	0.339
5.38163	0.338
5.41485	0.339
5.44806	0.339
5.48127	0.35
5.51449	0.351
5.5477	0.351
5.58092	0.35
5.61413	0.351
5.64735	0.359
5.68056	0.362
5.71377	0.364
5.74699	0.368
5.7802	0.37
5.81342	0.371
5.84663	0.372
5.87984	0.376
5.91306	0.379
5.94627	0.382
5.97949	0.386
6.0127	0.39
6.04592	0.392
6.07913	0.395
6.11234	0.396
6.14556	0.396
6.17877	0.398
6.21199	0.398
6.2452	0.4
6.27841	0.411
6.31163	0.412
6.34484	0.414
6.37806	0.418
6.41127	0.422
6.44449	0.43
6.4777	0.431
6.51091	0.442
6.54413	0.432
6.57734	0.438
6.61056	0.44
6.64377	0.467
6.67698	0.482
6.7102	0.503
6.74341	0.529
6.77663	0.52
6.80984	0.314
6.84306	0.215
6.87627	0.193
6.90948	0.276
6.9427	0.316
6.97591	0.364
7.00913	0.364
7.04234	0.379
7.07555	0.408
7.10877	0.41
7.14198	0.415
7.1752	0.45
7.20841	0.439
7.24163	0.33
7.27484	0.374
7.30805	0.41
7.34127	0.422
7.37448	0.439
7.4077	0.446
7.44091	0.45
7.47412	0.446
7.50734	0.431
7.54055	0.435
7.57377	0.444
7.60698	0.452
7.6402	0.459
7.67341	0.456
7.70662	0.46
7.73984	0.462
7.77305	0.466
7.80627	0.476
7.83948	0.478
7.8727	0.478
7.90591	0.479
7.93912	0.482
7.97234	0.487
8.00555	0.491
8.03877	0.479
8.07198	0.472
8.10519	0.484
8.13841	0.49
8.17162	0.499
8.20484	0.504
8.23805	0.508
8.27127	0.509
8.30448	0.513
8.33769	0.519
8.37091	0.525
8.40412	0.525
8.43734	0.513
8.47055	0.486
8.50376	0.475
8.53698	0.476
8.57019	0.475
8.60341	0.479
8.63662	0.423
8.66984	0.422
8.70305	0.466
8.73626	0.484
8.76948	0.494
8.80269	0.507
8.83591	0.521
8.86912	0.528
8.90233	0.535
8.93555	0.537
8.96876	0.528
9.00198	0.524
9.03519	0.525
9.06841	0.529
9.10162	0.525
9.13483	0.456
9.16805	0.484
9.20126	0.509
9.23448	0.531
9.26769	0.537
9.3009	0.551
9.33412	0.56
9.36733	0.564
9.40055	0.569
9.43376	0.571
9.46698	0.577
9.50019	0.583
9.5334	0.587
9.56662	0.591
9.59983	0.571
9.63305	0.552
9.66626	0.569
9.69947	0.58
9.73269	0.592
9.7659	0.603
9.79912	0.601
9.83233	0.576
9.86555	0.591
9.89876	0.605
9.93197	0.609
9.96519	0.611
9.9984	0.613
10.0316	0.619
10.0648	0.621
10.098	0.629
10.1313	0.64
10.1645	0.641
10.1977	0.644
10.2309	0.639
10.2641	0.625
10.2973	0.627
10.3305	0.632
10.3638	0.637
10.397	0.641
10.4302	0.644
10.4634	0.64
10.4966	0.64
10.5298	0.643
10.563	0.651
10.5963	0.655
10.6295	0.659
10.6627	0.659
10.6959	0.651
10.7291	0.644
10.7623	0.595
10.7955	0.619
10.8288	0.647
10.862	0.669
10.8952	0.671
10.9284	0.671
10.9616	0.659
10.9948	0.621
11.028	0.649
11.0613	0.671
11.0945	0.632
11.1277	0.589
11.1609	0.623
11.1941	0.611
11.2273	0.603
11.2605	0.641
11.2938	0.649
11.327	0.664
11.3602	0.68
11.3934	0.688
11.4266	0.692
11.4598	0.701
11.493	0.711
11.5263	0.659
11.5595	0.619
11.5927	0.62
11.6259	0.643
11.6591	0.669
11.6923	0.691
11.7255	0.704
11.7588	0.723
11.792	0.723
11.8252	0.72
11.8584	0.711
11.8916	0.731
11.9248	0.713
11.958	0.651
11.9913	0.655
12.0245	0.709
12.0577	0.732
12.0909	0.741
12.1241	0.752
12.1573	0.761
12.1905	0.768
12.2238	0.77
12.257	0.772
12.2902	0.762
12.3234	0.77
12.3566	0.79
12.3898	0.806
12.423	0.814
12.4563	0.814
12.4895	0.817
12.5227	0.732
12.5559	0.41
12.5891	0.292
12.6223	0.482
12.6555	0.669
12.6888	0.753
12.722	0.793
12.7552	0.818
12.7884	0.816
12.8216	0.773
12.8548	0.564
12.888	0.239
12.9212	0.155
12.9545	0.146
12.9877	0.206
13.0209	0.352
13.0541	0.47
13.0873	0.512
13.1205	0.54
13.1537	0.601
13.187	0.616
13.2202	0.571
13.2534	0.541
13.2866	0.56
13.3198	0.553
13.353	0.442
13.3862	0.29
13.4195	0.15
13.4527	0.114
13.4859	0.119
13.5191	0.202
13.5523	0.286
13.5855	0.376
13.6187	0.43
13.652	0.336
13.6852	0.31
13.7184	0.319
13.7516	0.359
13.7848	0.41
13.818	0.442
13.8512	0.402
13.8845	0.383
13.9177	0.435
13.9509	0.482
13.9841	0.511
14.0173	0.529
14.0505	0.539
14.0837	0.551
14.117	0.569
14.1502	0.581
14.1834	0.588
14.2166	0.596
14.2498	0.601
14.283	0.609
14.3162	0.612
14.3495	0.615
14.3827	0.62
14.4159	0.623
14.4491	0.629
14.4823	0.629
14.5155	0.628
14.5487	0.629
14.582	0.632
14.6152	0.636
14.6484	0.637
14.6816	0.641
14.7148	0.643
14.748	0.645
14.7812	0.648
14.8145	0.653
14.8477	0.66
14.8809	0.663
14.9141	0.667
14.9473	0.655
14.9805	0.564
15.0137	0.442
15.047	0.306
