Infrared Spectrum: 2,4-Dichlorophenylacetic acid
Formula: C 8 H 6 Cl 2 O 2
CAS: 19719-28-9
State: gas
Origin: EPA-IR VAPOR PHASE LIBRARY
1/CM	ABSORBANCE
549.8	0.051917
559.445	0.038387
569.09	0.028047
578.734	0.032337
588.379	0.048707
598.024	0.071707
607.669	0.083247
617.313	0.088747
626.958	0.091217
636.603	0.074307
646.248	0.056377
655.893	0.040337
665.537	0.033087
675.182	0.036637
684.827	0.032907
694.472	0.024777
704.116	0.019657
713.761	0.013157
723.406	0.009097
733.051	0.008377
742.695	0.010557
752.34	0.020707
761.985	0.048687
771.63	0.067577
781.275	0.050497
790.919	0.036687
800.564	0.056197
810.209	0.077227
819.854	0.041177
829.498	0.025577
839.143	0.034747
848.788	0.064997
858.433	0.092007
868.078	0.085467
877.722	0.045377
887.367	0.021517
897.012	0.014797
906.657	0.012277
916.301	0.012687
925.946	0.015817
935.591	0.014097
945.236	0.010647
954.88	0.009167
964.525	0.008097
974.17	0.006807
983.815	0.006447
993.46	0.006097
1003.1	0.005777
1012.75	0.006717
1022.39	0.008137
1032.04	0.013277
1041.68	0.032407
1051.33	0.055897
1060.97	0.048907
1070.62	0.048707
1080.26	0.079077
1089.91	0.147117
1099.55	0.268557
1109.2	0.351727
1118.84	0.382247
1128.49	0.268817
1138.13	0.173207
1147.78	0.128327
1157.42	0.088587
1167.07	0.062207
1176.71	0.049887
1186.36	0.047087
1196	0.048437
1205.64	0.047017
1215.29	0.042407
1224.93	0.039487
1234.58	0.036197
1244.22	0.033277
1253.87	0.031937
1263.51	0.030257
1273.16	0.029727
1282.8	0.030247
1292.45	0.027467
1302.09	0.025077
1311.74	0.024827
1321.38	0.026947
1331.03	0.031617
1340.67	0.040487
1350.32	0.055377
1359.96	0.071627
1369.61	0.083157
1379.25	0.073197
1388.9	0.055697
1398.54	0.035867
1408.18	0.030397
1417.83	0.042807
1427.47	0.041187
1437.12	0.029127
1446.76	0.025577
1456.41	0.035467
1466.05	0.102117
1475.7	0.195257
1485.34	0.097347
1494.99	0.042827
1504.63	0.031727
1514.28	0.016687
1523.92	0.009657
1533.57	0.009477
1543.21	0.014587
1552.86	0.027727
1562.5	0.038027
1572.15	0.034787
1581.79	0.051027
1591.44	0.073637
1601.08	0.041757
1610.73	0.014267
1620.37	0.009497
1630.01	0.006997
1639.66	0.005697
1649.3	0.004897
1658.95	0.004887
1668.59	0.005507
1678.24	0.006627
1687.88	0.008107
1697.53	0.010427
1707.17	0.014647
1716.82	0.022587
1726.46	0.037817
1736.11	0.059947
1745.75	0.089827
1755.4	0.130747
1765.04	0.195527
1774.69	0.324217
1784.33	0.410487
1793.98	0.272397
1803.62	0.137007
1813.27	0.075847
1822.91	0.043927
1832.55	0.024567
1842.2	0.014787
1851.84	0.009847
1861.49	0.007247
1871.13	0.006497
1880.78	0.007047
1890.42	0.007137
1900.07	0.005647
1909.71	0.004257
1919.36	0.003727
1929	0.003347
1938.65	0.002877
1948.29	0.002507
1957.94	0.002437
1967.58	0.002667
1977.23	0.002867
1986.87	0.003027
1996.52	0.002957
2006.16	0.002587
2015.81	0.002207
2025.45	0.001947
2035.1	0.001697
2044.74	0.001597
2054.38	0.0012939
2064.03	0.0012891
2073.67	0.0012402
2083.32	0.0011389
2092.96	0.0011396
2102.61	0.0012236
2112.25	0.001347
2121.9	0.001387
2131.54	0.001407
2141.19	0.0012216
2150.83	0.0011948
2160.48	0.001317
2170.12	0.001387
2179.77	0.001467
2189.41	0.001577
2199.06	0.001867
2208.7	0.002147
2218.35	0.002427
2227.99	0.002627
2237.64	0.002417
2247.28	0.001967
2256.92	0.001737
2266.57	0.001627
2276.21	0.001657
2285.86	0.001687
2295.5	0.001777
2305.15	0.001727
2314.79	0.001587
2324.44	0.001777
2334.08	0.001857
2343.73	0.001727
2353.37	0.001607
2363.02	0.001567
2372.66	0.001507
2382.31	0.001557
2391.95	0.001567
2401.6	0.001587
2411.24	0.001557
2420.89	0.001567
2430.53	0.001537
2440.18	0.001507
2449.82	0.001507
2459.47	0.001507
2469.11	0.001517
2478.75	0.001437
2488.4	0.0012253
2498.04	0.0011271
2507.69	0.0011219
2517.33	0.0010871
2526.98	0.0010782
2536.62	0.0010927
2546.27	0.0009094
2555.91	0.000807
2565.56	0.0007144
2575.2	0.000734
2584.85	0.0007722
2594.49	0.0007084
2604.14	0.0008046
2613.78	0.0008663
2623.43	0.0010627
2633.07	0.0011616
2642.72	0.0012253
2652.36	0.0012664
2662.01	0.0012064
2671.65	0.0012388
2681.29	0.0010902
2690.94	0.0009778
2700.58	0.0008902
2710.23	0.0008909
2719.87	0.0009145
2729.52	0.0010172
2739.16	0.0008058
2748.81	0.0005914
2758.45	0.0004674
2768.1	0.0004221
2777.74	0.0004558
2787.39	0.000495
2797.03	0.0005667
2806.68	0.0007188
2816.32	0.000804
2825.97	0.0009089
2835.61	0.0010419
2845.26	0.0012007
2854.9	0.0011667
2864.55	0.0009651
2874.19	0.0009562
2883.84	0.0011497
2893.48	0.001387
2903.12	0.001917
2912.77	0.002757
2922.41	0.004937
2932.06	0.009437
2941.7	0.012057
2951.35	0.009657
2960.99	0.006327
2970.64	0.004577
2980.28	0.003647
2989.93	0.003127
2999.57	0.002937
3009.22	0.003157
3018.86	0.004087
3028.51	0.005107
3038.15	0.004707
3047.8	0.003827
3057.44	0.005297
3067.09	0.007437
3076.73	0.006707
3086.38	0.004737
3096.02	0.002447
3105.67	0.001367
3115.31	0.0011035
3124.95	0.0009907
3134.6	0.0007846
3144.24	0.0006652
3153.89	0.000586
3163.53	0.0006426
3173.18	0.0005154
3182.82	0.0004044
3192.47	0.0002353
3202.11	0.00032595
3211.76	0.00031545
3221.4	0.0002387
3231.05	0.0002549
3240.69	0.000278
3250.34	0.0002817
3259.98	0.000193
3269.63	0.0002373
3279.27	0.000173
3288.92	0.000202
3298.56	0.00013
3308.21	0.000136
3317.85	0.00034284
3327.49	0.000185
3337.14	0.000161
3346.78	7.1e-05
3356.43	0.000164
3366.07	9.3e-05
3375.72	0.00015
3385.36	0.0002375
3395.01	0.00029956
3404.65	0.000249
3414.3	0.000298126
3423.94	0.0004545
3433.59	0.0004207
3443.23	0.0004509
3452.88	0.00039692
3462.52	0.0004148
3472.17	0.0007101
3481.81	0.0010448
3491.46	0.001347
3501.1	0.001977
3510.75	0.002987
3520.39	0.004267
3530.04	0.006437
3539.68	0.009957
3549.32	0.015517
3558.97	0.037577
3568.61	0.146997
3578.26	0.179107
3587.9	0.047277
3597.55	0.014207
3607.19	0.007777
3616.84	0.005037
3626.48	0.003497
3636.13	0.002467
3645.77	0.001487
3655.42	0.0009937
3665.06	0.0008055
3674.71	0.0006973
3684.35	0.0006486
3694	0.0007969
3703.64	0.0008091
3713.29	0.0006268
3722.93	0.0005779
3732.58	0.0004296
3742.22	0.0005748
3751.86	0.0004195
3761.51	0.000522
3771.15	0.000495
3780.8	0.0004193
3790.44	0.0004663
3800.09	0.00032752
3809.73	0.00029067
3819.38	0.0002605
3829.02	0.0002757
3838.67	0.0002629
3848.31	0.00031152
3857.96	0.00036017
3867.6	0.00031032
3877.25	0.0003645
3886.89	0.0005818
3896.54	0.0005096
3906.18	0.00031347
3915.83	0.0003983
3925.47	0.0005698
3935.12	0.0006189
3944.76	0.0005802
3954.41	0.000515
3964.05	0.0005343
3973.69	0.0002649
3983.34	0.00031573
3992.98	0.000176
