Infrared Spectrum: DIETHYL AZO DIFORMATE
Formula: C6 H10 N2 O4
CAS: 1972-28-7
Class: COBLENTZ
Instrument: Not specified, most likely a prism, grating, or hybrid spectrometer.
Sampling: TRANSMISSION
Path length: SMEAR
Resolution: 4
Origin: TENNESSEE EASTMAN COMPANY, RESEARCH LABORATORIES
MICROMETERS	TRANSMITTANCE
2.075	0.969
2.11588	0.97
2.15675	0.974
2.19763	0.97
2.23851	0.955
2.27938	0.955
2.32026	0.955
2.36114	0.958
2.40201	0.962
2.44289	0.964
2.48377	0.969
2.52464	0.974
2.56552	0.976
2.6064	0.976
2.64727	0.976
2.68815	0.976
2.72903	0.976
2.7699	0.953
2.81078	0.897
2.85166	0.912
2.89253	0.957
2.93341	0.96
2.97429	0.96
3.01516	0.965
3.05604	0.97
3.09692	0.97
3.13779	0.97
3.17867	0.964
3.21955	0.957
3.26042	0.928
3.3013	0.699
3.34218	0.466
3.38305	0.663
3.42393	0.765
3.4648	0.859
3.50568	0.929
3.54656	0.952
3.58743	0.96
3.62831	0.97
3.66919	0.979
3.71006	0.981
3.75094	0.988
3.79182	0.991
3.83269	0.977
3.87357	0.981
3.91445	0.982
3.95532	0.976
3.9962	0.967
4.03708	0.953
4.07795	0.945
4.11883	0.964
4.15971	0.979
4.20058	0.982
4.24146	0.962
4.28234	0.957
4.32321	0.969
4.36409	0.991
4.40497	0.991
4.44584	0.976
4.48672	0.965
4.5276	0.974
4.56847	0.977
4.60935	0.982
4.65023	0.976
4.6911	0.964
4.73198	0.952
4.77286	0.958
4.81373	0.979
4.85461	0.982
4.89549	0.982
4.93636	0.982
4.97724	0.982
5.01812	0.991
5.05899	0.979
5.09987	0.974
5.14075	0.974
5.18162	0.972
5.2225	0.958
5.26338	0.921
5.30425	0.866
5.34513	0.822
5.38601	0.803
5.42688	0.735
5.46776	0.625
5.50864	0.376
5.54951	0.14
5.59039	0.029
5.63127	0.044
5.67214	0.205
5.71302	0.447
5.7539	0.512
5.79477	0.627
5.83565	0.74
5.87653	0.782
5.9174	0.83
5.95828	0.852
5.99915	0.864
6.04003	0.878
6.08091	0.885
6.12178	0.892
6.16266	0.89
6.20354	0.894
6.24441	0.921
6.28529	0.926
6.32617	0.923
6.36704	0.914
6.40792	0.904
6.4488	0.899
6.48967	0.89
6.53055	0.88
6.57143	0.852
6.6123	0.81
6.65318	0.774
6.69406	0.668
6.73493	0.442
6.77581	0.405
6.81669	0.495
6.85756	0.456
6.89844	0.523
6.93932	0.707
6.98019	0.757
7.02107	0.762
7.06195	0.719
7.10282	0.618
7.1437	0.524
7.18458	0.55
7.22545	0.606
7.26633	0.381
7.30721	0.305
7.34808	0.639
7.38896	0.757
7.42984	0.758
7.47071	0.719
7.51159	0.671
7.55247	0.596
7.59334	0.492
7.63422	0.326
7.6751	0.206
7.71597	0.211
7.75685	0.2
7.79773	0.153
7.8386	0.111
7.87948	0.092
7.92036	0.082
7.96123	0.066
8.00211	0.047
8.04299	0.034
8.08386	0.03
8.12474	0.034
8.16562	0.063
8.20649	0.109
8.24737	0.16
8.28825	0.246
8.32912	0.297
8.37	0.381
8.41088	0.439
8.45175	0.47
8.49263	0.454
8.53351	0.478
8.57438	0.521
8.61526	0.567
8.65613	0.635
8.69701	0.69
8.73789	0.717
8.77876	0.723
8.81964	0.714
8.86052	0.671
8.90139	0.581
8.94227	0.49
8.98315	0.5
9.02402	0.495
9.0649	0.435
9.10578	0.435
9.14665	0.543
9.18753	0.627
9.22841	0.69
9.26928	0.711
9.31016	0.712
9.35104	0.712
9.39191	0.699
9.43279	0.682
9.47367	0.664
9.51454	0.622
9.55542	0.562
9.5963	0.454
9.63717	0.341
9.67805	0.239
9.71893	0.172
9.7598	0.148
9.80068	0.157
9.84156	0.208
9.88243	0.295
9.92331	0.415
9.96419	0.516
10.0051	0.601
10.0459	0.661
10.0868	0.705
10.1277	0.735
10.1686	0.769
10.2094	0.798
10.2503	0.822
10.2912	0.835
10.3321	0.842
10.373	0.846
10.4138	0.841
10.4547	0.806
10.4956	0.758
10.5365	0.705
10.5773	0.666
10.6182	0.647
10.6591	0.637
10.7	0.673
10.7408	0.728
10.7817	0.781
10.8226	0.823
10.8635	0.859
10.9043	0.882
10.9452	0.892
10.9861	0.895
11.027	0.9
11.0679	0.9
11.1087	0.902
11.1496	0.902
11.1905	0.902
11.2314	0.894
11.2722	0.878
11.3131	0.861
11.354	0.825
11.3949	0.776
11.4357	0.69
11.4766	0.584
11.5175	0.422
11.5584	0.347
11.5993	0.345
11.6401	0.367
11.681	0.386
11.7219	0.422
11.7628	0.482
11.8036	0.565
11.8445	0.644
11.8854	0.702
11.9263	0.733
11.9671	0.75
12.008	0.755
12.0489	0.753
12.0898	0.728
12.1306	0.688
12.1715	0.637
12.2124	0.562
12.2533	0.492
12.2942	0.432
12.335	0.389
12.3759	0.377
12.4168	0.398
12.4577	0.435
12.4985	0.471
12.5394	0.495
12.5803	0.531
12.6212	0.574
12.662	0.615
12.7029	0.659
12.7438	0.705
12.7847	0.735
12.8255	0.757
12.8664	0.772
12.9073	0.786
12.9482	0.796
12.9891	0.806
13.0299	0.813
13.0708	0.817
13.1117	0.823
13.1526	0.825
13.1934	0.827
13.2343	0.823
13.2752	0.81
13.3161	0.805
13.3569	0.801
13.3978	0.811
13.4387	0.825
13.4796	0.834
13.5205	0.847
13.5613	0.854
13.6022	0.854
13.6431	0.856
13.684	0.856
13.7248	0.856
13.7657	0.856
13.8066	0.854
13.8475	0.851
13.8883	0.846
13.9292	0.842
13.9701	0.835
14.011	0.827
14.0518	0.82
14.0927	0.811
14.1336	0.803
14.1745	0.789
14.2154	0.779
14.2562	0.776
14.2971	0.77
14.338	0.769
14.3789	0.765
14.4197	0.762
14.4606	0.757
14.5015	0.75
14.5424	0.733
14.5832	0.726
14.6241	0.721
14.665	0.719
14.7059	0.717
14.7468	0.723
14.7876	0.723
14.8285	0.723
14.8694	0.721
14.9103	0.714
14.9511	0.704
14.992	0.694
15.0329	0.69
15.0738	0.688
15.1146	0.683
15.1555	0.673
15.1964	0.668
15.2373	0.663
15.2781	0.654
15.319	0.647
15.3599	0.642
15.4008	0.635
15.4417	0.632
15.4825	0.629
15.5234	0.625
15.5643	0.62
15.6052	0.62
15.646	0.617
15.6869	0.613
15.7278	0.611
15.7687	0.61
15.8095	0.608
15.8504	0.603
15.8913	0.601
15.9322	0.6
15.973	0.6
