Infrared Spectrum: 2-t-Butylthiophenol
Formula: C 10 H 14 S
CAS: 19728-41-7
State: gas
Origin: EPA-IR VAPOR PHASE LIBRARY
1/CM	ABSORBANCE
549.8	0.004427
559.445	0.006347
569.09	0.002887
578.735	0.001687
588.38	0.0015266
598.025	0.0013279
607.67	0.0011945
617.315	0.0011882
626.96	0.0013644
636.605	0.001587
646.251	0.002317
655.896	0.003677
665.541	0.003677
675.186	0.001927
684.831	0.001767
694.476	0.002247
704.121	0.003647
713.766	0.009897
723.411	0.024837
733.056	0.029897
742.701	0.035007
752.346	0.045447
761.991	0.019227
771.636	0.004247
781.281	0.002307
790.926	0.001987
800.571	0.001747
810.216	0.002147
819.861	0.002547
829.507	0.003747
839.152	0.003597
848.797	0.002637
858.442	0.001737
868.087	0.0014038
877.732	0.0014179
887.377	0.0014751
897.022	0.001647
906.667	0.002237
916.312	0.003347
925.957	0.004897
935.602	0.005687
945.247	0.004117
954.892	0.002507
964.537	0.001897
974.182	0.0014864
983.827	0.0014777
993.472	0.001657
1003.12	0.002517
1012.76	0.003827
1022.41	0.004797
1032.05	0.008757
1041.7	0.021777
1051.34	0.027937
1060.99	0.012957
1070.63	0.003737
1080.28	0.002297
1089.92	0.001847
1099.57	0.002467
1109.21	0.004367
1118.86	0.005697
1128.5	0.004877
1138.15	0.003707
1147.79	0.002757
1157.44	0.002377
1167.08	0.002867
1176.73	0.004267
1186.37	0.006397
1196.02	0.009597
1205.66	0.009167
1215.31	0.005947
1224.95	0.005877
1234.6	0.010437
1244.24	0.017707
1253.89	0.016587
1263.53	0.010347
1273.18	0.008147
1282.82	0.006187
1292.47	0.003817
1302.11	0.002417
1311.76	0.002017
1321.4	0.001727
1331.05	0.001727
1340.69	0.002327
1350.34	0.004677
1359.98	0.013347
1369.63	0.023087
1379.27	0.013797
1388.92	0.008837
1398.56	0.012487
1408.21	0.013037
1417.85	0.013987
1427.5	0.017447
1437.14	0.015697
1446.79	0.014827
1456.43	0.022687
1466.08	0.032417
1475.73	0.029487
1485.37	0.017047
1495.02	0.008747
1504.66	0.004527
1514.31	0.003037
1523.95	0.002387
1533.6	0.002027
1543.24	0.001967
1552.89	0.002247
1562.53	0.003047
1572.18	0.004067
1581.82	0.006027
1591.47	0.006257
1601.11	0.003937
1610.76	0.002147
1620.4	0.001496
1630.05	0.0012759
1639.69	0.0012378
1649.34	0.0012608
1658.98	0.0015335
1668.63	0.001637
1678.27	0.001947
1687.92	0.002257
1697.56	0.001927
1707.21	0.0014732
1716.85	0.0013552
1726.5	0.001098
1736.14	0.0009832
1745.79	0.0010003
1755.43	0.0010988
1765.08	0.0012734
1774.72	0.001747
1784.37	0.002107
1794.01	0.001897
1803.66	0.001597
1813.3	0.001847
1822.95	0.001867
1832.59	0.0013349
1842.24	0.0009777
1851.88	0.0010034
1861.53	0.0011793
1871.17	0.0012645
1880.82	0.0013878
1890.46	0.001897
1900.11	0.002557
1909.75	0.002287
1919.4	0.001767
1929.04	0.002027
1938.69	0.002257
1948.33	0.0014742
1957.98	0.0008084
1967.62	0.000546063
1977.27	0.0004772
1986.91	0.000429
1996.56	0.0004644
2006.2	0.0004379
2015.85	0.0004715
2025.49	0.000425
2035.14	0.000415
2044.78	0.000311
2054.43	0.000358
2064.07	0.000331
2073.72	0.000344
2083.36	0.000323
2093.01	0.000339
2102.65	0.0004603
2112.3	0.000332
2121.94	0.000363
2131.59	0.000253
2141.23	0.000288
2150.88	0.000334
2160.52	0.000306
2170.17	0.000272
2179.81	0.000384
2189.46	0.000364
2199.1	0.000391
2208.75	0.000415
2218.39	0.000363
2228.04	0.00033
2237.68	0.000376
2247.33	0.000277
2256.97	0.000306
2266.62	0.000199
2276.26	0.000309
2285.91	0.000415
2295.55	0.00059746
2305.2	0.0004821
2314.84	0.000423
2324.49	0.000393
2334.13	0.000448
2343.78	0.0004466
2353.42	0.000337
2363.07	0.000201
2372.72	0.000267
2382.36	0.000397
2392.01	0.000427
2401.65	0.000365
2411.3	0.000323
2420.94	0.000312
2430.59	0.000375
2440.23	0.000426
2449.88	0.000297
2459.52	0.000359
2469.17	0.000315
2478.81	0.00038
2488.46	0.000436
2498.1	0.0004384
2507.75	0.000378
2517.39	0.000383
2527.04	0.000374
2536.68	0.000395
2546.33	0.000438
2555.97	0.00059711
2565.62	0.0006773
2575.26	0.0009714
2584.91	0.002147
2594.55	0.002687
2604.2	0.001717
2613.84	0.0007987
2623.49	0.00060385
2633.13	0.00061662
2642.78	0.000539055
2652.42	0.0004436
2662.07	0.000376
2671.71	0.00052817
2681.36	0.00038
2691	0.00054969
2700.65	0.00053258
2710.29	0.0006877
2719.94	0.0009324
2729.58	0.0013758
2739.23	0.0010204
2748.87	0.0010248
2758.52	0.001151
2768.16	0.001093
2777.81	0.0012971
2787.45	0.001677
2797.1	0.001977
2806.74	0.002177
2816.39	0.002337
2826.03	0.002757
2835.68	0.003247
2845.32	0.004337
2854.97	0.006747
2864.61	0.012967
2874.26	0.023087
2883.9	0.028917
2893.55	0.027467
2903.19	0.027307
2912.84	0.032797
2922.48	0.037947
2932.13	0.040747
2941.77	0.042807
2951.42	0.053207
2961.06	0.075127
2970.71	0.089317
2980.35	0.068097
2990	0.036677
2999.64	0.027007
3009.29	0.017067
3018.93	0.010117
3028.58	0.007747
3038.22	0.007167
3047.87	0.011627
3057.51	0.024337
3067.16	0.028257
3076.8	0.015257
3086.45	0.008247
3096.09	0.010097
3105.74	0.010167
3115.38	0.006547
3125.03	0.005057
3134.67	0.004047
3144.32	0.002377
3153.96	0.001737
3163.61	0.001817
3173.25	0.001667
3182.9	0.0012842
3192.54	0.0012499
3202.19	0.00105
3211.83	0.0011086
3221.48	0.0008661
3231.12	0.0010146
3240.77	0.0008737
3250.41	0.0008551
3260.06	0.000693
3269.7	0.0007683
3279.35	0.0006721
3289	0.0007454
3298.64	0.0004723
3308.29	0.0006693
3317.93	0.0008572
3327.58	0.0007094
3337.22	0.0007623
3346.87	0.0007728
3356.51	0.0006738
3366.16	0.00059496
3375.8	0.00061533
3385.45	0.0007024
3395.09	0.00058932
3404.74	0.00059061
3414.38	0.000413
3424.03	0.0006674
3433.67	0.000301
3443.32	0.000544957
3452.96	0.000391
3462.61	0.00047
3472.25	0.0004876
3481.9	0.00057463
3491.54	0.0004471
3501.19	0.00060817
3510.83	0.000497
3520.48	0.0006838
3530.12	0.00063265
3539.77	0.00055815
3549.41	0.000371
3559.06	0.0004634
3568.7	0.000155
3578.35	0.0002
3587.99	0.000323
3597.64	0.000188
3607.28	0.000216
3616.93	0.000333
3626.57	0.000381
3636.22	0.000243
3645.86	0.000258
3655.51	0.000249
3665.15	4.2e-05
3674.8	0.000319
3684.44	0.000275
3694.09	0.00024
3703.73	0.000354
3713.38	0.000241
3723.02	0.000424
3732.67	0.000336
3742.31	8.9e-05
3751.96	0.000378
3761.6	0.000236
3771.25	0.000426
3780.89	0.00057415
3790.54	0.0005015
3800.18	0.000256
3809.83	0.000378
3819.47	7.1e-05
3829.12	0.000418
3838.76	0.000144
3848.41	0.000178
3858.05	0.00019
3867.7	0.000232
3877.34	0.000421
3886.99	0.0004944
3896.63	0.000219
3906.28	0.000347
3915.92	0.000492
3925.57	0.000231
3935.21	0.000235
3944.86	0.000222
3954.5	0.00021
3964.15	0.000373
3973.79	0.000323
3983.44	0.000178
3993.08	0.000144
