Infrared Spectrum: 1-Propanol, 3-mercapto-
Formula: C3 H8 O S
CAS: 19721-22-3
State: LIQUID (NEAT)
Class: COBLENTZ III
Instrument: BECKMAN IR-9 (GRATING)
Instrument parameters: ORDER CHANGES: 670, 1200, 2000 CM^-^1
Sampling: TRANSMISSION
Path length: CAPILLARY
Resolution: 2
Origin: DOW CHEMICAL COMPANY
1/CM	TRANSMITTANCE
402	0.4621
411	0.452
420	0.4516
429	0.4636
438	0.4787
447	0.4851
456	0.4908
465	0.5028
474	0.4986
483	0.449
492	0.4306
501	0.4745
510	0.4989
519	0.5074
528	0.5074
537	0.5019
546	0.4945
555	0.4865
564	0.4758
573	0.4654
582	0.4549
591	0.4439
600	0.4345
609	0.4267
618	0.4199
627	0.4105
636	0.401
645	0.3916
654	0.3828
663	0.3827
672	0.3978
681	0.4109
690	0.423
699	0.4248
708	0.4226
717	0.4233
726	0.4371
735	0.451
744	0.461
753	0.4894
762	0.509
771	0.5316
780	0.5563
789	0.581
798	0.6056
807	0.6311
816	0.6515
825	0.6591
834	0.6538
843	0.6534
852	0.6405
861	0.6084
870	0.5877
879	0.5791
888	0.5936
897	0.5219
906	0.456
915	0.4483
924	0.4623
933	0.4579
942	0.4642
951	0.3718
960	0.4554
969	0.5713
978	0.596
987	0.5666
996	0.4658
1005	0.2995
1014	0.153
1023	0.1146
1032	0.0851
1041	0.0555
1050	0.0334
1059	0.0307
1068	0.0504
1077	0.1621
1086	0.3768
1095	0.5461
1104	0.6001
1113	0.6227
1122	0.6326
1131	0.6241
1140	0.5668
1149	0.4805
1158	0.4525
1167	0.4619
1176	0.4999
1185	0.5488
1194	0.5548
1203	0.5505
1212	0.5432
1221	0.5258
1230	0.5373
1239	0.5657
1248	0.4851
1257	0.3814
1266	0.3055
1275	0.3289
1284	0.3612
1293	0.3594
1302	0.4019
1311	0.4349
1320	0.4396
1329	0.4292
1338	0.4057
1347	0.376
1356	0.37
1365	0.398
1374	0.382
1383	0.3658
1392	0.3624
1401	0.3599
1410	0.3427
1419	0.3001
1428	0.2294
1437	0.2183
1446	0.2266
1455	0.3231
1464	0.3921
1473	0.3775
1482	0.4653
1491	0.6164
1500	0.6696
1509	0.7106
1518	0.7253
1527	0.7443
1536	0.7599
1545	0.7763
1554	0.7892
1563	0.7976
1572	0.8022
1581	0.8069
1590	0.8084
1599	0.8061
1608	0.7997
1617	0.7905
1626	0.7807
1635	0.7741
1644	0.7703
1653	0.7739
1662	0.7839
1671	0.7993
1680	0.8139
1689	0.8235
1698	0.8338
1707	0.841
1716	0.8475
1725	0.8528
1734	0.8572
1743	0.8624
1752	0.8709
1761	0.8748
1770	0.8785
1779	0.8819
1788	0.8826
1797	0.8835
1806	0.8845
1815	0.8846
1824	0.8853
1833	0.8874
1842	0.8903
1851	0.8907
1860	0.891
1869	0.8911
1878	0.8905
1887	0.8886
1896	0.8866
1905	0.8852
1914	0.8843
1923	0.8834
1932	0.8822
1941	0.8794
1950	0.8793
1959	0.8729
1968	0.8816
1977	0.8844
1986	0.8854
1995	0.884
2004	0.8799
2013	0.8762
2022	0.873
2031	0.8699
2040	0.8672
2049	0.8648
2058	0.8628
2067	0.862
2076	0.8611
2085	0.8619
2094	0.8628
2103	0.8652
2112	0.8681
2121	0.8708
2130	0.8723
2139	0.8737
2148	0.8747
2157	0.8758
2166	0.8758
2175	0.8751
2184	0.8746
2193	0.8742
2202	0.8738
2211	0.8734
2220	0.8731
2229	0.8738
2238	0.8748
2247	0.875
2256	0.8752
2265	0.8749
2274	0.8746
2283	0.8743
2292	0.8741
2301	0.8738
2310	0.8735
2319	0.873
2328	0.8725
2337	0.8723
2346	0.8722
2355	0.872
2364	0.8701
2373	0.8638
2382	0.8517
2391	0.843
2400	0.8377
2409	0.8306
2418	0.8222
2427	0.8134
2436	0.8044
2445	0.7954
2454	0.7849
2463	0.774
2472	0.763
2481	0.7517
2490	0.7382
2499	0.7181
2508	0.6949
2517	0.6716
2526	0.6479
2535	0.622
2544	0.606
2553	0.6054
2562	0.6188
2571	0.6634
2580	0.6965
2589	0.7162
2598	0.7224
2607	0.7248
2616	0.7238
2625	0.7237
2634	0.7234
2643	0.7231
2652	0.7228
2661	0.7207
2670	0.7137
2679	0.7045
2688	0.6946
2697	0.6817
2706	0.6677
2715	0.6546
2724	0.6426
2733	0.6343
2742	0.6295
2751	0.6232
2760	0.6166
2769	0.6035
2778	0.5815
2787	0.5534
2796	0.5262
2805	0.4995
2814	0.4684
2823	0.4241
2832	0.3247
2841	0.2479
2850	0.1985
2859	0.1661
2868	0.1372
2877	0.1334
2886	0.1527
2895	0.1579
2904	0.1439
2913	0.1029
2922	0.0649
2931	0.0471
2940	0.0576
2949	0.0906
2958	0.1547
2967	0.2808
2976	0.3564
2985	0.5009
2994	0.5508
3003	0.5858
3012	0.5943
3021	0.5955
3030	0.5896
3039	0.58
3048	0.568
3057	0.5547
3066	0.5347
3075	0.5108
3084	0.4896
3093	0.4689
3102	0.4477
3111	0.4196
3120	0.3939
3129	0.3674
3138	0.3359
3147	0.2988
3156	0.2745
3165	0.2473
3174	0.2203
3183	0.1957
3192	0.1731
3201	0.1506
3210	0.1282
3219	0.1106
3228	0.0948
3237	0.0797
3246	0.0688
3255	0.0589
3264	0.0504
3273	0.0444
3282	0.0388
3291	0.0338
3300	0.03
3309	0.0278
3318	0.0261
3327	0.0252
3336	0.0245
3345	0.0241
3354	0.0243
3363	0.0245
3372	0.0255
3381	0.0265
3390	0.0286
3399	0.0306
3408	0.0336
3417	0.0371
3426	0.0427
3435	0.0496
3444	0.0574
3453	0.0667
3462	0.0799
3471	0.0957
3480	0.1145
3489	0.1353
3498	0.1575
3507	0.1826
3516	0.2192
3525	0.255
3534	0.2791
3543	0.3077
3552	0.3498
3561	0.3844
3570	0.4277
3579	0.4986
3588	0.5504
3597	0.6027
3606	0.6427
3615	0.6856
3624	0.718
3633	0.7472
3642	0.7766
3651	0.8005
3660	0.8209
3669	0.8382
3678	0.8528
3687	0.8638
3696	0.8719
3705	0.8779
3714	0.8819
3723	0.8847
3732	0.8865
3741	0.888
3750	0.8895
3759	0.8906
3768	0.8889
3777	0.8926
3786	0.8935
3795	0.8939
