Infrared Spectrum: 2,4-Di-tert-butylthiophenol
Formula: C 14 H 22 S
CAS: 19728-43-9
State: gas
Origin: EPA-IR VAPOR PHASE LIBRARY
1/CM	ABSORBANCE
549.8	0.0013187
559.445	0.001606
569.09	0.0018124
578.734	0.000414
588.379	0.000668
598.024	0.0011753
607.669	0.002085
617.313	0.0010074
626.958	0.0016443
636.603	0.002185
646.248	0.004335
655.893	0.003035
665.537	0.002055
675.182	0.002125
684.827	0.002015
694.472	0.0018185
704.116	0.0013913
713.761	0.002045
723.406	0.002915
733.051	0.004585
742.695	0.002705
752.34	0.002005
761.985	0.003655
771.63	0.002565
781.275	0.002535
790.919	0.002845
800.564	0.007555
810.209	0.015655
819.854	0.010795
829.498	0.003365
839.143	0.002765
848.788	0.0016116
858.433	0.0014002
868.078	0.002395
877.722	0.006235
887.367	0.010325
897.012	0.006225
906.657	0.003285
916.301	0.004135
925.946	0.004325
935.591	0.004305
945.236	0.003225
954.88	0.002675
964.525	0.002245
974.17	0.0017544
983.815	0.0016978
993.46	0.0017439
1003.1	0.002805
1012.75	0.004005
1022.39	0.005825
1032.04	0.008315
1041.68	0.016305
1051.33	0.013695
1060.97	0.005705
1070.62	0.002355
1080.26	0.002105
1089.91	0.002975
1099.55	0.002365
1109.2	0.006705
1118.84	0.007825
1128.49	0.006895
1138.13	0.010425
1147.78	0.006585
1157.42	0.004255
1167.07	0.002475
1176.71	0.002635
1186.36	0.004435
1196	0.008055
1205.64	0.006275
1215.29	0.005135
1224.93	0.008425
1234.58	0.023485
1244.22	0.023785
1253.87	0.013465
1263.51	0.013725
1273.16	0.011515
1282.8	0.005195
1292.45	0.003095
1302.09	0.002605
1311.74	0.0019096
1321.38	0.002105
1331.03	0.002455
1340.67	0.003705
1350.32	0.007605
1359.96	0.018545
1369.61	0.030675
1379.25	0.022445
1388.9	0.024575
1398.54	0.025775
1408.18	0.011865
1417.83	0.006315
1427.47	0.006355
1437.12	0.009785
1446.76	0.017055
1456.41	0.023115
1466.05	0.031305
1475.7	0.044585
1485.34	0.035295
1494.99	0.012845
1504.63	0.006525
1514.28	0.004145
1523.92	0.003185
1533.57	0.003115
1543.21	0.003675
1552.86	0.003745
1562.5	0.002935
1572.15	0.003425
1581.79	0.005225
1591.44	0.007925
1601.08	0.006345
1610.73	0.003515
1620.37	0.002625
1630.01	0.002195
1639.66	0.0018054
1649.3	0.0015142
1658.95	0.001533
1668.59	0.0013339
1678.24	0.0010713
1687.88	0.0012806
1697.53	0.0014221
1707.17	0.0014401
1716.82	0.0012119
1726.46	0.0011684
1736.11	0.0014634
1745.75	0.0018951
1755.4	0.001995
1765.04	0.002035
1774.69	0.0017361
1784.33	0.0012705
1793.98	0.0012108
1803.62	0.0012189
1813.27	0.0013602
1822.91	0.0015891
1832.55	0.0014049
1842.2	0.0014008
1851.84	0.0011846
1861.49	0.0013902
1871.13	0.0016376
1880.78	0.002275
1890.42	0.0019398
1900.07	0.0014557
1909.71	0.0012094
1919.36	0.00100928
1929	0.0012582
1938.65	0.0010926
1948.29	0.00098852
1957.94	0.0011921
1967.58	0.00099635
1977.23	0.00094579
1986.87	0.00096952
1996.52	0.0011706
2006.16	0.00094672
2015.81	0.00103479
2025.45	0.0010845
2035.1	0.000961102
2044.74	0.00099295
2054.38	0.000798
2064.03	0.000815
2073.67	0.0008978
2083.32	0.00081
2092.96	0.000834
2102.61	0.00097312
2112.25	0.000838
2121.9	0.0010906
2131.54	0.0010611
2141.19	0.000836
2150.83	0.0009097
2160.48	0.0012519
2170.12	0.0011161
2179.77	0.001104
2189.41	0.0010966
2199.06	0.0013179
2208.7	0.0011721
2218.35	0.0011339
2227.99	0.0009074
2237.64	0.0008777
2247.28	0.00097409
2256.92	0.0011292
2266.57	0.0011269
2276.21	0.0010583
2285.86	0.0013027
2295.5	0.0010696
2305.15	0.0011293
2314.79	0.0011589
2324.44	0.0013716
2334.08	0.0011242
2343.73	0.00103084
2353.37	0.00105447
2363.02	0.001716
2372.66	0.0010579
2382.31	0.0015662
2391.95	0.0015691
2401.6	0.0013135
2411.24	0.0014658
2420.89	0.0010741
2430.53	0.0012085
2440.18	0.000959323
2449.82	0.0013398
2459.47	0.0011933
2469.11	0.0012219
2478.75	0.0012
2488.4	0.00100883
2498.04	0.0011275
2507.69	0.0013928
2517.33	0.0012845
2526.98	0.0013982
2536.62	0.0012347
2546.27	0.0016836
2555.91	0.0015152
2565.56	0.0017197
2575.2	0.002205
2584.85	0.003285
2594.49	0.003445
2604.14	0.002215
2613.78	0.0018952
2623.43	0.0016121
2633.07	0.001995
2642.72	0.0018753
2652.36	0.001955
2662.01	0.001975
2671.65	0.0016046
2681.29	0.002165
2690.94	0.0018591
2700.58	0.001881
2710.23	0.002015
2719.87	0.003045
2729.52	0.003015
2739.16	0.002915
2748.81	0.002735
2758.45	0.003005
2768.1	0.002445
2777.74	0.003155
2787.39	0.003355
2797.03	0.004205
2806.68	0.004015
2816.32	0.004945
2825.97	0.004835
2835.61	0.006525
2845.26	0.008095
2854.9	0.012685
2864.55	0.023815
2874.19	0.040645
2883.84	0.045355
2893.48	0.041615
2903.12	0.045305
2912.77	0.055325
2922.41	0.057875
2932.06	0.057765
2941.7	0.063675
2951.35	0.094105
2960.99	0.161345
2970.64	0.184515
2980.28	0.090095
2989.93	0.040825
2999.57	0.027395
3009.22	0.015035
3018.86	0.010015
3028.51	0.008425
3038.15	0.007755
3047.8	0.009335
3057.44	0.010885
3067.09	0.010645
3076.73	0.007135
3086.38	0.005555
3096.02	0.005625
3105.67	0.005705
3115.31	0.005625
3124.95	0.004985
3134.6	0.003475
3144.24	0.003325
3153.89	0.002585
3163.53	0.003045
3173.18	0.002515
3182.82	0.002475
3192.47	0.002175
3202.11	0.002835
3211.76	0.002275
3221.4	0.002645
3231.05	0.002085
3240.69	0.0018939
3250.34	0.0013295
3259.98	0.0019434
3269.63	0.0017645
3279.27	0.001693
3288.92	0.0017405
3298.56	0.001995
3308.21	0.002245
3317.85	0.0013894
3327.49	0.001258
3337.14	0.002115
3346.78	0.0017182
3356.43	0.0013249
3366.07	0.001073
3375.72	0.0010439
3385.36	0.0013471
3395.01	0.000839
3404.65	0.0017023
3414.3	0.0013166
3423.94	0.000665
3433.59	0.0012858
3443.23	0.001307
3452.88	0.00074
3462.52	0.0008639
3472.17	0.00096669
3481.81	0.00114
3491.46	0.000722
3501.1	0.000725
3510.75	0.0015569
3520.39	0.0012917
3530.04	0.000825
3539.68	0.0011136
3549.32	0.000337
3558.97	0.000666
3568.61	0.000726
3578.26	0.000643
3587.9	0.000285
3597.55	0.0008935
3607.19	0.0010585
3616.84	0.000653
3626.48	0.000471
3636.13	0.000286
3645.77	0.000232
3655.42	0.000419
3665.06	0.0009354
3674.71	0.000472
3684.35	0.000431
3694	0
3703.64	0.0010895
3713.29	0.000496
3722.93	0.0010938
3732.58	0.0008579
3742.22	0.0008848
3751.86	0.000325
3761.51	0.001412
3771.15	0.000808
3780.8	0.000622
3790.44	0.000832
3800.09	0.0010075
3809.73	0.001061
3819.38	0.000348
3829.02	0.0011157
3838.67	0.0010814
3848.31	0.00099271
3857.96	0.000718
3867.6	0.000817
3877.25	0.001148
3886.89	0.00100493
3896.54	0.000634
3906.18	0.001208
3915.83	0.0010595
3925.47	0.00097112
3935.12	0.0015212
3944.76	0.0008575
3954.41	0.0011701
3964.05	0.0010836
3973.69	0.000389
3983.34	0.0017082
3992.98	0.00104447
