Infrared Spectrum: 2,5-Bis(3-methoxyphenyl)- 1,3,4-oxadiazole
Formula: C 16 H 14 N 2 O 3
CAS: 19748-58-4
State: gas
Origin: EPA-IR VAPOR PHASE LIBRARY
1/CM	ABSORBANCE
549.8	0.0017556
559.445	0.00304
569.09	0.002012
578.734	0.00251
588.379	0.00285
598.024	0.0016101
607.669	0.0016684
617.313	0.0012037
626.958	0.0011779
636.603	0.0013335
646.248	0.0017597
655.893	0.00267
665.537	0.00223
675.182	0.00417
684.827	0.01118
694.472	0.00576
704.116	0.00345
713.761	0.00239
723.406	0.00281
733.051	0.00694
742.695	0.0099
752.34	0.00287
761.985	0.0019774
771.63	0.00293
781.275	0.00626
790.919	0.01039
800.564	0.00544
810.209	0.00242
819.854	0.0024
829.498	0.00359
839.143	0.0078
848.788	0.01439
858.433	0.01695
868.078	0.00651
877.722	0.00541
887.367	0.00501
897.012	0.00362
906.657	0.00265
916.301	0.0015661
925.946	0.0015011
935.591	0.00223
945.236	0.0019458
954.88	0.003
964.525	0.00824
974.17	0.00588
983.815	0.00339
993.46	0.0043
1003.1	0.00498
1012.75	0.00608
1022.39	0.00911
1032.04	0.01936
1041.68	0.02856
1051.33	0.02532
1060.97	0.01624
1070.62	0.00816
1080.26	0.00576
1089.91	0.00498
1099.55	0.00287
1109.2	0.00242
1118.84	0.00372
1128.49	0.00262
1138.13	0.00327
1147.78	0.00263
1157.42	0.00411
1167.07	0.00536
1176.71	0.0089
1186.36	0.01037
1196	0.00728
1205.64	0.01264
1215.29	0.0197
1224.93	0.02283
1234.58	0.02271
1244.22	0.02345
1253.87	0.01558
1263.51	0.01547
1273.16	0.02627
1282.8	0.03431
1292.45	0.02899
1302.09	0.01534
1311.74	0.01599
1321.38	0.01207
1331.03	0.00681
1340.67	0.00573
1350.32	0.00491
1359.96	0.00401
1369.61	0.00344
1379.25	0.00268
1388.9	0.0028
1398.54	0.00329
1408.18	0.00498
1417.83	0.0073
1427.47	0.01237
1437.12	0.01979
1446.76	0.01656
1456.41	0.01599
1466.05	0.02529
1475.7	0.03512
1485.34	0.02825
1494.99	0.02044
1504.63	0.00812
1514.28	0.00503
1523.92	0.00554
1533.57	0.00957
1543.21	0.02383
1552.86	0.03574
1562.5	0.02108
1572.15	0.01089
1581.79	0.01507
1591.44	0.02364
1601.08	0.02048
1610.73	0.01772
1620.37	0.00929
1630.01	0.0046
1639.66	0.00324
1649.3	0.00248
1658.95	0.00242
1668.59	0.00234
1678.24	0.00252
1687.88	0.00206
1697.53	0.00206
1707.17	0.0017908
1716.82	0.0017515
1726.46	0.0019433
1736.11	0.0018029
1745.75	0.0020074
1755.4	0.0018533
1765.04	0.0019598
1774.69	0.0019426
1784.33	0.0015615
1793.98	0.0017266
1803.62	0.0017396
1813.27	0.0014001
1822.91	0.0018098
1832.55	0.0017234
1842.2	0.0017854
1851.84	0.0019881
1861.49	0.0018235
1871.13	0.0015978
1880.78	0.0016713
1890.42	0.0016382
1900.07	0.0014985
1909.71	0.0017328
1919.36	0.0018687
1929	0.00217
1938.65	0.0019829
1948.29	0.0016366
1957.94	0.0016488
1967.58	0.0015464
1977.23	0.0012493
1986.87	0.0015966
1996.52	0.0015024
2006.16	0.0014362
2015.81	0.0015841
2025.45	0.0017477
2035.1	0.001855
2044.74	0.0018687
2054.38	0.0019149
2064.03	0.0019588
2073.67	0.00211
2083.32	0.0019905
2092.96	0.0017049
2102.61	0.0020206
2112.25	0.0017529
2121.9	0.0016345
2131.54	0.0016441
2141.19	0.0013406
2150.83	0.0012822
2160.48	0.0012772
2170.12	0.0013177
2179.77	0.0012168
2189.41	0.0011954
2199.06	0.0012722
2208.7	0.0011996
2218.35	0.0014628
2227.99	0.0012628
2237.64	0.0014229
2247.28	0.001275
2256.92	0.0015472
2266.57	0.0014779
2276.21	0.0013884
2285.86	0.0012419
2295.5	0.0013274
2305.15	0.0015741
2314.79	0.0012864
2324.44	0.001193
2334.08	0.0013002
2343.73	0.00114068
2353.37	0.0010799
2363.02	0.0010288
2372.66	0.0009569
2382.31	0.00105315
2391.95	0.0014997
2401.6	0.0014754
2411.24	0.0012783
2420.89	0.0014462
2430.53	0.0013665
2440.18	0.0011892
2449.82	0.0012447
2459.47	0.0014597
2469.11	0.0013758
2478.75	0.0011072
2488.4	0.001568
2498.04	0.0011659
2507.69	0.001427
2517.33	0.0015734
2526.98	0.0016046
2536.62	0.0012715
2546.27	0.0014165
2555.91	0.0015326
2565.56	0.00114393
2575.2	0.0013581
2584.85	0.0014152
2594.49	0.0016462
2604.14	0.0017445
2613.78	0.0012395
2623.43	0.0015404
2633.07	0.0014316
2642.72	0.0013369
2652.36	0.0011848
2662.01	0.00107598
2671.65	0.0013119
2681.29	0.0012173
2690.94	0.0014276
2700.58	0.0015007
2710.23	0.0013025
2719.87	0.0011706
2729.52	0.00112048
2739.16	0.00106433
2748.81	0.000944
2758.45	0.000881
2768.1	0.0011799
2777.74	0.0011852
2787.39	0.0012109
2797.03	0.0018571
2806.68	0.0020394
2816.32	0.0020282
2825.97	0.00263
2835.61	0.00428
2845.26	0.00668
2854.9	0.00551
2864.55	0.00358
2874.19	0.00353
2883.84	0.00307
2893.48	0.00368
2903.12	0.00464
2912.77	0.00484
2922.41	0.00567
2932.06	0.00627
2941.7	0.00839
2951.35	0.01046
2960.99	0.00921
2970.64	0.00668
2980.28	0.00463
2989.93	0.00426
2999.57	0.00597
3009.22	0.00964
3018.86	0.00686
3028.51	0.00333
3038.15	0.00327
3047.8	0.00274
3057.44	0.00283
3067.09	0.00405
3076.73	0.006
3086.38	0.00538
3096.02	0.00346
3105.67	0.00291
3115.31	0.0015206
3124.95	0.001533
3134.6	0.0013772
3144.24	0.0012734
3153.89	0.00106266
3163.53	0.00106717
3173.18	0.0013259
3182.82	0.000906
3192.47	0.0010137
3202.11	0.000683
3211.76	0.0011533
3221.4	0.0005
3231.05	0.000686
3240.69	0.000502
3250.34	0.00112168
3259.98	0.000671
3269.63	0.000645
3279.27	0.0010349
3288.92	0.0010035
3298.56	0.0012356
3308.21	0.000786
3317.85	0.000929
3327.49	0.0012553
3337.14	0.0011324
3346.78	0.000424
3356.43	0.0012585
3366.07	0.000193
3375.72	0.000223
3385.36	0.00109736
3395.01	0.00114497
3404.65	0.0011616
3414.3	0.0009949
3423.94	0.0010116
3433.59	0.000513
3443.23	0.0015341
3452.88	0.000873
3462.52	0.0013478
3472.17	0.00107762
3481.81	0.0013386
3491.46	0.000801
3501.1	0.0009794
3510.75	0.000685
3520.39	0.000349
3530.04	0.0009806
3539.68	0.000946
3549.32	0.000824
3558.97	0.0010158
3568.61	0.000922
3578.26	0.0010704
3587.9	0.00111135
3597.55	0.00111323
3607.19	0.000489
3616.84	0.000409
3626.48	0.00104226
3636.13	0.0010108
3645.77	0.000727
3655.42	0.000877
3665.06	0.0013686
3674.71	0.000813
3684.35	0.00053
3694	0.000714
3703.64	0.000772
3713.29	0.0010117
3722.93	0.0009981
3732.58	0.000701
3742.22	0.0014316
3751.86	0.0014144
3761.51	0.0012427
3771.15	0.0010073
3780.8	0.000724
3790.44	0.0014974
3800.09	0.000732
3809.73	0.0010223
3819.38	0.000699
3829.02	0.00113598
3838.67	0.000539
3848.31	0.000627
3857.96	0.000364
3867.6	0.000478
3877.25	0.000639
3886.89	0.000356
3896.54	0.000797
3906.18	0.000615
3915.83	0.00082
3925.47	0.0010164
3935.12	0.0014712
3944.76	0.000858
3954.41	0.000775
3964.05	0.0009621
3973.69	0.00104744
3983.34	0.000901
3992.98	0.000637
