Infrared Spectrum: BENZENE, 1-BROMO-3,5-DICHLORO-
Formula: C6 H3 Br Cl2
CAS: 19752-55-7
State: SOLUTION (10% IN CCl4 FOR 3800-1333 AND 10% IN CS2 FOR 1333-450 CM^-^1) VS. SOLVENT
Class: COBLENTZ III
Instrument: DOW KBr FOREPRISM-GRATING
Instrument parameters: BLAZED AT 3.5, 12.0, 20.0 MICRON, CHANGED AT 5.0, 7.5, 14.9 MICRON
Sampling: TRANSMISSION
Path length: 0.011, 0.011 CM
Resolution: 4
Origin: DOW CHEMICAL COMPANY
1/CM	TRANSMITTANCE
444.276	0.914
452.957	0.921
461.639	0.927
470.32	0.933
479.002	0.936
487.683	0.938
496.365	0.94
505.046	0.938
513.728	0.938
522.409	0.945
531.091	0.955
539.772	0.964
548.454	0.967
557.135	0.968
565.817	0.967
574.498	0.963
583.18	0.956
591.861	0.97
600.543	0.97
609.224	0.971
617.906	0.976
626.587	0.974
635.269	0.967
643.95	0.957
652.632	0.887
661.313	0.2822
669.995	0.957
678.676	0.975
687.358	0.979
696.039	0.979
704.721	0.97
713.402	0.974
722.084	0.961
730.765	0.97
739.447	0.967
748.128	0.944
756.81	0.754
765.491	0.0211
774.173	0.911
782.854	0.926
791.536	0.656
800.217	0.07
808.899	0.782
817.58	0.892
826.262	0.881
834.943	0.794
843.625	0.519
852.306	0.2391
860.988	0.794
869.669	0.869
878.351	0.921
887.032	0.951
895.714	0.956
904.395	0.967
913.077	0.967
921.758	0.967
930.44	0.971
939.121	0.972
947.803	0.972
956.484	0.972
965.166	0.971
973.847	0.968
982.529	0.963
991.21	0.933
999.892	0.963
1008.57	0.966
1017.25	0.956
1025.94	0.945
1034.62	0.927
1043.3	0.911
1051.98	0.934
1060.66	0.942
1069.34	0.933
1078.03	0.926
1086.71	0.892
1095.39	0.3658
1104.07	0.797
1112.75	0.921
1121.43	0.94
1130.11	0.892
1138.8	0.955
1147.48	0.972
1156.16	0.979
1164.84	0.979
1173.52	0.974
1182.2	0.979
1190.88	0.98
1199.57	0.979
1208.25	0.979
1216.93	0.979
1225.61	0.979
1234.29	0.979
1242.97	0.966
1251.66	0.961
1260.34	0.96
1269.02	0.961
1277.7	0.961
1286.38	0.964
1295.06	0.971
1303.74	0.972
1312.43	0.97
1321.11	0.978
1329.79	0.978
1338.47	0.976
1347.15	0.971
1355.83	0.949
1364.51	0.786
1373.2	0.741
1381.88	0.644
1390.56	0.652
1399.24	0.425
1407.92	0.603
1416.6	0.08
1425.29	0.667
1433.97	0.911
1442.65	0.961
1451.33	0.959
1460.01	0.945
1468.69	0.966
1477.37	0.964
1486.06	0.968
1494.74	0.966
1503.42	0.96
1512.1	0.948
1520.78	0.906
1529.46	0.773
1538.14	0.827
1546.83	0.658
1555.51	0.3169
1564.19	0.021
1572.87	0.138
1581.55	0.6051
1590.23	0.823
1598.92	0.868
1607.6	0.932
1616.28	0.952
1624.96	0.951
1633.64	0.938
1642.32	0.925
1651	0.937
1659.69	0.957
1668.37	0.968
1677.05	0.976
1685.73	0.971
1694.41	0.975
1703.09	0.97
1711.77	0.936
1720.46	0.865
1729.14	0.934
1737.82	0.885
1746.5	0.945
1755.18	0.979
1763.86	0.986
1772.55	0.989
1781.23	0.991
1789.91	0.991
1798.59	0.993
1807.27	0.994
1815.95	0.994
1824.63	0.993
1833.32	0.993
1842	0.99
1850.68	0.991
1859.36	0.987
1868.04	0.983
1876.72	0.991
1885.4	0.991
1894.09	0.987
1902.77	0.991
1911.45	0.995
1920.13	0.991
1928.81	0.986
1937.49	0.987
1946.17	0.993
1954.86	0.994
1963.54	0.991
1972.22	0.993
1980.9	0.993
1989.58	0.994
1998.26	0.991
2006.95	0.991
2015.63	0.993
2024.31	0.994
2032.99	0.995
2041.67	0.993
2050.35	0.991
2059.03	0.991
2067.72	0.991
2076.4	0.991
2085.08	0.991
2093.76	0.989
2102.44	0.99
2111.12	0.99
2119.8	0.991
2128.49	0.989
2137.17	0.989
2145.85	0.989
2154.53	0.989
2163.21	0.987
2171.89	0.9851
2180.58	0.983
2189.26	0.9802
2197.94	0.976
2206.62	0.982
2215.3	0.985
2223.98	0.9859
2232.66	0.9869
2241.35	0.987
2250.03	0.986
2258.71	0.986
2267.39	0.986
2276.07	0.985
2284.75	0.985
2293.43	0.985
2302.12	0.985
2310.8	0.9853
2319.48	0.9931
2328.16	0.9754
2336.84	0.9851
2345.52	0.979
2354.21	0.9743
2362.89	0.9593
2371.57	0.9533
2380.25	0.945
2388.93	0.9748
2397.61	0.982
2406.29	0.982
2414.98	0.9847
2423.66	0.986
2432.34	0.986
2441.02	0.986
2449.7	0.986
2458.38	0.985
2467.06	0.9858
2475.75	0.986
2484.43	0.985
2493.11	0.985
2501.79	0.985
2510.47	0.985
2519.15	0.986
2527.84	0.986
2536.52	0.986
2545.2	0.986
2553.88	0.985
2562.56	0.985
2571.24	0.986
2579.92	0.9852
2588.61	0.9822
2597.29	0.982
2605.97	0.982
2614.65	0.9805
2623.33	0.978
2632.01	0.976
2640.69	0.9575
2649.38	0.977
2658.06	0.98
2666.74	0.98
2675.42	0.979
2684.1	0.9745
2692.78	0.9717
2701.47	0.9787
2710.15	0.983
2718.83	0.986
2727.51	0.986
2736.19	0.9836
2744.87	0.983
2753.55	0.9823
2762.24	0.9806
2770.92	0.9793
2779.6	0.98
2788.28	0.978
2796.96	0.978
2805.64	0.976
2814.32	0.972
2823.01	0.9686
2831.69	0.943
2840.37	0.958
2849.05	0.971
2857.73	0.976
2866.41	0.978
2875.1	0.979
2883.78	0.978
2892.46	0.976
2901.14	0.975
2909.82	0.974
2918.5	0.971
2927.18	0.968
2935.87	0.968
2944.55	0.967
2953.23	0.964
2961.91	0.9597
2970.59	0.957
2979.27	0.9629
2987.95	0.9676
2996.64	0.971
3005.32	0.971
3014	0.972
3022.68	0.971
3031.36	0.971
3040.04	0.97
3048.73	0.967
3057.41	0.9648
3066.09	0.9582
3074.77	0.9337
3083.45	0.7888
3092.13	0.8292
3100.81	0.9042
3109.5	0.923
3118.18	0.9153
3126.86	0.9011
3135.54	0.9076
3144.22	0.9307
3152.9	0.9457
3161.58	0.9501
3170.27	0.953
3178.95	0.955
3187.63	0.955
3196.31	0.953
3204.99	0.952
3213.67	0.952
3222.35	0.951
3231.04	0.951
3239.72	0.952
3248.4	0.953
3257.08	0.953
3265.76	0.953
3274.44	0.955
3283.13	0.955
3291.81	0.953
3300.49	0.9555
3309.17	0.956
3317.85	0.957
3326.53	0.959
3335.21	0.957
3343.9	0.957
3352.58	0.956
3361.26	0.9525
3369.94	0.951
3378.62	0.951
3387.3	0.951
3395.98	0.952
3404.67	0.953
3413.35	0.955
3422.03	0.9565
3430.71	0.961
3439.39	0.963
3448.07	0.964
3456.76	0.9689
3465.44	0.971
3474.12	0.972
3482.8	0.974
3491.48	0.9754
3500.16	0.978
3508.84	0.979
3517.53	0.98
3526.21	0.983
3534.89	0.986
3543.57	0.987
3552.25	0.9894
3560.93	0.99
3569.61	0.991
3578.3	0.991
3586.98	0.991
3595.66	0.993
3604.34	0.99
3613.02	0.99
3621.7	0.993
3630.39	0.994
3639.07	0.9923
3647.75	0.9937
3656.43	0.997
3665.11	0.991
3673.79	0.994
3682.47	0.9903
3691.16	0.989
3699.84	0.994
3708.52	0.998
3717.2	0.9977
3725.88	0.994
3734.56	0.997
3743.24	0.997
3751.93	0.995
3760.61	0.9943
3769.29	0.998
