Infrared Spectrum: 1,5-DIAZOBICYCLO[3.2.1]OCTANE, 8-INDOL-3-YL-
Formula: C14 H17 N3
CAS: 197571-82-7
State: SOLID (SPLIT MULL, FLUOROLUBE FOR 3800-1300 AND NUJOL FOR 1300-460 CM ^-^1)
Melting point: 173-176 C
Class: COBLENTZ III
Instrument: DOW KBr FOREPRISM-GRATING
Instrument parameters: BLAZED AT 3.5, 12.0, 20.0 MICRON, CHANGED AT 5.0, 7.5, 14.9 MICRON
Sampling: TRANSMISSION
Resolution: 4
Origin: DOW CHEMICAL COMPANY
1/CM	TRANSMITTANCE
455.25	0.894
463.856	0.902
472.462	0.816
481.068	0.96
489.673	0.959
498.279	0.955
506.885	0.902
515.491	0.955
524.097	0.966
532.703	0.972
541.309	0.978
549.915	0.982
558.52	0.963
567.126	0.971
575.732	0.895
584.338	1.012
592.944	1.012
601.55	0.978
610.156	0.978
618.761	0.998
627.367	0.974
635.973	0.937
644.579	0.978
653.185	0.987
661.791	0.993
670.397	0.993
679.003	0.995
687.608	0.993
696.214	0.986
704.82	0.974
713.426	0.936
722.032	0.316
730.638	0.814
739.244	0.064
747.849	0.491
756.455	0.808
765.061	0.8439
773.667	0.937
782.273	0.664
790.879	0.913
799.485	0.751
808.091	0.812
816.696	0.766
825.302	0.6321
833.908	0.783
842.514	0.5899
851.12	0.813
859.726	0.878
868.332	0.904
876.937	0.875
885.543	0.759
894.149	0.851
902.755	0.77
911.361	0.935
919.967	0.945
928.573	0.906
937.179	0.5369
945.784	0.629
954.39	0.777
962.996	0.7251
971.602	0.91
980.208	0.925
988.814	0.7408
997.42	0.816
1006.03	0.7639
1014.63	0.6481
1023.24	0.922
1031.84	0.922
1040.45	0.877
1049.05	0.917
1057.66	0.89
1066.27	0.7999
1074.87	0.335
1083.48	0.593
1092.08	0.913
1100.69	0.939
1109.3	0.906
1117.9	0.6779
1126.51	0.629
1135.11	0.683
1143.72	0.691
1152.33	0.689
1160.93	0.931
1169.54	0.933
1178.14	0.902
1186.75	0.905
1195.35	0.902
1203.96	0.82
1212.57	0.804
1221.17	0.891
1229.78	0.84
1238.38	0.5328
1246.99	0.836
1255.6	0.794
1264.2	0.733
1272.81	0.76
1281.41	0.72
1290.02	0.75
1298.62	0.6539
1307.23	0.614
1315.84	0.808
1324.44	0.778
1333.05	0.695
1341.65	0.721
1350.26	0.64
1358.87	0.505
1367.47	0.4741
1376.08	0.852
1384.68	0.887
1393.29	0.874
1401.9	0.828
1410.5	0.782
1419.11	0.821
1427.71	0.848
1436.32	0.763
1444.92	0.5809
1453.53	0.5561
1462.14	0.5951
1470.74	0.7828
1479.35	0.791
1487.95	0.84
1496.56	0.84
1505.17	0.795
1513.77	0.814
1522.38	0.874
1530.98	0.868
1539.59	0.794
1548.2	0.6851
1556.8	0.845
1565.41	0.862
1574.01	0.844
1582.62	0.82
1591.22	0.854
1599.83	0.874
1608.44	0.864
1617.04	0.797
1625.65	0.764
1634.25	0.833
1642.86	0.79
1651.47	0.866
1660.07	0.885
1668.68	0.877
1677.28	0.914
1685.89	0.914
1694.49	0.921
1703.1	0.927
1711.71	0.927
1720.31	0.922
1728.92	0.924
1737.52	0.925
1746.13	0.928
1754.74	0.933
1763.34	0.932
1771.95	0.918
1780.55	0.935
1789.16	0.937
1797.77	0.929
1806.37	0.929
1814.98	0.933
1823.58	0.936
1832.19	0.933
1840.79	0.935
1849.4	0.924
1858.01	0.909
1866.61	0.935
1875.22	0.939
1883.82	0.935
1892.43	0.921
1901.04	0.936
1909.64	0.941
1918.25	0.939
1926.85	0.928
1935.46	0.943
1944.07	0.943
1952.67	0.941
1961.28	0.94
1969.88	0.936
1978.49	0.936
1987.09	0.936
1995.7	0.936
2004.31	0.936
2012.91	0.936
2021.52	0.936
2030.12	0.935
2038.73	0.935
2047.34	0.9339
2055.94	0.933
2064.55	0.932
2073.15	0.931
2081.76	0.929
2090.36	0.928
2098.97	0.9274
2107.58	0.924
2116.18	0.921
2124.79	0.916
2133.39	0.914
2142	0.908
2150.61	0.906
2159.21	0.9028
2167.82	0.8974
2176.42	0.894
2185.03	0.8881
2193.64	0.885
2202.24	0.8814
2210.85	0.878
2219.45	0.877
2228.06	0.872
2236.66	0.866
2245.27	0.8593
2253.88	0.8507
2262.48	0.8443
2271.09	0.8403
2279.69	0.8353
2288.3	0.831
2296.91	0.824
2305.51	0.8146
2314.12	0.8069
2322.72	0.7965
2331.33	0.7863
2339.93	0.781
2348.54	0.779
2357.15	0.7755
2365.75	0.7713
2374.36	0.7685
2382.96	0.7645
2391.57	0.762
2400.18	0.756
2408.78	0.7502
2417.39	0.7442
2425.99	0.7402
2434.6	0.7362
2443.21	0.7312
2451.81	0.725
2460.42	0.7202
2469.02	0.7132
2477.63	0.7064
2486.23	0.698
2494.84	0.6914
2503.45	0.6852
2512.05	0.6755
2520.66	0.6662
2529.26	0.6632
2537.87	0.6563
2546.48	0.6454
2555.08	0.6258
2563.69	0.6163
2572.29	0.6051
2580.9	0.593
2589.51	0.5891
2598.11	0.583
2606.72	0.579
2615.32	0.5677
2623.93	0.556
2632.53	0.5559
2641.14	0.558
2649.75	0.5521
2658.35	0.55
2666.96	0.5431
2675.56	0.5272
2684.17	0.4981
2692.78	0.4871
2701.38	0.4791
2709.99	0.478
2718.59	0.4939
2727.2	0.4861
2735.8	0.447
2744.41	0.431
2753.02	0.432
2761.62	0.466
2770.23	0.489
2778.83	0.4808
2787.44	0.4439
2796.05	0.421
2804.65	0.42
2813.26	0.4268
2821.86	0.4159
2830.47	0.4181
2839.08	0.4199
2847.68	0.4047
2856.29	0.3762
2864.89	0.3388
2873.5	0.2888
2882.1	0.2115
2890.71	0.4226
2899.32	0.455
2907.92	0.4462
2916.53	0.3525
2925.13	0.3438
2933.74	0.3165
2942.35	0.2987
2950.95	0.2463
2959.56	0.3681
2968.16	0.4408
2976.77	0.3799
2985.37	0.5177
2993.98	0.5675
3002.59	0.5778
3011.19	0.5412
3019.8	0.5029
3028.4	0.4881
3037.01	0.4718
3045.62	0.4144
3054.22	0.4748
3062.83	0.5058
3071.43	0.4755
3080.04	0.5046
3088.65	0.5106
3097.25	0.5156
3105.86	0.5659
3114.46	0.591
3123.07	0.5401
3131.67	0.526
3140.28	0.5699
3148.89	0.606
3157.49	0.6341
3166.1	0.6568
3174.7	0.6783
3183.31	0.686
3191.92	0.687
3200.52	0.6949
3209.13	0.7066
3217.73	0.7173
3226.34	0.724
3234.95	0.724
3243.55	0.729
3252.16	0.7393
3260.76	0.7433
3269.37	0.7473
3277.97	0.752
3286.58	0.7561
3295.19	0.76
3303.79	0.764
3312.4	0.767
3321	0.766
3329.61	0.764
3338.22	0.763
3346.82	0.76
3355.43	0.756
3364.03	0.7516
3372.64	0.748
3381.24	0.751
3389.85	0.754
3398.46	0.752
3407.06	0.7461
3415.67	0.741
3424.27	0.7361
3432.88	0.732
3441.49	0.735
3450.09	0.7379
3458.7	0.741
3467.3	0.744
3475.91	0.747
3484.52	0.748
3493.12	0.752
3501.73	0.754
3510.33	0.755
3518.94	0.757
3527.54	0.759
3536.15	0.7595
3544.76	0.76
3553.36	0.759
3561.97	0.759
3570.57	0.7549
3579.18	0.7432
3587.79	0.758
3596.39	0.759
3605	0.758
3613.6	0.756
3622.21	0.756
3630.82	0.755
3639.42	0.755
3648.03	0.754
3656.63	0.752
3665.24	0.752
3673.84	0.751
3682.45	0.75
3691.06	0.747
3699.66	0.745
3708.27	0.744
3716.87	0.743
3725.48	0.743
3734.09	0.743
3742.69	0.741
3751.3	0.74
3759.9	0.7353
3768.51	0.732
3777.11	0.731
3785.72	0.7283
3794.33	0.728
