Infrared Spectrum: n-Decanenitrile
Formula: C 10 H 19 N
CAS: 1975-78-6
State: gas
Origin: EPA-IR VAPOR PHASE LIBRARY
1/CM	ABSORBANCE
501.5	0.0003181
513.074	0.0003146
524.648	0.0002403
536.222	0.0003272
547.796	0.0003698
559.37	0.0004564
570.944	0.0004317
582.518	0.0001565
594.092	0.0002497
605.666	0.0001911
617.24	0.0002161
628.814	0.0001916
640.388	0.0004306
651.962	0.0003283
663.536	0.0003621
675.11	0.0004238
686.684	0.0007528
698.258	0.00121
709.832	0.00218
721.406	0.00286
732.98	0.00264
744.554	0.00209
756.128	0.00165
767.702	0.00142
779.276	0.00113
790.85	0.0009236
802.423	0.0007537
813.997	0.0007999
825.571	0.0007595
837.145	0.0008199
848.719	0.0008709
860.293	0.0008282
871.867	0.0007876
883.441	0.0008373
895.015	0.000896
906.589	0.0008575
918.163	0.0008944
929.737	0.0007706
941.311	0.0007988
952.885	0.000692
964.459	0.0007388
976.033	0.0005503
987.607	0.0004971
999.181	0.0005383
1010.76	0.0004861
1022.33	0.0006126
1033.9	0.0007508
1045.48	0.0007749
1057.05	0.0006875
1068.63	0.0007405
1080.2	0.0006739
1091.77	0.0005652
1103.35	0.0005925
1114.92	0.0007698
1126.49	0.00064
1138.07	0.0005514
1149.64	0.0004837
1161.22	0.0006684
1172.79	0.000906
1184.36	0.00104
1195.94	0.00124
1207.51	0.00133
1219.09	0.00155
1230.66	0.00169
1242.23	0.00183
1253.81	0.00209
1265.38	0.00244
1276.96	0.00243
1288.53	0.00259
1300.1	0.00293
1311.68	0.00322
1323.25	0.00345
1334.83	0.00399
1346.4	0.00483
1357.97	0.00489
1369.55	0.00421
1381.12	0.00418
1392.7	0.00327
1404.27	0.00269
1415.84	0.0033
1427.42	0.00586
1438.99	0.00975
1450.57	0.01196
1462.14	0.01438
1473.71	0.01003
1485.29	0.00467
1496.86	0.00243
1508.44	0.00158
1520.01	0.00114
1531.58	0.0009178
1543.16	0.0007608
1554.73	0.0006732
1566.31	0.0006011
1577.88	0.0005418
1589.45	0.0005148
1601.03	0.0005087
1612.6	0.000468
1624.18	0.0004289
1635.75	0.0004253
1647.32	0.0004148
1658.9	0.0004077
1670.47	0.0003787
1682.05	0.0003713
1693.62	0.0003551
1705.19	0.0003485
1716.77	0.000329
1728.34	0.0003293
1739.92	0.0002623
1751.49	0.0002921
1763.06	0.0002746
1774.64	0.0002973
1786.21	0.0002797
1797.79	0.0002644
1809.36	0.0002969
1820.93	0.0002722
1832.51	0.0002746
1844.08	0.0002804
1855.66	0.0002698
1867.23	0.0002492
1878.8	0.0002716
1890.38	0.0002688
1901.95	0.0002517
1913.53	0.000243
1925.1	0.0002386
1936.67	0.0002309
1948.25	0.0002352
1959.82	0.000225
1971.4	0.000244
1982.97	0.0002549
1994.54	0.0002762
2006.12	0.000323
2017.69	0.0003857
2029.27	0.0004096
2040.84	0.0004284
2052.41	0.0004154
2063.99	0.0003804
2075.56	0.0003702
2087.14	0.000341
2098.71	0.0003376
2110.28	0.0003677
2121.86	0.0003434
2133.43	0.000339
2145.01	0.0003711
2156.58	0.0004025
2168.15	0.000402
2179.73	0.0003902
2191.3	0.0004054
2202.88	0.0004057
2214.45	0.000461
2226.02	0.0005986
2237.6	0.00103
2249.17	0.00183
2260.74	0.00139
2272.32	0.0007259
2283.89	0.0005452
2295.47	0.0005129
2307.04	0.0004685
2318.61	0.0004463
2330.19	0.000469
2341.76	0.0004599
2353.34	0.0004347
2364.91	0.0004408
2376.48	0.0004634
2388.06	0.0004466
2399.63	0.0004506
2411.21	0.0004662
2422.78	0.0004713
2434.35	0.0004279
2445.93	0.0004022
2457.5	0.0003635
2469.08	0.0003673
2480.65	0.000392
2492.22	0.0004
2503.8	0.0004764
2515.37	0.0004718
2526.95	0.0005292
2538.52	0.000579
2550.09	0.000592
2561.67	0.0006483
2573.24	0.0007131
2584.82	0.0008171
2596.39	0.0008746
2607.96	0.0009409
2619.54	0.00103
2631.11	0.00114
2642.69	0.00123
2654.26	0.00136
2665.83	0.00147
2677.41	0.0016
2688.98	0.00165
2700.56	0.00156
2712.13	0.00149
2723.7	0.0016
2735.28	0.00175
2746.85	0.00194
2758.43	0.00207
2770	0.00222
2781.57	0.00264
2793.15	0.00329
2804.72	0.00423
2816.3	0.0056
2827.87	0.00791
2839.44	0.01258
2851.02	0.02616
2862.59	0.04827
2874.17	0.04975
2885.74	0.03978
2897.31	0.03532
2908.89	0.04865
2920.46	0.08575
2932.04	0.13277
2943.61	0.12348
2955.18	0.08776
2966.76	0.07072
2978.33	0.03981
2989.91	0.01766
3001.48	0.01022
3013.05	0.00688
3024.63	0.00502
3036.2	0.00393
3047.78	0.00318
3059.35	0.00259
3070.92	0.00221
3082.5	0.00193
3094.07	0.00169
3105.65	0.00153
3117.22	0.00134
3128.79	0.00119
3140.37	0.00117
3151.94	0.00111
3163.52	0.00103
3175.09	0.000977
3186.66	0.0008779
3198.24	0.0007869
3209.81	0.0006972
3221.39	0.0006453
3232.96	0.0005041
3244.53	0.0004185
3256.11	0.0004696
3267.68	0.0003584
3279.26	0.0003395
3290.83	0.000374
3302.4	0.0003464
3313.98	0.0003601
3325.55	0.0003034
3337.13	0.0002787
3348.7	0.0002742
3360.27	0.0003466
3371.85	0.0003205
3383.42	0.000349
3395	0.0002779
3406.57	0.0002455
3418.14	0.0003302
3429.72	0.0003643
3441.29	0.0002676
3452.86	0.0002846
3464.44	0.0002339
3476.01	0.0002688
3487.59	0.0001982
3499.16	0.0002406
3510.73	0.0002426
3522.31	0.0002372
3533.88	0.0002291
3545.46	0.0002592
3557.03	0.0002194
3568.6	0.0003361
3580.18	0.0002973
3591.75	0.0003158
3603.33	0.0003218
3614.9	0.0003648
3626.47	0.0003881
3638.05	0.0003693
3649.62	0.0003726
3661.2	0.0003994
3672.77	0.0004457
3684.34	0.0003889
3695.92	0.000384
3707.49	0.000434
3719.07	0.0004122
3730.64	0.0003578
3742.21	0.0004093
3753.79	0.0003821
3765.36	0.000372
3776.94	0.0003596
3788.51	0.0003921
3800.08	0.0003587
3811.66	0.0003594
3823.23	0.0004055
3834.81	0.000519
3846.38	0.0004232
3857.95	0.0004622
3869.53	0.0004061
3881.1	0.0004444
3892.68	0.0004666
3904.25	0.000398
3915.82	0.0004475
3927.4	0.0005074
3938.97	0.0004328
3950.55	0.0004371
3962.12	0.000501
3973.69	0.0005579
3985.27	0.0006242
3996.84	0.0006427
