Infrared Spectrum: ANILINE, N,N-DIMETHYL-p-(p-TOLYLSULFONAMIDO)-
Formula: C15 H18 N2 O2 S
CAS: 19766-55-3
State: SOLID (SPLIT MULL), FLUOROLUBE FOR 4000-1340 CM^-^1, NUJOL FOR 1340-400 CM^-^1
Melting point: 127 C
Class: COBLENTZ III
Instrument: BECKMAN IR-12 (GRATING)
Instrument parameters: GRATING CHANGE: 300, 650, 2000 CM^-^1
Sampling: TRANSMISSION
Resolution: 2
Origin: EASTMAN KODAK COMPANY
1/CM	TRANSMITTANCE
402	0.9386
411	0.9172
420	0.9018
429	0.9601
438	0.9304
447	0.8729
456	0.9154
465	0.9489
474	0.9479
483	0.9618
492	0.8243
501	0.9151
510	0.7685
519	0.7607
528	0.3912
537	0.7812
546	0.7801
555	0.4842
564	0.7525
573	0.7475
582	0.4935
591	0.3591
600	0.3817
609	0.6552
618	0.8341
627	0.9008
636	0.8309
645	0.8782
654	0.7251
663	0.3232
672	0.1489
681	0.6411
690	0.8117
699	0.8674
708	0.8817
717	0.9472
726	0.9395
735	0.777
744	0.9544
753	0.9752
762	0.9781
771	0.9761
780	0.9658
789	0.8656
798	0.5238
807	0.5994
816	0.1637
825	0.7599
834	0.7486
843	0.8677
852	0.9404
861	0.9699
870	0.9526
879	0.9044
888	0.7552
897	0.4601
906	0.486
915	0.8632
924	0.5623
933	0.8873
942	0.9292
951	0.6907
960	0.8395
969	0.9444
978	0.9686
987	0.9895
996	0.9905
1005	0.9792
1014	0.9651
1023	0.9255
1032	0.9545
1041	0.9141
1050	0.8985
1059	0.8146
1068	0.8033
1077	0.7735
1086	0.3353
1095	0.5632
1104	0.7808
1113	0.7923
1122	0.7437
1131	0.6877
1140	0.6034
1149	0.2851
1158	0.0402
1167	0.4155
1176	0.6172
1185	0.4339
1194	0.8027
1203	0.7889
1212	0.658
1221	0.2951
1230	0.4347
1239	0.622
1248	0.801
1257	0.8387
1266	0.8172
1275	0.5529
1284	0.5
1293	0.5522
1302	0.575
1311	0.6377
1320	0.5243
1329	0.0988
1338	0.5196
1347	0.6372
1356	0.515
1365	0.419
1374	0.5601
1383	0.4725
1392	0.239
1401	0.4054
1410	0.6561
1419	0.6847
1428	0.6875
1437	0.4696
1446	0.4877
1455	0.6275
1464	0.7034
1473	0.7338
1482	0.7337
1491	0.6027
1500	0.6537
1509	0.5211
1518	0.3185
1527	0.1623
1536	0.464
1545	0.7231
1554	0.8507
1563	0.8732
1572	0.8237
1581	0.8562
1590	0.7677
1599	0.7314
1608	0.5867
1617	0.4332
1626	0.7871
1635	0.8534
1644	0.8728
1653	0.8679
1662	0.8596
1671	0.8907
1680	0.8985
1689	0.9064
1698	0.9108
1707	0.912
1716	0.9123
1725	0.9133
1734	0.9059
1743	0.9001
1752	0.9041
1761	0.9018
1770	0.897
1779	0.8924
1788	0.887
1797	0.8829
1806	0.8742
1815	0.8717
1824	0.8706
1833	0.8681
1842	0.8553
1851	0.8492
1860	0.8442
1869	0.832
1878	0.8454
1887	0.8437
1896	0.8418
1905	0.8395
1914	0.8262
1923	0.7926
1932	0.831
1941	0.8414
1950	0.8388
1959	0.8364
1968	0.8322
1977	0.8323
1986	0.8321
1995	0.8262
2004	0.8211
2013	0.8184
2022	0.8159
2031	0.8135
2040	0.8098
2049	0.8058
2058	0.8024
2067	0.799
2076	0.7957
2085	0.7924
2094	0.7892
2103	0.786
2112	0.784
2121	0.782
2130	0.78
2139	0.7779
2148	0.7757
2157	0.7727
2166	0.7671
2175	0.7628
2184	0.7611
2193	0.7591
2202	0.7579
2211	0.756
2220	0.7507
2229	0.7447
2238	0.7387
2247	0.733
2256	0.7296
2265	0.7241
2274	0.7199
2283	0.7164
2292	0.7147
2301	0.7101
2310	0.7057
2319	0.7074
2328	0.708
2337	0.7084
2346	0.7086
2355	0.7083
2364	0.7075
2373	0.7054
2382	0.7021
2391	0.6985
2400	0.6958
2409	0.694
2418	0.6916
2427	0.6888
2436	0.6873
2445	0.6856
2454	0.683
2463	0.6802
2472	0.6764
2481	0.6732
2490	0.6714
2499	0.6708
2508	0.671
2517	0.6701
2526	0.6672
2535	0.6631
2544	0.659
2553	0.6551
2562	0.6518
2571	0.6489
2580	0.6464
2589	0.6445
2598	0.6436
2607	0.642
2616	0.6397
2625	0.6372
2634	0.6348
2643	0.6323
2652	0.6295
2661	0.6266
2670	0.623
2679	0.6194
2688	0.616
2697	0.6126
2706	0.6089
2715	0.6052
2724	0.6018
2733	0.5978
2742	0.5934
2751	0.588
2760	0.5791
2769	0.5667
2778	0.5523
2787	0.5367
2796	0.5159
2805	0.4733
2814	0.4544
2823	0.4755
2832	0.5054
2841	0.496
2850	0.4645
2859	0.4542
2868	0.4536
2877	0.4391
2886	0.4293
2895	0.4272
2904	0.436
2913	0.4385
2922	0.4351
2931	0.4387
2940	0.452
2949	0.4655
2958	0.4788
2967	0.4966
2976	0.5093
2985	0.517
2994	0.5218
3003	0.5264
3012	0.5303
3021	0.5332
3030	0.5357
3039	0.5344
3048	0.5332
3057	0.5356
3066	0.529
3075	0.5332
3084	0.5408
3093	0.5411
3102	0.5418
3111	0.5436
3120	0.5461
3129	0.5455
3138	0.5434
3147	0.5419
3156	0.5403
3165	0.5379
3174	0.5352
3183	0.5318
3192	0.5274
3201	0.5226
3210	0.5171
3219	0.5113
3228	0.5033
3237	0.495
3246	0.4847
3255	0.4716
3264	0.4549
3273	0.4331
3282	0.4041
3291	0.3661
3300	0.3044
3309	0.2649
3318	0.2445
3327	0.3297
3336	0.4485
3345	0.4773
3354	0.5025
3363	0.5162
3372	0.5205
3381	0.5216
3390	0.521
3399	0.5189
3408	0.5164
3417	0.5142
3426	0.512
3435	0.5103
3444	0.5088
3453	0.5073
3462	0.506
3471	0.5046
3480	0.5034
3489	0.502
3498	0.5008
3507	0.4998
3516	0.4987
3525	0.4977
3534	0.4966
3543	0.4956
3552	0.4945
3561	0.4935
3570	0.4925
3579	0.4914
3588	0.4908
3597	0.4901
3606	0.4894
3615	0.4883
3624	0.4871
3633	0.4859
3642	0.4847
3651	0.4832
3660	0.4818
3669	0.4803
3678	0.479
3687	0.4776
3696	0.4763
3705	0.4749
3714	0.4737
3723	0.4729
3732	0.472
3741	0.471
3750	0.4699
3759	0.4688
3768	0.4677
3777	0.4664
3786	0.4652
3795	0.4635
3804	0.4617
3813	0.4595
3822	0.4568
3831	0.4542
3840	0.4524
3849	0.4506
3858	0.4489
3867	0.4471
3876	0.4455
3885	0.4437
3894	0.4421
3903	0.4407
3912	0.4394
3921	0.438
3930	0.4367
3939	0.4357
3948	0.4351
3957	0.4345
3966	0.4342
3975	0.4341
3984	0.4341
3993	0.434
