Infrared Spectrum: N,N-Dimethyl-1,2-propanediamine
Formula: C 5 H 14 N 2
CAS: 19764-58-0
State: gas
Origin: EPA-IR VAPOR PHASE LIBRARY
1/CM	ABSORBANCE
501.5	0.00323899
513.074	0.00354899
524.648	0.00349899
536.222	0.00337899
547.796	0.00273899
559.37	0.00238899
570.944	0.00218899
582.518	0.00229899
594.092	0.00265899
605.666	0.00308899
617.24	0.00355899
628.814	0.00378899
640.388	0.00380899
651.962	0.00389899
663.536	0.00426899
675.11	0.00479899
686.684	0.00580899
698.258	0.00726899
709.832	0.00982899
721.406	0.013169
732.98	0.015779
744.554	0.016519
756.128	0.016179
767.702	0.016429
779.276	0.017969
790.85	0.019359
802.423	0.017869
813.997	0.014679
825.571	0.011459
837.145	0.00903899
848.719	0.00788899
860.293	0.00768899
871.867	0.00819899
883.441	0.00885899
895.015	0.00860899
906.589	0.00739899
918.163	0.00602899
929.737	0.00555899
941.311	0.00625899
952.885	0.00843899
964.459	0.010389
976.033	0.00987899
987.607	0.00817899
999.181	0.00802899
1010.76	0.00998899
1022.33	0.013829
1033.9	0.019349
1045.48	0.024099
1057.05	0.022839
1068.63	0.016339
1080.2	0.011319
1091.77	0.010559
1103.35	0.010639
1114.92	0.00971899
1126.49	0.00862899
1138.07	0.00875899
1149.64	0.00893899
1161.22	0.00830899
1172.79	0.00661899
1184.36	0.00519899
1195.94	0.00500899
1207.51	0.00553899
1219.09	0.00612899
1230.66	0.00608899
1242.23	0.00631899
1253.81	0.00849899
1265.38	0.011259
1276.96	0.011579
1288.53	0.00896899
1300.1	0.00663899
1311.68	0.00547899
1323.25	0.00527899
1334.83	0.00568899
1346.4	0.00667899
1357.97	0.00937899
1369.55	0.012539
1381.12	0.012539
1392.7	0.00895899
1404.27	0.00557899
1415.84	0.00450899
1427.42	0.00594899
1438.99	0.010649
1450.57	0.016239
1462.14	0.018159
1473.71	0.015469
1485.29	0.010389
1496.86	0.00594899
1508.44	0.00384899
1520.01	0.00311899
1531.58	0.00283899
1543.16	0.00272899
1554.73	0.00282899
1566.31	0.00301899
1577.88	0.00353899
1589.45	0.00437899
1601.03	0.00570899
1612.6	0.00718899
1624.18	0.00739899
1635.75	0.00579899
1647.32	0.00368899
1658.9	0.00235899
1670.47	0.00165899
1682.05	0.00134899
1693.62	0.00106899
1705.19	0.00092259
1716.77	0.00083679
1728.34	0.00077939
1739.92	0.00076789
1751.49	0.00077959
1763.06	0.00075729
1774.64	0.00076129
1786.21	0.00073439
1797.79	0.00071859
1809.36	0.00070659
1820.93	0.00064159
1832.51	0.00059619
1844.08	0.00055959
1855.66	0.00048319
1867.23	0.00042989
1878.8	0.00038729
1890.38	0.00034719
1901.95	0.00033369
1913.53	0.00029339
1925.1	0.00024179
1936.67	0.00021489
1948.25	0.00022979
1959.82	0.00021749
1971.4	0.00023589
1982.97	0.00027439
1994.54	0.00032999
2006.12	0.00036789
2017.69	0.00029079
2029.27	0.00026639
2040.84	0.00024049
2052.41	0.00023039
2063.99	0.00024749
2075.56	0.00024349
2087.14	0.00027259
2098.71	0.00028849
2110.28	0.00025719
2121.86	0.00024049
2133.43	0.00021869
2145.01	0.00019459
2156.58	0.00024669
2168.15	0.00020389
2179.73	0.00022639
2191.3	0.00024549
2202.88	0.00018489
2214.45	0.00021519
2226.02	0.00024649
2237.6	0.00025849
2249.17	0.00029959
2260.74	0.00032129
2272.32	0.00027679
2283.89	0.00019729
2295.47	0.00020009
2307.04	0.00024849
2318.61	0.00026569
2330.19	0.00026009
2341.76	0.00025209
2353.34	0.00031629
2364.91	0.00032579
2376.48	0.00033629
2388.06	0.00034689
2399.63	0.00036759
2411.21	0.00046549
2422.78	0.00048819
2434.35	0.00044679
2445.93	0.00046719
2457.5	0.00049369
2469.08	0.00058449
2480.65	0.00066719
2492.22	0.00083649
2503.8	0.00093819
2515.37	0.00099439
2526.95	0.00100729
2538.52	0.00111899
2550.09	0.00121899
2561.67	0.00137899
2573.24	0.00157899
2584.82	0.00177899
2596.39	0.00191899
2607.96	0.00196899
2619.54	0.00205899
2631.11	0.00213899
2642.69	0.00219899
2654.26	0.00229899
2665.83	0.00244899
2677.41	0.00281899
2688.98	0.00326899
2700.56	0.00399899
2712.13	0.00519899
2723.7	0.00694899
2735.28	0.00934899
2746.85	0.013379
2758.43	0.021889
2770	0.036349
2781.57	0.047369
2793.15	0.044109
2804.72	0.034189
2816.3	0.032599
2827.87	0.035959
2839.44	0.033979
2851.02	0.030439
2862.59	0.033049
2874.17	0.036729
2885.74	0.038099
2897.31	0.039359
2908.89	0.042089
2920.46	0.048299
2932.04	0.056679
2943.61	0.061469
2955.18	0.061719
2966.76	0.063859
2978.33	0.056379
2989.91	0.037249
3001.48	0.018979
3013.05	0.00958899
3024.63	0.00551899
3036.2	0.00414899
3047.78	0.00347899
3059.35	0.00303899
3070.92	0.00270899
3082.5	0.00236899
3094.07	0.00217899
3105.65	0.00199899
3117.22	0.00175899
3128.79	0.00163899
3140.37	0.00150899
3151.94	0.00132899
3163.52	0.00135899
3175.09	0.00121899
3186.66	0.00109899
3198.24	0.00098089
3209.81	0.00083179
3221.39	0.00076789
3232.96	0.00061499
3244.53	0.00048139
3256.11	0.00047479
3267.68	0.00042059
3279.26	0.00033849
3290.83	0.00033149
3302.4	0.00036809
3313.98	0.00052959
3325.55	0.00098839
3337.13	0.00125899
3348.7	0.00110899
3360.27	0.00069499
3371.85	0.00045439
3383.42	0.00060609
3395	0.00081289
3406.57	0.00100409
3418.14	0.00086489
3429.72	0.00064849
3441.29	0.00036029
3452.86	0.00039209
3464.44	0.00022949
3476.01	0.00018979
3487.59	0.00018989
3499.16	0.00013069
3510.73	0.00016639
3522.31	0.00012119
3533.88	0.00010071
3545.46	8.703e-05
3557.03	6.138e-05
3568.6	4.089e-05
3580.18	5.79e-06
3591.75	9.559e-05
3603.33	3.131e-05
3614.9	8.981e-05
3626.47	0.00014069
3638.05	8.04e-05
3649.62	0.00014129
3661.2	0.00011709
3672.77	8.74e-05
3684.34	9.875e-05
3695.92	7.836e-05
3707.49	0
3719.07	7.122e-05
3730.64	0.00015919
3742.21	0.00015769
3753.79	0.00013659
3765.36	0.00012239
3776.94	0.00017799
3788.51	9.834e-05
3800.08	0.00016419
3811.66	0.00021549
3823.23	0.00028489
3834.81	0.00027449
3846.38	0.00021629
3857.95	0.00028429
3869.53	0.00027639
3881.1	0.00024169
3892.68	0.00028959
3904.25	0.00034079
3915.82	0.00035169
3927.4	0.00031919
3938.97	0.00035459
3950.55	0.00042839
3962.12	0.00037649
3973.69	0.00046009
3985.27	0.00057939
3996.84	0.00040229
