Infrared Spectrum: Aniline, N,N-Dimethyl-p-PhenylSulfonamido-
Formula: C14 H16 N2 O2 S
CAS: 19766-54-2
State: SOLID (SPLIT MULL), FLUOROLUBE FOR 4000-1340 CM^-^1, NUJOL FOR 1340-400 CM^-^1
Melting point: 129 C
Class: COBLENTZ III
Instrument: BECKMAN IR-12 (GRATING)
Instrument parameters: FILTERS AT 303, 473, 790, 1036, 1880, 2930 CM^-^1. GRATING CHANGE: 300, 650, 2000 CM^-^1
Sampling: TRANSMISSION
Resolution: 2
Origin: EASTMAN KODAK COMPANY
1/CM	TRANSMITTANCE
404	0.8371
413	0.8526
422	0.8765
431	0.8973
440	0.892
449	0.8733
458	0.9043
467	0.8413
476	0.9114
485	0.9344
494	0.9144
503	0.9039
512	0.8346
521	0.6809
530	0.4347
539	0.783
548	0.861
557	0.8572
566	0.6392
575	0.3675
584	0.5393
593	0.642
602	0.7755
611	0.7998
620	0.8099
629	0.8047
638	0.7658
647	0.691
656	0.5968
665	0.4893
674	0.5689
683	0.6748
692	0.4218
701	0.8431
710	0.7433
719	0.5062
728	0.3742
737	0.3924
746	0.2664
755	0.5962
764	0.4669
773	0.7836
782	0.8658
791	0.8823
800	0.7888
809	0.2208
818	0.7194
827	0.8104
836	0.8254
845	0.8247
854	0.8441
863	0.8654
872	0.8651
881	0.8385
890	0.7814
899	0.6171
908	0.4948
917	0.7732
926	0.8197
935	0.6481
944	0.6318
953	0.6842
962	0.8207
971	0.8322
980	0.8257
989	0.8507
998	0.782
1007	0.8015
1016	0.8223
1025	0.6772
1034	0.8208
1043	0.8071
1052	0.7652
1061	0.6428
1070	0.6761
1079	0.6989
1088	0.439
1097	0.3637
1106	0.6627
1115	0.649
1124	0.5577
1133	0.4754
1142	0.2831
1151	0.0577
1160	0.0462
1169	0.4396
1178	0.4546
1187	0.5706
1196	0.7731
1205	0.7744
1214	0.623
1223	0.3641
1232	0.3952
1241	0.5452
1250	0.7173
1259	0.7409
1268	0.7349
1277	0.6887
1286	0.4913
1295	0.3771
1304	0.4752
1313	0.2051
1322	0.3702
1331	0.1397
1340	0.2586
1349	0.4681
1358	0.3734
1367	0.6004
1376	0.6596
1385	0.6002
1394	0.4256
1403	0.4156
1412	0.7019
1421	0.6094
1430	0.6759
1439	0.4493
1448	0.2268
1457	0.696
1466	0.7141
1475	0.6675
1484	0.5954
1493	0.6507
1502	0.5413
1511	0.3447
1520	0.1713
1529	0.3331
1538	0.6041
1547	0.7679
1556	0.8297
1565	0.8442
1574	0.7766
1583	0.7942
1592	0.78
1601	0.6613
1610	0.416
1619	0.6021
1628	0.8057
1637	0.8814
1646	0.8869
1655	0.8827
1664	0.8816
1673	0.8809
1682	0.871
1691	0.8535
1700	0.8491
1709	0.8541
1718	0.8465
1727	0.8445
1736	0.8232
1745	0.8207
1754	0.8097
1763	0.8082
1772	0.8001
1781	0.7863
1790	0.792
1799	0.7901
1808	0.7826
1817	0.7703
1826	0.7571
1835	0.7698
1844	0.7663
1853	0.7595
1862	0.747
1871	0.7459
1880	0.7292
1889	0.7079
1898	0.7098
1907	0.7057
1916	0.7322
1925	0.7321
1934	0.7362
1943	0.7343
1952	0.7296
1961	0.7183
1970	0.7109
1979	0.7075
1988	0.7056
1997	0.7001
2006	0.6974
2015	0.6952
2024	0.6917
2033	0.6879
2042	0.6848
2051	0.6816
2060	0.6768
2069	0.6657
2078	0.6582
2087	0.6525
2096	0.6492
2105	0.6462
2114	0.6432
2123	0.6392
2132	0.6352
2141	0.6306
2150	0.6252
2159	0.6174
2168	0.6111
2177	0.6063
2186	0.6018
2195	0.5992
2204	0.5967
2213	0.5932
2222	0.585
2231	0.5722
2240	0.5606
2249	0.5536
2258	0.5517
2267	0.5512
2276	0.5481
2285	0.5418
2294	0.5397
2303	0.5331
2312	0.5269
2321	0.5278
2330	0.5302
2339	0.5327
2348	0.5341
2357	0.5326
2366	0.5285
2375	0.5248
2384	0.5212
2393	0.5176
2402	0.5153
2411	0.5132
2420	0.5115
2429	0.5095
2438	0.5069
2447	0.5041
2456	0.5002
2465	0.4969
2474	0.4928
2483	0.4918
2492	0.4913
2501	0.4902
2510	0.4879
2519	0.4855
2528	0.4831
2537	0.4803
2546	0.4772
2555	0.4733
2564	0.4701
2573	0.4686
2582	0.4639
2591	0.4617
2600	0.4546
2609	0.4496
2618	0.4459
2627	0.4441
2636	0.4434
2645	0.4391
2654	0.432
2663	0.4253
2672	0.4193
2681	0.4161
2690	0.415
2699	0.412
2708	0.4068
2717	0.4002
2726	0.3942
2735	0.3894
2744	0.3836
2753	0.3746
2762	0.3649
2771	0.3453
2780	0.3041
2789	0.2782
2798	0.2611
2807	0.2701
2816	0.2967
2825	0.3113
2834	0.3215
2843	0.3107
2852	0.2963
2861	0.2911
2870	0.2821
2879	0.2755
2888	0.281
2897	0.2954
2906	0.3042
2915	0.2988
2924	0.3017
2933	0.3072
2942	0.3158
2951	0.3253
2960	0.3344
2969	0.3412
2978	0.3389
2987	0.3342
2996	0.3328
3005	0.3389
3014	0.3472
3023	0.3299
3032	0.3249
3041	0.3268
3050	0.3125
3059	0.2794
3068	0.2789
3077	0.3102
3086	0.3094
3095	0.3078
3104	0.3029
3113	0.2916
3122	0.2765
3131	0.2574
3140	0.2375
3149	0.2103
3158	0.1887
3167	0.1669
3176	0.1427
3185	0.1138
3194	0.0892
3203	0.0733
3212	0.0743
3221	0.1123
3230	0.1836
3239	0.2571
3248	0.3079
3257	0.3729
3266	0.3951
3275	0.4155
3284	0.4347
3293	0.4376
3302	0.4369
3311	0.4344
3320	0.4291
3329	0.4233
3338	0.4172
3347	0.4097
3356	0.4036
3365	0.3984
3374	0.3937
3383	0.3859
3392	0.3784
3401	0.3741
3410	0.3704
3419	0.3664
3428	0.3621
3437	0.359
3446	0.3559
3455	0.3529
3464	0.3504
3473	0.3479
3482	0.346
3491	0.3442
3500	0.3444
3509	0.3444
3518	0.3424
3527	0.3391
3536	0.3359
3545	0.3326
3554	0.3293
3563	0.3264
3572	0.3255
3581	0.3244
3590	0.3234
3599	0.3223
3608	0.3209
3617	0.3193
3626	0.3178
3635	0.3162
3644	0.3145
3653	0.3127
3662	0.3107
3671	0.3083
3680	0.306
3689	0.3034
3698	0.3007
3707	0.298
3716	0.2962
3725	0.2956
3734	0.2962
3743	0.2958
3752	0.2929
3761	0.2899
3770	0.2892
3779	0.2913
3788	0.2866
3797	0.2835
3806	0.2816
3815	0.2825
3824	0.2832
3833	0.2825
3842	0.2801
3851	0.2776
3860	0.2696
3869	0.2677
3878	0.2714
3887	0.2715
3896	0.269
3905	0.2666
3914	0.2646
3923	0.2618
3932	0.2607
3941	0.2602
3950	0.2604
3959	0.2602
3968	0.2598
3977	0.2589
3986	0.2542
3995	0.2519
