Infrared Spectrum: 2-BUTYL-3-BENZOFURANYL 4-[(2-DIETHYLAMINO)ETHOXY] 3,5-DIIODOPHENYL KETONE, HYDROCHLORIDE
Formula: C25 H30 Cl I2 N O3
CAS: 19774-82-4
State: SOLID (NUJOL MULL)
Class: COBLENTZ III
Instrument: Not specified, most likely a prism spectrometer.
Instrument parameters: NaCl PRISM
Sampling: TRANSMISSION
Resolution: 2
Origin: SMITH KLINE & FRENCH LABS.
MICROMETERS	TRANSMITTANCE
2.008	0.538
2.04172	0.541
2.07544	0.545
2.10916	0.559
2.14288	0.565
2.1766	0.574
2.21032	0.583
2.24404	0.591
2.27776	0.593
2.31149	0.592
2.34521	0.597
2.37893	0.602
2.41265	0.615
2.44637	0.626
2.48009	0.627
2.51381	0.624
2.54753	0.636
2.58125	0.64
2.61497	0.636
2.64869	0.642
2.68241	0.652
2.71613	0.658
2.74985	0.678
2.78357	0.678
2.81729	0.667
2.85101	0.665
2.88474	0.67
2.91846	0.665
2.95218	0.669
2.9859	0.672
3.01962	0.675
3.05334	0.679
3.08706	0.683
3.12078	0.685
3.1545	0.689
3.18822	0.692
3.22194	0.695
3.25566	0.692
3.28938	0.678
3.3231	0.651
3.35682	0.575
3.39054	0.315
3.42426	0.162
3.45799	0.117
3.49171	0.193
3.52543	0.213
3.55915	0.52
3.59287	0.679
3.62659	0.725
3.66031	0.729
3.69403	0.722
3.72775	0.729
3.76147	0.698
3.79519	0.675
3.82891	0.666
3.86263	0.654
3.89635	0.597
3.93007	0.565
3.96379	0.584
3.99751	0.579
4.03124	0.581
4.06496	0.461
4.09868	0.399
4.1324	0.427
4.16612	0.492
4.19984	0.547
4.23356	0.594
4.26728	0.635
4.301	0.663
4.33472	0.688
4.36844	0.712
4.40216	0.722
4.43588	0.75
4.4696	0.762
4.50332	0.771
4.53704	0.778
4.57077	0.787
4.60449	0.793
4.63821	0.795
4.67193	0.799
4.70565	0.802
4.73937	0.806
4.77309	0.81
4.80681	0.812
4.84053	0.816
4.87425	0.818
4.90797	0.82
4.94169	0.823
4.97541	0.826
5.00913	0.829
5.04285	0.831
5.07657	0.833
5.11029	0.835
5.14402	0.836
5.17774	0.836
5.21146	0.836
5.24518	0.833
5.2789	0.832
5.31262	0.831
5.34634	0.829
5.38006	0.829
5.41378	0.831
5.4475	0.833
5.48122	0.83
5.51494	0.826
5.54866	0.826
5.58238	0.827
5.6161	0.829
5.64982	0.83
5.68354	0.831
5.71727	0.833
5.75099	0.835
5.78471	0.837
5.81843	0.837
5.85215	0.835
5.88587	0.832
5.91959	0.826
5.95331	0.816
5.98703	0.796
6.02075	0.804
6.05447	0.794
6.08819	0.727
6.12191	0.346
6.15563	0.32
6.18935	0.692
6.22307	0.776
6.25679	0.778
6.29052	0.709
6.32424	0.737
6.35796	0.697
6.39168	0.604
6.4254	0.541
6.45912	0.643
6.49284	0.744
6.52656	0.686
6.56028	0.677
6.594	0.776
6.62772	0.799
6.66144	0.796
6.69516	0.776
6.72888	0.677
6.7626	0.474
6.79632	0.461
6.83004	0.367
6.86377	0.304
6.89749	0.286
6.93121	0.477
6.96493	0.543
6.99865	0.575
7.03237	0.715
7.06609	0.738
7.09981	0.721
7.13353	0.64
7.16725	0.531
7.20097	0.387
7.23469	0.307
7.26841	0.34
7.30213	0.532
7.33585	0.493
7.36957	0.569
7.40329	0.661
7.43702	0.716
7.47074	0.737
7.50446	0.761
7.53818	0.765
7.5719	0.752
7.60562	0.77
7.63934	0.751
7.67306	0.704
7.70678	0.752
7.7405	0.767
7.77422	0.707
7.80794	0.505
7.84166	0.719
7.87538	0.778
7.9091	0.78
7.94282	0.768
7.97654	0.649
8.01027	0.531
8.04399	0.469
8.07771	0.567
8.11143	0.694
8.14515	0.712
8.17887	0.614
8.21259	0.646
8.24631	0.758
8.28003	0.771
8.31375	0.765
8.34747	0.654
8.38119	0.505
8.41491	0.615
8.44863	0.755
8.48235	0.752
8.51607	0.706
8.54979	0.569
8.58352	0.548
8.61724	0.718
8.65096	0.747
8.68468	0.694
8.7184	0.706
8.75212	0.79
8.78584	0.761
8.81956	0.741
8.85328	0.793
8.887	0.807
8.92072	0.832
8.95444	0.841
8.98816	0.842
9.02188	0.839
9.0556	0.821
9.08932	0.786
9.12305	0.802
9.15677	0.836
9.19049	0.841
9.22421	0.835
9.25793	0.813
9.29165	0.765
9.32537	0.75
9.35909	0.777
9.39281	0.786
9.42653	0.78
9.46025	0.688
9.49397	0.761
9.52769	0.78
9.56141	0.781
9.59513	0.777
9.62885	0.759
9.66257	0.697
9.6963	0.664
9.73002	0.675
9.76374	0.587
9.79746	0.562
9.83118	0.664
9.8649	0.683
9.89862	0.536
9.93234	0.671
9.96606	0.71
9.99978	0.603
10.0335	0.516
10.0672	0.679
10.1009	0.749
10.1347	0.712
10.1684	0.598
10.2021	0.671
10.2358	0.753
10.2695	0.786
10.3033	0.796
10.337	0.804
10.3707	0.812
10.4044	0.808
10.4381	0.79
10.4719	0.746
10.5056	0.675
10.5393	0.731
10.573	0.793
10.6068	0.826
10.6405	0.799
10.6742	0.759
10.7079	0.704
10.7416	0.66
10.7754	0.66
10.8091	0.765
10.8428	0.79
10.8765	0.71
10.9102	0.653
10.944	0.771
10.9777	0.812
11.0114	0.812
11.0451	0.831
11.0788	0.842
11.1126	0.811
11.1463	0.744
11.18	0.781
11.2137	0.794
11.2474	0.778
11.2812	0.786
11.3149	0.836
11.3486	0.851
11.3823	0.851
11.416	0.854
11.4498	0.861
11.4835	0.87
11.5172	0.881
11.5509	0.88
11.5846	0.876
11.6184	0.868
11.6521	0.827
11.6858	0.823
11.7195	0.802
11.7533	0.784
11.787	0.829
11.8207	0.864
11.8544	0.876
11.8881	0.876
11.9219	0.856
11.9556	0.825
11.9893	0.786
12.023	0.807
12.0567	0.851
12.0905	0.874
12.1242	0.881
12.1579	0.885
12.1916	0.887
12.2253	0.892
12.2591	0.893
12.2928	0.892
12.3265	0.89
12.3602	0.884
12.3939	0.878
12.4277	0.872
12.4614	0.882
12.4951	0.88
12.5288	0.864
12.5625	0.8
12.5963	0.782
12.63	0.814
12.6637	0.854
12.6974	0.855
12.7311	0.841
12.7649	0.8
12.7986	0.756
12.8323	0.636
12.866	0.555
12.8998	0.741
12.9335	0.808
12.9672	0.833
13.0009	0.843
13.0346	0.854
13.0684	0.859
13.1021	0.856
13.1358	0.843
13.1695	0.806
13.2032	0.749
13.237	0.636
13.2707	0.678
13.3044	0.703
13.3381	0.559
13.3718	0.373
13.4056	0.446
13.4393	0.7
13.473	0.712
13.5067	0.648
13.5404	0.636
13.5742	0.708
13.6079	0.744
13.6416	0.743
13.6753	0.767
13.709	0.79
13.7428	0.806
13.7765	0.819
13.8102	0.823
13.8439	0.823
13.8776	0.821
13.9114	0.81
13.9451	0.806
13.9788	0.819
14.0125	0.829
14.0463	0.836
14.08	0.841
14.1137	0.842
14.1474	0.841
14.1811	0.836
14.2149	0.827
14.2486	0.813
14.2823	0.78
14.316	0.716
14.3497	0.653
14.3835	0.703
14.4172	0.774
14.4509	0.798
14.4846	0.806
14.5183	0.812
14.5521	0.814
14.5858	0.814
14.6195	0.812
14.6532	0.806
14.6869	0.798
14.7207	0.788
14.7544	0.764
14.7881	0.718
14.8218	0.666
14.8555	0.661
14.8893	0.706
14.923	0.753
14.9567	0.768
14.9904	0.764
15.0241	0.759
15.0579	0.772
15.0916	0.778
15.1253	0.778
15.159	0.778
