Infrared Spectrum: N,N-DIMETHYL-4-NITRO-3-PHENYLSULFONYLANILINE
Formula: C14 H14 N2 O4 S
CAS: 19770-95-7
State: SOLID (SPLIT MULL), FLUOROLUBE FOR 4000-1340 CM^-^1, NUJOL FOR 1340-400 CM^-^1
Melting point: 236 C
Class: COBLENTZ III
Instrument: BECKMAN IR-12 (GRATING)
Instrument parameters: GRATING CHANGES: 300, 650, 2000 CM^-^1
Sampling: TRANSMISSION
Resolution: 2
Origin: EASTMAN KODAK COMPANY
1/CM	TRANSMITTANCE
400.303	0.56
409.387	0.571
418.471	0.566
427.555	0.629
436.639	0.664
445.723	0.693
454.807	0.735
463.891	0.724
472.975	0.767
482.059	0.811
491.143	0.818
500.227	0.77
509.311	0.843
518.395	0.866
527.479	0.791
536.563	0.539
545.647	0.844
554.731	0.891
563.815	0.831
572.9	0.47
581.984	0.786
591.068	0.329
600.152	0.7201
609.236	0.8499
618.32	0.595
627.404	0.94
636.488	0.977
645.572	0.977
654.656	0.935
663.74	0.81
672.824	0.749
681.908	0.6
690.992	0.365
700.076	0.856
709.16	0.914
718.244	0.659
727.328	0.614
736.412	0.82
745.496	0.87
754.58	0.564
763.664	0.916
772.748	0.941
781.832	0.942
790.916	0.875
800	0.36
809.084	0.904
818.168	0.356
827.252	0.9
836.336	0.957
845.42	0.917
854.504	0.902
863.588	0.923
872.672	0.894
881.756	0.947
890.84	0.942
899.925	0.935
909.009	0.938
918.093	0.928
927.177	0.915
936.261	0.893
945.345	0.884
954.429	0.86
963.513	0.762
972.597	0.854
981.681	0.88
990.765	0.88
999.849	0.776
1008.93	0.857
1018.02	0.751
1027.1	0.708
1036.18	0.6
1045.27	0.85
1054.35	0.85
1063.44	0.786
1072.52	0.59
1081.61	0.707
1090.69	0.431
1099.77	0.69
1108.86	0.758
1117.94	0.707
1127.03	0.455
1136.11	0.287
1145.19	0.472
1154.28	0.105
1163.36	0.372
1172.45	0.584
1181.53	0.666
1190.61	0.664
1199.7	0.661
1208.78	0.707
1217.87	0.709
1226.95	0.63
1236.03	0.538
1245.12	0.65
1254.2	0.62
1263.29	0.54
1272.37	0.526
1281.45	0.58
1290.54	0.364
1299.62	0.382
1308.71	0.098
1317.79	0.14
1326.87	0.082
1335.96	0.157
1345.04	0.253
1354.13	0.517
1363.21	0.589
1372.29	0.552
1381.38	0.308
1390.46	0.701
1399.55	0.75
1408.63	0.758
1417.71	0.606
1426.8	0.748
1435.88	0.677
1444.97	0.444
1454.05	0.703
1463.13	0.64
1472.22	0.623
1481.3	0.498
1490.39	0.436
1499.47	0.208
1508.55	0.507
1517.64	0.491
1526.72	0.533
1535.81	0.75
1544.89	0.751
1553.97	0.613
1563.06	0.544
1572.14	0.635
1581.23	0.498
1590.31	0.256
1599.39	0.127
1608.48	0.4761
1617.56	0.797
1626.65	0.904
1635.73	0.939
1644.81	0.95
1653.9	0.96
1662.98	0.953
1672.07	0.955
1681.15	0.944
1690.23	0.924
1699.32	0.935
1708.4	0.932
1717.49	0.928
1726.57	0.914
1735.66	0.894
1744.74	0.908
1753.82	0.902
1762.91	0.899
1771.99	0.889
1781.08	0.879
1790.16	0.886
1799.24	0.88
1808.33	0.873
1817.41	0.864
1826.5	0.853
1835.58	0.866
1844.66	0.861
1853.75	0.86
1862.83	0.86
1871.92	0.851
1881	0.847
1890.08	0.843
1899.17	0.832
1908.25	0.827
1917.34	0.838
1926.42	0.828
1935.5	0.83
1944.59	0.831
1953.67	0.825
1962.76	0.824
1971.84	0.819
1980.92	0.817
1990.01	0.802
1999.09	0.809
2008.18	0.809
2017.26	0.806
2026.34	0.8009
2035.43	0.797
2044.51	0.796
2053.6	0.7904
2062.68	0.788
2071.76	0.7854
2080.85	0.783
2089.93	0.7794
2099.02	0.773
2108.1	0.77
2117.18	0.766
2126.27	0.7623
2135.35	0.76
2144.44	0.7543
2153.52	0.7506
2162.6	0.748
2171.69	0.7453
2180.77	0.7412
2189.86	0.7392
2198.94	0.7354
2208.02	0.734
2217.11	0.7312
2226.19	0.721
2235.28	0.7142
2244.36	0.7091
2253.44	0.7001
2262.53	0.6981
2271.61	0.6941
2280.7	0.6901
2289.78	0.6871
2298.86	0.6831
2307.95	0.68
2317.03	0.676
2326.12	0.674
2335.2	0.673
2344.28	0.671
2353.37	0.668
2362.45	0.668
2371.54	0.67
2380.62	0.67
2389.71	0.67
2398.79	0.67
2407.87	0.67
2416.96	0.669
2426.04	0.669
2435.13	0.668
2444.21	0.6629
2453.29	0.661
2462.38	0.662
2471.46	0.662
2480.55	0.662
2489.63	0.661
2498.71	0.66
2507.8	0.66
2516.88	0.659
2525.97	0.6567
2535.05	0.6547
2544.13	0.6517
2553.22	0.65
2562.3	0.647
2571.39	0.6447
2580.47	0.6417
2589.55	0.6396
2598.64	0.638
2607.72	0.635
2616.81	0.633
2625.89	0.63
2634.97	0.6286
2644.06	0.626
2653.14	0.6221
2662.23	0.6155
2671.31	0.609
2680.39	0.602
2689.48	0.599
2698.56	0.6065
2707.65	0.612
2716.73	0.6085
2725.81	0.6044
2734.9	0.602
2743.98	0.5994
2753.07	0.5948
2762.15	0.592
2771.23	0.589
2780.32	0.586
2789.4	0.5754
2798.49	0.5713
2807.57	0.5607
2816.65	0.55
2825.74	0.557
2834.82	0.557
2843.91	0.5543
2852.99	0.5503
2862.07	0.5442
2871.16	0.539
2880.24	0.538
2889.33	0.5296
2898.41	0.5182
2907.49	0.5122
2916.58	0.5072
2925.66	0.5021
2934.75	0.5019
2943.83	0.5088
2952.91	0.5091
2962	0.5138
2971.08	0.5259
2980.17	0.5369
2989.25	0.5469
2998.33	0.5423
3007.42	0.5311
3016.5	0.543
3025.59	0.54
3034.67	0.53
3043.76	0.541
3052.84	0.5289
3061.92	0.5059
3071.01	0.4925
3080.09	0.467
3089.18	0.4876
3098.26	0.4599
3107.34	0.5086
3116.43	0.5381
3125.51	0.539
3134.6	0.5369
3143.68	0.5317
3152.76	0.528
3161.85	0.526
3170.93	0.526
3180.02	0.5268
3189.1	0.5218
3198.18	0.521
3207.27	0.5207
3216.35	0.52
3225.44	0.5149
3234.52	0.5126
3243.6	0.5137
3252.69	0.51
3261.77	0.507
3270.86	0.506
3279.94	0.505
3289.02	0.503
3298.11	0.5006
3307.19	0.4986
3316.28	0.496
3325.36	0.494
3334.44	0.494
3343.53	0.4915
3352.61	0.49
3361.7	0.488
3370.78	0.4855
3379.86	0.4835
3388.95	0.4815
3398.03	0.48
3407.12	0.4785
3416.2	0.4764
3425.28	0.476
3434.37	0.4744
3443.45	0.473
3452.54	0.471
3461.62	0.47
3470.7	0.469
3479.79	0.4683
3488.87	0.468
3497.96	0.468
3507.04	0.466
3516.12	0.4643
3525.21	0.463
3534.29	0.461
3543.38	0.46
3552.46	0.459
3561.54	0.458
3570.63	0.4562
3579.71	0.455
3588.8	0.454
3597.88	0.453
3606.96	0.45
3616.05	0.4491
3625.13	0.448
3634.22	0.446
3643.3	0.4441
3652.38	0.4421
3661.47	0.441
3670.55	0.44
3679.64	0.439
3688.72	0.438
3697.81	0.437
3706.89	0.435
3715.97	0.434
3725.06	0.433
3734.14	0.432
3743.23	0.431
3752.31	0.43
3761.39	0.429
3770.48	0.428
3779.56	0.426
3788.65	0.424
3797.73	0.422
3806.81	0.42
3815.9	0.42
3824.98	0.42
3834.07	0.418
3843.15	0.4168
3852.23	0.414
3861.32	0.414
3870.4	0.4128
3879.49	0.411
3888.57	0.4097
3897.65	0.408
3906.74	0.407
3915.82	0.405
3924.91	0.403
3933.99	0.401
3943.07	0.4
3952.16	0.4
3961.24	0.3986
3970.33	0.396
3979.41	0.396
3988.49	0.396
3997.58	0.396
