Infrared Spectrum: Aniline, N,N-Dimethyl-p-(p-ChloroPhenylSulfonamido)-
Formula: C14 H15 Cl N2 O2 S
CAS: 19770-72-0
State: SOLID (SPLIT MULL), FLUOROLUBE FOR 4000-1340 CM^-^1, NUJOL FOR 1340-400 CM^-^1
Melting point: 120 C
Class: COBLENTZ III
Instrument: BECKMAN IR-12 (GRATING)
Instrument parameters: GRATING CHANGE: 300, 650, 2000 CM^-^1
Sampling: TRANSMISSION
Resolution: 2
Origin: EASTMAN KODAK COMPANY
1/CM	TRANSMITTANCE
402	0.6721
412	0.6972
422	0.6935
432	0.7484
442	0.7858
452	0.8147
462	0.8573
472	0.8488
482	0.5861
492	0.8657
502	0.8608
512	0.8943
522	0.7328
532	0.4739
542	0.884
552	0.9506
562	0.9306
572	0.7662
582	0.674
592	0.9467
602	0.893
612	0.865
622	0.9114
632	0.9086
642	0.8927
652	0.7643
662	0.6119
672	0.4122
682	0.4372
692	0.7804
702	0.8748
712	0.7435
722	0.8793
732	0.9052
742	0.4946
752	0.506
762	0.5105
772	0.863
782	0.9367
792	0.9457
802	0.8437
812	0.5623
822	0.7804
832	0.2928
842	0.9051
852	0.9301
862	0.9356
872	0.9346
882	0.903
892	0.7896
902	0.5761
912	0.8349
922	0.9124
932	0.8484
942	0.8018
952	0.648
962	0.8709
972	0.9021
982	0.9314
992	0.9403
1002	0.93
1012	0.8995
1022	0.9224
1032	0.9223
1042	0.9088
1052	0.8778
1062	0.6926
1072	0.7889
1082	0.6049
1092	0.2019
1102	0.5896
1112	0.8115
1122	0.7504
1132	0.755
1142	0.6926
1152	0.3509
1162	0.0596
1172	0.6944
1182	0.4846
1192	0.8276
1202	0.8291
1212	0.7725
1222	0.5372
1232	0.5605
1242	0.7736
1252	0.8466
1262	0.8485
1272	0.8088
1282	0.4865
1292	0.7317
1302	0.741
1312	0.4702
1322	0.5504
1332	0.222
1342	0.368
1352	0.5282
1362	0.6457
1372	0.7879
1382	0.7222
1392	0.4315
1402	0.5905
1412	0.884
1422	0.837
1432	0.6933
1442	0.5806
1452	0.7037
1462	0.8054
1472	0.6108
1482	0.6817
1492	0.7605
1502	0.6224
1512	0.3107
1522	0.1672
1532	0.5994
1542	0.8698
1552	0.9135
1562	0.852
1572	0.7076
1582	0.7304
1592	0.7937
1602	0.7346
1612	0.4213
1622	0.8149
1632	0.9631
1642	0.9828
1652	0.9491
1662	0.9832
1672	0.9881
1682	0.9831
1692	0.9759
1702	0.9681
1712	0.965
1722	0.9591
1732	0.9496
1742	0.9366
1752	0.9275
1762	0.9305
1772	0.9158
1782	0.9079
1792	0.8994
1802	0.9086
1812	0.9057
1822	0.8996
1832	0.892
1842	0.8786
1852	0.8735
1862	0.8721
1872	0.8598
1882	0.8433
1892	0.8495
1902	0.8476
1912	0.8184
1922	0.8563
1932	0.858
1942	0.8537
1952	0.8482
1962	0.8405
1972	0.8406
1982	0.8386
1992	0.832
2002	0.8236
2012	0.8189
2022	0.8143
2032	0.8093
2042	0.804
2052	0.7979
2062	0.7914
2072	0.7855
2082	0.7797
2092	0.7736
2102	0.7684
2112	0.767
2122	0.7634
2132	0.7587
2142	0.7541
2152	0.7495
2162	0.745
2172	0.7401
2182	0.7342
2192	0.7284
2202	0.7224
2212	0.7159
2222	0.7056
2232	0.6946
2242	0.6841
2252	0.6732
2262	0.669
2272	0.6658
2282	0.6627
2292	0.6588
2302	0.6532
2312	0.6474
2322	0.6417
2332	0.6385
2342	0.6381
2352	0.6357
2362	0.6343
2372	0.6377
2382	0.6417
2392	0.6437
2402	0.6415
2412	0.6392
2422	0.6382
2432	0.6378
2442	0.6356
2452	0.6316
2462	0.6281
2472	0.6246
2482	0.6211
2492	0.6178
2502	0.6149
2512	0.6127
2522	0.6112
2532	0.6064
2542	0.6009
2552	0.5953
2562	0.5899
2572	0.5899
2582	0.5863
2592	0.5815
2602	0.5767
2612	0.572
2622	0.5673
2632	0.5622
2642	0.5571
2652	0.5505
2662	0.5454
2672	0.5431
2682	0.5421
2692	0.5407
2702	0.5348
2712	0.5289
2722	0.5235
2732	0.5192
2742	0.511
2752	0.4969
2762	0.4739
2772	0.4525
2782	0.4346
2792	0.4158
2802	0.409
2812	0.4434
2822	0.4692
2832	0.4687
2842	0.4452
2852	0.4338
2862	0.4292
2872	0.4116
2882	0.4108
2892	0.4213
2902	0.431
2912	0.4363
2922	0.4381
2932	0.4452
2942	0.4547
2952	0.4628
2962	0.468
2972	0.4714
2982	0.4675
2992	0.4554
3002	0.4588
3012	0.4675
3022	0.4659
3032	0.4541
3042	0.4513
3052	0.4483
3062	0.4431
3072	0.4354
3082	0.4286
3092	0.4007
3102	0.4333
3112	0.4362
3122	0.4322
3132	0.4257
3142	0.4177
3152	0.4066
3162	0.3931
3172	0.3771
3182	0.3591
3192	0.3395
3202	0.3145
3212	0.2713
3222	0.2297
3232	0.1759
3242	0.1094
3252	0.1681
3262	0.39
3272	0.4716
3282	0.4895
3292	0.4922
3302	0.4919
3312	0.4891
3322	0.4831
3332	0.4735
3342	0.4654
3352	0.4579
3362	0.4508
3372	0.4443
3382	0.4385
3392	0.4333
3402	0.4288
3412	0.4252
3422	0.4223
3432	0.4193
3442	0.4166
3452	0.4141
3462	0.4116
3472	0.4092
3482	0.4069
3492	0.4046
3502	0.4023
3512	0.3998
3522	0.3973
3532	0.3947
3542	0.3922
3552	0.3897
3562	0.3868
3572	0.3838
3582	0.3808
3592	0.3778
3602	0.3748
3612	0.3729
3622	0.371
3632	0.3691
3642	0.3672
3652	0.3652
3662	0.3631
3672	0.361
3682	0.3588
3692	0.3567
3702	0.3554
3712	0.3542
3722	0.3527
3732	0.3507
3742	0.3487
3752	0.3467
3762	0.3447
3772	0.3423
3782	0.3396
3792	0.337
3802	0.3343
3812	0.3317
3822	0.3302
3832	0.3287
3842	0.327
3852	0.3252
3862	0.3239
3872	0.3226
3882	0.3211
3892	0.3194
3902	0.3176
3912	0.3159
3922	0.314
3932	0.3119
3942	0.3098
3952	0.3077
3962	0.3056
3972	0.3035
3982	0.3017
3992	0.3
4002	0.2983
