Infrared Spectrum: p-PHENYLENEDIAMINE, N,N-DIETHYL-N',N'-BIS(p-TOLYLSULFONYL)-
Formula: C24 H28 N2 O4 S2
CAS: 19770-88-8
State: SOLID (KBr DISC)
Melting point: 200 C
Class: COBLENTZ II
Instrument: BECKMAN IR-12 (GRATING)
Instrument parameters: GRATING CHANGE: 300, 650, 2000 CM^-^1
Sampling: TRANSMISSION
Resolution: 2
Origin: EASTMAN KODAK COMPANY
1/CM	TRANSMITTANCE
402	0.8639
411	0.8188
420	0.8549
429	0.8899
438	0.876
447	0.8835
456	0.8937
465	0.8914
474	0.8779
483	0.7726
492	0.849
501	0.8421
510	0.778
519	0.7463
528	0.7
537	0.3959
546	0.0974
555	0.0706
564	0.426
573	0.8259
582	0.878
591	0.9012
600	0.9012
609	0.7882
618	0.8089
627	0.9138
636	0.8596
645	0.8056
654	0.5417
663	0.076
672	0.671
681	0.833
690	0.9274
699	0.8839
708	0.7922
717	0.9017
726	0.9494
735	0.9222
744	0.9383
753	0.9616
762	0.9566
771	0.9433
780	0.9358
789	0.8141
798	0.7154
807	0.7357
816	0.7069
825	0.9175
834	0.9138
843	0.8949
852	0.8725
861	0.8208
870	0.6391
879	0.1757
888	0.1124
897	0.6117
906	0.8024
915	0.8092
924	0.6352
933	0.6889
942	0.4253
951	0.7924
960	0.8975
969	0.8966
978	0.9035
987	0.9081
996	0.8922
1005	0.7831
1014	0.8073
1023	0.7498
1032	0.8575
1041	0.8237
1050	0.8154
1059	0.845
1068	0.808
1077	0.6473
1086	0.2962
1095	0.5514
1104	0.7809
1113	0.835
1122	0.7568
1131	0.8488
1140	0.8214
1149	0.7255
1158	0.4511
1167	0.1759
1176	0.136
1185	0.6071
1194	0.7367
1203	0.5657
1212	0.8028
1221	0.8363
1230	0.7942
1239	0.678
1248	0.8526
1257	0.8506
1266	0.6184
1275	0.4003
1284	0.7765
1293	0.7311
1302	0.8489
1311	0.6126
1320	0.8595
1329	0.8086
1338	0.7361
1347	0.516
1356	0.2228
1365	0.435
1374	0.0588
1383	0.5227
1392	0.7358
1401	0.6242
1410	0.7198
1419	0.82
1428	0.8204
1437	0.822
1446	0.6831
1455	0.7882
1464	0.8069
1473	0.752
1482	0.7908
1491	0.6451
1500	0.7245
1509	0.4995
1518	0.1343
1527	0.5002
1536	0.8038
1545	0.8868
1554	0.8947
1563	0.8798
1572	0.8677
1581	0.7718
1590	0.5659
1599	0.319
1608	0.454
1617	0.6946
1626	0.8188
1635	0.888
1644	0.9011
1653	0.9059
1662	0.9327
1671	0.939
1680	0.9427
1689	0.9473
1698	0.9505
1707	0.953
1716	0.949
1725	0.9496
1734	0.9388
1743	0.9445
1752	0.9425
1761	0.9426
1770	0.9525
1779	0.9551
1788	0.9506
1797	0.9435
1806	0.9233
1815	0.9335
1824	0.9356
1833	0.9418
1842	0.9493
1851	0.9515
1860	0.9463
1869	0.9402
1878	0.9212
1887	0.9316
1896	0.9307
1905	0.9309
1914	0.9019
1923	0.9265
1932	0.9393
1941	0.9389
1950	0.9429
1959	0.9387
1968	0.9371
1977	0.9428
1986	0.9409
1995	0.9413
2004	0.9386
2013	0.9361
2022	0.9357
2031	0.9357
2040	0.9357
2049	0.9355
2058	0.9354
2067	0.9333
2076	0.9288
2085	0.9277
2094	0.931
2103	0.9313
2112	0.9274
2121	0.9251
2130	0.927
2139	0.9263
2148	0.925
2157	0.926
2166	0.9249
2175	0.9225
2184	0.9213
2193	0.9218
2202	0.9244
2211	0.9261
2220	0.9265
2229	0.9256
2238	0.9241
2247	0.9203
2256	0.9123
2265	0.9117
2274	0.9143
2283	0.9137
2292	0.913
2301	0.9115
2310	0.9118
2319	0.9156
2328	0.9173
2337	0.9172
2346	0.9181
2355	0.9186
2364	0.9132
2373	0.9092
2382	0.9107
2391	0.9104
2400	0.906
2409	0.9045
2418	0.9037
2427	0.9031
2436	0.9028
2445	0.9025
2454	0.9024
2463	0.9023
2472	0.9018
2481	0.9008
2490	0.9005
2499	0.9008
2508	0.8991
2517	0.8946
2526	0.8927
2535	0.8942
2544	0.8933
2553	0.8879
2562	0.8824
2571	0.8843
2580	0.8853
2589	0.8807
2598	0.8753
2607	0.8785
2616	0.8822
2625	0.8869
2634	0.8908
2643	0.891
2652	0.889
2661	0.8859
2670	0.8822
2679	0.8782
2688	0.8767
2697	0.8779
2706	0.8822
2715	0.8805
2724	0.877
2733	0.875
2742	0.8768
2751	0.8765
2760	0.8744
2769	0.8691
2778	0.8675
2787	0.864
2796	0.8589
2805	0.8514
2814	0.8479
2823	0.8468
2832	0.8396
2841	0.8266
2850	0.8114
2859	0.7898
2868	0.7724
2877	0.7356
2886	0.7417
2895	0.7206
2904	0.6853
2913	0.6942
2922	0.6849
2931	0.6889
2940	0.6801
2949	0.7327
2958	0.7593
2967	0.7072
2976	0.5215
2985	0.4917
2994	0.776
3003	0.8196
3012	0.8299
3021	0.8255
3030	0.8108
3039	0.8031
3048	0.799
3057	0.8105
3066	0.8382
3075	0.85
3084	0.8474
3093	0.8461
3102	0.8526
3111	0.8572
3120	0.8571
3129	0.8568
3138	0.8599
3147	0.8593
3156	0.8614
3165	0.8612
3174	0.86
3183	0.8576
3192	0.8548
3201	0.8532
3210	0.8547
3219	0.8573
3228	0.8593
3237	0.8587
3246	0.8571
3255	0.8551
3264	0.8532
3273	0.8512
3282	0.8493
3291	0.8479
3300	0.8466
3309	0.8459
3318	0.8453
3327	0.8437
3336	0.8417
3345	0.8392
3354	0.8367
3363	0.8341
3372	0.8315
3381	0.8287
3390	0.8255
3399	0.8223
3408	0.8224
3417	0.8215
3426	0.8184
3435	0.8175
3444	0.8181
3453	0.8186
3462	0.8192
3471	0.8196
3480	0.8202
3489	0.8212
3498	0.8223
3507	0.8234
3516	0.8241
3525	0.8243
3534	0.8245
3543	0.8256
3552	0.827
3561	0.8285
3570	0.8293
3579	0.8299
3588	0.8304
3597	0.8309
3606	0.8313
3615	0.8316
3624	0.8317
3633	0.8311
3642	0.8315
3651	0.8334
3660	0.8345
3669	0.8342
3678	0.8339
3687	0.8318
3696	0.8304
3705	0.8321
3714	0.8326
3723	0.8305
3732	0.8288
3741	0.8283
3750	0.8284
3759	0.8304
3768	0.8338
3777	0.8337
3786	0.8334
3795	0.8329
3804	0.8321
3813	0.8307
3822	0.8279
3831	0.825
3840	0.824
3849	0.8236
3858	0.8233
3867	0.8229
3876	0.8227
3885	0.8225
3894	0.8219
3903	0.8211
3912	0.8205
3921	0.8199
3930	0.8193
3939	0.8185
3948	0.8183
3957	0.8182
3966	0.8175
3975	0.8142
3984	0.8117
3993	0.8117
