Infrared Spectrum: Aniline, 4-(N,N-DimethylAmino)-2-(p-ChloroPhenylSulfonyl)-
Formula: C14 H15 Cl N2 O2 S
CAS: 19770-81-1
State: SOLID (SPLIT MULL), FLUOROLUBE FOR 4000-1340 CM^-^1, NUJOL FOR 1340-400 CM^-^1
Melting point: 164 C
Class: COBLENTZ III
Instrument: BECKMAN IR-12 (GRATING)
Instrument parameters: GRATING CHANGE: 300, 650, 2000 CM^-^1
Sampling: TRANSMISSION
Resolution: 2
Origin: EASTMAN KODAK COMPANY
1/CM	TRANSMITTANCE
402	0.889
411	0.8963
420	0.8804
429	0.8398
438	0.7895
447	0.8676
456	0.8733
465	0.8804
474	0.8588
483	0.5874
492	0.8932
501	0.9764
510	0.9091
519	0.9616
528	0.9465
537	0.7284
546	0.866
555	0.7116
564	0.711
573	0.581
582	0.2791
591	0.4759
600	0.7668
609	0.783
618	0.7316
627	0.4921
636	0.5053
645	0.686
654	0.6944
663	0.6516
672	0.6088
681	0.4909
690	0.7752
699	0.7985
708	0.4484
717	0.7067
726	0.7503
735	0.8088
744	0.8367
753	0.8198
762	0.7371
771	0.5385
780	0.562
789	0.79
798	0.8546
807	0.6614
816	0.3988
825	0.7875
834	0.5804
843	0.8121
852	0.7958
861	0.5883
870	0.8912
879	0.9655
888	0.9723
897	0.9722
906	0.9714
915	0.9585
924	0.9469
933	0.9292
942	0.9155
951	0.8934
960	0.7951
969	0.5994
978	0.8684
987	0.9366
996	0.9348
1005	0.9117
1014	0.549
1023	0.895
1032	0.8772
1041	0.6797
1050	0.8209
1059	0.8003
1068	0.7002
1077	0.4987
1086	0.283
1095	0.5463
1104	0.5893
1113	0.6489
1122	0.6524
1131	0.4502
1140	0.248
1149	0.1757
1158	0.4755
1167	0.4684
1176	0.3815
1185	0.5926
1194	0.697
1203	0.7162
1212	0.697
1221	0.6471
1230	0.5058
1239	0.4605
1248	0.5297
1257	0.4908
1266	0.5177
1275	0.2931
1284	0.369
1293	0.2393
1302	0.2106
1311	0.4155
1320	0.3312
1329	0.6271
1338	0.696
1347	0.5578
1356	0.4463
1365	0.5373
1374	0.6731
1383	0.6953
1392	0.5699
1401	0.691
1410	0.5345
1419	0.6322
1428	0.4866
1437	0.5103
1446	0.5454
1455	0.6535
1464	0.6001
1473	0.5173
1482	0.4551
1491	0.4251
1500	0.2496
1509	0.1195
1518	0.2879
1527	0.6644
1536	0.8081
1545	0.9047
1554	0.8624
1563	0.8596
1572	0.7125
1581	0.7513
1590	0.7928
1599	0.729
1608	0.5467
1617	0.5106
1626	0.727
1635	0.8647
1644	0.8995
1653	0.9007
1662	0.8892
1671	0.8658
1680	0.8798
1689	0.9019
1698	0.9012
1707	0.8967
1716	0.8874
1725	0.883
1734	0.8685
1743	0.8576
1752	0.8532
1761	0.8471
1770	0.84
1779	0.8333
1788	0.8273
1797	0.8214
1806	0.8161
1815	0.8106
1824	0.8047
1833	0.7992
1842	0.7941
1851	0.7857
1860	0.7736
1869	0.7622
1878	0.7811
1887	0.7791
1896	0.7734
1905	0.7658
1914	0.7553
1923	0.7446
1932	0.757
1941	0.7609
1950	0.7593
1959	0.7564
1968	0.7523
1977	0.7493
1986	0.7448
1995	0.7389
2004	0.7328
2013	0.7294
2022	0.726
2031	0.7226
2040	0.7192
2049	0.7156
2058	0.7113
2067	0.707
2076	0.7027
2085	0.6984
2094	0.6945
2103	0.6906
2112	0.6867
2121	0.6828
2130	0.6788
2139	0.6747
2148	0.6706
2157	0.6665
2166	0.6621
2175	0.6575
2184	0.6529
2193	0.6479
2202	0.643
2211	0.6377
2220	0.6319
2229	0.6261
2238	0.6196
2247	0.6129
2256	0.6069
2265	0.6025
2274	0.599
2283	0.5958
2292	0.5929
2301	0.5902
2310	0.5878
2319	0.5877
2328	0.5871
2337	0.5863
2346	0.5886
2355	0.5856
2364	0.5852
2373	0.5857
2382	0.5847
2391	0.5829
2400	0.5812
2409	0.5793
2418	0.5776
2427	0.5762
2436	0.575
2445	0.5749
2454	0.5748
2463	0.5724
2472	0.5702
2481	0.5682
2490	0.5662
2499	0.5642
2508	0.5622
2517	0.5602
2526	0.5573
2535	0.5544
2544	0.5515
2553	0.5492
2562	0.5471
2571	0.5451
2580	0.5448
2589	0.5415
2598	0.5392
2607	0.5413
2616	0.5372
2625	0.5336
2634	0.53
2643	0.5252
2652	0.5196
2661	0.5138
2670	0.5068
2679	0.5038
2688	0.5009
2697	0.4995
2706	0.4972
2715	0.4941
2724	0.4894
2733	0.4851
2742	0.481
2751	0.4767
2760	0.4653
2769	0.4485
2778	0.4332
2787	0.4165
2796	0.3972
2805	0.3855
2814	0.3884
2823	0.4093
2832	0.4409
2841	0.4371
2850	0.4252
2859	0.4133
2868	0.4059
2877	0.4011
2886	0.3975
2895	0.3988
2904	0.4092
2913	0.4104
2922	0.4063
2931	0.4043
2940	0.4054
2949	0.4111
2958	0.4204
2967	0.4226
2976	0.4238
2985	0.429
2994	0.4366
3003	0.4447
3012	0.4422
3021	0.4367
3030	0.4423
3039	0.442
3048	0.4372
3057	0.4371
3066	0.4409
3075	0.4211
3084	0.4018
3093	0.4179
3102	0.4355
3111	0.4387
3120	0.438
3129	0.4369
3138	0.4352
3147	0.4331
3156	0.4297
3165	0.4258
3174	0.4215
3183	0.4161
3192	0.4086
3201	0.4
3210	0.3955
3219	0.393
3228	0.3956
3237	0.3993
3246	0.3994
3255	0.3977
3264	0.3955
3273	0.3933
3282	0.3894
3291	0.3836
3300	0.3761
3309	0.3664
3318	0.3546
3327	0.3367
3336	0.3115
3345	0.2573
3354	0.1441
3363	0.3382
3372	0.4161
3381	0.4074
3390	0.3908
3399	0.3731
3408	0.3515
3417	0.3326
3426	0.2774
3435	0.1921
3444	0.2736
3453	0.411
3462	0.4182
3471	0.4168
3480	0.4127
3489	0.4084
3498	0.4044
3507	0.4016
3516	0.3988
3525	0.3965
3534	0.3942
3543	0.3919
3552	0.39
3561	0.3881
3570	0.3863
3579	0.3845
3588	0.3832
3597	0.3819
3606	0.3807
3615	0.3789
3624	0.3764
3633	0.3739
3642	0.3714
3651	0.3689
3660	0.3668
3669	0.3649
3678	0.363
3687	0.3611
3696	0.3592
3705	0.3577
3714	0.3564
3723	0.355
3732	0.3537
3741	0.3523
3750	0.351
3759	0.3493
3768	0.3477
3777	0.346
3786	0.3444
3795	0.3427
3804	0.341
3813	0.3394
3822	0.3378
3831	0.3363
3840	0.3347
3849	0.3331
3858	0.3319
3867	0.331
3876	0.3309
3885	0.3303
3894	0.3294
3903	0.3285
3912	0.3272
3921	0.3258
3930	0.3245
3939	0.323
3948	0.3216
3957	0.3201
3966	0.3186
3975	0.3173
3984	0.3168
3993	0.3163
