Infrared Spectrum: N-BENZOYL-4-NITRO-3-PHENYLSULFONYLANILINE
Formula: C19 H14 N2 O5 S
CAS: 19770-93-5
State: SOLID (SPLIT MULL), FLUOROLUBE FOR 4000-1340 CM^-^1, NUJOL FOR 1340-400 CM^-^1
Melting point: 255 C
Class: COBLENTZ III
Instrument: BECKMAN IR-12 (GRATING)
Instrument parameters: GRATING CHANGE: 300, 650, 2000 CM^-^1
Sampling: TRANSMISSION
Resolution: 2
Origin: EASTMAN KODAK COMPANY
1/CM	TRANSMITTANCE
399	0.8995
409	0.9453
419	0.939
429	0.912
439	0.8151
449	0.8754
459	0.9452
469	0.9458
479	0.8872
489	0.9512
499	0.9399
509	0.8555
519	0.9367
529	0.6723
539	0.8241
549	0.9117
559	0.6996
569	0.8266
579	0.8405
589	0.428
599	0.6748
609	0.6453
619	0.5844
629	0.7781
639	0.8014
649	0.854
659	0.8513
669	0.7229
679	0.6063
689	0.371
699	0.4025
709	0.6953
719	0.8062
729	0.6534
739	0.5615
749	0.5609
759	0.9028
769	0.9232
779	0.9245
789	0.9183
799	0.8083
809	0.9016
819	0.8889
829	0.8195
839	0.495
849	0.4224
859	0.887
869	0.8955
879	0.8758
889	0.7517
899	0.5746
909	0.7783
919	0.8383
929	0.749
939	0.8607
949	0.8615
959	0.8516
969	0.8014
979	0.8377
989	0.8067
999	0.738
1009	0.8098
1019	0.7255
1029	0.7062
1039	0.6767
1049	0.6718
1059	0.7398
1069	0.5645
1079	0.6088
1089	0.5726
1099	0.6403
1109	0.7498
1119	0.7111
1129	0.4713
1139	0.2332
1149	0.3908
1159	0.1754
1169	0.5887
1179	0.5827
1189	0.5972
1199	0.6108
1209	0.5624
1219	0.4992
1229	0.3333
1239	0.2332
1249	0.3602
1259	0.4004
1269	0.5475
1279	0.2506
1289	0.1917
1299	0.3744
1309	0.3085
1319	0.3206
1329	0.2221
1339	0.1781
1349	0.337
1359	0.6177
1369	0.7454
1379	0.6252
1389	0.7606
1399	0.7889
1409	0.76
1419	0.7287
1429	0.6887
1439	0.6238
1449	0.3808
1459	0.6017
1469	0.5171
1479	0.3336
1489	0.2913
1499	0.3821
1509	0.2743
1519	0.1147
1529	0.163
1539	0.1393
1549	0.396
1559	0.7607
1569	0.7941
1579	0.525
1589	0.3471
1599	0.7072
1609	0.8513
1619	0.9384
1629	0.919
1639	0.8935
1649	0.8532
1659	0.8307
1669	0.7109
1679	0.4583
1689	0.2518
1699	0.7211
1709	0.8181
1719	0.8471
1729	0.8614
1739	0.8598
1749	0.8439
1759	0.8319
1769	0.8288
1779	0.8304
1789	0.818
1799	0.798
1809	0.7893
1819	0.7976
1829	0.7996
1839	0.799
1849	0.7928
1859	0.7835
1869	0.7756
1879	0.7631
1889	0.747
1899	0.7541
1909	0.7502
1919	0.751
1929	0.744
1939	0.7307
1949	0.7217
1959	0.716
1969	0.7249
1979	0.7192
1989	0.7172
1999	0.7166
2009	0.7055
2019	0.699
2029	0.6935
2039	0.688
2049	0.6829
2059	0.6779
2069	0.6728
2079	0.6675
2089	0.6621
2099	0.6568
2109	0.6517
2119	0.6466
2129	0.6414
2139	0.637
2149	0.6329
2159	0.6288
2169	0.623
2179	0.6161
2189	0.6078
2199	0.6037
2209	0.6002
2219	0.5963
2229	0.5922
2239	0.588
2249	0.5827
2259	0.5773
2269	0.5731
2279	0.5681
2289	0.5633
2299	0.559
2309	0.5566
2319	0.558
2329	0.5541
2339	0.5508
2349	0.5528
2359	0.5599
2369	0.5666
2379	0.5495
2389	0.5409
2399	0.5386
2409	0.5364
2419	0.534
2429	0.5312
2439	0.5285
2449	0.5262
2459	0.5238
2469	0.5215
2479	0.5198
2489	0.5181
2499	0.5164
2509	0.5146
2519	0.512
2529	0.5094
2539	0.5057
2549	0.5012
2559	0.4947
2569	0.4887
2579	0.4885
2589	0.4893
2599	0.4868
2609	0.4825
2619	0.4774
2629	0.4754
2639	0.476
2649	0.4756
2659	0.4735
2669	0.4717
2679	0.4695
2689	0.467
2699	0.4643
2709	0.4614
2719	0.4573
2729	0.4538
2739	0.4514
2749	0.4486
2759	0.4454
2769	0.4422
2779	0.4389
2789	0.4356
2799	0.4323
2809	0.4298
2819	0.4272
2829	0.4246
2839	0.4224
2849	0.4201
2859	0.4186
2869	0.4178
2879	0.4163
2889	0.4148
2899	0.4128
2909	0.4106
2919	0.4085
2929	0.4057
2939	0.4026
2949	0.3995
2959	0.3959
2969	0.3923
2979	0.3884
2989	0.3831
2999	0.3778
3009	0.3714
3019	0.363
3029	0.3473
3039	0.325
3049	0.3455
3059	0.3577
3069	0.3461
3079	0.3566
3089	0.3575
3099	0.3462
3109	0.3184
3119	0.3262
3129	0.3579
3139	0.3661
3149	0.3695
3159	0.3656
3169	0.3614
3179	0.3597
3189	0.3562
3199	0.3539
3209	0.3557
3219	0.355
3229	0.3514
3239	0.3474
3249	0.3435
3259	0.3386
3269	0.3322
3279	0.3265
3289	0.329
3299	0.3265
3309	0.3192
3319	0.3133
3329	0.3092
3339	0.3061
3349	0.2927
3359	0.2749
3369	0.2507
3379	0.2202
3389	0.1908
3399	0.2371
3409	0.3426
3419	0.3455
3429	0.3442
3439	0.3408
3449	0.3356
3459	0.3301
3469	0.3255
3479	0.3219
3489	0.3194
3499	0.3169
3509	0.3145
3519	0.3129
3529	0.3112
3539	0.3096
3549	0.3079
3559	0.3063
3569	0.3048
3579	0.3032
3589	0.3017
3599	0.3003
3609	0.2988
3619	0.2974
3629	0.2958
3639	0.2942
3649	0.2926
3659	0.291
3669	0.2896
3679	0.2882
3689	0.2872
3699	0.2862
3709	0.2853
3719	0.284
3729	0.2827
3739	0.2813
3749	0.28
3759	0.2784
3769	0.2765
3779	0.2746
3789	0.2727
3799	0.2715
3809	0.2702
3819	0.269
3829	0.2678
3839	0.2666
3849	0.2656
3859	0.2657
3869	0.2629
3879	0.2598
3889	0.2576
3899	0.2563
3909	0.2552
3919	0.2541
3929	0.2528
3939	0.2514
3949	0.2501
3959	0.2487
3969	0.2474
3979	0.2462
3989	0.2455
3999	0.2449
