Infrared Spectrum: ANILINE, N,N-DIETHYL-p-(p-TOLYLSULFONAMIDO)-
Formula: C17 H22 N2 O2 S
CAS: 19770-76-4
State: SOLID (SPLIT MULL), FLUOROLUBE FOR 4000-1340 CM^-^1, NUJOL FOR 1340-400 CM^-^1
Class: COBLENTZ III
Instrument: BECKMAN IR-12 (GRATING)
Instrument parameters: GRATING CHANGE: 300, 650, 2000 CM^-^1
Sampling: TRANSMISSION
Resolution: 2
Origin: EASTMAN KODAK COMPANY
1/CM	TRANSMITTANCE
403	0.8672
413	0.8836
423	0.9017
433	0.9
443	0.8736
453	0.866
463	0.9225
473	0.9517
483	0.9587
493	0.8822
503	0.9403
513	0.8269
523	0.819
533	0.6141
543	0.8647
553	0.5026
563	0.8995
573	0.9275
583	0.8772
593	0.6347
603	0.8677
613	0.8575
623	0.8564
633	0.8985
643	0.8972
653	0.8623
663	0.7631
673	0.482
683	0.4459
693	0.6969
703	0.8332
713	0.838
723	0.7026
733	0.8303
743	0.8782
753	0.9077
763	0.9094
773	0.9007
783	0.863
793	0.7008
803	0.8361
813	0.4145
823	0.4607
833	0.7406
843	0.8574
853	0.9136
863	0.9167
873	0.9076
883	0.8865
893	0.8541
903	0.8091
913	0.7604
923	0.4252
933	0.4962
943	0.7908
953	0.8278
963	0.8779
973	0.8615
983	0.8739
993	0.8511
1003	0.7739
1013	0.6687
1023	0.7757
1033	0.8153
1043	0.8161
1053	0.8195
1063	0.7929
1073	0.6461
1083	0.6051
1093	0.4419
1103	0.6873
1113	0.7331
1123	0.6386
1133	0.5511
1143	0.4057
1153	0.2403
1163	0.1746
1173	0.5607
1183	0.7278
1193	0.6932
1203	0.4273
1213	0.7068
1223	0.6962
1233	0.6028
1243	0.7973
1253	0.7736
1263	0.5057
1273	0.3958
1283	0.7025
1293	0.5719
1303	0.6116
1313	0.4677
1323	0.5542
1333	0.2958
1343	0.5897
1353	0.5579
1363	0.5558
1373	0.597
1383	0.5838
1393	0.528
1403	0.3936
1413	0.6949
1423	0.7597
1433	0.7132
1443	0.5655
1453	0.5305
1463	0.4612
1473	0.6925
1483	0.7139
1493	0.5622
1503	0.4642
1513	0.2831
1523	0.2813
1533	0.5294
1543	0.7473
1553	0.8565
1563	0.8873
1573	0.8886
1583	0.8667
1593	0.8327
1603	0.7758
1613	0.59
1623	0.7918
1633	0.8699
1643	0.885
1653	0.8695
1663	0.8945
1673	0.8959
1683	0.8946
1693	0.8952
1703	0.8936
1713	0.8928
1723	0.8906
1733	0.8839
1743	0.8825
1753	0.8701
1763	0.8692
1773	0.8698
1783	0.8661
1793	0.8619
1803	0.8569
1813	0.8505
1823	0.8572
1833	0.8539
1843	0.8446
1853	0.841
1863	0.8388
1873	0.8212
1883	0.8241
1893	0.8397
1903	0.8323
1913	0.8305
1923	0.8164
1933	0.8328
1943	0.8336
1953	0.8283
1963	0.8218
1973	0.8202
1983	0.8151
1993	0.8147
2003	0.8102
2013	0.8073
2023	0.8038
2033	0.8029
2043	0.798
2053	0.7942
2063	0.7924
2073	0.7904
2083	0.788
2093	0.7855
2103	0.783
2113	0.7807
2123	0.7787
2133	0.7764
2143	0.774
2153	0.7711
2163	0.7682
2173	0.7652
2183	0.7621
2193	0.7593
2203	0.7567
2213	0.7527
2223	0.7462
2233	0.7393
2243	0.7358
2253	0.734
2263	0.7324
2273	0.7305
2283	0.7267
2293	0.7224
2303	0.7184
2313	0.7171
2323	0.7171
2333	0.71
2343	0.706
2353	0.7024
2363	0.6949
2373	0.7004
2383	0.7116
2393	0.7071
2403	0.7032
2413	0.7019
2423	0.7009
2433	0.7003
2443	0.6992
2453	0.697
2463	0.6943
2473	0.6917
2483	0.6898
2493	0.6879
2503	0.6858
2513	0.6832
2523	0.6803
2533	0.6774
2543	0.6748
2553	0.6723
2563	0.6687
2573	0.6651
2583	0.6618
2593	0.6589
2603	0.6561
2613	0.6535
2623	0.6511
2633	0.6486
2643	0.646
2653	0.643
2663	0.6401
2673	0.6336
2683	0.6279
2693	0.6268
2703	0.6265
2713	0.6253
2723	0.6218
2733	0.6164
2743	0.611
2753	0.6061
2763	0.6012
2773	0.5964
2783	0.5919
2793	0.5875
2803	0.5825
2813	0.5764
2823	0.5705
2833	0.5624
2843	0.5486
2853	0.5283
2863	0.4988
2873	0.4653
2883	0.4692
2893	0.4597
2903	0.4658
2913	0.489
2923	0.4575
2933	0.4335
2943	0.4562
2953	0.4819
2963	0.4064
2973	0.3613
2983	0.4198
2993	0.5512
3003	0.596
3013	0.5845
3023	0.5609
3033	0.5511
3043	0.5535
3053	0.554
3063	0.5493
3073	0.5506
3083	0.5477
3093	0.5472
3103	0.5436
3113	0.5341
3123	0.5283
3133	0.5234
3143	0.5184
3153	0.5125
3163	0.5054
3173	0.4961
3183	0.485
3193	0.4675
3203	0.4461
3213	0.4114
3223	0.351
3233	0.2805
3243	0.2244
3253	0.2809
3263	0.3651
3273	0.4899
3283	0.5484
3293	0.5604
3303	0.5633
3313	0.5635
3323	0.5612
3333	0.558
3343	0.5544
3353	0.5507
3363	0.5461
3373	0.5415
3383	0.5372
3393	0.5331
3403	0.529
3413	0.5264
3423	0.524
3433	0.5215
3443	0.5193
3453	0.5173
3463	0.5152
3473	0.5129
3483	0.5103
3493	0.5079
3503	0.5076
3513	0.5072
3523	0.5061
3533	0.5051
3543	0.5029
3553	0.5006
3563	0.4983
3573	0.496
3583	0.4938
3593	0.4915
3603	0.4893
3613	0.4871
3623	0.4851
3633	0.4835
3643	0.4819
3653	0.4803
3663	0.4787
3673	0.4775
3683	0.4765
3693	0.4755
3703	0.4745
3713	0.4733
3723	0.4707
3733	0.4683
3743	0.4673
3753	0.4676
3763	0.4679
3773	0.4652
3783	0.4612
3793	0.4603
3803	0.4596
3813	0.4587
3823	0.4559
3833	0.4524
3843	0.4502
3853	0.4481
3863	0.4461
3873	0.4442
3883	0.4423
3893	0.4407
3903	0.4387
3913	0.4351
3923	0.4347
3933	0.4344
3943	0.4339
3953	0.4331
3963	0.4317
3973	0.4295
3983	0.4273
3993	0.4256
4003	0.4239
