Infrared Spectrum: ANILINE, N,N-DIETHYL-p-PHENYLSULFONAMIDO-
Formula: C16 H20 N2 O2 S
CAS: 19770-75-3
State: SOLID (SPLIT MULL), FLUOROLUBE FOR 4000-1340 CM^-^1, NUJOL FOR 1340-400 CM^-^1
Melting point: 124 C
Class: COBLENTZ III
Instrument: BECKMAN IR-12 (GRATING)
Instrument parameters: GRATING CHANGE: 300, 650, 2000 CM^-^1
Sampling: TRANSMISSION
Resolution: 2
Origin: EASTMAN KODAK COMPANY
1/CM	TRANSMITTANCE
402	0.881
411	0.8913
420	0.9134
429	0.9238
438	0.923
447	0.8901
456	0.91
465	0.9397
474	0.9638
483	0.9524
492	0.9665
501	0.9691
510	0.922
519	0.8758
528	0.7317
537	0.8343
546	0.9018
555	0.9265
564	0.8945
573	0.5153
582	0.7623
591	0.7208
600	0.868
609	0.8883
618	0.8899
627	0.88
636	0.8268
645	0.7965
654	0.7273
663	0.6289
672	0.7678
681	0.8756
690	0.6897
699	0.8724
708	0.8804
717	0.6315
726	0.5852
735	0.3502
744	0.6526
753	0.7959
762	0.6775
771	0.8849
780	0.8794
789	0.7959
798	0.828
807	0.5623
816	0.791
825	0.8857
834	0.8997
843	0.8969
852	0.9059
861	0.9186
870	0.9133
879	0.8974
888	0.8538
897	0.7617
906	0.6844
915	0.8325
924	0.8662
933	0.8531
942	0.7926
951	0.8711
960	0.8878
969	0.8864
978	0.874
987	0.8854
996	0.8603
1005	0.8134
1014	0.7791
1023	0.7984
1032	0.862
1041	0.8623
1050	0.8558
1059	0.836
1068	0.7539
1077	0.6712
1086	0.6267
1095	0.5426
1104	0.7827
1113	0.7971
1122	0.7724
1131	0.7401
1140	0.6572
1149	0.2633
1158	0.0638
1167	0.4666
1176	0.6543
1185	0.616
1194	0.5397
1203	0.7142
1212	0.787
1221	0.7955
1230	0.7201
1239	0.7128
1248	0.775
1257	0.7542
1266	0.4737
1275	0.6145
1284	0.7309
1293	0.5484
1302	0.6718
1311	0.5075
1320	0.5463
1329	0.3522
1338	0.3946
1347	0.4873
1356	0.5138
1365	0.6143
1374	0.5464
1383	0.6232
1392	0.5352
1401	0.3478
1410	0.6883
1419	0.7493
1428	0.7455
1437	0.6794
1446	0.4843
1455	0.5239
1464	0.6734
1473	0.706
1482	0.6792
1491	0.7223
1500	0.6683
1509	0.5112
1518	0.1872
1527	0.325
1536	0.6182
1545	0.7307
1554	0.7876
1563	0.7904
1572	0.7562
1581	0.7811
1590	0.7582
1599	0.7387
1608	0.592
1617	0.5207
1626	0.727
1635	0.7822
1644	0.7975
1653	0.7967
1662	0.8033
1671	0.8051
1680	0.811
1689	0.8117
1698	0.8138
1707	0.8222
1716	0.8255
1725	0.8248
1734	0.8232
1743	0.8269
1752	0.8278
1761	0.8272
1770	0.8244
1779	0.8158
1788	0.826
1797	0.8223
1806	0.8257
1815	0.8147
1824	0.8126
1833	0.8213
1842	0.8202
1851	0.8172
1860	0.8171
1869	0.8157
1878	0.8052
1887	0.7967
1896	0.8047
1905	0.7986
1914	0.8146
1923	0.8175
1932	0.8177
1941	0.8273
1950	0.8222
1959	0.8218
1968	0.8173
1977	0.8162
1986	0.8185
1995	0.8158
2004	0.8165
2013	0.8169
2022	0.8177
2031	0.8223
2040	0.8213
2049	0.8176
2058	0.8159
2067	0.8155
2076	0.815
2085	0.814
2094	0.8134
2103	0.813
2112	0.8125
2121	0.8129
2130	0.8137
2139	0.8135
2148	0.8132
2157	0.8123
2166	0.8109
2175	0.8091
2184	0.8075
2193	0.8061
2202	0.8039
2211	0.8015
2220	0.7992
2229	0.7961
2238	0.793
2247	0.7896
2256	0.7872
2265	0.789
2274	0.7884
2283	0.7866
2292	0.7851
2301	0.7833
2310	0.7815
2319	0.7799
2328	0.7778
2337	0.7769
2346	0.7785
2355	0.781
2364	0.7791
2373	0.7754
2382	0.7839
2391	0.783
2400	0.78
2409	0.7778
2418	0.7759
2427	0.7774
2436	0.7802
2445	0.777
2454	0.7728
2463	0.7693
2472	0.767
2481	0.7651
2490	0.7635
2499	0.7619
2508	0.7607
2517	0.7595
2526	0.7584
2535	0.7572
2544	0.756
2553	0.7549
2562	0.7538
2571	0.7528
2580	0.7512
2589	0.7491
2598	0.7467
2607	0.7441
2616	0.7414
2625	0.7388
2634	0.736
2643	0.7328
2652	0.7288
2661	0.7207
2670	0.7145
2679	0.7141
2688	0.7145
2697	0.7136
2706	0.712
2715	0.7092
2724	0.7053
2733	0.7017
2742	0.7015
2751	0.7021
2760	0.7001
2769	0.6921
2778	0.6827
2787	0.667
2796	0.6558
2805	0.6582
2814	0.6639
2823	0.6494
2832	0.6345
2841	0.6233
2850	0.6149
2859	0.6019
2868	0.5876
2877	0.5752
2886	0.5518
2895	0.5365
2904	0.5762
2913	0.5895
2922	0.5793
2931	0.5497
2940	0.5237
2949	0.572
2958	0.5606
2967	0.4895
2976	0.3985
2985	0.5261
2994	0.6289
3003	0.645
3012	0.6491
3021	0.6459
3030	0.6356
3039	0.6246
3048	0.6077
3057	0.5943
3066	0.5875
3075	0.5897
3084	0.6037
3093	0.6079
3102	0.5996
3111	0.5997
3120	0.5941
3129	0.5855
3138	0.5638
3147	0.5355
3156	0.5177
3165	0.4973
3174	0.4676
3183	0.4241
3192	0.385
3201	0.3281
3210	0.2519
3219	0.1965
3228	0.1986
3237	0.3318
3246	0.4721
3255	0.5386
3264	0.5911
3273	0.6165
3282	0.6363
3291	0.6532
3300	0.6658
3309	0.6702
3318	0.6695
3327	0.6677
3336	0.665
3345	0.6617
3354	0.6583
3363	0.6547
3372	0.6513
3381	0.6478
3390	0.6449
3399	0.6422
3408	0.6395
3417	0.6371
3426	0.6344
3435	0.6316
3444	0.629
3453	0.6263
3462	0.6237
3471	0.621
3480	0.6184
3489	0.6155
3498	0.613
3507	0.611
3516	0.6089
3525	0.6063
3534	0.6038
3543	0.6021
3552	0.6006
3561	0.5993
3570	0.5983
3579	0.5972
3588	0.5962
3597	0.5947
3606	0.5936
3615	0.5919
3624	0.5864
3633	0.5886
3642	0.5882
3651	0.5866
3660	0.5847
3669	0.5828
3678	0.581
3687	0.5795
3696	0.5782
3705	0.578
3714	0.5769
3723	0.5752
3732	0.5735
3741	0.5715
3750	0.5688
3759	0.5662
3768	0.5635
3777	0.5613
3786	0.5593
3795	0.5576
3804	0.556
3813	0.5541
3822	0.5522
3831	0.5503
3840	0.5492
3849	0.5481
3858	0.5469
3867	0.5454
3876	0.5439
3885	0.5423
3894	0.5406
3903	0.5389
3912	0.537
3921	0.5351
3930	0.5345
3939	0.5376
3948	0.5315
3957	0.5283
3966	0.5284
3975	0.5279
3984	0.5234
3993	0.5218
