Infrared Spectrum: ANILINE, 4-(N,N-DIMETHYLAMINO)-2-(3,4-DIMETHYLPHENYLSULFONYL)-
Formula: C16 H20 N2 O2 S
CAS: 19770-82-2
State: SOLID (SPLIT MULL), FLUOROLUBE FOR 4000-1340 CM^-^1, NUJOL FOR 1340-400 CM^-^1
Melting point: 148 C
Class: COBLENTZ III
Instrument: BECKMAN IR-12 (GRATING)
Instrument parameters: GRATING CHANGE: 300, 650, 2000 CM^-^1
Sampling: TRANSMISSION
Resolution: 2
Origin: EASTMAN KODAK COMPANY
1/CM	TRANSMITTANCE
401	0.7709
410	0.7989
419	0.8142
428	0.8322
437	0.806
446	0.8626
455	0.9161
464	0.9327
473	0.9468
482	0.9634
491	0.9633
500	0.9546
509	0.9276
518	0.8579
527	0.7737
536	0.809
545	0.7977
554	0.6695
563	0.8182
572	0.8497
581	0.8515
590	0.8252
599	0.5602
608	0.568
617	0.8186
626	0.8708
635	0.9042
644	0.9154
653	0.9068
662	0.497
671	0.8614
680	0.7943
689	0.7018
698	0.9729
707	0.6474
716	0.8879
725	0.939
734	0.9613
743	0.974
752	0.9721
761	0.92
770	0.9173
779	0.9687
788	0.9737
797	0.9694
806	0.9587
815	0.59
824	0.5936
833	0.9141
842	0.8962
851	0.8142
860	0.7917
869	0.9442
878	0.9495
887	0.9328
896	0.7259
905	0.9214
914	0.9477
923	0.9463
932	0.9389
941	0.9275
950	0.9049
959	0.8167
968	0.7828
977	0.9136
986	0.936
995	0.9288
1004	0.9161
1013	0.9208
1022	0.8654
1031	0.8935
1040	0.844
1049	0.8572
1058	0.8177
1067	0.8468
1076	0.8198
1085	0.7029
1094	0.688
1103	0.7722
1112	0.7725
1121	0.406
1130	0.5269
1139	0.6446
1148	0.6502
1157	0.5292
1166	0.7173
1175	0.6908
1184	0.7998
1193	0.8134
1202	0.8519
1211	0.8359
1220	0.7
1229	0.7533
1238	0.8396
1247	0.8487
1256	0.828
1265	0.7761
1274	0.5444
1283	0.3236
1292	0.6421
1301	0.7408
1310	0.6759
1319	0.5419
1328	0.707
1337	0.8347
1346	0.7528
1355	0.6818
1364	0.8014
1373	0.8215
1382	0.8279
1391	0.8001
1400	0.8092
1409	0.6993
1418	0.6989
1427	0.7701
1436	0.6898
1445	0.5972
1454	0.747
1463	0.7691
1472	0.7357
1481	0.639
1490	0.5968
1499	0.4129
1508	0.1928
1517	0.3613
1526	0.7631
1535	0.837
1544	0.8704
1553	0.8947
1562	0.9009
1571	0.922
1580	0.9221
1589	0.9053
1598	0.827
1607	0.7602
1616	0.7081
1625	0.8158
1634	0.8224
1643	0.9019
1652	0.9322
1661	0.9401
1670	0.9416
1679	0.9378
1688	0.9322
1697	0.931
1706	0.947
1715	0.9486
1724	0.9455
1733	0.9459
1742	0.9447
1751	0.9397
1760	0.9326
1769	0.9307
1778	0.9379
1787	0.9309
1796	0.9164
1805	0.9303
1814	0.9289
1823	0.9339
1832	0.9307
1841	0.9274
1850	0.9241
1859	0.9202
1868	0.9184
1877	0.9162
1886	0.9082
1895	0.9055
1904	0.9005
1913	0.9096
1922	0.9107
1931	0.9139
1940	0.9131
1949	0.9101
1958	0.9043
1967	0.9041
1976	0.9022
1985	0.9001
1994	0.898
2003	0.8879
2012	0.8831
2021	0.8823
2030	0.882
2039	0.8815
2048	0.881
2057	0.8794
2066	0.8779
2075	0.8758
2084	0.8738
2093	0.8714
2102	0.8691
2111	0.8672
2120	0.8653
2129	0.8646
2138	0.8616
2147	0.8576
2156	0.8543
2165	0.8518
2174	0.8492
2183	0.8466
2192	0.8441
2201	0.8416
2210	0.8397
2219	0.8386
2228	0.837
2237	0.8349
2246	0.8325
2255	0.8301
2264	0.8281
2273	0.8259
2282	0.8238
2291	0.8209
2300	0.8185
2309	0.8186
2318	0.8173
2327	0.8144
2336	0.8113
2345	0.8072
2354	0.8045
2363	0.8019
2372	0.7999
2381	0.8066
2390	0.8074
2399	0.8071
2408	0.8068
2417	0.8065
2426	0.8062
2435	0.8052
2444	0.8043
2453	0.8033
2462	0.8022
2471	0.8011
2480	0.8
2489	0.799
2498	0.7979
2507	0.7969
2516	0.7959
2525	0.7947
2534	0.7934
2543	0.7921
2552	0.7907
2561	0.7886
2570	0.7866
2579	0.7845
2588	0.782
2597	0.7794
2606	0.7768
2615	0.7751
2624	0.7734
2633	0.7717
2642	0.7702
2651	0.7687
2660	0.7661
2669	0.7634
2678	0.7607
2687	0.7574
2696	0.7542
2705	0.7509
2714	0.7467
2723	0.742
2732	0.7367
2741	0.727
2750	0.7053
2759	0.6811
2768	0.653
2777	0.6216
2786	0.637
2795	0.6905
2804	0.6926
2813	0.6809
2822	0.678
2831	0.665
2840	0.6509
2849	0.6644
2858	0.663
2867	0.6618
2876	0.6711
2885	0.6684
2894	0.6616
2903	0.6557
2912	0.6489
2921	0.646
2930	0.6498
2939	0.6445
2948	0.6351
2957	0.6621
2966	0.6687
2975	0.6672
2984	0.6559
2993	0.6673
3002	0.7027
3011	0.705
3020	0.7033
3029	0.6997
3038	0.6981
3047	0.6937
3056	0.6924
3065	0.6993
3074	0.6958
3083	0.692
3092	0.6886
3101	0.6948
3110	0.6965
3119	0.696
3128	0.6948
3137	0.6929
3146	0.6908
3155	0.688
3164	0.6844
3173	0.6802
3182	0.6754
3191	0.6673
3200	0.6578
3209	0.6491
3218	0.6528
3227	0.6569
3236	0.6569
3245	0.6564
3254	0.6556
3263	0.6545
3272	0.6534
3281	0.6506
3290	0.6467
3299	0.6389
3308	0.63
3317	0.619
3326	0.6032
3335	0.5794
3344	0.5468
3353	0.4926
3362	0.3089
3371	0.4722
3380	0.6008
3389	0.6325
3398	0.6374
3407	0.6367
3416	0.6288
3425	0.6073
3434	0.5765
3443	0.5391
3452	0.4339
3461	0.43
3470	0.5829
3479	0.6195
3488	0.6392
3497	0.6478
3506	0.6516
3515	0.6524
3524	0.6527
3533	0.6525
3542	0.6523
3551	0.6518
3560	0.6505
3569	0.6485
3578	0.6469
3587	0.6456
3596	0.6447
3605	0.6437
3614	0.6428
3623	0.6418
3632	0.641
3641	0.6401
3650	0.6388
3659	0.6361
3668	0.6323
3677	0.6282
3686	0.6252
3695	0.6251
3704	0.6288
3713	0.627
3722	0.6239
3731	0.6212
3740	0.6188
3749	0.618
3758	0.6203
3767	0.6198
3776	0.6162
3785	0.6138
3794	0.6122
3803	0.6105
3812	0.6089
3821	0.6072
3830	0.6056
3839	0.604
3848	0.6024
3857	0.6011
3866	0.6
3875	0.5989
3884	0.5981
3893	0.5973
3902	0.596
3911	0.5932
3920	0.5903
3929	0.5873
3938	0.5862
3947	0.5853
3956	0.5848
3965	0.5845
3974	0.5848
3983	0.5851
3992	0.5854
