Infrared Spectrum: ANILINE, N,N-DIETHYL-p-(p-CHLOROPHENYLSULFONAMIDO)-
Formula: C16 H19 Cl N2 O2 S
CAS: 19770-77-5
State: SOLID (SPLIT MULL), FLUOROLUBE FOR 4000-1340 CM^-^1, NUJOL FOR 1340-400 CM^-^1
Melting point: 153 C DECOMPOSES AT 154.5
Class: COBLENTZ III
Instrument: BECKMAN IR-12 (GRATING)
Instrument parameters: GRATING CHANGE: 300, 650, 2000 CM^-^1
Sampling: TRANSMISSION
Resolution: 2
Origin: EASTMAN KODAK COMPANY
1/CM	TRANSMITTANCE
401	0.7321
411	0.7516
421	0.7557
431	0.7497
441	0.7469
451	0.7765
461	0.8102
471	0.8138
481	0.5337
491	0.8227
501	0.9417
511	0.8214
521	0.8094
531	0.6308
541	0.9381
551	0.9671
561	0.9607
571	0.9386
581	0.8747
591	0.7181
601	0.7714
611	0.7694
621	0.7573
631	0.7135
641	0.4376
651	0.5414
661	0.5965
671	0.7182
681	0.8242
691	0.8918
701	0.8567
711	0.8343
721	0.7685
731	0.8926
741	0.8779
751	0.2398
761	0.8462
771	0.8964
781	0.8622
791	0.7102
801	0.8651
811	0.6675
821	0.3151
831	0.7614
841	0.8974
851	0.9517
861	0.9534
871	0.9437
881	0.9243
891	0.8863
901	0.8296
911	0.74
921	0.422
931	0.3544
941	0.8035
951	0.8296
961	0.9028
971	0.9091
981	0.9051
991	0.8907
1001	0.7627
1011	0.5524
1021	0.8578
1031	0.8923
1041	0.8896
1051	0.8749
1061	0.8373
1071	0.5818
1081	0.4457
1091	0.4087
1101	0.6841
1111	0.778
1121	0.7622
1131	0.6232
1141	0.4319
1151	0.3052
1161	0.0584
1171	0.4009
1181	0.4756
1191	0.6817
1201	0.4119
1211	0.7586
1221	0.7086
1231	0.5775
1241	0.7997
1251	0.7995
1261	0.5797
1271	0.2658
1281	0.6177
1291	0.7629
1301	0.5803
1311	0.481
1321	0.6258
1331	0.3299
1341	0.4982
1351	0.545
1361	0.6348
1371	0.6399
1381	0.6631
1391	0.4113
1401	0.2989
1411	0.7505
1421	0.847
1431	0.8075
1441	0.666
1451	0.5348
1461	0.4613
1471	0.6032
1481	0.7752
1491	0.7373
1501	0.5362
1511	0.1844
1521	0.1202
1531	0.4699
1541	0.768
1551	0.8603
1561	0.8717
1571	0.8061
1581	0.8157
1591	0.8861
1601	0.7923
1611	0.5606
1621	0.8254
1631	0.9123
1641	0.9157
1651	0.9105
1661	0.9199
1671	0.9332
1681	0.9454
1691	0.9532
1701	0.957
1711	0.9592
1721	0.9594
1731	0.9567
1741	0.9508
1751	0.9484
1761	0.9499
1771	0.9489
1781	0.9434
1791	0.9336
1801	0.9436
1811	0.9471
1821	0.9436
1831	0.9327
1841	0.9225
1851	0.9147
1861	0.9101
1871	0.8954
1881	0.9055
1891	0.9163
1901	0.9104
1911	0.9006
1921	0.8996
1931	0.9071
1941	0.9094
1951	0.907
1961	0.9048
1971	0.9064
1981	0.9019
1991	0.8988
2001	0.8956
2011	0.8936
2021	0.8911
2031	0.8879
2041	0.8842
2051	0.8796
2061	0.8757
2071	0.8727
2081	0.8701
2091	0.868
2101	0.8658
2111	0.8638
2121	0.8619
2131	0.86
2141	0.8581
2151	0.856
2161	0.8531
2171	0.8501
2181	0.8476
2191	0.8454
2201	0.8432
2211	0.8404
2221	0.8356
2231	0.8258
2241	0.8192
2251	0.8175
2261	0.8156
2271	0.8111
2281	0.8056
2291	0.8015
2301	0.7981
2311	0.796
2321	0.7971
2331	0.799
2341	0.7993
2351	0.7981
2361	0.7952
2371	0.7928
2381	0.7905
2391	0.7885
2401	0.7868
2411	0.7852
2421	0.7837
2431	0.7823
2441	0.7811
2451	0.7799
2461	0.7784
2471	0.776
2481	0.7737
2491	0.7714
2501	0.7692
2511	0.7671
2521	0.7643
2531	0.7612
2541	0.7582
2551	0.7545
2561	0.7521
2571	0.7513
2581	0.7497
2591	0.7485
2601	0.7457
2611	0.7425
2621	0.7393
2631	0.7361
2641	0.7325
2651	0.7289
2661	0.7239
2671	0.7193
2681	0.7162
2691	0.7144
2701	0.7135
2711	0.7127
2721	0.7106
2731	0.7059
2741	0.6995
2751	0.6941
2761	0.6897
2771	0.6858
2781	0.6809
2791	0.6745
2801	0.6663
2811	0.6605
2821	0.6569
2831	0.6564
2841	0.6462
2851	0.619
2861	0.5887
2871	0.5322
2881	0.5465
2891	0.5112
2901	0.5302
2911	0.562
2921	0.5302
2931	0.4928
2941	0.5254
2951	0.559
2961	0.4689
2971	0.3855
2981	0.3607
2991	0.6511
3001	0.6692
3011	0.6673
3021	0.651
3031	0.6347
3041	0.6211
3051	0.6271
3061	0.607
3071	0.5972
3081	0.5828
3091	0.5824
3101	0.6021
3111	0.6047
3121	0.5992
3131	0.5925
3141	0.5864
3151	0.581
3161	0.5749
3171	0.5692
3181	0.5568
3191	0.5362
3201	0.4976
3211	0.4277
3221	0.3635
3231	0.3024
3241	0.1657
3251	0.2502
3261	0.2485
3271	0.4837
3281	0.5652
3291	0.6087
3301	0.6214
3311	0.6259
3321	0.6308
3331	0.6303
3341	0.627
3351	0.623
3361	0.6212
3371	0.6173
3381	0.6125
3391	0.6077
3401	0.6042
3411	0.6015
3421	0.5993
3431	0.5971
3441	0.595
3451	0.5929
3461	0.5909
3471	0.5891
3481	0.5873
3491	0.5855
3501	0.5839
3511	0.5823
3521	0.5807
3531	0.5785
3541	0.5762
3551	0.574
3561	0.5722
3571	0.5703
3581	0.5684
3591	0.5666
3601	0.5647
3611	0.5627
3621	0.5607
3631	0.5588
3641	0.5568
3651	0.5549
3661	0.5531
3671	0.5513
3681	0.5496
3691	0.548
3701	0.5466
3711	0.5451
3721	0.5437
3731	0.5422
3741	0.5403
3751	0.5383
3761	0.5363
3771	0.5344
3781	0.5326
3791	0.5309
3801	0.5291
3811	0.5272
3821	0.5253
3831	0.5234
3841	0.5213
3851	0.5192
3861	0.517
3871	0.5144
3881	0.5118
3891	0.5096
3901	0.5075
3911	0.5054
3921	0.5031
3931	0.5007
3941	0.4985
3951	0.4972
3961	0.496
3971	0.4948
3981	0.4936
3991	0.4922
4001	0.4909
