Infrared Spectrum: p-PHENYLENEDIAMINE, N,N-DIMETHYL, N',N'-BIS(3,4-DIMETHYLPHENYL SULFONYL)-
Formula: C24 H28 N2 O4 S2
CAS: 19770-86-6
State: SOLID (SPLIT MULL), FLUOROLUBE FOR 4000-1340 CM^-^1, NUJOL FOR 1340-400 CM^-^1
Melting point: 198 C
Class: COBLENTZ III
Instrument: BECKMAN IR-12 (GRATING)
Instrument parameters: GRATING CHANGE: 300, 650, 2000 CM^-^1
Sampling: TRANSMISSION
Resolution: 2
Origin: EASTMAN KODAK COMPANY
1/CM	TRANSMITTANCE
402	0.548
412	0.5355
422	0.5811
432	0.6166
442	0.6039
452	0.6986
462	0.7364
472	0.7303
482	0.7136
492	0.7249
502	0.4451
512	0.7895
522	0.6086
532	0.5432
542	0.7536
552	0.8596
562	0.6719
572	0.5511
582	0.0562
592	0.6906
602	0.9139
612	0.9478
622	0.9349
632	0.7296
642	0.9144
652	0.8881
662	0.408
672	0.4932
682	0.6467
692	0.9366
702	0.5336
712	0.856
722	0.8515
732	0.9522
742	0.9556
752	0.9581
762	0.9496
772	0.9851
782	0.9841
792	0.9287
802	0.9528
812	0.8441
822	0.7866
832	0.9495
842	0.9577
852	0.9362
862	0.9004
872	0.7115
882	0.5159
892	0.3918
902	0.1733
912	0.6736
922	0.6741
932	0.8252
942	0.6741
952	0.3587
962	0.6764
972	0.8889
982	0.917
992	0.9289
1002	0.9032
1012	0.9033
1022	0.7422
1032	0.8724
1042	0.9209
1052	0.9118
1062	0.8028
1072	0.8522
1082	0.7386
1092	0.5839
1102	0.8284
1112	0.8428
1122	0.6742
1132	0.4738
1142	0.6576
1152	0.531
1162	0.0939
1172	0.5818
1182	0.6629
1192	0.2109
1202	0.7963
1212	0.7426
1222	0.5448
1232	0.6062
1242	0.8315
1252	0.878
1262	0.8947
1272	0.8972
1282	0.8582
1292	0.8257
1302	0.7096
1312	0.8421
1322	0.8218
1332	0.7728
1342	0.5207
1352	0.2207
1362	0.2919
1372	0.086
1382	0.6394
1392	0.6548
1402	0.8429
1412	0.8933
1422	0.8649
1432	0.8069
1442	0.5779
1452	0.5914
1462	0.7421
1472	0.8144
1482	0.7406
1492	0.639
1502	0.7369
1512	0.5506
1522	0.3167
1532	0.7376
1542	0.8841
1552	0.9413
1562	0.9107
1572	0.8725
1582	0.8653
1592	0.7206
1602	0.3902
1612	0.7037
1622	0.9342
1632	0.9435
1642	0.9477
1652	0.9459
1662	0.9585
1672	0.9589
1682	0.9567
1692	0.9572
1702	0.9536
1712	0.9502
1722	0.9435
1732	0.9397
1742	0.9247
1752	0.9136
1762	0.9136
1772	0.9145
1782	0.915
1792	0.9187
1802	0.9231
1812	0.9214
1822	0.9188
1832	0.916
1842	0.9123
1852	0.9095
1862	0.9083
1872	0.905
1882	0.8995
1892	0.8953
1902	0.8973
1912	0.8894
1922	0.8929
1932	0.8932
1942	0.8922
1952	0.8936
1962	0.8874
1972	0.8838
1982	0.88
1992	0.8774
2002	0.8744
2012	0.8717
2022	0.8673
2032	0.8626
2042	0.857
2052	0.8536
2062	0.8512
2072	0.8487
2082	0.8455
2092	0.8365
2102	0.8335
2112	0.8312
2122	0.8284
2132	0.8252
2142	0.8212
2152	0.8175
2162	0.8139
2172	0.8105
2182	0.8073
2192	0.8036
2202	0.7998
2212	0.7956
2222	0.7906
2232	0.7841
2242	0.7762
2252	0.7672
2262	0.7624
2272	0.7576
2282	0.754
2292	0.7545
2302	0.7523
2312	0.7486
2322	0.7458
2332	0.7437
2342	0.7437
2352	0.7437
2362	0.7438
2372	0.7472
2382	0.7527
2392	0.7478
2402	0.7467
2412	0.7458
2422	0.7445
2432	0.743
2442	0.7411
2452	0.7387
2462	0.7364
2472	0.7344
2482	0.7326
2492	0.7308
2502	0.7292
2512	0.7275
2522	0.7259
2532	0.7244
2542	0.7231
2552	0.7217
2562	0.7193
2572	0.7163
2582	0.7114
2592	0.7072
2602	0.7042
2612	0.7015
2622	0.6993
2632	0.697
2642	0.6947
2652	0.6924
2662	0.6898
2672	0.6871
2682	0.6844
2692	0.6806
2702	0.6768
2712	0.6718
2722	0.6663
2732	0.6615
2742	0.658
2752	0.6489
2762	0.6374
2772	0.6253
2782	0.6058
2792	0.5814
2802	0.5538
2812	0.5608
2822	0.5965
2832	0.589
2842	0.5617
2852	0.5291
2862	0.5135
2872	0.5334
2882	0.5244
2892	0.5091
2902	0.52
2912	0.5031
2922	0.467
2932	0.4938
2942	0.506
2952	0.5044
2962	0.5287
2972	0.5437
2982	0.545
2992	0.5779
3002	0.6053
3012	0.6088
3022	0.6087
3032	0.6079
3042	0.6007
3052	0.5918
3062	0.5869
3072	0.603
3082	0.6021
3092	0.5993
3102	0.5978
3112	0.5979
3122	0.5975
3132	0.5971
3142	0.5968
3152	0.5968
3162	0.5961
3172	0.5953
3182	0.5943
3192	0.5925
3202	0.5906
3212	0.5883
3222	0.5859
3232	0.5836
3242	0.5807
3252	0.5774
3262	0.5749
3272	0.5727
3282	0.5713
3292	0.5679
3302	0.5638
3312	0.5602
3322	0.5593
3332	0.559
3342	0.5587
3352	0.5576
3362	0.5555
3372	0.5535
3382	0.5512
3392	0.5474
3402	0.5446
3412	0.5424
3422	0.5398
3432	0.5371
3442	0.535
3452	0.533
3462	0.5311
3472	0.5292
3482	0.5281
3492	0.5272
3502	0.5266
3512	0.5265
3522	0.5265
3532	0.526
3542	0.5249
3552	0.5229
3562	0.5204
3572	0.5178
3582	0.5149
3592	0.5157
3602	0.5126
3612	0.5085
3622	0.5054
3632	0.504
3642	0.5034
3652	0.5032
3662	0.5032
3672	0.5017
3682	0.4999
3692	0.4978
3702	0.4959
3712	0.4943
3722	0.4927
3732	0.4913
3742	0.4899
3752	0.4885
3762	0.4875
3772	0.4864
3782	0.4845
3792	0.4824
3802	0.4818
3812	0.4809
3822	0.4794
3832	0.477
3842	0.4738
3852	0.4706
3862	0.4688
3872	0.467
3882	0.4638
3892	0.4604
3902	0.4592
3912	0.463
3922	0.4623
3932	0.4558
3942	0.4514
3952	0.4503
3962	0.4505
3972	0.4538
3982	0.4512
3992	0.4465
4002	0.4468
