Infrared Spectrum: ANILINE, N,N-DIMETHYL-p-(p-CYANOPHENYLSULFONAMIDO)-
Formula: C15 H15 N3 O2 S
CAS: 19770-74-2
State: SOLID (SPLIT MULL), FLUOROLUBE FOR 4000-1340 CM^-^1, NUJOL FOR 1340-400 CM^-^1
Melting point: 158 C
Class: COBLENTZ III
Instrument: BECKMAN IR-12 (GRATING)
Instrument parameters: GRATING CHANGE: 300, 650, 2000 CM^-^1
Sampling: TRANSMISSION
Resolution: 2
Origin: EASTMAN KODAK COMPANY
1/CM	TRANSMITTANCE
403	0.8173
412	0.8259
421	0.8329
430	0.828
439	0.8355
448	0.8325
457	0.8805
466	0.9319
475	0.973
484	0.9839
493	0.9724
502	0.9434
511	0.7885
520	0.7407
529	0.7666
538	0.9406
547	0.8261
556	0.7747
565	0.8306
574	0.4835
583	0.7702
592	0.8711
601	0.8795
610	0.8937
619	0.9163
628	0.7402
637	0.6297
646	0.6792
655	0.3957
664	0.505
673	0.6647
682	0.8184
691	0.8901
700	0.9524
709	0.9429
718	0.9167
727	0.9564
736	0.6983
745	0.9262
754	0.9475
763	0.9355
772	0.9309
781	0.7512
790	0.7719
799	0.68
808	0.7108
817	0.8511
826	0.7283
835	0.8153
844	0.7461
853	0.7671
862	0.9341
871	0.9226
880	0.8873
889	0.8356
898	0.6989
907	0.689
916	0.8597
925	0.8715
934	0.6898
943	0.7849
952	0.6653
961	0.8644
970	0.8782
979	0.8738
988	0.8686
997	0.86
1006	0.8372
1015	0.7783
1024	0.8237
1033	0.8271
1042	0.8142
1051	0.7917
1060	0.7176
1069	0.7016
1078	0.7479
1087	0.4939
1096	0.7092
1105	0.6997
1114	0.717
1123	0.678
1132	0.5995
1141	0.6222
1150	0.5216
1159	0.2499
1168	0.0604
1177	0.6585
1186	0.3047
1195	0.7235
1204	0.7462
1213	0.6121
1222	0.4791
1231	0.5575
1240	0.6338
1249	0.7674
1258	0.7736
1267	0.7614
1276	0.6965
1285	0.5413
1294	0.6488
1303	0.6543
1312	0.6561
1321	0.6783
1330	0.4665
1339	0.2938
1348	0.1497
1357	0.5788
1366	0.5321
1375	0.682
1384	0.6771
1393	0.552
1402	0.386
1411	0.7195
1420	0.6308
1429	0.8033
1438	0.6501
1447	0.6609
1456	0.7605
1465	0.7906
1474	0.7783
1483	0.7405
1492	0.7717
1501	0.6891
1510	0.5738
1519	0.3624
1528	0.2274
1537	0.6113
1546	0.8055
1555	0.8594
1564	0.8316
1573	0.8523
1582	0.8713
1591	0.7998
1600	0.7252
1609	0.5023
1618	0.5376
1627	0.8205
1636	0.8713
1645	0.8725
1654	0.8692
1663	0.8766
1672	0.8831
1681	0.8804
1690	0.8662
1699	0.8641
1708	0.8886
1717	0.888
1726	0.8843
1735	0.8734
1744	0.8681
1753	0.8688
1762	0.8658
1771	0.8602
1780	0.8518
1789	0.853
1798	0.8491
1807	0.843
1816	0.8346
1825	0.8236
1834	0.8363
1843	0.8302
1852	0.8201
1861	0.8131
1870	0.8107
1879	0.8086
1888	0.8064
1897	0.804
1906	0.8028
1915	0.8099
1924	0.8055
1933	0.8007
1942	0.8022
1951	0.7876
1960	0.7886
1969	0.7959
1978	0.7937
1987	0.7913
1996	0.7829
2005	0.7727
2014	0.7707
2023	0.7703
2032	0.7678
2041	0.7614
2050	0.7566
2059	0.7516
2068	0.7468
2077	0.7456
2086	0.7418
2095	0.7374
2104	0.7347
2113	0.734
2122	0.7307
2131	0.725
2140	0.7189
2149	0.7132
2158	0.7072
2167	0.7008
2176	0.6927
2185	0.6862
2194	0.6814
2203	0.6698
2212	0.654
2221	0.6153
2230	0.5393
2239	0.4035
2248	0.7318
2257	0.6954
2266	0.6876
2275	0.6818
2284	0.6769
2293	0.6726
2302	0.6687
2311	0.6654
2320	0.6628
2329	0.66
2338	0.6535
2347	0.6496
2356	0.6502
2365	0.6521
2374	0.6515
2383	0.6495
2392	0.6476
2401	0.6459
2410	0.6445
2419	0.6428
2428	0.6405
2437	0.6377
2446	0.6349
2455	0.632
2464	0.6291
2473	0.6261
2482	0.6231
2491	0.6196
2500	0.616
2509	0.6127
2518	0.6099
2527	0.6088
2536	0.6065
2545	0.6039
2554	0.6013
2563	0.5986
2572	0.5961
2581	0.5936
2590	0.591
2599	0.5883
2608	0.5856
2617	0.5825
2626	0.5789
2635	0.5752
2644	0.5715
2653	0.5676
2662	0.5634
2671	0.5591
2680	0.5546
2689	0.5493
2698	0.5473
2707	0.5433
2716	0.5379
2725	0.5336
2734	0.5261
2743	0.5168
2752	0.5185
2761	0.5073
2770	0.4951
2779	0.4808
2788	0.4536
2797	0.4311
2806	0.4178
2815	0.4291
2824	0.4595
2833	0.4732
2842	0.4573
2851	0.4339
2860	0.4389
2869	0.4369
2878	0.4293
2887	0.4315
2896	0.4389
2905	0.4512
2914	0.4456
2923	0.4402
2932	0.4409
2941	0.4416
2950	0.4432
2959	0.4474
2968	0.4522
2977	0.456
2986	0.4593
2995	0.4594
3004	0.4593
3013	0.4632
3022	0.457
3031	0.4475
3040	0.4315
3049	0.4255
3058	0.4401
3067	0.4294
3076	0.4055
3085	0.3737
3094	0.4106
3103	0.3738
3112	0.4244
3121	0.4239
3130	0.4132
3139	0.3997
3148	0.3849
3157	0.3687
3166	0.3529
3175	0.3342
3184	0.3059
3193	0.275
3202	0.2504
3211	0.219
3220	0.1595
3229	0.1279
3238	0.2111
3247	0.3184
3256	0.3892
3265	0.4418
3274	0.4533
3283	0.4621
3292	0.4694
3301	0.4758
3310	0.4811
3319	0.4842
3328	0.4815
3337	0.478
3346	0.4743
3355	0.4707
3364	0.4672
3373	0.4637
3382	0.4604
3391	0.457
3400	0.4537
3409	0.4506
3418	0.4475
3427	0.4448
3436	0.4426
3445	0.4404
3454	0.4383
3463	0.436
3472	0.4343
3481	0.4326
3490	0.431
3499	0.4294
3508	0.4278
3517	0.4263
3526	0.4249
3535	0.4234
3544	0.422
3553	0.4205
3562	0.4191
3571	0.4177
3580	0.4163
3589	0.4148
3598	0.4134
3607	0.412
3616	0.4106
3625	0.4091
3634	0.4077
3643	0.4062
3652	0.4048
3661	0.4033
3670	0.4019
3679	0.4002
3688	0.3986
3697	0.397
3706	0.3953
3715	0.393
3724	0.3908
3733	0.3886
3742	0.3867
3751	0.3849
3760	0.3834
3769	0.3822
3778	0.3794
3787	0.3772
3796	0.3763
3805	0.3748
3814	0.3727
3823	0.3702
3832	0.3674
3841	0.3667
3850	0.3664
3859	0.3635
3868	0.3592
3877	0.3559
3886	0.3562
3895	0.356
3904	0.3555
3913	0.3546
3922	0.353
3931	0.3513
3940	0.3498
3949	0.3482
3958	0.3469
3967	0.346
3976	0.345
3985	0.3441
3994	0.3431
