Infrared Spectrum: p-PHENYLENEDIAMINE, N,N-DIMETHYL-N',N'-BIS(PHENYLSULFONYL)
Formula: C20 H20 N2 O4 S2
CAS: 19770-84-4
State: SOLID (SPLIT MULL), FLUOROLUBE FOR 4000-1340 CM^-^1, NUJOL FOR 1340-400 CM^-^1
Melting point: 161 C
Class: COBLENTZ III
Instrument: BECKMAN IR-12 (GRATING)
Instrument parameters: GRATING CHANGE: 300, 650, 2000 CM^-^1
Sampling: TRANSMISSION
Resolution: 2
Origin: EASTMAN KODAK COMPANY
1/CM	TRANSMITTANCE
403	0.8255
412	0.817
421	0.8327
430	0.8742
439	0.9011
448	0.9074
457	0.9017
466	0.8717
475	0.8984
484	0.9581
493	0.959
502	0.9714
511	0.9619
520	0.9273
529	0.8327
538	0.5866
547	0.3017
556	0.1072
565	0.4024
574	0.5023
583	0.0843
592	0.4138
601	0.7893
610	0.8261
619	0.8579
628	0.8457
637	0.4468
646	0.7878
655	0.9119
664	0.9051
673	0.8478
682	0.3634
691	0.3298
700	0.8267
709	0.6832
718	0.2608
727	0.7781
736	0.8672
745	0.7796
754	0.48
763	0.7899
772	0.8661
781	0.9187
790	0.9292
799	0.9158
808	0.8018
817	0.8089
826	0.9296
835	0.9045
844	0.9163
853	0.8928
862	0.8745
871	0.777
880	0.5665
889	0.2216
898	0.2446
907	0.5736
916	0.6832
925	0.5625
934	0.7517
943	0.5645
952	0.3836
961	0.6012
970	0.8033
979	0.8293
988	0.8683
997	0.8564
1006	0.8241
1015	0.8481
1024	0.7703
1033	0.8436
1042	0.8452
1051	0.8358
1060	0.8078
1069	0.6249
1078	0.5986
1087	0.2765
1096	0.5573
1105	0.7382
1114	0.7339
1123	0.644
1132	0.6449
1141	0.621
1150	0.5309
1159	0.2528
1168	0.0515
1177	0.1439
1186	0.43
1195	0.6161
1204	0.7311
1213	0.7151
1222	0.4874
1231	0.5568
1240	0.722
1249	0.7883
1258	0.8071
1267	0.8021
1276	0.7825
1285	0.7407
1294	0.6341
1303	0.7359
1312	0.5985
1321	0.6043
1330	0.5058
1339	0.4951
1348	0.1469
1357	0.3238
1366	0.2661
1375	0.0831
1384	0.7894
1393	0.9242
1402	0.9462
1411	0.9062
1420	0.8935
1429	0.8499
1438	0.7586
1447	0.3444
1456	0.6673
1465	0.8382
1474	0.7847
1483	0.6858
1492	0.7717
1501	0.6708
1510	0.496
1519	0.245
1528	0.4328
1537	0.746
1546	0.8728
1555	0.9286
1564	0.9065
1573	0.8691
1582	0.7723
1591	0.6641
1600	0.3639
1609	0.6621
1618	0.8351
1627	0.9409
1636	0.9426
1645	0.9472
1654	0.9458
1663	0.9478
1672	0.9394
1681	0.9343
1690	0.9325
1699	0.9267
1708	0.9347
1717	0.93
1726	0.9284
1735	0.9205
1744	0.9085
1753	0.8995
1762	0.893
1771	0.8883
1780	0.8854
1789	0.8835
1798	0.877
1807	0.8617
1816	0.8579
1825	0.8469
1834	0.8649
1843	0.8653
1852	0.8621
1861	0.8625
1870	0.855
1879	0.845
1888	0.8366
1897	0.8338
1906	0.8328
1915	0.8176
1924	0.8271
1933	0.8316
1942	0.8258
1951	0.8273
1960	0.8197
1969	0.8166
1978	0.812
1987	0.8062
1996	0.8065
2005	0.7998
2014	0.7996
2023	0.7982
2032	0.7957
2041	0.792
2050	0.788
2059	0.7833
2068	0.7787
2077	0.7742
2086	0.7697
2095	0.7664
2104	0.7623
2113	0.7551
2122	0.7534
2131	0.7522
2140	0.7509
2149	0.7465
2158	0.7419
2167	0.7402
2176	0.7392
2185	0.7378
2194	0.7344
2203	0.7302
2212	0.7258
2221	0.7191
2230	0.7126
2239	0.7057
2248	0.6974
2257	0.6899
2266	0.6859
2275	0.6831
2284	0.6804
2293	0.6788
2302	0.6773
2311	0.6759
2320	0.6746
2329	0.6734
2338	0.6687
2347	0.668
2356	0.6711
2365	0.6739
2374	0.6723
2383	0.6702
2392	0.6677
2401	0.6646
2410	0.6616
2419	0.6586
2428	0.6558
2437	0.653
2446	0.6502
2455	0.6473
2464	0.6444
2473	0.6414
2482	0.6384
2491	0.6355
2500	0.6326
2509	0.6296
2518	0.6267
2527	0.6237
2536	0.6214
2545	0.6198
2554	0.6175
2563	0.6148
2572	0.6122
2581	0.6097
2590	0.6071
2599	0.6044
2608	0.6016
2617	0.5988
2626	0.5968
2635	0.5947
2644	0.5927
2653	0.5889
2662	0.5848
2671	0.5818
2680	0.5797
2689	0.5764
2698	0.5728
2707	0.5686
2716	0.5646
2725	0.5601
2734	0.5555
2743	0.5508
2752	0.5461
2761	0.539
2770	0.5293
2779	0.519
2788	0.5085
2797	0.4923
2806	0.463
2815	0.4653
2824	0.4903
2833	0.5045
2842	0.4942
2851	0.4779
2860	0.4649
2869	0.4678
2878	0.4723
2887	0.4588
2896	0.443
2905	0.4436
2914	0.4502
2923	0.4476
2932	0.4441
2941	0.4464
2950	0.4503
2959	0.4717
2968	0.4784
2977	0.4798
2986	0.4763
2995	0.4598
3004	0.4702
3013	0.4877
3022	0.4888
3031	0.4849
3040	0.483
3049	0.4753
3058	0.4631
3067	0.4479
3076	0.4392
3085	0.4709
3094	0.466
3103	0.4756
3112	0.4747
3121	0.4716
3130	0.4684
3139	0.4652
3148	0.4623
3157	0.4591
3166	0.4564
3175	0.4582
3184	0.4558
3193	0.4519
3202	0.4481
3211	0.4466
3220	0.4453
3229	0.4443
3238	0.4406
3247	0.438
3256	0.4364
3265	0.4348
3274	0.4336
3283	0.4323
3292	0.4311
3301	0.4298
3310	0.4285
3319	0.4268
3328	0.4252
3337	0.4235
3346	0.4218
3355	0.4201
3364	0.4174
3373	0.4148
3382	0.4122
3391	0.41
3400	0.4081
3409	0.4062
3418	0.4043
3427	0.4024
3436	0.4006
3445	0.3987
3454	0.3969
3463	0.395
3472	0.3932
3481	0.3914
3490	0.3896
3499	0.3876
3508	0.3851
3517	0.3826
3526	0.3801
3535	0.3775
3544	0.3759
3553	0.3743
3562	0.3727
3571	0.371
3580	0.3694
3589	0.3681
3598	0.3669
3607	0.3656
3616	0.3644
3625	0.3632
3634	0.3618
3643	0.3603
3652	0.3587
3661	0.3572
3670	0.3557
3679	0.3541
3688	0.3526
3697	0.351
3706	0.3494
3715	0.3477
3724	0.3461
3733	0.3445
3742	0.3429
3751	0.3413
3760	0.3394
3769	0.3376
3778	0.3358
3787	0.3339
3796	0.3321
3805	0.3303
3814	0.3284
3823	0.3266
3832	0.3248
3841	0.323
3850	0.3211
3859	0.3191
3868	0.3171
3877	0.315
3886	0.313
3895	0.3111
3904	0.3092
3913	0.3073
3922	0.3062
3931	0.305
3940	0.3035
3949	0.3019
3958	0.3002
3967	0.2983
3976	0.2969
3985	0.2953
3994	0.2936
