Infrared Spectrum: Aniline, N,N-diethyl-4-nitro-3-phenylsulfonyl-
Formula: C16 H18 N2 O4 S
CAS: 19771-00-7
State: SOLID (1.5%, KBr DISC)
Melting point: 158 C
Class: COBLENTZ II
Instrument: BECKMAN IR-12 (GRATING)
Instrument parameters: GRATING CHANGE: 300, 650, 2000 CM^-^1
Sampling: TRANSMISSION
Resolution: 2
Origin: EASTMAN KODAK COMPANY
1/CM	TRANSMITTANCE
401	0.6085
410	0.5872
419	0.627
428	0.6375
437	0.6579
446	0.6956
455	0.711
464	0.6971
473	0.7542
482	0.7937
491	0.8246
500	0.8166
509	0.8029
518	0.6335
527	0.8135
536	0.8518
545	0.8221
554	0.6911
563	0.8382
572	0.5887
581	0.709
590	0.4905
599	0.6276
608	0.8698
617	0.7518
626	0.6696
635	0.919
644	0.9372
653	0.928
662	0.8701
671	0.6924
680	0.8491
689	0.4444
698	0.534
707	0.8653
716	0.8732
725	0.67
734	0.9119
743	0.564
752	0.7592
761	0.7453
770	0.7324
779	0.676
788	0.8904
797	0.8532
806	0.8801
815	0.7391
824	0.7573
833	0.9446
842	0.9349
851	0.8138
860	0.9009
869	0.8944
878	0.9434
887	0.9408
896	0.9343
905	0.9295
914	0.9164
923	0.8402
932	0.8191
941	0.9123
950	0.9126
959	0.889
968	0.8981
977	0.8888
986	0.8728
995	0.8348
1004	0.7638
1013	0.7735
1022	0.7396
1031	0.536
1040	0.8037
1049	0.8384
1058	0.8357
1067	0.7417
1076	0.4929
1085	0.4102
1094	0.5904
1103	0.7406
1112	0.7855
1121	0.7485
1130	0.5784
1139	0.2981
1148	0.5406
1157	0.0929
1166	0.4436
1175	0.7136
1184	0.6431
1193	0.6034
1202	0.6794
1211	0.8315
1220	0.8267
1229	0.8189
1238	0.7944
1247	0.755
1256	0.5935
1265	0.3298
1274	0.5117
1283	0.5891
1292	0.4132
1301	0.4408
1310	0.1868
1319	0.0716
1328	0.0413
1337	0.0216
1346	0.2449
1355	0.4435
1364	0.6426
1373	0.7517
1382	0.5926
1391	0.7891
1400	0.7345
1409	0.6897
1418	0.816
1427	0.7757
1436	0.5682
1445	0.4968
1454	0.612
1463	0.71
1472	0.5349
1481	0.546
1490	0.4721
1499	0.2536
1508	0.5414
1517	0.4254
1526	0.5334
1535	0.778
1544	0.7643
1553	0.5397
1562	0.6318
1571	0.7156
1580	0.387
1589	0.1353
1598	0.0583
1607	0.4446
1616	0.6834
1625	0.8077
1634	0.8394
1643	0.8587
1652	0.8734
1661	0.8955
1670	0.9051
1679	0.9101
1688	0.9169
1697	0.9212
1706	0.9267
1715	0.9257
1724	0.9159
1733	0.9203
1742	0.9328
1751	0.9357
1760	0.9477
1769	0.9472
1778	0.9438
1787	0.9423
1796	0.9472
1805	0.9474
1814	0.9461
1823	0.9489
1832	0.9471
1841	0.9484
1850	0.9536
1859	0.9521
1868	0.9504
1877	0.9478
1886	0.9466
1895	0.9452
1904	0.9396
1913	0.9285
1922	0.936
1931	0.9412
1940	0.9437
1949	0.9459
1958	0.9431
1967	0.9422
1976	0.9365
1985	0.9384
1994	0.9414
2003	0.9426
2012	0.9418
2021	0.941
2030	0.9403
2039	0.9396
2048	0.9389
2057	0.9381
2066	0.9374
2075	0.9368
2084	0.9365
2093	0.936
2102	0.9355
2111	0.935
2120	0.9347
2129	0.9346
2138	0.9344
2147	0.9342
2156	0.9332
2165	0.9312
2174	0.9308
2183	0.9307
2192	0.9312
2201	0.9311
2210	0.9298
2219	0.9285
2228	0.927
2237	0.9259
2246	0.9253
2255	0.9247
2264	0.9234
2273	0.9224
2282	0.9238
2291	0.9235
2300	0.9225
2309	0.9226
2318	0.9221
2327	0.9211
2336	0.9222
2345	0.9268
2354	0.9191
2363	0.9204
2372	0.9313
2381	0.9308
2390	0.9182
2399	0.9159
2408	0.9158
2417	0.915
2426	0.9118
2435	0.9085
2444	0.9064
2453	0.9039
2462	0.9028
2471	0.906
2480	0.9072
2489	0.9121
2498	0.9112
2507	0.9079
2516	0.9028
2525	0.9027
2534	0.9045
2543	0.9045
2552	0.9022
2561	0.9023
2570	0.9023
2579	0.9015
2588	0.9003
2597	0.8983
2606	0.8949
2615	0.8904
2624	0.8872
2633	0.8903
2642	0.8947
2651	0.8885
2660	0.8825
2669	0.8738
2678	0.8643
2687	0.865
2696	0.8728
2705	0.8808
2714	0.885
2723	0.8848
2732	0.8836
2741	0.8831
2750	0.8876
2759	0.8856
2768	0.8787
2777	0.8729
2786	0.8699
2795	0.8652
2804	0.8553
2813	0.8522
2822	0.8342
2831	0.8174
2840	0.7491
2849	0.6548
2858	0.6296
2867	0.6555
2876	0.6752
2885	0.7002
2894	0.6627
2903	0.6135
2912	0.5373
2921	0.4312
2930	0.4335
2939	0.5185
2948	0.5869
2957	0.5827
2966	0.5809
2975	0.533
2984	0.5137
2993	0.6614
3002	0.8056
3011	0.8279
3020	0.8456
3029	0.8492
3038	0.8585
3047	0.8543
3056	0.8416
3065	0.8339
3074	0.8393
3083	0.8397
3092	0.829
3101	0.8159
3110	0.8098
3119	0.836
3128	0.8608
3137	0.8639
3146	0.8633
3155	0.8627
3164	0.8609
3173	0.859
3182	0.8581
3191	0.8579
3200	0.8578
3209	0.8587
3218	0.8576
3227	0.8557
3236	0.8538
3245	0.8512
3254	0.8486
3263	0.8463
3272	0.8444
3281	0.8453
3290	0.8473
3299	0.8455
3308	0.8434
3317	0.8404
3326	0.8376
3335	0.8349
3344	0.8323
3353	0.8297
3362	0.827
3371	0.8244
3380	0.8219
3389	0.8194
3398	0.8169
3407	0.8143
3416	0.8111
3425	0.8081
3434	0.8066
3443	0.8051
3452	0.8047
3461	0.806
3470	0.8075
3479	0.8088
3488	0.8102
3497	0.8115
3506	0.8139
3515	0.8163
3524	0.8188
3533	0.8211
3542	0.8241
3551	0.829
3560	0.8322
3569	0.8358
3578	0.8394
3587	0.8431
3596	0.8474
3605	0.8512
3614	0.8549
3623	0.8585
3632	0.8613
3641	0.8616
3650	0.8618
3659	0.865
3668	0.8656
3677	0.8655
3686	0.8649
3695	0.8638
3704	0.8629
3713	0.8629
3722	0.8676
3731	0.871
3740	0.868
3749	0.8649
3758	0.865
3767	0.8652
3776	0.8654
3785	0.8655
3794	0.8656
3803	0.8661
3812	0.8668
3821	0.8677
3830	0.8674
3839	0.8668
3848	0.8659
3857	0.8642
3866	0.8624
3875	0.8612
3884	0.8601
3893	0.8594
3902	0.8589
3911	0.8584
3920	0.8581
3929	0.8579
3938	0.8583
3947	0.8582
3956	0.8576
3965	0.8561
3974	0.8547
3983	0.8545
3992	0.8545
