Infrared Spectrum: ANILINE, N-BENZOYL-4-NITRO-3-PHENYLTHIO-
Formula: C19 H14 N2 O3 S
CAS: 19770-92-4
State: SOLID (SPLIT MULL), FLUOROLUBE FOR 4000-1340 CM^-^1, NUJOL FOR 1340-400 CM^-^1
Melting point: 193 C
Class: COBLENTZ III
Instrument: BECKMAN IR-12 (GRATING)
Instrument parameters: GRATING CHANGE: 300, 650, 2000 CM^-^1
Sampling: TRANSMISSION
Resolution: 2
Origin: EASTMAN KODAK COMPANY
1/CM	TRANSMITTANCE
400	0.855
410	0.8746
420	0.9201
430	0.8789
440	0.9075
450	0.9504
460	0.9524
470	0.9613
480	0.9467
490	0.9777
500	0.9949
510	0.9436
520	0.9867
530	0.9939
540	0.9817
550	0.9612
560	0.9397
570	0.832
580	0.6837
590	0.7559
600	0.8186
610	0.8841
620	0.8925
630	0.9318
640	0.9239
650	0.881
660	0.8615
670	0.8097
680	0.456
690	0.5012
700	0.4101
710	0.8272
720	0.893
730	0.8644
740	0.8713
750	0.2392
760	0.9233
770	0.9653
780	0.9606
790	0.8788
800	0.9485
810	0.95
820	0.7651
830	0.8504
840	0.6583
850	0.8688
860	0.9054
870	0.9012
880	0.7351
890	0.863
900	0.9169
910	0.9063
920	0.8663
930	0.7581
940	0.8902
950	0.8916
960	0.8775
970	0.8509
980	0.8639
990	0.8542
1000	0.7744
1010	0.8347
1020	0.7698
1030	0.6772
1040	0.7819
1050	0.6067
1060	0.8031
1070	0.6617
1080	0.751
1090	0.584
1100	0.6005
1110	0.4713
1120	0.6892
1130	0.7657
1140	0.7592
1150	0.6929
1160	0.645
1170	0.6106
1180	0.6495
1190	0.6052
1200	0.6324
1210	0.5621
1220	0.3768
1230	0.1539
1240	0.2379
1250	0.1159
1260	0.2428
1270	0.498
1280	0.4802
1290	0.4493
1300	0.146
1310	0.2022
1320	0.3232
1330	0.4019
1340	0.4177
1350	0.8395
1360	0.8043
1370	0.6905
1380	0.5445
1390	0.731
1400	0.7173
1410	0.6686
1420	0.6186
1430	0.5343
1440	0.3837
1450	0.3765
1460	0.2027
1470	0.2278
1480	0.3228
1490	0.5107
1500	0.6529
1510	0.5723
1520	0.4095
1530	0.2161
1540	0.1155
1550	0.6024
1560	0.4409
1570	0.1676
1580	0.5237
1590	0.904
1600	0.7455
1610	0.787
1620	0.9586
1630	0.9255
1640	0.86
1650	0.8139
1660	0.7776
1670	0.6949
1680	0.5505
1690	0.3388
1700	0.7133
1710	0.8903
1720	0.8921
1730	0.8714
1740	0.8436
1750	0.8194
1760	0.8045
1770	0.7914
1780	0.7813
1790	0.7745
1800	0.7695
1810	0.7648
1820	0.7538
1830	0.7545
1840	0.7482
1850	0.7399
1860	0.7293
1870	0.7176
1880	0.7059
1890	0.6958
1900	0.6907
1910	0.6907
1920	0.6727
1930	0.6843
1940	0.6772
1950	0.6635
1960	0.6519
1970	0.6581
1980	0.661
1990	0.6564
2000	0.6532
2010	0.6547
2020	0.6474
2030	0.6403
2040	0.6335
2050	0.6267
2060	0.6199
2070	0.6131
2080	0.6063
2090	0.5997
2100	0.5937
2110	0.5878
2120	0.5819
2130	0.5768
2140	0.5717
2150	0.5675
2160	0.5632
2170	0.5593
2180	0.5557
2190	0.5519
2200	0.5468
2210	0.5399
2220	0.5331
2230	0.5262
2240	0.519
2250	0.5116
2260	0.5044
2270	0.4999
2280	0.4965
2290	0.4928
2300	0.4886
2310	0.4842
2320	0.4797
2330	0.4752
2340	0.4735
2350	0.4692
2360	0.4655
2370	0.4683
2380	0.4713
2390	0.4678
2400	0.464
2410	0.4601
2420	0.4589
2430	0.4637
2440	0.4607
2450	0.457
2460	0.4549
2470	0.453
2480	0.451
2490	0.4489
2500	0.4469
2510	0.4459
2520	0.4438
2530	0.4388
2540	0.4327
2550	0.4275
2560	0.4242
2570	0.4246
2580	0.4259
2590	0.4263
2600	0.4237
2610	0.421
2620	0.418
2630	0.4153
2640	0.4133
2650	0.414
2660	0.4114
2670	0.4084
2680	0.4052
2690	0.402
2700	0.3988
2710	0.3959
2720	0.393
2730	0.3897
2740	0.3861
2750	0.3804
2760	0.3756
2770	0.3739
2780	0.3721
2790	0.3703
2800	0.3684
2810	0.3655
2820	0.3625
2830	0.3594
2840	0.3563
2850	0.3529
2860	0.3493
2870	0.3456
2880	0.3422
2890	0.3391
2900	0.336
2910	0.3332
2920	0.3302
2930	0.326
2940	0.3243
2950	0.3251
2960	0.3242
2970	0.3229
2980	0.3211
2990	0.319
3000	0.3148
3010	0.3103
3020	0.3053
3030	0.2999
3040	0.2903
3050	0.2704
3060	0.2821
3070	0.2819
3080	0.2965
3090	0.2953
3100	0.2915
3110	0.2827
3120	0.2668
3130	0.2911
3140	0.3004
3150	0.298
3160	0.2952
3170	0.2921
3180	0.2888
3190	0.2864
3200	0.2872
3210	0.2862
3220	0.2839
3230	0.2807
3240	0.2753
3250	0.2727
3260	0.277
3270	0.269
3280	0.2673
3290	0.2606
3300	0.2577
3310	0.2596
3320	0.2562
3330	0.252
3340	0.2478
3350	0.2436
3360	0.2398
3370	0.2429
3380	0.2333
3390	0.2167
3400	0.1906
3410	0.1583
3420	0.1419
3430	0.2888
3440	0.282
3450	0.2716
3460	0.2674
3470	0.2633
3480	0.258
3490	0.2534
3500	0.2522
3510	0.251
3520	0.2499
3530	0.2478
3540	0.2457
3550	0.2436
3560	0.2419
3570	0.244
3580	0.2423
3590	0.2396
3600	0.2382
3610	0.2387
3620	0.2357
3630	0.2313
3640	0.2297
3650	0.2308
3660	0.2313
3670	0.2297
3680	0.2283
3690	0.2272
3700	0.226
3710	0.2248
3720	0.2236
3730	0.2222
3740	0.2209
3750	0.2196
3760	0.2183
3770	0.2171
3780	0.216
3790	0.2148
3800	0.2136
3810	0.2125
3820	0.2114
3830	0.2103
3840	0.2091
3850	0.2081
3860	0.2071
3870	0.2061
3880	0.2051
3890	0.2041
3900	0.2032
3910	0.2022
3920	0.2012
3930	0.2003
3940	0.1993
3950	0.1985
3960	0.1978
3970	0.197
3980	0.1961
3990	0.1952
4000	0.1944
