Infrared Spectrum: p-PHENYLENEDIAMINE, N,N-DIMETHYL, N',N'-BIS(p-TOLYLSULFONYL)-
Formula: C22 H24 N2 O4 S2
CAS: 19770-85-5
State: SOLID (SPLIT MULL), FLUOROLUBE FOR 4000-1340 CM^-^1, NUJOL FOR 1340-400 CM^-^1
Melting point: 208 C
Class: COBLENTZ III
Instrument: BECKMAN IR-12 (GRATING)
Instrument parameters: GRATING CHANGE: 300, 650, 2000 CM^-^1
Sampling: TRANSMISSION
Resolution: 2
Origin: EASTMAN KODAK COMPANY
1/CM	TRANSMITTANCE
401	0.8161
411	0.7673
421	0.7865
431	0.7681
441	0.8261
451	0.8479
461	0.8444
471	0.8308
481	0.762
491	0.8293
501	0.7516
511	0.8089
521	0.8212
531	0.7289
541	0.5755
551	0.1284
561	0.0301
571	0.5409
581	0.7996
591	0.8308
601	0.8487
611	0.7575
621	0.8212
631	0.8472
641	0.832
651	0.6886
661	0.1324
671	0.6737
681	0.3765
691	0.8137
701	0.7657
711	0.7898
721	0.7982
731	0.9086
741	0.912
751	0.8659
761	0.7672
771	0.914
781	0.9126
791	0.854
801	0.7819
811	0.638
821	0.5306
831	0.8795
841	0.7239
851	0.8261
861	0.8324
871	0.7561
881	0.5232
891	0.0583
901	0.5395
911	0.74
921	0.6506
931	0.78
941	0.266
951	0.4599
961	0.6735
971	0.841
981	0.8454
991	0.8777
1001	0.8826
1011	0.8693
1021	0.7473
1031	0.8588
1041	0.7734
1051	0.8105
1061	0.8081
1071	0.6711
1081	0.5484
1091	0.371
1101	0.7612
1111	0.7723
1121	0.5956
1131	0.7854
1141	0.7772
1151	0.6055
1161	0.0568
1171	0.0954
1181	0.5578
1191	0.3998
1201	0.7935
1211	0.7632
1221	0.6756
1231	0.5376
1241	0.7218
1251	0.7973
1261	0.846
1271	0.8482
1281	0.8324
1291	0.6504
1301	0.7648
1311	0.7878
1321	0.757
1331	0.6748
1341	0.4809
1351	0.2773
1361	0.0692
1371	0.0043
1381	0.5525
1391	0.7518
1401	0.7018
1411	0.7629
1421	0.799
1431	0.7751
1441	0.6175
1451	0.5716
1461	0.7425
1471	0.8065
1481	0.7763
1491	0.5774
1501	0.7271
1511	0.4524
1521	0.0671
1531	0.5037
1541	0.7576
1551	0.8133
1561	0.8277
1571	0.8068
1581	0.7746
1591	0.4079
1601	0.1257
1611	0.6467
1621	0.762
1631	0.8237
1641	0.8527
1651	0.8633
1661	0.8666
1671	0.8872
1681	0.8951
1691	0.8994
1701	0.9029
1711	0.9026
1721	0.8995
1731	0.8931
1741	0.8925
1751	0.8996
1761	0.9038
1771	0.9035
1781	0.9132
1791	0.9183
1801	0.9125
1811	0.9117
1821	0.9034
1831	0.9139
1841	0.9134
1851	0.9128
1861	0.9116
1871	0.9084
1881	0.9052
1891	0.9086
1901	0.9079
1911	0.8962
1921	0.8975
1931	0.8875
1941	0.8989
1951	0.913
1961	0.913
1971	0.9156
1981	0.9157
1991	0.9152
2001	0.9134
2011	0.9113
2021	0.9094
2031	0.9076
2041	0.9073
2051	0.9079
2061	0.9081
2071	0.9073
2081	0.9061
2091	0.9042
2101	0.9016
2111	0.8997
2121	0.8995
2131	0.9024
2141	0.907
2151	0.9079
2161	0.9046
2171	0.9004
2181	0.8999
2191	0.9045
2201	0.9044
2211	0.9042
2221	0.9077
2231	0.907
2241	0.9048
2251	0.9009
2261	0.8973
2271	0.8963
2281	0.8966
2291	0.8973
2301	0.897
2311	0.896
2321	0.8997
2331	0.8941
2341	0.8869
2351	0.8822
2361	0.865
2371	0.8616
2381	0.8949
2391	0.898
2401	0.8963
2411	0.8965
2421	0.8973
2431	0.8978
2441	0.8982
2451	0.8961
2461	0.8937
2471	0.8939
2481	0.896
2491	0.8975
2501	0.8954
2511	0.8911
2521	0.8889
2531	0.8876
2541	0.8845
2551	0.8836
2561	0.8859
2571	0.8883
2581	0.8861
2591	0.877
2601	0.8757
2611	0.876
2621	0.8768
2631	0.8787
2641	0.8833
2651	0.8837
2661	0.8794
2671	0.879
2681	0.8781
2691	0.8772
2701	0.8749
2711	0.8721
2721	0.8675
2731	0.8613
2741	0.8634
2751	0.867
2761	0.8642
2771	0.8568
2781	0.8438
2791	0.8272
2801	0.8004
2811	0.7673
2821	0.7419
2831	0.7667
2841	0.79
2851	0.7748
2861	0.7435
2871	0.7272
2881	0.7377
2891	0.7025
2901	0.6673
2911	0.6398
2921	0.6221
2931	0.6637
2941	0.7259
2951	0.742
2961	0.761
2971	0.7893
2981	0.7928
2991	0.7887
3001	0.786
3011	0.8006
3021	0.8175
3031	0.8218
3041	0.8144
3051	0.8126
3061	0.7991
3071	0.7625
3081	0.7994
3091	0.8167
3101	0.8148
3111	0.8114
3121	0.803
3131	0.8266
3141	0.8373
3151	0.8435
3161	0.8475
3171	0.8506
3181	0.8522
3191	0.8533
3201	0.853
3211	0.8526
3221	0.8528
3231	0.8556
3241	0.8578
3251	0.8576
3261	0.8564
3271	0.8554
3281	0.8543
3291	0.853
3301	0.8516
3311	0.85
3321	0.8483
3331	0.8464
3341	0.8444
3351	0.8416
3361	0.8386
3371	0.8351
3381	0.8319
3391	0.8315
3401	0.8313
3411	0.8313
3421	0.8313
3431	0.8313
3441	0.8313
3451	0.8314
3461	0.8315
3471	0.8315
3481	0.832
3491	0.8329
3501	0.8345
3511	0.8362
3521	0.8382
3531	0.8401
3541	0.842
3551	0.8436
3561	0.8452
3571	0.8467
3581	0.8484
3591	0.8502
3601	0.8519
3611	0.8537
3621	0.8558
3631	0.8588
3641	0.8607
3651	0.862
3661	0.8616
3671	0.8606
3681	0.86
3691	0.8596
3701	0.8593
3711	0.8592
3721	0.8591
3731	0.859
3741	0.8588
3751	0.8586
3761	0.8584
3771	0.8585
3781	0.8587
3791	0.8589
3801	0.8589
3811	0.8589
3821	0.8589
3831	0.8588
3841	0.858
3851	0.8572
3861	0.8567
3871	0.8563
3881	0.857
3891	0.8563
3901	0.8537
3911	0.8521
3921	0.8517
3931	0.852
3941	0.8525
3951	0.8528
3961	0.8532
3971	0.853
3981	0.8523
3991	0.8511
4001	0.85
