Infrared Spectrum: 4-AMINO-N, N-DIMETHYL-2-PHENYLSULFONYLANILINE
Formula: C14 H16 N2 O2 S
CAS: 19770-99-1
State: SOLID (SPLIT MULL), FLUOROLUBE FOR 4000-1340 CM^-^1, NUJOL FOR 1340-400 CM^-^1
Melting point: 132 C
Class: COBLENTZ III
Instrument: BECKMAN IR-12 (GRATING)
Instrument parameters: GRATING CHANGE: 300, 650, 2000 CM^-^1
Sampling: TRANSMISSION
Resolution: 2
Origin: EASTMAN KODAK COMPANY
1/CM	TRANSMITTANCE
402	0.7504
411	0.7764
420	0.8043
429	0.8898
438	0.931
447	0.9508
456	0.934
465	0.9221
474	0.9512
483	0.9045
492	0.8482
501	0.9154
510	0.9414
519	0.9183
528	0.7704
537	0.4518
546	0.8183
555	0.8176
564	0.6084
573	0.1203
582	0.5646
591	0.366
600	0.2978
609	0.2488
618	0.7836
627	0.8714
636	0.8019
645	0.7324
654	0.6861
663	0.6108
672	0.5558
681	0.5864
690	0.3345
699	0.5909
708	0.7347
717	0.5749
726	0.323
735	0.5804
744	0.5507
753	0.7465
762	0.5339
771	0.8317
780	0.8973
789	0.9302
798	0.9406
807	0.943
816	0.9494
825	0.9418
834	0.8716
843	0.5573
852	0.6274
861	0.884
870	0.4804
879	0.7902
888	0.9014
897	0.8684
906	0.7904
915	0.9001
924	0.89
933	0.7812
942	0.4765
951	0.8096
960	0.8538
969	0.8693
978	0.8733
987	0.8912
996	0.8077
1005	0.8741
1014	0.8712
1023	0.733
1032	0.8219
1041	0.6505
1050	0.6438
1059	0.8134
1068	0.7233
1077	0.7545
1086	0.5291
1095	0.3685
1104	0.6898
1113	0.7247
1122	0.686
1131	0.5117
1140	0.1858
1149	0.0647
1158	0.1905
1167	0.5546
1176	0.6605
1185	0.5872
1194	0.5864
1203	0.7667
1212	0.8085
1221	0.8138
1230	0.7894
1239	0.7612
1248	0.771
1257	0.7385
1266	0.6321
1275	0.4324
1284	0.1123
1293	0.0445
1302	0.1964
1311	0.4039
1320	0.6663
1329	0.8227
1338	0.8452
1347	0.8656
1356	0.8669
1365	0.8536
1374	0.8426
1383	0.8333
1392	0.8215
1401	0.7434
1410	0.7857
1419	0.776
1428	0.686
1437	0.7189
1446	0.3195
1455	0.6296
1464	0.7031
1473	0.5914
1482	0.5136
1491	0.3571
1500	0.1464
1509	0.6815
1518	0.906
1527	0.9251
1536	0.918
1545	0.9119
1554	0.9005
1563	0.8423
1572	0.8598
1581	0.7995
1590	0.8096
1599	0.6452
1608	0.73
1617	0.7307
1626	0.5445
1635	0.6011
1644	0.8266
1653	0.8777
1662	0.898
1671	0.8999
1680	0.8948
1689	0.8791
1698	0.8929
1707	0.8955
1716	0.8965
1725	0.8942
1734	0.8846
1743	0.8598
1752	0.8484
1761	0.8684
1770	0.8642
1779	0.8638
1788	0.8614
1797	0.8537
1806	0.8512
1815	0.8429
1824	0.8404
1833	0.8473
1842	0.8458
1851	0.8433
1860	0.8436
1869	0.8404
1878	0.8356
1887	0.8279
1896	0.8183
1905	0.8087
1914	0.8128
1923	0.8055
1932	0.8048
1941	0.8114
1950	0.8061
1959	0.8016
1968	0.7894
1977	0.7897
1986	0.789
1995	0.7854
2004	0.7819
2013	0.7822
2022	0.7809
2031	0.7792
2040	0.7773
2049	0.7752
2058	0.7732
2067	0.7694
2076	0.7654
2085	0.7609
2094	0.7561
2103	0.7511
2112	0.746
2121	0.741
2130	0.7391
2139	0.7369
2148	0.7342
2157	0.7279
2166	0.7169
2175	0.7106
2184	0.7071
2193	0.7042
2202	0.7009
2211	0.6947
2220	0.6884
2229	0.6808
2238	0.6732
2247	0.6697
2256	0.6674
2265	0.6613
2274	0.6499
2283	0.6473
2292	0.6459
2301	0.6433
2310	0.6404
2319	0.6373
2328	0.6402
2337	0.6403
2346	0.6329
2355	0.6304
2364	0.6279
2373	0.627
2382	0.6304
2391	0.632
2400	0.6308
2409	0.6291
2418	0.6271
2427	0.6252
2436	0.6238
2445	0.6232
2454	0.6187
2463	0.6161
2472	0.615
2481	0.614
2490	0.6117
2499	0.6091
2508	0.6062
2517	0.6029
2526	0.5996
2535	0.5963
2544	0.5929
2553	0.5895
2562	0.5861
2571	0.5827
2580	0.5793
2589	0.576
2598	0.574
2607	0.5722
2616	0.5706
2625	0.5702
2634	0.5702
2643	0.5641
2652	0.5586
2661	0.5547
2670	0.5516
2679	0.5511
2688	0.546
2697	0.5396
2706	0.5332
2715	0.5257
2724	0.517
2733	0.5077
2742	0.4945
2751	0.4759
2760	0.4534
2769	0.4195
2778	0.3757
2787	0.3798
2796	0.4209
2805	0.4787
2814	0.4617
2823	0.367
2832	0.3763
2841	0.4316
2850	0.4062
2859	0.3784
2868	0.3951
2877	0.4249
2886	0.4361
2895	0.4404
2904	0.441
2913	0.44
2922	0.4287
2931	0.3901
2940	0.3504
2949	0.3788
2958	0.4641
2967	0.453
2976	0.4339
2985	0.4645
2994	0.4612
3003	0.448
3012	0.4684
3021	0.4694
3030	0.4625
3039	0.4538
3048	0.4483
3057	0.44
3066	0.4354
3075	0.4372
3084	0.4461
3093	0.4411
3102	0.4339
3111	0.438
3120	0.4416
3129	0.4396
3138	0.4358
3147	0.4375
3156	0.4343
3165	0.4283
3174	0.4218
3183	0.4149
3192	0.407
3201	0.3981
3210	0.3865
3219	0.3726
3228	0.3668
3237	0.3694
3246	0.3734
3255	0.3779
3264	0.3814
3273	0.3788
3282	0.3731
3291	0.3669
3300	0.3584
3309	0.3468
3318	0.3339
3327	0.3015
3336	0.2579
3345	0.1672
3354	0.2256
3363	0.1619
3372	0.3675
3381	0.3936
3390	0.3807
3399	0.3546
3408	0.2953
3417	0.2298
3426	0.2162
3435	0.2834
3444	0.2512
3453	0.4121
3462	0.4133
3471	0.4115
3480	0.4076
3489	0.4032
3498	0.399
3507	0.3954
3516	0.3917
3525	0.3879
3534	0.3845
3543	0.3812
3552	0.3791
3561	0.3771
3570	0.3752
3579	0.3734
3588	0.371
3597	0.3684
3606	0.3665
3615	0.3655
3624	0.3621
3633	0.358
3642	0.3555
3651	0.3532
3660	0.3521
3669	0.3511
3678	0.3482
3687	0.3453
3696	0.3425
3705	0.3396
3714	0.3366
3723	0.3336
3732	0.3312
3741	0.3292
3750	0.3272
3759	0.3256
3768	0.3244
3777	0.3242
3786	0.3231
3795	0.3215
3804	0.3191
3813	0.3167
3822	0.3145
3831	0.3122
3840	0.3107
3849	0.3093
3858	0.3082
3867	0.3064
3876	0.3027
3885	0.2984
3894	0.2983
3903	0.2983
3912	0.2963
3921	0.2934
3930	0.2897
3939	0.2863
3948	0.2856
3957	0.2846
3966	0.2823
3975	0.281
3984	0.2785
3993	0.2754
