Infrared Spectrum: p-PHENYLENEDIAMINE, N,N-DIETHYL, N',N'-BIS(3,4-DIMETHYLPHENYL SULFONYL)-
Formula: C26 H32 N2 O4 S2
CAS: 19770-89-9
State: SOLID (SPLIT MULL), FLUOROLUBE FOR 4000-1340 CM^-^1, NUJOL FOR 1340-400 CM^-^1
Melting point: 196 C
Class: COBLENTZ III
Instrument: BECKMAN IR-12 (GRATING)
Instrument parameters: GRATING CHANGE: 300, 650, 2000 CM^-^1
Sampling: TRANSMISSION
Resolution: 2
Origin: EASTMAN KODAK COMPANY
1/CM	TRANSMITTANCE
400	0.6003
409	0.5668
418	0.6543
427	0.6551
436	0.7015
445	0.6196
454	0.7964
463	0.8207
472	0.8383
481	0.7602
490	0.8585
499	0.8216
508	0.5045
517	0.674
526	0.4475
535	0.7038
544	0.6685
553	0.7386
562	0.7505
571	0.5706
580	0.055
589	0.4796
598	0.819
607	0.8908
616	0.8975
625	0.6836
634	0.8688
643	0.8847
652	0.8499
661	0.5436
670	0.2882
679	0.441
688	0.9095
697	0.8903
706	0.693
715	0.5135
724	0.8843
733	0.7821
742	0.8608
751	0.9387
760	0.9433
769	0.9388
778	0.9194
787	0.7785
796	0.8195
805	0.8632
814	0.837
823	0.7258
832	0.9027
841	0.907
850	0.8986
859	0.8737
868	0.787
877	0.4984
886	0.6105
895	0.3726
904	0.1941
913	0.6623
922	0.5873
931	0.7373
940	0.6124
949	0.559
958	0.7204
967	0.8114
976	0.8346
985	0.8448
994	0.8228
1003	0.7146
1012	0.6913
1021	0.7593
1030	0.7642
1039	0.8558
1048	0.8553
1057	0.8486
1066	0.8004
1075	0.6493
1084	0.6476
1093	0.3492
1102	0.7299
1111	0.7916
1120	0.7481
1129	0.5856
1138	0.5862
1147	0.6123
1156	0.3371
1165	0.1871
1174	0.7074
1183	0.651
1192	0.2687
1201	0.6614
1210	0.7795
1219	0.7491
1228	0.6286
1237	0.7354
1246	0.8095
1255	0.7807
1264	0.5621
1273	0.5978
1282	0.7972
1291	0.8
1300	0.6431
1309	0.7712
1318	0.7903
1327	0.7682
1336	0.5929
1345	0.14
1354	0.3212
1363	0.074
1372	0.336
1381	0.5344
1390	0.6312
1399	0.4462
1408	0.7698
1417	0.8503
1426	0.8158
1435	0.7544
1444	0.585
1453	0.5361
1462	0.6785
1471	0.7541
1480	0.7177
1489	0.6289
1498	0.6713
1507	0.4446
1516	0.156
1525	0.6166
1534	0.8136
1543	0.904
1552	0.8954
1561	0.8609
1570	0.8279
1579	0.8092
1588	0.6312
1597	0.3489
1606	0.4448
1615	0.8336
1624	0.8924
1633	0.9119
1642	0.9235
1651	0.9271
1660	0.9328
1669	0.9456
1678	0.9494
1687	0.9461
1696	0.9508
1705	0.949
1714	0.9461
1723	0.9424
1732	0.9372
1741	0.9297
1750	0.9205
1759	0.9129
1768	0.9163
1777	0.9135
1786	0.9026
1795	0.9178
1804	0.9204
1813	0.9156
1822	0.9112
1831	0.9093
1840	0.9096
1849	0.9101
1858	0.9099
1867	0.9094
1876	0.9072
1885	0.8974
1894	0.8969
1903	0.8925
1912	0.8903
1921	0.8752
1930	0.893
1939	0.8979
1948	0.8956
1957	0.8941
1966	0.8911
1975	0.8898
1984	0.8896
1993	0.8907
2002	0.8916
2011	0.8889
2020	0.8862
2029	0.8836
2038	0.8799
2047	0.8762
2056	0.8726
2065	0.8689
2074	0.865
2083	0.8639
2092	0.8637
2101	0.8606
2110	0.8563
2119	0.8527
2128	0.8505
2137	0.8475
2146	0.845
2155	0.8434
2164	0.8418
2173	0.8404
2182	0.8392
2191	0.8388
2200	0.8381
2209	0.8353
2218	0.8291
2227	0.8238
2236	0.8192
2245	0.8151
2254	0.8114
2263	0.8089
2272	0.8069
2281	0.8051
2290	0.8033
2299	0.8018
2308	0.8006
2317	0.8017
2326	0.8028
2335	0.807
2344	0.8029
2353	0.8024
2362	0.8021
2371	0.7977
2380	0.7923
2389	0.7911
2398	0.7902
2407	0.7888
2416	0.7874
2425	0.786
2434	0.7848
2443	0.7835
2452	0.7822
2461	0.7808
2470	0.7774
2479	0.7746
2488	0.7721
2497	0.7703
2506	0.7713
2515	0.7733
2524	0.7723
2533	0.7706
2542	0.7686
2551	0.7665
2560	0.7643
2569	0.7617
2578	0.759
2587	0.7572
2596	0.7535
2605	0.7527
2614	0.7508
2623	0.7511
2632	0.7526
2641	0.7531
2650	0.7529
2659	0.7486
2668	0.7452
2677	0.7446
2686	0.7437
2695	0.7424
2704	0.7409
2713	0.7387
2722	0.7336
2731	0.7285
2740	0.7258
2749	0.7253
2758	0.7239
2767	0.7195
2776	0.7136
2785	0.7092
2794	0.7049
2803	0.7012
2812	0.697
2821	0.6886
2830	0.6769
2839	0.6595
2848	0.6397
2857	0.6164
2866	0.5923
2875	0.5774
2884	0.5569
2893	0.5159
2902	0.5451
2911	0.5439
2920	0.517
2929	0.4899
2938	0.4818
2947	0.5265
2956	0.5343
2965	0.447
2974	0.359
2983	0.4477
2992	0.6066
3001	0.6722
3010	0.6835
3019	0.6824
3028	0.6739
3037	0.665
3046	0.6573
3055	0.6473
3064	0.6639
3073	0.67
3082	0.6634
3091	0.6577
3100	0.6648
3109	0.6683
3118	0.6677
3127	0.6666
3136	0.6682
3145	0.669
3154	0.6695
3163	0.6679
3172	0.6663
3181	0.6646
3190	0.6628
3199	0.6611
3208	0.6595
3217	0.6579
3226	0.6563
3235	0.6543
3244	0.6521
3253	0.65
3262	0.6485
3271	0.6469
3280	0.6454
3289	0.6439
3298	0.6425
3307	0.641
3316	0.6396
3325	0.638
3334	0.6363
3343	0.6346
3352	0.6333
3361	0.6327
3370	0.6321
3379	0.631
3388	0.6299
3397	0.6286
3406	0.6275
3415	0.6255
3424	0.6233
3433	0.621
3442	0.6193
3451	0.6178
3460	0.6163
3469	0.6147
3478	0.613
3487	0.6113
3496	0.6096
3505	0.608
3514	0.6065
3523	0.6049
3532	0.6039
3541	0.6029
3550	0.6019
3559	0.6008
3568	0.6001
3577	0.5994
3586	0.5987
3595	0.598
3604	0.5974
3613	0.5968
3622	0.5964
3631	0.596
3640	0.5964
3649	0.596
3658	0.5948
3667	0.5928
3676	0.591
3685	0.5893
3694	0.588
3703	0.5872
3712	0.5875
3721	0.5858
3730	0.5838
3739	0.5818
3748	0.5801
3757	0.5784
3766	0.5771
3775	0.5762
3784	0.5751
3793	0.5726
3802	0.5709
3811	0.5711
3820	0.5699
3829	0.568
3838	0.5657
3847	0.5635
3856	0.5614
3865	0.5591
3874	0.5598
3883	0.56
3892	0.5587
3901	0.5565
3910	0.5543
3919	0.5519
3928	0.5495
3937	0.5486
3946	0.5501
3955	0.5501
3964	0.5487
3973	0.5467
3982	0.5449
3991	0.5435
