Infrared Spectrum: ANILINE, N,N-DIMETHYL-p-(3,4-DIMETHYLPHENYLSULFONAMIDO)-
Formula: C16 H20 N2 O2 S
CAS: 19770-73-1
State: SOLID (SPLIT MULL), FLUOROLUBE FOR 4000-1340 CM^-^1, NUJOL FOR 1340-400 CM^-^1
Melting point: 148 C
Class: COBLENTZ III
Instrument: BECKMAN IR-12 (GRATING)
Instrument parameters: GRATING CHANGE: 300, 650, 2000 CM^-^1
Sampling: TRANSMISSION
Resolution: 2
Origin: EASTMAN KODAK COMPANY
1/CM	TRANSMITTANCE
402	0.9584
411	0.9296
420	0.9249
429	0.9577
438	0.8757
447	0.9736
456	0.9759
465	0.9499
474	0.8874
483	0.8413
492	0.8772
501	0.711
510	0.7865
519	0.5815
528	0.7477
537	0.8443
546	0.7763
555	0.8483
564	0.8644
573	0.733
582	0.5884
591	0.5178
600	0.5915
609	0.4497
618	0.3547
627	0.5162
636	0.7683
645	0.8421
654	0.8418
663	0.7272
672	0.3733
681	0.0745
690	0.5172
699	0.7237
708	0.7902
717	0.8248
726	0.8156
735	0.4547
744	0.8117
753	0.8686
762	0.8861
771	0.886
780	0.8814
789	0.8271
798	0.7085
807	0.684
816	0.657
825	0.5847
834	0.748
843	0.8043
852	0.8671
861	0.8636
870	0.8158
879	0.7805
888	0.8168
897	0.7726
906	0.482
915	0.6372
924	0.5321
933	0.7757
942	0.6973
951	0.5717
960	0.8101
969	0.8614
978	0.8762
987	0.8796
996	0.854
1005	0.8015
1014	0.8345
1023	0.7524
1032	0.867
1041	0.8616
1050	0.8441
1059	0.6975
1068	0.7946
1077	0.7944
1086	0.3383
1095	0.7308
1104	0.7955
1113	0.7629
1122	0.5294
1131	0.2091
1140	0.3817
1149	0.214
1158	0.0773
1167	0.5719
1176	0.7206
1185	0.6047
1194	0.4775
1203	0.7507
1212	0.5707
1221	0.3095
1230	0.3266
1239	0.6783
1248	0.7758
1257	0.7835
1266	0.7576
1275	0.583
1284	0.5921
1293	0.4934
1302	0.5928
1311	0.5427
1320	0.4703
1329	0.145
1338	0.3923
1347	0.505
1356	0.497
1365	0.6866
1374	0.7293
1383	0.5453
1392	0.2869
1401	0.6167
1410	0.7494
1419	0.7561
1428	0.5892
1437	0.3855
1446	0.3146
1455	0.4543
1464	0.6778
1473	0.67
1482	0.5515
1491	0.7283
1500	0.6923
1509	0.5354
1518	0.2661
1527	0.1892
1536	0.5789
1545	0.7739
1554	0.8309
1563	0.8379
1572	0.8007
1581	0.843
1590	0.8191
1599	0.7415
1608	0.5965
1617	0.6031
1626	0.8283
1635	0.864
1644	0.8682
1653	0.89
1662	0.8996
1671	0.9067
1680	0.9077
1689	0.9073
1698	0.9013
1707	0.8975
1716	0.8974
1725	0.8963
1734	0.8873
1743	0.8706
1752	0.8752
1761	0.8871
1770	0.8826
1779	0.8811
1788	0.8816
1797	0.8822
1806	0.8835
1815	0.8782
1824	0.8713
1833	0.8642
1842	0.8586
1851	0.8547
1860	0.8533
1869	0.8534
1878	0.8515
1887	0.8495
1896	0.8499
1905	0.8481
1914	0.8294
1923	0.8606
1932	0.8623
1941	0.8615
1950	0.8554
1959	0.8504
1968	0.8481
1977	0.8473
1986	0.8474
1995	0.8419
2004	0.8435
2013	0.8431
2022	0.8413
2031	0.8391
2040	0.8369
2049	0.8341
2058	0.8313
2067	0.8285
2076	0.8259
2085	0.8232
2094	0.8214
2103	0.8195
2112	0.8177
2121	0.816
2130	0.8144
2139	0.8127
2148	0.8112
2157	0.8083
2166	0.8048
2175	0.8012
2184	0.7975
2193	0.7936
2202	0.7897
2211	0.7856
2220	0.7816
2229	0.7776
2238	0.7741
2247	0.7706
2256	0.7674
2265	0.7648
2274	0.7622
2283	0.7598
2292	0.7575
2301	0.7553
2310	0.7534
2319	0.7514
2328	0.7503
2337	0.7486
2346	0.7466
2355	0.7433
2364	0.732
2373	0.7328
2382	0.7467
2391	0.7467
2400	0.7436
2409	0.7412
2418	0.7383
2427	0.7351
2436	0.7322
2445	0.7291
2454	0.7266
2463	0.7242
2472	0.7228
2481	0.7218
2490	0.7209
2499	0.7195
2508	0.7174
2517	0.715
2526	0.7126
2535	0.7099
2544	0.7073
2553	0.7047
2562	0.7028
2571	0.7013
2580	0.7007
2589	0.6998
2598	0.6984
2607	0.6953
2616	0.6921
2625	0.6889
2634	0.6854
2643	0.6819
2652	0.6783
2661	0.6743
2670	0.6696
2679	0.6666
2688	0.6658
2697	0.6651
2706	0.6635
2715	0.6594
2724	0.6545
2733	0.6495
2742	0.6436
2751	0.6357
2760	0.6246
2769	0.6068
2778	0.5878
2787	0.5634
2796	0.5331
2805	0.484
2814	0.471
2823	0.5218
2832	0.5459
2841	0.5418
2850	0.5026
2859	0.491
2868	0.4819
2877	0.4655
2886	0.4624
2895	0.4726
2904	0.4843
2913	0.49
2922	0.4822
2931	0.4811
2940	0.4955
2949	0.4839
2958	0.4815
2967	0.509
2976	0.5003
2985	0.5031
2994	0.545
3003	0.5925
3012	0.5983
3021	0.6003
3030	0.5968
3039	0.5921
3048	0.5877
3057	0.5868
3066	0.5918
3075	0.5939
3084	0.5881
3093	0.5918
3102	0.5943
3111	0.5958
3120	0.596
3129	0.5951
3138	0.5937
3147	0.5909
3156	0.5875
3165	0.5837
3174	0.5785
3183	0.5725
3192	0.564
3201	0.5544
3210	0.5416
3219	0.5269
3228	0.5081
3237	0.485
3246	0.4482
3255	0.4193
3264	0.3931
3273	0.3438
3282	0.2209
3291	0.1056
3300	0.1399
3309	0.4373
3318	0.5025
3327	0.553
3336	0.5752
3345	0.5789
3354	0.5796
3363	0.5785
3372	0.5759
3381	0.5732
3390	0.5706
3399	0.5678
3408	0.5651
3417	0.5625
3426	0.5601
3435	0.5575
3444	0.5554
3453	0.5533
3462	0.5512
3471	0.5493
3480	0.5475
3489	0.5457
3498	0.5439
3507	0.5421
3516	0.5406
3525	0.5391
3534	0.5376
3543	0.5361
3552	0.5345
3561	0.5326
3570	0.5307
3579	0.5288
3588	0.5269
3597	0.5247
3606	0.5225
3615	0.5201
3624	0.5178
3633	0.5154
3642	0.5131
3651	0.5112
3660	0.5095
3669	0.5079
3678	0.5062
3687	0.5045
3696	0.5029
3705	0.5012
3714	0.4997
3723	0.498
3732	0.4964
3741	0.4948
3750	0.4932
3759	0.4914
3768	0.4897
3777	0.488
3786	0.4863
3795	0.4846
3804	0.4829
3813	0.4812
3822	0.4795
3831	0.4777
3840	0.4752
3849	0.4726
3858	0.4703
3867	0.4684
3876	0.4668
3885	0.4642
3894	0.4621
3903	0.46
3912	0.4586
3921	0.4571
3930	0.4558
3939	0.4544
3948	0.4531
3957	0.4517
3966	0.4505
3975	0.4492
3984	0.448
3993	0.4467
