Infrared Spectrum: ANILINE, 4-(N,N-DIMETHYLAMINO)-2-PHENYLSULFONYL-
Formula: C14 H16 N2 O2 S
CAS: 19770-80-0
State: SOLID (SPLIT MULL), FLUOROLUBE FOR 4000-1340 CM^-^1, NUJOL FOR 1340-400 CM^-^1
Melting point: 130 C
Class: COBLENTZ III
Instrument: BECKMAN IR-12 (GRATING)
Instrument parameters: GRATING CHANGE: 300, 650, 2000 CM^-^1
Sampling: TRANSMISSION
Resolution: 2
Origin: EASTMAN KODAK COMPANY
1/CM	TRANSMITTANCE
403	0.9127
412	0.9049
421	0.9025
430	0.9186
439	0.855
448	0.9552
457	0.9328
466	0.9774
475	0.96
484	1.0168
493	1.0092
502	0.9724
511	0.9288
520	0.9098
529	0.6413
538	0.6817
547	0.5388
556	0.8017
565	0.8022
574	0.6095
583	0.3652
592	0.3648
601	0.6371
610	0.4283
619	0.802
628	0.8754
637	0.8619
646	0.8221
655	0.7551
664	0.6394
673	0.5254
682	0.3308
691	0.6944
700	0.895
709	0.8235
718	0.5222
727	0.6716
736	0.8185
745	0.7603
754	0.7175
763	0.8294
772	0.6942
781	0.7428
790	0.8607
799	0.8913
808	0.7742
817	0.4231
826	0.8194
835	0.8083
844	0.6884
853	0.8779
862	0.6678
871	0.9506
880	0.9779
889	0.9691
898	0.9642
907	0.9535
916	0.9136
925	0.9174
934	0.8979
943	0.8827
952	0.8409
961	0.7214
970	0.7464
979	0.8745
988	0.8735
997	0.7585
1006	0.8593
1015	0.8291
1024	0.6872
1033	0.7837
1042	0.6553
1051	0.7425
1060	0.6304
1069	0.5474
1078	0.4202
1087	0.3252
1096	0.5744
1105	0.6619
1114	0.6097
1123	0.4657
1132	0.3451
1141	0.1401
1150	0.3513
1159	0.4986
1168	0.501
1177	0.443
1186	0.6108
1195	0.6787
1204	0.6771
1213	0.6266
1222	0.5558
1231	0.4584
1240	0.5324
1249	0.5467
1258	0.5323
1267	0.4628
1276	0.3437
1285	0.203
1294	0.4263
1303	0.6006
1312	0.4191
1321	0.5966
1330	0.719
1339	0.6734
1348	0.6088
1357	0.5534
1366	0.6676
1375	0.7443
1384	0.7316
1393	0.7035
1402	0.6728
1411	0.5905
1420	0.6087
1429	0.5743
1438	0.5615
1447	0.3951
1456	0.7175
1465	0.6444
1474	0.5767
1483	0.5459
1492	0.4748
1501	0.3286
1510	0.2728
1519	0.5513
1528	0.7286
1537	0.8779
1546	0.9143
1555	0.8982
1564	0.8997
1573	0.8844
1582	0.8335
1591	0.8104
1600	0.7678
1609	0.6713
1618	0.5909
1627	0.6469
1636	0.7208
1645	0.8278
1654	0.8413
1663	0.84
1672	0.8275
1681	0.8079
1690	0.829
1699	0.8395
1708	0.8375
1717	0.8301
1726	0.8185
1735	0.81
1744	0.8035
1753	0.7969
1762	0.7942
1771	0.7921
1780	0.7872
1789	0.7856
1798	0.7825
1807	0.7786
1816	0.7746
1825	0.7708
1834	0.7673
1843	0.7629
1852	0.758
1861	0.7508
1870	0.7317
1879	0.7422
1888	0.7377
1897	0.7426
1906	0.7484
1915	0.7418
1924	0.7409
1933	0.7376
1942	0.7338
1951	0.7289
1960	0.7156
1969	0.7203
1978	0.7216
1987	0.7145
1996	0.7163
2005	0.7091
2014	0.7082
2023	0.7062
2032	0.7044
2041	0.7021
2050	0.6993
2059	0.6964
2068	0.6934
2077	0.6904
2086	0.6867
2095	0.6831
2104	0.6794
2113	0.676
2122	0.673
2131	0.67
2140	0.6671
2149	0.6642
2158	0.6613
2167	0.6577
2176	0.653
2185	0.6502
2194	0.648
2203	0.645
2212	0.6414
2221	0.6378
2230	0.6341
2239	0.63
2248	0.626
2257	0.62
2266	0.6109
2275	0.6049
2284	0.6019
2293	0.6024
2302	0.6023
2311	0.6017
2320	0.6011
2329	0.5995
2338	0.5924
2347	0.586
2356	0.5938
2365	0.6031
2374	0.6012
2383	0.5989
2392	0.5976
2401	0.5965
2410	0.5956
2419	0.5943
2428	0.5931
2437	0.5921
2446	0.5908
2455	0.5894
2464	0.5881
2473	0.5867
2482	0.5855
2491	0.5845
2500	0.5836
2509	0.5828
2518	0.582
2527	0.5811
2536	0.5794
2545	0.5775
2554	0.5756
2563	0.5735
2572	0.5715
2581	0.5694
2590	0.5671
2599	0.5647
2608	0.5624
2617	0.5599
2626	0.5569
2635	0.5539
2644	0.551
2653	0.548
2662	0.5451
2671	0.5422
2680	0.5393
2689	0.5361
2698	0.533
2707	0.5297
2716	0.5263
2725	0.5225
2734	0.5177
2743	0.5126
2752	0.5065
2761	0.4975
2770	0.4869
2779	0.4735
2788	0.4593
2797	0.4399
2806	0.4368
2815	0.4558
2824	0.4832
2833	0.4855
2842	0.4809
2851	0.4691
2860	0.4613
2869	0.4556
2878	0.4502
2887	0.4513
2896	0.4579
2905	0.4691
2914	0.4686
2923	0.4669
2932	0.4656
2941	0.4659
2950	0.4694
2959	0.4739
2968	0.4793
2977	0.4831
2986	0.4859
2995	0.4872
3004	0.4915
3013	0.493
3022	0.4919
3031	0.4904
3040	0.4885
3049	0.4859
3058	0.4827
3067	0.4792
3076	0.4753
3085	0.471
3094	0.4699
3103	0.4748
3112	0.4794
3121	0.4792
3130	0.4768
3139	0.4745
3148	0.4737
3157	0.472
3166	0.4694
3175	0.4646
3184	0.4581
3193	0.4504
3202	0.442
3211	0.4336
3220	0.425
3229	0.4175
3238	0.4207
3247	0.4324
3256	0.436
3265	0.4353
3274	0.4321
3283	0.4286
3292	0.425
3301	0.4206
3310	0.4147
3319	0.4018
3328	0.3775
3337	0.3279
3346	0.279
3355	0.4423
3364	0.4479
3373	0.4376
3382	0.4192
3391	0.3982
3400	0.37
3409	0.3285
3418	0.261
3427	0.3986
3436	0.4935
3445	0.4926
3454	0.4856
3463	0.4784
3472	0.4733
3481	0.4692
3490	0.4657
3499	0.4627
3508	0.4607
3517	0.4593
3526	0.458
3535	0.4565
3544	0.4551
3553	0.4527
3562	0.4495
3571	0.4469
3580	0.4454
3589	0.4445
3598	0.4435
3607	0.4431
3616	0.4427
3625	0.4423
3634	0.4424
3643	0.4424
3652	0.442
3661	0.4411
3670	0.4395
3679	0.439
3688	0.4382
3697	0.4364
3706	0.4362
3715	0.4357
3724	0.4346
3733	0.4328
3742	0.431
3751	0.4295
3760	0.4282
3769	0.4267
3778	0.4252
3787	0.4237
3796	0.4225
3805	0.4245
3814	0.4239
3823	0.4227
3832	0.4216
3841	0.4207
3850	0.4197
3859	0.4183
3868	0.4169
3877	0.4154
3886	0.4141
3895	0.4132
3904	0.4143
3913	0.4149
3922	0.4153
3931	0.4135
3940	0.4108
3949	0.4074
3958	0.4061
3967	0.4053
3976	0.405
3985	0.4047
3994	0.4044
