Infrared Spectrum: p-PHENYLENEDIAMINE, N,N-DIETHYL-N',N'-BIS(PHENYLSULFONYL)-
Formula: C22 H24 N2 O4 S2
CAS: 19770-87-7
State: SOLID (SPLIT MULL), FLUOROLUBE FOR 4000-1340 CM^-^1, NUJOL FOR 1340-400 CM^-^1
Melting point: 140 C
Class: COBLENTZ III
Instrument: BECKMAN IR-12 (GRATING)
Instrument parameters: GRATING CHANGE: 300, 650, 2000 CM^-^1
Sampling: TRANSMISSION
Resolution: 2
Origin: EASTMAN KODAK COMPANY
1/CM	TRANSMITTANCE
403	0.6617
412	0.7123
421	0.7154
430	0.7193
439	0.6226
448	0.7244
457	0.5975
466	0.7363
475	0.8264
484	0.8345
493	0.8341
502	0.8281
511	0.8149
520	0.7805
529	0.6265
538	0.566
547	0.2834
556	0.0933
565	0.1913
574	0.1116
583	0.6103
592	0.7599
601	0.8137
610	0.8186
619	0.7894
628	0.4773
637	0.5411
646	0.7981
655	0.8728
664	0.8533
673	0.8078
682	0.6017
691	0.1954
700	0.7349
709	0.776
718	0.2099
727	0.3544
736	0.4425
745	0.5938
754	0.2547
763	0.4605
772	0.8382
781	0.8482
790	0.7274
799	0.6811
808	0.8169
817	0.8694
826	0.8717
835	0.8627
844	0.7544
853	0.7857
862	0.7344
871	0.4951
880	0.157
889	0.1959
898	0.4154
907	0.5175
916	0.4581
925	0.6759
934	0.5996
943	0.6966
952	0.2966
961	0.6641
970	0.7336
979	0.7097
988	0.7683
997	0.7579
1006	0.6042
1015	0.565
1024	0.6423
1033	0.7881
1042	0.7943
1051	0.8043
1060	0.7927
1069	0.6343
1078	0.4999
1087	0.2472
1096	0.4836
1105	0.5865
1114	0.7236
1123	0.7223
1132	0.7006
1141	0.6625
1150	0.5599
1159	0.2689
1168	0.1206
1177	0.1933
1186	0.1083
1195	0.1967
1204	0.3939
1213	0.58
1222	0.51
1231	0.7299
1240	0.7448
1249	0.7349
1258	0.7035
1267	0.5878
1276	0.3173
1285	0.61
1294	0.6311
1303	0.6573
1312	0.4596
1321	0.632
1330	0.6101
1339	0.4118
1348	0.3174
1357	0.049
1366	0.1881
1375	0.0938
1384	0.645
1393	0.8618
1402	0.6981
1411	0.5507
1420	0.8147
1429	0.8198
1438	0.7667
1447	0.372
1456	0.6004
1465	0.7125
1474	0.618
1483	0.6969
1492	0.7246
1501	0.6321
1510	0.4619
1519	0.2226
1528	0.5055
1537	0.823
1546	0.8718
1555	0.8521
1564	0.8176
1573	0.7777
1582	0.5798
1591	0.5232
1600	0.2703
1609	0.4776
1618	0.6888
1627	0.8651
1636	0.8876
1645	0.8991
1654	0.9044
1663	0.9057
1672	0.8996
1681	0.8911
1690	0.8789
1699	0.8844
1708	0.892
1717	0.8868
1726	0.8789
1735	0.8762
1744	0.8661
1753	0.8559
1762	0.8491
1771	0.8428
1780	0.8393
1789	0.8394
1798	0.8292
1807	0.8243
1816	0.8111
1825	0.8124
1834	0.8174
1843	0.8211
1852	0.823
1861	0.819
1870	0.8146
1879	0.8102
1888	0.7938
1897	0.7759
1906	0.7733
1915	0.7862
1924	0.7941
1933	0.7944
1942	0.7961
1951	0.7931
1960	0.7843
1969	0.7741
1978	0.7706
1987	0.7723
1996	0.7648
2005	0.7725
2014	0.7729
2023	0.7705
2032	0.7667
2041	0.7634
2050	0.76
2059	0.7561
2068	0.7523
2077	0.7484
2086	0.7449
2095	0.7414
2104	0.7379
2113	0.7344
2122	0.7317
2131	0.7289
2140	0.7262
2149	0.7231
2158	0.7195
2167	0.7125
2176	0.7115
2185	0.7117
2194	0.71
2203	0.7054
2212	0.6984
2221	0.6908
2230	0.6839
2239	0.677
2248	0.671
2257	0.6673
2266	0.6652
2275	0.6635
2284	0.6611
2293	0.6586
2302	0.6554
2311	0.6521
2320	0.6465
2329	0.6386
2338	0.6219
2347	0.6185
2356	0.6281
2365	0.6131
2374	0.6284
2383	0.6419
2392	0.6406
2401	0.6404
2410	0.639
2419	0.6363
2428	0.634
2437	0.6319
2446	0.63
2455	0.6281
2464	0.6262
2473	0.6241
2482	0.622
2491	0.6193
2500	0.6166
2509	0.6139
2518	0.6111
2527	0.6084
2536	0.6056
2545	0.6031
2554	0.6009
2563	0.5987
2572	0.5975
2581	0.5964
2590	0.5952
2599	0.5936
2608	0.592
2617	0.5904
2626	0.5889
2635	0.5873
2644	0.5854
2653	0.5815
2662	0.5777
2671	0.5757
2680	0.5737
2689	0.5728
2698	0.5717
2707	0.5702
2716	0.5682
2725	0.5659
2734	0.5628
2743	0.5593
2752	0.5558
2761	0.5524
2770	0.5489
2779	0.5453
2788	0.5414
2797	0.5371
2806	0.5329
2815	0.5264
2824	0.518
2833	0.5085
2842	0.4984
2851	0.4845
2860	0.464
2869	0.4293
2878	0.449
2887	0.431
2896	0.4157
2905	0.4268
2914	0.4238
2923	0.3778
2932	0.3944
2941	0.4442
2950	0.4059
2959	0.329
2968	0.3118
2977	0.3916
2986	0.4715
2995	0.5121
3004	0.5138
3013	0.5123
3022	0.5131
3031	0.5034
3040	0.4998
3049	0.4744
3058	0.4579
3067	0.4719
3076	0.4728
3085	0.4574
3094	0.4566
3103	0.4788
3112	0.4859
3121	0.4832
3130	0.4833
3139	0.4871
3148	0.4857
3157	0.481
3166	0.4781
3175	0.48
3184	0.4797
3193	0.4783
3202	0.4763
3211	0.4743
3220	0.4724
3229	0.4705
3238	0.4686
3247	0.4667
3256	0.4649
3265	0.4632
3274	0.4614
3283	0.4597
3292	0.4585
3301	0.4573
3310	0.4557
3319	0.4537
3328	0.4515
3337	0.4492
3346	0.4472
3355	0.4453
3364	0.4434
3373	0.4415
3382	0.4396
3391	0.4378
3400	0.436
3409	0.4342
3418	0.4325
3427	0.4307
3436	0.429
3445	0.4279
3454	0.4269
3463	0.426
3472	0.4251
3481	0.4241
3490	0.4232
3499	0.4223
3508	0.4214
3517	0.4204
3526	0.4195
3535	0.4186
3544	0.4177
3553	0.4168
3562	0.4161
3571	0.4155
3580	0.4148
3589	0.4141
3598	0.4137
3607	0.4115
3616	0.4087
3625	0.4071
3634	0.4056
3643	0.404
3652	0.4035
3661	0.4033
3670	0.4031
3679	0.4058
3688	0.4046
3697	0.4009
3706	0.3979
3715	0.3967
3724	0.3957
3733	0.3942
3742	0.39
3751	0.3874
3760	0.3884
3769	0.3873
3778	0.3859
3787	0.3844
3796	0.3822
3805	0.38
3814	0.3778
3823	0.3757
3832	0.3737
3841	0.3717
3850	0.3699
3859	0.3686
3868	0.3675
3877	0.3662
3886	0.3653
3895	0.3645
3904	0.3637
3913	0.3629
3922	0.3627
3931	0.3625
3940	0.362
3949	0.3613
3958	0.3593
3967	0.357
3976	0.3548
3985	0.3527
3994	0.351
