Infrared Spectrum: Aniline, 4-nitro-3-phenylsulfonyl-
Formula: C12 H10 N2 O4 S
CAS: 19770-94-6
State: SOLID (SPLIT MULL), FLUOROLUBE FOR 4000-1340 CM^-^1, NUJOL FOR 1340-400 CM^-^1
Melting point: 234 C
Class: COBLENTZ III
Instrument: BECKMAN IR-12 (GRATING)
Instrument parameters: GRATING CHANGE: 300, 650, 2000 CM^-^1
Sampling: TRANSMISSION
Resolution: 2
Origin: EASTMAN KODAK COMPANY
1/CM	TRANSMITTANCE
403	0.3996
412	0.4542
421	0.4249
430	0.3718
439	0.3845
448	0.3411
457	0.4093
466	0.4594
475	0.5102
484	0.5665
493	0.607
502	0.661
511	0.7181
520	0.5869
529	0.3041
538	0.2787
547	0.542
556	0.5388
565	0.3587
574	0.3226
583	0.5514
592	0.3427
601	0.1945
610	0.5305
619	0.4781
628	0.8437
637	0.6422
646	0.9296
655	0.9055
664	0.8281
673	0.546
682	0.1593
691	0.6051
700	0.7102
709	0.7646
718	0.5228
727	0.1183
736	0.5332
745	0.4554
754	0.6212
763	0.8164
772	0.823
781	0.8171
790	0.8025
799	0.79
808	0.7697
817	0.74
826	0.7045
835	0.4123
844	0.2681
853	0.5734
862	0.5995
871	0.5838
880	0.5088
889	0.4776
898	0.539
907	0.4413
916	0.4892
925	0.4897
934	0.5615
943	0.5847
952	0.595
961	0.5944
970	0.5848
979	0.619
988	0.6188
997	0.6019
1006	0.5941
1015	0.5881
1024	0.4011
1033	0.506
1042	0.5559
1051	0.486
1060	0.572
1069	0.4766
1078	0.3706
1087	0.2445
1096	0.342
1105	0.3502
1114	0.3865
1123	0.248
1132	0.094
1141	0.192
1150	0.1701
1159	0.1264
1168	0.2338
1177	0.2914
1186	0.4345
1195	0.4459
1204	0.4426
1213	0.4291
1222	0.4067
1231	0.3711
1240	0.3213
1249	0.2486
1258	0.3206
1267	0.2275
1276	0.1503
1285	0.0803
1294	0.0933
1303	0.1307
1312	0.1923
1321	0.0756
1330	0.0509
1339	0.1875
1348	0.4029
1357	0.5581
1366	0.7328
1375	0.8283
1384	0.8909
1393	0.9229
1402	0.8869
1411	0.8431
1420	0.8441
1429	0.744
1438	0.6703
1447	0.265
1456	0.8215
1465	0.72
1474	0.5767
1483	0.4174
1492	0.4692
1501	0.4619
1510	0.1475
1519	0.3077
1528	0.6867
1537	0.7334
1546	0.7264
1555	0.6839
1564	0.543
1573	0.3901
1582	0.295
1591	0.2353
1600	0.168
1609	0.6018
1618	0.8353
1627	0.6645
1636	0.3853
1645	0.3128
1654	0.7449
1663	0.9606
1672	0.9754
1681	0.9866
1690	1.0012
1699	0.9969
1708	0.993
1717	0.976
1726	0.9724
1735	0.9608
1744	0.9443
1753	0.9052
1762	0.9221
1771	0.9316
1780	0.9254
1789	0.9156
1798	0.8982
1807	0.8876
1816	0.8945
1825	0.8919
1834	0.8871
1843	0.8802
1852	0.878
1861	0.8699
1870	0.8589
1879	0.8463
1888	0.8334
1897	0.8423
1906	0.8403
1915	0.8287
1924	0.8191
1933	0.8077
1942	0.814
1951	0.8087
1960	0.783
1969	0.8057
1978	0.7972
1987	0.7986
1996	0.7994
2005	0.7978
2014	0.7942
2023	0.7908
2032	0.7869
2041	0.7823
2050	0.7764
2059	0.7704
2068	0.764
2077	0.7606
2086	0.7614
2095	0.7587
2104	0.7551
2113	0.7501
2122	0.7458
2131	0.7415
2140	0.7371
2149	0.7327
2158	0.729
2167	0.7252
2176	0.7214
2185	0.7174
2194	0.7134
2203	0.7094
2212	0.7053
2221	0.7011
2230	0.697
2239	0.6927
2248	0.6909
2257	0.6883
2266	0.6845
2275	0.6803
2284	0.6768
2293	0.6745
2302	0.6731
2311	0.672
2320	0.6649
2329	0.6519
2338	0.6449
2347	0.6448
2356	0.6344
2365	0.6256
2374	0.6468
2383	0.6533
2392	0.6539
2401	0.6513
2410	0.6477
2419	0.6434
2428	0.639
2437	0.6353
2446	0.6319
2455	0.6281
2464	0.6292
2473	0.6274
2482	0.6214
2491	0.62
2500	0.6208
2509	0.6201
2518	0.6192
2527	0.6173
2536	0.6147
2545	0.6086
2554	0.6045
2563	0.6012
2572	0.5984
2581	0.5958
2590	0.5932
2599	0.5916
2608	0.5921
2617	0.5889
2626	0.5847
2635	0.5786
2644	0.5729
2653	0.5681
2662	0.5634
2671	0.5583
2680	0.5528
2689	0.5458
2698	0.5393
2707	0.5455
2716	0.5495
2725	0.5454
2734	0.5445
2743	0.547
2752	0.5473
2761	0.5459
2770	0.5444
2779	0.5422
2788	0.5389
2797	0.5344
2806	0.5292
2815	0.5255
2824	0.524
2833	0.5202
2842	0.5146
2851	0.5101
2860	0.5102
2869	0.5127
2878	0.5082
2887	0.5017
2896	0.4947
2905	0.4855
2914	0.4765
2923	0.4739
2932	0.4759
2941	0.4807
2950	0.4837
2959	0.4814
2968	0.4788
2977	0.4763
2986	0.4739
2995	0.4733
3004	0.473
3013	0.4688
3022	0.46
3031	0.4506
3040	0.4427
3049	0.4441
3058	0.4367
3067	0.4208
3076	0.4228
3085	0.4237
3094	0.4034
3103	0.4127
3112	0.4384
3121	0.4377
3130	0.4335
3139	0.4282
3148	0.4227
3157	0.4206
3166	0.4219
3175	0.4161
3184	0.4063
3193	0.394
3202	0.3771
3211	0.3394
3220	0.2983
3229	0.2905
3238	0.297
3247	0.2763
3256	0.2455
3265	0.3681
3274	0.3942
3283	0.3946
3292	0.3878
3301	0.3726
3310	0.3534
3319	0.3296
3328	0.3018
3337	0.274
3346	0.2267
3355	0.1417
3364	0.0722
3373	0.2886
3382	0.4931
3391	0.4925
3400	0.4591
3409	0.42
3418	0.3809
3427	0.3417
3436	0.3027
3445	0.249
3454	0.1432
3463	0.0758
3472	0.2641
3481	0.4024
3490	0.4143
3499	0.4458
3508	0.4801
3517	0.4796
3526	0.4775
3535	0.4745
3544	0.4714
3553	0.4684
3562	0.4656
3571	0.4626
3580	0.4594
3589	0.4562
3598	0.4531
3607	0.4497
3616	0.4464
3625	0.4431
3634	0.44
3643	0.4377
3652	0.4356
3661	0.4333
3670	0.4311
3679	0.43
3688	0.4289
3697	0.4278
3706	0.4268
3715	0.4256
3724	0.4225
3733	0.4186
3742	0.4163
3751	0.4167
3760	0.4159
3769	0.4141
3778	0.4118
3787	0.4094
3796	0.407
3805	0.4044
3814	0.4032
3823	0.4021
3832	0.4012
3841	0.4005
3850	0.3999
3859	0.3991
3868	0.3979
3877	0.3964
3886	0.3953
3895	0.3944
3904	0.3935
3913	0.392
3922	0.3906
3931	0.3888
3940	0.3868
3949	0.3852
3958	0.3841
3967	0.3823
3976	0.3794
3985	0.3778
3994	0.3767
