Infrared Spectrum: ANILINE, 4-(N,N-DIETHYLAMINO)-2-(p-TOLYLSULFONYL)-
Formula: C17 H22 N2 O2 S
CAS: 19770-83-3
State: SOLID (SPLIT MULL), FLUOROLUBE FOR 4000-1340 CM^-^1, NUJOL FOR 1340-400 CM^-^1
Melting point: 156 C
Class: COBLENTZ III
Instrument: BECKMAN IR-12 (GRATING)
Instrument parameters: GRATING CHANGE: 300, 650, 2000 CM^-^1
Sampling: TRANSMISSION
Resolution: 2
Origin: EASTMAN KODAK COMPANY
1/CM	TRANSMITTANCE
402	0.733
412	0.7191
422	0.7179
432	0.7717
442	0.7221
452	0.7635
462	0.844
472	0.8556
482	0.8319
492	0.8278
502	0.8496
512	0.7722
522	0.7259
532	0.5089
542	0.6943
552	0.7619
562	0.7907
572	0.7268
582	0.3477
592	0.4433
602	0.7337
612	0.801
622	0.8103
632	0.7415
642	0.7692
652	0.5875
662	0.6152
672	0.4826
682	0.6267
692	0.7544
702	0.6668
712	0.5873
722	0.768
732	0.8067
742	0.8044
752	0.6501
762	0.6265
772	0.7523
782	0.6542
792	0.7905
802	0.6686
812	0.4956
822	0.7693
832	0.8203
842	0.5993
852	0.7988
862	0.8683
872	0.8895
882	0.8926
892	0.8904
902	0.8839
912	0.8459
922	0.6783
932	0.8198
942	0.8649
952	0.8595
962	0.8539
972	0.8416
982	0.8573
992	0.8527
1002	0.8339
1012	0.6528
1022	0.7645
1032	0.7648
1042	0.658
1052	0.7559
1062	0.6621
1072	0.447
1082	0.407
1092	0.4191
1102	0.6424
1112	0.634
1122	0.6167
1132	0.3763
1142	0.0816
1152	0.456
1162	0.5307
1172	0.5669
1182	0.64
1192	0.6425
1202	0.4097
1212	0.6357
1222	0.6926
1232	0.6853
1242	0.6451
1252	0.5299
1262	0.3725
1272	0.2661
1282	0.1412
1292	0.2738
1302	0.6493
1312	0.6259
1322	0.3198
1332	0.739
1342	0.6918
1352	0.6283
1362	0.4172
1372	0.4344
1382	0.6737
1392	0.5525
1402	0.6557
1412	0.7104
1422	0.5579
1432	0.568
1442	0.6359
1452	0.6004
1462	0.6065
1472	0.6107
1482	0.4814
1492	0.3409
1502	0.0559
1512	0.3475
1522	0.6068
1532	0.7964
1542	0.8726
1552	0.8968
1562	0.9084
1572	0.9171
1582	0.9002
1592	0.8518
1602	0.7285
1612	0.5176
1622	0.6047
1632	0.7338
1642	0.8498
1652	0.8614
1662	0.8651
1672	0.8864
1682	0.8784
1692	0.9125
1702	0.929
1712	0.9325
1722	0.9333
1732	0.9287
1742	0.9211
1752	0.9171
1762	0.9177
1772	0.9111
1782	0.9065
1792	0.9043
1802	0.9023
1812	0.9017
1822	0.9009
1832	0.8975
1842	0.894
1852	0.8904
1862	0.881
1872	0.8649
1882	0.8702
1892	0.8793
1902	0.8722
1912	0.8652
1922	0.8466
1932	0.8469
1942	0.8687
1952	0.872
1962	0.8691
1972	0.8658
1982	0.8694
1992	0.8665
2002	0.8571
2012	0.8483
2022	0.8463
2032	0.8443
2042	0.8427
2052	0.8411
2062	0.8395
2072	0.8378
2082	0.8358
2092	0.8336
2102	0.8309
2112	0.8276
2122	0.8243
2132	0.821
2142	0.8175
2152	0.8138
2162	0.8098
2172	0.8058
2182	0.8017
2192	0.7983
2202	0.7951
2212	0.7919
2222	0.7886
2232	0.7853
2242	0.7816
2252	0.778
2262	0.7743
2272	0.7709
2282	0.7678
2292	0.7648
2302	0.7627
2312	0.7613
2322	0.7597
2332	0.7558
2342	0.7529
2352	0.7608
2362	0.7558
2372	0.7575
2382	0.7628
2392	0.7599
2402	0.7585
2412	0.7568
2422	0.7568
2432	0.7586
2442	0.7588
2452	0.7585
2462	0.7581
2472	0.7571
2482	0.7561
2492	0.7549
2502	0.7528
2512	0.7493
2522	0.7461
2532	0.7447
2542	0.7481
2552	0.7459
2562	0.7422
2572	0.7385
2582	0.7348
2592	0.7329
2602	0.7315
2612	0.7287
2622	0.7286
2632	0.7278
2642	0.7246
2652	0.7194
2662	0.7148
2672	0.7085
2682	0.7026
2692	0.7014
2702	0.6968
2712	0.6938
2722	0.692
2732	0.6929
2742	0.6941
2752	0.693
2762	0.6861
2772	0.6785
2782	0.6709
2792	0.664
2802	0.6584
2812	0.657
2822	0.6566
2832	0.6493
2842	0.631
2852	0.5848
2862	0.5614
2872	0.5035
2882	0.5206
2892	0.4752
2902	0.4938
2912	0.5253
2922	0.4647
2932	0.4276
2942	0.4873
2952	0.4611
2962	0.2576
2972	0.3591
2982	0.5882
2992	0.64
3002	0.6576
3012	0.6602
3022	0.6558
3032	0.6478
3042	0.6163
3052	0.6324
3062	0.648
3072	0.6342
3082	0.6105
3092	0.6299
3102	0.6402
3112	0.6414
3122	0.6415
3132	0.6406
3142	0.6386
3152	0.6359
3162	0.632
3172	0.6251
3182	0.6158
3192	0.6016
3202	0.5863
3212	0.5688
3222	0.5677
3232	0.5804
3242	0.5876
3252	0.5892
3262	0.5865
3272	0.5819
3282	0.5759
3292	0.5691
3302	0.5603
3312	0.5477
3322	0.5262
3332	0.454
3342	0.2724
3352	0.3281
3362	0.5747
3372	0.5851
3382	0.5739
3392	0.5563
3402	0.5258
3412	0.4407
3422	0.2138
3432	0.3207
3442	0.5876
3452	0.6047
3462	0.6077
3472	0.6078
3482	0.6075
3492	0.607
3502	0.6056
3512	0.6042
3522	0.6031
3532	0.6021
3542	0.601
3552	0.6002
3562	0.5994
3572	0.5987
3582	0.5985
3592	0.5979
3602	0.5949
3612	0.5919
3622	0.5917
3632	0.5955
3642	0.5919
3652	0.5878
3662	0.586
3672	0.5888
3682	0.589
3692	0.5881
3702	0.5871
3712	0.5858
3722	0.5845
3732	0.5829
3742	0.5812
3752	0.5795
3762	0.5766
3772	0.5732
3782	0.5711
3792	0.5693
3802	0.5679
3812	0.5662
3822	0.5644
3832	0.5626
3842	0.5613
3852	0.5603
3862	0.5594
3872	0.5581
3882	0.5568
3892	0.5568
3902	0.5582
3912	0.5571
3922	0.5555
3932	0.5531
3942	0.5508
3952	0.5492
3962	0.5478
3972	0.5469
3982	0.5456
3992	0.542
4002	0.5379
