Infrared Spectrum: 2,3-Dimethyl-2-octene
Formula: C 10 H 20
CAS: 19781-18-1
State: gas
Instrument: HP-GC/MS/IRD
Origin: NIST Mass Spectrometry Data Center
1/CM	ABSORBANCE
550	5.75e-05
562	0.0001225
574	0.000105
586	0.000135
598	0.0001325
610	0.000135
622	1.5e-05
634	1.75e-05
646	0.0001325
658	7.25e-05
670	0.0001825
682	0.0001475
694	0.00017
706	0.00018
718	0.0002575
730	0.00037
742	0.00042
754	0.0003275
766	0.0003025
778	0.000335
790	0.0002425
802	0.000175
814	0.000175
826	0.00022
838	0.0002275
850	0.00023
862	0.0002475
874	0.000275
886	0.000255
898	0.0003075
910	0.000265
922	0.000285
934	0.00031
946	0.000305
958	0.0003625
970	0.0003975
982	0.0003925
994	0.0003375
1006	0.000345
1018	0.00035
1030	0.0002925
1042	0.000275
1054	0.0003
1066	0.0003575
1078	0.0003575
1090	0.00034
1102	0.000395
1114	0.0004225
1126	0.000545
1138	0.00098
1150	0.0018425
1162	0.0015125
1174	0.0006675
1186	0.000615
1198	0.0006475
1210	0.000545
1222	0.0004125
1234	0.00035
1246	0.0003475
1258	0.0003825
1270	0.0004075
1282	0.0004825
1294	0.0004975
1306	0.0005525
1318	0.000615
1330	0.0007475
1342	0.0009475
1354	0.00104
1366	0.0015025
1378	0.002235
1390	0.00193
1402	0.00124
1414	0.0010925
1426	0.00124
1438	0.0016475
1450	0.00236
1462	0.00282
1474	0.0022475
1486	0.0013725
1498	0.0009575
1510	0.000785
1522	0.00072
1534	0.0006225
1546	0.0005775
1558	0.0005325
1570	0.000435
1582	0.0003875
1594	0.00032
1606	0.00027
1618	0.0002225
1630	0.00019
1642	0.0001625
1654	0.00016
1666	0.00014
1678	0.000115
1690	7.25e-05
1702	9.75e-05
1714	7e-05
1726	6e-05
1738	6.5e-05
1750	7.25e-05
1762	5.75e-05
1774	4.25e-05
1786	5e-05
1798	4e-05
1810	2e-05
1822	4.25e-05
1834	5e-05
1846	5.25e-05
1858	5.25e-05
1870	3.75e-05
1882	3e-05
1894	5.5e-05
1906	3.75e-05
1918	4.25e-05
1930	2.5e-05
1942	4.25e-05
1954	4.25e-05
1966	1.5e-05
1978	3.75e-05
1990	2.5e-05
2002	2.75e-05
2014	4e-05
2026	4.5e-05
2038	5.5e-05
2050	5.75e-05
2062	3.75e-05
2074	5.25e-05
2086	2.25e-05
2098	3.25e-05
2110	2.25e-05
2122	3e-05
2134	3e-05
2146	1.75e-05
2158	3.25e-05
2170	2.75e-05
2182	1.75e-05
2194	3.5e-05
2206	3.25e-05
2218	2.5e-05
2230	2.25e-05
2242	3e-05
2254	3.25e-05
2266	2.5e-05
2278	3.25e-05
2290	5.25e-05
2302	3.25e-05
2314	5.25e-05
2326	6.5e-05
2338	6.25e-05
2350	5.75e-05
2362	9.25e-05
2374	6.5e-05
2386	6.5e-05
2398	8.75e-05
2410	8e-05
2422	7.5e-05
2434	7.75e-05
2446	8e-05
2458	8.75e-05
2470	8e-05
2482	8e-05
2494	6.5e-05
2506	6.25e-05
2518	0.000105
2530	0.0001125
2542	0.0001275
2554	0.00013
2566	0.000115
2578	0.000145
2590	0.0001425
2602	0.0001625
2614	0.0001875
2626	0.0001975
2638	0.0002225
2650	0.00025
2662	0.000285
2674	0.000305
2686	0.0003425
2698	0.0003275
2710	0.0004025
2722	0.0005625
2734	0.000775
2746	0.0007625
2758	0.0006725
2770	0.0007275
2782	0.00081
2794	0.001035
2806	0.00135
2818	0.0018825
2830	0.002755
2842	0.0046
2854	0.0088325
2866	0.0138125
2878	0.0143675
2890	0.012345
2902	0.012755
2914	0.01744
2926	0.02401
2938	0.0235
2950	0.0174675
2962	0.0160875
2974	0.013215
2986	0.0079275
2998	0.00677
3010	0.0059075
3022	0.00465
3034	0.003535
3046	0.0026225
3058	0.0018775
3070	0.00133
3082	0.0010225
3094	0.000785
3106	0.000615
3118	0.0004925
3130	0.0004275
3142	0.0003725
3154	0.0003
3166	0.0002975
3178	0.00025
3190	0.0002275
3202	0.0001875
3214	0.00018
3226	0.00013
3238	0.00015
3250	0.0001225
3262	4.25e-05
3274	8e-05
3286	9.25e-05
3298	7.25e-05
3310	6.5e-05
3322	5.25e-05
3334	9.5e-05
3346	7.75e-05
3358	0.000145
3370	0.0001
3382	9e-05
3394	9.75e-05
3406	9.25e-05
3418	7.5e-05
3430	9e-05
3442	0.0001125
3454	5.75e-05
3466	5.25e-05
3478	4.75e-05
3490	7.75e-05
3502	5.25e-05
3514	4e-05
3526	2e-05
3538	8.25e-05
3550	9e-05
3562	8.5e-05
3574	5.75e-05
3586	9.5e-05
3598	8.75e-05
3610	9e-05
3622	3.5e-05
3634	7.5e-05
3646	7.25e-05
3658	4.5e-05
3670	6.75e-05
3682	6e-05
3694	7.75e-05
3706	8.75e-05
3718	6.25e-05
3730	9.5e-05
3742	8.25e-05
3754	0.000105
3766	0.00012
3778	8.75e-05
3790	0.0001025
3802	0.000105
3814	0.0001275
3826	0.00015
3838	0.0001325
