Infrared Spectrum: 4-Heptyn-2-ol
Formula: C 7 H 12 O
CAS: 19781-81-8
State: gas
Instrument: HP-GC/MS/IRD
Origin: NIST Mass Spectrometry Data Center
1/CM	ABSORBANCE
550	0.000408
562	0.0002775
574	0.0003
586	0.0004065
598	0.000336
610	0.000321
622	0.0001395
634	0.000195
646	0.0001605
658	0.000213
670	0.0002415
682	4.5e-05
694	0.0001155
706	8.85e-05
718	0.000147
730	0.000225
742	0.0002535
754	0.000159
766	0.000186
778	0.00027
790	0.000348
802	0.000429
814	0.0006825
826	0.0009
838	0.000666
850	0.000381
862	0.0003225
874	0.0003525
886	0.000462
898	0.000549
910	0.000963
922	0.0021255
934	0.003504
946	0.0025485
958	0.0012525
970	0.0008985
982	0.0006495
994	0.00078
1006	0.0011475
1018	0.002034
1030	0.003117
1042	0.0041115
1054	0.004614
1066	0.004758
1078	0.005391
1090	0.0068235
1102	0.0068565
1114	0.005358
1126	0.0036855
1138	0.0026115
1150	0.0018315
1162	0.001233
1174	0.0010365
1186	0.0013185
1198	0.0020325
1210	0.0025095
1222	0.0024645
1234	0.002427
1246	0.003012
1258	0.0036045
1270	0.0034905
1282	0.003081
1294	0.002586
1306	0.003024
1318	0.004938
1330	0.004245
1342	0.002925
1354	0.003162
1366	0.0035565
1378	0.004452
1390	0.004635
1402	0.00375
1414	0.0027135
1426	0.0026595
1438	0.0028275
1450	0.0026205
1462	0.00219
1474	0.0015825
1486	0.00096
1498	0.0006165
1510	0.000396
1522	0.0002955
1534	0.000282
1546	0.0001935
1558	0.0001725
1570	0.0001695
1582	9.9e-05
1594	9.15e-05
1606	9.75e-05
1618	0.0001185
1630	0.000144
1642	9.9e-05
1654	0.000108
1666	8.1e-05
1678	7.2e-05
1690	7.05e-05
1702	6e-05
1714	3e-06
1726	4.35e-05
1738	3.9e-05
1750	2.25e-05
1762	7.95e-05
1774	2.85e-05
1786	1.65e-05
1798	4.2e-05
1810	4.65e-05
1822	3e-05
1834	4.65e-05
1846	8.7e-05
1858	9.15e-05
1870	0.000108
1882	0.0001095
1894	6e-05
1906	6.9e-05
1918	6.45e-05
1930	3.3e-05
1942	3.15e-05
1954	5.7e-05
1966	2.4e-05
1978	4.95e-05
1990	7.5e-06
2002	3e-05
2014	2.7e-05
2026	4.8e-05
2038	8.25e-05
2050	3.9e-05
2062	3.75e-05
2074	2.55e-05
2086	0
2098	3.3e-05
2110	3e-06
2122	0
2134	4.95e-05
2146	4.8e-05
2158	2.55e-05
2170	5.1e-05
2182	5.55e-05
2194	5.4e-05
2206	2.4e-05
2218	3.45e-05
2230	3e-05
2242	5.85e-05
2254	2.55e-05
2266	2.85e-05
2278	6.9e-05
2290	5.7e-05
2302	5.1e-05
2314	6.6e-05
2326	4.8e-05
2338	5.4e-05
2350	4.8e-05
2362	3.75e-05
2374	5.7e-05
2386	4.8e-05
2398	9e-05
2410	6.75e-05
2422	6.9e-05
2434	9e-05
2446	0.000111
2458	9.15e-05
2470	4.2e-05
2482	6.3e-05
2494	9.3e-05
2506	0.000102
2518	8.85e-05
2530	0.00012
2542	9e-05
2554	0.000135
2566	0.0001665
2578	0.000162
2590	0.0001365
2602	0.000141
2614	0.0001935
2626	0.0002325
2638	0.0002415
2650	0.000231
2662	0.000213
2674	0.0002355
2686	0.000216
2698	0.00027
2710	0.0002505
2722	0.0002955
2734	0.0003705
2746	0.0003915
2758	0.0004065
2770	0.000447
2782	0.0004665
2794	0.0005595
2806	0.000732
2818	0.0009795
2830	0.001458
2842	0.0020175
2854	0.002751
2866	0.0036795
2878	0.0049095
2890	0.0069135
2902	0.008532
2914	0.0105675
2926	0.011631
2938	0.0121875
2950	0.0110295
2962	0.009462
2974	0.013131
2986	0.0142455
2998	0.007278
3010	0.0033105
3022	0.0017655
3034	0.000975
3046	0.0007065
3058	0.000588
3070	0.0004995
3082	0.0003735
3094	0.0003615
3106	0.000306
3118	0.0003495
3130	0.0003435
3142	0.0003645
3154	0.000321
3166	0.000258
3178	0.0002325
3190	0.0001725
3202	0.0001995
3214	0.0001635
3226	0.000186
3238	0.000135
3250	0.000177
3262	0.0001125
3274	0.000117
3286	0.00012
3298	0.000141
3310	8.25e-05
3322	7.05e-05
3334	0.000114
3346	9.3e-05
3358	0.000159
3370	8.85e-05
3382	0.000102
3394	9.3e-05
3406	8.55e-05
3418	5.4e-05
3430	0.0001575
3442	0.0001605
3454	0.0001755
3466	2.85e-05
3478	6.15e-05
3490	9.45e-05
3502	0.0001155
3514	0.000159
3526	0.000168
3538	0.0002145
3550	0.000258
3562	0.00027
3574	0.0002985
3586	0.0006105
3598	0.0017055
3610	0.002523
3622	0.0013305
3634	0.0009165
3646	0.0011535
3658	0.001326
3670	0.0007575
3682	0.000279
3694	0.000144
3706	9.6e-05
3718	9.15e-05
3730	7.65e-05
3742	1.35e-05
3754	7.05e-05
3766	0.0001005
3778	9.9e-05
3790	7.2e-05
3802	4.2e-05
3814	2.7e-05
3826	4.95e-05
3838	7.35e-05
