Infrared Spectrum: 3-Ethyl-4-methyl-2-pentene
Formula: C 8 H 16
CAS: 19780-68-8
State: gas
Instrument: HP-GC/MS/IRD
Origin: NIST Mass Spectrometry Data Center
1/CM	ABSORBANCE
550	0.0004205
562	0.0002117
574	9.86e-05
586	0.0001363
598	0.0002581
610	0.0003799
622	0.000551
634	0.0005771
646	0.0004234
658	0.0002581
670	0.0001363
682	7.25e-05
694	6.09e-05
706	7.25e-05
718	8.41e-05
730	9.86e-05
742	3.48e-05
754	2.9e-05
766	8.99e-05
778	0.0002001
790	0.0003741
802	0.0008352
814	0.0015979
826	0.0017139
838	0.0008439
850	0.0002813
862	0.0002407
874	0.0001479
886	9.57e-05
898	0.0001827
910	0.0002958
922	0.0006148
934	0.0009338
946	0.0008671
958	0.0007192
970	0.0009831
982	0.0009454
994	0.0005713
1006	0.0004495
1018	0.0005191
1030	0.0006322
1042	0.0005829
1054	0.0005887
1066	0.0006177
1078	0.0005916
1090	0.0007105
1102	0.0009715
1114	0.0008207
1126	0.0004872
1138	0.0004524
1150	0.0004959
1162	0.0003364
1174	0.0002233
1186	0.0002436
1198	0.0002581
1210	0.0002668
1222	0.0001856
1234	0.0002204
1246	0.0002639
1258	0.0004437
1270	0.0005742
1282	0.000638
1294	0.0009686
1306	0.0011542
1318	0.0008642
1330	0.0006786
1342	0.0007308
1354	0.0012064
1366	0.0021953
1378	0.002813
1390	0.0022736
1402	0.0012093
1414	0.0008903
1426	0.0010237
1438	0.0014326
1450	0.0024476
1462	0.0036975
1474	0.0036221
1486	0.0021141
1498	0.0010556
1510	0.0007221
1522	0.0006003
1534	0.0004727
1546	0.0004263
1558	0.0003799
1570	0.000319
1582	0.0002639
1594	0.0002523
1606	0.0002465
1618	0.0002929
1630	0.0003393
1642	0.0003857
1654	0.0003596
1666	0.0002755
1678	0.0001914
1690	0.0001189
1702	0.000116
1714	0.0001131
1726	6.67e-05
1738	8.99e-05
1750	6.38e-05
1762	7.54e-05
1774	7.83e-05
1786	6.09e-05
1798	9.57e-05
1810	9.86e-05
1822	9.86e-05
1834	0.0001682
1846	0.0002146
1858	0.0001827
1870	0.0001131
1882	8.99e-05
1894	6.38e-05
1906	5.8e-05
1918	6.09e-05
1930	6.09e-05
1942	4.35e-05
1954	2.61e-05
1966	2.9e-05
1978	4.93e-05
1990	5.22e-05
2002	4.35e-05
2014	6.09e-05
2026	4.06e-05
2038	5.22e-05
2050	3.48e-05
2062	4.35e-05
2074	5.22e-05
2086	3.19e-05
2098	1.45e-05
2110	4.06e-05
2122	2.9e-05
2134	2.9e-06
2146	3.19e-05
2158	1.45e-05
2170	2.03e-05
2182	8.7e-06
2194	1.45e-05
2206	1.45e-05
2218	2.32e-05
2230	4.64e-05
2242	4.93e-05
2254	1.74e-05
2266	2.32e-05
2278	2.03e-05
2290	2.03e-05
2302	4.35e-05
2314	3.19e-05
2326	5.22e-05
2338	5.51e-05
2350	4.06e-05
2362	5.8e-05
2374	4.35e-05
2386	6.38e-05
2398	8.12e-05
2410	6.67e-05
2422	7.83e-05
2434	6.38e-05
2446	6.67e-05
2458	4.64e-05
2470	6.09e-05
2482	6.09e-05
2494	6.96e-05
2506	5.8e-05
2518	5.8e-05
2530	6.96e-05
2542	8.99e-05
2554	8.12e-05
2566	0.0001073
2578	0.000145
2590	0.0001595
2602	0.0001653
2614	0.0001334
2626	0.000174
2638	0.0001595
2650	0.0001508
2662	0.000174
2674	0.0001769
2686	0.0001972
2698	0.0002117
2710	0.0002958
2722	0.0004553
2734	0.0005858
2746	0.0005655
2758	0.000551
2770	0.000551
2782	0.0005829
2794	0.0006844
2806	0.0009019
2818	0.0011716
2830	0.0016182
2842	0.002378
2854	0.0040223
2866	0.0079402
2878	0.0120872
2890	0.0122757
2902	0.0109504
2914	0.0114985
2926	0.0148422
2938	0.0177161
2950	0.0190733
2962	0.026245
2974	0.0277327
2986	0.015341
2998	0.0071775
3010	0.0046255
3022	0.0037149
3034	0.0032538
3046	0.0027202
3058	0.0021576
3070	0.0015747
3082	0.0011484
3094	0.0008787
3106	0.0007366
3118	0.0006554
3130	0.0005916
3142	0.0005162
3154	0.0004611
3166	0.0004205
3178	0.0003799
3190	0.0003161
3202	0.0003422
3214	0.0002697
3226	0.0002262
3238	0.0001711
3250	0.0001624
3262	0.0001073
3274	0.0001015
3286	8.7e-05
3298	0.0001015
3310	0.0001015
3322	7.83e-05
3334	6.09e-05
3346	6.09e-05
3358	8.12e-05
3370	6.96e-05
3382	4.06e-05
3394	6.96e-05
3406	8.12e-05
3418	0.0001102
3430	5.51e-05
3442	9.28e-05
3454	8.41e-05
3466	5.22e-05
3478	5.22e-05
3490	0.0001073
3502	9.57e-05
3514	9.86e-05
3526	0.0001189
3538	0.0001073
3550	7.54e-05
3562	8.12e-05
3574	8.12e-05
3586	5.22e-05
3598	6.96e-05
3610	0.0001247
3622	0.0001305
3634	8.99e-05
3646	0.0001015
3658	0.0001305
3670	0.000116
3682	0.0001421
3694	0.0001189
3706	0.0001334
3718	0.0001131
3730	0.0001218
3742	0.0001595
3754	0.0001711
3766	0.0001247
3778	0.0001218
3790	0.0001363
3802	0.0001798
3814	0.0002233
3826	0.000174
3838	0.0001595
