Infrared Spectrum: 4-Ethyl-3-octanol
Formula: C 10 H 22 O
CAS: 19781-26-1
State: gas
Instrument: HP-GC/MS/IRD
Origin: NIST Mass Spectrometry Data Center
1/CM	ABSORBANCE
550	0.0001584
562	0.0001152
574	0.0001488
586	0.0002304
598	0.0002064
610	0.0002976
622	0.0002976
634	0.0002832
646	0.0002544
658	0.0002064
670	0.0002064
682	0.0002064
694	0.0002208
706	0.0003264
718	0.00048
730	0.0006672
742	0.0006672
754	0.0007056
766	0.0009408
778	0.001272
790	0.0012576
802	0.0010464
814	0.0008304
826	0.0008304
838	0.0008112
850	0.0009168
862	0.0010368
874	0.0011568
886	0.0011376
898	0.0012768
910	0.0016368
922	0.002208
934	0.0028224
946	0.0039024
958	0.0056208
970	0.00696
982	0.0061824
994	0.0050784
1006	0.0043104
1018	0.0033552
1030	0.0032016
1042	0.0032112
1054	0.003024
1066	0.0032256
1078	0.003696
1090	0.0041136
1102	0.0039456
1114	0.0034992
1126	0.0033216
1138	0.0033984
1150	0.0030864
1162	0.0021648
1174	0.001776
1186	0.0019728
1198	0.002496
1210	0.0031008
1222	0.0034752
1234	0.0034512
1246	0.0031344
1258	0.0028608
1270	0.0027792
1282	0.0028272
1294	0.0028848
1306	0.0026784
1318	0.0023904
1330	0.0023088
1342	0.0025584
1354	0.0027888
1366	0.0033888
1378	0.004992
1390	0.0050688
1402	0.0029328
1414	0.0020448
1426	0.0019248
1438	0.0026592
1450	0.0048864
1462	0.0077232
1474	0.0060912
1486	0.0026256
1498	0.0013488
1510	0.0009552
1522	0.0007392
1534	0.0005904
1546	0.0005088
1558	0.000456
1570	0.0003792
1582	0.000336
1594	0.0003168
1606	0.000264
1618	0.0002592
1630	0.0002256
1642	0.000216
1654	0.00024
1666	0.0001632
1678	0.0001344
1690	0.0001008
1702	0.0001008
1714	8.64e-05
1726	6.24e-05
1738	5.28e-05
1750	4.32e-05
1762	1.92e-05
1774	1.92e-05
1786	2.4e-05
1798	9.6e-06
1810	1.44e-05
1822	9.6e-06
1834	9.6e-06
1846	1.92e-05
1858	9.6e-06
1870	9.6e-06
1882	9.6e-06
1894	1.44e-05
1906	9.6e-06
1918	1.44e-05
1930	2.88e-05
1942	2.88e-05
1954	4.8e-06
1966	4.8e-06
1978	1.44e-05
1990	1.92e-05
2002	1.44e-05
2014	4.8e-06
2026	3.84e-05
2038	3.36e-05
2050	2.88e-05
2062	4.32e-05
2074	2.4e-05
2086	2.4e-05
2098	9.6e-06
2110	1.44e-05
2122	1.92e-05
2134	2.88e-05
2146	1.92e-05
2158	1.92e-05
2170	3.36e-05
2182	2.4e-05
2194	4.32e-05
2206	3.36e-05
2218	4.8e-05
2230	5.76e-05
2242	6.72e-05
2254	8.16e-05
2266	7.2e-05
2278	7.68e-05
2290	7.2e-05
2302	8.16e-05
2314	9.6e-05
2326	0.00012
2338	0.0001488
2350	0.000144
2362	0.0001584
2374	0.0001776
2386	0.0001728
2398	0.0001728
2410	0.0002112
2422	0.0002064
2434	0.0001584
2446	0.0001728
2458	0.0001344
2470	0.0001296
2482	0.0001248
2494	0.0001584
2506	0.000168
2518	0.0001824
2530	0.00024
2542	0.0002496
2554	0.0002832
2566	0.0003408
2578	0.000408
2590	0.0004848
2602	0.0005424
2614	0.0005616
2626	0.0005952
2638	0.0006336
2650	0.0006672
2662	0.000744
2674	0.0007968
2686	0.0008256
2698	0.0008832
2710	0.0009408
2722	0.0010416
2734	0.001248
2746	0.001416
2758	0.001368
2770	0.0014352
2782	0.0016512
2794	0.0019728
2806	0.0023952
2818	0.0029952
2830	0.0040992
2842	0.0062544
2854	0.0112944
2866	0.0197616
2878	0.0270144
2890	0.0264912
2902	0.0214704
2914	0.0258144
2926	0.0378768
2938	0.04644
2950	0.0395664
2962	0.0441408
2974	0.0431376
2986	0.0187392
2998	0.0084096
3010	0.0049728
3022	0.0035568
3034	0.002736
3046	0.0021696
3058	0.0018288
3070	0.0015744
3082	0.0014016
3094	0.001224
3106	0.0010992
3118	0.0009408
3130	0.00084
3142	0.0007728
3154	0.000672
3166	0.0006288
3178	0.0005232
3190	0.0004368
3202	0.0003552
3214	0.0002832
3226	0.0002112
3238	0.0001584
3250	0.00012
3262	0.00012
3274	0.00012
3286	8.16e-05
3298	7.68e-05
3310	6.24e-05
3322	7.68e-05
3334	7.2e-05
3346	9.12e-05
3358	5.28e-05
3370	0.0001056
3382	0.0001152
3394	0.0001392
3406	0.0001152
3418	0.0001392
3430	9.6e-05
3442	0.0001392
3454	0.0001056
3466	9.12e-05
3478	0.00012
3490	8.16e-05
3502	8.64e-05
3514	6.72e-05
3526	6.24e-05
3538	8.64e-05
3550	6.24e-05
3562	9.12e-05
3574	6.24e-05
3586	9.12e-05
3598	0.0001296
3610	0.0002304
3622	0.0004464
3634	0.0009024
3646	0.0018288
3658	0.0025344
3670	0.0014544
3682	0.0005088
3694	0.0003168
3706	0.0002112
3718	0.0002016
3730	0.000168
3742	0.0001392
3754	0.0001152
3766	0.00012
3778	0.0001248
3790	0.000144
3802	0.0002016
3814	0.0001488
3826	0.000192
3838	0.0002064
