Infrared Spectrum: 2,7-Dimethyl-2,7-octanediol
Formula: C 10 H 22 O 2
CAS: 19781-07-8
State: gas
Instrument: HP-GC/MS/IRD
Origin: NIST Mass Spectrometry Data Center
1/CM	ABSORBANCE
550	0.0009576
562	0.0004008
574	7.44e-05
586	7.92e-05
598	7.92e-05
610	8.16e-05
622	5.28e-05
634	8.16e-05
646	5.52e-05
658	1.2e-05
670	6.24e-05
682	0.000108
694	0.0001968
706	0.0002232
718	0.0002856
730	0.000324
742	0.0004464
754	0.0005904
766	0.0006432
778	0.0005376
790	0.0004344
802	0.0002928
814	0.0002808
826	0.0003336
838	0.0004152
850	0.0005328
862	0.0007464
874	0.0013128
886	0.0027072
898	0.0042672
910	0.0043176
922	0.0037608
934	0.0032088
946	0.0028344
958	0.0022608
970	0.0015744
982	0.0010704
994	0.000828
1006	0.000732
1018	0.0007872
1030	0.0010368
1042	0.0011832
1054	0.0012936
1066	0.0015816
1078	0.0022344
1090	0.0034536
1102	0.0049656
1114	0.0061512
1126	0.0067272
1138	0.0067272
1150	0.0065208
1162	0.005916
1174	0.0049464
1186	0.0044832
1198	0.0049008
1210	0.005748
1222	0.0061032
1234	0.0055848
1246	0.0046728
1258	0.0037704
1270	0.0032976
1282	0.0032136
1294	0.003228
1306	0.0033456
1318	0.0033984
1330	0.0033456
1342	0.0033672
1354	0.0042168
1366	0.0071904
1378	0.0081912
1390	0.0055368
1402	0.0021744
1414	0.0013512
1426	0.0012312
1438	0.0015528
1450	0.0022464
1462	0.0031296
1474	0.0028152
1486	0.0014304
1498	0.0006936
1510	0.0004512
1522	0.000288
1534	0.0002064
1546	0.0001608
1558	0.0001584
1570	9.36e-05
1582	8.4e-05
1594	9.84e-05
1606	6.72e-05
1618	6.48e-05
1630	5.76e-05
1642	8.88e-05
1654	7.2e-05
1666	7.92e-05
1678	6.96e-05
1690	6.24e-05
1702	6.48e-05
1714	6.48e-05
1726	4.08e-05
1738	4.56e-05
1750	3.36e-05
1762	2.64e-05
1774	4.32e-05
1786	4.8e-05
1798	5.52e-05
1810	6e-05
1822	7.68e-05
1834	6e-05
1846	6.24e-05
1858	4.32e-05
1870	3.36e-05
1882	3.36e-05
1894	1.68e-05
1906	1.2e-05
1918	1.44e-05
1930	1.2e-05
1942	1.68e-05
1954	2.4e-06
1966	9.6e-06
1978	2.4e-05
1990	9.6e-06
2002	3.12e-05
2014	2.16e-05
2026	5.04e-05
2038	5.04e-05
2050	3.84e-05
2062	6.48e-05
2074	5.52e-05
2086	3.84e-05
2098	4.8e-05
2110	4.56e-05
2122	5.04e-05
2134	5.52e-05
2146	5.52e-05
2158	1.68e-05
2170	3.6e-05
2182	2.16e-05
2194	2.4e-05
2206	4.08e-05
2218	2.64e-05
2230	3.6e-05
2242	2.16e-05
2254	3.84e-05
2266	4.32e-05
2278	4.8e-05
2290	6.48e-05
2302	5.76e-05
2314	6.24e-05
2326	5.76e-05
2338	4.8e-05
2350	5.52e-05
2362	4.8e-05
2374	3.6e-05
2386	1.68e-05
2398	1.2e-05
2410	1.92e-05
2422	1.44e-05
2434	1.44e-05
2446	1.2e-05
2458	4.8e-06
2470	1.2e-05
2482	3.36e-05
2494	3.12e-05
2506	1.68e-05
2518	4.8e-05
2530	2.64e-05
2542	4.8e-05
2554	3.12e-05
2566	6e-05
2578	7.2e-05
2590	6.72e-05
2602	7.2e-05
2614	7.92e-05
2626	0.0001224
2638	0.0001536
2650	0.0001152
2662	0.0001416
2674	0.000156
2686	0.0002112
2698	0.000204
2710	0.0002256
2722	0.0003072
2734	0.000348
2746	0.000348
2758	0.0003696
2770	0.0003648
2782	0.000432
2794	0.0005712
2806	0.0007944
2818	0.0010968
2830	0.0015912
2842	0.0025896
2854	0.0040512
2866	0.0057432
2878	0.0067608
2890	0.0070128
2902	0.0083976
2914	0.01092
2926	0.0141624
2938	0.018816
2950	0.0175776
2962	0.0171456
2974	0.024
2986	0.0168024
2998	0.0055272
3010	0.0020664
3022	0.001044
3034	0.0006624
3046	0.0005208
3058	0.000444
3070	0.0004008
3082	0.0003384
3094	0.0003744
3106	0.0002808
3118	0.0002736
3130	0.0002448
3142	0.0002208
3154	0.0002016
3166	0.0002448
3178	0.000216
3190	0.0002736
3202	0.0002424
3214	0.0002448
3226	0.0001488
3238	0.000132
3250	6.96e-05
3262	6.24e-05
3274	5.52e-05
3286	4.08e-05
3298	5.04e-05
3310	2.4e-05
3322	4.8e-05
3334	6.72e-05
3346	8.88e-05
3358	4.8e-05
3370	6e-05
3382	7.68e-05
3394	0.0001128
3406	0.0001296
3418	0.0001272
3430	0.0001128
3442	0.00012
3454	7.2e-05
3466	4.08e-05
3478	5.28e-05
3490	3.36e-05
3502	4.56e-05
3514	3.12e-05
3526	3.6e-05
3538	8.4e-05
3550	5.52e-05
3562	1.68e-05
3574	2.16e-05
3586	6.72e-05
3598	0.0001272
3610	0.000252
3622	0.0006528
3634	0.0018864
3646	0.0021312
3658	0.000816
3670	0.0003264
3682	0.0001056
3694	4.8e-05
3706	1.68e-05
3718	0
3730	7.2e-06
3742	2.4e-06
3754	4.8e-06
3766	2.4e-06
3778	1.2e-05
3790	4.56e-05
3802	3.84e-05
3814	4.32e-05
3826	8.16e-05
3838	0.0001008
