Infrared Spectrum: 1-Ethyl-2-methylcyclopentene
Formula: C 8 H 14
CAS: 19780-56-4
State: gas
Instrument: HP-GC/MS/IRD
Origin: NIST Mass Spectrometry Data Center
1/CM	ABSORBANCE
550	0.00019
562	0.000135
574	0.0001025
586	0.0001875
598	0.0001675
610	0.0001375
622	4.75e-05
634	7.5e-06
646	1e-05
658	7.25e-05
670	5e-06
682	0.00012
694	7e-05
706	3.5e-05
718	5e-05
730	9e-05
742	0.000105
754	0.0001275
766	0.00016
778	0.0002225
790	0.0001975
802	0.00016
814	0.000135
826	0.0001225
838	0.0002275
850	0.0001575
862	0.0001725
874	0.000215
886	0.0002475
898	0.0002375
910	0.0003075
922	0.0002875
934	0.0003
946	0.00043
958	0.0004475
970	0.0002925
982	0.00029
994	0.0003225
1006	0.0003875
1018	0.0003725
1030	0.0003275
1042	0.000435
1054	0.0006175
1066	0.0007625
1078	0.000605
1090	0.0004375
1102	0.00035
1114	0.000275
1126	0.000235
1138	0.0002475
1150	0.00028
1162	0.0003075
1174	0.0004175
1186	0.00055
1198	0.000745
1210	0.000815
1222	0.00054
1234	0.00039
1246	0.000395
1258	0.0005275
1270	0.0006625
1282	0.0007325
1294	0.000935
1306	0.0012325
1318	0.001215
1330	0.0009025
1342	0.0006325
1354	0.0006075
1366	0.000865
1378	0.001425
1390	0.00132
1402	0.0008075
1414	0.000785
1426	0.00103
1438	0.001585
1450	0.00233
1462	0.002485
1474	0.0018125
1486	0.0009175
1498	0.000545
1510	0.0004375
1522	0.0003925
1534	0.0003925
1546	0.0003675
1558	0.0003375
1570	0.0003225
1582	0.0002975
1594	0.0002575
1606	0.00022
1618	0.000165
1630	0.00015
1642	0.00014
1654	0.0001575
1666	0.00015
1678	0.000135
1690	0.00011
1702	7.5e-05
1714	8.25e-05
1726	6e-05
1738	4.75e-05
1750	5.25e-05
1762	5.5e-05
1774	4.25e-05
1786	3.25e-05
1798	3e-05
1810	3.25e-05
1822	3.5e-05
1834	3.25e-05
1846	5e-05
1858	6.25e-05
1870	5.75e-05
1882	5.75e-05
1894	3.5e-05
1906	5.25e-05
1918	1.25e-05
1930	3.25e-05
1942	1.75e-05
1954	3.25e-05
1966	3.25e-05
1978	5e-05
1990	5e-06
2002	1e-05
2014	4.25e-05
2026	2.75e-05
2038	5.5e-05
2050	4.5e-05
2062	3.25e-05
2074	1.75e-05
2086	2.25e-05
2098	1.5e-05
2110	2.5e-05
2122	3.25e-05
2134	4e-05
2146	3e-05
2158	1e-05
2170	2.75e-05
2182	1.25e-05
2194	2.5e-05
2206	2.5e-06
2218	1.75e-05
2230	3.25e-05
2242	3.25e-05
2254	5e-05
2266	4.25e-05
2278	5.5e-05
2290	5.75e-05
2302	5.5e-05
2314	8.5e-05
2326	9e-05
2338	6.75e-05
2350	6.25e-05
2362	7e-05
2374	5.5e-05
2386	4.5e-05
2398	4e-05
2410	6.25e-05
2422	7.25e-05
2434	6e-05
2446	6.25e-05
2458	6e-05
2470	6e-05
2482	5e-05
2494	8.25e-05
2506	6.75e-05
2518	7.25e-05
2530	8e-05
2542	6e-05
2554	9.25e-05
2566	9.5e-05
2578	0.000135
2590	0.0001325
2602	0.000135
2614	0.0001575
2626	0.000185
2638	0.000195
2650	0.0002025
2662	0.00021
2674	0.0002025
2686	0.0002
2698	0.000255
2710	0.0003275
2722	0.00049
2734	0.0006775
2746	0.0008375
2758	0.00086
2770	0.0009125
2782	0.0010575
2794	0.00136
2806	0.0019425
2818	0.003025
2830	0.00621
2842	0.013765
2854	0.0178425
2866	0.01666
2878	0.015875
2890	0.0175375
2902	0.018255
2914	0.01972
2926	0.0214
2938	0.02257
2950	0.0227375
2962	0.023765
2974	0.0197025
2986	0.01078
2998	0.0048675
3010	0.0033
3022	0.002765
3034	0.0022875
3046	0.00182
3058	0.0014325
3070	0.0010925
3082	0.00088
3094	0.00075
3106	0.000655
3118	0.000545
3130	0.00044
3142	0.0003575
3154	0.000355
3166	0.000305
3178	0.0002525
3190	0.0002025
3202	0.00012
3214	0.0001525
3226	0.0001
3238	0.0001
3250	9e-05
3262	7.75e-05
3274	2.5e-05
3286	5.75e-05
3298	5.75e-05
3310	5e-05
3322	3.5e-05
3334	3.75e-05
3346	3.25e-05
3358	4e-05
3370	3e-05
3382	6e-05
3394	5.5e-05
3406	2e-05
3418	4.25e-05
3430	2.25e-05
3442	3.75e-05
3454	4.25e-05
3466	2.25e-05
3478	4.25e-05
3490	8e-05
3502	2.25e-05
3514	1.75e-05
3526	3.75e-05
3538	4.75e-05
3550	4.25e-05
3562	3.75e-05
3574	1.25e-05
3586	6e-05
3598	5e-05
3610	2.25e-05
3622	5.75e-05
3634	4e-05
3646	3e-05
3658	7e-05
3670	7.5e-05
3682	6.75e-05
3694	6e-05
3706	5.75e-05
3718	5.75e-05
3730	9e-05
3742	7e-05
3754	9.75e-05
3766	6.25e-05
3778	0.0001025
3790	0.000105
3802	0.000105
3814	7e-05
3826	0.0001175
3838	9.25e-05
