Infrared Spectrum: 1-Dodecene, 2-ethyl-
Formula: C14 H28
CAS: 19780-34-8
State: LIQUID (NEAT)
Class: COBLENTZ III
Instrument: BECKMAN IR-12 (GRATING)
Instrument parameters: GRATING
Sampling: TRANSMISSION
Path length: CAPILLARY
Resolution: 2
Origin: COLGATE-PALMOLIVE COMPANY (KELLENBACH)
1/CM	TRANSMITTANCE
398	0.7257
408	0.76
418	0.8018
428	0.8368
438	0.8648
448	0.8918
458	0.9106
468	0.9242
478	0.9361
488	0.9572
498	0.9652
508	0.9678
518	0.9683
528	0.9686
538	0.9687
548	0.9685
558	0.9676
568	0.9679
578	0.9687
588	0.9694
598	0.9725
608	0.9742
618	0.9734
628	0.9795
638	0.9873
648	0.9727
658	0.9305
668	0.9288
678	0.927
688	0.9189
698	0.8836
708	0.8915
718	0.7814
728	0.8438
738	0.8569
748	0.9008
758	0.91
768	0.9073
778	0.9075
788	0.9017
798	0.9012
808	0.9156
818	0.9157
828	0.9192
838	0.9165
848	0.9159
858	0.9069
868	0.8842
878	0.6574
888	0.4326
898	0.7745
908	0.8693
918	0.8964
928	0.9113
938	0.9155
948	0.9204
958	0.925
968	0.9223
978	0.9223
988	0.9201
998	0.9165
1008	0.9114
1018	0.9126
1028	0.9151
1038	0.911
1048	0.9019
1058	0.8907
1068	0.8791
1078	0.8791
1088	0.8946
1098	0.9144
1108	0.9151
1118	0.9079
1128	0.9254
1138	0.9274
1148	0.9308
1158	0.928
1168	0.9269
1178	0.9264
1188	0.9228
1198	0.9168
1208	0.9161
1218	0.9131
1228	0.9085
1238	0.9015
1248	0.9052
1258	0.9098
1268	0.8981
1278	0.8978
1288	0.8957
1298	0.8851
1308	0.8834
1318	0.8874
1328	0.8953
1338	0.8808
1348	0.8629
1358	0.8584
1368	0.8264
1378	0.7417
1388	0.8551
1398	0.864
1408	0.8685
1418	0.8369
1428	0.761
1438	0.6694
1448	0.6102
1458	0.5022
1468	0.5472
1478	0.7787
1488	0.8644
1498	0.8927
1508	0.8852
1518	0.9037
1528	0.9101
1538	0.9003
1548	0.9187
1558	0.9011
1568	0.9199
1578	0.9196
1588	0.9301
1598	0.9285
1608	0.9261
1618	0.9112
1628	0.9026
1638	0.8111
1648	0.5944
1658	0.8649
1668	0.9121
1678	0.9238
1688	0.922
1698	0.9249
1708	0.9332
1718	0.9303
1728	0.939
1738	0.9305
1748	0.9353
1758	0.9411
1768	0.9397
1778	0.9186
1788	0.9221
1798	0.9255
1808	0.9435
1818	0.9473
1828	0.9416
1838	0.9483
1848	0.9481
1858	0.9527
1868	0.9485
1878	0.9505
1888	0.9518
1898	0.9514
1908	0.9512
1918	0.9514
1928	0.9522
1938	0.9547
1948	0.9531
1958	0.9523
1968	0.9522
1978	0.9526
1988	0.9527
1998	0.9497
2008	0.9436
2018	0.9393
2028	0.9368
2038	0.9358
2048	0.9356
2058	0.9357
2068	0.9359
2078	0.9362
2088	0.937
2098	0.9377
2108	0.9384
2118	0.9389
2128	0.9393
2138	0.9389
2148	0.9386
2158	0.9383
2168	0.9381
2178	0.9375
2188	0.9371
2198	0.9372
2208	0.9373
2218	0.9374
2228	0.9369
2238	0.9365
2248	0.9364
2258	0.9365
2268	0.9374
2278	0.9355
2288	0.9335
2298	0.9297
2308	0.9285
2318	0.927
2328	0.9188
2338	0.9132
2348	0.9098
2358	0.9085
2368	0.9089
2378	0.9129
2388	0.9257
2398	0.9337
2408	0.9359
2418	0.9353
2428	0.9341
2438	0.9358
2448	0.935
2458	0.9314
2468	0.9326
2478	0.9348
2488	0.9366
2498	0.9375
2508	0.9365
2518	0.9334
2528	0.9289
2538	0.9262
2548	0.9261
2558	0.926
2568	0.9259
2578	0.9256
2588	0.9246
2598	0.9218
2608	0.919
2618	0.9159
2628	0.9128
2638	0.9099
2648	0.9071
2658	0.9042
2668	0.9012
2678	0.8981
2688	0.8959
2698	0.8947
2708	0.8941
2718	0.8942
2728	0.8939
2738	0.893
2748	0.8944
2758	0.8972
2768	0.8897
2778	0.8781
2788	0.8587
2798	0.8319
2808	0.8078
2818	0.7668
2828	0.7135
2838	0.636
2848	0.4652
2858	0.2304
2868	0.2754
2878	0.3407
2888	0.3742
2898	0.3135
2908	0.246
2918	0.1785
2928	0.111
2938	0.1098
2948	0.2485
2958	0.2769
2968	0.2631
2978	0.4688
2988	0.6221
2998	0.6948
3008	0.7686
3018	0.8183
3028	0.8418
3038	0.8548
3048	0.8694
3058	0.8692
3068	0.833
3078	0.7771
3088	0.7634
3098	0.8324
3108	0.8964
3118	0.9035
3128	0.9092
3138	0.9151
3148	0.9205
3158	0.9226
3168	0.9222
3178	0.9216
3188	0.9209
3198	0.9212
3208	0.9218
3218	0.9237
3228	0.9255
3238	0.9276
3248	0.9292
3258	0.9306
3268	0.9324
3278	0.934
3288	0.9329
3298	0.9313
3308	0.9311
3318	0.9311
3328	0.93
3338	0.9295
3348	0.9295
3358	0.9295
3368	0.9307
3378	0.9281
3388	0.9259
3398	0.9243
3408	0.9243
3418	0.9245
3428	0.9254
3438	0.9263
3448	0.9272
3458	0.9275
3468	0.9277
3478	0.928
3488	0.9283
3498	0.9285
3508	0.9288
3518	0.929
3528	0.9293
3538	0.9296
3548	0.9299
3558	0.9299
3568	0.9296
3578	0.9293
3588	0.9271
3598	0.9254
3608	0.9248
3618	0.9234
3628	0.9248
3638	0.9292
3648	0.9251
3658	0.9166
3668	0.925
3678	0.9294
3688	0.9253
3698	0.9271
3708	0.928
3718	0.9281
3728	0.9285
3738	0.9282
3748	0.9247
3758	0.9207
3768	0.9237
3778	0.9284
3788	0.9309
3798	0.931
3808	0.9254
3818	0.9205
3828	0.9215
3838	0.9219
3848	0.922
3858	0.9218
3868	0.9215
3878	0.9217
3888	0.9233
3898	0.9265
3908	0.9248
3918	0.9248
3928	0.9304
3938	0.9319
3948	0.9313
3958	0.9307
3968	0.9305
3978	0.9306
3988	0.9305
3998	0.9305
4008	0.93
