Infrared Spectrum: 4-Ethyl-2-hexene
Formula: C 8 H 16
CAS: 19780-46-2
State: gas
Instrument: HP-GC/MS/IRD
Origin: NIST Mass Spectrometry Data Center
1/CM	ABSORBANCE
550	0.0001386
562	0.0002331
574	7.14e-05
586	0.0001029
598	0.0001386
610	4.83e-05
622	9.24e-05
634	0.0001995
646	0.0001134
658	0.0001743
670	0.0001218
682	8.4e-05
694	0.0001344
706	0.0001407
718	0.0001008
730	0.0001407
742	0.00021
754	0.0002793
766	0.0004557
778	0.0006489
790	0.0006657
802	0.0004116
814	0.0002394
826	0.0003003
838	0.0003234
850	0.0003591
862	0.0003486
874	0.0003486
886	0.0003948
898	0.0006909
910	0.0010101
922	0.0010374
934	0.0009576
946	0.0016464
958	0.0041601
970	0.0048951
982	0.0025998
994	0.001218
1006	0.0008904
1018	0.0008526
1030	0.0008757
1042	0.0007161
1054	0.000525
1066	0.0003759
1078	0.0003423
1090	0.0003381
1102	0.0003234
1114	0.0003003
1126	0.0003045
1138	0.0003171
1150	0.0003528
1162	0.0002583
1174	0.0002037
1186	0.0002394
1198	0.000231
1210	0.0002898
1222	0.000378
1234	0.0003759
1246	0.0003591
1258	0.0003276
1270	0.0004263
1282	0.0005103
1294	0.000651
1306	0.0006951
1318	0.0006678
1330	0.000672
1342	0.0007707
1354	0.0008631
1366	0.001155
1378	0.0018774
1390	0.0017934
1402	0.0009555
1414	0.000714
1426	0.0009135
1438	0.001575
1450	0.002751
1462	0.0032739
1474	0.0023394
1486	0.0011739
1498	0.0006552
1510	0.0004977
1522	0.0004158
1534	0.0003948
1546	0.0003402
1558	0.0003024
1570	0.0002856
1582	0.0002604
1594	0.000231
1606	0.0002331
1618	0.0002142
1630	0.0002352
1642	0.0002268
1654	0.0002562
1666	0.0003129
1678	0.0002436
1690	0.0001743
1702	0.000168
1714	0.0001953
1726	0.0002709
1738	0.0002814
1750	0.0002499
1762	0.0002289
1774	0.0001554
1786	0.0001365
1798	0.000168
1810	0.0001407
1822	0.0001386
1834	0.000147
1846	0.0001029
1858	7.98e-05
1870	8.4e-05
1882	7.98e-05
1894	5.46e-05
1906	6.93e-05
1918	5.88e-05
1930	3.78e-05
1942	3.99e-05
1954	3.36e-05
1966	5.25e-05
1978	7.14e-05
1990	6.09e-05
2002	0.0001029
2014	7.14e-05
2026	3.78e-05
2038	4.41e-05
2050	3.57e-05
2062	4.83e-05
2074	5.88e-05
2086	4.83e-05
2098	3.36e-05
2110	2.52e-05
2122	1.89e-05
2134	2.1e-05
2146	3.36e-05
2158	1.89e-05
2170	3.15e-05
2182	2.73e-05
2194	1.89e-05
2206	3.15e-05
2218	2.73e-05
2230	4.62e-05
2242	2.52e-05
2254	4.2e-05
2266	3.78e-05
2278	5.25e-05
2290	6.51e-05
2302	8.61e-05
2314	6.09e-05
2326	5.25e-05
2338	6.72e-05
2350	6.51e-05
2362	8.19e-05
2374	0.0001197
2386	8.82e-05
2398	0.0001176
2410	0.0001113
2422	7.98e-05
2434	7.35e-05
2446	8.4e-05
2458	7.35e-05
2470	9.24e-05
2482	9.87e-05
2494	9.03e-05
2506	8.61e-05
2518	6.09e-05
2530	9.24e-05
2542	9.45e-05
2554	0.0001113
2566	0.0001365
2578	0.0001575
2590	0.0001449
2602	0.0001554
2614	0.0001302
2626	0.0001596
2638	0.0001407
2650	0.0001743
2662	0.000189
2674	0.000231
2686	0.0002709
2698	0.0002604
2710	0.0002856
2722	0.0003738
2734	0.0005544
2746	0.0006447
2758	0.0004956
2770	0.0005166
2782	0.0006006
2794	0.0007329
2806	0.0008799
2818	0.0010458
2830	0.0014574
2842	0.0022617
2854	0.004956
2866	0.0093261
2878	0.011928
2890	0.010584
2902	0.0090426
2914	0.0122535
2926	0.0184947
2938	0.0190806
2950	0.016002
2962	0.0192654
2974	0.0196266
2986	0.0110439
2998	0.0056994
3010	0.0042483
3022	0.0034587
3034	0.0028644
3046	0.0021714
3058	0.0016485
3070	0.0013629
3082	0.0010626
3094	0.0009387
3106	0.0008295
3118	0.0007161
3130	0.0006405
3142	0.0005313
3154	0.00042
3166	0.0003465
3178	0.0002814
3190	0.0002604
3202	0.0001953
3214	0.0001785
3226	0.0001197
3238	9.24e-05
3250	8.19e-05
3262	6.3e-05
3274	0.0001092
3286	7.14e-05
3298	4.83e-05
3310	8.61e-05
3322	0.0001113
3334	7.14e-05
3346	0.0001029
3358	7.77e-05
3370	5.04e-05
3382	0.0001008
3394	0.0001134
3406	0.0001281
3418	5.88e-05
3430	8.19e-05
3442	9.45e-05
3454	8.82e-05
3466	8.4e-05
3478	3.15e-05
3490	8.19e-05
3502	8.19e-05
3514	6.51e-05
3526	3.57e-05
3538	5.25e-05
3550	7.56e-05
3562	6.09e-05
3574	3.99e-05
3586	6.93e-05
3598	3.57e-05
3610	9.03e-05
3622	6.09e-05
3634	9.66e-05
3646	0.0001113
3658	9.03e-05
3670	8.61e-05
3682	0.0001071
3694	0.000105
3706	0.0001008
3718	8.4e-05
3730	9.66e-05
3742	7.35e-05
3754	9.66e-05
3766	7.56e-05
3778	0.0001197
3790	8.19e-05
3802	9.87e-05
3814	0.0001344
3826	7.77e-05
3838	9.24e-05
