Infrared Spectrum: Dimethyl-2-methyl adipate
Formula: C 9 H 16 O 4
CAS: 19780-94-0
State: gas
Instrument: HP-GC/MS/IRD
Origin: NIST Mass Spectrometry Data Center
1/CM	ABSORBANCE
550	9.87e-05
562	5.64e-05
574	4.7e-06
586	0.0001222
598	0.0001692
610	0.0003008
622	0.000282
634	0.0003243
646	0.0003149
658	0.0002491
670	0.0002914
682	0.0002115
694	0.0002303
706	0.0003055
718	0.0003525
730	0.0005264
742	0.000799
754	0.0010481
766	0.0012314
778	0.001269
790	0.0013066
802	0.0012878
814	0.0015604
826	0.001833
838	0.0017766
850	0.0017108
862	0.0017437
874	0.0015745
886	0.0011609
898	0.0009682
910	0.0010293
922	0.0008789
934	0.0006721
946	0.0006298
958	0.0007896
970	0.0012032
982	0.002068
994	0.0032007
1006	0.0042582
1018	0.0049773
1030	0.0044133
1042	0.0040326
1054	0.0047752
1066	0.0059408
1078	0.0068432
1090	0.0068244
1102	0.0077879
1114	0.0096021
1126	0.0112847
1138	0.0152938
1150	0.0254881
1162	0.0352077
1174	0.0326509
1186	0.0263247
1198	0.0235094
1210	0.0207129
1222	0.0186825
1234	0.0185791
1246	0.018988
1258	0.0164218
1270	0.0116466
1282	0.0086198
1294	0.0071487
1306	0.0061476
1318	0.0053768
1330	0.0053627
1342	0.0063497
1354	0.0075341
1366	0.0068761
1378	0.0051982
1390	0.0036942
1402	0.0024816
1414	0.0026414
1426	0.0044932
1438	0.0091697
1450	0.0070453
1462	0.0065518
1474	0.0045684
1486	0.002397
1498	0.0015416
1510	0.0012173
1522	0.0010481
1534	0.0009541
1546	0.0009071
1558	0.0008413
1570	0.0008178
1582	0.0007614
1594	0.0006674
1606	0.000611
1618	0.0006157
1630	0.0005734
1642	0.0005969
1654	0.0006392
1666	0.0007755
1678	0.0009729
1690	0.0015322
1702	0.0027495
1714	0.0053768
1726	0.0106408
1738	0.0213051
1750	0.0413835
1762	0.0425444
1774	0.021667
1786	0.0092825
1798	0.0036331
1810	0.0017108
1822	0.0009776
1834	0.0006721
1846	0.0005029
1858	0.0004371
1870	0.0003948
1882	0.0003619
1894	0.000329
1906	0.0003102
1918	0.0002961
1930	0.000329
1942	0.0003572
1954	0.000423
1966	0.00047
1978	0.000517
1990	0.0005217
2002	0.0005264
2014	0.0005311
2026	0.000517
2038	0.0005029
2050	0.0004747
2062	0.0004418
2074	0.0003807
2086	0.0003525
2098	0.0002773
2110	0.0002397
2122	0.0001974
2134	0.0001786
2146	0.0001504
2158	0.000141
2170	0.0001316
2182	0.0001034
2194	7.52e-05
2206	9.4e-05
2218	6.58e-05
2230	4.7e-05
2242	3.29e-05
2254	5.64e-05
2266	5.64e-05
2278	6.58e-05
2290	6.58e-05
2302	8.46e-05
2314	6.11e-05
2326	9.4e-05
2338	8.46e-05
2350	0.0001269
2362	0.0001081
2374	9.4e-05
2386	7.52e-05
2398	7.99e-05
2410	8.93e-05
2422	5.64e-05
2434	5.64e-05
2446	3.29e-05
2458	3.76e-05
2470	4.7e-06
2482	0
2494	2.35e-05
2506	2.82e-05
2518	3.29e-05
2530	3.76e-05
2542	4.7e-05
2554	5.64e-05
2566	7.05e-05
2578	8.46e-05
2590	0.0001128
2602	0.0001222
2614	0.0001363
2626	9.87e-05
2638	9.87e-05
2650	0.0001222
2662	0.0001175
2674	0.0001034
2686	9.87e-05
2698	8.93e-05
2710	0.0001128
2722	0.0001316
2734	0.0001363
2746	0.0001457
2758	0.000188
2770	0.0001974
2782	0.0002538
2794	0.0003149
2806	0.0004277
2818	0.0006486
2830	0.0010904
2842	0.0020586
2854	0.0028012
2866	0.0029516
2878	0.0036378
2890	0.0041454
2902	0.0044462
2914	0.0057763
2926	0.0077503
2938	0.0104716
2950	0.0147439
2962	0.0172349
2974	0.0115714
2986	0.0100909
2998	0.0060348
3010	0.0039245
3022	0.0030973
3034	0.0024346
3046	0.0017108
3058	0.0012361
3070	0.0010246
3082	0.0008601
3094	0.0008084
3106	0.000705
3118	0.000564
3130	0.0004653
3142	0.0003572
3154	0.0002961
3166	0.0002585
3178	0.0002538
3190	0.0001739
3202	0.0001833
3214	0.0001222
3226	7.52e-05
3238	7.52e-05
3250	6.58e-05
3262	2.82e-05
3274	3.76e-05
3286	6.11e-05
3298	1.41e-05
3310	2.82e-05
3322	5.64e-05
3334	4.7e-05
3346	5.64e-05
3358	6.11e-05
3370	1.88e-05
3382	5.17e-05
3394	0
3406	5.64e-05
3418	5.64e-05
3430	7.52e-05
3442	0.0001363
3454	0.000188
3466	0.0002679
3478	0.0003995
3490	0.000517
3502	0.000517
3514	0.000376
3526	0.0002021
3538	0.0001504
3550	0.0001222
3562	6.11e-05
3574	3.76e-05
3586	1.88e-05
3598	4.23e-05
3610	3.29e-05
3622	3.76e-05
3634	7.52e-05
3646	1.88e-05
3658	2.35e-05
3670	9.4e-06
3682	2.82e-05
3694	5.64e-05
3706	2.82e-05
3718	2.35e-05
3730	8.46e-05
3742	5.64e-05
3754	0
3766	4.23e-05
3778	6.58e-05
3790	7.05e-05
3802	5.64e-05
3814	7.52e-05
3826	5.17e-05
3838	7.52e-05
