Infrared Spectrum: 3-Ethyl-3-methyl-2-pentanone
Formula: C 8 H 16 O
CAS: 19780-65-5
State: gas
Instrument: HP-GC/MS/IRD
Origin: NIST Mass Spectrometry Data Center
1/CM	ABSORBANCE
550	0.0011194
562	0.0009164
574	0.0008236
586	0.0002117
598	1.45e-05
610	8.41e-05
622	6.67e-05
634	0.0004292
646	0.0009251
658	0.0010179
670	0.0004872
682	0.0001218
694	7.83e-05
706	2.9e-06
718	2.03e-05
730	0.0001276
742	0.0004002
754	0.0008468
766	0.0010643
778	0.001015
790	0.0007627
802	0.0003074
814	0.0001537
826	0.0002378
838	0.0003219
850	0.0004553
862	0.0004814
874	0.0004321
886	0.0003219
898	0.0003016
910	0.0002958
922	0.0006177
934	0.0012673
946	0.0020184
958	0.0021895
970	0.0017458
982	0.0016965
994	0.0021895
1006	0.002291
1018	0.0017226
1030	0.0011223
1042	0.0009338
1054	0.0009396
1066	0.0010672
1078	0.0010672
1090	0.0011803
1102	0.0021663
1114	0.0051098
1126	0.0080591
1138	0.0066961
1150	0.0032828
1162	0.0018357
1174	0.0013572
1186	0.0014732
1198	0.002059
1210	0.0033321
1222	0.0042282
1234	0.0032683
1246	0.001711
1258	0.0008874
1270	0.0007395
1282	0.0007656
1294	0.0008758
1306	0.0009744
1318	0.0013369
1330	0.0021402
1342	0.0047995
1354	0.0085405
1366	0.0079083
1378	0.0061045
1390	0.0058145
1402	0.0035322
1414	0.002262
1426	0.0024331
1438	0.0032335
1450	0.0051823
1462	0.0070122
1474	0.0058116
1486	0.002987
1498	0.001537
1510	0.0010904
1522	0.0009106
1534	0.0007917
1546	0.0007337
1558	0.0007743
1570	0.0006902
1582	0.0006786
1594	0.0006496
1606	0.0006409
1618	0.0006873
1630	0.0007134
1642	0.0008381
1654	0.0012412
1666	0.0019343
1678	0.0029261
1690	0.0051591
1702	0.0139258
1714	0.0254098
1726	0.0184266
1738	0.0054491
1750	0.0020097
1762	0.0012557
1774	0.0008468
1786	0.0005365
1798	0.0003364
1810	0.0002697
1822	0.000203
1834	0.0001856
1846	0.0001682
1858	0.0001334
1870	0.000145
1882	0.0001276
1894	0.0001073
1906	0.0001102
1918	7.54e-05
1930	6.67e-05
1942	8.12e-05
1954	8.12e-05
1966	6.38e-05
1978	6.09e-05
1990	8.12e-05
2002	0.0001131
2014	0.0001015
2026	7.25e-05
2038	5.8e-05
2050	7.54e-05
2062	6.38e-05
2074	5.8e-05
2086	4.35e-05
2098	3.48e-05
2110	5.8e-06
2122	1.16e-05
2134	2.03e-05
2146	2.61e-05
2158	4.06e-05
2170	3.77e-05
2182	4.06e-05
2194	3.77e-05
2206	3.77e-05
2218	4.06e-05
2230	3.19e-05
2242	2.61e-05
2254	1.45e-05
2266	2.61e-05
2278	3.77e-05
2290	1.45e-05
2302	3.48e-05
2314	6.67e-05
2326	9.86e-05
2338	0.0001044
2350	7.83e-05
2362	0.0001276
2374	7.83e-05
2386	7.54e-05
2398	0.0001102
2410	0.0001218
2422	5.22e-05
2434	7.25e-05
2446	8.41e-05
2458	8.7e-05
2470	8.99e-05
2482	0.0001189
2494	8.7e-05
2506	8.7e-05
2518	7.25e-05
2530	7.25e-05
2542	8.99e-05
2554	0.0001131
2566	8.7e-05
2578	0.0001044
2590	0.0001392
2602	0.0001479
2614	0.0001943
2626	0.000261
2638	0.0002668
2650	0.00029
2662	0.0003074
2674	0.0002871
2686	0.0002871
2698	0.0002697
2710	0.0002929
2722	0.0003335
2734	0.000435
2746	0.0005916
2758	0.0006641
2770	0.0006815
2782	0.0007105
2794	0.0008178
2806	0.0009367
2818	0.0011455
2830	0.0014964
2842	0.0020996
2854	0.0034887
2866	0.0058899
2878	0.0086652
2890	0.0109475
2902	0.0108808
2914	0.0120147
2926	0.0164952
2938	0.0202594
2950	0.0198505
2962	0.0218602
2974	0.029
2986	0.0235973
2998	0.0112549
3010	0.0053041
3022	0.0032944
3034	0.0024853
3046	0.0020445
3058	0.0018154
3070	0.0017081
3082	0.0015196
3094	0.0013311
3106	0.0011484
3118	0.0009744
3130	0.0008149
3142	0.000754
3154	0.0006786
3166	0.0005916
3178	0.0005133
3190	0.0004611
3202	0.0003944
3214	0.0003277
3226	0.0003016
3238	0.0002204
3250	0.0002494
3262	0.0002117
3274	0.0002436
3286	0.0002088
3298	0.0001624
3310	0.0001856
3322	0.0001479
3334	0.0001711
3346	0.0001798
3358	0.0001769
3370	0.0001914
3382	0.0002842
3394	0.0004176
3406	0.000551
3418	0.0005568
3430	0.000435
3442	0.0002204
3454	0.0001073
3466	0.0001392
3478	5.22e-05
3490	6.38e-05
3502	6.09e-05
3514	7.54e-05
3526	0.0001305
3538	7.54e-05
3550	6.96e-05
3562	6.09e-05
3574	3.19e-05
3586	3.48e-05
3598	7.54e-05
3610	4.35e-05
3622	4.35e-05
3634	6.67e-05
3646	7.25e-05
3658	4.93e-05
3670	4.35e-05
3682	4.06e-05
3694	4.93e-05
3706	4.93e-05
3718	6.67e-05
3730	2.9e-06
3742	9.57e-05
3754	7.25e-05
3766	9.57e-05
3778	8.12e-05
3790	1.74e-05
3802	2.61e-05
3814	5.8e-05
3826	1.74e-05
3838	5.8e-05
