Infrared Spectrum: ANILINE, 4-(N,N-DIMETHYLAMINO)-2-(p-TOLYLSULFONYL)-
Formula: C15 H18 N2 O2 S
CAS: 19789-51-6
State: SOLID (SPLIT MULL), FLUOROLUBE FOR 4000-1340 CM^-^1, NUJOL FOR 1340-400 CM^-^1
Melting point: 173 C
Class: COBLENTZ III
Instrument: BECKMAN IR-12 (GRATING)
Instrument parameters: GRATING CHANGE: 300, 650, 2000 CM^-^1
Sampling: TRANSMISSION
Resolution: 2
Origin: EASTMAN KODAK COMPANY
1/CM	TRANSMITTANCE
403	0.7742
412	0.7745
421	0.7326
430	0.7812
439	0.8002
448	0.878
457	0.9017
466	0.9155
475	0.9514
484	0.8726
493	0.9479
502	0.9164
511	0.8466
520	0.5851
529	0.5555
538	0.705
547	0.8017
556	0.874
565	0.8586
574	0.7147
583	0.3038
592	0.2705
601	0.7709
610	0.8451
619	0.8433
628	0.7986
637	0.839
646	0.7704
655	0.5925
664	0.4654
673	0.5152
682	0.4171
691	0.7717
700	0.5679
709	0.4627
718	0.7512
727	0.8247
736	0.876
745	0.9028
754	0.8515
763	0.6809
772	0.7681
781	0.8847
790	0.8964
799	0.7456
808	0.3249
817	0.6125
826	0.8517
835	0.6266
844	0.8092
853	0.7715
862	0.6787
871	0.9014
880	0.9419
889	0.9466
898	0.9513
907	0.9491
916	0.9445
925	0.9386
934	0.9178
943	0.9127
952	0.8774
961	0.7189
970	0.723
979	0.8963
988	0.9252
997	0.9245
1006	0.9059
1015	0.7346
1024	0.865
1033	0.8346
1042	0.686
1051	0.8303
1060	0.815
1069	0.7507
1078	0.5701
1087	0.299
1096	0.507
1105	0.6762
1114	0.6471
1123	0.6112
1132	0.4223
1141	0.0734
1150	0.2428
1159	0.5679
1168	0.4978
1177	0.4006
1186	0.6045
1195	0.7344
1204	0.744
1213	0.7159
1222	0.6837
1231	0.4747
1240	0.5328
1249	0.5765
1258	0.527
1267	0.4469
1276	0.2721
1285	0.0484
1294	0.4499
1303	0.6525
1312	0.3864
1321	0.5696
1330	0.6884
1339	0.6622
1348	0.5653
1357	0.4127
1366	0.5865
1375	0.6485
1384	0.7447
1393	0.7173
1402	0.6778
1411	0.5296
1420	0.6098
1429	0.4399
1438	0.499
1447	0.5145
1456	0.6414
1465	0.628
1474	0.5888
1483	0.5131
1492	0.3812
1501	0.1914
1510	0.0896
1519	0.2175
1528	0.3947
1537	0.6967
1546	0.7855
1555	0.8179
1564	0.8448
1573	0.8673
1582	0.8503
1591	0.7931
1600	0.662
1609	0.6325
1618	0.4639
1627	0.5915
1636	0.7351
1645	0.817
1654	0.8101
1663	0.8214
1672	0.8184
1681	0.8601
1690	0.8836
1699	0.8965
1708	0.901
1717	0.9024
1726	0.9008
1735	0.8972
1744	0.893
1753	0.8902
1762	0.8917
1771	0.882
1780	0.8824
1789	0.8818
1798	0.8786
1807	0.8755
1816	0.8723
1825	0.8678
1834	0.8683
1843	0.8643
1852	0.8546
1861	0.8408
1870	0.8213
1879	0.8473
1888	0.8463
1897	0.8429
1906	0.839
1915	0.8331
1924	0.8065
1933	0.8278
1942	0.8379
1951	0.8357
1960	0.8352
1969	0.8327
1978	0.8291
1987	0.8265
1996	0.8195
2005	0.8112
2014	0.8075
2023	0.8043
2032	0.8023
2041	0.8011
2050	0.8014
2059	0.7985
2068	0.7964
2077	0.7949
2086	0.7926
2095	0.7894
2104	0.7862
2113	0.783
2122	0.7798
2131	0.7771
2140	0.7745
2149	0.7718
2158	0.7691
2167	0.7662
2176	0.7633
2185	0.7601
2194	0.7567
2203	0.7532
2212	0.7495
2221	0.7456
2230	0.7419
2239	0.7386
2248	0.7363
2257	0.7327
2266	0.7293
2275	0.7251
2284	0.7206
2293	0.7162
2302	0.7141
2311	0.7143
2320	0.7194
2329	0.7206
2338	0.7193
2347	0.7135
2356	0.706
2365	0.7064
2374	0.7074
2383	0.7063
2392	0.7042
2401	0.7017
2410	0.6993
2419	0.697
2428	0.6985
2437	0.6993
2446	0.698
2455	0.696
2464	0.6944
2473	0.6927
2482	0.691
2491	0.6888
2500	0.6866
2509	0.6844
2518	0.6817
2527	0.679
2536	0.6765
2545	0.674
2554	0.6715
2563	0.6686
2572	0.6657
2581	0.663
2590	0.6606
2599	0.6581
2608	0.6557
2617	0.6533
2626	0.6509
2635	0.6483
2644	0.6447
2653	0.6409
2662	0.6369
2671	0.6323
2680	0.6277
2689	0.6231
2698	0.6186
2707	0.6141
2716	0.6097
2725	0.605
2734	0.6001
2743	0.5935
2752	0.586
2761	0.5712
2770	0.5573
2779	0.5375
2788	0.5129
2797	0.4704
2806	0.4557
2815	0.4718
2824	0.5312
2833	0.5326
2842	0.5142
2851	0.491
2860	0.4777
2869	0.4764
2878	0.4652
2887	0.4669
2896	0.4727
2905	0.477
2914	0.4755
2923	0.4609
2932	0.4584
2941	0.4677
2950	0.4762
2959	0.4824
2968	0.4907
2977	0.5004
2986	0.5131
2995	0.5309
3004	0.5548
3013	0.5575
3022	0.5572
3031	0.5517
3040	0.5409
3049	0.5507
3058	0.5571
3067	0.5458
3076	0.5458
3085	0.5453
3094	0.5478
3103	0.5524
3112	0.5566
3121	0.5593
3130	0.5598
3139	0.5569
3148	0.5538
3157	0.55
3166	0.5432
3175	0.5351
3184	0.527
3193	0.5162
3202	0.5049
3211	0.4938
3220	0.4873
3229	0.4942
3238	0.5032
3247	0.5023
3256	0.5026
3265	0.4972
3274	0.4966
3283	0.4957
3292	0.4897
3301	0.482
3310	0.4715
3319	0.4552
3328	0.4307
3337	0.3848
3346	0.2539
3355	0.1959
3364	0.5056
3373	0.5078
3382	0.5031
3391	0.4887
3400	0.4644
3409	0.4208
3418	0.3805
3427	0.2336
3436	0.1461
3445	0.4628
3454	0.5074
3463	0.5152
3472	0.5154
3481	0.5149
3490	0.5143
3499	0.5137
3508	0.5133
3517	0.5129
3526	0.5125
3535	0.5114
3544	0.5104
3553	0.5092
3562	0.5081
3571	0.507
3580	0.5059
3589	0.5048
3598	0.5038
3607	0.5027
3616	0.5014
3625	0.5
3634	0.4986
3643	0.4972
3652	0.4958
3661	0.4943
3670	0.4929
3679	0.4908
3688	0.4886
3697	0.4863
3706	0.4843
3715	0.4828
3724	0.4813
3733	0.4797
3742	0.4783
3751	0.4777
3760	0.4772
3769	0.4769
3778	0.4768
3787	0.4757
3796	0.4746
3805	0.4734
3814	0.4715
3823	0.4696
3832	0.4677
3841	0.4659
3850	0.4642
3859	0.4624
3868	0.4607
3877	0.4589
3886	0.4572
3895	0.4555
3904	0.454
3913	0.4525
3922	0.4512
3931	0.4499
3940	0.4492
3949	0.4495
3958	0.4491
3967	0.4472
3976	0.4455
3985	0.4441
3994	0.4424
