Infrared Spectrum: ANILINE, 4-(N,N-DIETHYLAMINO)-2-(p-CHLOROPHENYLSULFONYL)-
Formula: C16 H19 Cl N2 O2 S
CAS: 19789-54-9
State: SOLID (SPLIT MULL), FLUOROLUBE FOR 4000-1340 CM^-^1, NUJOL FOR 1340-400 CM^-^1
Melting point: 155 C
Class: COBLENTZ II
Instrument: BECKMAN IR-12 (GRATING)
Instrument parameters: GRATING CHANGE: 300, 650, 2000 CM^-^1
Sampling: TRANSMISSION
Resolution: 2
Origin: EASTMAN KODAK COMPANY
1/CM	TRANSMITTANCE
403	0.7909
412	0.8123
421	0.7974
430	0.8019
439	0.7594
448	0.7029
457	0.8018
466	0.8589
475	0.8332
484	0.6497
493	0.8933
502	0.9115
511	0.8996
520	0.8853
529	0.9039
538	0.8292
547	0.7464
556	0.7755
565	0.6205
574	0.6975
583	0.4089
592	0.3826
601	0.7548
610	0.8138
619	0.7818
628	0.5526
637	0.6017
646	0.7815
655	0.7592
664	0.6589
673	0.5588
682	0.7793
691	0.7667
700	0.8291
709	0.5817
718	0.7435
727	0.8048
736	0.8399
745	0.8407
754	0.835
763	0.6864
772	0.469
781	0.6862
790	0.6442
799	0.838
808	0.7658
817	0.3768
826	0.6423
835	0.7661
844	0.6215
853	0.7568
862	0.8883
871	0.9028
880	0.9055
889	0.9033
898	0.8973
907	0.8832
916	0.8435
925	0.6897
934	0.8273
943	0.8653
952	0.8667
961	0.8447
970	0.8456
979	0.8141
988	0.8437
997	0.83
1006	0.7923
1015	0.4769
1024	0.7358
1033	0.7836
1042	0.6675
1051	0.7436
1060	0.6984
1069	0.5813
1078	0.3677
1087	0.3572
1096	0.3473
1105	0.5785
1114	0.6832
1123	0.6657
1132	0.4816
1141	0.1974
1150	0.1866
1159	0.406
1168	0.5363
1177	0.4902
1186	0.6713
1195	0.5414
1204	0.406
1213	0.5933
1222	0.6582
1231	0.6615
1240	0.615
1249	0.5603
1258	0.4313
1267	0.3168
1276	0.2722
1285	0.2387
1294	0.2986
1303	0.3195
1312	0.5553
1321	0.2919
1330	0.6954
1339	0.768
1348	0.7073
1357	0.6657
1366	0.543
1375	0.5653
1384	0.6672
1393	0.6108
1402	0.6338
1411	0.7794
1420	0.7441
1429	0.6025
1438	0.7434
1447	0.7201
1456	0.6901
1465	0.6617
1474	0.6501
1483	0.5475
1492	0.4891
1501	0.2416
1510	0.1107
1519	0.5037
1528	0.7384
1537	0.8019
1546	0.8343
1555	0.823
1564	0.8247
1573	0.7811
1582	0.7842
1591	0.7779
1600	0.7691
1609	0.6079
1618	0.5199
1627	0.6724
1636	0.7749
1645	0.8108
1654	0.8121
1663	0.8229
1672	0.8259
1681	0.8227
1690	0.8418
1699	0.8572
1708	0.8659
1717	0.8649
1726	0.8697
1735	0.8679
1744	0.8631
1753	0.8626
1762	0.8669
1771	0.8619
1780	0.8544
1789	0.8557
1798	0.8586
1807	0.8576
1816	0.8534
1825	0.853
1834	0.8522
1843	0.8527
1852	0.8493
1861	0.8485
1870	0.8421
1879	0.8423
1888	0.8471
1897	0.8491
1906	0.8467
1915	0.8413
1924	0.832
1933	0.8201
1942	0.8411
1951	0.8437
1960	0.845
1969	0.8443
1978	0.8465
1987	0.8432
1996	0.8424
2005	0.8414
2014	0.8408
2023	0.8403
2032	0.8401
2041	0.8397
2050	0.8385
2059	0.8366
2068	0.8348
2077	0.8343
2086	0.834
2095	0.8336
2104	0.8333
2113	0.8323
2122	0.8314
2131	0.8308
2140	0.8303
2149	0.8288
2158	0.8272
2167	0.8242
2176	0.8212
2185	0.8181
2194	0.8149
2203	0.8146
2212	0.8162
2221	0.8166
2230	0.8138
2239	0.8107
2248	0.8079
2257	0.805
2266	0.8022
2275	0.7994
2284	0.7967
2293	0.8008
2302	0.8032
2311	0.8047
2320	0.8032
2329	0.8009
2338	0.7968
2347	0.7929
2356	0.7927
2365	0.7939
2374	0.7974
2383	0.7989
2392	0.7987
2401	0.7983
2410	0.7975
2419	0.7972
2428	0.796
2437	0.7946
2446	0.7946
2455	0.7955
2464	0.7962
2473	0.7966
2482	0.7964
2491	0.7959
2500	0.7955
2509	0.7946
2518	0.7937
2527	0.7904
2536	0.7902
2545	0.7903
2554	0.79
2563	0.7882
2572	0.7866
2581	0.7865
2590	0.7859
2599	0.7849
2608	0.7835
2617	0.7821
2626	0.7803
2635	0.7783
2644	0.7763
2653	0.7739
2662	0.7717
2671	0.7698
2680	0.768
2689	0.7665
2698	0.7664
2707	0.7643
2716	0.7634
2725	0.7638
2734	0.7633
2743	0.7616
2752	0.7593
2761	0.7566
2770	0.7534
2779	0.7502
2788	0.7466
2797	0.7431
2806	0.7403
2815	0.7377
2824	0.7367
2833	0.7347
2842	0.723
2851	0.7069
2860	0.6918
2869	0.6392
2878	0.6431
2887	0.6288
2896	0.5991
2905	0.6356
2914	0.6416
2923	0.5969
2932	0.5662
2941	0.6035
2950	0.6395
2959	0.4893
2968	0.3793
2977	0.5716
2986	0.6835
2995	0.7291
3004	0.7389
3013	0.7384
3022	0.723
3031	0.7265
3040	0.7265
3049	0.72
3058	0.7211
3067	0.7297
3076	0.7079
3085	0.6603
3094	0.7053
3103	0.7167
3112	0.7192
3121	0.7205
3130	0.7211
3139	0.7195
3148	0.7159
3157	0.7116
3166	0.7067
3175	0.7025
3184	0.6976
3193	0.6909
3202	0.6833
3211	0.6754
3220	0.6744
3229	0.6816
3238	0.6845
3247	0.6861
3256	0.687
3265	0.686
3274	0.6843
3283	0.6807
3292	0.6764
3301	0.6714
3310	0.6651
3319	0.6531
3328	0.6263
3337	0.56
3346	0.3568
3355	0.3008
3364	0.6692
3373	0.6815
3382	0.6748
3391	0.6678
3400	0.6605
3409	0.6362
3418	0.5761
3427	0.367
3436	0.351
3445	0.6094
3454	0.684
3463	0.6907
3472	0.6929
3481	0.6934
3490	0.694
3499	0.694
3508	0.6939
3517	0.6934
3526	0.6927
3535	0.6921
3544	0.6915
3553	0.6912
3562	0.691
3571	0.6907
3580	0.6903
3589	0.6898
3598	0.6893
3607	0.6888
3616	0.6882
3625	0.6873
3634	0.6864
3643	0.6856
3652	0.6846
3661	0.6832
3670	0.6818
3679	0.6804
3688	0.6791
3697	0.6777
3706	0.6766
3715	0.6754
3724	0.6743
3733	0.6731
3742	0.672
3751	0.6711
3760	0.6703
3769	0.6695
3778	0.6687
3787	0.6679
3796	0.6671
3805	0.6663
3814	0.6655
3823	0.6646
3832	0.6635
3841	0.6621
3850	0.6607
3859	0.6593
3868	0.6579
3877	0.6562
3886	0.6544
3895	0.6527
3904	0.6511
3913	0.6496
3922	0.6489
3931	0.6469
3940	0.6462
3949	0.6455
3958	0.6448
3967	0.6442
3976	0.6437
3985	0.643
3994	0.6422
