Infrared Spectrum: 4-Piperidinepropanol, 1-(2-hydroxyethyl)-
Formula: C10 H21 N O2
CAS: 19780-85-9
State: LIQUID (NEAT)
Class: COBLENTZ III
Instrument: DOW KBr FOREPRISM-GRATING
Instrument parameters: BLAZED AT 3.5, 12.0, 20.0 MICRON AND CHANGED AT 5.0, 7.5, 14.9 MICRON
Sampling: TRANSMISSION
Path length: CAPILLARY (BETWEEN KBr PLATES)
Resolution: 2
Origin: DOW CHEMICAL COMPANY
1/CM	TRANSMITTANCE
3798	0.8904
3789	0.8893
3780	0.8891
3771	0.8891
3762	0.8892
3753	0.8892
3744	0.8892
3735	0.8886
3726	0.8878
3717	0.8866
3708	0.8845
3699	0.8818
3690	0.8796
3681	0.8774
3672	0.8752
3663	0.8727
3654	0.8697
3645	0.8662
3636	0.8609
3627	0.8518
3618	0.8413
3609	0.8294
3600	0.8148
3591	0.8004
3582	0.7785
3573	0.7537
3564	0.7275
3555	0.6968
3546	0.6649
3537	0.6326
3528	0.5928
3519	0.5423
3510	0.4873
3501	0.4408
3492	0.4003
3483	0.3594
3474	0.3149
3465	0.2804
3456	0.252
3447	0.2302
3438	0.2098
3429	0.1942
3420	0.1813
3411	0.1711
3402	0.1634
3393	0.16
3384	0.1571
3375	0.1544
3366	0.1531
3357	0.1523
3348	0.1518
3339	0.1513
3330	0.1522
3321	0.1541
3312	0.1564
3303	0.1598
3294	0.1631
3285	0.1684
3276	0.174
3267	0.1795
3258	0.1857
3249	0.1918
3240	0.1984
3231	0.2054
3222	0.2124
3213	0.2198
3204	0.2279
3195	0.2361
3186	0.2445
3177	0.253
3168	0.2629
3159	0.2728
3150	0.2852
3141	0.2978
3132	0.3106
3123	0.3236
3114	0.3349
3105	0.3452
3096	0.3559
3087	0.3668
3078	0.3779
3069	0.3893
3060	0.407
3051	0.4231
3042	0.4377
3033	0.4512
3024	0.4619
3015	0.4712
3006	0.4755
2997	0.4726
2988	0.4472
2979	0.3826
2970	0.3279
2961	0.2388
2952	0.1626
2943	0.0623
2934	0.0457
2925	0.0379
2916	0.041
2907	0.0678
2898	0.0863
2889	0.0992
2880	0.1084
2871	0.1128
2862	0.101
2853	0.0889
2844	0.0988
2835	0.1369
2826	0.1502
2817	0.1368
2808	0.1288
2799	0.1339
2790	0.1689
2781	0.1957
2772	0.2049
2763	0.2149
2754	0.2294
2745	0.248
2736	0.2752
2727	0.3309
2718	0.3659
2709	0.3814
2700	0.3938
2691	0.4059
2682	0.4175
2673	0.4273
2664	0.4517
2655	0.4771
2646	0.5031
2637	0.5189
2628	0.545
2619	0.5662
2610	0.5824
2601	0.5979
2592	0.6124
2583	0.6258
2574	0.6351
2565	0.6438
2556	0.6528
2547	0.6621
2538	0.6718
2529	0.6814
2520	0.6901
2511	0.6981
2502	0.705
2493	0.7118
2484	0.7188
2475	0.7261
2466	0.7335
2457	0.7397
2448	0.7456
2439	0.7507
2430	0.7558
2421	0.7621
2412	0.7686
2403	0.7751
2394	0.7811
2385	0.7864
2376	0.7915
2367	0.7964
2358	0.8008
2349	0.8055
2340	0.8084
2331	0.8085
2322	0.8074
2313	0.8076
2304	0.8083
2295	0.809
2286	0.8101
2277	0.8111
2268	0.8124
2259	0.8135
2250	0.815
2241	0.8174
2232	0.8206
2223	0.823
2214	0.8255
2205	0.8273
2196	0.8291
2187	0.8309
2178	0.8321
2169	0.8331
2160	0.8336
2151	0.8328
2142	0.8311
2133	0.8299
2124	0.8309
2115	0.8311
2106	0.8296
2097	0.8281
2088	0.8265
2079	0.826
2070	0.8286
2061	0.8309
2052	0.8334
2043	0.8353
2034	0.8381
2025	0.8395
2016	0.8413
2007	0.8425
1998	0.8309
1989	0.8221
1980	0.821
1971	0.8183
1962	0.8136
1953	0.8086
1944	0.8103
1935	0.8097
1926	0.8083
1917	0.8065
1908	0.8065
1899	0.8065
1890	0.8069
1881	0.809
1872	0.8105
1863	0.811
1854	0.811
1845	0.8108
1836	0.8107
1827	0.8105
1818	0.8104
1809	0.8101
1800	0.8097
1791	0.8089
1782	0.8075
1773	0.8062
1764	0.8051
1755	0.8042
1746	0.8011
1737	0.7991
1728	0.7975
1719	0.7955
1710	0.7915
1701	0.7861
1692	0.7818
1683	0.7765
1674	0.7685
1665	0.7619
1656	0.7654
1647	0.7721
1638	0.7719
1629	0.7731
1620	0.7734
1611	0.7728
1602	0.7724
1593	0.7721
1584	0.7715
1575	0.7701
1566	0.7658
1557	0.7614
1548	0.7564
1539	0.7494
1530	0.7393
1521	0.724
1512	0.7065
1503	0.6811
1494	0.6408
1485	0.521
1476	0.3997
1467	0.3368
1458	0.312
1449	0.2719
1440	0.3398
1431	0.3729
1422	0.4193
1413	0.4332
1404	0.4405
1395	0.4191
1386	0.3925
1377	0.3636
1368	0.3606
1359	0.3986
1350	0.398
1341	0.4059
1332	0.4254
1323	0.4048
1314	0.4084
1305	0.3816
1296	0.4279
1287	0.4668
1278	0.4522
1269	0.4773
1260	0.456
1251	0.5
1242	0.5494
1233	0.5939
1224	0.6021
1215	0.5964
1206	0.6234
1197	0.6465
1188	0.6199
1179	0.6314
1170	0.644
1161	0.6377
1152	0.5104
1143	0.411
1134	0.3562
1125	0.3232
1116	0.4096
1107	0.4974
1098	0.491
1089	0.3624
1080	0.2576
1071	0.157
1062	0.0872
1053	0.0786
1044	0.1248
1035	0.1835
1026	0.2472
1017	0.3212
1008	0.4291
999	0.5343
990	0.5967
981	0.4895
972	0.4621
963	0.5373
954	0.6745
945	0.6648
936	0.5835
927	0.5257
918	0.6075
909	0.6438
900	0.6501
891	0.6739
882	0.6043
873	0.5362
864	0.5951
855	0.6535
846	0.6715
837	0.6722
828	0.6534
819	0.6512
810	0.6505
801	0.6519
792	0.6453
783	0.592
774	0.5585
765	0.53
756	0.4173
747	0.5323
738	0.5766
729	0.5971
720	0.5955
711	0.5872
702	0.5798
693	0.5737
684	0.567
675	0.5595
666	0.5729
657	0.5769
648	0.5741
639	0.5639
630	0.5616
621	0.5674
612	0.5683
603	0.5715
594	0.578
585	0.583
576	0.587
567	0.5917
558	0.595
549	0.5937
540	0.5922
531	0.5952
522	0.6007
513	0.6012
504	0.6042
495	0.6258
486	0.6304
477	0.6372
468	0.6403
459	0.6399
