Infrared Spectrum: 2-Hexyl-1-octene
Formula: C 14 H 28
CAS: 19780-80-4
State: gas
Instrument: HP-GC/MS/IRD
Origin: NIST Mass Spectrometry Data Center
1/CM	ABSORBANCE
550	0.0003132
562	0.000116
574	0.0001972
586	0.0002958
598	0.0002784
610	0.000435
622	0.0002784
634	0.0002494
646	0.0001334
658	1.74e-05
670	0.0002088
682	0.000261
694	0.0003712
706	0.000551
718	0.000928
730	0.0010614
742	0.00087
754	0.0007424
766	0.0006554
778	0.0005336
790	0.0005046
802	0.0004466
814	0.000377
826	0.0003828
838	0.0005916
850	0.0007772
862	0.0010382
874	0.0022098
886	0.0066526
898	0.0058986
910	0.0014442
922	0.0007888
934	0.0005742
946	0.0004814
958	0.000464
970	0.0005452
982	0.0006322
994	0.0007192
1006	0.000725
1018	0.0006438
1030	0.0005626
1042	0.0004524
1054	0.0003132
1066	0.0003016
1078	0.0002204
1090	0.0002668
1102	0.0003944
1114	0.000435
1126	0.0002436
1138	0.0001972
1150	0.000174
1162	0.0002784
1174	0.000348
1186	0.0003944
1198	0.000464
1210	0.0004988
1222	0.0005278
1234	0.0005162
1246	0.000609
1258	0.0006728
1270	0.0008352
1282	0.0008874
1294	0.0010672
1306	0.0011484
1318	0.0011658
1330	0.0012238
1342	0.0016414
1354	0.0017052
1366	0.0016182
1378	0.0019488
1390	0.0018096
1402	0.0013456
1414	0.0014558
1426	0.0019836
1438	0.0033408
1450	0.00493
1462	0.0056028
1474	0.0038106
1486	0.0017516
1498	0.0009976
1510	0.00087
1522	0.000609
1534	0.0004582
1546	0.0004176
1558	0.0004292
1570	0.0002958
1582	0.0002436
1594	0.0003248
1606	0.0004408
1618	0.000841
1630	0.002088
1642	0.0035496
1654	0.0016936
1666	0.0005742
1678	0.0003074
1690	0.0002436
1702	0.0002552
1714	0.000203
1726	0.000116
1738	0.000174
1750	0.000203
1762	0.0001914
1774	0.0003016
1786	0.0004756
1798	0.0004002
1810	0.000174
1822	0.0001218
1834	9.86e-05
1846	0.0001044
1858	5.8e-05
1870	6.96e-05
1882	3.48e-05
1894	4.06e-05
1906	1.74e-05
1918	7.54e-05
1930	4.06e-05
1942	2.9e-05
1954	0
1966	1.74e-05
1978	1.16e-05
1990	2.9e-05
2002	1.74e-05
2014	5.22e-05
2026	5.22e-05
2038	8.7e-05
2050	6.96e-05
2062	7.54e-05
2074	5.22e-05
2086	3.48e-05
2098	2.9e-05
2110	1.74e-05
2122	4.06e-05
2134	4.06e-05
2146	4.06e-05
2158	4.64e-05
2170	2.32e-05
2182	5.22e-05
2194	3.48e-05
2206	3.48e-05
2218	4.06e-05
2230	3.48e-05
2242	1.74e-05
2254	3.48e-05
2266	4.06e-05
2278	5.8e-05
2290	7.54e-05
2302	9.28e-05
2314	7.54e-05
2326	7.54e-05
2338	6.96e-05
2350	5.8e-05
2362	3.48e-05
2374	0.0001044
2386	9.28e-05
2398	7.54e-05
2410	8.7e-05
2422	0.0001044
2434	0.000116
2446	0.0001102
2458	9.86e-05
2470	9.86e-05
2482	9.86e-05
2494	0.0001276
2506	0.0001508
2518	0.0001566
2530	0.000203
2542	0.0002262
2554	0.0002668
2566	0.0002552
2578	0.0002958
2590	0.0002958
2602	0.0003422
2614	0.0003828
2626	0.000406
2638	0.0004872
2650	0.0005336
2662	0.0006206
2674	0.0006612
2686	0.000696
2698	0.0006554
2710	0.0006612
2722	0.0007134
2734	0.0008062
2746	0.0009454
2758	0.0009454
2770	0.0010788
2782	0.0012702
2794	0.0016472
2806	0.0021402
2818	0.0029464
2830	0.0044196
2842	0.0074588
2854	0.0145116
2866	0.021286
2878	0.019894
2890	0.0182642
2902	0.0201028
2914	0.0289536
2926	0.0469916
2938	0.057652
2950	0.0373346
2962	0.0300266
2974	0.0237974
2986	0.0113042
2998	0.0065772
3010	0.0040658
3022	0.0029116
3034	0.0022794
3046	0.001943
3058	0.0021054
3070	0.0035844
3082	0.0045008
3094	0.0022098
3106	0.0010324
3118	0.000812
3130	0.0006496
3142	0.0006438
3154	0.0005684
3166	0.0005336
3178	0.000493
3190	0.0004292
3202	0.0004234
3214	0.0003248
3226	0.00029
3238	0.000261
3250	0.0002088
3262	0.000232
3274	0.0001972
3286	0.0001972
3298	0.0002146
3310	0.000174
3322	0.0001624
3334	0.0001856
3346	0.0001624
3358	0.0001566
3370	0.0001914
3382	0.000174
3394	0.0001276
3406	9.28e-05
3418	0.0001044
3430	8.7e-05
3442	9.28e-05
3454	8.12e-05
3466	6.96e-05
3478	5.8e-05
3490	7.54e-05
3502	5.8e-05
3514	2.9e-05
3526	0.0001392
3538	4.06e-05
3550	9.86e-05
3562	9.28e-05
3574	2.9e-05
3586	8.12e-05
3598	6.38e-05
3610	0.0001276
3622	0.0001102
3634	0.000145
3646	0.0001334
3658	0.0001218
3670	0.0001276
3682	6.96e-05
3694	8.7e-05
3706	0.0001044
3718	0.0001218
3730	9.28e-05
3742	0.0001218
3754	9.28e-05
3766	8.7e-05
3778	2.9e-05
3790	5.22e-05
3802	7.54e-05
3814	4.06e-05
3826	4.64e-05
3838	0.0001218
