Infrared Spectrum: Piperidine, 1-(2,4-dinitrophenyl)-4-propyl-,
Formula: C14 H19 N3 O4
CAS: 19780-01-9
State: SOLUTION (10% CCl4 FOR 3800-1335, 10% CS2 FOR 1335-400 CM^-^1)
Melting point: 69 C
Class: COBLENTZ III
Instrument: DOW KBr FOREPRISM-GRATING
Instrument parameters: BLAZED AT 3.5, 12.0, 20.0 MICRON AND CHANGED AT 5.0, 7.5, 14.9 MICRON
Sampling: TRANSMISSION
Path length: 0.011 CM, 0.011 CM
Resolution: 2
Origin: DOW CHEMICAL COMPANY
1/CM	TRANSMITTANCE
3800	0.9395
3791	0.9419
3782	0.9403
3773	0.9422
3764	0.9418
3755	0.9413
3746	0.941
3737	0.9426
3728	0.9426
3719	0.9403
3710	0.9424
3701	0.9429
3692	0.9389
3683	0.9367
3674	0.9377
3665	0.9382
3656	0.9387
3647	0.9391
3638	0.9392
3629	0.9392
3620	0.9412
3611	0.9412
3602	0.9395
3593	0.9401
3584	0.9395
3575	0.9375
3566	0.9362
3557	0.9364
3548	0.9384
3539	0.938
3530	0.9388
3521	0.9375
3512	0.9381
3503	0.9389
3494	0.9395
3485	0.9402
3476	0.9406
3467	0.9403
3458	0.9399
3449	0.9395
3440	0.9392
3431	0.9387
3422	0.9384
3413	0.9378
3404	0.9375
3395	0.9371
3386	0.9369
3377	0.9369
3368	0.9367
3359	0.9362
3350	0.936
3341	0.9358
3332	0.9349
3323	0.9342
3314	0.9341
3305	0.9357
3296	0.9331
3287	0.9324
3278	0.9339
3269	0.9347
3260	0.9347
3251	0.9345
3242	0.9331
3233	0.9313
3224	0.9295
3215	0.9257
3206	0.9156
3197	0.9115
3188	0.9124
3179	0.9093
3170	0.9081
3161	0.9079
3152	0.9068
3143	0.9026
3134	0.9005
3125	0.8602
3116	0.8295
3107	0.8271
3098	0.7843
3089	0.7002
3080	0.7787
3071	0.8457
3062	0.8665
3053	0.8751
3044	0.8803
3035	0.8747
3026	0.8456
3017	0.817
3008	0.7841
2999	0.7607
2990	0.7198
2981	0.6467
2972	0.4863
2963	0.1899
2954	0.2305
2945	0.2424
2936	0.1449
2927	0.1447
2918	0.1873
2909	0.2715
2900	0.3557
2891	0.4399
2882	0.4909
2873	0.331
2864	0.357
2855	0.3401
2846	0.3242
2837	0.4651
2828	0.5005
2819	0.5629
2810	0.6483
2801	0.7396
2792	0.8179
2783	0.8412
2774	0.855
2765	0.8639
2756	0.8624
2747	0.8539
2738	0.8499
2729	0.8523
2720	0.8582
2711	0.8644
2702	0.8669
2693	0.8645
2684	0.8616
2675	0.8597
2666	0.8593
2657	0.8625
2648	0.8658
2639	0.8743
2630	0.8847
2621	0.8942
2612	0.9012
2603	0.9059
2594	0.9091
2585	0.9123
2576	0.9158
2567	0.9186
2558	0.9203
2549	0.9183
2540	0.9159
2531	0.9218
2522	0.9271
2513	0.9305
2504	0.9317
2495	0.9278
2486	0.9221
2477	0.9183
2468	0.9137
2459	0.9123
2450	0.9114
2441	0.9139
2432	0.9178
2423	0.9213
2414	0.9246
2405	0.9303
2396	0.9349
2387	0.9413
2378	0.9514
2369	0.9536
2360	0.9543
2351	0.9577
2342	0.9562
2333	0.9536
2324	0.9599
2315	0.9623
2306	0.9603
2297	0.9596
2288	0.9552
2279	0.9504
2270	0.9449
2261	0.9422
2252	0.9409
2243	0.9417
2234	0.9477
2225	0.9512
2216	0.9507
2207	0.9525
2198	0.9544
2189	0.953
2180	0.9514
2171	0.9514
2162	0.9519
2153	0.9553
2144	0.9565
2135	0.9517
2126	0.9522
2117	0.9538
2108	0.9556
2099	0.9542
2090	0.9512
2081	0.9471
2072	0.9431
2063	0.9422
2054	0.9464
2045	0.9473
2036	0.9494
2027	0.9522
2018	0.9542
2009	0.9548
2000	0.9544
1991	0.9423
1982	0.951
1973	0.9509
1964	0.9523
1955	0.9551
1946	0.9522
1937	0.9539
1928	0.9491
1919	0.937
1910	0.9334
1901	0.9449
1892	0.9499
1883	0.9488
1874	0.9492
1865	0.9496
1856	0.9518
1847	0.9512
1838	0.9501
1829	0.9402
1820	0.9295
1811	0.9307
1802	0.9385
1793	0.9483
1784	0.9483
1775	0.9428
1766	0.9422
1757	0.9505
1748	0.9546
1739	0.9532
1730	0.9505
1721	0.9478
1712	0.9453
1703	0.9402
1694	0.9306
1685	0.9167
1676	0.8951
1667	0.8772
1658	0.8455
1649	0.8136
1640	0.7703
1631	0.6741
1622	0.5549
1613	0.1911
1604	0.0044
1595	0.0366
1586	0.0455
1577	0.1428
1568	0.4157
1559	0.5791
1550	0.5795
1541	0.2855
1532	0.0138
1523	0.0217
1514	0.015
1505	0.022
1496	0.1537
1487	0.4294
1478	0.5578
1469	0.2895
1460	0.3611
1451	0.3749
1442	0.4458
1433	0.6039
1424	0.4947
1415	0.5924
1406	0.4657
1397	0.3333
1388	0.2664
1379	0.3622
1370	0.376
1361	0.1642
1352	0.0718
1343	0.0205
1334	0
1325	0.0233
1316	0.0981
1307	0.0705
1298	0.2421
1289	0.4255
1280	0.3127
1271	0.1253
1262	0.2463
1253	0.259
1244	0.2205
1235	0.4803
1226	0.6626
1217	0.4088
1208	0.4694
1199	0.7773
1190	0.7638
1181	0.5567
1172	0.8086
1163	0.6187
1154	0.6029
1145	0.1953
1136	0.169
1127	0.4412
1118	0.5442
1109	0.7137
1100	0.7525
1091	0.7033
1082	0.8021
1073	0.5871
1064	0.6248
1055	0.8419
1046	0.8733
1037	0.8535
1028	0.7504
1019	0.8191
1010	0.9064
1001	0.9307
992	0.9215
983	0.6785
974	0.6332
965	0.705
956	0.7744
947	0.6842
938	0.4598
929	0.6203
920	0.6454
911	0.6222
902	0.9004
893	0.9268
884	0.9434
875	0.8972
866	0.9202
857	0.9719
848	0.9856
839	0.8483
830	0.5734
821	0.561
812	0.7407
803	0.9066
794	0.9627
785	0.9798
776	0.9769
767	0.9292
758	0.7603
749	0.1674
740	0.7706
731	0.8862
722	0.7948
713	0.701
704	0.8965
695	0.927
686	0.9189
677	0.8234
668	0.8105
659	0.825
650	0.8743
641	0.6654
632	0.9083
623	0.954
614	0.9662
605	0.9372
596	0.948
587	0.9627
578	0.9554
569	0.9287
560	0.9547
551	0.95
542	0.9332
533	0.8685
524	0.7874
515	0.7774
506	0.901
497	0.9347
488	0.9281
479	0.9051
470	0.8465
461	0.843
452	0.8132
443	0.775
434	0.7706
425	0.7363
416	0.6387
407	0.3964
398	0.1928
389	0.1489
