Infrared Spectrum: cis-1-Ethyl-2-methylcyclopropane
Formula: C 6 H 12
CAS: 19781-68-1
State: gas
Instrument: HP-GC/MS/IRD
Origin: NIST Mass Spectrometry Data Center
1/CM	ABSORBANCE
550	0.0001836
562	0.0001674
574	0.0001377
586	8.1e-05
598	5.4e-06
610	3.24e-05
622	5.4e-05
634	8.91e-05
646	0.0001323
658	4.59e-05
670	9.99e-05
682	0.0001485
694	0.0001782
706	0.0005454
718	0.0009828
730	0.0017442
742	0.0019494
754	0.0016335
766	0.001296
778	0.0012987
790	0.0011745
802	0.0009855
814	0.0008397
826	0.0006588
838	0.001134
850	0.0013716
862	0.0011907
874	0.0007506
886	0.0006561
898	0.0005859
910	0.0005589
922	0.0006129
934	0.0004482
946	0.000405
958	0.0004428
970	0.0005076
982	0.0006102
994	0.0007263
1006	0.0014607
1018	0.002322
1030	0.0022329
1042	0.0012204
1054	0.0004833
1066	0.0008289
1078	0.0010773
1090	0.0011259
1102	0.0007398
1114	0.000432
1126	0.0002754
1138	0.0002403
1150	0.0003645
1162	0.0005589
1174	0.000729
1186	0.000567
1198	0.000351
1210	0.0002889
1222	0.0002943
1234	0.0003132
1246	0.0002835
1258	0.0003537
1270	0.0003888
1282	0.0005616
1294	0.0012042
1306	0.0016632
1318	0.0016173
1330	0.0009342
1342	0.000702
1354	0.0009018
1366	0.0013932
1378	0.0020439
1390	0.0022896
1402	0.0018036
1414	0.0012852
1426	0.0015471
1438	0.002538
1450	0.0039636
1462	0.004482
1474	0.0036774
1486	0.0021897
1498	0.0011259
1510	0.0005913
1522	0.0004617
1534	0.0003888
1546	0.0003132
1558	0.0002916
1570	0.0002565
1582	0.00027
1594	0.0003591
1606	0.0003537
1618	0.0003375
1630	0.0003375
1642	0.0003078
1654	0.0002889
1666	0.0002646
1678	0.0002268
1690	0.0002241
1702	0.0001863
1714	0.0001566
1726	0.0001674
1738	0.0001728
1750	0.0002241
1762	0.0002322
1774	0.0002538
1786	0.0001917
1798	0.0001323
1810	0.000189
1822	0.0001971
1834	0.0001647
1846	0.0001323
1858	0.0001539
1870	0.0001728
1882	0.0001377
1894	0.0001836
1906	0.0002025
1918	0.0002268
1930	0.0001782
1942	0.0001863
1954	0.0002106
1966	0.0002376
1978	0.0001728
1990	0.000162
2002	0.0001674
2014	0.0002295
2026	0.0002835
2038	0.0002889
2050	0.0003024
2062	0.0001971
2074	0.0001404
2086	8.37e-05
2098	7.83e-05
2110	0.000135
2122	0.0001296
2134	0.0001269
2146	0.0001431
2158	9.18e-05
2170	0.0001242
2182	8.1e-05
2194	7.02e-05
2206	0.0001026
2218	6.21e-05
2230	0.0001215
2242	0.0001323
2254	0.0001377
2266	0.0001512
2278	0.0001323
2290	0.0001053
2302	4.59e-05
2314	6.48e-05
2326	5.67e-05
2338	0.0001107
2350	6.21e-05
2362	9.72e-05
2374	9.72e-05
2386	7.56e-05
2398	7.29e-05
2410	9.45e-05
2422	9.72e-05
2434	9.18e-05
2446	0.0001404
2458	9.45e-05
2470	0.0001296
2482	0.0001053
2494	4.86e-05
2506	2.43e-05
2518	8.1e-05
2530	6.75e-05
2542	9.45e-05
2554	0.0001161
2566	8.1e-05
2578	6.75e-05
2590	0.000135
2602	0.0001323
2614	0.0001242
2626	0.0001566
2638	0.0001512
2650	0.0001323
2662	9.45e-05
2674	0.0001161
2686	0.0001593
2698	0.0001836
2710	0.0002241
2722	0.0003591
2734	0.0005427
2746	0.0007236
2758	0.0007776
2770	0.0007425
2782	0.0007371
2794	0.0007587
2806	0.0010206
2818	0.0013689
2830	0.0018873
2842	0.002808
2854	0.0046035
2866	0.0082593
2878	0.0123984
2890	0.0133218
2902	0.0129438
2914	0.0136674
2926	0.0169128
2938	0.0202041
2950	0.0238005
2962	0.0268434
2974	0.025893
2986	0.0212598
2998	0.018981
3010	0.0169344
3022	0.0115344
3034	0.0068526
3046	0.0053487
3058	0.0067014
3070	0.0071982
3082	0.0051057
3094	0.0026541
3106	0.0013689
3118	0.001026
3130	0.0007776
3142	0.0006966
3154	0.000594
3166	0.0005238
3178	0.000378
3190	0.0002862
3202	0.0002646
3214	0.0001728
3226	0.0001377
3238	0.000162
3250	0.0001134
3262	0.0001026
3274	0.000108
3286	0.0001404
3298	8.1e-05
3310	0.0001215
3322	0.0001269
3334	0.0001539
3346	5.94e-05
3358	0.0001674
3370	5.67e-05
3382	4.05e-05
3394	0.000162
3406	3.51e-05
3418	0.0001134
3430	0.0001134
3442	8.64e-05
3454	5.4e-05
3466	0.0001269
3478	0.0001323
3490	0.0001674
3502	8.1e-05
3514	0.0001134
3526	5.67e-05
3538	8.91e-05
3550	9.18e-05
3562	3.51e-05
3574	7.56e-05
3586	3.78e-05
3598	0.0001161
3610	8.64e-05
3622	4.32e-05
3634	9.72e-05
3646	1.62e-05
3658	0.0001323
3670	0.0001593
3682	0.0001134
3694	0.0001242
3706	0.0001782
3718	0.0001458
3730	0.0001242
3742	8.64e-05
3754	0.0001134
3766	0.0001377
3778	9.72e-05
3790	0.0001107
3802	0.0001728
3814	0.0001593
3826	0.0001647
3838	0.0001782
