Infrared Spectrum: 3-Ethyl-2-methyl-1-heptene
Formula: C 10 H 20
CAS: 19780-60-0
State: gas
Instrument: HP-GC/MS/IRD
Origin: NIST Mass Spectrometry Data Center
1/CM	ABSORBANCE
550	0.0006751
562	0.001032
574	0.000731
586	0.0004515
598	0.0001677
610	0.000129
622	8.6e-05
634	3.87e-05
646	9.89e-05
658	3.44e-05
670	0.0001419
682	0.0002193
694	0.000387
706	0.000559
718	0.000645
730	0.0006536
742	0.000602
754	0.0005762
766	0.0005848
778	0.0006536
790	0.0005848
802	0.0004601
814	0.0004472
826	0.0004988
838	0.0005203
850	0.0007138
862	0.0010578
874	0.0026402
886	0.0095847
898	0.0085484
910	0.0020511
922	0.0010363
934	0.0008686
946	0.0008127
958	0.0008127
970	0.0007353
982	0.0005977
994	0.0005375
1006	0.0005289
1018	0.0004171
1030	0.0003354
1042	0.0003612
1054	0.0003784
1066	0.0004386
1078	0.0004515
1090	0.0006063
1102	0.0007869
1114	0.0005762
1126	0.000344
1138	0.0003999
1150	0.000301
1162	0.0002236
1174	0.0002537
1186	0.000344
1198	0.0003827
1210	0.0004472
1222	0.0006063
1234	0.0007052
1246	0.0006837
1258	0.0007009
1270	0.0008385
1282	0.00086
1294	0.0008772
1306	0.0008342
1318	0.0008772
1330	0.0011266
1342	0.0014018
1354	0.001591
1366	0.0027391
1378	0.0048031
1390	0.0037797
1402	0.0019522
1414	0.001677
1426	0.0020554
1438	0.0032078
1450	0.005289
1462	0.0063339
1474	0.0043516
1486	0.0019823
1498	0.0011051
1510	0.0007998
1522	0.0006579
1534	0.0005676
1546	0.0005031
1558	0.0005633
1570	0.0005461
1582	0.0006278
1594	0.0006923
1606	0.0008471
1618	0.0012814
1630	0.0026273
1642	0.0038442
1654	0.0021414
1666	0.0006708
1678	0.0003311
1690	0.000258
1702	0.0002279
1714	0.0001677
1726	0.000129
1738	0.0001419
1750	0.0001376
1762	0.0001763
1774	0.0004042
1786	0.0006708
1798	0.0004945
1810	0.0002193
1822	8.17e-05
1834	4.73e-05
1846	5.59e-05
1858	4.73e-05
1870	2.58e-05
1882	2.15e-05
1894	1.72e-05
1906	2.58e-05
1918	2.15e-05
1930	1.72e-05
1942	3.01e-05
1954	8.6e-06
1966	1.72e-05
1978	1.72e-05
1990	1.29e-05
2002	1.29e-05
2014	1.72e-05
2026	3.87e-05
2038	3.44e-05
2050	6.88e-05
2062	3.44e-05
2074	3.01e-05
2086	2.15e-05
2098	2.58e-05
2110	3.01e-05
2122	1.72e-05
2134	1.29e-05
2146	8.6e-06
2158	2.58e-05
2170	3.87e-05
2182	1.29e-05
2194	3.01e-05
2206	1.72e-05
2218	4.3e-05
2230	4.73e-05
2242	6.45e-05
2254	4.3e-05
2266	6.45e-05
2278	6.45e-05
2290	8.17e-05
2302	5.59e-05
2314	8.17e-05
2326	9.89e-05
2338	0.0001333
2350	0.0001204
2362	0.000129
2374	0.0001118
2386	0.0001247
2398	0.000129
2410	0.0001247
2422	8.6e-05
2434	0.0001075
2446	0.0001032
2458	0.0001118
2470	9.46e-05
2482	8.6e-05
2494	0.0001118
2506	0.000129
2518	0.0001591
2530	0.0001548
2542	0.0001935
2554	0.0002408
2566	0.0002279
2578	0.000258
2590	0.0002623
2602	0.0002838
2614	0.0003139
2626	0.000301
2638	0.0003569
2650	0.0003698
2662	0.0004687
2674	0.0004859
2686	0.0004945
2698	0.0004902
2710	0.0005719
2722	0.0006794
2734	0.0008772
2746	0.0009288
2758	0.0008514
2770	0.0009288
2782	0.0011223
2794	0.0014448
2806	0.0017673
2818	0.002193
2830	0.0029541
2842	0.0046053
2854	0.0091375
2866	0.0161766
2878	0.0199864
2890	0.0178278
2902	0.0151575
2914	0.0212119
2926	0.0362533
2938	0.0424969
2950	0.0319619
2962	0.0346666
2974	0.0331487
2986	0.015781
2998	0.007869
3010	0.0047988
3022	0.0035432
3034	0.0028982
3046	0.0026531
3058	0.003182
3070	0.0053578
3082	0.0056373
3094	0.0029369
3106	0.0014964
3118	0.0010965
3130	0.0008729
3142	0.0007439
3154	0.0006579
3166	0.0005805
3178	0.0004945
3190	0.0004429
3202	0.0003956
3214	0.0002924
3226	0.0002408
3238	0.0002365
3250	0.0002064
3262	0.0001462
3274	0.0001634
3286	0.0001548
3298	0.000129
3310	9.46e-05
3322	0.0001161
3334	0.0001161
3346	0.0001462
3358	9.89e-05
3370	0.0001032
3382	0.0001333
3394	0.000129
3406	0.0001204
3418	0.0001032
3430	0.0001118
3442	0.0001075
3454	6.88e-05
3466	6.45e-05
3478	6.45e-05
3490	6.88e-05
3502	7.31e-05
3514	6.02e-05
3526	5.16e-05
3538	3.87e-05
3550	9.03e-05
3562	4.73e-05
3574	6.02e-05
3586	1.29e-05
3598	4.73e-05
3610	8.17e-05
3622	0.0001204
3634	0.0001032
3646	9.89e-05
3658	0.0001247
3670	0.0001333
3682	0.0001161
3694	6.88e-05
3706	9.46e-05
3718	0.0001204
3730	0.0001032
3742	0.0001462
3754	0.0001161
3766	9.03e-05
3778	0.0001376
3790	9.89e-05
3802	0.0001118
3814	8.6e-05
3826	0.000129
3838	0.0001247
