Infrared Spectrum: ANILINE, 4-(N,N-DIETHYLAMINO)-2-(3,4-DIMETHYLPHENYLSULFONYL)-
Formula: C18 H24 N2 O2 S
CAS: 19789-55-0
State: SOLID (SPLIT MULL), FLUOROLUBE FOR 4000-1340 CM^-^1, NUJOL FOR 1340-400 CM^-^1
Melting point: 97 C
Class: COBLENTZ III
Instrument: BECKMAN IR-12 (GRATING)
Instrument parameters: GRATING CHANGE: 300, 650, 2000 CM^-^1
Sampling: TRANSMISSION
Resolution: 2
Origin: EASTMAN KODAK COMPANY
1/CM	TRANSMITTANCE
403	0.83
412	0.8154
421	0.7967
430	0.8742
439	0.8331
448	0.8543
457	0.8291
466	0.837
475	0.9236
484	0.9177
493	0.9112
502	0.8752
511	0.7542
520	0.6763
529	0.7549
538	0.874
547	0.7908
556	0.6119
565	0.8368
574	0.866
583	0.7364
592	0.8171
601	0.6368
610	0.335
619	0.7075
628	0.6878
637	0.6689
646	0.6803
655	0.7098
664	0.4085
673	0.5742
682	0.7496
691	0.8583
700	0.6817
709	0.6605
718	0.8287
727	0.8553
736	0.8632
745	0.7857
754	0.56
763	0.7496
772	0.831
781	0.8284
790	0.7445
799	0.8512
808	0.8613
817	0.4424
826	0.7541
835	0.8486
844	0.7801
853	0.7759
862	0.8862
871	0.9026
880	0.8767
889	0.7686
898	0.8154
907	0.8584
916	0.8397
925	0.6774
934	0.8345
943	0.8408
952	0.8674
961	0.8713
970	0.8748
979	0.8732
988	0.8667
997	0.8454
1006	0.7978
1015	0.696
1024	0.7204
1033	0.8118
1042	0.7021
1051	0.7786
1060	0.7866
1069	0.7371
1078	0.5526
1087	0.5261
1096	0.5119
1105	0.629
1114	0.5922
1123	0.3311
1132	0.5351
1141	0.5289
1150	0.4642
1159	0.5352
1168	0.6092
1177	0.6677
1186	0.6216
1195	0.5487
1204	0.5495
1213	0.7655
1222	0.8125
1231	0.7606
1240	0.8008
1249	0.7511
1258	0.6392
1267	0.4317
1276	0.4212
1285	0.2637
1294	0.325
1303	0.5921
1312	0.7028
1321	0.3617
1330	0.763
1339	0.678
1348	0.6442
1357	0.4299
1366	0.5373
1375	0.5774
1384	0.5527
1393	0.5892
1402	0.7485
1411	0.7908
1420	0.6717
1429	0.4817
1438	0.6514
1447	0.4882
1456	0.5027
1465	0.5993
1474	0.6649
1483	0.5363
1492	0.434
1501	0.0734
1510	0.108
1519	0.6273
1528	0.8189
1537	0.9128
1546	0.9394
1555	0.921
1564	0.9321
1573	0.928
1582	0.9145
1591	0.8399
1600	0.7508
1609	0.5713
1618	0.6071
1627	0.7754
1636	0.8841
1645	0.8944
1654	0.8972
1663	0.9084
1672	0.9191
1681	0.9259
1690	0.93
1699	0.9334
1708	0.9381
1717	0.942
1726	0.9513
1735	0.9451
1744	0.9369
1753	0.9293
1762	0.9206
1771	0.9102
1780	0.9188
1789	0.9224
1798	0.9213
1807	0.9199
1816	0.9177
1825	0.9148
1834	0.9112
1843	0.9072
1852	0.9018
1861	0.8957
1870	0.8847
1879	0.8831
1888	0.8956
1897	0.893
1906	0.8812
1915	0.8839
1924	0.8892
1933	0.8856
1942	0.8817
1951	0.8778
1960	0.8752
1969	0.8734
1978	0.8729
1987	0.871
1996	0.8673
2005	0.8609
2014	0.8571
2023	0.8533
2032	0.8495
2041	0.8457
2050	0.8428
2059	0.84
2068	0.8373
2077	0.8345
2086	0.8317
2095	0.8282
2104	0.8239
2113	0.8203
2122	0.8167
2131	0.8134
2140	0.8101
2149	0.8067
2158	0.8033
2167	0.7998
2176	0.7963
2185	0.7925
2194	0.7889
2203	0.785
2212	0.7812
2221	0.7772
2230	0.7733
2239	0.7695
2248	0.7656
2257	0.7607
2266	0.7559
2275	0.7533
2284	0.7528
2293	0.7502
2302	0.7486
2311	0.7464
2320	0.7443
2329	0.743
2338	0.7433
2347	0.7474
2356	0.7488
2365	0.7472
2374	0.7446
2383	0.7419
2392	0.7398
2401	0.7381
2410	0.7364
2419	0.7351
2428	0.7339
2437	0.7328
2446	0.7326
2455	0.7317
2464	0.7296
2473	0.728
2482	0.7265
2491	0.7269
2500	0.7232
2509	0.7189
2518	0.7155
2527	0.7136
2536	0.7125
2545	0.7101
2554	0.7076
2563	0.7057
2572	0.7027
2581	0.6968
2590	0.6934
2599	0.6919
2608	0.69
2617	0.6876
2626	0.6846
2635	0.6815
2644	0.6781
2653	0.6745
2662	0.671
2671	0.6674
2680	0.6639
2689	0.6606
2698	0.6573
2707	0.654
2716	0.6509
2725	0.6476
2734	0.6447
2743	0.6464
2752	0.6434
2761	0.6378
2770	0.6295
2779	0.6213
2788	0.6138
2797	0.6064
2806	0.5993
2815	0.5973
2824	0.5954
2833	0.5884
2842	0.5695
2851	0.5328
2860	0.4845
2869	0.461
2878	0.4768
2887	0.4682
2896	0.4765
2905	0.4703
2914	0.4403
2923	0.415
2932	0.4191
2941	0.4564
2950	0.4691
2959	0.37
2968	0.2785
2977	0.5013
2986	0.5585
2995	0.5932
3004	0.6191
3013	0.6197
3022	0.614
3031	0.6063
3040	0.5941
3049	0.5803
3058	0.5888
3067	0.5913
3076	0.5846
3085	0.5916
3094	0.5938
3103	0.5939
3112	0.592
3121	0.5896
3130	0.5867
3139	0.5832
3148	0.5786
3157	0.5738
3166	0.5676
3175	0.5613
3184	0.5554
3193	0.5495
3202	0.5449
3211	0.5413
3220	0.5491
3229	0.5504
3238	0.5476
3247	0.5442
3256	0.5401
3265	0.5354
3274	0.5295
3283	0.5228
3292	0.5162
3301	0.5089
3310	0.4987
3319	0.4844
3328	0.4587
3337	0.3749
3346	0.1871
3355	0.4844
3364	0.5336
3373	0.5287
3382	0.516
3391	0.5023
3400	0.4867
3409	0.4599
3418	0.3984
3427	0.1925
3436	0.415
3445	0.5246
3454	0.5308
3463	0.5286
3472	0.5287
3481	0.5295
3490	0.5293
3499	0.5281
3508	0.5266
3517	0.525
3526	0.5235
3535	0.5219
3544	0.5203
3553	0.5187
3562	0.5172
3571	0.5156
3580	0.514
3589	0.5124
3598	0.5109
3607	0.5093
3616	0.5077
3625	0.5061
3634	0.5046
3643	0.5034
3652	0.5022
3661	0.501
3670	0.4998
3679	0.4983
3688	0.4965
3697	0.4946
3706	0.4927
3715	0.4909
3724	0.489
3733	0.4872
3742	0.4853
3751	0.4835
3760	0.4816
3769	0.4796
3778	0.4776
3787	0.4757
3796	0.4737
3805	0.4717
3814	0.4701
3823	0.4685
3832	0.4669
3841	0.4645
3850	0.4618
3859	0.4592
3868	0.4569
3877	0.4546
3886	0.453
3895	0.4515
3904	0.4501
3913	0.4487
3922	0.4473
3931	0.4455
3940	0.4438
3949	0.4421
3958	0.4404
3967	0.4387
3976	0.4372
3985	0.4356
3994	0.434
