Infrared Spectrum: 2,3-Dimethyl-3-octanol
Formula: C 10 H 22 O
CAS: 19781-10-3
State: gas
Instrument: HP-GC/MS/IRD
Origin: NIST Mass Spectrometry Data Center
1/CM	ABSORBANCE
550	0.0004
562	0.0003136
574	0.000256
586	0.0002368
598	0.000192
610	0.000128
622	3.2e-05
634	8.64e-05
646	8e-05
658	3.84e-05
670	0.0001216
682	0.0001088
694	0.0001856
706	0.0001856
718	0.0002912
730	0.0004416
742	0.0004544
754	0.0003328
766	0.0003232
778	0.0002976
790	0.0001856
802	0.0001472
814	0.0002784
826	0.0003808
838	0.000528
850	0.0006048
862	0.0007008
874	0.0008096
886	0.0009696
898	0.001488
910	0.002496
922	0.0027136
934	0.0022112
946	0.001872
958	0.0015104
970	0.001104
982	0.0009184
994	0.000976
1006	0.0013312
1018	0.0018528
1030	0.0022944
1042	0.0022688
1054	0.0024224
1066	0.0029408
1078	0.0031296
1090	0.0027488
1102	0.002288
1114	0.0024128
1126	0.0031296
1138	0.0038496
1150	0.004096
1162	0.0037504
1174	0.0029568
1186	0.0025248
1198	0.0024128
1210	0.0022912
1222	0.0020768
1234	0.0019744
1246	0.0020448
1258	0.00208
1270	0.0022624
1282	0.0024224
1294	0.0023776
1306	0.0022272
1318	0.002048
1330	0.002
1342	0.00232
1354	0.002608
1366	0.0041824
1378	0.0062688
1390	0.0051552
1402	0.0024416
1414	0.001408
1426	0.00136
1438	0.0019584
1450	0.0032352
1462	0.0046112
1474	0.0039424
1486	0.0019712
1498	0.000944
1510	0.0006464
1522	0.000464
1534	0.0003488
1546	0.0002816
1558	0.00024
1570	0.000192
1582	0.000192
1594	0.0001792
1606	0.000144
1618	0.0001504
1630	0.0001504
1642	0.0001376
1654	0.0001376
1666	0.0001248
1678	0.0001216
1690	9.28e-05
1702	7.36e-05
1714	5.76e-05
1726	4.8e-05
1738	4.48e-05
1750	6.4e-05
1762	5.12e-05
1774	2.88e-05
1786	4.16e-05
1798	4.48e-05
1810	3.52e-05
1822	3.2e-05
1834	2.88e-05
1846	3.52e-05
1858	3.84e-05
1870	1.92e-05
1882	3.52e-05
1894	4.16e-05
1906	6.4e-06
1918	2.24e-05
1930	1.6e-05
1942	0
1954	9.6e-06
1966	9.6e-06
1978	2.88e-05
1990	1.28e-05
2002	2.56e-05
2014	3.52e-05
2026	4.16e-05
2038	2.56e-05
2050	4.48e-05
2062	6.72e-05
2074	5.44e-05
2086	4.48e-05
2098	4.48e-05
2110	2.88e-05
2122	3.84e-05
2134	1.92e-05
2146	2.24e-05
2158	3.84e-05
2170	4.48e-05
2182	3.84e-05
2194	4.48e-05
2206	3.84e-05
2218	2.56e-05
2230	7.04e-05
2242	3.52e-05
2254	4.48e-05
2266	3.84e-05
2278	6.08e-05
2290	6.4e-05
2302	7.36e-05
2314	6.4e-05
2326	5.76e-05
2338	5.76e-05
2350	8.32e-05
2362	6.4e-05
2374	4.48e-05
2386	7.36e-05
2398	6.72e-05
2410	7.04e-05
2422	5.12e-05
2434	3.84e-05
2446	3.84e-05
2458	4.8e-05
2470	4.8e-05
2482	4.8e-05
2494	3.84e-05
2506	4.8e-05
2518	5.76e-05
2530	5.44e-05
2542	6.72e-05
2554	9.6e-05
2566	0.0001024
2578	0.0001408
2590	0.00016
2602	0.0002048
2614	0.00024
2626	0.0002464
2638	0.000224
2650	0.000224
2662	0.0002624
2674	0.0002944
2686	0.0003136
2698	0.0003072
2710	0.0003136
2722	0.000416
2734	0.0005216
2746	0.0005856
2758	0.000576
2770	0.0006464
2782	0.0007264
2794	0.0008992
2806	0.00112
2818	0.0015104
2830	0.0021056
2842	0.0033696
2854	0.0063264
2866	0.009888
2878	0.0128256
2890	0.0138624
2902	0.0135648
2914	0.01632
2926	0.0217216
2938	0.0273088
2950	0.0271296
2962	0.0295744
2974	0.0304352
2986	0.0187264
2998	0.0085984
3010	0.0037824
3022	0.0022912
3034	0.0016224
3046	0.00128
3058	0.001056
3070	0.0009056
3082	0.0007424
3094	0.000704
3106	0.0006016
3118	0.0005152
3130	0.0004704
3142	0.000432
3154	0.0004288
3166	0.0004448
3178	0.000384
3190	0.000336
3202	0.0002784
3214	0.0002016
3226	0.0001472
3238	0.0001376
3250	9.28e-05
3262	5.12e-05
3274	4.48e-05
3286	3.52e-05
3298	2.24e-05
3310	2.88e-05
3322	2.56e-05
3334	5.12e-05
3346	7.36e-05
3358	4.48e-05
3370	5.44e-05
3382	6.4e-05
3394	7.04e-05
3406	8.32e-05
3418	8.32e-05
3430	0.0001024
3442	9.92e-05
3454	0.0001088
3466	8.32e-05
3478	6.72e-05
3490	6.72e-05
3502	6.4e-05
3514	1.6e-05
3526	3.2e-05
3538	4.8e-05
3550	4.8e-05
3562	4.48e-05
3574	3.84e-05
3586	6.72e-05
3598	8.64e-05
3610	0.0001632
3622	0.0004064
3634	0.0010432
3646	0.0013984
3658	0.0007136
3670	0.0002592
3682	0.000128
3694	5.76e-05
3706	6.4e-05
3718	4.8e-05
3730	4.8e-05
3742	3.2e-05
3754	3.52e-05
3766	4.16e-05
3778	6.4e-05
3790	3.52e-05
3802	4.48e-05
3814	0.0001152
3826	0.0001216
3838	0.000112
