Infrared Spectrum: 5-Dodecanone
Formula: C 12 H 24 O
CAS: 19780-10-0
State: gas
Instrument: HP-GC/MS/IRD
Origin: NIST Mass Spectrometry Data Center
1/CM	ABSORBANCE
550	0.0004998
562	0.0001932
574	0
586	0.0001974
598	0.0001764
610	0.0001806
622	0.0003024
634	0.0002352
646	0.0001176
658	9.66e-05
670	0.0001302
682	0.0001806
694	0.000273
706	0.0004956
718	0.0008652
730	0.0009534
742	0.0008946
754	0.0008232
766	0.0007518
778	0.0006258
790	0.0005418
802	0.0003192
814	0.0003234
826	0.0003108
838	0.000294
850	0.0002898
862	0.0003528
874	0.0004074
886	0.0004914
898	0.0004788
910	0.000504
922	0.0005166
934	0.000609
946	0.0006132
958	0.000693
970	0.0008316
982	0.0009786
994	0.0011592
1006	0.0014406
1018	0.0018774
1030	0.0021798
1042	0.0025368
1054	0.0028182
1066	0.002772
1078	0.0020832
1090	0.0016464
1102	0.0016632
1114	0.0023436
1126	0.0032298
1138	0.0033894
1150	0.0029232
1162	0.00231
1174	0.0019278
1186	0.001932
1198	0.0019614
1210	0.0019614
1222	0.0019446
1234	0.0019488
1246	0.0020706
1258	0.0022512
1270	0.0021714
1282	0.002058
1294	0.0023562
1306	0.002562
1318	0.0027216
1330	0.0032844
1342	0.0043596
1354	0.0053172
1366	0.0048342
1378	0.0034776
1390	0.002793
1402	0.002352
1414	0.0028518
1426	0.003066
1438	0.0033852
1450	0.004515
1462	0.005292
1474	0.0037716
1486	0.0018312
1498	0.0009996
1510	0.000651
1522	0.0004914
1534	0.0003948
1546	0.0003192
1558	0.0002898
1570	0.0002688
1582	0.0002562
1594	0.0002352
1606	0.0002478
1618	0.0002646
1630	0.0003066
1642	0.0003948
1654	0.0005754
1666	0.000777
1678	0.0013104
1690	0.0023226
1702	0.0051366
1714	0.0121506
1726	0.0174552
1738	0.009219
1750	0.0031122
1762	0.001407
1774	0.0007602
1786	0.000441
1798	0.0002982
1810	0.0002436
1822	0.0001386
1834	0.0001176
1846	0.0001008
1858	9.24e-05
1870	6.72e-05
1882	5.88e-05
1894	3.36e-05
1906	2.1e-05
1918	2.94e-05
1930	2.1e-05
1942	1.26e-05
1954	2.1e-05
1966	2.52e-05
1978	2.1e-05
1990	0
2002	1.68e-05
2014	2.52e-05
2026	3.36e-05
2038	5.46e-05
2050	4.62e-05
2062	4.2e-05
2074	3.36e-05
2086	2.94e-05
2098	3.36e-05
2110	2.1e-05
2122	6.3e-05
2134	5.46e-05
2146	4.2e-05
2158	6.3e-05
2170	6.72e-05
2182	6.3e-05
2194	4.62e-05
2206	4.2e-05
2218	4.2e-05
2230	3.36e-05
2242	4.62e-05
2254	1.68e-05
2266	3.36e-05
2278	1.26e-05
2290	3.78e-05
2302	4.2e-05
2314	3.36e-05
2326	2.94e-05
2338	8.4e-05
2350	4.62e-05
2362	5.46e-05
2374	7.56e-05
2386	5.88e-05
2398	7.98e-05
2410	7.98e-05
2422	3.36e-05
2434	4.2e-05
2446	5.04e-05
2458	5.46e-05
2470	8.82e-05
2482	5.04e-05
2494	7.98e-05
2506	7.56e-05
2518	9.66e-05
2530	0.0001302
2542	0.0001344
2554	0.0001218
2566	0.0001932
2578	0.0001974
2590	0.0002016
2602	0.0002226
2614	0.0002436
2626	0.0002772
2638	0.0003276
2650	0.0003906
2662	0.0004494
2674	0.0004788
2686	0.0005334
2698	0.0004998
2710	0.000525
2722	0.000567
2734	0.0006804
2746	0.0007938
2758	0.0008274
2770	0.0008862
2782	0.0010794
2794	0.001428
2806	0.0018984
2818	0.00252
2830	0.0033894
2842	0.0053466
2854	0.010332
2866	0.0165354
2878	0.0174594
2890	0.0168756
2902	0.017703
2914	0.0239358
2926	0.0357756
2938	0.042
2950	0.034881
2962	0.0323064
2974	0.0257754
2986	0.0113736
2998	0.0057414
3010	0.0034944
3022	0.0024108
3034	0.001827
3046	0.0013986
3058	0.001134
3070	0.0009618
3082	0.0008358
3094	0.0007308
3106	0.0005964
3118	0.0005334
3130	0.0004956
3142	0.0004578
3154	0.0004242
3166	0.000378
3178	0.000357
3190	0.000336
3202	0.0002898
3214	0.0002436
3226	0.0001974
3238	0.000168
3250	0.0001638
3262	0.0001344
3274	9.66e-05
3286	0.0001512
3298	9.24e-05
3310	8.82e-05
3322	0.000105
3334	9.66e-05
3346	0.0001008
3358	0.0001092
3370	0.0001344
3382	0.0001344
3394	0.000168
3406	0.000231
3418	0.0003192
3430	0.0004158
3442	0.0003192
3454	0.0002226
3466	0.0001302
3478	8.82e-05
3490	7.14e-05
3502	7.98e-05
3514	8.4e-05
3526	5.04e-05
3538	4.62e-05
3550	0
3562	8.4e-05
3574	6.3e-05
3586	7.14e-05
3598	7.14e-05
3610	7.14e-05
3622	0.000168
3634	0.0001134
3646	0.0001302
3658	0.0001008
3670	0.0001596
3682	9.66e-05
3694	0.0001344
3706	0.0001218
3718	0.000189
3730	0.0001722
3742	0.0001218
3754	0.000189
3766	0.0001554
3778	0.0001722
3790	0.0001344
3802	0.0002352
3814	0.0001638
3826	0.0001806
3838	0.000168
