Infrared Spectrum: 3-Ethyl-4-heptanol
Formula: C 9 H 20 O
CAS: 19780-42-8
State: gas
Instrument: HP-GC/MS/IRD
Origin: NIST Mass Spectrometry Data Center
1/CM	ABSORBANCE
550	0.0004128
562	0.0001008
574	0.0001152
586	9.12e-05
598	0.0001104
610	7.2e-05
622	0.0001536
634	9.12e-05
646	0.000144
658	0.0001392
670	9.12e-05
682	2.88e-05
694	0.00012
706	0.0001296
718	0.0001632
730	0.0002784
742	0.0004992
754	0.000768
766	0.0010224
778	0.0013824
790	0.0012
802	0.000912
814	0.0008304
826	0.0012096
838	0.001728
850	0.0018624
862	0.0014448
874	0.0010656
886	0.001176
898	0.0014832
910	0.0018144
922	0.0016848
934	0.0015168
946	0.0013488
958	0.0014064
970	0.0022608
982	0.0044256
994	0.0072912
1006	0.0076464
1018	0.0053232
1030	0.0032496
1042	0.0026544
1054	0.0028176
1066	0.0030384
1078	0.0031344
1090	0.0034368
1102	0.0038064
1114	0.003912
1126	0.0038592
1138	0.0039216
1150	0.0034608
1162	0.0024672
1174	0.001872
1186	0.0019728
1198	0.0025296
1210	0.0029856
1222	0.0030432
1234	0.0029376
1246	0.0030048
1258	0.0031872
1270	0.0033024
1282	0.0030768
1294	0.0026736
1306	0.0023808
1318	0.0022176
1330	0.002184
1342	0.002424
1354	0.0026304
1366	0.003312
1378	0.0051024
1390	0.0053616
1402	0.0031488
1414	0.0020544
1426	0.0019344
1438	0.0025776
1450	0.0043824
1462	0.0068352
1474	0.0056784
1486	0.0026352
1498	0.001296
1510	0.000912
1522	0.0007152
1534	0.0005712
1546	0.0004896
1558	0.0004272
1570	0.00036
1582	0.0002928
1594	0.0002736
1606	0.00024
1618	0.0002304
1630	0.000216
1642	0.0001968
1654	0.000192
1666	0.0001536
1678	0.0001296
1690	9.12e-05
1702	0.0001008
1714	7.68e-05
1726	4.8e-05
1738	4.32e-05
1750	3.84e-05
1762	3.36e-05
1774	3.36e-05
1786	3.84e-05
1798	2.4e-05
1810	4.32e-05
1822	3.84e-05
1834	3.36e-05
1846	4.32e-05
1858	3.84e-05
1870	3.36e-05
1882	4.32e-05
1894	1.92e-05
1906	3.84e-05
1918	3.36e-05
1930	2.88e-05
1942	9.6e-06
1954	1.92e-05
1966	2.4e-05
1978	3.36e-05
1990	3.84e-05
2002	4.32e-05
2014	3.36e-05
2026	3.84e-05
2038	2.88e-05
2050	3.84e-05
2062	3.84e-05
2074	2.4e-05
2086	2.4e-05
2098	1.92e-05
2110	9.6e-06
2122	1.92e-05
2134	1.92e-05
2146	9.6e-06
2158	0
2170	4.8e-06
2182	1.92e-05
2194	2.88e-05
2206	1.92e-05
2218	2.88e-05
2230	3.36e-05
2242	4.32e-05
2254	9.6e-06
2266	2.88e-05
2278	3.36e-05
2290	5.28e-05
2302	6.72e-05
2314	6.72e-05
2326	9.12e-05
2338	8.64e-05
2350	0.0001152
2362	0.0001344
2374	0.0001632
2386	0.0001584
2398	0.0001392
2410	0.000144
2422	0.0001152
2434	0.0001152
2446	9.6e-05
2458	9.6e-05
2470	9.6e-05
2482	9.6e-05
2494	0.0001056
2506	0.0001152
2518	0.0001296
2530	0.0001248
2542	0.0001632
2554	0.000192
2566	0.0002544
2578	0.000336
2590	0.0003648
2602	0.0004368
2614	0.0004512
2626	0.0004416
2638	0.0004848
2650	0.0005184
2662	0.0006096
2674	0.0006528
2686	0.00072
2698	0.0007632
2710	0.0007968
2722	0.0009264
2734	0.0011328
2746	0.0012912
2758	0.0012384
2770	0.0012816
2782	0.00144
2794	0.0017136
2806	0.0020736
2818	0.0025824
2830	0.0034992
2842	0.0053376
2854	0.0086304
2866	0.0150672
2878	0.024816
2890	0.025632
2902	0.020232
2914	0.0226752
2926	0.0302832
2938	0.0379584
2950	0.0364848
2962	0.0442848
2974	0.0431808
2986	0.0187392
2998	0.0081792
3010	0.0048048
3022	0.0033744
3034	0.002568
3046	0.002088
3058	0.0017136
3070	0.0014544
3082	0.0012864
3094	0.0011568
3106	0.0010128
3118	0.0008784
3130	0.000744
3142	0.0006768
3154	0.0006336
3166	0.0005712
3178	0.000456
3190	0.00036
3202	0.0002736
3214	0.0002112
3226	0.0001824
3238	0.0001152
3250	8.64e-05
3262	8.16e-05
3274	6.72e-05
3286	3.36e-05
3298	2.88e-05
3310	2.88e-05
3322	3.84e-05
3334	2.88e-05
3346	7.68e-05
3358	1.92e-05
3370	2.4e-05
3382	4.8e-05
3394	5.28e-05
3406	0.00012
3418	8.16e-05
3430	8.64e-05
3442	9.6e-05
3454	0.00012
3466	0.0001056
3478	7.2e-05
3490	6.24e-05
3502	8.16e-05
3514	3.36e-05
3526	3.84e-05
3538	2.4e-05
3550	3.84e-05
3562	2.88e-05
3574	3.84e-05
3586	7.2e-05
3598	9.6e-05
3610	0.0001824
3622	0.0004512
3634	0.000912
3646	0.0018576
3658	0.0023952
3670	0.0014544
3682	0.000528
3694	0.0002688
3706	0.0002064
3718	0.0001152
3730	8.64e-05
3742	0.0001632
3754	9.6e-05
3766	8.16e-05
3778	0.0001056
3790	8.64e-05
3802	0.0001248
3814	0.0001488
3826	9.6e-05
3838	0.0001536
