Infrared Spectrum: ANILINE, 4-(N,N-DIETHYLAMINO)-2-(p-CYANOPHENYLSULFONYL)-
Formula: C17 H19 N3 O2 S
CAS: 19789-56-1
State: SOLID (SPLIT MULL), FLUOROLUBE FOR 4000-1340 CM^-^1, NUJOL FOR 1340-400 CM^-^1
Melting point: 118 C
Class: COBLENTZ III
Instrument: BECKMAN IR-12 (GRATING)
Instrument parameters: GRATING CHANGE: 300, 650, 2000 CM^-^1
Sampling: TRANSMISSION
Resolution: 2
Origin: EASTMAN KODAK COMPANY
1/CM	TRANSMITTANCE
401	0.7353
411	0.7481
421	0.772
431	0.823
441	0.8245
451	0.8798
461	0.9
471	0.935
481	0.9403
491	0.9205
501	0.7603
511	0.4186
521	0.7697
531	0.8615
541	0.8416
551	0.78
561	0.8552
571	0.7112
581	0.3065
591	0.2924
601	0.716
611	0.7662
621	0.7349
631	0.3818
641	0.1971
651	0.485
661	0.5096
671	0.5773
681	0.7834
691	0.7642
701	0.8107
711	0.6869
721	0.7359
731	0.8089
741	0.7982
751	0.5064
761	0.6205
771	0.7521
781	0.5693
791	0.6279
801	0.6527
811	0.4876
821	0.5813
831	0.6163
841	0.4852
851	0.635
861	0.883
871	0.9347
881	0.9533
891	0.9557
901	0.9527
911	0.941
921	0.8931
931	0.7386
941	0.8501
951	0.9163
961	0.9102
971	0.9032
981	0.8835
991	0.9105
1001	0.8945
1011	0.8089
1021	0.5739
1031	0.8312
1041	0.7859
1051	0.8228
1061	0.7884
1071	0.7022
1081	0.3714
1091	0.5418
1101	0.576
1111	0.6901
1121	0.6865
1131	0.5135
1141	0.0536
1151	0.1483
1161	0.382
1171	0.5716
1181	0.5951
1191	0.5283
1201	0.3623
1211	0.6799
1221	0.7804
1231	0.784
1241	0.7506
1251	0.6137
1261	0.4688
1271	0.3449
1281	0.247
1291	0.2537
1301	0.0571
1311	0.2613
1321	0.493
1331	0.6826
1341	0.6177
1351	0.6371
1361	0.4956
1371	0.503
1381	0.4775
1391	0.4768
1401	0.5025
1411	0.7143
1421	0.5508
1431	0.6861
1441	0.71
1451	0.682
1461	0.6733
1471	0.5751
1481	0.5156
1491	0.4244
1501	0.1574
1511	0.0445
1521	0.2914
1531	0.6862
1541	0.8087
1551	0.8264
1561	0.8394
1571	0.8298
1581	0.8536
1591	0.8246
1601	0.7295
1611	0.5117
1621	0.5096
1631	0.5951
1641	0.7738
1651	0.8281
1661	0.8504
1671	0.8405
1681	0.8512
1691	0.8683
1701	0.8795
1711	0.8842
1721	0.8852
1731	0.8816
1741	0.8765
1751	0.8763
1761	0.8759
1771	0.8716
1781	0.8664
1791	0.8582
1801	0.8477
1811	0.8503
1821	0.8514
1831	0.8525
1841	0.8513
1851	0.8476
1861	0.8426
1871	0.8339
1881	0.8405
1891	0.8437
1901	0.8412
1911	0.8376
1921	0.831
1931	0.8163
1941	0.7975
1951	0.8118
1961	0.8273
1971	0.8264
1981	0.8251
1991	0.8265
2001	0.8232
2011	0.8204
2021	0.8181
2031	0.8158
2041	0.8131
2051	0.8104
2061	0.8078
2071	0.8053
2081	0.8022
2091	0.7986
2101	0.7951
2111	0.7915
2121	0.788
2131	0.7841
2141	0.7801
2151	0.7762
2161	0.7723
2171	0.7676
2181	0.7577
2191	0.7521
2201	0.7558
2211	0.7504
2221	0.7373
2231	0.6799
2241	0.4768
2251	0.7344
2261	0.7336
2271	0.7299
2281	0.7251
2291	0.7198
2301	0.7147
2311	0.7119
2321	0.7128
2331	0.7086
2341	0.7081
2351	0.7095
2361	0.7091
2371	0.7042
2381	0.7016
2391	0.7074
2401	0.708
2411	0.706
2421	0.7034
2431	0.6999
2441	0.6977
2451	0.6992
2461	0.6996
2471	0.6987
2481	0.6968
2491	0.6942
2501	0.6917
2511	0.6889
2521	0.6861
2531	0.6838
2541	0.6814
2551	0.6788
2561	0.6762
2571	0.673
2581	0.6693
2591	0.6656
2601	0.664
2611	0.6632
2621	0.6603
2631	0.6567
2641	0.6529
2651	0.649
2661	0.6449
2671	0.6409
2681	0.6368
2691	0.6329
2701	0.6302
2711	0.6272
2721	0.6235
2731	0.6198
2741	0.6156
2751	0.6109
2761	0.6054
2771	0.5983
2781	0.5894
2791	0.5799
2801	0.5714
2811	0.5616
2821	0.5515
2831	0.5408
2841	0.529
2851	0.5157
2861	0.4981
2871	0.452
2881	0.4587
2891	0.466
2901	0.4603
2911	0.4668
2921	0.4688
2931	0.4227
2941	0.4133
2951	0.4526
2961	0.4259
2971	0.3273
2981	0.2602
2991	0.4458
3001	0.5151
3011	0.5498
3021	0.5531
3031	0.543
3041	0.5126
3051	0.5053
3061	0.5275
3071	0.505
3081	0.4946
3091	0.4383
3101	0.4705
3111	0.5179
3121	0.5258
3131	0.5258
3141	0.5249
3151	0.5229
3161	0.5198
3171	0.5154
3181	0.5095
3191	0.5021
3201	0.4931
3211	0.4828
3221	0.4751
3231	0.471
3241	0.471
3251	0.4741
3261	0.4775
3271	0.4768
3281	0.4732
3291	0.4662
3301	0.4565
3311	0.4431
3321	0.4251
3331	0.3987
3341	0.333
3351	0.2329
3361	0.2084
3371	0.2298
3381	0.3902
3391	0.4455
3401	0.4405
3411	0.4095
3421	0.3357
3431	0.2334
3441	0.2439
3451	0.3339
3461	0.3974
3471	0.435
3481	0.4527
3491	0.4578
3501	0.457
3511	0.4561
3521	0.4556
3531	0.4549
3541	0.4537
3551	0.4517
3561	0.4497
3571	0.4475
3581	0.4453
3591	0.4428
3601	0.4404
3611	0.4391
3621	0.4371
3631	0.4351
3641	0.4331
3651	0.4311
3661	0.4291
3671	0.4271
3681	0.425
3691	0.4229
3701	0.4209
3711	0.4194
3721	0.4174
3731	0.4153
3741	0.4132
3751	0.4112
3761	0.4093
3771	0.4074
3781	0.4055
3791	0.4035
3801	0.4006
3811	0.3977
3821	0.3949
3831	0.392
3841	0.3895
3851	0.3874
3861	0.3853
3871	0.3831
3881	0.381
3891	0.3785
3901	0.376
3911	0.3735
3921	0.3709
3931	0.3681
3941	0.3654
3951	0.3629
3961	0.3605
3971	0.3582
3981	0.3565
3991	0.3555
4001	0.3546
