Infrared Spectrum: 8-Hexadecyne
Formula: C 16 H 30
CAS: 19781-86-3
State: gas
Instrument: HP-GC/MS/IRD
Origin: NIST Mass Spectrometry Data Center
1/CM	ABSORBANCE
550	0.0002499
562	0.0001581
574	8.16e-05
586	9.18e-05
598	2.04e-05
610	4.08e-05
622	3.57e-05
634	6.63e-05
646	0.0001122
658	0.0001275
670	3.57e-05
682	9.69e-05
694	0.000255
706	0.0005151
718	0.0007191
730	0.0007548
742	0.0005661
754	0.0004947
766	0.0004539
778	0.0003723
790	0.0003264
802	0.0001785
814	0.0001938
826	0.0001581
838	0.000204
850	0.0001479
862	0.0001581
874	0.0001989
886	0.0002499
898	0.0002193
910	0.0001428
922	0.000153
934	0.0001836
946	0.000102
958	7.14e-05
970	0.0001173
982	0.0001938
994	0.0002448
1006	0.0003213
1018	0.0003519
1030	0.0002958
1042	0.0003111
1054	0.0002346
1066	0.000204
1078	0.0002499
1090	0.0002448
1102	0.0002958
1114	0.0003315
1126	0.0002856
1138	0.0002244
1150	0.0002193
1162	0.0002499
1174	0.0003111
1186	0.0003621
1198	0.0003774
1210	0.0004233
1222	0.0004335
1234	0.0004335
1246	0.0004641
1258	0.0006171
1270	0.000663
1282	0.0009078
1294	0.0011832
1306	0.0013719
1318	0.0018054
1330	0.0031518
1342	0.0026163
1354	0.0021981
1366	0.001632
1378	0.0014382
1390	0.0011883
1402	0.0008364
1414	0.0008568
1426	0.0013209
1438	0.0030651
1450	0.0037128
1462	0.004131
1474	0.0027591
1486	0.0012903
1498	0.0007293
1510	0.0004131
1522	0.0002703
1534	0.0002346
1546	0.0001836
1558	8.67e-05
1570	0.0001836
1582	0.0001938
1594	0.0001836
1606	0.0001785
1618	0.0001173
1630	0.0001326
1642	0.000102
1654	1.02e-05
1666	0.000102
1678	9.18e-05
1690	8.16e-05
1702	0
1714	5.1e-05
1726	0.0001071
1738	3.57e-05
1750	4.59e-05
1762	7.14e-05
1774	4.08e-05
1786	8.16e-05
1798	6.12e-05
1810	6.12e-05
1822	6.63e-05
1834	6.12e-05
1846	4.08e-05
1858	5.1e-05
1870	4.08e-05
1882	3.57e-05
1894	3.57e-05
1906	3.57e-05
1918	0
1930	3.06e-05
1942	3.06e-05
1954	2.55e-05
1966	1.02e-05
1978	4.08e-05
1990	2.55e-05
2002	1.02e-05
2014	6.12e-05
2026	7.65e-05
2038	6.12e-05
2050	6.12e-05
2062	7.14e-05
2074	5.61e-05
2086	3.06e-05
2098	3.57e-05
2110	2.04e-05
2122	1.53e-05
2134	2.04e-05
2146	2.55e-05
2158	3.57e-05
2170	3.06e-05
2182	3.06e-05
2194	3.06e-05
2206	2.55e-05
2218	2.04e-05
2230	2.04e-05
2242	5.1e-06
2254	5.61e-05
2266	1.02e-05
2278	2.55e-05
2290	2.04e-05
2302	3.57e-05
2314	4.08e-05
2326	3.06e-05
2338	2.55e-05
2350	4.59e-05
2362	5.61e-05
2374	6.12e-05
2386	6.12e-05
2398	6.12e-05
2410	6.63e-05
2422	7.14e-05
2434	5.61e-05
2446	8.67e-05
2458	3.06e-05
2470	4.59e-05
2482	6.63e-05
2494	9.69e-05
2506	7.65e-05
2518	9.69e-05
2530	0.0001275
2542	0.0001377
2554	0.0001836
2566	0.0002091
2578	0.0002193
2590	0.0002295
2602	0.0002601
2614	0.0002958
2626	0.0003162
2638	0.0003723
2650	0.0004692
2662	0.0005151
2674	0.0005304
2686	0.0005559
2698	0.0005304
2710	0.0004743
2722	0.0005202
2734	0.0006069
2746	0.0006579
2758	0.000714
2770	0.0007956
2782	0.0009639
2794	0.0011781
2806	0.001581
2818	0.0021318
2830	0.0031314
2842	0.0057936
2854	0.0124542
2866	0.0184365
2878	0.0151878
2890	0.0128928
2902	0.0151521
2914	0.0241944
2926	0.0402033
2938	0.051
2950	0.032283
2962	0.0227052
2974	0.0166566
2986	0.0072471
2998	0.0039474
3010	0.0025347
3022	0.001836
3034	0.0014229
3046	0.0011424
3058	0.0009741
3070	0.000816
3082	0.0006987
3094	0.0006324
3106	0.0005304
3118	0.0004896
3130	0.0004437
3142	0.0004233
3154	0.0004131
3166	0.0003876
3178	0.0003825
3190	0.0002601
3202	0.0002652
3214	0.0002499
3226	0.0002295
3238	0.0001989
3250	0.0001938
3262	0.0001428
3274	0.0001887
3286	0.0001734
3298	0.0001836
3310	0.0001326
3322	0.0001479
3334	0.0001785
3346	0.0001173
3358	0.0001326
3370	0.000153
3382	0.0001377
3394	0.0001173
3406	8.67e-05
3418	0.0001428
3430	0.0001071
3442	0.0001122
3454	8.16e-05
3466	8.67e-05
3478	8.16e-05
3490	9.69e-05
3502	7.65e-05
3514	6.63e-05
3526	0
3538	6.63e-05
3550	3.57e-05
3562	7.65e-05
3574	5.1e-05
3586	2.04e-05
3598	0.0001173
3610	7.14e-05
3622	8.16e-05
3634	0.0001071
3646	6.12e-05
3658	0.0001173
3670	8.16e-05
3682	0.000102
3694	0.0001173
3706	0.0001224
3718	7.65e-05
3730	9.69e-05
3742	5.61e-05
3754	8.16e-05
3766	0.0001581
3778	0.0001326
3790	0.0001275
3802	9.69e-05
3814	9.69e-05
3826	0.0001377
3838	9.69e-05
