Infrared Spectrum: 11-Heneicosanone
Formula: C21 H42 O
CAS: 19781-72-7
State: SOLUTION (10% CCl4 FOR 3800-1330, 10% CS2 FOR 1330-400 CM^-^1) VS SOLVENT
Class: COBLENTZ II
Instrument: DOW KBr FOREPRISM-GRATING
Instrument parameters: BLAZED AT 3.5, 12.0, 20.0 MICRON AND CHANGED AT 5.0, 7.5, 14.9 MICRON
Sampling: TRANSMISSION
Path length: 0.011 CM, 0.011 CM
Resolution: 2
Origin: DOW CHEMICAL COMPANY
1/CM	TRANSMITTANCE
3814	0.8665
3805	0.8657
3796	0.8648
3787	0.8639
3778	0.8643
3769	0.8671
3760	0.8718
3751	0.872
3742	0.8701
3733	0.8681
3724	0.8663
3715	0.8647
3706	0.8635
3697	0.863
3688	0.8682
3679	0.8685
3670	0.8657
3661	0.8683
3652	0.8621
3643	0.8625
3634	0.8623
3625	0.8625
3616	0.8632
3607	0.8638
3598	0.8645
3589	0.8653
3580	0.866
3571	0.8667
3562	0.8675
3553	0.8682
3544	0.8689
3535	0.8696
3526	0.8705
3517	0.8716
3508	0.8725
3499	0.8738
3490	0.8754
3481	0.8768
3472	0.8777
3463	0.8784
3454	0.8787
3445	0.877
3436	0.869
3427	0.8621
3418	0.862
3409	0.8649
3400	0.8667
3391	0.8684
3382	0.8698
3373	0.8706
3364	0.8714
3355	0.8721
3346	0.873
3337	0.8736
3328	0.8743
3319	0.8749
3310	0.8754
3301	0.8755
3292	0.8756
3283	0.8757
3274	0.8758
3265	0.8752
3256	0.8746
3247	0.8736
3238	0.8718
3229	0.8694
3220	0.8671
3211	0.8649
3202	0.8633
3193	0.862
3184	0.861
3175	0.8603
3166	0.8597
3157	0.859
3148	0.8586
3139	0.8581
3130	0.8568
3121	0.8553
3112	0.852
3103	0.847
3094	0.8418
3085	0.8362
3076	0.8292
3067	0.8218
3058	0.811
3049	0.7969
3040	0.7805
3031	0.7636
3022	0.7375
3013	0.6932
3004	0.6189
2995	0.4954
2986	0.3099
2977	0.088
2968	0.0432
2959	0.0438
2950	0.0133
2941	0.0049
2932	0.0041
2923	0.0179
2914	0.0761
2905	0.1483
2896	0.2045
2887	0.1582
2878	0.1077
2869	0.0233
2860	0.0249
2851	0.2371
2842	0.5375
2833	0.5957
2824	0.648
2815	0.6943
2806	0.7288
2797	0.7531
2788	0.7721
2779	0.7919
2770	0.8049
2761	0.8107
2752	0.8115
2743	0.8082
2734	0.8043
2725	0.8068
2716	0.8125
2707	0.8161
2698	0.8149
2689	0.8091
2680	0.8061
2671	0.8075
2662	0.8112
2653	0.816
2644	0.8206
2635	0.8244
2626	0.8283
2617	0.8315
2608	0.8341
2599	0.8368
2590	0.8394
2581	0.842
2572	0.8445
2563	0.8466
2554	0.8486
2545	0.8506
2536	0.8524
2527	0.8538
2518	0.8553
2509	0.8567
2500	0.8582
2491	0.8588
2482	0.8595
2473	0.86
2464	0.8607
2455	0.8608
2446	0.8606
2437	0.8597
2428	0.859
2419	0.8583
2410	0.8584
2401	0.8588
2392	0.8596
2383	0.8603
2374	0.8611
2365	0.8617
2356	0.8631
2347	0.8671
2338	0.8709
2329	0.8685
2320	0.8682
2311	0.8687
2302	0.8692
2293	0.8696
2284	0.8675
2275	0.8666
2266	0.8658
2257	0.8649
2248	0.864
2239	0.8631
2230	0.8621
2221	0.8612
2212	0.8608
2203	0.8605
2194	0.8603
2185	0.86
2176	0.8602
2167	0.8605
2158	0.8609
2149	0.8611
2140	0.8615
2131	0.8616
2122	0.8618
2113	0.862
2104	0.8616
2095	0.8611
2086	0.8606
2077	0.8603
2068	0.86
2059	0.8599
2050	0.8601
2041	0.86
2032	0.8603
2023	0.8607
2014	0.8609
2005	0.8597
1996	0.8554
1987	0.8586
1978	0.8594
1969	0.8601
1960	0.8609
1951	0.8588
1942	0.8599
1933	0.8602
1924	0.8613
1915	0.8607
1906	0.861
1897	0.8608
1888	0.8613
1879	0.8625
1870	0.8632
1861	0.8636
1852	0.8636
1843	0.8633
1834	0.8628
1825	0.862
1816	0.8613
1807	0.8605
1798	0.8594
1789	0.8567
1780	0.8524
1771	0.8488
1762	0.8448
1753	0.8377
1744	0.8264
1735	0.778
1726	0.6442
1717	0.1271
1708	0.1684
1699	0.4492
1690	0.7069
1681	0.7758
1672	0.7904
1663	0.8078
1654	0.821
1645	0.8261
1636	0.8196
1627	0.8331
1618	0.8375
1609	0.84
1600	0.8436
1591	0.8496
1582	0.8594
1573	0.862
1564	0.8665
1555	0.8718
1546	0.8789
1537	0.8794
1528	0.8657
1519	0.8509
1510	0.838
1501	0.8241
1492	0.8058
1483	0.7801
1474	0.6808
1465	0.2463
1456	0.3042
1447	0.4903
1438	0.5732
1429	0.6567
1420	0.6831
1411	0.5629
1402	0.638
1393	0.7147
1384	0.6704
1375	0.4731
1366	0.5059
1357	0.537
1348	0.5995
1339	0.6511
1330	0.6885
1321	0.7099
1312	0.716
1303	0.6971
1294	0.6938
1285	0.708
1276	0.729
1267	0.7407
1258	0.74
1249	0.7512
1240	0.7606
1231	0.7701
1222	0.7797
1213	0.7854
1204	0.7844
1195	0.7837
1186	0.776
1177	0.7736
1168	0.7725
1159	0.7745
1150	0.7806
1141	0.7748
1132	0.7089
1123	0.7239
1114	0.774
1105	0.7875
1096	0.7845
1087	0.7531
1078	0.7394
1069	0.7468
1060	0.7639
1051	0.7755
1042	0.776
1033	0.7761
1024	0.7807
1015	0.79
1006	0.7981
997	0.8051
988	0.8083
979	0.809
970	0.8082
961	0.7889
952	0.8151
943	0.8324
934	0.838
925	0.8388
916	0.8389
907	0.8378
898	0.8364
889	0.8144
880	0.8187
871	0.8362
862	0.8454
853	0.854
844	0.8578
835	0.848
826	0.8445
817	0.8433
808	0.8431
799	0.8425
790	0.8396
781	0.8313
772	0.8253
763	0.8196
754	0.8085
745	0.7854
736	0.7553
727	0.6874
718	0.6641
709	0.768
700	0.8021
691	0.826
682	0.8357
673	0.8393
664	0.8388
655	0.8387
646	0.835
637	0.835
628	0.8345
619	0.836
610	0.8401
601	0.8434
592	0.8448
583	0.8481
574	0.8502
565	0.8518
556	0.8521
547	0.8531
538	0.8487
529	0.8468
520	0.847
511	0.8471
502	0.8477
493	0.8478
484	0.8471
475	0.8454
466	0.8413
457	0.8351
448	0.8277
439	0.8218
430	0.8165
421	0.8124
412	0.8101
403	0.8092
394	0.8098
