Infrared Spectrum: cis-1,3-Dimethyl-2-methylenecyclohexane
Formula: C 9 H 16
CAS: 19781-47-6
State: gas
Instrument: HP-GC/MS/IRD
Origin: NIST Mass Spectrometry Data Center
1/CM	ABSORBANCE
550	0.000114
562	7.6e-05
574	0.0002242
586	3.04e-05
598	8.36e-05
610	0.0004104
622	0.0007828
634	0.00076
646	0.0003572
658	0.0001938
670	0.0001292
682	8.74e-05
694	0.000133
706	0.000133
718	0.000209
730	0.0002888
742	0.0003382
754	0.0002508
766	0.0001292
778	9.88e-05
790	0.0001064
802	0.0002128
814	0.000285
826	0.0004104
838	0.0003572
850	0.0004028
862	0.0005206
874	0.0018354
886	0.004883
898	0.005985
910	0.0027018
922	0.0006612
934	0.0007904
946	0.0010716
958	0.000836
970	0.00057
982	0.000589
994	0.0004788
1006	0.0003458
1018	0.0002204
1030	0.0002356
1042	0.000418
1054	0.0005434
1066	0.000399
1078	0.0002698
1090	0.0004332
1102	0.0007448
1114	0.000589
1126	0.0002736
1138	0.0002432
1150	0.0002622
1162	0.0003078
1174	0.0004978
1186	0.000665
1198	0.0004142
1210	0.0003154
1222	0.0004978
1234	0.0007486
1246	0.0006916
1258	0.000494
1270	0.0003078
1282	0.000266
1294	0.0003268
1306	0.0003648
1318	0.0004674
1330	0.000589
1342	0.0005966
1354	0.0007334
1366	0.0013718
1378	0.0023218
1390	0.0022306
1402	0.0015542
1414	0.0012502
1426	0.001539
1438	0.0026904
1450	0.0042142
1462	0.0048184
1474	0.002831
1486	0.0010754
1498	0.0004712
1510	0.0003268
1522	0.0002622
1534	0.0002318
1546	0.000209
1558	0.0001786
1570	0.00019
1582	0.0002204
1594	0.0003382
1606	0.0006156
1618	0.0012806
1630	0.0024814
1642	0.0032262
1654	0.002204
1666	0.0006498
1678	0.0002432
1690	0.0001786
1702	0.0001672
1714	0.0001976
1726	0.0002052
1738	0.0002128
1750	0.000209
1762	0.0001672
1774	0.0002432
1786	0.0004256
1798	0.000437
1810	0.0002584
1822	0.0001406
1834	6.84e-05
1846	4.94e-05
1858	5.32e-05
1870	3.8e-05
1882	4.94e-05
1894	3.8e-05
1906	4.18e-05
1918	5.7e-05
1930	3.42e-05
1942	4.18e-05
1954	3.42e-05
1966	1.9e-05
1978	1.14e-05
1990	3.8e-06
2002	2.28e-05
2014	2.66e-05
2026	3.42e-05
2038	1.9e-05
2050	3.8e-05
2062	3.42e-05
2074	7.6e-06
2086	1.14e-05
2098	1.52e-05
2110	4.56e-05
2122	3.04e-05
2134	2.66e-05
2146	7.6e-06
2158	2.66e-05
2170	4.94e-05
2182	2.66e-05
2194	2.66e-05
2206	3.04e-05
2218	7.6e-06
2230	2.66e-05
2242	1.52e-05
2254	3.42e-05
2266	8.36e-05
2278	8.36e-05
2290	3.42e-05
2302	6.84e-05
2314	6.46e-05
2326	6.08e-05
2338	5.32e-05
2350	5.32e-05
2362	3.42e-05
2374	7.98e-05
2386	8.74e-05
2398	0.0001254
2410	0.0001102
2422	8.36e-05
2434	0.0001026
2446	7.6e-05
2458	6.46e-05
2470	0.0001064
2482	9.5e-05
2494	0.0001102
2506	0.0001178
2518	0.0001178
2530	0.000114
2542	0.0001368
2554	0.0001824
2566	0.0002356
2578	0.0002584
2590	0.0002736
2602	0.0002698
2614	0.0002736
2626	0.0002622
2638	0.0002888
2650	0.0002964
2662	0.0004332
2674	0.000494
2686	0.0004446
2698	0.00038
2710	0.0003762
2722	0.0004484
2734	0.0004522
2746	0.0003724
2758	0.000399
2770	0.0005168
2782	0.0006574
2794	0.000779
2806	0.000855
2818	0.0011324
2830	0.0018202
2842	0.004769
2854	0.0120878
2866	0.0155838
2878	0.011951
2890	0.009576
2902	0.0101118
2914	0.0198246
2926	0.0352488
2938	0.031369
2950	0.019779
2962	0.0184832
2974	0.0179512
2986	0.0080864
2998	0.0028652
3010	0.0018088
3022	0.0014554
3034	0.001083
3046	0.0009956
3058	0.001064
3070	0.0012008
3082	0.001349
3094	0.0024016
3106	0.002223
3118	0.0007258
3130	0.0002622
3142	0.0001824
3154	0.0001824
3166	0.0002204
3178	0.0002242
3190	0.0002128
3202	0.0002508
3214	0.0002736
3226	0.000304
3238	0.000285
3250	0.0001406
3262	0.000114
3274	0.0001254
3286	4.18e-05
3298	6.84e-05
3310	6.46e-05
3322	4.94e-05
3334	0.0001102
3346	6.08e-05
3358	4.56e-05
3370	7.6e-05
3382	1.14e-05
3394	3.04e-05
3406	6.08e-05
3418	2.28e-05
3430	3.8e-05
3442	7.6e-05
3454	8.36e-05
3466	4.56e-05
3478	9.5e-05
3490	7.98e-05
3502	3.04e-05
3514	6.84e-05
3526	4.18e-05
3538	7.6e-05
3550	5.32e-05
3562	4.56e-05
3574	5.32e-05
3586	4.94e-05
3598	6.08e-05
3610	1.52e-05
3622	2.66e-05
3634	6.08e-05
3646	6.46e-05
3658	4.94e-05
3670	7.6e-06
3682	3.42e-05
3694	1.9e-05
3706	7.98e-05
3718	0.0001026
3730	3.42e-05
3742	5.32e-05
3754	0.0001026
3766	0.0001368
3778	6.84e-05
3790	7.98e-05
3802	0.0001292
3814	0.0001482
3826	0.0001254
3838	0.000114
