Infrared Spectrum: 6-Hepten-3-ol
Formula: C 7 H 14 O
CAS: 19781-77-2
State: gas
Instrument: HP-GC/MS/IRD
Origin: NIST Mass Spectrometry Data Center
1/CM	ABSORBANCE
550	0.0005454
562	0.0002835
574	0.0003159
586	0.0003105
598	0.0004077
610	0.0004806
622	0.000945
634	0.0012366
646	0.0011124
658	0.0006696
670	0.0003969
682	0.0002781
694	0.0001566
706	9.99e-05
718	2.7e-05
730	2.16e-05
742	3.78e-05
754	0.0001701
766	0.0003483
778	0.0004698
790	0.0003915
802	0.0002943
814	0.0003267
826	0.0004644
838	0.0007695
850	0.0012015
862	0.0015741
874	0.0018954
886	0.0027351
898	0.0052164
910	0.0095391
922	0.0104652
934	0.0074925
946	0.0057888
958	0.006129
970	0.0076059
982	0.0084969
994	0.008505
1006	0.007398
1018	0.0061803
1030	0.0055755
1042	0.0049599
1054	0.0044658
1066	0.0042984
1078	0.0044172
1090	0.0048303
1102	0.0055782
1114	0.0059535
1126	0.0054567
1138	0.0042066
1150	0.00297
1162	0.0022761
1174	0.0021924
1186	0.0024489
1198	0.0028593
1210	0.0032211
1222	0.0035505
1234	0.0036936
1246	0.0035478
1258	0.0031968
1270	0.0029214
1282	0.002754
1294	0.0027216
1306	0.0025758
1318	0.0022761
1330	0.0021384
1342	0.0023571
1354	0.0030186
1366	0.0039393
1378	0.0044604
1390	0.004293
1402	0.0033426
1414	0.0026298
1426	0.0026325
1438	0.0036234
1450	0.0046116
1462	0.0042444
1474	0.0028836
1486	0.0014742
1498	0.0007749
1510	0.0005427
1522	0.0004212
1534	0.0003483
1546	0.0003402
1558	0.0003375
1570	0.0002808
1582	0.0003024
1594	0.0003159
1606	0.0005346
1618	0.0010773
1630	0.0025353
1642	0.003483
1654	0.0017793
1666	0.0004887
1678	0.0002349
1690	0.0001593
1702	0.0001026
1714	7.02e-05
1726	4.05e-05
1738	4.32e-05
1750	8.1e-06
1762	2.7e-06
1774	1.89e-05
1786	2.43e-05
1798	7.83e-05
1810	0.0002565
1822	0.000621
1834	0.0007182
1846	0.0004023
1858	0.0001377
1870	6.75e-05
1882	5.67e-05
1894	3.51e-05
1906	4.59e-05
1918	2.16e-05
1930	2.43e-05
1942	2.16e-05
1954	5.13e-05
1966	7.83e-05
1978	9.45e-05
1990	7.02e-05
2002	1.89e-05
2014	1.62e-05
2026	2.43e-05
2038	3.24e-05
2050	1.35e-05
2062	2.16e-05
2074	3.51e-05
2086	1.89e-05
2098	1.89e-05
2110	1.62e-05
2122	2.16e-05
2134	5.4e-06
2146	3.51e-05
2158	2.16e-05
2170	2.7e-05
2182	1.62e-05
2194	1.89e-05
2206	2.7e-06
2218	4.86e-05
2230	2.16e-05
2242	2.43e-05
2254	3.51e-05
2266	2.97e-05
2278	5.67e-05
2290	7.02e-05
2302	5.4e-05
2314	8.91e-05
2326	0.0001026
2338	8.37e-05
2350	9.18e-05
2362	0.000135
2374	0.000108
2386	8.64e-05
2398	8.37e-05
2410	0.0001026
2422	0.0001107
2434	0.0001107
2446	9.72e-05
2458	7.02e-05
2470	7.02e-05
2482	8.1e-05
2494	5.94e-05
2506	9.18e-05
2518	0.0001134
2530	0.0001134
2542	0.0001296
2554	0.0001755
2566	0.0002025
2578	0.000216
2590	0.00027
2602	0.00027
2614	0.0002889
2626	0.0003375
2638	0.0003699
2650	0.0003996
2662	0.0004536
2674	0.0004779
2686	0.0005265
2698	0.0005454
2710	0.000594
2722	0.0006021
2734	0.0006831
2746	0.0007776
2758	0.0008505
2770	0.0009207
2782	0.0010044
2794	0.0011556
2806	0.0013905
2818	0.0018738
2830	0.0029025
2842	0.0049842
2854	0.0079596
2866	0.0105084
2878	0.0119853
2890	0.0121068
2902	0.012312
2914	0.0164295
2926	0.0233631
2938	0.027
2950	0.0224991
2962	0.0185382
2974	0.0189513
2986	0.0135783
2998	0.0078624
3010	0.0052407
3022	0.0033372
3034	0.0023814
3046	0.0021735
3058	0.0025299
3070	0.0035937
3082	0.0055215
3094	0.0046089
3106	0.0018225
3118	0.0009963
3130	0.0007047
3142	0.0005643
3154	0.0004509
3166	0.0003699
3178	0.000297
3190	0.0002403
3202	0.0002025
3214	0.0001404
3226	0.0001215
3238	9.72e-05
3250	0.000108
3262	8.64e-05
3274	7.83e-05
3286	3.78e-05
3298	5.4e-05
3310	5.4e-05
3322	3.78e-05
3334	3.78e-05
3346	1.08e-05
3358	5.67e-05
3370	6.75e-05
3382	7.56e-05
3394	8.1e-05
3406	9.18e-05
3418	9.45e-05
3430	0.0001107
3442	0.0001404
3454	0.0001431
3466	0.0001026
3478	4.59e-05
3490	5.67e-05
3502	5.94e-05
3514	4.59e-05
3526	7.83e-05
3538	5.67e-05
3550	7.56e-05
3562	9.99e-05
3574	5.94e-05
3586	0.0001377
3598	0.000243
3610	0.0005481
3622	0.0011232
3634	0.0017685
3646	0.0025164
3658	0.0026784
3670	0.0016227
3682	0.0006615
3694	0.0003078
3706	0.0001431
3718	0.0001134
3730	0.0001134
3742	4.59e-05
3754	8.37e-05
3766	5.13e-05
3778	3.51e-05
3790	3.51e-05
3802	5.94e-05
3814	7.83e-05
3826	9.99e-05
3838	0.000108
