Infrared Spectrum: 3-Isoxazolecarboxylic acid, 5-methyl-, methyl ester
Formula: C6 H7 N O3
CAS: 19788-35-3
State: SOLUTION 7% (CHCl3 FOR 2.5-12.6 microns)
Class: COBLENTZ
Instrument: PERKIN-ELMER 21 (GRATING)
Instrument parameters: FILTER AT ABOUT 10 MICRONS
Path length: 0.01 CM
Resolution: 2
Origin: ABBOTT LABORATORIES
1/CM	TRANSMITTANCE
791	0.7705
800	0.4935
809	0.2905
818	0.6434
827	0.8332
836	0.8673
845	0.9029
854	0.8629
863	0.8559
872	0.8542
881	0.8491
890	0.8356
899	0.7989
908	0.6839
917	0.4674
926	0.6518
935	0.6493
944	0.7322
953	0.8083
962	0.8088
971	0.7885
980	0.7665
989	0.7425
998	0.2735
1007	0.3435
1016	0.5589
1025	0.7818
1034	0.7832
1043	0.825
1052	0.8313
1061	0.8322
1070	0.8238
1079	0.7879
1088	0.6029
1097	0.3979
1106	0.6586
1115	0.8117
1124	0.7956
1133	0.7947
1142	0.805
1151	0.7932
1160	0.7567
1169	0.5695
1178	0.3589
1187	0.4791
1196	0.4786
1205	0.4753
1214	0.4615
1223	0.455
1232	0.5926
1241	0.6385
1250	0.5177
1259	0.2108
1268	0.0413
1277	0.2808
1286	0.5895
1295	0.6819
1304	0.7095
1313	0.7764
1322	0.7959
1331	0.7946
1340	0.796
1349	0.797
1358	0.7951
1367	0.7795
1376	0.7627
1385	0.7343
1394	0.5629
1403	0.4399
1412	0.6076
1421	0.5502
1430	0.339
1439	0.2875
1448	0.1992
1457	0.1547
1466	0.238
1475	0.5531
1484	0.7059
1493	0.7858
1502	0.8156
1511	0.8745
1520	0.8843
1529	0.8679
1538	0.851
1547	0.8255
1556	0.7974
1565	0.7902
1574	0.7473
1583	0.5763
1592	0.2982
1601	0.584
1610	0.82
1619	0.8396
1628	0.8448
1637	0.8474
1646	0.8592
1655	0.8591
1664	0.8522
1673	0.8257
1682	0.7841
1691	0.7434
1700	0.6888
1709	0.471
1718	0.2137
1727	0.0358
1736	0.0378
1745	0.1866
1754	0.5444
1763	0.6751
1772	0.7512
1781	0.8035
1790	0.8252
1799	0.8381
1808	0.8419
1817	0.8476
1826	0.8544
1835	0.8619
1844	0.8733
1853	0.8807
1862	0.8816
1871	0.8841
1880	0.889
1889	0.8969
1898	0.8994
1907	0.8974
1916	0.8934
1925	0.8919
1934	0.8922
1943	0.8957
1952	0.8982
1961	0.8985
1970	0.8986
1979	0.897
1988	0.8947
1997	0.8934
2006	0.8921
2015	0.8923
2024	0.8935
2033	0.8971
2042	0.9007
2051	0.9019
2060	0.9021
2069	0.9025
2078	0.903
2087	0.9045
2096	0.9064
2105	0.9075
2114	0.907
2123	0.9057
2132	0.9044
2141	0.9055
2150	0.9073
2159	0.9076
2168	0.9057
2177	0.903
2186	0.9018
2195	0.9024
2204	0.9057
2213	0.9091
2222	0.9103
2231	0.9091
2240	0.9067
2249	0.9054
2258	0.9078
2267	0.9071
2276	0.9066
2285	0.9067
2294	0.9082
2303	0.9107
2312	0.9102
2321	0.91
2330	0.9112
2339	0.9143
2348	0.9195
2357	0.9283
2366	0.9239
2375	0.9028
2384	0.8861
2393	0.8818
2402	0.8796
2411	0.8789
2420	0.8786
2429	0.8784
2438	0.8783
2447	0.8788
2456	0.8796
2465	0.8832
2474	0.8886
2483	0.8949
2492	0.9003
2501	0.9042
2510	0.9062
2519	0.9067
2528	0.9063
2537	0.9053
2546	0.9046
2555	0.904
2564	0.904
2573	0.9056
2582	0.9068
2591	0.9069
2600	0.903
2609	0.8997
2618	0.8976
2627	0.8985
2636	0.9016
2645	0.9024
2654	0.9009
2663	0.8988
2672	0.8969
2681	0.8958
2690	0.8949
2699	0.8951
2708	0.8953
2717	0.8955
2726	0.8955
2735	0.8953
2744	0.8944
2753	0.8913
2762	0.8863
2771	0.8816
2780	0.8772
2789	0.8735
2798	0.872
2807	0.8712
2816	0.8706
2825	0.87
2834	0.8695
2843	0.8687
2852	0.8677
2861	0.8665
2870	0.8493
2879	0.8279
2888	0.8066
2897	0.7855
2906	0.7645
2915	0.7445
2924	0.7409
2933	0.745
2942	0.7408
2951	0.719
2960	0.706
2969	0.7055
2978	0.7203
2987	0.7411
2996	0.7563
3005	0.7832
3014	0.81
3023	0.8362
3032	0.8475
3041	0.8522
3050	0.853
3059	0.8526
3068	0.8483
3077	0.8407
3086	0.8332
3095	0.8244
3104	0.8215
3113	0.8296
3122	0.8505
3131	0.8712
3140	0.8888
3149	0.8935
3158	0.8967
3167	0.9014
3176	0.9061
3185	0.91
3194	0.9125
3203	0.9138
3212	0.9152
3221	0.9158
3230	0.9164
3239	0.9169
3248	0.917
3257	0.9168
3266	0.9166
3275	0.9164
3284	0.9162
3293	0.916
3302	0.9154
3311	0.9149
3320	0.9143
3329	0.9136
3338	0.9131
3347	0.9118
3356	0.9105
3365	0.9091
3374	0.9077
3383	0.9064
3392	0.9054
3401	0.9044
3410	0.9034
3419	0.9035
3428	0.9044
3437	0.9054
3446	0.9062
3455	0.9063
3464	0.9064
3473	0.9065
3482	0.9066
3491	0.9065
3500	0.9064
3509	0.9064
3518	0.9063
3527	0.9062
3536	0.9063
3545	0.9066
3554	0.9069
3563	0.9071
3572	0.9074
3581	0.9076
3590	0.9079
3599	0.9081
3608	0.9084
3617	0.9084
3626	0.9085
3635	0.9087
3644	0.9087
3653	0.9088
3662	0.9089
3671	0.9088
3680	0.9082
3689	0.9076
3698	0.9071
3707	0.9065
3716	0.906
3725	0.9054
3734	0.9055
3743	0.9057
3752	0.9058
3761	0.906
3770	0.9063
3779	0.9067
3788	0.9072
3797	0.9076
3806	0.908
3815	0.9082
3824	0.9081
3833	0.9081
3842	0.908
3851	0.908
3860	0.9079
3869	0.9079
3878	0.9078
3887	0.9078
3896	0.9078
3905	0.9078
3914	0.9078
3923	0.9079
3932	0.9081
3941	0.9082
3950	0.9084
3959	0.9085
3968	0.9086
3977	0.9089
3986	0.909
3995	0.9092
