Infrared Spectrum: 2,4-Dimethyl-1-penten-3-ol
Formula: C 7 H 14 O
CAS: 19781-54-5
State: gas
Instrument: HP-GC/MS/IRD
Origin: NIST Mass Spectrometry Data Center
1/CM	ABSORBANCE
550	0.0003495
562	9.15e-05
574	0.0002835
586	0.0002175
598	0.0002295
610	0.000309
622	0.000231
634	0.0003045
646	0.000105
658	9.15e-05
670	5.1e-05
682	9e-05
694	4.8e-05
706	9.6e-05
718	0.0001845
730	7.35e-05
742	0.000159
754	9.6e-05
766	0.000129
778	0.0001995
790	0.000285
802	0.0004905
814	0.000552
826	0.000579
838	0.000561
850	0.000783
862	0.0008565
874	0.001101
886	0.0027165
898	0.005379
910	0.004893
922	0.002355
934	0.001368
946	0.0013035
958	0.00171
970	0.002865
982	0.004098
994	0.004917
1006	0.0062115
1018	0.0080025
1030	0.007209
1042	0.0043935
1054	0.0023415
1066	0.0013905
1078	0.0011415
1090	0.0012465
1102	0.001395
1114	0.0016035
1126	0.0016935
1138	0.001536
1150	0.001353
1162	0.0015435
1174	0.0015885
1186	0.001446
1198	0.0014805
1210	0.001725
1222	0.002052
1234	0.0022635
1246	0.002097
1258	0.0018375
1270	0.001662
1282	0.001893
1294	0.0018255
1306	0.0015315
1318	0.0012765
1330	0.0011955
1342	0.001326
1354	0.0018585
1366	0.002898
1378	0.0037725
1390	0.003495
1402	0.002301
1414	0.0015105
1426	0.0015645
1438	0.0020775
1450	0.0029145
1462	0.003336
1474	0.002817
1486	0.001608
1498	0.0007635
1510	0.0005235
1522	0.000405
1534	0.000378
1546	0.000321
1558	0.000285
1570	0.0003045
1582	0.0003135
1594	0.000354
1606	0.000426
1618	0.0005415
1630	0.0009195
1642	0.001428
1654	0.001266
1666	0.000606
1678	0.0002145
1690	0.000144
1702	9.6e-05
1714	7.8e-05
1726	5.1e-05
1738	2.4e-05
1750	5.4e-05
1762	4.35e-05
1774	5.4e-05
1786	0.000159
1798	0.0003315
1810	0.00039
1822	0.000255
1834	0.000111
1846	5.25e-05
1858	3.6e-05
1870	1.65e-05
1882	1.35e-05
1894	2.55e-05
1906	2.25e-05
1918	1.2e-05
1930	3.45e-05
1942	2.7e-05
1954	1.2e-05
1966	1.65e-05
1978	9e-06
1990	3.3e-05
2002	3.9e-05
2014	5.25e-05
2026	6.45e-05
2038	6.6e-05
2050	1.8e-05
2062	2.4e-05
2074	2.7e-05
2086	2.4e-05
2098	5.1e-05
2110	1.65e-05
2122	3.6e-05
2134	3.15e-05
2146	3.15e-05
2158	4.65e-05
2170	3.6e-05
2182	3e-05
2194	4.5e-05
2206	3.15e-05
2218	4.95e-05
2230	6.6e-05
2242	6e-05
2254	3.9e-05
2266	4.65e-05
2278	5.85e-05
2290	7.95e-05
2302	9.9e-05
2314	9.6e-05
2326	7.2e-05
2338	7.2e-05
2350	9.9e-05
2362	0.000105
2374	0.0001365
2386	0.0001125
2398	0.0001275
2410	0.0001155
2422	0.0001005
2434	0.0001335
2446	0.0001305
2458	0.000108
2470	0.0001545
2482	9.9e-05
2494	0.000108
2506	9.9e-05
2518	0.0001335
2530	0.000105
2542	0.0001635
2554	0.0001635
2566	0.000207
2578	0.0001965
2590	0.000252
2602	0.000252
2614	0.0002565
2626	0.0002205
2638	0.0002535
2650	0.0002865
2662	0.000273
2674	0.0002505
2686	0.000324
2698	0.0003225
2710	0.0003525
2722	0.000426
2734	0.000468
2746	0.000519
2758	0.000501
2770	0.0005235
2782	0.0005655
2794	0.0006495
2806	0.000771
2818	0.001068
2830	0.001551
2842	0.0023955
2854	0.003558
2866	0.005133
2878	0.006735
2890	0.006834
2902	0.0067215
2914	0.007458
2926	0.0084555
2938	0.009033
2950	0.010098
2962	0.0136515
2974	0.0145455
2986	0.0099885
2998	0.0048225
3010	0.0024
3022	0.001497
3034	0.0011745
3046	0.0011295
3058	0.0013545
3070	0.0021615
3082	0.0027
3094	0.001968
3106	0.0010185
3118	0.000555
3130	0.0004605
3142	0.000384
3154	0.0003465
3166	0.0002625
3178	0.0003
3190	0.000243
3202	0.0002175
3214	0.0001575
3226	0.0001605
3238	0.0001845
3250	0.0001035
3262	9.6e-05
3274	9.45e-05
3286	0.0001125
3298	6.6e-05
3310	8.55e-05
3322	7.65e-05
3334	7.95e-05
3346	0.000129
3358	0.0001875
3370	9e-05
3382	0.000162
3394	0.00012
3406	0.0001455
3418	0.000174
3430	0.0001425
3442	0.000144
3454	0.0001515
3466	0.000111
3478	8.1e-05
3490	4.05e-05
3502	5.1e-05
3514	6e-05
3526	0.000117
3538	5.25e-05
3550	6.45e-05
3562	9e-05
3574	5.85e-05
3586	0.000123
3598	8.85e-05
3610	0.000198
3622	0.0003495
3634	0.0010215
3646	0.0017925
3658	0.0018375
3670	0.0009615
3682	0.0003315
3694	0.000144
3706	0.0001425
3718	5.7e-05
3730	6.3e-05
3742	6e-05
3754	1.5e-06
3766	4.65e-05
3778	8.85e-05
3790	9e-05
3802	0.0001005
3814	7.5e-05
3826	0.000108
3838	0.0001065
