Infrared Spectrum: 5-Dodecyne
Formula: C 12 H 22
CAS: 19780-12-2
State: gas
Instrument: HP-GC/MS/IRD
Origin: NIST Mass Spectrometry Data Center
1/CM	ABSORBANCE
550	0.0004307
562	0.0004189
574	0.0002655
586	0.0003481
598	0.0002655
610	0.0002183
622	0.0001534
634	0.000177
646	0.0001416
658	0.0001475
670	0.0002419
682	0.0003304
694	0.0003953
706	0.0005723
718	0.0008319
730	0.0009617
742	0.000944
754	0.000826
766	0.0005959
778	0.0005074
790	0.0004071
802	0.0003481
814	0.0002596
826	0.0002478
838	0.0002832
850	0.0003068
862	0.0002773
874	0.0003717
886	0.0004012
898	0.0003481
910	0.0003068
922	0.0003304
934	0.0003599
946	0.0003363
958	0.0003953
970	0.0003776
982	0.0003481
994	0.0003363
1006	0.0003127
1018	0.0002832
1030	0.0002537
1042	0.0003068
1054	0.0002714
1066	0.0002714
1078	0.0003127
1090	0.0004012
1102	0.0006077
1114	0.0005251
1126	0.0002773
1138	0.0002596
1150	0.0002183
1162	0.0002714
1174	0.0003481
1186	0.0004012
1198	0.0004425
1210	0.000531
1222	0.0005546
1234	0.0005428
1246	0.0006962
1258	0.0009086
1270	0.000944
1282	0.0011623
1294	0.0015694
1306	0.0020945
1318	0.0030149
1330	0.0048852
1342	0.0037465
1354	0.0030857
1366	0.0024072
1378	0.0022066
1390	0.002006
1402	0.0013275
1414	0.0013334
1426	0.002183
1438	0.0044132
1450	0.0051507
1462	0.0055106
1474	0.0040946
1486	0.0019765
1498	0.0011387
1510	0.0008437
1522	0.0006726
1534	0.0004897
1546	0.0004366
1558	0.0005074
1570	0.0003068
1582	0.0002183
1594	0.0002065
1606	0.000177
1618	0.0002124
1630	0.0001888
1642	0.0002006
1654	0.0003245
1666	0.0001711
1678	0.0001829
1690	0.0001652
1702	0.0002596
1714	0.000177
1726	0.0001003
1738	0.000177
1750	0.0001534
1762	9.44e-05
1774	0.0001239
1786	8.85e-05
1798	9.44e-05
1810	6.49e-05
1822	7.08e-05
1834	6.49e-05
1846	8.85e-05
1858	4.13e-05
1870	7.67e-05
1882	2.95e-05
1894	4.13e-05
1906	5.31e-05
1918	3.54e-05
1930	2.95e-05
1942	6.49e-05
1954	0
1966	3.54e-05
1978	4.13e-05
1990	7.08e-05
2002	4.72e-05
2014	7.67e-05
2026	0.0001298
2038	0.0001239
2050	0.0001239
2062	0.0001121
2074	8.85e-05
2086	7.08e-05
2098	7.67e-05
2110	7.67e-05
2122	7.08e-05
2134	8.85e-05
2146	0.0001003
2158	0.0001003
2170	0.0001003
2182	0.0001062
2194	0.0001062
2206	0.0001357
2218	0.0001357
2230	9.44e-05
2242	0.000118
2254	0.0001121
2266	0.0001121
2278	0.000118
2290	0.000118
2302	0.0001239
2314	0.0001416
2326	0.0001829
2338	0.0001829
2350	0.0001652
2362	0.0002006
2374	0.0001711
2386	0.0001357
2398	0.0001534
2410	0.0001239
2422	0.0001357
2434	0.0001416
2446	0.0001003
2458	0.000118
2470	9.44e-05
2482	0.000118
2494	0.000118
2506	8.85e-05
2518	0.0001239
2530	0.000177
2542	0.0002124
2554	0.0002242
2566	0.0002773
2578	0.0003009
2590	0.0002773
2602	0.0002596
2614	0.0003009
2626	0.0003953
2638	0.0004956
2650	0.0005782
2662	0.0006136
2674	0.0006549
2686	0.0006195
2698	0.0005664
2710	0.0005369
2722	0.0006018
2734	0.0006903
2746	0.0008791
2758	0.000944
2770	0.0010089
2782	0.0011623
2794	0.0014396
2806	0.0018703
2818	0.002537
2830	0.0037642
2842	0.0068145
2854	0.0135405
2866	0.0204553
2878	0.0201308
2890	0.0176941
2902	0.0187856
2914	0.0282846
2926	0.0456129
2938	0.059
2950	0.0432588
2962	0.0352525
2974	0.0279365
2986	0.0121835
2998	0.0062009
3010	0.0038822
3022	0.0027966
3034	0.0021299
3046	0.0016756
3058	0.0013806
3070	0.0011446
3082	0.001003
3094	0.0008496
3106	0.0007434
3118	0.0006549
3130	0.0005723
3142	0.000531
3154	0.0004956
3166	0.0005074
3178	0.0004248
3190	0.0004543
3202	0.000354
3214	0.0002891
3226	0.0002655
3238	0.0002301
3250	0.000177
3262	0.0002065
3274	0.0001829
3286	0.0001534
3298	0.0001062
3310	0.0001475
3322	0.0001475
3334	0.000177
3346	0.0001711
3358	0.0001888
3370	0.0001829
3382	0.0001711
3394	0.0001888
3406	0.0001416
3418	0.0001593
3430	0.0001711
3442	0.0002183
3454	0.0001003
3466	0.0001239
3478	0.0001003
3490	5.31e-05
3502	0.0001121
3514	7.08e-05
3526	0.0001003
3538	0.0001239
3550	0.0001475
3562	0.0001357
3574	0.0001239
3586	0.0002242
3598	0.0002006
3610	0.000236
3622	0.0002183
3634	0.0002419
3646	0.0003363
3658	0.0002183
3670	0.0002714
3682	0.0002242
3694	0.0002242
3706	0.0001888
3718	0.0001947
3730	0.0002832
3742	0.0002891
3754	0.0003068
3766	0.0002596
3778	0.0002301
3790	0.000236
3802	0.0003245
3814	0.0002714
3826	0.0002773
3838	0.0003422
