Infrared Spectrum: 5-Hexyn-3-ol
Formula: C 6 H 10 O
CAS: 19780-84-8
State: gas
Instrument: HP-GC/MS/IRD
Origin: NIST Mass Spectrometry Data Center
1/CM	ABSORBANCE
550	0.001309
562	0.000803
574	0.0006138
586	0.0006182
598	0.0009988
610	0.0026268
622	0.0076054
634	0.0200728
646	0.0155408
658	0.0056122
670	0.0017864
682	0.0007062
694	0.0003146
706	8.8e-05
718	6.16e-05
730	4.84e-05
742	0.0001056
754	0.0002002
766	0.0003718
778	0.0003872
790	0.0002816
802	0.0002992
814	0.000407
826	0.0006314
838	0.0006974
850	0.0007128
862	0.000737
874	0.0008536
886	0.0009482
898	0.0009196
910	0.0009262
922	0.0011066
934	0.0015906
946	0.0019426
958	0.0023804
970	0.0033594
982	0.0043912
994	0.0044792
1006	0.0041954
1018	0.0041514
1030	0.0040326
1042	0.0040238
1054	0.0041778
1066	0.003872
1078	0.0031438
1090	0.003586
1102	0.0047146
1114	0.0045034
1126	0.0031988
1138	0.0019844
1150	0.0012628
1162	0.001067
1174	0.001276
1186	0.0017006
1198	0.0022792
1210	0.0028446
1222	0.003432
1234	0.0046684
1246	0.0068046
1258	0.0067254
1270	0.0047564
1282	0.0030492
1294	0.0025564
1306	0.0023254
1318	0.002134
1330	0.0020438
1342	0.0021714
1354	0.0026378
1366	0.0032032
1378	0.0034958
1390	0.003465
1402	0.0028578
1414	0.0022946
1426	0.0024002
1438	0.002475
1450	0.0023342
1462	0.0022044
1474	0.0017578
1486	0.0010274
1498	0.0005016
1510	0.0002926
1522	0.0002178
1534	0.0001958
1546	0.0002024
1558	0.000143
1570	0.000143
1582	0.0001276
1594	0.0001034
1606	9.24e-05
1618	4.84e-05
1630	6.16e-05
1642	5.94e-05
1654	1.32e-05
1666	4.84e-05
1678	4.62e-05
1690	2.86e-05
1702	2.64e-05
1714	1.32e-05
1726	1.54e-05
1738	1.98e-05
1750	2.86e-05
1762	1.76e-05
1774	2.2e-06
1786	2.2e-05
1798	2.2e-05
1810	2.64e-05
1822	2.2e-05
1834	2.42e-05
1846	3.3e-05
1858	2.2e-05
1870	4.84e-05
1882	6.16e-05
1894	6.16e-05
1906	6.38e-05
1918	6.38e-05
1930	5.72e-05
1942	3.52e-05
1954	6.16e-05
1966	5.72e-05
1978	6.16e-05
1990	5.72e-05
2002	5.06e-05
2014	5.28e-05
2026	5.28e-05
2038	3.3e-05
2050	4.18e-05
2062	0.0001122
2074	0.0001188
2086	0.00022
2098	0.0004444
2110	0.0008404
2122	0.0009064
2134	0.0004994
2146	0.0001166
2158	8.36e-05
2170	0.0001012
2182	6.16e-05
2194	4.84e-05
2206	7.26e-05
2218	6.16e-05
2230	5.72e-05
2242	5.72e-05
2254	5.94e-05
2266	7.26e-05
2278	6.82e-05
2290	5.94e-05
2302	5.06e-05
2314	4.4e-05
2326	2.86e-05
2338	3.52e-05
2350	4.4e-05
2362	6.16e-05
2374	6.16e-05
2386	6.38e-05
2398	7.92e-05
2410	8.8e-05
2422	8.8e-05
2434	8.14e-05
2446	8.36e-05
2458	4.62e-05
2470	2.64e-05
2482	7.7e-05
2494	4.62e-05
2506	3.52e-05
2518	7.48e-05
2530	5.06e-05
2542	8.14e-05
2554	7.48e-05
2566	7.26e-05
2578	7.48e-05
2590	0.0001056
2602	0.0001144
2614	0.000121
2626	0.0001188
2638	0.0001452
2650	0.000176
2662	0.0002112
2674	0.0002508
2686	0.0003344
2698	0.0003146
2710	0.000297
2722	0.000242
2734	0.0002904
2746	0.0003564
2758	0.0003894
2770	0.0004026
2782	0.0004136
2794	0.0004862
2806	0.0005588
2818	0.0007392
2830	0.0010582
2842	0.0015928
2854	0.0023584
2866	0.0036212
2878	0.0056562
2890	0.0068244
2902	0.0067892
2914	0.0075702
2926	0.0100188
2938	0.01199
2950	0.011297
2962	0.0103136
2974	0.0103488
2986	0.0074272
2998	0.0033374
3010	0.0014674
3022	0.0008184
3034	0.000616
3046	0.0005192
3058	0.0004532
3070	0.0004092
3082	0.0003674
3094	0.0003212
3106	0.0003102
3118	0.0002046
3130	0.0001584
3142	0.0001254
3154	8.36e-05
3166	0.0001276
3178	0.0001078
3190	0.000165
3202	7.04e-05
3214	7.26e-05
3226	0.0001012
3238	0.0001408
3250	0.0002112
3262	0.0003894
3274	0.0007656
3286	0.0013684
3298	0.00308
3310	0.005093
3322	0.0084854
3334	0.0075944
3346	0.0021934
3358	0.0007304
3370	0.0004048
3382	0.0002068
3394	0.0001188
3406	0.0001166
3418	0.000143
3430	9.24e-05
3442	7.48e-05
3454	0.0001034
3466	7.7e-05
3478	6.38e-05
3490	9.24e-05
3502	3.08e-05
3514	8.36e-05
3526	0.0001034
3538	0.0001122
3550	0.0001232
3562	0.0001078
3574	0.0001782
3586	0.0004246
3598	0.0009064
3610	0.0020284
3622	0.002299
3634	0.0018414
3646	0.001485
3658	0.0013706
3670	0.0009196
3682	0.0003542
3694	0.0002046
3706	0.000121
3718	9.9e-05
3730	4.4e-06
3742	1.1e-05
3754	1.76e-05
3766	1.32e-05
3778	2.2e-05
3790	8.8e-06
3802	2.2e-06
3814	4.4e-05
3826	2.2e-05
3838	6.6e-06
