Infrared Spectrum: Ethylidenecyclooctane
Formula: C 10 H 18
CAS: 19780-51-9
State: gas
Instrument: HP-GC/MS/IRD
Origin: NIST Mass Spectrometry Data Center
1/CM	ABSORBANCE
550	0.0004018
562	0.0003854
574	0.0005904
586	0.000492
598	0.0004018
610	0.0002706
622	6.56e-05
634	4.1e-05
646	8.2e-05
658	2.46e-05
670	9.02e-05
682	0.0002214
694	0.0002706
706	0.0003444
718	0.000451
730	0.0006642
742	0.0007462
754	0.0005986
766	0.0006806
778	0.0012628
790	0.001927
802	0.0019434
814	0.0020336
826	0.0020992
838	0.0013284
850	0.000902
862	0.0008938
874	0.0009184
886	0.0006232
898	0.0005494
910	0.0005494
922	0.0005166
934	0.000451
946	0.0003608
958	0.0005576
970	0.0010742
982	0.0014186
994	0.0013202
1006	0.0010988
1018	0.0012956
1030	0.0012464
1042	0.0007298
1054	0.0004674
1066	0.000451
1078	0.0004428
1090	0.000533
1102	0.00082
1114	0.000779
1126	0.0003608
1138	0.0001968
1150	0.0001968
1162	0.0003198
1174	0.000328
1186	0.0002788
1198	0.0004182
1210	0.000533
1222	0.000615
1234	0.0005822
1246	0.0005576
1258	0.0005658
1270	0.0006314
1282	0.000574
1294	0.0005822
1306	0.000656
1318	0.0010332
1330	0.0012464
1342	0.001886
1354	0.002132
1366	0.001558
1378	0.0012382
1390	0.0013038
1402	0.0010824
1414	0.001271
1426	0.0023452
1438	0.0055924
1450	0.0087822
1462	0.0078966
1474	0.0054038
1486	0.0029684
1498	0.001394
1510	0.0010168
1522	0.0007872
1534	0.0006232
1546	0.0006068
1558	0.0005658
1570	0.0003772
1582	0.0002706
1594	0.0002542
1606	0.0002378
1618	0.000287
1630	0.0003034
1642	0.0004182
1654	0.000574
1666	0.0003444
1678	0.0002296
1690	0.0001558
1702	0.0001968
1714	0.0001804
1726	9.02e-05
1738	0.0001394
1750	0.0001886
1762	0.0001394
1774	0.0001558
1786	0.0001558
1798	0.0001804
1810	0.0001722
1822	0.000205
1834	0.0001886
1846	0.000246
1858	0.000164
1870	0.0001476
1882	9.84e-05
1894	9.02e-05
1906	6.56e-05
1918	7.38e-05
1930	2.46e-05
1942	4.92e-05
1954	2.46e-05
1966	1.64e-05
1978	8.2e-06
1990	2.46e-05
2002	0
2014	3.28e-05
2026	1.64e-05
2038	3.28e-05
2050	8.2e-06
2062	1.64e-05
2074	2.46e-05
2086	1.64e-05
2098	4.1e-05
2110	1.64e-05
2122	4.92e-05
2134	1.64e-05
2146	2.46e-05
2158	8.2e-06
2170	1.64e-05
2182	1.64e-05
2194	3.28e-05
2206	8.2e-06
2218	8.2e-06
2230	0
2242	1.64e-05
2254	4.1e-05
2266	4.92e-05
2278	3.28e-05
2290	4.1e-05
2302	4.92e-05
2314	7.38e-05
2326	5.74e-05
2338	4.92e-05
2350	6.56e-05
2362	5.74e-05
2374	6.56e-05
2386	4.92e-05
2398	4.1e-05
2410	4.1e-05
2422	9.02e-05
2434	8.2e-05
2446	8.2e-05
2458	4.92e-05
2470	5.74e-05
2482	6.56e-05
2494	6.56e-05
2506	6.56e-05
2518	0.0001066
2530	0.000123
2542	0.0001394
2554	0.0001394
2566	0.000164
2578	0.000164
2590	0.000164
2602	0.0002214
2614	0.0002952
2626	0.0003608
2638	0.0004428
2650	0.0005412
2662	0.0007298
2674	0.0010332
2686	0.0012792
2698	0.0012546
2710	0.0010496
2722	0.0008774
2734	0.0008118
2746	0.0007626
2758	0.00082
2770	0.0009594
2782	0.0012054
2794	0.00164
2806	0.0021402
2818	0.002952
2830	0.0048216
2842	0.0092004
2854	0.018614
2866	0.024723
2878	0.0225254
2890	0.0210986
2902	0.0281014
2914	0.0479946
2926	0.0786544
2938	0.0717828
2950	0.0386302
2962	0.0199178
2974	0.0107912
2986	0.0075932
2998	0.0061336
3010	0.0049364
3022	0.0043788
3034	0.0040426
3046	0.0031816
3058	0.002009
3070	0.0012054
3082	0.0008364
3094	0.0006396
3106	0.000533
3118	0.0004428
3130	0.0003772
3142	0.0003444
3154	0.0003034
3166	0.0002378
3178	0.0002296
3190	0.000246
3202	0.0002296
3214	0.000205
3226	0.0002214
3238	0.0002214
3250	0.0001804
3262	0.0001804
3274	0.0001394
3286	0.0001148
3298	0.0001148
3310	0.0001066
3322	8.2e-05
3334	0.0001066
3346	0.0001394
3358	0.0001148
3370	0.0001476
3382	0.0001066
3394	9.84e-05
3406	9.02e-05
3418	9.02e-05
3430	4.92e-05
3442	4.1e-05
3454	5.74e-05
3466	2.46e-05
3478	4.92e-05
3490	3.28e-05
3502	6.56e-05
3514	2.46e-05
3526	4.92e-05
3538	0
3550	4.92e-05
3562	5.74e-05
3574	4.1e-05
3586	9.84e-05
3598	5.74e-05
3610	0.0001394
3622	7.38e-05
3634	8.2e-05
3646	0.0001394
3658	9.84e-05
3670	0.0001476
3682	7.38e-05
3694	0.0001148
3706	9.84e-05
3718	0.000123
3730	0.0001722
3742	0.0001722
3754	0.0001722
3766	0.0001312
3778	9.84e-05
3790	0.0001148
3802	0.0001312
3814	6.56e-05
3826	5.74e-05
3838	0.0001558
