Infrared Spectrum: 2,4-Dimethyl-4-penten-2-ol
Formula: C 7 H 14 O
CAS: 19781-53-4
State: gas
Instrument: HP-GC/MS/IRD
Origin: NIST Mass Spectrometry Data Center
1/CM	ABSORBANCE
550	0.00035
562	0.0006342
574	0.0007994
586	0.0006258
598	0.0002142
610	0.0001414
622	0.0001442
634	0.0001358
646	6.72e-05
658	9.8e-06
670	7.98e-05
682	0.0001148
694	0.0001148
706	6.16e-05
718	4.34e-05
730	6.58e-05
742	0.0001596
754	0.0003164
766	0.0006188
778	0.0009268
790	0.000637
802	0.000336
814	0.0003066
826	0.0003402
838	0.0004214
850	0.0005082
862	0.0009338
874	0.002198
886	0.0050064
898	0.0070084
910	0.0051114
922	0.0026572
934	0.0015988
946	0.0015512
958	0.001624
970	0.0013006
982	0.0008988
994	0.0006636
1006	0.000567
1018	0.0005838
1030	0.0005054
1042	0.0005082
1054	0.0005068
1066	0.0006034
1078	0.000931
1090	0.0015358
1102	0.002618
1114	0.0039074
1126	0.00469
1138	0.004599
1150	0.0042504
1162	0.0034524
1174	0.0027146
1186	0.0024654
1198	0.002723
1210	0.0031052
1222	0.0033922
1234	0.003458
1246	0.003066
1258	0.002436
1270	0.002044
1282	0.0019488
1294	0.001988
1306	0.0021238
1318	0.0023128
1330	0.0024962
1342	0.0026894
1354	0.0031304
1366	0.0045948
1378	0.0057708
1390	0.004242
1402	0.0019712
1414	0.0014154
1426	0.00161
1438	0.002093
1450	0.0025704
1462	0.0027104
1474	0.0021784
1486	0.0012362
1498	0.000637
1510	0.0003948
1522	0.000308
1534	0.0002562
1546	0.0002562
1558	0.0002702
1570	0.0003024
1582	0.0003332
1594	0.00035
1606	0.0004998
1618	0.0008568
1630	0.0015484
1642	0.0019194
1654	0.0014322
1666	0.0006622
1678	0.0003514
1690	0.0002296
1702	0.0001708
1714	0.0001232
1726	0.000105
1738	9.1e-05
1750	0.0001106
1762	0.000154
1774	0.000182
1786	0.0003528
1798	0.000434
1810	0.0003304
1822	0.000217
1834	0.0001372
1846	8.54e-05
1858	7.14e-05
1870	4.34e-05
1882	5.18e-05
1894	2.38e-05
1906	5.32e-05
1918	4.48e-05
1930	5.74e-05
1942	5.6e-05
1954	2.38e-05
1966	2.24e-05
1978	3.5e-05
1990	2.1e-05
2002	6.16e-05
2014	3.08e-05
2026	4.06e-05
2038	4.9e-05
2050	3.92e-05
2062	3.36e-05
2074	6.16e-05
2086	6.44e-05
2098	5.04e-05
2110	5.04e-05
2122	7.14e-05
2134	5.18e-05
2146	2.1e-05
2158	5.74e-05
2170	3.5e-05
2182	3.5e-05
2194	5.74e-05
2206	5.46e-05
2218	3.78e-05
2230	5.32e-05
2242	6.58e-05
2254	4.48e-05
2266	6.72e-05
2278	4.48e-05
2290	6.3e-05
2302	5.18e-05
2314	7e-05
2326	4.06e-05
2338	4.48e-05
2350	4.48e-05
2362	4.34e-05
2374	5.32e-05
2386	6.02e-05
2398	6.44e-05
2410	4.76e-05
2422	6.02e-05
2434	6.58e-05
2446	7.42e-05
2458	4.06e-05
2470	3.92e-05
2482	5.32e-05
2494	6.02e-05
2506	4.34e-05
2518	3.78e-05
2530	4.62e-05
2542	3.64e-05
2554	8.12e-05
2566	7e-05
2578	4.62e-05
2590	4.48e-05
2602	7.56e-05
2614	6.44e-05
2626	7.56e-05
2638	9.8e-05
2650	6.72e-05
2662	8.68e-05
2674	0.0001064
2686	8.54e-05
2698	0.0001078
2710	0.0001428
2722	0.0002016
2734	0.0002464
2746	0.0002548
2758	0.000252
2770	0.0002366
2782	0.0002562
2794	0.0003094
2806	0.000476
2818	0.0006916
2830	0.0009996
2842	0.0014518
2854	0.0019796
2866	0.0026992
2878	0.0034636
2890	0.0041972
2902	0.005068
2914	0.006405
2926	0.0079828
2938	0.0085302
2950	0.0078106
2962	0.009548
2974	0.0136696
2986	0.0120554
2998	0.005922
3010	0.0023856
3022	0.0012334
3034	0.0008722
3046	0.0008904
3058	0.001218
3070	0.0023324
3082	0.0028364
3094	0.0017038
3106	0.0006566
3118	0.0003962
3130	0.0002912
3142	0.000168
3154	0.0002184
3166	0.000196
3178	0.000168
3190	0.0001526
3202	0.0001918
3214	0.000147
3226	9.24e-05
3238	0.0001372
3250	8.96e-05
3262	7.98e-05
3274	7.42e-05
3286	5.04e-05
3298	1.4e-05
3310	6.72e-05
3322	0.0001008
3334	3.78e-05
3346	7e-05
3358	7.7e-05
3370	9.66e-05
3382	7.28e-05
3394	7.56e-05
3406	8.54e-05
3418	0.0001358
3430	0.0001036
3442	0.0001092
3454	6.72e-05
3466	7e-05
3478	5.46e-05
3490	6.3e-05
3502	5.32e-05
3514	4.2e-05
3526	8.96e-05
3538	9.8e-05
3550	7.42e-05
3562	7.98e-05
3574	0.0001918
3586	0.0003136
3598	0.0006636
3610	0.0006244
3622	0.0007308
3634	0.0010584
3646	0.0009758
3658	0.0004942
3670	0.000189
3682	7.84e-05
3694	0.000112
3706	4.62e-05
3718	7.14e-05
3730	4.76e-05
3742	2.38e-05
3754	3.5e-05
3766	2.38e-05
3778	3.5e-05
3790	9.52e-05
3802	1.12e-05
3814	5.18e-05
3826	6.58e-05
3838	5.88e-05
