Infrared Spectrum: 3-Ethyl-2-methyl-1-pentene
Formula: C 8 H 16
CAS: 19780-66-6
State: gas
Instrument: HP-GC/MS/IRD
Origin: NIST Mass Spectrometry Data Center
1/CM	ABSORBANCE
550	0.0006741
562	0.0006321
574	0.0003087
586	0.0001995
598	0.000168
610	9.45e-05
622	4.2e-05
634	5.25e-05
646	5.25e-05
658	6.09e-05
670	5.25e-05
682	0.0001596
694	0.0001911
706	0.0003171
718	0.000357
730	0.0003822
742	0.0002646
754	0.0002142
766	0.0003297
778	0.0003339
790	0.0002457
802	0.0002184
814	0.0002856
826	0.00042
838	0.0005271
850	0.0005019
862	0.0007476
874	0.0022995
886	0.0056196
898	0.0055923
910	0.0022029
922	0.0009975
934	0.0006636
946	0.0004767
958	0.0004473
970	0.0003696
982	0.0003192
994	0.000357
1006	0.0003969
1018	0.0003507
1030	0.0003675
1042	0.0003738
1054	0.0002772
1066	0.0002772
1078	0.0003927
1090	0.0004935
1102	0.0004515
1114	0.0002919
1126	0.0002331
1138	0.000252
1150	0.0002877
1162	0.0002037
1174	0.0001365
1186	0.0001281
1198	0.0001491
1210	0.0002184
1222	0.0004242
1234	0.0004725
1246	0.0004494
1258	0.0004515
1270	0.0005355
1282	0.0005439
1294	0.0005166
1306	0.0004494
1318	0.0004557
1330	0.0005061
1342	0.0005901
1354	0.0008421
1366	0.0017115
1378	0.0028875
1390	0.002562
1402	0.001344
1414	0.0009975
1426	0.0012873
1438	0.0019782
1450	0.0032109
1462	0.0036645
1474	0.0025851
1486	0.0012978
1498	0.0006846
1510	0.0004872
1522	0.0004116
1534	0.0003948
1546	0.0003969
1558	0.0004137
1570	0.0004095
1582	0.0004662
1594	0.0004893
1606	0.0006153
1618	0.000966
1630	0.0018144
1642	0.0024528
1654	0.001596
1666	0.0005964
1678	0.0002898
1690	0.0002058
1702	0.0001827
1714	0.0001323
1726	0.0001176
1738	0.0001134
1750	0.0001113
1762	0.0001554
1774	0.0002793
1786	0.0004536
1798	0.0004011
1810	0.0001911
1822	0.000105
1834	8.4e-05
1846	6.51e-05
1858	5.67e-05
1870	6.51e-05
1882	4.62e-05
1894	4.2e-05
1906	5.04e-05
1918	3.78e-05
1930	6.51e-05
1942	4.83e-05
1954	4.2e-05
1966	4.41e-05
1978	3.99e-05
1990	3.78e-05
2002	4.2e-05
2014	4.41e-05
2026	3.99e-05
2038	2.94e-05
2050	2.73e-05
2062	4.83e-05
2074	4.2e-05
2086	3.57e-05
2098	3.78e-05
2110	3.36e-05
2122	3.99e-05
2134	2.73e-05
2146	3.78e-05
2158	3.36e-05
2170	1.26e-05
2182	2.31e-05
2194	3.57e-05
2206	3.78e-05
2218	2.52e-05
2230	2.73e-05
2242	4.83e-05
2254	4.83e-05
2266	6.3e-05
2278	4.2e-05
2290	4.41e-05
2302	5.88e-05
2314	7.98e-05
2326	7.56e-05
2338	7.56e-05
2350	7.98e-05
2362	0.0001197
2374	9.03e-05
2386	8.82e-05
2398	0.0001092
2410	9.45e-05
2422	8.61e-05
2434	7.77e-05
2446	6.09e-05
2458	7.98e-05
2470	9.03e-05
2482	9.87e-05
2494	9.24e-05
2506	6.09e-05
2518	0.0001008
2530	0.000105
2542	0.0001218
2554	0.0001302
2566	0.0001239
2578	0.0001344
2590	0.0001533
2602	0.0001533
2614	0.0001491
2626	0.0001722
2638	0.0001911
2650	0.000231
2662	0.0002205
2674	0.0002289
2686	0.0002373
2698	0.000273
2710	0.0003108
2722	0.0003759
2734	0.0004683
2746	0.0005334
2758	0.0005103
2770	0.0004977
2782	0.0006384
2794	0.0007434
2806	0.0008505
2818	0.0010185
2830	0.0012873
2842	0.0019761
2854	0.0036897
2866	0.006951
2878	0.0102459
2890	0.0098448
2902	0.0078246
2914	0.0094626
2926	0.0152208
2938	0.017955
2950	0.0162141
2962	0.0192024
2974	0.0198198
2986	0.0117138
2998	0.0050001
3010	0.0028329
3022	0.0020076
3034	0.0016695
3046	0.0016443
3058	0.0021714
3070	0.0033138
3082	0.0035238
3094	0.002121
3106	0.0010059
3118	0.0006678
3130	0.0005775
3142	0.0005292
3154	0.0004683
3166	0.0003843
3178	0.0003108
3190	0.0002415
3202	0.0001953
3214	0.0002058
3226	0.0001554
3238	0.0001302
3250	0.0001407
3262	0.0001134
3274	0.0001323
3286	0.0001197
3298	0.0001071
3310	7.35e-05
3322	7.77e-05
3334	7.14e-05
3346	0.0001092
3358	9.24e-05
3370	7.56e-05
3382	9.03e-05
3394	9.87e-05
3406	7.77e-05
3418	9.45e-05
3430	8.4e-05
3442	0.0001197
3454	9.45e-05
3466	6.51e-05
3478	9.87e-05
3490	8.19e-05
3502	0.0001071
3514	8.61e-05
3526	7.56e-05
3538	5.88e-05
3550	4.62e-05
3562	4.2e-05
3574	6.72e-05
3586	2.52e-05
3598	9.45e-05
3610	7.14e-05
3622	9.45e-05
3634	7.35e-05
3646	0.000105
3658	0.000105
3670	0.000126
3682	7.77e-05
3694	8.4e-05
3706	0.0001092
3718	9.66e-05
3730	0.0001071
3742	0.0001008
3754	8.61e-05
3766	0.0001071
3778	0.0001281
3790	9.24e-05
3802	0.0001281
3814	0.0001071
3826	8.61e-05
3838	0.0001008
