Infrared Spectrum: 3-Ethyl-3-heptanol
Formula: C 9 H 20 O
CAS: 19780-41-7
State: gas
Instrument: HP-GC/MS/IRD
Origin: NIST Mass Spectrometry Data Center
1/CM	ABSORBANCE
550	0.0004914
562	0.000336
574	0.0003948
586	0.0001638
598	0.000168
610	0.000147
622	8.4e-05
634	5.88e-05
646	4.2e-05
658	7.98e-05
670	7.56e-05
682	0.000105
694	0.0001638
706	0.0002898
718	0.000462
730	0.0004746
742	0.0004704
754	0.0005082
766	0.000651
778	0.0008652
790	0.0010584
802	0.0009324
814	0.000525
826	0.0004326
838	0.0003024
850	0.0003402
862	0.000567
874	0.0008778
886	0.0014868
898	0.002373
910	0.0027846
922	0.0026964
934	0.0032508
946	0.0055356
958	0.0069678
970	0.0069678
982	0.0048048
994	0.002751
1006	0.0020412
1018	0.0020538
1030	0.0021294
1042	0.0019278
1054	0.0016506
1066	0.0016548
1078	0.0018774
1090	0.0021378
1102	0.0022638
1114	0.00273
1126	0.003738
1138	0.0045948
1150	0.0053886
1162	0.0049812
1174	0.0034482
1186	0.0024738
1198	0.0022218
1210	0.00231
1222	0.002541
1234	0.0028854
1246	0.0032676
1258	0.00336
1270	0.0031584
1282	0.0030324
1294	0.0029358
1306	0.0028056
1318	0.002667
1330	0.002751
1342	0.0032046
1354	0.0034524
1366	0.0036708
1378	0.0046368
1390	0.0044478
1402	0.00252
1414	0.0017934
1426	0.0018816
1438	0.003024
1450	0.0053046
1462	0.0071904
1474	0.0053718
1486	0.0024486
1498	0.0012474
1510	0.000882
1522	0.000651
1534	0.0005628
1546	0.0004956
1558	0.0004704
1570	0.000378
1582	0.0003402
1594	0.0003108
1606	0.0002688
1618	0.0002394
1630	0.0002184
1642	0.0002016
1654	0.000231
1666	0.000189
1678	0.0001806
1690	0.0001554
1702	0.000126
1714	9.24e-05
1726	7.14e-05
1738	9.66e-05
1750	9.66e-05
1762	6.3e-05
1774	4.62e-05
1786	5.04e-05
1798	4.62e-05
1810	2.52e-05
1822	3.36e-05
1834	3.78e-05
1846	7.14e-05
1858	3.78e-05
1870	4.62e-05
1882	5.04e-05
1894	7.14e-05
1906	2.1e-05
1918	4.2e-05
1930	8.4e-06
1942	2.94e-05
1954	1.26e-05
1966	0
1978	0
1990	2.52e-05
2002	1.26e-05
2014	2.1e-05
2026	2.1e-05
2038	4.62e-05
2050	3.78e-05
2062	3.78e-05
2074	3.36e-05
2086	2.52e-05
2098	2.52e-05
2110	1.68e-05
2122	2.94e-05
2134	2.94e-05
2146	3.36e-05
2158	4.2e-05
2170	2.1e-05
2182	2.52e-05
2194	3.36e-05
2206	2.52e-05
2218	2.94e-05
2230	2.1e-05
2242	2.52e-05
2254	3.78e-05
2266	2.94e-05
2278	3.36e-05
2290	2.94e-05
2302	3.78e-05
2314	2.94e-05
2326	5.46e-05
2338	6.3e-05
2350	5.88e-05
2362	6.72e-05
2374	6.72e-05
2386	8.82e-05
2398	8.82e-05
2410	8.4e-05
2422	6.72e-05
2434	6.3e-05
2446	6.3e-05
2458	2.1e-05
2470	1.26e-05
2482	1.68e-05
2494	3.36e-05
2506	2.52e-05
2518	3.36e-05
2530	5.88e-05
2542	5.46e-05
2554	8.4e-05
2566	0.0001092
2578	0.0001344
2590	0.0001596
2602	0.0001974
2614	0.00021
2626	0.0002268
2638	0.0002688
2650	0.0002898
2662	0.000315
2674	0.0003444
2686	0.0003654
2698	0.0003948
2710	0.0004326
2722	0.0005292
2734	0.0006846
2746	0.0008316
2758	0.0008064
2770	0.0008484
2782	0.0010248
2794	0.00126
2806	0.0015666
2818	0.0019656
2830	0.0027342
2842	0.0042588
2854	0.0074844
2866	0.012516
2878	0.0164892
2890	0.0178122
2902	0.0164094
2914	0.0194712
2926	0.0288582
2938	0.0405594
2950	0.0392112
2962	0.0374892
2974	0.0392532
2986	0.0214788
2998	0.0089544
3010	0.0047418
3022	0.0031962
3034	0.0024108
3046	0.0019446
3058	0.0016632
3070	0.0014826
3082	0.0013692
3094	0.0011928
3106	0.001008
3118	0.00084
3130	0.0006804
3142	0.0005754
3154	0.0004956
3166	0.0004578
3178	0.0003948
3190	0.000336
3202	0.000273
3214	0.0002058
3226	0.0001512
3238	7.56e-05
3250	7.14e-05
3262	7.98e-05
3274	7.98e-05
3286	5.04e-05
3298	5.04e-05
3310	3.36e-05
3322	4.2e-05
3334	3.36e-05
3346	4.62e-05
3358	3.36e-05
3370	5.46e-05
3382	4.2e-05
3394	0.000105
3406	8.82e-05
3418	8.4e-05
3430	0.0001092
3442	9.66e-05
3454	9.66e-05
3466	6.72e-05
3478	5.88e-05
3490	5.04e-05
3502	8.82e-05
3514	1.26e-05
3526	2.1e-05
3538	3.36e-05
3550	5.88e-05
3562	3.78e-05
3574	2.94e-05
3586	7.98e-05
3598	0.0001008
3610	0.0001806
3622	0.00063
3634	0.0016506
3646	0.0018858
3658	0.0007518
3670	0.0002226
3682	0.000105
3694	9.24e-05
3706	7.98e-05
3718	7.56e-05
3730	8.82e-05
3742	8.82e-05
3754	2.94e-05
3766	2.52e-05
3778	2.52e-05
3790	5.04e-05
3802	8.82e-05
3814	0.000105
3826	0.0001092
3838	0.0001302
