Infrared Spectrum: 3-Ethyl-2-methyl-2-pentene
Formula: C 8 H 16
CAS: 19780-67-7
State: gas
Instrument: HP-GC/MS/IRD
Origin: NIST Mass Spectrometry Data Center
1/CM	ABSORBANCE
550	0
562	3.24e-05
574	0.0001161
586	9.18e-05
598	5.94e-05
610	0.0001188
622	0.0001647
634	0.0001512
646	0.0002241
658	0.0001431
670	0.0001269
682	2.43e-05
694	0.0001215
706	4.86e-05
718	3.78e-05
730	8.64e-05
742	0.000108
754	0.0001296
766	0.0003159
778	0.0004833
790	0.0003834
802	0.0002565
814	6.48e-05
826	0.0001053
838	0.0001242
850	0.000162
862	0.0003132
874	0.0003915
886	0.0003024
898	0.0002295
910	0.0004077
922	0.0007479
934	0.0006696
946	0.0004077
958	0.000324
970	0.0004023
982	0.0004941
994	0.0004104
1006	0.0003672
1018	0.0004644
1030	0.0006264
1042	0.000918
1054	0.0009612
1066	0.0009612
1078	0.0008775
1090	0.0005643
1102	0.0003672
1114	0.0003483
1126	0.0003699
1138	0.0006912
1150	0.0013878
1162	0.0012528
1174	0.000621
1186	0.0003348
1198	0.0002511
1210	0.0002889
1222	0.0003375
1234	0.0004914
1246	0.0006183
1258	0.000837
1270	0.0010341
1282	0.0008775
1294	0.0006399
1306	0.0007398
1318	0.000837
1330	0.000783
1342	0.0007344
1354	0.0010152
1366	0.0020304
1378	0.0031671
1390	0.002268
1402	0.0012582
1414	0.0011124
1426	0.0013338
1438	0.001863
1450	0.0027675
1462	0.0036369
1474	0.0034695
1486	0.002241
1498	0.0012879
1510	0.0009207
1522	0.0007965
1534	0.0007155
1546	0.0006588
1558	0.0006129
1570	0.0005508
1582	0.0004725
1594	0.0003996
1606	0.000351
1618	0.000324
1630	0.0002889
1642	0.0002673
1654	0.0002376
1666	0.0001863
1678	0.0001404
1690	0.0001377
1702	9.72e-05
1714	9.18e-05
1726	5.13e-05
1738	3.24e-05
1750	2.7e-05
1762	5.4e-06
1774	3.78e-05
1786	2.16e-05
1798	5.94e-05
1810	7.29e-05
1822	8.37e-05
1834	7.02e-05
1846	7.29e-05
1858	4.05e-05
1870	7.29e-05
1882	7.56e-05
1894	5.94e-05
1906	7.56e-05
1918	7.02e-05
1930	6.48e-05
1942	4.86e-05
1954	5.67e-05
1966	4.86e-05
1978	5.4e-05
1990	2.97e-05
2002	5.13e-05
2014	5.13e-05
2026	6.75e-05
2038	8.64e-05
2050	7.56e-05
2062	5.13e-05
2074	4.05e-05
2086	4.05e-05
2098	3.78e-05
2110	2.16e-05
2122	3.24e-05
2134	2.16e-05
2146	4.32e-05
2158	3.51e-05
2170	1.08e-05
2182	2.43e-05
2194	0
2206	2.43e-05
2218	1.35e-05
2230	3.51e-05
2242	5.13e-05
2254	5.13e-05
2266	3.24e-05
2278	4.59e-05
2290	4.59e-05
2302	5.4e-05
2314	5.67e-05
2326	5.94e-05
2338	5.67e-05
2350	6.75e-05
2362	5.94e-05
2374	7.02e-05
2386	9.99e-05
2398	0.0001134
2410	0.0001107
2422	0.0001107
2434	9.18e-05
2446	7.02e-05
2458	7.29e-05
2470	3.51e-05
2482	6.21e-05
2494	7.83e-05
2506	8.64e-05
2518	0.000108
2530	0.0001107
2542	0.000135
2554	0.0001188
2566	9.72e-05
2578	0.0001296
2590	0.0001296
2602	0.0001377
2614	0.0001566
2626	0.0001755
2638	0.0001863
2650	0.0001836
2662	0.0001323
2674	0.0001539
2686	0.000189
2698	0.0002538
2710	0.0003726
2722	0.0005994
2734	0.0008262
2746	0.0008343
2758	0.000729
2770	0.0007857
2782	0.0008991
2794	0.0011205
2806	0.0014121
2818	0.0018765
2830	0.0026379
2842	0.0040311
2854	0.0070281
2866	0.0124578
2878	0.0171855
2890	0.0165915
2902	0.0148392
2914	0.0165402
2926	0.0196992
2938	0.020709
2950	0.0191106
2962	0.0233388
2974	0.0262683
2986	0.0172368
2998	0.0100737
3010	0.0075006
3022	0.0056106
3034	0.0042768
3046	0.0032913
3058	0.0024408
3070	0.0018495
3082	0.0014526
3094	0.001188
3106	0.0009612
3118	0.0008586
3130	0.0007209
3142	0.0006399
3154	0.0005508
3166	0.0004536
3178	0.0003483
3190	0.0002538
3202	0.0002187
3214	0.0001215
3226	9.45e-05
3238	0.0001134
3250	9.18e-05
3262	0.0001053
3274	0.0001161
3286	7.83e-05
3298	6.48e-05
3310	7.29e-05
3322	4.32e-05
3334	4.32e-05
3346	5.94e-05
3358	8.91e-05
3370	8.91e-05
3382	1.62e-05
3394	5.4e-05
3406	6.75e-05
3418	3.24e-05
3430	5.67e-05
3442	4.32e-05
3454	1.62e-05
3466	3.51e-05
3478	3.78e-05
3490	4.32e-05
3502	3.78e-05
3514	1.62e-05
3526	1.62e-05
3538	4.32e-05
3550	2.7e-05
3562	1.89e-05
3574	7.02e-05
3586	3.24e-05
3598	2.16e-05
3610	4.32e-05
3622	3.24e-05
3634	2.97e-05
3646	5.4e-05
3658	4.05e-05
3670	4.86e-05
3682	3.24e-05
3694	7.02e-05
3706	5.94e-05
3718	7.56e-05
3730	5.67e-05
3742	6.75e-05
3754	8.64e-05
3766	9.45e-05
3778	9.99e-05
3790	4.32e-05
3802	6.48e-05
3814	5.67e-05
3826	8.37e-05
3838	8.1e-05
