Infrared Spectrum: Heptadecylcyclohexane
Formula: C 23 H 46
CAS: 19781-73-8
State: gas
Instrument: HP-GC/MS/IRD
Origin: NIST Mass Spectrometry Data Center
1/CM	ABSORBANCE
550	0.0002211
562	6.7e-05
574	4.02e-05
586	0.000134
598	0.0001876
610	0.0003551
622	0.0002412
634	0.0001943
646	0.0002077
658	0.0002948
670	0.0003015
682	0.000402
694	0.0004422
706	0.0006633
718	0.0008777
730	0.0007772
742	0.0006633
754	0.0005494
766	0.0004891
778	0.0004757
790	0.0004623
802	0.0003618
814	0.0003953
826	0.0003685
838	0.0005226
850	0.0004891
862	0.0004288
874	0.0004422
886	0.0005762
898	0.0005293
910	0.0004422
922	0.0003953
934	0.0003685
946	0.0004087
958	0.0004154
970	0.000402
982	0.0003752
994	0.0003283
1006	0.0003417
1018	0.0003417
1030	0.0003551
1042	0.0003283
1054	0.0003618
1066	0.000335
1078	0.0003685
1090	0.0003216
1102	0.0003216
1114	0.0003015
1126	0.0002747
1138	0.000268
1150	0.0002546
1162	0.0002747
1174	0.0002412
1186	0.0002814
1198	0.0002881
1210	0.0003283
1222	0.0003551
1234	0.000402
1246	0.0004891
1258	0.0006566
1270	0.0007303
1282	0.0006968
1294	0.0007973
1306	0.000871
1318	0.000804
1330	0.0008442
1342	0.0012864
1354	0.0015142
1366	0.0012529
1378	0.0008844
1390	0.0006633
1402	0.0005226
1414	0.0006097
1426	0.0008241
1438	0.0016884
1450	0.0037453
1462	0.0040602
1474	0.0021373
1486	0.0008643
1498	0.0005092
1510	0.0003685
1522	0.0002747
1534	0.0002546
1546	0.0002345
1558	0.0001876
1570	0.0001675
1582	0.0001675
1594	0.0001675
1606	0.0001541
1618	0.0001407
1630	0.0001273
1642	0.0001474
1654	0.0001206
1666	0.0001407
1678	0.0001072
1690	0.0001139
1702	0.0001005
1714	0.0001005
1726	6.03e-05
1738	0.0001072
1750	8.71e-05
1762	6.7e-05
1774	8.71e-05
1786	7.37e-05
1798	8.71e-05
1810	6.7e-05
1822	6.7e-05
1834	5.36e-05
1846	6.03e-05
1858	5.36e-05
1870	4.69e-05
1882	6.7e-05
1894	6.7e-05
1906	5.36e-05
1918	6.7e-05
1930	3.35e-05
1942	3.35e-05
1954	4.69e-05
1966	4.69e-05
1978	2.01e-05
1990	5.36e-05
2002	6.03e-05
2014	6.03e-05
2026	7.37e-05
2038	0.0001072
2050	5.36e-05
2062	6.7e-05
2074	6.03e-05
2086	4.02e-05
2098	6.03e-05
2110	3.35e-05
2122	2.68e-05
2134	4.69e-05
2146	4.02e-05
2158	5.36e-05
2170	4.69e-05
2182	4.69e-05
2194	4.69e-05
2206	4.02e-05
2218	3.35e-05
2230	4.02e-05
2242	2.68e-05
2254	3.35e-05
2266	4.02e-05
2278	6.03e-05
2290	3.35e-05
2302	4.02e-05
2314	4.69e-05
2326	4.69e-05
2338	7.37e-05
2350	8.04e-05
2362	8.04e-05
2374	7.37e-05
2386	0.0001005
2398	0.0001072
2410	9.38e-05
2422	9.38e-05
2434	8.04e-05
2446	8.71e-05
2458	8.71e-05
2470	9.38e-05
2482	0.0001273
2494	0.0001273
2506	0.0001407
2518	0.0001742
2530	0.0002077
2542	0.0001943
2554	0.0001943
2566	0.0002412
2578	0.000268
2590	0.0003015
2602	0.000335
2614	0.0003953
2626	0.0004288
2638	0.0004824
2650	0.0005561
2662	0.0006566
2674	0.0007035
2686	0.0006566
2698	0.0006231
2710	0.0005762
2722	0.0005896
2734	0.0005963
2746	0.0006566
2758	0.0006834
2770	0.0007906
2782	0.0010251
2794	0.0013333
2806	0.0017085
2818	0.0022646
2830	0.0033366
2842	0.006566
2854	0.0174468
2866	0.0226058
2878	0.0126563
2890	0.0111756
2902	0.016549
2914	0.0289976
2926	0.0578545
2938	0.0581091
2950	0.0235773
2962	0.0115709
2974	0.0072293
2986	0.0036314
2998	0.0022244
3010	0.0015544
3022	0.0011457
3034	0.0009179
3046	0.0007169
3058	0.000603
3070	0.0005025
3082	0.0004623
3094	0.0003752
3106	0.0003819
3118	0.0003484
3130	0.0003082
3142	0.0003015
3154	0.0003283
3166	0.0002814
3178	0.0002814
3190	0.0002479
3202	0.0002077
3214	0.0002077
3226	0.0001876
3238	0.0001407
3250	0.000134
3262	0.0001139
3274	0.0001608
3286	0.0001139
3298	0.0001541
3310	0.0001407
3322	9.38e-05
3334	0.000134
3346	0.0001206
3358	0.0001474
3370	9.38e-05
3382	8.71e-05
3394	4.02e-05
3406	6.7e-05
3418	7.37e-05
3430	6.03e-05
3442	6.7e-05
3454	7.37e-05
3466	8.04e-05
3478	5.36e-05
3490	8.71e-05
3502	6.03e-05
3514	2.68e-05
3526	3.35e-05
3538	4.69e-05
3550	6.7e-05
3562	6.7e-05
3574	5.36e-05
3586	6.7e-05
3598	8.04e-05
3610	0.0001139
3622	9.38e-05
3634	0.0001139
3646	0.0001139
3658	0.0001139
3670	0.000134
3682	0.000134
3694	0.0001407
3706	0.0001139
3718	0.0001139
3730	8.71e-05
3742	0.0001139
3754	0.000134
3766	0.0001474
3778	0.0001407
3790	0.0001005
3802	0.0001139
3814	0.0001139
3826	0.0001072
3838	0.0001541
