Infrared Spectrum: 3-Ethyl-4-octanone
Formula: C 10 H 20 O
CAS: 19781-29-4
State: gas
Instrument: HP-GC/MS/IRD
Origin: NIST Mass Spectrometry Data Center
1/CM	ABSORBANCE
550	0.0006579
562	0.0002313
574	0.0002142
586	0.0001485
598	0.0001953
610	0.0001233
622	0.0002079
634	0.0001332
646	0.0001287
658	3.06e-05
670	0.0001098
682	0.0001134
694	0.0001548
706	0.0001665
718	0.0002061
730	0.0002241
742	0.0002808
754	0.00036
766	0.0004635
778	0.0004932
790	0.0003519
802	0.0002367
814	0.0002178
826	0.0001989
838	0.0002205
850	0.0002826
862	0.0002655
874	0.0002565
886	0.0002259
898	0.0002691
910	0.0002853
922	0.0002223
934	0.000189
946	0.000189
958	0.0001836
970	0.0002367
982	0.0002961
994	0.0003915
1006	0.0004563
1018	0.0007245
1030	0.0010926
1042	0.0012816
1054	0.0009693
1066	0.0006642
1078	0.0005085
1090	0.0005022
1102	0.0006075
1114	0.0007389
1126	0.0006597
1138	0.0005472
1150	0.0006408
1162	0.0008496
1174	0.0007353
1186	0.00054
1198	0.0004176
1210	0.0003717
1222	0.0003978
1234	0.0004626
1246	0.0005958
1258	0.0007488
1270	0.000657
1282	0.000522
1294	0.0005148
1306	0.0005463
1318	0.0005904
1330	0.0006975
1342	0.0008226
1354	0.0009531
1366	0.0010656
1378	0.0011025
1390	0.001089
1402	0.0007245
1414	0.0006525
1426	0.0006066
1438	0.0007515
1450	0.0011817
1462	0.0015615
1474	0.00117
1486	0.0005562
1498	0.0003357
1510	0.0002772
1522	0.0002349
1534	0.0001935
1546	0.0001737
1558	0.0002106
1570	0.0001404
1582	0.0001098
1594	0.0001278
1606	0.000135
1618	0.000162
1630	0.0001584
1642	0.0001764
1654	0.0002727
1666	0.0002907
1678	0.0004491
1690	0.0007812
1702	0.0019494
1714	0.0041679
1726	0.0037458
1738	0.0013068
1750	0.0005058
1762	0.000279
1774	0.0001908
1786	0.0001188
1798	0.0001053
1810	9.63e-05
1822	7.83e-05
1834	5.58e-05
1846	8.1e-05
1858	5.58e-05
1870	6.03e-05
1882	4.05e-05
1894	3.87e-05
1906	3.15e-05
1918	5.4e-05
1930	2.61e-05
1942	1.08e-05
1954	2.16e-05
1966	2.7e-05
1978	1.89e-05
1990	2.7e-05
2002	3.15e-05
2014	3.06e-05
2026	3.78e-05
2038	3.96e-05
2050	3.96e-05
2062	3.78e-05
2074	2.79e-05
2086	2.52e-05
2098	3.42e-05
2110	4.23e-05
2122	3.15e-05
2134	2.43e-05
2146	2.61e-05
2158	2.52e-05
2170	1.71e-05
2182	2.52e-05
2194	2.43e-05
2206	2.43e-05
2218	1.8e-05
2230	1.71e-05
2242	2.07e-05
2254	1.17e-05
2266	1.98e-05
2278	2.79e-05
2290	1.08e-05
2302	1.62e-05
2314	1.8e-06
2326	1.8e-06
2338	1.8e-06
2350	1.8e-06
2362	1.8e-06
2374	4.5e-06
2386	3.51e-05
2398	3.69e-05
2410	2.25e-05
2422	3.6e-05
2434	2.7e-05
2446	2.52e-05
2458	3.42e-05
2470	3.33e-05
2482	2.88e-05
2494	1.71e-05
2506	1.89e-05
2518	1.89e-05
2530	1.62e-05
2542	2.43e-05
2554	2.79e-05
2566	3.6e-05
2578	2.52e-05
2590	4.77e-05
2602	3.69e-05
2614	4.32e-05
2626	6.48e-05
2638	5.13e-05
2650	6.93e-05
2662	7.11e-05
2674	7.74e-05
2686	8.91e-05
2698	8.91e-05
2710	9.63e-05
2722	0.0001341
2734	0.0001638
2746	0.0001962
2758	0.0001908
2770	0.0001944
2782	0.0002313
2794	0.000279
2806	0.000351
2818	0.0004293
2830	0.0005643
2842	0.0007911
2854	0.0013005
2866	0.0024426
2878	0.0038259
2890	0.0041769
2902	0.0034704
2914	0.0038547
2926	0.0054081
2938	0.006966
2950	0.0067005
2962	0.0077049
2974	0.008559
2986	0.0041031
2998	0.0016632
3010	0.0009225
3022	0.0006291
3034	0.0004959
3046	0.000414
3058	0.0003465
3070	0.0003348
3082	0.0003051
3094	0.0002322
3106	0.000234
3118	0.0001917
3130	0.0001917
3142	0.0001665
3154	0.0001737
3166	0.0001449
3178	0.0001224
3190	0.0001305
3202	0.0001107
3214	0.0001062
3226	0.000108
3238	8.64e-05
3250	8.28e-05
3262	4.95e-05
3274	7.92e-05
3286	4.32e-05
3298	5.94e-05
3310	7.47e-05
3322	6.93e-05
3334	5.13e-05
3346	5.85e-05
3358	6.21e-05
3370	6.66e-05
3382	7.02e-05
3394	7.92e-05
3406	9.36e-05
3418	0.0001089
3430	0.0001215
3442	7.02e-05
3454	6.93e-05
3466	5.76e-05
3478	2.97e-05
3490	2.97e-05
3502	6.12e-05
3514	3.42e-05
3526	3.24e-05
3538	2.43e-05
3550	2.07e-05
3562	3.42e-05
3574	8.1e-06
3586	3.78e-05
3598	3.78e-05
3610	3.33e-05
3622	2.16e-05
3634	2.79e-05
3646	4.95e-05
3658	4.41e-05
3670	5.67e-05
3682	2.43e-05
3694	2.25e-05
3706	1.44e-05
3718	1.89e-05
3730	4.77e-05
3742	8.37e-05
3754	4.86e-05
3766	9e-06
3778	1.8e-06
3790	2.7e-06
3802	5.4e-06
3814	1.08e-05
3826	1.35e-05
3838	3.6e-06
