Infrared Spectrum: 4,7-Dimethyl-4-octanol
Formula: C 10 H 22 O
CAS: 19781-13-6
State: gas
Instrument: HP-GC/MS/IRD
Origin: NIST Mass Spectrometry Data Center
1/CM	ABSORBANCE
550	0.0005828
562	7.13e-05
574	0.0001333
586	5.58e-05
598	5.89e-05
610	9.3e-05
622	9.3e-06
634	0.0001333
646	0.0001302
658	0.0001302
670	9.3e-06
682	0.0001054
694	8.06e-05
706	0.0001643
718	0.0001674
730	0.0002325
742	0.0004154
754	0.0005115
766	0.0004805
778	0.0004371
790	0.0003503
802	0.0002945
814	0.0002976
826	0.0003038
838	0.0003689
850	0.0004712
862	0.0006262
874	0.0008432
886	0.0012183
898	0.0013981
910	0.0014539
922	0.0018321
934	0.0018414
946	0.0015035
958	0.0009703
970	0.0005921
982	0.0005022
994	0.000589
1006	0.0010075
1018	0.0013547
1030	0.0015004
1042	0.0014012
1054	0.0013671
1066	0.0016213
1078	0.0018135
1090	0.0019158
1102	0.0019685
1114	0.0020367
1126	0.0022134
1138	0.0027683
1150	0.0033821
1162	0.0036673
1174	0.0031372
1186	0.0022909
1198	0.0017918
1210	0.0017081
1222	0.0018104
1234	0.0018538
1246	0.0018879
1258	0.0019747
1270	0.0020739
1282	0.0020119
1294	0.0018941
1306	0.0018879
1318	0.0020832
1330	0.0023808
1342	0.0022444
1354	0.0022692
1366	0.0035123
1378	0.004805
1390	0.0037541
1402	0.0017856
1414	0.001147
1426	0.0011532
1438	0.0015872
1450	0.0025606
1462	0.0037603
1474	0.0032829
1486	0.0014694
1498	0.0007347
1510	0.0005053
1522	0.0003224
1534	0.0002666
1546	0.0002263
1558	0.0001953
1570	0.0001674
1582	0.000124
1594	0.0001147
1606	0.0001488
1618	0.0001085
1630	0.0001116
1642	0.0001333
1654	8.99e-05
1666	8.99e-05
1678	6.2e-05
1690	0.0001023
1702	9.3e-05
1714	6.2e-05
1726	6.51e-05
1738	4.96e-05
1750	6.2e-05
1762	7.44e-05
1774	5.27e-05
1786	4.34e-05
1798	7.44e-05
1810	3.41e-05
1822	4.65e-05
1834	4.34e-05
1846	3.1e-05
1858	4.34e-05
1870	2.48e-05
1882	3.41e-05
1894	5.27e-05
1906	5.58e-05
1918	4.65e-05
1930	6.2e-06
1942	3.1e-05
1954	1.24e-05
1966	2.17e-05
1978	2.17e-05
1990	1.86e-05
2002	1.55e-05
2014	1.86e-05
2026	4.03e-05
2038	2.48e-05
2050	2.48e-05
2062	2.48e-05
2074	2.48e-05
2086	0
2098	2.79e-05
2110	4.34e-05
2122	2.17e-05
2134	4.65e-05
2146	0
2158	2.79e-05
2170	2.17e-05
2182	9.3e-06
2194	3.1e-05
2206	0
2218	9.3e-06
2230	3.41e-05
2242	2.79e-05
2254	3.72e-05
2266	3.72e-05
2278	4.03e-05
2290	3.41e-05
2302	3.41e-05
2314	4.03e-05
2326	6.2e-06
2338	2.48e-05
2350	3.41e-05
2362	3.1e-05
2374	4.34e-05
2386	5.58e-05
2398	6.51e-05
2410	9.3e-05
2422	8.68e-05
2434	7.75e-05
2446	4.34e-05
2458	6.2e-05
2470	7.44e-05
2482	6.51e-05
2494	8.37e-05
2506	8.06e-05
2518	5.58e-05
2530	0.0001023
2542	9.61e-05
2554	0.0001395
2566	0.0001457
2578	0.0001612
2590	0.0002046
2602	0.0001891
2614	0.0002046
2626	0.0002511
2638	0.0002511
2650	0.0002542
2662	0.0002294
2674	0.0002511
2686	0.000279
2698	0.0003317
2710	0.0003658
2722	0.0004898
2734	0.0005673
2746	0.0005766
2758	0.0005611
2770	0.0005363
2782	0.0006696
2794	0.0007719
2806	0.000992
2818	0.0013082
2830	0.001798
2842	0.0027373
2854	0.0044764
2866	0.0067022
2878	0.010633
2890	0.0107663
2902	0.010168
2914	0.0128774
2926	0.0167183
2938	0.02108
2950	0.0210025
2962	0.0295399
2974	0.0241738
2986	0.0100657
2998	0.0041757
3010	0.0021669
3022	0.0015252
3034	0.0012152
3046	0.0009393
3058	0.0007874
3070	0.0006696
3082	0.0006324
3094	0.0005394
3106	0.0005394
3118	0.0005208
3130	0.0004309
3142	0.0004154
3154	0.0004185
3166	0.0003999
3178	0.0004154
3190	0.0003534
3202	0.0003596
3214	0.0002542
3226	0.0002201
3238	0.0002046
3250	0.0001302
3262	0.0001519
3274	0.0001736
3286	0.0001798
3298	0.0001457
3310	0.000124
3322	9.92e-05
3334	0.0001426
3346	9.92e-05
3358	0.0001147
3370	0.0001519
3382	0.0001178
3394	0.0001395
3406	0.0001364
3418	0.0001178
3430	0.0001085
3442	9.61e-05
3454	8.37e-05
3466	9.3e-05
3478	7.75e-05
3490	8.37e-05
3502	8.99e-05
3514	4.96e-05
3526	0.0001178
3538	5.89e-05
3550	4.96e-05
3562	1.86e-05
3574	6.82e-05
3586	8.68e-05
3598	8.37e-05
3610	0.0001953
3622	0.0004247
3634	0.000961
3646	0.0010106
3658	0.0004123
3670	0.0001736
3682	9.92e-05
3694	8.37e-05
3706	8.37e-05
3718	5.58e-05
3730	5.89e-05
3742	7.75e-05
3754	6.2e-05
3766	0.000124
3778	6.51e-05
3790	0.0001116
3802	0.0001674
3814	0.0001209
3826	0.0001767
3838	0.0001333
