Infrared Spectrum: 2,5-Difluoroacetophenone
Formula: C 8 H 6 F 2 O
CAS: 1979-36-8
State: gas
Origin: EPA-IR VAPOR PHASE LIBRARY
1/CM	ABSORBANCE
549.8	0.008012
559.445	0.012002
569.09	0.034312
578.734	0.044072
588.379	0.032122
598.024	0.020832
607.669	0.010952
617.313	0.007262
626.958	0.004492
636.603	0.002602
646.248	0.001622
655.893	0.001892
665.537	0.001582
675.182	0.002662
684.827	0.014632
694.472	0.031142
704.116	0.022772
713.761	0.007672
723.406	0.006292
733.051	0.006542
742.695	0.013582
752.34	0.053502
761.985	0.107652
771.63	0.087812
781.275	0.025702
790.919	0.012802
800.564	0.019842
810.209	0.047702
819.854	0.088532
829.498	0.040162
839.143	0.011332
848.788	0.006542
858.433	0.009652
868.078	0.018692
877.722	0.030012
887.367	0.047532
897.012	0.062342
906.657	0.040832
916.301	0.013322
925.946	0.006392
935.591	0.005432
945.236	0.004952
954.88	0.005772
964.525	0.006542
974.17	0.008372
983.815	0.009272
993.46	0.007452
1003.1	0.005712
1012.75	0.005822
1022.39	0.006472
1032.04	0.006062
1041.68	0.006022
1051.33	0.005742
1060.97	0.005362
1070.62	0.004382
1080.26	0.005142
1089.91	0.006232
1099.55	0.014462
1109.2	0.021402
1118.84	0.018812
1128.49	0.009582
1138.13	0.008952
1147.78	0.011972
1157.42	0.019762
1167.07	0.053872
1176.71	0.128572
1186.36	0.142592
1196	0.095382
1205.64	0.113692
1215.29	0.116062
1224.93	0.069242
1234.58	0.073012
1244.22	0.094672
1253.87	0.163962
1263.51	0.227102
1273.16	0.162402
1282.8	0.089252
1292.45	0.085842
1302.09	0.063022
1311.74	0.027592
1321.38	0.013602
1331.03	0.011832
1340.67	0.015062
1350.32	0.025542
1359.96	0.052992
1369.61	0.059272
1379.25	0.032602
1388.9	0.028112
1398.54	0.057572
1408.18	0.171042
1417.83	0.224902
1427.47	0.099942
1437.12	0.039672
1446.76	0.035832
1456.41	0.041922
1466.05	0.070032
1475.7	0.191132
1485.34	0.387312
1494.99	0.332172
1504.63	0.106322
1514.28	0.035202
1523.92	0.019252
1533.57	0.011922
1543.21	0.009492
1552.86	0.010082
1562.5	0.013492
1572.15	0.017712
1581.79	0.022232
1591.44	0.023242
1601.08	0.021412
1610.73	0.021172
1620.37	0.023472
1630.01	0.023632
1639.66	0.018762
1649.3	0.015252
1658.95	0.014632
1668.59	0.019762
1678.24	0.031092
1687.88	0.052162
1697.53	0.126102
1707.17	0.209482
1716.82	0.196732
1726.46	0.088882
1736.11	0.049212
1745.75	0.038472
1755.4	0.024642
1765.04	0.014122
1774.69	0.010032
1784.33	0.008202
1793.98	0.007122
1803.62	0.005692
1813.27	0.004242
1822.91	0.003752
1832.55	0.003622
1842.2	0.003622
1851.84	0.004512
1861.49	0.007452
1871.13	0.008402
1880.78	0.005402
1890.42	0.002662
1900.07	0.001912
1909.71	0.001582
1919.36	0.001339
1929	0.001522
1938.65	0.001852
1948.29	0.002212
1957.94	0.002492
1967.58	0.002592
1977.23	0.002652
1986.87	0.002802
1996.52	0.003292
2006.16	0.003732
2015.81	0.003042
2025.45	0.002182
2035.1	0.002002
2044.74	0.001682
2054.38	0.001762
2064.03	0.001832
2073.67	0.002292
2083.32	0.002342
2092.96	0.001792
2102.61	0.0013053
2112.25	0.0012219
2121.9	0.0011573
2131.54	0.0012164
2141.19	0.0010836
2150.83	0.0010358
2160.48	0.0012175
2170.12	0.0011477
2179.77	0.001362
2189.41	0.0012019
2199.06	0.0010798
2208.7	0.0010385
2218.35	0.0011653
2227.99	0.0012119
2237.64	0.0013445
2247.28	0.001388
2256.92	0.001592
2266.57	0.001532
2276.21	0.0012019
2285.86	0.0009542
2295.5	0.0011678
2305.15	0.0012612
2314.79	0.0012635
2324.44	0.0013147
2334.08	0.0012556
2343.73	0.001572
2353.37	0.001702
2363.02	0.001792
2372.66	0.002392
2382.31	0.002972
2391.95	0.002722
2401.6	0.002182
2411.24	0.002102
2420.89	0.002132
2430.53	0.002252
2440.18	0.002152
2449.82	0.002082
2459.47	0.001722
2469.11	0.001632
2478.75	0.001762
2488.4	0.001502
2498.04	0.001532
2507.69	0.0013893
2517.33	0.0013143
2526.98	0.0012357
2536.62	0.0011148
2546.27	0.0013898
2555.91	0.001612
2565.56	0.0014011
2575.2	0.0013547
2584.85	0.0010824
2594.49	0.0012376
2604.14	0.0011179
2613.78	0.0010844
2623.43	0.0010991
2633.07	0.000692
2642.72	0.0008943
2652.36	0.0006713
2662.01	0.0009493
2671.65	0.0010687
2681.29	0.0013715
2690.94	0.0014352
2700.58	0.0013924
2710.23	0.0011207
2719.87	0.0012559
2729.52	0.0011984
2739.16	0.0011145
2748.81	0.0011328
2758.45	0.0009397
2768.1	0.0010734
2777.74	0.0011196
2787.39	0.0009602
2797.03	0.0010078
2806.68	0.00088
2816.32	0.00093
2825.97	0.0010975
2835.61	0.001632
2845.26	0.001542
2854.9	0.001622
2864.55	0.002112
2874.19	0.001902
2883.84	0.001862
2893.48	0.002282
2903.12	0.002222
2912.77	0.002532
2922.41	0.002802
2932.06	0.002972
2941.7	0.003622
2951.35	0.003712
2960.99	0.003882
2970.64	0.004432
2980.28	0.005302
2989.93	0.006302
2999.57	0.006942
3009.22	0.009702
3018.86	0.010422
3028.51	0.007152
3038.15	0.004972
3047.8	0.004922
3057.44	0.005542
3067.09	0.006672
3076.73	0.010052
3086.38	0.011012
3096.02	0.006002
3105.67	0.003162
3115.31	0.002882
3124.95	0.002302
3134.6	0.001642
3144.24	0.001522
3153.89	0.0010205
3163.53	0.000787
3173.18	0.0008189
3182.82	0.00051923
3192.47	0.0009989
3202.11	0.0006543
3211.76	0.0007191
3221.4	0.0007737
3231.05	0.0006725
3240.69	0.0005907
3250.34	0.0004672
3259.98	0.0003749
3269.63	0.0005723
3279.27	0.000353
3288.92	0.0008138
3298.56	0.000579
3308.21	0.0006757
3317.85	0.0008217
3327.49	0.0007589
3337.14	0.0009603
3346.78	0.0008863
3356.43	0.0010618
3366.07	0.001384
3375.72	0.001892
3385.36	0.003062
3395.01	0.004472
3404.65	0.004462
3414.3	0.003122
3423.94	0.001992
3433.59	0.001652
3443.23	0.0011843
3452.88	0.0010687
3462.52	0.0009402
3472.17	0.0008676
3481.81	0.0006679
3491.46	0.00054223
3501.1	0.00049635
3510.75	0.0003794
3520.39	0.0008748
3530.04	0.0006064
3539.68	0.0006323
3549.32	0.0006001
3558.97	0.0004169
3568.61	0.0007528
3578.26	0.0006557
3587.9	0.0007135
3597.55	0.0007782
3607.19	0.0006093
3616.84	0.00050982
3626.48	0
3636.13	0.00050994
3645.77	0.000481814
3655.42	0.0007649
3665.06	0.0003872
3674.71	0.0004559
3684.35	0.0003793
3694	0.00053486
3703.64	0.000264
3713.29	0.0005576
3722.93	0.000265
3732.58	6.1e-05
3742.22	0.0006902
3751.86	0.0006611
3761.51	0.0008096
3771.15	0.0006384
3780.8	0.0006157
3790.44	0.0005699
3800.09	0.0006842
3809.73	0.0007159
3819.38	0.0007788
3829.02	0.0007852
3838.67	0.00056787
3848.31	0.0006684
3857.96	0.0006453
3867.6	0.0005854
3877.25	0.00048544
3886.89	0.000693
3896.54	0.0006325
3906.18	0.0008371
3915.83	0.000306
3925.47	0.0009018
3935.12	0.000644
3944.76	0.0009178
3954.41	0.0006009
3964.05	0.0009459
3973.69	0.0008685
3983.34	0.0007885
3992.98	0.0007391
