Infrared Spectrum: 2,5-DICARBOXY-3,4-DIPHENYL-THIOPHENE
Formula: C18 H12 S O4
CAS: 19799-42-9
State: SOLID (1.0% IN KBr PELLET)
Class: COBLENTZ
Instrument: Not specified, most likely a prism, grating, or hybrid spectrometer.
Sampling: TRANSMISSION
Path length: 0.0355 CM
Resolution: 4
Origin: ANDERSON PHYSICAL LABORATORY
1/CM	TRANSMITTANCE
665.103	0.589
673.546	0.555
681.989	0.5681
690.431	0.2652
698.874	0.2978
707.317	0.6529
715.76	0.695
724.203	0.728
732.645	0.728
741.088	0.689
749.531	0.546
757.974	0.6739
766.416	0.733
774.859	0.696
783.302	0.704
791.745	0.723
800.188	0.707
808.63	0.628
817.073	0.493
825.516	0.345
833.959	0.665
842.402	0.68
850.844	0.659
859.287	0.653
867.73	0.653
876.173	0.624
884.615	0.619
893.058	0.597
901.501	0.559
909.944	0.542
918.387	0.491
926.829	0.4689
935.272	0.539
943.715	0.604
952.158	0.663
960.601	0.704
969.043	0.71
977.486	0.73
985.929	0.734
994.372	0.737
1002.81	0.711
1011.26	0.722
1019.7	0.728
1028.14	0.702
1036.59	0.647
1045.03	0.737
1053.47	0.734
1061.91	0.711
1070.36	0.624
1078.8	0.621
1087.24	0.69
1095.69	0.73
1104.13	0.733
1112.57	0.723
1121.01	0.686
1129.46	0.606
1137.9	0.603
1146.34	0.717
1154.78	0.674
1163.23	0.592
1171.67	0.628
1180.11	0.573
1188.56	0.538
1197	0.488
1205.44	0.384
1213.88	0.241
1222.33	0.144
1230.77	0.193
1239.21	0.312
1247.66	0.294
1256.1	0.244
1264.54	0.1221
1272.98	0.07
1281.43	0.067
1289.87	0.054
1298.31	0.051
1306.75	0.132
1315.2	0.297
1323.64	0.435
1332.08	0.518
1340.53	0.544
1348.97	0.541
1357.41	0.564
1365.85	0.583
1374.3	0.567
1382.74	0.505
1391.18	0.42
1399.63	0.358
1408.07	0.375
1416.51	0.315
1424.95	0.161
1433.4	0.177
1441.84	0.33
1450.28	0.361
1458.73	0.423
1467.17	0.312
1475.61	0.375
1484.05	0.538
1492.5	0.562
1500.94	0.628
1509.38	0.622
1517.82	0.582
1526.27	0.4101
1534.71	0.324
1543.15	0.5119
1551.6	0.656
1560.04	0.662
1568.48	0.654
1576.92	0.621
1585.37	0.597
1593.81	0.594
1602.25	0.5111
1610.7	0.496
1619.14	0.452
1627.58	0.395
1636.02	0.318
1644.47	0.23
1652.91	0.058
1661.35	0.034
1669.79	0.037
1678.24	0.043
1686.68	0.064
1695.12	0.12
1703.57	0.218
1712.01	0.327
1720.45	0.464
1728.89	0.518
1737.34	0.618
1745.78	0.672
1754.22	0.701
1762.67	0.713
1771.11	0.714
1779.55	0.714
1787.99	0.714
1796.44	0.714
1804.88	0.714
1813.32	0.72
1821.76	0.722
1830.21	0.722
1838.65	0.725
1847.09	0.723
1855.54	0.72
1863.98	0.719
1872.42	0.719
1880.86	0.72
1889.31	0.723
1897.75	0.733
1906.19	0.733
1914.64	0.733
1923.08	0.731
1931.52	0.725
1939.96	0.713
1948.41	0.716
1956.85	0.72
1965.29	0.728
1973.74	0.736
1982.18	0.743
1990.62	0.745
1999.06	0.746
2007.51	0.743
2015.95	0.7423
2024.39	0.7455
2032.83	0.749
2041.28	0.751
2049.72	0.751
2058.16	0.7499
2066.61	0.744
2075.05	0.7399
2083.49	0.735
2091.93	0.7224
2100.38	0.7192
2108.82	0.717
2117.26	0.716
2125.71	0.716
2134.15	0.714
2142.59	0.7139
2151.03	0.713
2159.48	0.713
2167.92	0.713
2176.36	0.7108
2184.8	0.7061
2193.25	0.7026
2201.69	0.7011
2210.13	0.697
2218.58	0.6886
2227.02	0.686
2235.46	0.683
2243.9	0.6748
2252.35	0.6705
2260.79	0.665
2269.23	0.6569
2277.68	0.6398
2286.12	0.6242
2294.56	0.6033
2303	0.5915
2311.45	0.5736
2319.89	0.5616
2328.33	0.5552
2336.77	0.552
2345.22	0.5497
2353.66	0.544
2362.1	0.5395
2370.55	0.5323
2378.99	0.5187
2387.43	0.5072
2395.87	0.4967
2404.32	0.4832
2412.76	0.4663
2421.2	0.4543
2429.65	0.435
2438.09	0.4165
2446.53	0.3987
2454.97	0.371
2463.42	0.3523
2471.86	0.3447
2480.3	0.3263
2488.75	0.31
2497.19	0.303
2505.63	0.2905
2514.07	0.284
2522.52	0.28
2530.96	0.282
2539.4	0.286
2547.84	0.289
2556.29	0.289
2564.73	0.288
2573.17	0.286
2581.62	0.2886
2590.06	0.2935
2598.5	0.3001
2606.94	0.303
2615.39	0.3036
2623.83	0.304
2632.27	0.304
2640.72	0.304
2649.16	0.306
2657.6	0.309
2666.04	0.309
2674.49	0.307
2682.93	0.3046
2691.37	0.3001
2699.81	0.2966
2708.26	0.2906
2716.7	0.2866
2725.14	0.2732
2733.59	0.2621
2742.03	0.2506
2750.47	0.2473
2758.91	0.245
2767.36	0.2357
2775.8	0.2215
2784.24	0.2127
2792.69	0.209
2801.13	0.2074
2809.57	0.2055
2818.01	0.205
2826.46	0.205
2834.9	0.206
2843.34	0.208
2851.78	0.2107
2860.23	0.212
2868.67	0.214
2877.11	0.215
2885.56	0.2141
2894	0.211
2902.44	0.209
2910.88	0.208
2919.33	0.2062
2927.77	0.206
2936.21	0.2069
2944.66	0.2087
2953.1	0.209
2961.54	0.209
2969.98	0.209
2978.43	0.211
2986.87	0.214
2995.31	0.2207
3003.76	0.2235
3012.2	0.224
3020.64	0.224
3029.08	0.226
3037.53	0.228
3045.97	0.2346
3054.41	0.2453
3062.85	0.2581
3071.3	0.2807
3079.74	0.3049
3088.18	0.3218
3096.63	0.3357
3105.07	0.3496
3113.51	0.3651
3121.95	0.3854
3130.4	0.4021
3138.84	0.4197
3147.28	0.4372
3155.73	0.4499
3164.17	0.4622
3172.61	0.4783
3181.05	0.4951
3189.5	0.5005
3197.94	0.5052
3206.38	0.5176
3214.82	0.527
3223.27	0.5375
3231.71	0.5495
3240.15	0.553
3248.6	0.555
3257.04	0.5565
3265.48	0.5635
3273.92	0.567
3282.37	0.568
3290.81	0.5677
3299.25	0.5634
3307.7	0.5612
3316.14	0.558
3324.58	0.556
3333.02	0.555
3341.47	0.5522
3349.91	0.55
3358.35	0.5479
3366.8	0.542
3375.24	0.539
3383.68	0.538
3392.12	0.5384
3400.57	0.5416
3409.01	0.5458
3417.45	0.5503
3425.89	0.553
3434.34	0.558
3442.78	0.5647
3451.22	0.5744
3459.67	0.5779
3468.11	0.5841
3476.55	0.5968
3484.99	0.6017
3493.44	0.6139
3501.88	0.6232
3510.32	0.634
3518.77	0.6413
3527.21	0.6471
3535.65	0.6631
3544.09	0.6693
3552.54	0.6819
3560.98	0.6895
3569.42	0.6971
3577.86	0.7054
3586.31	0.716
3594.75	0.7289
3603.19	0.7364
3611.64	0.7463
3620.08	0.7501
3628.52	0.7599
3636.96	0.771
3645.41	0.7763
3653.85	0.779
3662.29	0.779
3670.74	0.7781
3679.18	0.778
3687.62	0.778
3696.06	0.778
3704.51	0.7789
3712.95	0.781
3721.39	0.781
3729.83	0.7795
3738.28	0.779
3746.72	0.779
3755.16	0.7785
3763.61	0.7765
3772.05	0.775
3780.49	0.7727
3788.93	0.772
3797.38	0.7704
3805.82	0.769
3814.26	0.7684
3822.71	0.767
3831.15	0.766
3839.59	0.764
3848.03	0.764
3856.48	0.764
3864.92	0.764
3873.36	0.7628
3881.81	0.761
3890.25	0.7623
3898.69	0.763
3907.13	0.763
3915.58	0.763
3924.02	0.763
3932.46	0.763
3940.9	0.7626
3949.35	0.761
3957.79	0.761
3966.23	0.76
3974.68	0.76
