Infrared Spectrum: ACETIC ACID, 5-NITROIMIDAZOLE-4-CARBOXAMIDO-, ETHYL ESTER
Formula: C8 H10 N4 O5
CAS: 197912-16-6
State: SOLID (1 mg / 650 mg KBr DISC)
Class: COBLENTZ III
Instrument: PERKIN-ELMER 221 (GRATING)
Instrument parameters: FILTER AT 2490, 980 CM^-^1. GRATING 4000-1428 CM^-^1, NaCl PRISM 1428-650 CM^-^1
Sampling: TRANSMISSION
Resolution: 2
Origin: SOUTHERN RESEARCH INSTITUTE
1/CM	TRANSMITTANCE
627.033	0.7433
636.053	0.7309
645.073	0.6164
654.093	0.643
663.113	0.7901
672.133	0.8092
681.153	0.8117
690.173	0.7948
699.193	0.7723
708.213	0.8266
717.233	0.8278
726.253	0.826
735.273	0.8222
744.293	0.8109
753.313	0.6704
762.333	0.823
771.353	0.8237
780.373	0.7643
789.393	0.8037
798.413	0.7872
807.433	0.737
816.453	0.6531
825.473	0.5516
834.493	0.7875
843.513	0.7715
852.533	0.7524
861.553	0.6959
870.573	0.5129
879.593	0.4587
888.613	0.6487
897.633	0.7636
906.653	0.7623
915.673	0.7426
924.693	0.7004
933.713	0.6442
942.733	0.5743
951.753	0.4331
960.773	0.2619
969.793	0.6681
978.813	0.7253
987.833	0.7249
996.853	0.7032
1005.87	0.649
1014.89	0.6664
1023.91	0.4847
1032.93	0.6725
1041.95	0.7236
1050.97	0.7244
1059.99	0.7203
1069.01	0.7038
1078.03	0.6697
1087.05	0.5964
1096.07	0.5857
1105.09	0.5387
1114.11	0.5775
1123.13	0.6602
1132.15	0.6588
1141.17	0.6497
1150.19	0.6189
1159.21	0.6108
1168.23	0.6322
1177.25	0.6265
1186.27	0.6139
1195.29	0.5836
1204.31	0.5331
1213.33	0.4676
1222.35	0.2967
1231.37	0.1828
1240.39	0.1005
1249.41	0.1839
1258.43	0.506
1267.45	0.5694
1276.47	0.5614
1285.49	0.4704
1294.51	0.3651
1303.53	0.442
1312.55	0.4777
1321.57	0.3917
1330.59	0.3232
1339.61	0.438
1348.63	0.3005
1357.65	0.1437
1366.67	0.2557
1375.69	0.4033
1384.71	0.335
1393.73	0.4543
1402.75	0.4755
1411.77	0.5579
1420.79	0.5812
1429.81	0.5535
1438.83	0.4
1447.85	0.347
1456.87	0.3369
1465.89	0.3848
1474.91	0.1903
1483.93	0.3165
1492.95	0.5218
1501.97	0.4982
1510.99	0.3343
1520.01	0.1378
1529.03	0.1387
1538.05	0.1806
1547.07	0.1284
1556.09	0.3099
1565.11	0.4469
1574.13	0.4948
1583.15	0.4644
1592.17	0.4065
1601.19	0.5167
1610.21	0.5184
1619.23	0.4823
1628.25	0.4339
1637.27	0.3636
1646.29	0.1888
1655.31	0.0586
1664.33	0.1312
1673.35	0.2945
1682.37	0.4693
1691.39	0.5375
1700.41	0.5556
1709.43	0.5766
1718.45	0.5658
1727.47	0.2942
1736.49	0.0782
1745.51	0.3459
1754.53	0.4981
1763.55	0.5583
1772.57	0.5999
1781.59	0.6166
1790.61	0.6162
1799.63	0.6101
1808.65	0.6011
1817.67	0.5815
1826.69	0.5744
1835.71	0.5727
1844.73	0.5721
1853.75	0.5675
1862.77	0.5589
1871.79	0.5574
1880.81	0.5577
1889.83	0.5597
1898.85	0.5637
1907.87	0.5698
1916.89	0.577
1925.91	0.5854
1934.93	0.5934
1943.95	0.601
1952.97	0.6077
1961.99	0.6139
1971.01	0.6192
1980.03	0.6242
1989.05	0.6279
1998.07	0.6308
2007.09	0.6327
2016.11	0.6335
2025.13	0.6344
2034.15	0.635
2043.17	0.6355
2052.19	0.6358
2061.21	0.636
2070.23	0.6359
2079.25	0.6355
2088.27	0.635
2097.29	0.6338
2106.31	0.6324
2115.33	0.6309
2124.35	0.6293
2133.37	0.6265
2142.39	0.6231
2151.41	0.62
2160.43	0.6172
2169.45	0.6141
2178.47	0.6106
2187.49	0.6085
2196.51	0.6058
2205.53	0.6025
2214.55	0.5998
2223.57	0.5983
2232.59	0.5958
2241.61	0.5926
2250.63	0.5893
2259.65	0.5865
2268.67	0.5669
2277.69	0.563
2286.71	0.5616
2295.73	0.5555
2304.75	0.5454
2313.77	0.533
2322.79	0.521
2331.81	0.5085
2340.83	0.4965
2349.85	0.4899
2358.87	0.4847
2367.89	0.4634
2376.91	0.4579
2385.93	0.452
2394.95	0.4468
2403.97	0.4415
2412.99	0.4359
2422.01	0.4291
2431.03	0.4184
2440.05	0.4057
2449.07	0.3933
2458.09	0.3865
2467.11	0.3824
2476.13	0.3757
2485.15	0.3644
2494.17	0.3503
2503.19	0.3314
2512.21	0.3229
2521.23	0.321
2530.25	0.3198
2539.27	0.3182
2548.29	0.3077
2557.31	0.2943
2566.33	0.2828
2575.35	0.2788
2584.37	0.2783
2593.39	0.2806
2602.41	0.2846
2611.43	0.286
2620.45	0.2831
2629.47	0.282
2638.49	0.2826
2647.51	0.2867
2656.53	0.2926
2665.55	0.2995
2674.57	0.3061
2683.59	0.2964
2692.61	0.2857
2701.63	0.2768
2710.65	0.2762
2719.67	0.2768
2728.69	0.2774
2737.71	0.278
2746.73	0.2777
2755.75	0.2756
2764.77	0.2739
2773.79	0.2767
2782.81	0.2819
2791.83	0.2866
2800.85	0.2929
2809.87	0.2993
2818.89	0.3055
2827.91	0.3114
2836.93	0.3169
2845.95	0.3223
2854.97	0.3264
2863.99	0.3265
2873.01	0.3217
2882.03	0.3113
2891.05	0.2972
2900.07	0.2833
2909.09	0.2751
2918.11	0.2764
2927.13	0.288
2936.15	0.3012
2945.17	0.315
2954.19	0.3226
2963.21	0.3183
2972.23	0.308
2981.25	0.3027
2990.27	0.3061
2999.29	0.3132
3008.31	0.3307
3017.33	0.3502
3026.35	0.3508
3035.37	0.3502
3044.39	0.3533
3053.41	0.3598
3062.43	0.3663
3071.45	0.3728
3080.47	0.3864
3089.49	0.3918
3098.51	0.3936
3107.53	0.3948
3116.55	0.3956
3125.57	0.3958
3134.59	0.3947
3143.61	0.3878
3152.63	0.365
3161.65	0.4015
3170.67	0.4047
3179.69	0.4059
3188.71	0.4055
3197.73	0.4044
3206.75	0.4033
3215.77	0.4022
3224.79	0.4002
3233.81	0.3972
3242.83	0.3939
3251.85	0.3899
3260.87	0.3855
3269.89	0.3803
3278.91	0.3723
3287.93	0.3592
3296.95	0.3432
3305.97	0.3258
3314.99	0.3025
3324.01	0.2747
3333.03	0.2416
3342.05	0.2035
3351.07	0.1883
3360.09	0.2268
3369.11	0.2747
3378.13	0.313
3387.15	0.3359
3396.17	0.3479
3405.19	0.3546
3414.21	0.3596
3423.23	0.3622
3432.25	0.3634
3441.27	0.3646
3450.29	0.3664
3459.31	0.3706
3468.33	0.3747
3477.35	0.3763
3486.37	0.377
3495.39	0.3776
3504.41	0.3778
3513.43	0.3772
3522.45	0.3769
3531.47	0.3767
3540.49	0.3765
3549.51	0.376
3558.53	0.376
3567.55	0.3793
3576.57	0.385
3585.59	0.3888
3594.61	0.39
3603.63	0.3912
3612.65	0.3919
3621.67	0.3928
3630.69	0.3938
3639.71	0.3948
3648.73	0.3954
3657.75	0.3956
3666.77	0.3934
3675.79	0.3918
3684.81	0.3903
3693.83	0.3891
3702.85	0.3884
3711.87	0.3876
3720.89	0.3858
3729.91	0.3826
3738.93	0.3804
3747.95	0.3801
3756.97	0.38
3765.99	0.3805
3775.01	0.3809
3784.03	0.3808
3793.05	0.3797
3802.07	0.3785
3811.09	0.3771
3820.11	0.3755
3829.13	0.3739
3838.15	0.3721
3847.17	0.3703
3856.19	0.3685
3865.21	0.3667
3874.23	0.365
3883.25	0.3633
3892.27	0.3621
3901.29	0.3609
3910.31	0.3602
3919.33	0.3596
3928.35	0.3593
3937.37	0.3591
3946.39	0.3589
3955.41	0.3588
3964.43	0.3588
3973.45	0.3586
3982.47	0.3583
3991.49	0.3576
4000.51	0.3562
