Infrared Spectrum: Pyrimido [5,4-e]-as-Triazine, 1,2-dihydro-
Formula: C5 H5 N5
CAS: 19801-79-7
State: SOLID (0.8 mg / 650 mg KBr DISC)
Class: COBLENTZ III
Instrument: PERKIN-ELMER 21 (GRATING)
Instrument parameters: FILTER CHANGE ABOUT 1070 CM^-^1
Sampling: TRANSMISSION
Resolution: 2
Origin: SOUTHERN RESEARCH INSTITUTE
1/CM	TRANSMITTANCE
620.995	0.9326
630.062	0.9124
639.129	0.8931
648.196	0.8732
657.263	0.8433
666.33	0.8133
675.398	0.7817
684.465	0.7501
693.532	0.7233
702.599	0.722
711.666	0.722
720.733	0.7086
729.8	0.6638
738.867	0.5464
747.934	0.3595
757.001	0.5201
766.069	0.722
775.136	0.6947
784.203	0.6496
793.27	0.6707
802.337	0.6699
811.404	0.658
820.471	0.6255
829.538	0.5742
838.605	0.5665
847.672	0.5959
856.74	0.7091
865.807	0.728
874.874	0.7857
883.941	0.788
893.008	0.7778
902.075	0.7599
911.142	0.7353
920.209	0.7422
929.276	0.7605
938.343	0.7392
947.411	0.6711
956.478	0.6513
965.545	0.7193
974.612	0.7608
983.679	0.7631
992.746	0.7672
1001.81	0.7761
1010.88	0.7782
1019.95	0.7767
1029.01	0.7744
1038.08	0.7726
1047.15	0.7642
1056.22	0.7378
1065.28	0.6821
1074.35	0.7544
1083.42	0.7577
1092.48	0.7565
1101.55	0.7553
1110.62	0.7555
1119.69	0.7553
1128.75	0.7526
1137.82	0.7512
1146.89	0.7468
1155.95	0.7331
1165.02	0.7213
1174.09	0.7091
1183.16	0.7088
1192.22	0.7037
1201.29	0.6999
1210.36	0.7126
1219.42	0.7066
1228.49	0.692
1237.56	0.6636
1246.62	0.5568
1255.69	0.6677
1264.76	0.6922
1273.83	0.6833
1282.89	0.6554
1291.96	0.6626
1301.03	0.6693
1310.09	0.6369
1319.16	0.5941
1328.23	0.5157
1337.3	0.4447
1346.36	0.604
1355.43	0.59
1364.5	0.5079
1373.56	0.4058
1382.63	0.3115
1391.7	0.6352
1400.77	0.6301
1409.83	0.6119
1418.9	0.5816
1427.97	0.5056
1437.03	0.1983
1446.1	0.545
1455.17	0.6375
1464.24	0.5864
1473.3	0.5396
1482.37	0.4954
1491.44	0.4422
1500.5	0.2929
1509.57	0.2316
1518.64	0.1307
1527.7	0.1193
1536.77	0.2361
1545.84	0.3303
1554.91	0.4896
1563.97	0.5421
1573.04	0.6278
1582.11	0.658
1591.17	0.6575
1600.24	0.6246
1609.31	0.5757
1618.38	0.5708
1627.44	0.5493
1636.51	0.5106
1645.58	0.2903
1654.64	0.313
1663.71	0.6582
1672.78	0.7686
1681.85	0.7858
1690.91	0.7997
1699.98	0.8147
1709.05	0.8313
1718.11	0.8388
1727.18	0.8408
1736.25	0.8407
1745.32	0.8389
1754.38	0.8362
1763.45	0.8322
1772.52	0.8288
1781.58	0.8291
1790.65	0.8275
1799.72	0.8241
1808.79	0.8196
1817.85	0.8145
1826.92	0.8134
1835.99	0.8163
1845.05	0.8213
1854.12	0.8218
1863.19	0.82
1872.25	0.8183
1881.32	0.8167
1890.39	0.8147
1899.46	0.813
1908.52	0.8119
1917.59	0.8099
1926.66	0.8064
1935.72	0.8024
1944.79	0.7995
1953.86	0.7955
1962.93	0.7897
1971.99	0.7872
1981.06	0.7899
1990.13	0.7944
1999.19	0.7961
2008.26	0.7957
2017.33	0.7947
2026.4	0.793
2035.46	0.7912
2044.53	0.7893
2053.6	0.7876
2062.66	0.7863
2071.73	0.7851
2080.8	0.7839
2089.87	0.7818
2098.93	0.7797
2108	0.7775
2117.07	0.7759
2126.13	0.7743
2135.2	0.7729
2144.27	0.7697
2153.33	0.7667
2162.4	0.7649
2171.47	0.7625
2180.54	0.7609
2189.6	0.7614
2198.67	0.7613
2207.74	0.7602
2216.8	0.7587
2225.87	0.755
2234.94	0.7511
2244.01	0.7462
2253.07	0.7415
2262.14	0.7381
2271.21	0.7355
2280.27	0.7353
2289.34	0.7421
2298.41	0.7495
2307.48	0.7539
2316.54	0.7533
2325.61	0.7493
2334.68	0.743
2343.74	0.736
2352.81	0.7273
2361.88	0.7148
2370.95	0.7096
2380.01	0.7055
2389.08	0.7005
2398.15	0.6952
2407.21	0.6897
2416.28	0.6839
2425.35	0.678
2434.41	0.6723
2443.48	0.6665
2452.55	0.6597
2461.62	0.6527
2470.68	0.6455
2479.75	0.6383
2488.82	0.6322
2497.88	0.6262
2506.95	0.6196
2516.02	0.6115
2525.09	0.602
2534.15	0.5913
2543.22	0.5772
2552.29	0.5609
2561.35	0.5509
2570.42	0.5435
2579.49	0.5385
2588.56	0.5318
2597.62	0.5195
2606.69	0.5038
2615.76	0.4859
2624.82	0.4687
2633.89	0.4551
2642.96	0.4414
2652.03	0.4265
2661.09	0.4108
2670.16	0.3953
2679.23	0.3802
2688.29	0.3642
2697.36	0.3472
2706.43	0.3281
2715.5	0.3076
2724.56	0.2788
2733.63	0.2563
2742.7	0.2425
2751.76	0.2387
2760.83	0.2378
2769.9	0.2268
2778.96	0.2049
2788.03	0.2027
2797.1	0.2106
2806.17	0.2212
2815.23	0.2265
2824.3	0.2278
2833.37	0.2275
2842.43	0.2264
2851.5	0.2231
2860.57	0.2184
2869.64	0.2137
2878.7	0.2122
2887.77	0.2165
2896.84	0.2191
2905.9	0.2212
2914.97	0.231
2924.04	0.2372
2933.11	0.2373
2942.17	0.2381
2951.24	0.24
2960.31	0.2446
2969.37	0.2539
2978.44	0.2679
2987.51	0.2786
2996.58	0.2793
3005.64	0.2792
3014.71	0.2775
3023.78	0.2721
3032.84	0.2577
3041.91	0.2458
3050.98	0.2438
3060.04	0.2485
3069.11	0.2577
3078.18	0.2708
3087.25	0.2861
3096.31	0.2991
3105.38	0.3183
3114.45	0.3357
3123.51	0.3558
3132.58	0.3786
3141.65	0.4176
3150.72	0.4297
3159.78	0.4372
3168.85	0.4443
3177.92	0.4686
3186.98	0.4911
3196.05	0.5127
3205.12	0.5323
3214.19	0.5486
3223.25	0.5653
3232.32	0.6017
3241.39	0.627
3250.45	0.6448
3259.52	0.6598
3268.59	0.6699
3277.66	0.6825
3286.72	0.684
3295.79	0.6853
3304.86	0.6856
3313.92	0.6832
3322.99	0.6785
3332.06	0.6729
3341.12	0.6653
3350.19	0.6557
3359.26	0.6448
3368.33	0.6315
3377.39	0.6147
3386.46	0.599
3395.53	0.5928
3404.59	0.5914
3413.66	0.5915
3422.73	0.5938
3431.8	0.5969
3440.86	0.6011
3449.93	0.6065
3459	0.6124
3468.06	0.6191
3477.13	0.6272
3486.2	0.636
3495.27	0.6445
3504.33	0.653
3513.4	0.6612
3522.47	0.6683
3531.53	0.6774
3540.6	0.6872
3549.67	0.6975
3558.74	0.708
3567.8	0.7186
3576.87	0.7313
3585.94	0.7464
3595	0.7584
3604.07	0.765
3613.14	0.7683
3622.21	0.7756
3631.27	0.7866
3640.34	0.7878
3649.41	0.7886
3658.47	0.7893
3667.54	0.79
3676.61	0.7894
3685.67	0.7889
3694.74	0.7897
3703.81	0.7906
3712.88	0.7911
3721.94	0.7914
3731.01	0.7908
3740.08	0.7891
3749.14	0.7857
3758.21	0.7819
3767.28	0.7804
3776.35	0.781
3785.41	0.7805
3794.48	0.7778
3803.55	0.7766
3812.61	0.7766
3821.68	0.7766
3830.75	0.7758
3839.82	0.7725
3848.88	0.7719
3857.95	0.7714
3867.02	0.7695
3876.08	0.7662
3885.15	0.7586
3894.22	0.7575
3903.29	0.7567
3912.35	0.7557
3921.42	0.7549
3930.49	0.7546
3939.55	0.7545
3948.62	0.7537
3957.69	0.7526
3966.75	0.7512
3975.82	0.7489
3984.89	0.7465
3993.96	0.7439
4003.02	0.741
4012.09	0.7375
4021.16	0.7349
4030.22	0.7343
4039.29	0.7372
4048.36	0.7407
4057.43	0.7429
4066.49	0.7429
4075.56	0.7323
