Infrared Spectrum: 4-Cyano-4'-hydroxybiphenyl
Formula: C 13 H 9 N O
CAS: 19812-93-2
State: gas
Origin: EPA-IR VAPOR PHASE LIBRARY
1/CM	ABSORBANCE
549.8	0.00687
559.445	0.00623
569.09	0.00372
578.734	0.00215
588.379	0.00186
598.024	0.00243
607.669	0.00152
617.313	0.00137
626.958	0.00243
636.603	0.00401
646.248	0.00255
655.893	0.00141
665.537	0.0009719
675.182	0.00135
684.827	0.00162
694.472	0.00136
704.116	0.00135
713.761	0.00126
723.406	0.0012
733.051	0.00115
742.695	0.00115
752.34	0.00107
761.985	0.00155
771.63	0.00275
781.275	0.00346
790.919	0.00478
800.564	0.00927
810.209	0.01735
819.854	0.02889
829.498	0.02805
839.143	0.01725
848.788	0.00891
858.433	0.00475
868.078	0.00228
877.722	0.00135
887.367	0.00127
897.012	0.00142
906.657	0.00102
916.301	0.0009453
925.946	0.00102
935.591	0.0007056
945.236	0.0009527
954.88	0.00124
964.525	0.00101
974.17	0.0009124
983.815	0.0008999
993.46	0.00138
1003.1	0.00413
1012.75	0.00266
1022.39	0.00225
1032.04	0.00153
1041.68	0.0013
1051.33	0.0012
1060.97	0.00112
1070.62	0.00141
1080.26	0.00184
1089.91	0.00418
1099.55	0.00785
1109.2	0.00618
1118.84	0.00515
1128.49	0.00617
1138.13	0.00862
1147.78	0.00776
1157.42	0.01603
1167.07	0.05052
1176.71	0.0948
1186.36	0.03221
1196	0.0121
1205.64	0.00684
1215.29	0.00625
1224.93	0.00728
1234.58	0.00827
1244.22	0.01369
1253.87	0.03288
1263.51	0.04616
1273.16	0.02295
1282.8	0.00861
1292.45	0.00559
1302.09	0.00334
1311.74	0.00351
1321.38	0.00826
1331.03	0.00904
1340.67	0.00708
1350.32	0.00404
1359.96	0.00249
1369.61	0.00197
1379.25	0.00209
1388.9	0.00229
1398.54	0.00286
1408.18	0.00302
1417.83	0.0029
1427.47	0.00658
1437.12	0.00648
1446.76	0.00292
1456.41	0.00307
1466.05	0.00319
1475.7	0.00519
1485.34	0.02089
1494.99	0.0587
1504.63	0.02925
1514.28	0.01971
1523.92	0.01101
1533.57	0.00677
1543.21	0.00546
1552.86	0.00373
1562.5	0.00329
1572.15	0.00365
1581.79	0.00701
1591.44	0.01404
1601.08	0.02287
1610.73	0.03719
1620.37	0.01819
1630.01	0.00428
1639.66	0.00273
1649.3	0.00279
1658.95	0.00264
1668.59	0.00263
1678.24	0.00184
1687.88	0.00115
1697.53	0.0007296
1707.17	0.0007073
1716.82	0.0004622
1726.46	0.0008625
1736.11	0.0007054
1745.75	0.0009631
1755.4	0.00113
1765.04	0.0008644
1774.69	0.0009837
1784.33	0.00119
1793.98	0.00122
1803.62	0.0008067
1813.27	0.0006286
1822.91	0.0005139
1832.55	0.0005246
1842.2	0.0006054
1851.84	0.000836
1861.49	0.0009256
1871.13	0.00124
1880.78	0.00143
1890.42	0.00147
1900.07	0.00154
1909.71	0.00168
1919.36	0.00146
1929	0.0008498
1938.65	0.0004884
1948.29	0.0004865
1957.94	0.0003828
1967.58	0.0004283
1977.23	0.0004682
1986.87	0.0004685
1996.52	0.0005349
2006.16	0.0007341
2015.81	0.0006099
2025.45	0.0006011
2035.1	0.000581
2044.74	0.0005535
2054.38	0.0005591
2064.03	0.0005626
2073.67	0.0006207
2083.32	0.0008261
2092.96	0.000825
2102.61	0.0006874
2112.25	0.0004552
2121.9	0.0004215
2131.54	0.0002918
2141.19	0.0003938
2150.83	0.0002915
2160.48	0.000347
2170.12	0.0003181
2179.77	0.0003676
2189.41	0.0004056
2199.06	0.0004623
2208.7	0.0007943
2218.35	0.00241
2227.99	0.00937
2237.64	0.00729
2247.28	0.0009864
2256.92	0.0006407
2266.57	0.0007177
2276.21	0.0006552
2285.86	0.0006354
2295.5	0.0005595
2305.15	0.0006379
2314.79	0.0006627
2324.44	0.0005967
2334.08	0.0006036
2343.73	0.0005436
2353.37	0.00075
2363.02	0.0006348
2372.66	0.0005588
2382.31	0.000586
2391.95	0.0006518
2401.6	0.0006644
2411.24	0.0007421
2420.89	0.00108
2430.53	0.00149
2440.18	0.00139
2449.82	0.0009502
2459.47	0.0006528
2469.11	0.0005613
2478.75	0.0006834
2488.4	0.0006007
2498.04	0.0008342
2507.69	0.0009788
2517.33	0.0009961
2526.98	0.0009163
2536.62	0.0007266
2546.27	0.0006329
2555.91	0.0005077
2565.56	0.0006513
2575.2	0.0005522
2584.85	0.0006515
2594.49	0.0005551
2604.14	0.000692
2613.78	0.0005765
2623.43	0.0004168
2633.07	0.0003807
2642.72	0.0003973
2652.36	0.0004217
2662.01	0.0004265
2671.65	0.000415
2681.29	0.0003863
2690.94	0.0004621
2700.58	0.0004184
2710.23	0.0004909
2719.87	0.0005335
2729.52	0.0004176
2739.16	0.0003556
2748.81	0.0003912
2758.45	0.0005425
2768.1	0.0005034
2777.74	0.0005403
2787.39	0.000526
2797.03	0.0004823
2806.68	0.0004755
2816.32	0.0003069
2825.97	0.0003723
2835.61	0.0003649
2845.26	0.000411
2854.9	0.0003898
2864.55	0.000517
2874.19	0.0005723
2883.84	0.0005628
2893.48	0.0005762
2903.12	0.0005355
2912.77	0.0004601
2922.41	0.0003339
2932.06	0.0003755
2941.7	0.0004852
2951.35	0.0003646
2960.99	0.0002901
2970.64	0.0005873
2980.28	0.0007507
2989.93	0.00109
2999.57	0.00145
3009.22	0.00271
3018.86	0.00384
3028.51	0.00598
3038.15	0.01086
3047.8	0.00741
3057.44	0.00434
3067.09	0.00446
3076.73	0.0045
3086.38	0.00409
3096.02	0.00345
3105.67	0.00257
3115.31	0.00163
3124.95	0.00121
3134.6	0.0009611
3144.24	0.000629
3153.89	0.0005263
3163.53	0.0004766
3173.18	0.0004349
3182.82	0.0003875
3192.47	0.0004135
3202.11	0.0005387
3211.76	0.0005519
3221.4	0.0004507
3231.05	0.0003315
3240.69	0.0002392
3250.34	0.0003143
3259.98	0.000391
3269.63	0.0003094
3279.27	0.0002854
3288.92	0.000351
3298.56	0.000133
3308.21	0.0002564
3317.85	0.0002341
3327.49	0.0003342
3337.14	0.000474
3346.78	0.000544
3356.43	0.0003475
3366.07	0.0005378
3375.72	0.0006106
3385.36	0.000566
3395.01	0.0006255
3404.65	0.0006799
3414.3	0.0008835
3423.94	0.0006043
3433.59	0.0004736
3443.23	0.0004376
3452.88	0.0004716
3462.52	0.0003567
3472.17	0.00027
3481.81	0.0004044
3491.46	0.0004096
3501.1	0.0003553
3510.75	0.0003665
3520.39	0.0003316
3530.04	0.0002793
3539.68	0.0002427
3549.32	0.0002701
3558.97	0.0004053
3568.61	0.0003323
3578.26	0.000645
3587.9	0.0005835
3597.55	0.0006947
3607.19	0.0006913
3616.84	0.00114
3626.48	0.00264
3636.13	0.00973
3645.77	0.03482
3655.42	0.02941
3665.06	0.00408
3674.71	0.00118
3684.35	0.0009025
3694	0.000691
3703.64	0.0005374
3713.29	0.0003692
3722.93	0.0003711
3732.58	0.0003046
3742.22	0.0001979
3751.86	0.0002626
3761.51	0.0003211
3771.15	0.0004638
3780.8	0.0003355
3790.44	0.0002489
3800.09	0.000195
3809.73	0.0001786
3819.38	0.0002232
3829.02	0.0004305
3838.67	0.0003114
3848.31	0.000516
3857.96	0.0004771
3867.6	0.0004575
3877.25	0.0002803
3886.89	0.0003652
3896.54	0.000425
3906.18	0.0003016
3915.83	0.0003927
3925.47	0.0003856
3935.12	0.0004417
3944.76	0.0002577
3954.41	0.0004221
3964.05	0.0003708
3973.69	0.0002002
3983.34	0.0002307
3992.98	0.0001115
