Infrared Spectrum: 2-PHENYLANTHRACENE
Formula: C20 H14
CAS: 1981-38-0
State: SOLID (KBr PELLET)
Melting point: 207 C
Class: COBLENTZ
Instrument: Not specified, most likely a prism, grating, or hybrid spectrometer.
Sampling: TRANSMISSION
Resolution: 4
Origin: UNION CARBIDE CORPORATION (CARBON PRODUCTS DIVISION)
MICROMETERS	TRANSMITTANCE
2.033	0.152
2.06621	0.155
2.09943	0.158
2.13264	0.162
2.16586	0.167
2.19907	0.172
2.23229	0.174
2.2655	0.175
2.29871	0.182
2.33193	0.194
2.36514	0.195
2.39836	0.206
2.43157	0.206
2.46479	0.211
2.498	0.215
2.53121	0.22
2.56443	0.222
2.59764	0.222
2.63086	0.226
2.66407	0.227
2.69728	0.231
2.7305	0.231
2.76371	0.239
2.79693	0.243
2.83014	0.246
2.86336	0.25
2.89657	0.251
2.92978	0.253
2.963	0.26
2.99621	0.271
3.02943	0.281
3.06264	0.289
3.09586	0.297
3.12907	0.3
3.16228	0.311
3.1955	0.316
3.22871	0.317
3.26193	0.313
3.29514	0.296
3.32836	0.3
3.36157	0.313
3.39478	0.315
3.428	0.319
3.46121	0.324
3.49443	0.336
3.52764	0.34
3.56086	0.349
3.59407	0.357
3.62728	0.364
3.6605	0.364
3.69371	0.372
3.72693	0.376
3.76014	0.378
3.79336	0.381
3.82657	0.385
3.85978	0.389
3.893	0.394
3.92621	0.404
3.95943	0.41
3.99264	0.413
4.02585	0.413
4.05907	0.421
4.09228	0.426
4.1255	0.432
4.15871	0.438
4.19193	0.441
4.22514	0.438
4.25835	0.436
4.29157	0.438
4.32478	0.441
4.358	0.454
4.39121	0.461
4.42443	0.468
4.45764	0.476
4.49085	0.48
4.52407	0.486
4.55728	0.489
4.5905	0.49
4.62371	0.493
4.65693	0.5
4.69014	0.501
4.72335	0.505
4.75657	0.509
4.78978	0.515
4.823	0.519
4.85621	0.522
4.88943	0.53
4.92264	0.534
4.95585	0.539
4.98907	0.542
5.02228	0.549
5.0555	0.55
5.08871	0.55
5.12193	0.542
5.15514	0.542
5.18835	0.545
5.22157	0.551
5.25478	0.561
5.288	0.561
5.32121	0.563
5.35442	0.566
5.38764	0.57
5.42085	0.579
5.45407	0.582
5.48728	0.577
5.5205	0.569
5.55371	0.573
5.58692	0.578
5.62014	0.581
5.65335	0.591
5.68657	0.593
5.71978	0.593
5.753	0.597
5.78621	0.603
5.81942	0.606
5.85264	0.602
5.88585	0.607
5.91907	0.613
5.95228	0.614
5.9855	0.618
6.01871	0.614
6.05192	0.623
6.08514	0.619
6.11835	0.583
6.15157	0.555
6.18478	0.613
6.218	0.626
6.25121	0.627
6.28442	0.628
6.31764	0.626
6.35085	0.628
6.38407	0.627
6.41728	0.632
6.4505	0.65
6.48371	0.651
6.51692	0.595
6.55014	0.599
6.58335	0.65
6.61657	0.65
6.64978	0.602
6.68299	0.65
6.71621	0.664
6.74942	0.571
6.78264	0.668
6.81585	0.668
6.84907	0.621
6.88228	0.51
6.91549	0.621
6.94871	0.64
6.98192	0.597
7.01514	0.615
7.04835	0.683
7.08157	0.684
7.11478	0.699
7.14799	0.706
7.18121	0.719
7.21442	0.739
7.24764	0.723
7.28085	0.712
7.31407	0.69
7.34728	0.695
7.38049	0.706
7.41371	0.65
7.44692	0.682
7.48014	0.703
7.51335	0.708
7.54657	0.712
7.57978	0.675
7.61299	0.639
7.64621	0.662
7.67942	0.683
7.71264	0.699
7.74585	0.706
7.77907	0.703
7.81228	0.65
7.84549	0.683
7.87871	0.714
7.91192	0.724
7.94514	0.73
7.97835	0.736
8.01156	0.736
8.04478	0.735
8.07799	0.734
8.11121	0.72
8.14442	0.714
8.17764	0.728
8.21085	0.743
8.24406	0.75
8.27728	0.748
8.31049	0.734
8.34371	0.742
8.37692	0.751
8.41014	0.751
8.44335	0.719
8.47656	0.748
8.50978	0.744
8.54299	0.679
8.57621	0.621
8.60942	0.688
8.64264	0.715
8.67585	0.732
8.70906	0.755
8.74228	0.759
8.77549	0.768
8.80871	0.765
8.84192	0.768
8.87514	0.773
8.90835	0.776
8.94156	0.776
8.97478	0.784
9.00799	0.787
9.04121	0.784
9.07442	0.775
9.10764	0.775
9.14085	0.788
9.17406	0.791
9.20728	0.792
9.24049	0.784
9.27371	0.763
9.30692	0.75
9.34013	0.768
9.37335	0.788
9.40656	0.8
9.43978	0.801
9.47299	0.812
9.50621	0.813
9.53942	0.819
9.57263	0.821
9.60585	0.819
9.63906	0.768
9.67228	0.799
9.70549	0.805
9.73871	0.812
9.77192	0.821
9.80513	0.825
9.83835	0.817
9.87156	0.808
9.90478	0.816
9.93799	0.769
9.97121	0.776
10.0044	0.788
10.0376	0.791
10.0708	0.817
10.1041	0.827
10.1373	0.827
10.1705	0.828
10.2037	0.829
10.2369	0.827
10.2701	0.777
10.3033	0.789
10.3366	0.799
10.3698	0.787
10.403	0.781
10.4362	0.539
10.4694	0.631
10.5026	0.775
10.5358	0.803
10.5691	0.824
10.6023	0.835
10.6355	0.84
10.6687	0.841
10.7019	0.824
10.7351	0.801
10.7683	0.825
10.8016	0.84
10.8348	0.848
10.868	0.853
10.9012	0.851
10.9344	0.839
10.9676	0.719
11.0008	0.519
11.0341	0.32
11.0673	0.429
11.1005	0.523
11.1337	0.292
11.1669	0.093
11.2001	0.191
11.2333	0.376
11.2666	0.533
11.2998	0.621
11.333	0.688
11.3662	0.718
11.3994	0.75
11.4326	0.759
11.4658	0.757
11.4991	0.638
11.5323	0.5
11.5655	0.605
11.5987	0.722
11.6319	0.768
11.6651	0.789
11.6983	0.799
11.7316	0.804
11.7648	0.805
11.798	0.791
11.8312	0.8
11.8644	0.815
11.8976	0.823
11.9308	0.824
11.9641	0.831
11.9973	0.832
12.0305	0.835
12.0637	0.829
12.0969	0.759
12.1301	0.744
12.1633	0.8
12.1966	0.819
12.2298	0.816
12.263	0.772
12.2962	0.694
12.3294	0.727
12.3626	0.799
12.3958	0.824
12.4291	0.839
12.4623	0.841
12.4955	0.847
12.5287	0.849
12.5619	0.857
12.5951	0.859
12.6283	0.86
12.6616	0.861
12.6948	0.861
12.728	0.861
12.7612	0.864
12.7944	0.867
12.8276	0.869
12.8608	0.869
12.8941	0.859
12.9273	0.75
12.9605	0.67
12.9937	0.72
13.0269	0.759
13.0601	0.73
13.0933	0.591
13.1266	0.503
13.1598	0.432
13.193	0.456
13.2262	0.514
13.2594	0.66
13.2926	0.708
13.3258	0.7
13.3591	0.626
13.3923	0.515
13.4255	0.335
13.4587	0.211
13.4919	0.098
13.5251	0.073
13.5583	0.071
13.5916	0.091
13.6248	0.222
13.658	0.371
13.6912	0.472
13.7244	0.55
13.7576	0.61
13.7908	0.64
13.8241	0.679
13.8573	0.691
13.8905	0.703
13.9237	0.718
13.9569	0.732
13.9901	0.739
14.0233	0.742
14.0566	0.746
14.0898	0.751
14.123	0.75
14.1562	0.75
14.1894	0.748
14.2226	0.747
14.2558	0.738
14.2891	0.722
14.3223	0.703
14.3555	0.692
14.3887	0.678
14.4219	0.65
14.4551	0.579
14.4883	0.498
14.5216	0.422
14.5548	0.356
14.588	0.316
14.6212	0.307
14.6544	0.388
14.6876	0.457
14.7208	0.514
14.7541	0.562
14.7873	0.587
14.8205	0.601
14.8537	0.614
14.8869	0.623
14.9201	0.635
14.9533	0.621
14.9866	0.57
15.0198	0.614
15.053	0.656
15.0862	0.674
