Infrared Spectrum: Methdilazine
Formula: C 18 H 20 N 2 S
CAS: 1982-37-2
State: gas
Instrument: HP-GC/MS/IRD
Origin: NIST Mass Spectrometry Data Center
1/CM	ABSORBANCE
550	0.0002805
562	6.15e-05
574	5.1e-05
586	0.000168
598	0.0004725
610	0.0002805
622	0.000183
634	5.25e-05
646	6.6e-05
658	7.35e-05
670	0.000135
682	0.0002415
694	0.000435
706	0.000387
718	0.001314
730	0.002583
742	0.0071355
754	0.003369
766	0.000564
778	0.0002805
790	0.0002685
802	0.0001755
814	0.000255
826	0.000345
838	0.0004605
850	0.000507
862	0.0005115
874	0.0004965
886	0.0003945
898	0.000207
910	0.000204
922	0.000387
934	0.0002025
946	0.0001725
958	0.0002265
970	0.0001875
982	0.000261
994	0.000294
1006	0.0003765
1018	0.000576
1030	0.001503
1042	0.0018615
1054	0.00117
1066	0.0006615
1078	0.0006345
1090	0.000903
1102	0.00144
1114	0.0014325
1126	0.002064
1138	0.0015015
1150	0.0013755
1162	0.001593
1174	0.001404
1186	0.001668
1198	0.001557
1210	0.0020805
1222	0.0037005
1234	0.0049335
1246	0.0053985
1258	0.0030855
1270	0.002472
1282	0.0030045
1294	0.0021345
1306	0.001395
1318	0.001638
1330	0.002808
1342	0.003348
1354	0.0021135
1366	0.001374
1378	0.0010845
1390	0.000678
1402	0.0006255
1414	0.0006585
1426	0.001023
1438	0.0030465
1450	0.007509
1462	0.015
1474	0.0056745
1486	0.003354
1498	0.001779
1510	0.0008235
1522	0.0005085
1534	0.000363
1546	0.0004275
1558	0.0009345
1570	0.0017625
1582	0.001674
1594	0.0017355
1606	0.000543
1618	0.0002835
1630	0.000228
1642	0.000189
1654	0.00024
1666	0.000285
1678	0.0002265
1690	0.000231
1702	0.000171
1714	0.0001155
1726	8.4e-05
1738	7.65e-05
1750	0.0001125
1762	0.0002115
1774	0.0001635
1786	9.9e-05
1798	0.0001335
1810	0.0001155
1822	7.95e-05
1834	0.000105
1846	0.0001935
1858	0.000111
1870	0.000135
1882	0.000306
1894	0.0001515
1906	0.0001485
1918	0.0003525
1930	0.0001485
1942	2.7e-05
1954	3e-05
1966	4.5e-06
1978	3.75e-05
1990	4.95e-05
2002	2.85e-05
2014	4.35e-05
2026	3.6e-05
2038	2.25e-05
2050	3.6e-05
2062	1.8e-05
2074	2.1e-05
2086	1.5e-05
2098	3.6e-05
2110	5.55e-05
2122	4.05e-05
2134	6e-05
2146	4.05e-05
2158	3e-05
2170	1.2e-05
2182	1.05e-05
2194	2.55e-05
2206	1.35e-05
2218	1.5e-05
2230	3e-06
2242	1.35e-05
2254	9e-06
2266	1.5e-05
2278	1.65e-05
2290	5.25e-05
2302	5.25e-05
2314	5.1e-05
2326	0.0001185
2338	5.7e-05
2350	5.55e-05
2362	7.8e-05
2374	8.1e-05
2386	3.75e-05
2398	2.7e-05
2410	5.55e-05
2422	7.5e-05
2434	7.35e-05
2446	7.95e-05
2458	8.55e-05
2470	8.25e-05
2482	8.25e-05
2494	6.45e-05
2506	8.7e-05
2518	0.0001395
2530	0.0001575
2542	0.000159
2554	0.000195
2566	0.0002415
2578	0.000234
2590	0.000171
2602	0.000162
2614	0.0001845
2626	0.000213
2638	0.000258
2650	0.000291
2662	0.0003195
2674	0.000348
2686	0.0004065
2698	0.0004335
2710	0.0004575
2722	0.000564
2734	0.000753
2746	0.001122
2758	0.0019995
2770	0.0034575
2782	0.005556
2794	0.004356
2806	0.002289
2818	0.0016665
2830	0.0016605
2842	0.002373
2854	0.00219
2866	0.001896
2878	0.001965
2890	0.0019215
2902	0.0022155
2914	0.002547
2926	0.002619
2938	0.003276
2950	0.0044205
2962	0.003909
2974	0.003552
2986	0.001488
2998	0.0009495
3010	0.000879
3022	0.000726
3034	0.0006915
3046	0.00078
3058	0.001374
3070	0.0036045
3082	0.0021465
3094	0.0008265
3106	0.000363
3118	0.000219
3130	0.0001965
3142	0.0001755
3154	0.0001995
3166	0.000138
3178	7.5e-05
3190	6.75e-05
3202	2.55e-05
3214	6.45e-05
3226	2.85e-05
3238	4.05e-05
3250	4.05e-05
3262	1.05e-05
3274	2.55e-05
3286	0
3298	2.4e-05
3310	3.9e-05
3322	2.25e-05
3334	6.9e-05
3346	3.6e-05
3358	4.05e-05
3370	4.2e-05
3382	5.1e-05
3394	3.15e-05
3406	5.4e-05
3418	6.6e-05
3430	5.25e-05
3442	5.85e-05
3454	6e-06
3466	2.55e-05
3478	5.4e-05
3490	4.65e-05
3502	6.9e-05
3514	2.7e-05
3526	4.65e-05
3538	3.9e-05
3550	5.4e-05
3562	5.1e-05
3574	6.3e-05
3586	9.6e-05
3598	4.65e-05
3610	2.25e-05
3622	2.55e-05
3634	2.1e-05
3646	7.65e-05
3658	1.5e-05
3670	8.55e-05
3682	6.75e-05
3694	3.9e-05
3706	6e-05
3718	8.25e-05
3730	5.4e-05
3742	5.7e-05
3754	9.9e-05
3766	5.55e-05
3778	7.35e-05
3790	4.35e-05
3802	4.65e-05
3814	9.3e-05
3826	6.6e-05
3838	0.0001065
