Infrared Spectrum: Pyrazine-2-carbonitrile
Formula: C 5 H 3 N 3
CAS: 19847-12-2
State: gas
Origin: EPA-IR VAPOR PHASE LIBRARY
1/CM	ABSORBANCE
549.8	0.0010058
559.445	0.000494
569.09	0.0009545
578.734	0.0007312
588.379	0.000652
598.024	0.001238
607.669	0.00105
617.313	0.001304
626.958	0.0016847
636.603	0.0011683
646.248	0.0011215
655.893	0.0014256
665.537	0.0014794
675.182	0.002258
684.827	0.002658
694.472	0.002798
704.116	0.002338
713.761	0.002818
723.406	0.002978
733.051	0.002988
742.695	0.005188
752.34	0.006108
761.985	0.003768
771.63	0.003188
781.275	0.0016104
790.919	0.001494
800.564	0.0016572
810.209	0.002018
819.854	0.004488
829.498	0.008718
839.143	0.014628
848.788	0.026988
858.433	0.017578
868.078	0.015198
877.722	0.009138
887.367	0.004648
897.012	0.003028
906.657	0.001908
916.301	0.001828
925.946	0.001918
935.591	0.002438
945.236	0.002308
954.88	0.001858
964.525	0.002568
974.17	0.004098
983.815	0.006128
993.46	0.015928
1003.1	0.035598
1012.75	0.031318
1022.39	0.038058
1032.04	0.019578
1041.68	0.017718
1051.33	0.018078
1060.97	0.011518
1070.62	0.006488
1080.26	0.003998
1089.91	0.004308
1099.55	0.003658
1109.2	0.004948
1118.84	0.007268
1128.49	0.017838
1138.13	0.031658
1147.78	0.034548
1157.42	0.022168
1167.07	0.008658
1176.71	0.008398
1186.36	0.008188
1196	0.004198
1205.64	0.004378
1215.29	0.011228
1224.93	0.013978
1234.58	0.012048
1244.22	0.0011404
1253.87	0.0015944
1263.51	0.0011583
1273.16	0.0014052
1282.8	0.004238
1292.45	0.004078
1302.09	0.003308
1311.74	0.001366
1321.38	0.0012799
1331.03	0.001888
1340.67	0.003268
1350.32	0.003678
1359.96	0.004688
1369.61	0.009758
1379.25	0.019798
1388.9	0.044038
1398.54	0.040338
1408.18	0.031728
1417.83	0.006648
1427.47	0.003328
1437.12	0.004468
1446.76	0.011418
1456.41	0.019688
1466.05	0.018918
1475.7	0.009568
1485.34	0.003278
1494.99	0.002458
1504.63	0.002658
1514.28	0.002568
1523.92	0.002728
1533.57	0.002358
1543.21	0.0017164
1552.86	0.001958
1562.5	0.001958
1572.15	0.001838
1581.79	0.0013981
1591.44	0.0014059
1601.08	0.0011761
1610.73	0.0014438
1620.37	0.001476
1630.01	0.00086154
1639.66	0.0015047
1649.3	0.001683
1658.95	0.0015456
1668.59	0.0015629
1678.24	0.002088
1687.88	0.001908
1697.53	0.002298
1707.17	0.0015461
1716.82	0.0015521
1726.46	0.0013686
1736.11	0.0010319
1745.75	0.0011201
1755.4	0.0015037
1765.04	0.001908
1774.69	0.002448
1784.33	0.002608
1793.98	0.002848
1803.62	0.002398
1813.27	0.002558
1822.91	0.002448
1832.55	0.002378
1842.2	0.002018
1851.84	0.002128
1861.49	0.002338
1871.13	0.002138
1880.78	0.002068
1890.42	0.002108
1900.07	0.002148
1909.71	0.002308
1919.36	0.002528
1929	0.002698
1938.65	0.003308
1948.29	0.003738
1957.94	0.003238
1967.58	0.001858
1977.23	0.0015512
1986.87	0.001958
1996.52	0.0016623
2006.16	0.0016875
2015.81	0.0015383
2025.45	0.0015132
2035.1	0.0015047
2044.74	0.0016887
2054.38	0.0015353
2064.03	0.0014899
2073.67	0.001878
2083.32	0.001958
2092.96	0.0016479
2102.61	0.0015207
2112.25	0.0014133
2121.9	0.0013457
2131.54	0.0013761
2141.19	0.0013759
2150.83	0.0014941
2160.48	0.0015216
2170.12	0.0015604
2179.77	0.0014867
2189.41	0.0016954
2199.06	0.0015597
2208.7	0.0017051
2218.35	0.001888
2227.99	0.002698
2237.64	0.002998
2247.28	0.002868
2256.92	0.002238
2266.57	0.0016361
2276.21	0.0014088
2285.86	0.0013256
2295.5	0.0015909
2305.15	0.0018104
2314.79	0.0016575
2324.44	0.001928
2334.08	0.0015
2343.73	0.0016083
2353.37	0.001699
2363.02	0.0017346
2372.66	0.0016659
2382.31	0.001978
2391.95	0.002138
2401.6	0.001878
2411.24	0.0014501
2420.89	0.0017673
2430.53	0.001562
2440.18	0.0018164
2449.82	0.0013707
2459.47	0.001353
2469.11	0.0017128
2478.75	0.0015685
2488.4	0.0015816
2498.04	0.002008
2507.69	0.0016002
2517.33	0.001868
2526.98	0.0015695
2536.62	0.001858
2546.27	0.0013215
2555.91	0.0015919
2565.56	0.0015886
2575.2	0.0017919
2584.85	0.0017413
2594.49	0.0013559
2604.14	0.0015672
2613.78	0.0013467
2623.43	0.0016354
2633.07	0.0015781
2642.72	0.001818
2652.36	0.0017922
2662.01	0.0015769
2671.65	0.0015926
2681.29	0.001643
2690.94	0.001746
2700.58	0.0015692
2710.23	0.001878
2719.87	0.0016159
2729.52	0.002138
2739.16	0.0014865
2748.81	0.001998
2758.45	0.002308
2768.1	0.0015607
2777.74	0.002238
2787.39	0.001506
2797.03	0.001918
2806.68	0.0014834
2816.32	0.0015202
2825.97	0.001878
2835.61	0.0016709
2845.26	0.001332
2854.9	0.001968
2864.55	0.0014643
2874.19	0.0016618
2883.84	0.001589
2893.48	0.0016353
2903.12	0.002158
2912.77	0.001948
2922.41	0.002078
2932.06	0.002198
2941.7	0.0017268
2951.35	0.001998
2960.99	0.001998
2970.64	0.001858
2980.28	0.002298
2989.93	0.002338
2999.57	0.002838
3009.22	0.003058
3018.86	0.002448
3028.51	0.003678
3038.15	0.006088
3047.8	0.009218
3057.44	0.015128
3067.09	0.026458
3076.73	0.026478
3086.38	0.020968
3096.02	0.006838
3105.67	0.003218
3115.31	0.002678
3124.95	0.001948
3134.6	0.001968
3144.24	0.00143
3153.89	0.0012997
3163.53	0.0013422
3173.18	0.001888
3182.82	0.0016108
3192.47	0.002168
3202.11	0.00177
3211.76	0.0014128
3221.4	0.001355
3231.05	0.0017588
3240.69	0.0013486
3250.34	0.0015166
3259.98	0.0017356
3269.63	0.0013836
3279.27	0.0013774
3288.92	0.001828
3298.56	0.001658
3308.21	0.0016406
3317.85	0.0010783
3327.49	0.0010875
3337.14	0.0014492
3346.78	0.001536
3356.43	0.0017695
3366.07	0.0014621
3375.72	0.000978
3385.36	0.0016643
3395.01	0.001868
3404.65	0.002058
3414.3	0.0016387
3423.94	0.00157
3433.59	0.0017393
3443.23	0.0014663
3452.88	0.002338
3462.52	0.0013436
3472.17	0.002158
3481.81	0.0017309
3491.46	0.0017498
3501.1	0.0017796
3510.75	0.0018097
3520.39	0.002068
3530.04	0.0015879
3539.68	0.001432
3549.32	0.0014791
3558.97	0.002078
3568.61	0.002068
3578.26	0.00085245
3587.9	0.0017712
3597.55	0.002008
3607.19	0.00089432
3616.84	0.0010914
3626.48	0.001641
3636.13	0.00174
3645.77	0.0015895
3655.42	0.0016086
3665.06	0.0016852
3674.71	0.002228
3684.35	0.0014824
3694	0.0010513
3703.64	0.0015372
3713.29	0.0015907
3722.93	0.0017767
3732.58	0.001818
3742.22	0.0010558
3751.86	0.00076
3761.51	0.00083688
3771.15	0.0014495
3780.8	0.001454
3790.44	0.001838
3800.09	0.0016059
3809.73	0.0011002
3819.38	0.001636
3829.02	0.002058
3838.67	0.0013331
3848.31	0.001858
3857.96	0.0015175
3867.6	0.0017212
3877.25	0.0016149
3886.89	0.0014127
3896.54	0.0014139
3906.18	0.002338
3915.83	0.000623
3925.47	0.0009454
3935.12	0.001597
3944.76	0.001868
3954.41	0.0013322
3964.05	0.002158
3973.69	0.0013786
3983.34	0.0012897
3992.98	0.0015446
