Infrared Spectrum: Piperidine, 4-(diphenylmethyl)-
Formula: C18 H21 N
CAS: 19841-73-7
State: SOLID (SPLIT MULL), FLUOROLUBE FOR 3800-1330 CM^-^1, NUJOL FOR 1330-460 CM^-^1
Class: COBLENTZ III
Instrument: DOW KBr FOREPRISM-GRATING
Instrument parameters: BLAZED AT 3.5, 12.0, 20.0 MICRON AND CHANGED AT 5.0, 7.5, 14.9 MICRON
Sampling: TRANSMISSION
Resolution: 2
Origin: DOW CHEMICAL COMPANY
1/CM	TRANSMITTANCE
459	0.8049
468	0.8071
477	0.8056
486	0.7948
495	0.7527
504	0.8077
513	0.8031
522	0.8012
531	0.786
540	0.7899
549	0.5211
558	0.8225
567	0.8333
576	0.8378
585	0.8388
594	0.8278
603	0.4407
612	0.8347
621	0.7039
630	0.8508
639	0.8363
648	0.8537
657	0.851
666	0.8418
675	0.8246
684	0.7795
693	0.4154
702	0.0978
711	0.6574
720	0.7241
729	0.7572
738	0.7486
747	0.4184
756	0.6444
765	0.7573
774	0.6827
783	0.3163
792	0.7195
801	0.7936
810	0.8271
819	0.8049
828	0.6673
837	0.8351
846	0.8412
855	0.8388
864	0.8514
873	0.852
882	0.8519
891	0.8407
900	0.8342
909	0.7512
918	0.7896
927	0.8239
936	0.8376
945	0.831
954	0.8119
963	0.7266
972	0.6701
981	0.8185
990	0.8371
999	0.8089
1008	0.8192
1017	0.7026
1026	0.8216
1035	0.7599
1044	0.8326
1053	0.8245
1062	0.7992
1071	0.7474
1080	0.7998
1089	0.794
1098	0.7428
1107	0.8097
1116	0.7961
1125	0.7854
1134	0.7546
1143	0.794
1152	0.7028
1161	0.7701
1170	0.8136
1179	0.7837
1188	0.818
1197	0.7936
1206	0.8224
1215	0.8097
1224	0.7853
1233	0.7411
1242	0.8102
1251	0.7945
1260	0.7522
1269	0.6791
1278	0.7574
1287	0.756
1296	0.7622
1305	0.7114
1314	0.7472
1323	0.7343
1332	0.7402
1341	0.6875
1350	0.6643
1359	0.7001
1368	0.799
1377	0.8117
1386	0.8162
1395	0.823
1404	0.8198
1413	0.8056
1422	0.7769
1431	0.7986
1440	0.7335
1449	0.5308
1458	0.8234
1467	0.839
1476	0.824
1485	0.7912
1494	0.5304
1503	0.8597
1512	0.8831
1521	0.8762
1530	0.8576
1539	0.8551
1548	0.8622
1557	0.8537
1566	0.8509
1575	0.8328
1584	0.7732
1593	0.6818
1602	0.7611
1611	0.8191
1620	0.8132
1629	0.8115
1638	0.8189
1647	0.8269
1656	0.8316
1665	0.8363
1674	0.8417
1683	0.8439
1692	0.8466
1701	0.8537
1710	0.8564
1719	0.8541
1728	0.8537
1737	0.8523
1746	0.8479
1755	0.846
1764	0.848
1773	0.8485
1782	0.8491
1791	0.8454
1800	0.8339
1809	0.8278
1818	0.8308
1827	0.8384
1836	0.8413
1845	0.8405
1854	0.8383
1863	0.83
1872	0.8239
1881	0.8227
1890	0.8066
1899	0.8213
1908	0.8273
1917	0.8301
1926	0.8282
1935	0.8179
1944	0.7945
1953	0.7979
1962	0.8308
1971	0.8137
1980	0.8199
1989	0.8188
1998	0.8266
2007	0.8305
2016	0.8275
2025	0.8246
2034	0.8218
2043	0.8191
2052	0.8162
2061	0.8135
2070	0.811
2079	0.8083
2088	0.8054
2097	0.8027
2106	0.8
2115	0.7972
2124	0.7947
2133	0.7924
2142	0.7901
2151	0.7875
2160	0.7848
2169	0.7821
2178	0.7793
2187	0.7762
2196	0.7731
2205	0.77
2214	0.7663
2223	0.7615
2232	0.7565
2241	0.751
2250	0.7455
2259	0.7403
2268	0.7354
2277	0.7324
2286	0.73
2295	0.7271
2304	0.7238
2313	0.7206
2322	0.7177
2331	0.7159
2340	0.7151
2349	0.7142
2358	0.7132
2367	0.7119
2376	0.7107
2385	0.7093
2394	0.7077
2403	0.7061
2412	0.7045
2421	0.7027
2430	0.7008
2439	0.6989
2448	0.697
2457	0.6949
2466	0.6929
2475	0.6908
2484	0.6888
2493	0.6867
2502	0.6847
2511	0.6827
2520	0.6808
2529	0.6787
2538	0.6758
2547	0.6727
2556	0.6697
2565	0.6666
2574	0.6636
2583	0.6595
2592	0.6554
2601	0.6512
2610	0.6471
2619	0.6427
2628	0.6381
2637	0.6334
2646	0.6298
2655	0.6266
2664	0.6244
2673	0.6222
2682	0.6187
2691	0.6152
2700	0.611
2709	0.6066
2718	0.601
2727	0.5949
2736	0.5933
2745	0.5902
2754	0.5818
2763	0.5715
2772	0.5628
2781	0.5538
2790	0.5448
2799	0.5348
2808	0.524
2817	0.5058
2826	0.4831
2835	0.4254
2844	0.2346
2853	0.4036
2862	0.4681
2871	0.4204
2880	0.4078
2889	0.3796
2898	0.3283
2907	0.2665
2916	0.4866
2925	0.3772
2934	0.5544
2943	0.5295
2952	0.3749
2961	0.5867
2970	0.5915
2979	0.5779
2988	0.5625
2997	0.5386
3006	0.5315
3015	0.5343
3024	0.45
3033	0.5229
3042	0.513
3051	0.493
3060	0.5226
3069	0.4988
3078	0.5405
3087	0.5475
3096	0.5466
3105	0.5452
3114	0.5596
3123	0.5585
3132	0.5566
3141	0.5534
3150	0.5495
3159	0.5448
3168	0.5398
3177	0.5352
3186	0.5317
3195	0.5278
3204	0.5244
3213	0.5219
3222	0.5197
3231	0.5176
3240	0.5155
3249	0.5133
3258	0.5111
3267	0.5081
3276	0.5046
3285	0.5004
3294	0.4934
3303	0.4532
3312	0.3844
3321	0.5048
3330	0.5021
3339	0.499
3348	0.496
3357	0.4936
3366	0.4917
3375	0.49
3384	0.4884
3393	0.4865
3402	0.4845
3411	0.4825
3420	0.4809
3429	0.4793
3438	0.4779
3447	0.4765
3456	0.4755
3465	0.4744
3474	0.4734
3483	0.4724
3492	0.4714
3501	0.4705
3510	0.4695
3519	0.4685
3528	0.4672
3537	0.4657
3546	0.4642
3555	0.4627
3564	0.4613
3573	0.4595
3582	0.4578
3591	0.456
3600	0.4543
3609	0.4526
3618	0.4508
3627	0.449
3636	0.4473
3645	0.4455
3654	0.4438
3663	0.4417
3672	0.4395
3681	0.4373
3690	0.4351
3699	0.4329
3708	0.4309
3717	0.4288
3726	0.4267
3735	0.4247
3744	0.4231
3753	0.4213
3762	0.4197
3771	0.4181
3780	0.4167
3789	0.4149
3798	0.4131
