Infrared Spectrum: MALONAMIC ACID, 2-ETHYL-2-PHENYL-, METHYL ESTER
Formula: C12 H15 N O3
CAS: 19846-01-6
State: SOLID (OIL MULL)
Class: COBLENTZ III
Instrument: PERKIN-ELMER 21 (GRATING)
Instrument parameters: NaCl PRISM
Sampling: TRANSMISSION
Resolution: 2
Origin: SMITH KLINE & FRENCH LABS.
MICROMETERS	TRANSMITTANCE
1.987	0.63
2.02126	0.63
2.05552	0.634
2.08977	0.633
2.12403	0.639
2.15829	0.649
2.19255	0.658
2.2268	0.673
2.26106	0.677
2.29532	0.677
2.32958	0.656
2.36383	0.665
2.39809	0.668
2.43235	0.673
2.46661	0.683
2.50086	0.699
2.53512	0.708
2.56938	0.728
2.60364	0.733
2.63789	0.738
2.67215	0.741
2.70641	0.752
2.74067	0.752
2.77492	0.762
2.80918	0.769
2.84344	0.777
2.8777	0.749
2.91195	0.702
2.94621	0.613
2.98047	0.417
3.01473	0.327
3.04898	0.531
3.08324	0.588
3.1175	0.562
3.15176	0.554
3.18602	0.468
3.22027	0.411
3.25453	0.448
3.28879	0.477
3.32305	0.484
3.3573	0.462
3.39156	0.361
3.42582	0.138
3.46008	0.073
3.49433	0.071
3.52859	0.082
3.56285	0.097
3.59711	0.426
3.63136	0.719
3.66562	0.799
3.69988	0.8
3.73414	0.801
3.76839	0.808
3.80265	0.819
3.83691	0.833
3.87117	0.851
3.90542	0.858
3.93968	0.88
3.97394	0.895
4.0082	0.897
4.04245	0.904
4.07671	0.911
4.11097	0.909
4.14523	0.913
4.17948	0.913
4.21374	0.915
4.248	0.924
4.28226	0.913
4.31652	0.902
4.35077	0.908
4.38503	0.914
4.41929	0.923
4.45355	0.928
4.4878	0.929
4.52206	0.929
4.55632	0.933
4.59058	0.937
4.62483	0.941
4.65909	0.94
4.69335	0.939
4.72761	0.946
4.76186	0.945
4.79612	0.957
4.83038	0.957
4.86464	0.957
4.89889	0.941
4.93315	0.95
4.96741	0.95
5.00167	0.959
5.03592	0.959
5.07018	0.961
5.10444	0.954
5.1387	0.95
5.17295	0.952
5.20721	0.964
5.24147	0.961
5.27573	0.961
5.30998	0.961
5.34424	0.964
5.3785	0.964
5.41276	0.973
5.44702	0.973
5.48127	0.964
5.51553	0.95
5.54979	0.93
5.58405	0.926
5.6183	0.912
5.65256	0.88
5.68682	0.823
5.72108	0.781
5.75533	0.712
5.78959	0.58
5.82385	0.361
5.85811	0.309
5.89236	0.403
5.92662	0.408
5.96088	0.326
5.99514	0.269
6.02939	0.31
6.06365	0.397
6.09791	0.464
6.13217	0.503
6.16642	0.527
6.20068	0.538
6.23494	0.537
6.2692	0.5
6.30345	0.509
6.33771	0.462
6.37197	0.507
6.40623	0.6
6.44048	0.667
6.47474	0.704
6.509	0.741
6.54326	0.757
6.57752	0.781
6.61177	0.788
6.64603	0.781
6.68029	0.638
6.71455	0.595
6.7488	0.577
6.78306	0.556
6.81732	0.466
6.85158	0.26
6.88583	0.2
6.92009	0.204
6.95435	0.237
6.98861	0.266
7.02286	0.543
7.05712	0.678
7.09138	0.714
7.12564	0.721
7.15989	0.707
7.19415	0.66
7.22841	0.51
7.26267	0.299
7.29692	0.232
7.33118	0.358
7.36544	0.448
7.3997	0.59
7.43395	0.6
7.46821	0.616
7.50247	0.588
7.53673	0.531
7.57098	0.448
7.60524	0.4
7.6395	0.578
7.67376	0.613
7.70802	0.579
7.74227	0.538
7.77653	0.46
7.81079	0.559
7.84505	0.647
7.8793	0.649
7.91356	0.616
7.94782	0.551
7.98208	0.483
8.01633	0.404
8.05059	0.337
8.08485	0.287
8.11911	0.249
8.15336	0.253
8.18762	0.341
8.22188	0.404
8.25614	0.487
8.29039	0.557
8.32465	0.61
8.35891	0.673
8.39317	0.707
8.42742	0.707
8.46168	0.661
8.49594	0.677
8.5302	0.738
8.56445	0.747
8.59871	0.752
8.63297	0.75
8.66723	0.711
8.70148	0.647
8.73574	0.602
8.77	0.498
8.80426	0.417
8.83852	0.35
8.87277	0.341
8.90703	0.395
8.94129	0.479
8.97555	0.543
9.0098	0.476
9.04406	0.45
9.07832	0.548
9.11258	0.567
9.14683	0.589
9.18109	0.641
9.21535	0.693
9.24961	0.722
9.28386	0.75
9.31812	0.75
9.35238	0.73
9.38664	0.769
9.42089	0.799
9.45515	0.808
9.48941	0.811
9.52367	0.808
9.55792	0.811
9.59218	0.836
9.62644	0.848
9.6607	0.848
9.69495	0.813
9.72921	0.69
9.76347	0.802
9.79773	0.82
9.83198	0.838
9.86624	0.839
9.9005	0.813
9.93476	0.749
9.96902	0.618
10.0033	0.478
10.0375	0.461
10.0718	0.605
10.106	0.7
10.1403	0.75
10.1746	0.781
10.2088	0.8
10.2431	0.802
10.2773	0.812
10.3116	0.812
10.3458	0.817
10.3801	0.838
10.4144	0.838
10.4486	0.838
10.4829	0.835
10.5171	0.811
10.5514	0.808
10.5857	0.838
10.6199	0.862
10.6542	0.866
10.6884	0.875
10.7227	0.876
10.7569	0.867
10.7912	0.841
10.8255	0.796
10.8597	0.721
10.894	0.694
10.9282	0.788
10.9625	0.829
10.9967	0.858
11.031	0.887
11.0653	0.897
11.0995	0.898
11.1338	0.896
11.168	0.858
11.2023	0.818
11.2365	0.84
11.2708	0.868
11.3051	0.885
11.3393	0.889
11.3736	0.897
11.4078	0.898
11.4421	0.9
11.4763	0.902
11.5106	0.907
11.5449	0.907
11.5791	0.906
11.6134	0.902
11.6476	0.898
11.6819	0.892
11.7162	0.878
11.7504	0.862
11.7847	0.852
11.8189	0.842
11.8532	0.827
11.8874	0.809
11.9217	0.799
11.956	0.772
11.9902	0.747
12.0245	0.711
12.0587	0.694
12.093	0.68
12.1272	0.665
12.1615	0.654
12.1958	0.629
12.23	0.559
12.2643	0.498
12.2985	0.5
12.3328	0.627
12.367	0.717
12.4013	0.767
12.4356	0.795
12.4698	0.808
12.5041	0.803
12.5383	0.78
12.5726	0.718
12.6068	0.694
12.6411	0.701
12.6754	0.747
12.7096	0.791
12.7439	0.802
12.7781	0.824
12.8124	0.835
12.8467	0.847
12.8809	0.852
12.9152	0.856
12.9494	0.855
12.9837	0.857
13.0179	0.853
13.0522	0.851
13.0865	0.838
13.1207	0.828
13.155	0.789
13.1892	0.758
13.2235	0.717
13.2577	0.747
13.292	0.784
13.3263	0.797
13.3605	0.797
13.3948	0.792
13.429	0.767
13.4633	0.719
13.4975	0.671
13.5318	0.556
13.5661	0.468
13.6003	0.415
13.6346	0.42
13.6688	0.548
13.7031	0.619
13.7373	0.657
13.7716	0.666
13.8059	0.655
13.8401	0.627
13.8744	0.602
13.9086	0.568
13.9429	0.549
13.9772	0.544
14.0114	0.549
14.0457	0.584
14.0799	0.59
14.1142	0.611
14.1484	0.63
14.1827	0.635
14.217	0.635
14.2512	0.627
14.2855	0.587
14.3197	0.538
14.354	0.47
14.3882	0.408
14.4225	0.349
14.4568	0.333
14.491	0.367
14.5253	0.422
14.5595	0.499
14.5938	0.562
14.628	0.6
14.6623	0.63
14.6966	0.645
14.7308	0.647
14.7651	0.621
14.7993	0.567
14.8336	0.517
14.8678	0.51
14.9021	0.543
