Infrared Spectrum: 2,5-Dichloroanisole
Formula: C 7 H 6 Cl 2 O
CAS: 1984-58-3
State: gas
Origin: EPA-IR VAPOR PHASE LIBRARY
1/CM	ABSORBANCE
549.8	0.003305
559.445	0.002585
569.09	0.004875
578.734	0.010905
588.379	0.020485
598.024	0.025415
607.669	0.023505
617.313	0.014235
626.958	0.005205
636.603	0.002825
646.248	0.002125
655.893	0.0013392
665.537	0.0014646
675.182	0.002085
684.827	0.0017272
694.472	0.004015
704.116	0.006945
713.761	0.005005
723.406	0.002315
733.051	0.002215
742.695	0.002465
752.34	0.002285
761.985	0.002475
771.63	0.002315
781.275	0.004415
790.919	0.015655
800.564	0.033685
810.209	0.024855
819.854	0.012145
829.498	0.013265
839.143	0.022075
848.788	0.016965
858.433	0.023255
868.078	0.053655
877.722	0.056175
887.367	0.017215
897.012	0.006415
906.657	0.004395
916.301	0.003735
925.946	0.003635
935.591	0.002895
945.236	0.002675
954.88	0.003125
964.525	0.004495
974.17	0.003765
983.815	0.005745
993.46	0.009745
1003.1	0.019145
1012.75	0.041215
1022.39	0.068105
1032.04	0.069815
1041.68	0.046315
1051.33	0.040585
1060.97	0.063905
1070.62	0.071215
1080.26	0.056485
1089.91	0.075695
1099.55	0.052145
1109.2	0.016935
1118.84	0.015805
1128.49	0.034355
1138.13	0.034755
1147.78	0.012885
1157.42	0.007445
1167.07	0.006215
1176.71	0.007875
1186.36	0.010405
1196	0.009805
1205.64	0.009975
1215.29	0.012495
1224.93	0.021925
1234.58	0.036285
1244.22	0.060675
1253.87	0.090535
1263.51	0.105915
1273.16	0.078685
1282.8	0.035865
1292.45	0.013695
1302.09	0.007235
1311.74	0.004865
1321.38	0.004115
1331.03	0.003485
1340.67	0.004185
1350.32	0.005985
1359.96	0.010115
1369.61	0.020715
1379.25	0.041255
1388.9	0.060115
1398.54	0.055965
1408.18	0.033835
1417.83	0.022315
1427.47	0.025935
1437.12	0.036315
1446.76	0.053105
1456.41	0.059955
1466.05	0.087045
1475.7	0.151005
1485.34	0.142315
1494.99	0.050255
1504.63	0.015865
1514.28	0.011285
1523.92	0.009375
1533.57	0.008355
1543.21	0.009675
1552.86	0.016035
1562.5	0.034835
1572.15	0.067105
1581.79	0.086675
1591.44	0.060265
1601.08	0.022835
1610.73	0.010685
1620.37	0.006245
1630.01	0.004225
1639.66	0.003885
1649.3	0.003605
1658.95	0.003565
1668.59	0.003695
1678.24	0.003505
1687.88	0.002775
1697.53	0.002545
1707.17	0.002605
1716.82	0.002855
1726.46	0.003405
1736.11	0.003185
1745.75	0.002745
1755.4	0.002975
1765.04	0.003245
1774.69	0.003275
1784.33	0.003215
1793.98	0.002595
1803.62	0.002435
1813.27	0.001975
1822.91	0.0015901
1832.55	0.0015025
1842.2	0.002105
1851.84	0.003315
1861.49	0.004075
1871.13	0.003745
1880.78	0.002725
1890.42	0.002375
1900.07	0.002285
1909.71	0.001945
1919.36	0.0017246
1929	0.0015295
1938.65	0.001775
1948.29	0.001885
1957.94	0.002025
1967.58	0.001925
1977.23	0.001945
1986.87	0.001765
1996.52	0.0016481
2006.16	0.0016873
2015.81	0.002025
2025.45	0.002115
2035.1	0.001985
2044.74	0.002185
2054.38	0.002215
2064.03	0.002405
2073.67	0.002235
2083.32	0.002265
2092.96	0.002325
2102.61	0.002235
2112.25	0.002285
2121.9	0.002875
2131.54	0.002905
2141.19	0.002565
2150.83	0.001875
2160.48	0.001805
2170.12	0.0017019
2179.77	0.0017231
2189.41	0.0014836
2199.06	0.0015965
2208.7	0.0013079
2218.35	0.0012459
2227.99	0.0011628
2237.64	0.001282
2247.28	0.0017334
2256.92	0.001835
2266.57	0.002145
2276.21	0.001985
2285.86	0.0017103
2295.5	0.0016918
2305.15	0.0014058
2314.79	0.0013222
2324.44	0.0016779
2334.08	0.0015727
2343.73	0.001682
2353.37	0.001905
2363.02	0.001558
2372.66	0.0014631
2382.31	0.0014789
2391.95	0.0011576
2401.6	0.0012584
2411.24	0.0010729
2420.89	0.0012042
2430.53	0.0012741
2440.18	0.001271
2449.82	0.001765
2459.47	0.0015654
2469.11	0.001765
2478.75	0.0017059
2488.4	0.001925
2498.04	0.001965
2507.69	0.002565
2517.33	0.003085
2526.98	0.003155
2536.62	0.002565
2546.27	0.001765
2555.91	0.0015884
2565.56	0.001469
2575.2	0.001199
2584.85	0.0012279
2594.49	0.0014892
2604.14	0.001865
2613.78	0.0015946
2623.43	0.001815
2633.07	0.002075
2642.72	0.002395
2652.36	0.002595
2662.01	0.002295
2671.65	0.001935
2681.29	0.001865
2690.94	0.0014677
2700.58	0.0014499
2710.23	0.001955
2719.87	0.001795
2729.52	0.001855
2739.16	0.0017278
2748.81	0.0016395
2758.45	0.001975
2768.1	0.0017054
2777.74	0.001985
2787.39	0.002035
2797.03	0.002825
2806.68	0.003195
2816.32	0.004415
2825.97	0.006225
2835.61	0.008925
2845.26	0.011915
2854.9	0.013955
2864.55	0.013665
2874.19	0.010245
2883.84	0.008285
2893.48	0.007775
2903.12	0.009525
2912.77	0.011835
2922.41	0.013265
2932.06	0.015085
2941.7	0.024015
2951.35	0.028525
2960.99	0.024705
2970.64	0.020305
2980.28	0.014195
2989.93	0.010865
2999.57	0.011515
3009.22	0.017495
3018.86	0.018775
3028.51	0.010555
3038.15	0.006065
3047.8	0.004805
3057.44	0.004435
3067.09	0.004135
3076.73	0.004375
3086.38	0.004005
3096.02	0.003495
3105.67	0.003135
3115.31	0.002395
3124.95	0.002245
3134.6	0.001815
3144.24	0.001975
3153.89	0.0014556
3163.53	0.001835
3173.18	0.001865
3182.82	0.0012482
3192.47	0.000791
3202.11	0.0008863
3211.76	0.0011839
3221.4	0.0010217
3231.05	0.0013888
3240.69	0.0008527
3250.34	0.00073768
3259.98	0.0011144
3269.63	0.000542
3279.27	0.0012925
3288.92	0.0010738
3298.56	0.0013682
3308.21	0.00081128
3317.85	0.0013219
3327.49	0.0011809
3337.14	0.00079253
3346.78	0.0011198
3356.43	0.0008603
3366.07	0.00078627
3375.72	0.00093
3385.36	0.0008551
3395.01	0.0008677
3404.65	0.0010249
3414.3	0.0011409
3423.94	0.0012266
3433.59	0.0010521
3443.23	0.00075719
3452.88	0.0013343
3462.52	0.00077687
3472.17	0.00084428
3481.81	0.0009653
3491.46	0.0011075
3501.1	0.000583
3510.75	0.0009239
3520.39	0.0014585
3530.04	0.0015012
3539.68	0.000896
3549.32	0.000616
3558.97	0.0009542
3568.61	0.0008814
3578.26	0.00079285
3587.9	0.0009826
3597.55	0.0013571
3607.19	0.0010448
3616.84	0.0008497
3626.48	0.0006769
3636.13	0.0008639
3645.77	0.00077707
3655.42	0.0010132
3665.06	0.0010342
3674.71	0.000525
3684.35	0.000627
3694	0.0012095
3703.64	0.0012591
3713.29	0.001278
3722.93	0.00082307
3732.58	0.0006768
3742.22	0.000339
3751.86	0.000494
3761.51	7e-06
3771.15	0.0009937
3780.8	0.000317
3790.44	0.0012393
3800.09	0.0014564
3809.73	0.0015346
3819.38	0.000581
3829.02	0.0009475
3838.67	0.0009622
3848.31	0.0008474
3857.96	0.0015908
3867.6	0.0015711
3877.25	0.0010373
3886.89	0.0015366
3896.54	0.00076727
3906.18	0.000276
3915.83	0.0011333
3925.47	0.0015032
3935.12	0.0013883
3944.76	0.001555
3954.41	0.0017341
3964.05	0.0014584
3973.69	0.0011756
3983.34	0.0017445
3992.98	0.0017417
