Infrared Spectrum: 1,1-Dimethyl(1,2,3,4-tetrahydronaphthalene)
Formula: C 12 H 16
CAS: 1985-59-7
State: gas
Instrument: HP-GC/MS/IRD
Origin: NIST Mass Spectrometry Data Center
1/CM	ABSORBANCE
550	0.0006325
562	0.0006325
574	0.0002075
586	9.25e-05
598	0.0001575
610	9.5e-05
622	1e-05
634	0.00012
646	0.0001525
658	0.0001975
670	0.000195
682	0.000255
694	0.0002975
706	0.000685
718	0.0023825
730	0.0045375
742	0.004205
754	0.0066675
766	0.003245
778	0.0007225
790	0.00051
802	0.0003875
814	0.0003875
826	0.0002275
838	0.0002675
850	0.0003425
862	0.0004025
874	0.0003825
886	0.000305
898	0.0002825
910	0.0001925
922	0.0002975
934	0.000465
946	0.00051
958	0.0007025
970	0.0005975
982	0.000215
994	0.0001725
1006	0.0002325
1018	0.000265
1030	0.0006775
1042	0.0013825
1054	0.0013175
1066	0.00071
1078	0.0007675
1090	0.000785
1102	0.00028
1114	0.0002275
1126	0.0003925
1138	0.000325
1150	0.000195
1162	0.0003375
1174	0.0004275
1186	0.000335
1198	0.0004775
1210	0.000475
1222	0.0004025
1234	0.0005525
1246	0.000365
1258	0.0002375
1270	0.0005225
1282	0.0013375
1294	0.0010725
1306	0.0003275
1318	0.000235
1330	0.000445
1342	0.000705
1354	0.0011875
1366	0.002205
1378	0.0016675
1390	0.001465
1402	0.0007725
1414	0.0006025
1426	0.00107
1438	0.0024775
1450	0.00364
1462	0.003715
1474	0.0036575
1486	0.004535
1498	0.0028025
1510	0.00077
1522	0.000345
1534	0.0002225
1546	0.00016
1558	0.000245
1570	0.0003925
1582	0.0004225
1594	0.0004925
1606	0.000505
1618	0.0003025
1630	0.000185
1642	0.000135
1654	0.0001425
1666	0.000155
1678	0.0001575
1690	0.0002475
1702	0.0002125
1714	0.0001425
1726	0.00012
1738	0.000105
1750	8e-05
1762	9.25e-05
1774	0.00018
1786	0.0002275
1798	0.00021
1810	0.0002625
1822	0.0002175
1834	0.0001975
1846	0.0001275
1858	0.000115
1870	0.00016
1882	0.0001825
1894	0.00025
1906	0.00039
1918	0.000275
1930	0.00027
1942	0.00031
1954	9.75e-05
1966	7.25e-05
1978	6e-05
1990	2.5e-05
2002	4e-05
2014	2.25e-05
2026	5.25e-05
2038	2.25e-05
2050	2.75e-05
2062	4e-05
2074	1.5e-05
2086	2.25e-05
2098	0
2110	5e-06
2122	1e-05
2134	3.25e-05
2146	1.75e-05
2158	2.75e-05
2170	2.75e-05
2182	3.5e-05
2194	3.5e-05
2206	2.5e-05
2218	4.5e-05
2230	4.5e-05
2242	6.25e-05
2254	4.75e-05
2266	4e-05
2278	5.75e-05
2290	8.5e-05
2302	5.75e-05
2314	7.75e-05
2326	6e-05
2338	6.5e-05
2350	5.25e-05
2362	8.25e-05
2374	6.75e-05
2386	8.75e-05
2398	8.5e-05
2410	4.25e-05
2422	4.75e-05
2434	4.75e-05
2446	4.75e-05
2458	2.25e-05
2470	4.75e-05
2482	2.75e-05
2494	2e-05
2506	4.5e-05
2518	4.5e-05
2530	8.25e-05
2542	7e-05
2554	8e-05
2566	0.0001
2578	6.75e-05
2590	8e-05
2602	7.25e-05
2614	0.0001675
2626	0.000145
2638	0.0001675
2650	0.000245
2662	0.00035
2674	0.00037
2686	0.00026
2698	0.0002025
2710	0.000235
2722	0.0002675
2734	0.00025
2746	0.000285
2758	0.0003025
2770	0.0003725
2782	0.0004725
2794	0.000575
2806	0.0006825
2818	0.00093
2830	0.001375
2842	0.00308
2854	0.0057075
2866	0.007535
2878	0.00863
2890	0.00794
2902	0.008195
2914	0.0120925
2926	0.0191625
2938	0.025
2950	0.02024
2962	0.01771
2974	0.0147775
2986	0.0055575
2998	0.0022275
3010	0.0031575
3022	0.0045375
3034	0.0035175
3046	0.0026425
3058	0.00433
3070	0.005655
3082	0.003385
3094	0.0013825
3106	0.00101
3118	0.0005775
3130	0.000445
3142	0.0004875
3154	0.00038
3166	0.00033
3178	0.00026
3190	0.000265
3202	0.00027
3214	0.0002275
3226	0.0002825
3238	0.0001625
3250	0.000145
3262	0.0001725
3274	0.0001475
3286	0.00011
3298	0.0001625
3310	0.00011
3322	9.5e-05
3334	8e-05
3346	7.25e-05
3358	0.00011
3370	2.5e-05
3382	9.5e-05
3394	0.000105
3406	0.000125
3418	8.25e-05
3430	7e-05
3442	9.5e-05
3454	8.5e-05
3466	7.75e-05
3478	0.00012
3490	6.75e-05
3502	2.75e-05
3514	3.5e-05
3526	0.0001375
3538	3.75e-05
3550	0.0001175
3562	5.75e-05
3574	0.0001075
3586	4e-05
3598	9.5e-05
3610	5.75e-05
3622	6.75e-05
3634	4e-05
3646	5.5e-05
3658	6.5e-05
3670	4e-05
3682	7e-05
3694	9.75e-05
3706	9.25e-05
3718	7.5e-05
3730	0.000165
3742	9.25e-05
3754	0.000155
3766	0.0001225
3778	9.25e-05
3790	0.000155
3802	0.000155
3814	0.00013
3826	0.0001675
3838	0.0001375
