Infrared Spectrum: 4-Hydroxy-9-fluorenone
Formula: C 13 H 8 O 2
CAS: 1986-00-1
State: gas
Instrument: HP-GC/MS/IRD
Origin: NIST Mass Spectrometry Data Center
1/CM	ABSORBANCE
550	0.0001452
562	6.96e-05
574	6.18e-05
586	0.0001278
598	9.84e-05
610	0.0001086
622	8.1e-06
634	0.0001224
646	5.88e-05
658	3.27e-05
670	0.0001434
682	0.000234
694	0.0001773
706	0.0001848
718	0.0007173
730	0.0020124
742	0.0007563
754	0.0002496
766	0.0002214
778	0.0003225
790	0.0001539
802	0.0002019
814	0.0002916
826	0.0001878
838	0.0001593
850	0.0001446
862	0.0002259
874	0.0007518
886	0.0003855
898	0.0001329
910	9.93e-05
922	9.78e-05
934	0.0001476
946	0.0001395
958	0.0002895
970	0.0006087
982	0.0007458
994	0.0002616
1006	0.0002316
1018	0.0001548
1030	0.0001461
1042	7.29e-05
1054	0.0001731
1066	0.0001614
1078	0.0001818
1090	0.0003117
1102	0.0001518
1114	0.0001779
1126	0.0001527
1138	0.0002631
1150	0.0006456
1162	0.0008277
1174	0.0006504
1186	0.0005013
1198	0.0005745
1210	0.0005652
1222	0.0003603
1234	0.0003948
1246	0.0007218
1258	0.0012396
1270	0.0012123
1282	0.0008775
1294	0.0009357
1306	0.0007026
1318	0.0002721
1330	0.0001587
1342	7.77e-05
1354	0.0001203
1366	0.0001464
1378	0.0001158
1390	0.000102
1402	9.63e-05
1414	0.000135
1426	0.0002658
1438	0.0004542
1450	0.0005538
1462	0.0005283
1474	0.0006057
1486	0.0005046
1498	0.0002376
1510	0.0001224
1522	8.52e-05
1534	8.13e-05
1546	9.69e-05
1558	9.18e-05
1570	0.0001902
1582	0.0004164
1594	0.0011043
1606	0.0013005
1618	0.0006963
1630	0.0002877
1642	0.0001581
1654	0.0001062
1666	8.76e-05
1678	0.0001158
1690	0.0001599
1702	0.0002532
1714	0.0007206
1726	0.00258
1738	0.0025581
1750	0.0008562
1762	0.0003762
1774	0.0001425
1786	0.0001077
1798	9.57e-05
1810	8.37e-05
1822	7.26e-05
1834	9.66e-05
1846	0.0001161
1858	5.55e-05
1870	7.47e-05
1882	5.94e-05
1894	6.66e-05
1906	5.28e-05
1918	0.0001035
1930	0.0001044
1942	9.15e-05
1954	0.0001179
1966	7.71e-05
1978	7.44e-05
1990	3.72e-05
2002	5.64e-05
2014	5.25e-05
2026	1.53e-05
2038	6.9e-05
2050	4.17e-05
2062	4.44e-05
2074	6.21e-05
2086	4.38e-05
2098	6.24e-05
2110	4.41e-05
2122	5.04e-05
2134	5.31e-05
2146	2.52e-05
2158	3.99e-05
2170	6.93e-05
2182	5.76e-05
2194	5.25e-05
2206	6.72e-05
2218	6.36e-05
2230	7.35e-05
2242	7.05e-05
2254	3e-05
2266	6.15e-05
2278	4.65e-05
2290	3.51e-05
2302	8.16e-05
2314	5.61e-05
2326	1.41e-05
2338	2.88e-05
2350	6.75e-05
2362	4.56e-05
2374	6.9e-05
2386	4.53e-05
2398	3.84e-05
2410	5.55e-05
2422	3.24e-05
2434	4.17e-05
2446	4.77e-05
2458	6.69e-05
2470	4.41e-05
2482	2.7e-05
2494	4.08e-05
2506	6.18e-05
2518	3.93e-05
2530	7.08e-05
2542	4.68e-05
2554	4.2e-06
2566	5.76e-05
2578	7.56e-05
2590	5.04e-05
2602	6.96e-05
2614	6.15e-05
2626	4.62e-05
2638	4.29e-05
2650	5.37e-05
2662	3.12e-05
2674	1.89e-05
2686	4.98e-05
2698	5.82e-05
2710	8.19e-05
2722	9.3e-05
2734	5.22e-05
2746	1.17e-05
2758	6.21e-05
2770	7.2e-05
2782	8.94e-05
2794	6.15e-05
2806	5.76e-05
2818	8.1e-06
2830	0.000111
2842	9.39e-05
2854	6.72e-05
2866	6.66e-05
2878	0.0001029
2890	3.45e-05
2902	4.38e-05
2914	5.25e-05
2926	5.49e-05
2938	6.12e-05
2950	0.0001221
2962	8.58e-05
2974	4.29e-05
2986	9.36e-05
2998	7.59e-05
3010	0.0001209
3022	0.0001635
3034	0.0001761
3046	0.0001863
3058	0.0003216
3070	0.0004917
3082	0.0004503
3094	0.0002352
3106	0.0001434
3118	5.46e-05
3130	0.0001224
3142	5.55e-05
3154	0.0001317
3166	4.02e-05
3178	0.000174
3190	6.21e-05
3202	5.64e-05
3214	3.87e-05
3226	7.56e-05
3238	0.0001356
3250	7.38e-05
3262	0.0001341
3274	2.85e-05
3286	9.66e-05
3298	8.22e-05
3310	6.75e-05
3322	9.21e-05
3334	7.65e-05
3346	8.4e-05
3358	2.67e-05
3370	0
3382	3.39e-05
3394	6.51e-05
3406	0.0001002
3418	0.0001011
3430	0.0001347
3442	8.73e-05
3454	0.0001293
3466	0.0001527
3478	6.69e-05
3490	0.0001041
3502	6.15e-05
3514	4.95e-05
3526	3.33e-05
3538	4.38e-05
3550	3.15e-05
3562	7.8e-06
3574	4.44e-05
3586	5.67e-05
3598	0.0001185
3610	9.75e-05
3622	0.0002082
3634	0.0004971
3646	0.0008889
3658	0.0003207
3670	8.55e-05
3682	5.1e-05
3694	6.33e-05
3706	0.0001005
3718	7.71e-05
3730	9.69e-05
3742	0.0001134
3754	5.01e-05
3766	9.27e-05
3778	5.88e-05
3790	0.0001338
3802	0.0001038
3814	0.000102
3826	9.96e-05
3838	6.33e-05
