Infrared Spectrum: 4-Isothiocyanato-4'-nitrodiphenyl ether
Formula: C 13 H 8 N 2 O 3 S
CAS: 19881-18-6
State: gas
Origin: EPA-IR VAPOR PHASE LIBRARY
1/CM	ABSORBANCE
549.8	0.007634
559.445	0.006484
569.09	0.004954
578.734	0.003314
588.379	0.002974
598.024	0.002934
607.669	0.003274
617.313	0.003654
626.958	0.004874
636.603	0.005314
646.248	0.005334
655.893	0.005164
665.537	0.006594
675.182	0.007224
684.827	0.004814
694.472	0.003704
704.116	0.002844
713.761	0.001924
723.406	0.002274
733.051	0.002914
742.695	0.006014
752.34	0.007384
761.985	0.003954
771.63	0.002794
781.275	0.003314
790.919	0.003114
800.564	0.002824
810.209	0.003694
819.854	0.007374
829.498	0.015774
839.143	0.025004
848.788	0.028644
858.433	0.021214
868.078	0.027154
877.722	0.040234
887.367	0.010544
897.012	0.007104
906.657	0.007424
916.301	0.007604
925.946	0.008774
935.591	0.012994
945.236	0.013894
954.88	0.009404
964.525	0.005284
974.17	0.003714
983.815	0.002664
993.46	0.002314
1003.1	0.003674
1012.75	0.008854
1022.39	0.002084
1032.04	0.001614
1041.68	0.001504
1051.33	0.001494
1060.97	0.0012754
1070.62	0.0013649
1080.26	0.002444
1089.91	0.006224
1099.55	0.010684
1109.2	0.013284
1118.84	0.007314
1128.49	0.003224
1138.13	0.003194
1147.78	0.004964
1157.42	0.019224
1167.07	0.023444
1176.71	0.008344
1186.36	0.011664
1196	0.024734
1205.64	0.020984
1215.29	0.036244
1224.93	0.071304
1234.58	0.174434
1244.22	0.189344
1253.87	0.097554
1263.51	0.067574
1273.16	0.035024
1282.8	0.025044
1292.45	0.019504
1302.09	0.014514
1311.74	0.013514
1321.38	0.016164
1331.03	0.022954
1340.67	0.050554
1350.32	0.090694
1359.96	0.041884
1369.61	0.018644
1379.25	0.010684
1388.9	0.007264
1398.54	0.005524
1408.18	0.005454
1417.83	0.006164
1427.47	0.006354
1437.12	0.008564
1446.76	0.011574
1456.41	0.011444
1466.05	0.014294
1475.7	0.032034
1485.34	0.121974
1494.99	0.159964
1504.63	0.107574
1514.28	0.035264
1523.92	0.034604
1533.57	0.053954
1543.21	0.056294
1552.86	0.034534
1562.5	0.021044
1572.15	0.022014
1581.79	0.037054
1591.44	0.053094
1601.08	0.032204
1610.73	0.025204
1620.37	0.017314
1630.01	0.008894
1639.66	0.005214
1649.3	0.004244
1658.95	0.003704
1668.59	0.002854
1678.24	0.002344
1687.88	0.002014
1697.53	0.001874
1707.17	0.001744
1716.82	0.001804
1726.46	0.001754
1736.11	0.001794
1745.75	0.002144
1755.4	0.002694
1765.04	0.003074
1774.69	0.002984
1784.33	0.002404
1793.98	0.002234
1803.62	0.002154
1813.27	0.002324
1822.91	0.002544
1832.55	0.002714
1842.2	0.003144
1851.84	0.004084
1861.49	0.004884
1871.13	0.005354
1880.78	0.006154
1890.42	0.006394
1900.07	0.006894
1909.71	0.008204
1919.36	0.009464
1929	0.011304
1938.65	0.014524
1948.29	0.019624
1957.94	0.026514
1967.58	0.036004
1977.23	0.048264
1986.87	0.063904
1996.52	0.083484
2006.16	0.108174
2015.81	0.139774
2025.45	0.175014
2035.1	0.197284
2044.74	0.176214
2054.38	0.125404
2064.03	0.094984
2073.67	0.088424
2083.32	0.100914
2092.96	0.114484
2102.61	0.096274
2112.25	0.064104
2121.9	0.044114
2131.54	0.035364
2141.19	0.032274
2150.83	0.029944
2160.48	0.024934
2170.12	0.019214
2179.77	0.015444
2189.41	0.013394
2199.06	0.011474
2208.7	0.009324
2218.35	0.007024
2227.99	0.005324
2237.64	0.003954
2247.28	0.003164
2256.92	0.002924
2266.57	0.002734
2276.21	0.002464
2285.86	0.001994
2295.5	0.001664
2305.15	0.001554
2314.79	0.001464
2324.44	0.001474
2334.08	0.001434
2343.73	0.001422
2353.37	0.001594
2363.02	0.001804
2372.66	0.001944
2382.31	0.002044
2391.95	0.002264
2401.6	0.002564
2411.24	0.002384
2420.89	0.002754
2430.53	0.003074
2440.18	0.003244
2449.82	0.003384
2459.47	0.003424
2469.11	0.003134
2478.75	0.002754
2488.4	0.002504
2498.04	0.002304
2507.69	0.002284
2517.33	0.002034
2526.98	0.002194
2536.62	0.002164
2546.27	0.002384
2555.91	0.002634
2565.56	0.002894
2575.2	0.003164
2584.85	0.003334
2594.49	0.002764
2604.14	0.002324
2613.78	0.001994
2623.43	0.001724
2633.07	0.001604
2642.72	0.001704
2652.36	0.001734
2662.01	0.001704
2671.65	0.001524
2681.29	0.001894
2690.94	0.002174
2700.58	0.002694
2710.23	0.002794
2719.87	0.002724
2729.52	0.002314
2739.16	0.001774
2748.81	0.001514
2758.45	0.001424
2768.1	0.0013188
2777.74	0.0011709
2787.39	0.0012108
2797.03	0.0010054
2806.68	0.0009924
2816.32	0.0011699
2825.97	0.001434
2835.61	0.001534
2845.26	0.001544
2854.9	0.001514
2864.55	0.001614
2874.19	0.001854
2883.84	0.001774
2893.48	0.001464
2903.12	0.0012741
2912.77	0.0013748
2922.41	0.0011964
2932.06	0.0013405
2941.7	0.0014227
2951.35	0.001474
2960.99	0.001454
2970.64	0.001504
2980.28	0.001614
2989.93	0.001474
2999.57	0.0011761
3009.22	0.000989
3018.86	0.0010123
3028.51	0.0014217
3038.15	0.002084
3047.8	0.003454
3057.44	0.002534
3067.09	0.001944
3076.73	0.002634
3086.38	0.003644
3096.02	0.002264
3105.67	0.0013383
3115.31	0.0012429
3124.95	0.0008535
3134.6	0.0003882
3144.24	0.00050667
3153.89	0.0003433
3163.53	0.00042195
3173.18	0.000322
3182.82	0.0003761
3192.47	0.0003673
3202.11	0.000283
3211.76	0.00052358
3221.4	0.000431549
3231.05	0.000305
3240.69	0.00041535
3250.34	0.000117
3259.98	0.000166
3269.63	0.000201
3279.27	0.000163
3288.92	0.000196
3298.56	0.00021
3308.21	0.000239
3317.85	6.8e-05
3327.49	0.000197
3337.14	0.0003637
3346.78	0.000272
3356.43	0.000183
3366.07	0.000142
3375.72	0.000157
3385.36	0.000106
3395.01	0.000293
3404.65	0.000185
3414.3	0.000179
3423.94	0.00025
3433.59	0.000282
3443.23	0.000351
3452.88	0.000266
3462.52	0.000304
3472.17	0.00045875
3481.81	0.000102
3491.46	0.000156
3501.1	0.000288
3510.75	0.000206
3520.39	0.000235
3530.04	0.0003407
3539.68	0.000272
3549.32	0.0003872
3558.97	0.0003273
3568.61	0.000317
3578.26	0.0003473
3587.9	0.000293
3597.55	0.00043546
3607.19	0.0003447
3616.84	0.0003458
3626.48	0.0003284
3636.13	0.00041837
3645.77	0.0003244
3655.42	0.000296
3665.06	0.000131
3674.71	0.000117
3684.35	0.000187
3694	0.0004094
3703.64	0.0003816
3713.29	0.00028
3722.93	0.000432108
3732.58	0.000427054
3742.22	0.00047404
3751.86	0.0003915
3761.51	0.00043492
3771.15	0.00046919
3780.8	0.0003433
3790.44	0.00043503
3800.09	0.0003261
3809.73	0.00023
3819.38	0.0004
3829.02	0.0003562
3838.67	0.000323
3848.31	0.00050413
3857.96	0.00048374
3867.6	0.00051455
3877.25	0.0005688
3886.89	0.0006538
3896.54	0.0006317
3906.18	0.0007019
3915.83	0.0006211
3925.47	0.0009057
3935.12	0.0007589
3944.76	0.0007227
3954.41	0.0010204
3964.05	0.0009674
3973.69	0.0008105
3983.34	0.000966
3992.98	0.0011368
