Infrared Spectrum: N-METHYL TYROSINE
Formula: C10 H13 N O3
CAS: 19897-63-3
State: SOLID (KBr PELLET)
Class: COBLENTZ
Instrument: Not specified, most likely a grating spectrometer.
Sampling: TRANSMISSION
Resolution: 4
Origin: CITRUS EXPERIMENT STATION, UNIVERSITY OF FLORIDA (G. EDWARDS)
MICROMETERS	TRANSMITTANCE
2.007	0.961
2.04021	0.961
2.07343	0.961
2.10664	0.959
2.13985	0.958
2.17306	0.957
2.20628	0.957
2.23949	0.957
2.2727	0.957
2.30592	0.955
2.33913	0.954
2.37234	0.951
2.40556	0.95
2.43877	0.951
2.47198	0.949
2.50519	0.946
2.53841	0.945
2.57162	0.943
2.60483	0.937
2.63805	0.934
2.67126	0.929
2.70447	0.921
2.73768	0.917
2.7709	0.909
2.80411	0.905
2.83732	0.902
2.87054	0.901
2.90375	0.901
2.93696	0.901
2.97018	0.901
3.00339	0.954
3.0366	0.943
3.06981	0.839
3.10303	0.731
3.13624	0.849
3.16945	0.835
3.20267	0.815
3.23588	0.791
3.26909	0.769
3.3023	0.761
3.33552	0.754
3.36873	0.751
3.40194	0.759
3.43516	0.779
3.46837	0.773
3.50158	0.723
3.53479	0.715
3.56801	0.724
3.60122	0.692
3.63443	0.676
3.66765	0.666
3.70086	0.68
3.73407	0.684
3.76729	0.656
3.8005	0.656
3.83371	0.682
3.86692	0.71
3.90014	0.722
3.93335	0.724
3.96656	0.739
3.99978	0.75
4.03299	0.755
4.0662	0.757
4.09941	0.754
4.13263	0.753
4.16584	0.763
4.19905	0.795
4.23227	0.798
4.26548	0.799
4.29869	0.799
4.33191	0.802
4.36512	0.811
4.39833	0.827
4.43154	0.842
4.46476	0.858
4.49797	0.878
4.53118	0.895
4.5644	0.914
4.59761	0.927
4.63082	0.939
4.66403	0.953
4.69725	0.961
4.73046	0.965
4.76367	0.973
4.79689	0.982
4.8301	0.989
4.86331	0.991
4.89653	0.993
4.92974	0.991
4.96295	0.99
4.99616	0.994
5.02938	0.995
5.06259	0.997
5.0958	0.997
5.12902	0.998
5.16223	0.997
5.19544	0.995
5.22865	0.991
5.26187	0.998
5.29508	1.002
5.32829	1.002
5.36151	1
5.39472	0.998
5.42793	0.998
5.46115	0.995
5.49436	0.989
5.52757	0.981
5.56078	0.978
5.594	0.97
5.62721	0.967
5.66042	0.955
5.69364	0.947
5.72685	0.941
5.76006	0.937
5.79327	0.919
5.82649	0.907
5.8597	0.89
5.89291	0.881
5.92613	0.854
5.95934	0.829
5.99255	0.807
6.02577	0.74
6.05898	0.707
6.09219	0.656
6.1254	0.586
6.15862	0.48
6.19183	0.433
6.22504	0.384
6.25826	0.295
6.29147	0.315
6.32468	0.502
6.35789	0.62
6.39111	0.715
6.42432	0.719
6.45753	0.696
6.49075	0.674
6.52396	0.574
6.55717	0.546
6.59038	0.578
6.6236	0.6
6.65681	0.63
6.69002	0.624
6.72324	0.61
6.75645	0.638
6.78966	0.643
6.82288	0.642
6.85609	0.64
6.8893	0.611
6.92251	0.632
6.95573	0.714
6.98894	0.718
7.02215	0.671
7.05537	0.664
7.08858	0.636
7.12179	0.508
7.155	0.411
7.18822	0.415
7.22143	0.492
7.25464	0.611
7.28786	0.664
7.32107	0.728
7.35428	0.762
7.3875	0.811
7.42071	0.811
7.45392	0.778
7.48713	0.726
7.52035	0.607
7.55356	0.526
7.58677	0.62
7.61999	0.719
7.6532	0.775
7.68641	0.805
7.71962	0.818
7.75284	0.809
7.78605	0.758
7.81926	0.682
7.85248	0.642
7.88569	0.524
7.9189	0.473
7.95212	0.445
7.98533	0.441
8.01854	0.527
8.05175	0.622
8.08497	0.686
8.11818	0.727
8.15139	0.762
8.18461	0.774
8.21782	0.773
8.25103	0.786
8.28424	0.803
8.31746	0.823
8.35067	0.846
8.38388	0.865
8.4171	0.869
8.45031	0.843
8.48352	0.799
8.51674	0.859
8.54995	0.885
8.58316	0.886
8.61637	0.881
8.64959	0.863
8.6828	0.823
8.71601	0.782
8.74923	0.787
8.78244	0.829
8.81565	0.875
8.84886	0.901
8.88208	0.911
8.91529	0.91
8.9485	0.903
8.98172	0.874
9.01493	0.787
9.04814	0.624
9.08136	0.676
9.11457	0.813
9.14778	0.862
9.18099	0.89
9.21421	0.903
9.24742	0.909
9.28063	0.913
9.31385	0.914
9.34706	0.911
9.38027	0.902
9.41348	0.874
9.4467	0.837
9.47991	0.834
9.51312	0.867
9.54634	0.902
9.57955	0.913
9.61276	0.922
9.64597	0.926
9.67919	0.929
9.7124	0.931
9.74561	0.931
9.77883	0.927
9.81204	0.913
9.84525	0.895
9.87847	0.869
9.91168	0.822
9.94489	0.833
9.9781	0.857
10.0113	0.847
10.0445	0.835
10.0777	0.849
10.111	0.885
10.1442	0.903
10.1774	0.914
10.2106	0.914
10.2438	0.917
10.277	0.914
10.3102	0.914
10.3434	0.914
10.3767	0.922
10.4099	0.922
10.4431	0.921
10.4763	0.913
10.5095	0.891
10.5427	0.862
10.5759	0.843
10.6092	0.857
10.6424	0.869
10.6756	0.858
10.7088	0.863
10.742	0.891
10.7752	0.899
10.8084	0.895
10.8416	0.891
10.8749	0.879
10.9081	0.869
10.9413	0.858
10.9745	0.843
11.0077	0.83
11.0409	0.819
11.0741	0.811
11.1073	0.807
11.1406	0.805
11.1738	0.805
11.207	0.805
11.2402	0.806
11.2734	0.807
11.3066	0.809
11.3398	0.807
11.373	0.805
11.4063	0.793
11.4395	0.787
11.4727	0.785
11.5059	0.785
11.5391	0.787
11.5723	0.791
11.6055	0.802
11.6388	0.814
11.672	0.837
11.7052	0.853
11.7384	0.859
11.7716	0.858
11.8048	0.851
11.838	0.833
11.8712	0.802
11.9045	0.754
11.9377	0.695
11.9709	0.602
12.0041	0.571
12.0373	0.586
12.0705	0.607
12.1037	0.644
12.1369	0.704
12.1702	0.762
12.2034	0.797
12.2366	0.826
12.2698	0.847
12.303	0.861
12.3362	0.866
12.3694	0.874
12.4026	0.879
12.4359	0.881
12.4691	0.881
12.5023	0.878
12.5355	0.878
12.5687	0.877
12.6019	0.875
12.6351	0.873
12.6684	0.87
12.7016	0.867
12.7348	0.873
12.768	0.889
12.8012	0.902
12.8344	0.906
12.8676	0.909
12.9008	0.91
12.9341	0.91
12.9673	0.91
13.0005	0.913
13.0337	0.913
13.0669	0.913
13.1001	0.914
13.1333	0.915
13.1665	0.918
13.1998	0.919
13.233	0.921
13.2662	0.922
13.2994	0.922
13.3326	0.922
13.3658	0.913
13.399	0.903
13.4322	0.879
13.4655	0.857
13.4987	0.831
13.5319	0.822
13.5651	0.834
13.5983	0.861
13.6315	0.894
13.6647	0.91
13.698	0.918
13.7312	0.922
13.7644	0.925
13.7976	0.925
13.8308	0.921
13.864	0.907
13.8972	0.886
13.9304	0.867
13.9637	0.865
13.9969	0.874
14.0301	0.897
14.0633	0.906
14.0965	0.913
14.1297	0.914
14.1629	0.915
14.1961	0.919
14.2294	0.921
14.2626	0.919
14.2958	0.919
14.329	0.919
14.3622	0.918
14.3954	0.917
14.4286	0.918
14.4619	0.919
14.4951	0.922
14.5283	0.925
14.5615	0.923
14.5947	0.921
14.6279	0.918
14.6611	0.918
14.6943	0.915
14.7276	0.917
14.7608	0.915
14.794	0.914
14.8272	0.914
14.8604	0.915
14.8936	0.915
14.9268	0.917
14.96	0.915
14.9933	0.911
