Infrared Spectrum: 4-AMINO-3-PICOLINE
Formula: C6 H8 N2
CAS: 1990-90-5
State: SOLUTION (7% IN CHCl3)
Class: COBLENTZ
Instrument: PERKIN-ELMER
Sampling: TRANSMISSION
Path length: 0.010 CM CELL
Resolution: 4
Origin: ABBOTT LABORATORIES - WASHBURN
MICROMETERS	TRANSMITTANCE
2.039	0.932
2.07288	0.932
2.10675	0.939
2.14062	0.937
2.1745	0.9399
2.20838	0.9468
2.24225	0.9452
2.27612	0.934
2.31	0.954
2.34388	0.954
2.37775	0.9491
2.41162	0.9452
2.4455	0.9184
2.47938	0.9268
2.51325	0.9443
2.54713	0.954
2.581	0.944
2.61488	0.9441
2.64875	0.947
2.68263	0.9539
2.7165	0.9589
2.75038	0.956
2.78425	0.952
2.81813	0.9714
2.852	0.945
2.88587	0.7568
2.91975	0.6622
2.95363	0.7141
2.9875	0.501
3.02137	0.6566
3.05525	0.6563
3.08913	0.6929
3.123	0.663
3.15688	0.6031
3.19075	0.5692
3.22463	0.5759
3.2585	0.612
3.29237	0.6428
3.32625	0.6265
3.36013	0.589
3.394	0.44
3.42788	0.3681
3.46175	0.3579
3.49563	0.4652
3.5295	0.5885
3.56338	0.6918
3.59725	0.7767
3.63112	0.8384
3.665	0.851
3.69888	0.851
3.73275	0.8679
3.76663	0.8898
3.8005	0.8831
3.83438	0.884
3.86825	0.8928
3.90212	0.8862
3.936	0.876
3.96988	0.8611
4.00375	0.8262
4.03763	0.819
4.0715	0.8189
4.10538	0.8354
4.13925	0.8528
4.17313	0.8806
4.207	0.893
4.24087	0.891
4.27475	0.9069
4.30863	0.9151
4.3425	0.912
4.37637	0.9121
4.41025	0.91
4.44412	0.9076
4.478	0.907
4.51187	0.913
4.54575	0.905
4.57963	0.905
4.6135	0.9031
4.64738	0.898
4.68125	0.907
4.71513	0.902
4.749	0.903
4.78288	0.902
4.81675	0.902
4.85062	0.896
4.8845	0.8911
4.91838	0.8998
4.95225	0.8932
4.98612	0.9
5.02	0.9018
5.05387	0.9
5.08775	0.8951
5.12162	0.893
5.1555	0.8889
5.18938	0.8837
5.22325	0.876
5.25713	0.8661
5.291	0.89
5.32488	0.8875
5.35875	0.8608
5.39263	0.8858
5.4265	0.8933
5.46037	0.8893
5.49425	0.8804
5.52813	0.885
5.562	0.891
5.59587	0.8851
5.62975	0.8727
5.66362	0.8782
5.6975	0.878
5.73137	0.88
5.76525	0.8644
5.79913	0.8531
5.833	0.8555
5.86688	0.852
5.90075	0.8393
5.93463	0.7963
5.9685	0.7866
6.00237	0.7535
6.03625	0.6602
6.07013	0.4637
6.104	0.2533
6.13787	0.1049
6.17175	0.0433
6.20562	0.1729
6.2395	0.1939
6.27337	0.1084
6.30725	0.3332
6.34112	0.3186
6.375	0.2971
6.40888	0.5258
6.44275	0.6828
6.47663	0.7533
6.5105	0.7699
6.54438	0.7582
6.57825	0.7263
6.61213	0.6957
6.646	0.509
6.67987	0.1255
6.71375	0.4452
6.74762	0.5553
6.7815	0.5989
6.81537	0.6728
6.84925	0.6544
6.88312	0.525
6.917	0.6207
6.95087	0.6168
6.98475	0.6728
7.01863	0.6996
7.0525	0.6664
7.08638	0.5722
7.12025	0.5361
7.15413	0.7127
7.188	0.7716
7.22188	0.77
7.25575	0.655
7.28962	0.7416
7.3235	0.7911
7.35737	0.8049
7.39125	0.814
7.42512	0.8073
7.459	0.7961
7.49287	0.7459
7.52675	0.598
7.56062	0.4303
7.5945	0.611
7.62838	0.5288
7.66225	0.5246
7.69613	0.5725
7.73	0.6426
7.76388	0.6826
7.79775	0.687
7.83163	0.658
7.8655	0.579
7.89937	0.4413
7.93325	0.4383
7.96712	0.5377
8.001	0.5775
8.03487	0.5908
8.06875	0.587
8.10262	0.5792
8.1365	0.562
8.17037	0.559
8.20425	0.564
8.23813	0.5953
8.272	0.6129
8.30588	0.6335
8.33975	0.645
8.37363	0.599
8.4075	0.3166
8.44138	0.2818
8.47525	0.3908
8.50912	0.5396
8.543	0.6437
8.57687	0.7114
8.61075	0.7389
8.64462	0.7545
8.6785	0.761
8.71237	0.7697
8.74625	0.7628
8.78012	0.7609
8.814	0.756
8.84788	0.7479
8.88175	0.739
8.91563	0.7264
8.9495	0.7212
8.98338	0.7235
9.01725	0.726
9.05113	0.7224
9.085	0.7123
9.11887	0.7002
9.15275	0.675
9.18662	0.663
9.2205	0.6639
9.25437	0.6397
9.28825	0.6185
9.32212	0.7065
9.356	0.7609
9.38987	0.7936
9.42375	0.8125
9.45763	0.8111
9.4915	0.7833
9.52538	0.7064
9.55925	0.682
9.59313	0.695
9.627	0.6646
9.66088	0.5818
9.69475	0.5919
9.72862	0.6972
9.7625	0.7624
9.79637	0.7846
9.83025	0.7915
9.86412	0.7845
9.898	0.7788
9.93187	0.7726
9.96575	0.7533
9.99962	0.7016
10.0335	0.5704
10.0674	0.5822
10.1013	0.6682
10.1351	0.744
10.169	0.7722
10.2029	0.7886
10.2367	0.797
10.2706	0.805
10.3045	0.805
10.3384	0.8049
10.3722	0.802
10.4061	0.802
10.44	0.804
10.4739	0.809
10.5077	0.805
10.5416	0.809
10.5755	0.81
10.6094	0.8066
10.6433	0.805
10.6771	0.8028
10.711	0.798
10.7449	0.7939
10.7787	0.774
10.8126	0.7629
10.8465	0.7445
10.8804	0.7216
10.9142	0.7025
10.9481	0.7226
10.982	0.7623
11.0159	0.7836
11.0497	0.788
11.0836	0.7932
11.1175	0.798
11.1514	0.7978
11.1852	0.795
11.2191	0.795
11.253	0.7831
11.2869	0.78
11.3207	0.7766
11.3546	0.7734
11.3885	0.7492
11.4224	0.716
11.4562	0.6201
11.4901	0.4852
11.524	0.3505
11.5579	0.3417
11.5917	0.409
11.6256	0.5078
11.6595	0.5502
11.6934	0.5987
11.7272	0.618
11.7611	0.6215
11.795	0.6235
11.8289	0.6226
11.8628	0.6139
11.8966	0.6029
11.9305	0.5738
11.9644	0.5321
11.9982	0.4882
12.0321	0.4029
12.066	0.338
12.0999	0.2613
12.1337	0.2059
12.1676	0.1984
12.2015	0.2507
12.2354	0.3286
12.2692	0.4035
12.3031	0.4565
12.337	0.518
12.3709	0.5443
12.4047	0.5545
12.4386	0.562
12.4725	0.5647
12.5064	0.5665
12.5402	0.5605
12.5741	0.575
12.608	0.5912
12.6419	0.6043
12.6757	0.614
12.7096	0.6309
12.7435	0.641
12.7774	0.648
12.8112	0.6529
12.8451	0.6816
12.879	0.707
12.9129	0.7306
12.9467	0.7455
12.9806	0.7635
13.0145	0.7891
13.0484	0.8
13.0823	0.811
13.1161	0.8219
13.15	0.829
13.1839	0.8364
13.2177	0.8541
13.2516	0.882
13.2855	0.8985
13.3194	0.9207
13.3532	0.9327
13.3871	0.9569
13.421	0.969
13.4549	0.9784
13.4887	0.9891
13.5226	1.0029
13.5565	1.018
13.5904	1.0249
13.6242	1.028
13.6581	1.028
13.692	1.028
13.7259	1.027
13.7597	1.0216
13.7936	1.0076
13.8275	0.9573
13.8614	0.8982
13.8952	0.834
13.9291	0.7368
13.963	0.667
13.9969	0.6077
14.0307	0.5634
14.0646	0.5465
14.0985	0.5395
14.1324	0.535
14.1662	0.53
14.2001	0.5372
14.234	0.542
14.2679	0.5519
14.3017	0.559
14.3356	0.557
14.3695	0.5719
14.4034	0.5706
14.4372	0.586
14.4711	0.5784
14.505	0.584
14.5389	0.5847
14.5727	0.591
14.6066	0.5897
14.6405	0.594
14.6744	0.5915
14.7082	0.593
14.7421	0.592
14.776	0.5873
14.8099	0.5998
14.8438	0.6082
14.8776	0.6044
14.9115	0.6263
14.9454	0.6455
14.9792	0.6587
15.0131	0.6724
15.047	0.667
15.0809	0.5536
15.1147	0.3697
15.1486	0.3442
15.1825	0.3685
15.2164	0.4434
15.2502	0.4975
15.2841	0.5412
15.318	0.5848
15.3519	0.6063
15.3857	0.6203
15.4196	0.6306
15.4535	0.633
