Infrared Spectrum: METHANE, BIS-(4-AMINO-3,5-DIISOPROPYLPHENYL)-
Formula: C25 H38 N2
CAS: 19900-69-7
State: SOLID (OIL MULL)
Class: COBLENTZ III
Instrument: BECKMAN IR-4 (HYBRID PRISM-GRATING)
Instrument parameters: NaCl PRISM
Sampling: TRANSMISSION
Resolution: 2
Origin: MONSANTO (J. FREEMAN)
1/CM	TRANSMITTANCE
625.431	0.5137
634.267	0.4954
643.103	0.494
651.94	0.5036
660.776	0.5219
669.612	0.5584
678.448	0.585
687.284	0.5762
696.12	0.6779
704.957	0.7056
713.793	0.7211
722.629	0.7248
731.465	0.7741
740.301	0.8101
749.137	0.8384
757.974	0.7994
766.81	0.6195
775.646	0.8086
784.482	0.7895
793.318	0.8025
802.154	0.8419
810.991	0.8313
819.827	0.8721
828.663	0.8898
837.499	0.8943
846.335	0.8822
855.171	0.7168
864.008	0.7432
872.844	0.8541
881.68	0.8332
890.516	0.7494
899.352	0.8723
908.188	0.9103
917.025	0.8954
925.861	0.8797
934.697	0.9009
943.533	0.8071
952.369	0.7803
961.205	0.7946
970.042	0.8677
978.878	0.9072
987.714	0.9173
996.55	0.9188
1005.39	0.9189
1014.22	0.9189
1023.06	0.917
1031.89	0.9107
1040.73	0.9032
1049.57	0.8916
1058.4	0.8518
1067.24	0.7925
1076.08	0.8538
1084.91	0.8144
1093.75	0.766
1102.58	0.7866
1111.42	0.8255
1120.26	0.7449
1129.09	0.8371
1137.93	0.9007
1146.76	0.9
1155.6	0.8931
1164.44	0.8569
1173.27	0.7475
1182.11	0.7442
1190.95	0.8291
1199.78	0.8737
1208.62	0.8833
1217.45	0.8274
1226.29	0.7294
1235.13	0.8262
1243.96	0.7237
1252.8	0.5995
1261.64	0.5312
1270.47	0.7886
1279.31	0.7201
1288.14	0.6244
1296.98	0.6432
1305.82	0.6142
1314.65	0.599
1323.49	0.7392
1332.32	0.8266
1341.16	0.8196
1350	0.6624
1358.83	0.4732
1367.67	0.5159
1376.51	0.6386
1385.34	0.4767
1394.18	0.8166
1403.01	0.8499
1411.85	0.8566
1420.69	0.8367
1429.52	0.768
1438.36	0.4295
1447.19	0.2159
1456.03	0.2506
1464.87	0.112
1473.7	0.1433
1482.54	0.5171
1491.38	0.7291
1500.21	0.8156
1509.05	0.8655
1517.88	0.8853
1526.72	0.8983
1535.56	0.9072
1544.39	0.9125
1553.23	0.9168
1562.06	0.9111
1570.9	0.9074
1579.74	0.8907
1588.57	0.8523
1597.41	0.7683
1606.25	0.5967
1615.08	0.6865
1623.92	0.4664
1632.75	0.398
1641.59	0.609
1650.43	0.7616
1659.26	0.8581
1668.1	0.8897
1676.93	0.9055
1685.77	0.917
1694.61	0.9256
1703.44	0.9324
1712.28	0.9368
1721.12	0.9392
1729.95	0.9412
1738.79	0.9439
1747.62	0.9434
1756.46	0.9321
1765.3	0.9272
1774.13	0.9311
1782.97	0.9306
1791.81	0.9164
1800.64	0.9169
1809.48	0.9327
1818.31	0.9427
1827.15	0.9438
1835.99	0.9443
1844.82	0.9446
1853.66	0.945
1862.49	0.9451
1871.33	0.9494
1880.17	0.9517
1889	0.9514
1897.84	0.9509
1906.68	0.9506
1915.51	0.9503
1924.35	0.9501
1933.18	0.9502
1942.02	0.9502
1950.86	0.9501
1959.69	0.9496
1968.53	0.9491
1977.36	0.9485
1986.2	0.9479
1995.04	0.9477
2003.87	0.9474
2012.71	0.9471
2021.55	0.9468
2030.38	0.9465
2039.22	0.9462
2048.05	0.946
2056.89	0.9458
2065.73	0.9456
2074.56	0.9454
2083.4	0.9451
2092.23	0.9448
2101.07	0.9445
2109.91	0.9441
2118.74	0.9438
2127.58	0.9434
2136.42	0.9432
2145.25	0.9427
2154.09	0.9421
2162.92	0.9414
2171.76	0.9409
2180.6	0.9402
2189.43	0.9396
2198.27	0.939
2207.1	0.9382
2215.94	0.9372
2224.78	0.9361
2233.61	0.935
2242.45	0.934
2251.29	0.9329
2260.12	0.9319
2268.96	0.9316
2277.79	0.9316
2286.63	0.9316
2295.47	0.9317
2304.3	0.9317
2313.14	0.9326
2321.98	0.9338
2330.81	0.9352
2339.65	0.937
2348.48	0.9393
2357.32	0.9416
2366.16	0.944
2374.99	0.945
2383.83	0.9417
2392.66	0.9295
2401.5	0.9209
2410.34	0.9194
2419.17	0.9189
2428.01	0.9185
2436.85	0.9186
2445.68	0.9188
2454.52	0.9182
2463.35	0.9173
2472.19	0.9144
2481.03	0.9128
2489.86	0.9126
2498.7	0.9127
2507.53	0.9128
2516.37	0.913
2525.21	0.9123
2534.04	0.9112
2542.88	0.9102
2551.72	0.9079
2560.55	0.9054
2569.39	0.9019
2578.22	0.8972
2587.06	0.8925
2595.9	0.889
2604.73	0.8865
2613.57	0.8857
2622.4	0.8848
2631.24	0.8844
2640.08	0.8841
2648.91	0.883
2657.75	0.8796
2666.59	0.8757
2675.42	0.8713
2684.26	0.8669
2693.09	0.8627
2701.93	0.8587
2710.77	0.8546
2719.6	0.8506
2728.44	0.8466
2737.27	0.8421
2746.11	0.8389
2754.95	0.8402
2763.78	0.8429
2772.62	0.8458
2781.46	0.8488
2790.29	0.8475
2799.13	0.841
2807.96	0.8276
2816.8	0.8006
2825.64	0.7762
2834.47	0.7445
2843.31	0.7114
2852.15	0.6087
2860.98	0.1018
2869.82	0.1042
2878.65	0.1149
2887.49	0.1075
2896.33	0.0896
2905.16	0.0717
2914	0.0343
2922.83	0.0214
2931.67	0.0185
2940.51	0.0184
2949.34	0.0191
2958.18	0.0232
2967.02	0.118
2975.85	0.2161
2984.69	0.3139
2993.52	0.411
3002.36	0.5074
3011.2	0.5986
3020.03	0.6243
3028.87	0.6598
3037.7	0.7072
3046.54	0.7244
3055.38	0.7509
3064.21	0.7718
3073.05	0.7921
3081.89	0.8076
3090.72	0.8177
3099.56	0.8285
3108.39	0.8353
3117.23	0.8385
3126.07	0.84
3134.9	0.84
3143.74	0.8395
3152.57	0.8384
3161.41	0.837
3170.25	0.8353
3179.08	0.8328
3187.92	0.8294
3196.76	0.8256
3205.59	0.8216
3214.43	0.8201
3223.26	0.82
3232.1	0.8205
3240.94	0.8226
3249.77	0.8256
3258.61	0.8287
3267.44	0.8317
3276.28	0.8345
3285.12	0.8371
3293.95	0.8392
3302.79	0.8391
3311.63	0.8378
3320.46	0.8361
3329.3	0.8331
3338.13	0.8151
3346.97	0.7828
3355.81	0.7507
3364.64	0.732
3373.48	0.7302
3382.32	0.7357
3391.15	0.7458
3399.99	0.7557
3408.82	0.7597
3417.66	0.7602
3426.5	0.7593
3435.33	0.7569
3444.17	0.7519
3453	0.7474
3461.84	0.7443
3470.68	0.7428
3479.51	0.7429
3488.35	0.7497
3497.19	0.7683
3506.02	0.7854
3514.86	0.804
3523.69	0.8129
3532.53	0.8176
3541.37	0.8224
3550.2	0.8255
3559.04	0.8276
3567.87	0.8295
3576.71	0.8313
3585.55	0.8323
3594.38	0.8331
3603.22	0.8338
3612.06	0.8341
3620.89	0.8345
3629.73	0.8348
3638.56	0.835
3647.4	0.8353
3656.24	0.8356
3665.07	0.8357
3673.91	0.8359
3682.74	0.8361
3691.58	0.8362
3700.42	0.8364
3709.25	0.8365
3718.09	0.8365
3726.93	0.8363
3735.76	0.8362
3744.6	0.836
3753.43	0.8359
3762.27	0.8358
3771.11	0.8356
3779.94	0.835
3788.78	0.834
3797.61	0.8331
3806.45	0.8321
3815.29	0.8309
3824.12	0.8291
3832.96	0.8274
3841.8	0.8256
3850.63	0.8241
3859.47	0.8232
3868.3	0.8222
3877.14	0.8214
3885.98	0.8204
3894.81	0.8195
3903.65	0.8184
3912.49	0.8174
3921.32	0.8165
3930.16	0.8155
