Infrared Spectrum: 3-Methoxyphenylacetonitrile
Formula: C 9 H 9 N O
CAS: 19924-43-7
State: gas
Origin: EPA-IR VAPOR PHASE LIBRARY
1/CM	ABSORBANCE
549.8	0.002181
559.445	0.002571
569.09	0.001481
578.734	0.0012381
588.379	0.0007444
598.024	0.0006755
607.669	0.0007993
617.313	0.0003605
626.958	0.0008531
636.603	0.0007146
646.248	0.0007264
655.893	0.0009921
665.537	0.001671
675.182	0.004741
684.827	0.009531
694.472	0.009981
704.116	0.006091
713.761	0.003861
723.406	0.004091
733.051	0.006181
742.695	0.007191
752.34	0.008021
761.985	0.009851
771.63	0.013621
781.275	0.014531
790.919	0.007921
800.564	0.003271
810.209	0.001451
819.854	0.001511
829.498	0.002631
839.143	0.003801
848.788	0.004361
858.433	0.005251
868.078	0.005751
877.722	0.006021
887.367	0.004561
897.012	0.002741
906.657	0.002161
916.301	0.002671
925.946	0.003041
935.591	0.002881
945.236	0.002571
954.88	0.002341
964.525	0.002151
974.17	0.001781
983.815	0.002231
993.46	0.003161
1003.1	0.003391
1012.75	0.003741
1022.39	0.006811
1032.04	0.014221
1041.68	0.023321
1051.33	0.025861
1060.97	0.018141
1070.62	0.007941
1080.26	0.005181
1089.91	0.004491
1099.55	0.002721
1109.2	0.002751
1118.84	0.002951
1128.49	0.004851
1138.13	0.011851
1147.78	0.022561
1157.42	0.024151
1167.07	0.016331
1176.71	0.009281
1186.36	0.005101
1196	0.004311
1205.64	0.004401
1215.29	0.005831
1224.93	0.009021
1234.58	0.013811
1244.22	0.026431
1253.87	0.045641
1263.51	0.054051
1273.16	0.043701
1282.8	0.031441
1292.45	0.025091
1302.09	0.021261
1311.74	0.018331
1321.38	0.013051
1331.03	0.009421
1340.67	0.006701
1350.32	0.003661
1359.96	0.002181
1369.61	0.001771
1379.25	0.001971
1388.9	0.002631
1398.54	0.003651
1408.18	0.005121
1417.83	0.008631
1427.47	0.016271
1437.12	0.023321
1446.76	0.022101
1456.41	0.019711
1466.05	0.021131
1475.7	0.023401
1485.34	0.035461
1494.99	0.034141
1504.63	0.015701
1514.28	0.007571
1523.92	0.005361
1533.57	0.004461
1543.21	0.004551
1552.86	0.005151
1562.5	0.006891
1572.15	0.011801
1581.79	0.023461
1591.44	0.038041
1601.08	0.050361
1610.73	0.041831
1620.37	0.020191
1630.01	0.007681
1639.66	0.003751
1649.3	0.002491
1658.95	0.001821
1668.59	0.001621
1678.24	0.001431
1687.88	0.001321
1697.53	0.001481
1707.17	0.001571
1716.82	0.001701
1726.46	0.001771
1736.11	0.001501
1745.75	0.0012396
1755.4	0.0010955
1765.04	0.0009495
1774.69	0.0008848
1784.33	0.0008348
1793.98	0.0008945
1803.62	0.0010103
1813.27	0.0010554
1822.91	0.0011045
1832.55	0.0011869
1842.2	0.0012339
1851.84	0.0010179
1861.49	0.0008462
1871.13	0.0008721
1880.78	0.0008538
1890.42	0.0010197
1900.07	0.0010291
1909.71	0.0011995
1919.36	0.001421
1929	0.001351
1938.65	0.0009826
1948.29	0.0006799
1957.94	0.0006993
1967.58	0.0007908
1977.23	0.0008476
1986.87	0.000964
1996.52	0.0009937
2006.16	0.0009361
2015.81	0.0009332
2025.45	0.0009592
2035.1	0.000891
2044.74	0.0009666
2054.38	0.0009222
2064.03	0.0009118
2073.67	0.0009204
2083.32	0.0008631
2092.96	0.000977
2102.61	0.0008737
2112.25	0.0007565
2121.9	0.0007103
2131.54	0.0006577
2141.19	0.0006116
2150.83	0.0006295
2160.48	0.0006047
2170.12	0.0006473
2179.77	0.0007269
2189.41	0.0008003
2199.06	0.0007876
2208.7	0.0008004
2218.35	0.0006349
2227.99	0.0006438
2237.64	0.0006429
2247.28	0.0010742
2256.92	0.001158
2266.57	0.0008757
2276.21	0.00064
2285.86	0.0004913
2295.5	0.0004678
2305.15	0.0005456
2314.79	0.0006543
2324.44	0.0007713
2334.08	0.0008444
2343.73	0.0008199
2353.37	0.0008202
2363.02	0.0006179
2372.66	0.0005068
2382.31	0.0004749
2391.95	0.0004705
2401.6	0.0005979
2411.24	0.0005758
2420.89	0.0006579
2430.53	0.0005942
2440.18	0.0005211
2449.82	0.0005585
2459.47	0.0004713
2469.11	0.0006166
2478.75	0.0005344
2488.4	0.0005693
2498.04	0.000671
2507.69	0.0006886
2517.33	0.0007381
2526.98	0.0008879
2536.62	0.0008465
2546.27	0.0008581
2555.91	0.0007941
2565.56	0.0007873
2575.2	0.0008087
2584.85	0.0008986
2594.49	0.000847
2604.14	0.0007723
2613.78	0.0006174
2623.43	0.0006666
2633.07	0.0007414
2642.72	0.000615
2652.36	0.0004952
2662.01	0.0004192
2671.65	0.0003869
2681.29	0.0003792
2690.94	0.0005719
2700.58	0.0006294
2710.23	0.0005463
2719.87	0.0007326
2729.52	0.0006357
2739.16	0.0006935
2748.81	0.0007514
2758.45	0.0007884
2768.1	0.0006611
2777.74	0.0008783
2787.39	0.0010238
2797.03	0.0011979
2806.68	0.001501
2816.32	0.001941
2825.97	0.003091
2835.61	0.005971
2845.26	0.009141
2854.9	0.007691
2864.55	0.004501
2874.19	0.003691
2883.84	0.003981
2893.48	0.004791
2903.12	0.005911
2912.77	0.007621
2922.41	0.009521
2932.06	0.011061
2941.7	0.014191
2951.35	0.015681
2960.99	0.013561
2970.64	0.009681
2980.28	0.006871
2989.93	0.006041
2999.57	0.008281
3009.22	0.011671
3018.86	0.009911
3028.51	0.006191
3038.15	0.006321
3047.8	0.006781
3057.44	0.007381
3067.09	0.007071
3076.73	0.006521
3086.38	0.005651
3096.02	0.003931
3105.67	0.002701
3115.31	0.001941
3124.95	0.001371
3134.6	0.0010576
3144.24	0.0008064
3153.89	0.0007035
3163.53	0.0006264
3173.18	0.0007609
3182.82	0.0006778
3192.47	0.0006286
3202.11	0.0006175
3211.76	0.000614
3221.4	0.0004543
3231.05	0.0004278
3240.69	0.0002334
3250.34	0.00033459
3259.98	0.0004015
3269.63	0.0002511
3279.27	0.000280416
3288.92	0
3298.56	0.000278807
3308.21	0.00030173
3317.85	0.0002166
3327.49	0.00036415
3337.14	0.0002365
3346.78	0.0002581
3356.43	0.0003754
3366.07	0.00033139
3375.72	0.00033672
3385.36	0.0003778
3395.01	0.0003922
3404.65	0.000275949
3414.3	0.0002459
3423.94	0.0002329
3433.59	0.0001749
3443.23	0.00035468
3452.88	0.0007065
3462.52	0.00036966
3472.17	0.0004516
3481.81	0.0001885
3491.46	0.00035709
3501.1	0.00036953
3510.75	0.0004202
3520.39	0.00032274
3530.04	0.00033925
3539.68	0.00026903
3549.32	0.0004925
3558.97	0.00031064
3568.61	0.0004021
3578.26	0.0003993
3587.9	0.0002472
3597.55	0.0003905
3607.19	0.00026812
3616.84	0.000276514
3626.48	0.0004146
3636.13	0.0001822
3645.77	0.0004363
3655.42	0.0001751
3665.06	0.00036668
3674.71	0.00030449
3684.35	0.0004765
3694	0.00026113
3703.64	0.00031082
3713.29	0.0003613
3722.93	0.0003462
3732.58	0.0003821
3742.22	0.000146
3751.86	0.00033911
3761.51	0.000271931
3771.15	0.0003796
3780.8	0.0004352
3790.44	0.00026256
3800.09	0.0005439
3809.73	0.0005435
3819.38	0.000399
3829.02	0.00036184
3838.67	0.0004935
3848.31	0.0003845
3857.96	0.00034829
3867.6	0.0004648
3877.25	0.00026981
3886.89	0.00032114
3896.54	0.0004493
3906.18	0.0004328
3915.83	0.0003762
3925.47	0.0004498
3935.12	0.0004823
3944.76	0.00029986
3954.41	0.0005018
3964.05	0.0004488
3973.69	0.0003917
3983.34	0.0002388
3992.98	0.0006025
