Infrared Spectrum: TETRAISOPROPOXYSILANE
Formula: C12 H28 O4 Si
CAS: 1992-48-9
State: SOLUTION (6% IN CCl4 FOR 3800-1300, 3% IN CS2 FOR 1300-550, AND 6% IN CCl4 FOR 550-250 CM^-^1) VS. SOLVENT
Boiling point: 185 C
Class: COBLENTZ II
Instrument: PERKIN-ELMER 521 (GRATING)
Instrument parameters: FILTERS AT 3150, 2500, 2000, 1150, 700, 410. GRATING CHANGES: 2000, 630 CM^-^1
Sampling: TRANSMISSION
Path length: 0.011 CM, 0.011 CM, AND 0.020 CM
Resolution: 2
Origin: DOW CORNING CORP.
1/CM	TRANSMITTANCE
238.524	0.995
247.751	0.965
256.978	0.955
266.206	0.946
275.433	0.93
284.66	0.896
293.887	0.881
303.115	0.878
312.342	0.879
321.569	0.901
330.796	0.915
340.024	0.917
349.251	0.919
358.478	0.919
367.705	0.889
376.933	0.834
386.16	0.762
395.387	0.685
404.614	0.754
413.842	0.795
423.069	0.787
432.296	0.74
441.523	0.673
450.751	0.581
459.978	0.574
469.205	0.706
478.432	0.747
487.66	0.627
496.887	0.385
506.114	0.324
515.341	0.5
524.568	0.731
533.796	0.821
543.023	0.881
552.25	0.927
561.477	0.925
570.705	0.915
579.932	0.905
589.159	0.899
598.386	0.894
607.614	0.889
616.841	0.885
626.068	0.88
635.295	0.875
644.523	0.869
653.75	0.863
662.977	0.861
672.204	0.857
681.432	0.854
690.659	0.852
699.886	0.85
709.113	0.85
718.341	0.846
727.568	0.836
736.795	0.801
746.022	0.7
755.25	0.58
764.477	0.473
773.704	0.5821
782.931	0.799
792.158	0.847
801.386	0.854
810.613	0.85
819.84	0.849
829.067	0.854
838.295	0.86
847.522	0.862
856.749	0.846
865.976	0.825
875.204	0.737
884.431	0.5339
893.658	0.5411
902.885	0.763
912.113	0.817
921.34	0.826
930.567	0.832
939.794	0.837
949.022	0.833
958.249	0.83
967.476	0.819
976.703	0.805
985.931	0.782
995.158	0.733
1004.39	0.663
1013.61	0.4949
1022.84	0.2799
1032.07	0.073
1041.29	0.051
1050.52	0.071
1059.75	0.2591
1068.98	0.504
1078.2	0.65
1087.43	0.696
1096.66	0.652
1105.88	0.4509
1115.11	0.121
1124.34	0.222
1133.57	0.262
1142.79	0.471
1152.02	0.48
1161.25	0.4309
1170.48	0.3361
1179.7	0.6771
1188.93	0.764
1198.16	0.8
1207.38	0.81
1216.61	0.81
1225.84	0.81
1235.07	0.81
1244.29	0.811
1253.52	0.811
1262.75	0.811
1271.98	0.813
1281.2	0.813
1290.43	0.813
1299.66	0.808
1308.88	0.802
1318.11	0.788
1327.34	0.744
1336.57	0.654
1345.79	0.598
1355.02	0.526
1364.25	0.2369
1373.47	0.3179
1382.7	0.2431
1391.93	0.685
1401.16	0.75
1410.38	0.77
1419.61	0.788
1428.84	0.771
1438.07	0.736
1447.29	0.597
1456.52	0.629
1465.75	0.401
1474.97	0.762
1484.2	0.829
1493.43	0.842
1502.66	0.85
1511.88	0.86
1521.11	0.87
1530.34	0.871
1539.56	0.876
1548.79	0.876
1558.02	0.876
1567.25	0.873
1576.47	0.872
1585.7	0.872
1594.93	0.875
1604.16	0.872
1613.38	0.87
1622.61	0.87
1631.84	0.87
1641.06	0.869
1650.29	0.865
1659.52	0.861
1668.75	0.856
1677.97	0.855
1687.2	0.852
1696.43	0.848
1705.66	0.847
1714.88	0.85
1724.11	0.857
1733.34	0.86
1742.56	0.86
1751.79	0.858
1761.02	0.857
1770.25	0.852
1779.47	0.844
1788.7	0.834
1797.93	0.816
1807.15	0.81
1816.38	0.818
1825.61	0.844
1834.84	0.858
1844.06	0.865
1853.29	0.87
1862.52	0.871
1871.75	0.868
1880.97	0.864
1890.2	0.858
1899.43	0.865
1908.65	0.865
1917.88	0.865
1927.11	0.863
1936.34	0.862
1945.56	0.866
1954.79	0.872
1964.02	0.879
1973.25	0.883
1982.47	0.883
1991.7	0.884
2000.93	0.8885
2010.15	0.8925
2019.38	0.893
2028.61	0.893
2037.84	0.893
2047.06	0.893
2056.29	0.8894
2065.52	0.8852
2074.74	0.8801
2083.97	0.8691
2093.2	0.857
2102.43	0.856
2111.65	0.8641
2120.88	0.871
2130.11	0.872
2139.34	0.8718
2148.56	0.873
2157.79	0.8786
2167.02	0.892
2176.24	0.894
2185.47	0.896
2194.7	0.8979
2203.93	0.899
2213.15	0.899
2222.38	0.899
2231.61	0.895
2240.84	0.895
2250.06	0.895
2259.29	0.896
2268.52	0.897
2277.74	0.897
2286.97	0.897
2296.2	0.896
2305.43	0.9001
2314.65	0.915
2323.88	0.913
2333.11	0.913
2342.33	0.913
2351.56	0.912
2360.79	0.9107
2370.02	0.9046
2379.24	0.901
2388.47	0.9006
2397.7	0.9
2406.93	0.9005
2416.15	0.901
2425.38	0.901
2434.61	0.901
2443.83	0.9
2453.06	0.9
2462.29	0.9
2471.52	0.899
2480.74	0.897
2489.97	0.895
2499.2	0.893
2508.43	0.893
2517.65	0.895
2526.88	0.897
2536.11	0.897
2545.33	0.897
2554.56	0.897
2563.79	0.897
2573.02	0.897
2582.24	0.896
2591.47	0.895
2600.7	0.893
2609.92	0.891
2619.15	0.8874
2628.38	0.8805
2637.61	0.8562
2646.83	0.8282
2656.06	0.8535
2665.29	0.8825
2674.52	0.8831
2683.74	0.8752
2692.97	0.87
2702.2	0.873
2711.42	0.872
2720.65	0.8606
2729.88	0.8613
2739.11	0.8692
2748.33	0.873
2757.56	0.873
2766.79	0.873
2776.02	0.8716
2785.24	0.8696
2794.47	0.865
2803.7	0.8354
2812.92	0.8084
2822.15	0.8134
2831.38	0.813
2840.61	0.8072
2849.83	0.77
2859.06	0.5984
2868.29	0.4909
2877.51	0.4732
2886.74	0.4431
2895.97	0.4091
2905.2	0.4097
2914.42	0.4017
2923.65	0.3557
2932.88	0.3122
2942.11	0.4926
2951.33	0.4905
2960.56	0.3191
2969.79	0.0831
2979.01	0.0616
2988.24	0.2872
2997.47	0.5487
3006.7	0.7434
3015.92	0.7872
3025.15	0.8221
3034.38	0.8403
3043.61	0.8497
3052.83	0.8555
3062.06	0.8688
3071.29	0.872
3080.51	0.873
3089.74	0.872
3098.97	0.872
3108.2	0.87
3117.42	0.871
3126.65	0.8689
3135.88	0.8648
3145.1	0.861
3154.33	0.861
3163.56	0.8613
3172.79	0.862
3182.01	0.862
3191.24	0.8635
3200.47	0.867
3209.7	0.87
3218.92	0.8716
3228.15	0.8776
3237.38	0.8807
3246.6	0.8837
3255.83	0.8906
3265.06	0.892
3274.29	0.8911
3283.51	0.892
3292.74	0.893
3301.97	0.894
3311.2	0.894
3320.42	0.893
3329.65	0.893
3338.88	0.893
3348.1	0.893
3357.33	0.893
3366.56	0.893
3375.79	0.893
3385.01	0.893
3394.24	0.893
3403.47	0.893
3412.69	0.893
3421.92	0.894
3431.15	0.894
3440.38	0.8957
3449.6	0.897
3458.83	0.897
3468.06	0.897
3477.29	0.897
3486.51	0.899
3495.74	0.897
3504.97	0.897
3514.19	0.897
3523.42	0.899
3532.65	0.899
3541.88	0.9
3551.1	0.901
3560.33	0.9013
3569.56	0.902
3578.79	0.903
3588.01	0.903
3597.24	0.9015
3606.47	0.899
3615.69	0.9
3624.92	0.9
3634.15	0.9
3643.38	0.899
3652.6	0.8975
3661.83	0.897
3671.06	0.897
3680.28	0.897
3689.51	0.896
3698.74	0.896
3707.97	0.896
3717.19	0.8959
3726.42	0.895
3735.65	0.895
3744.88	0.895
3754.1	0.894
3763.33	0.894
3772.56	0.894
3781.78	0.894
3791.01	0.894
