Infrared Spectrum: Hydrocinnamamide, 2,3,4,5,6-pentafluoro-
Formula: C9 H6 F5 N O
CAS: 1994-24-7
State: SOLID (SPLIT MULL), FLUOROLUBE FOR 3800-1330 CM^-^1, NUJOL FOR 1330-470 CM^-^1
Class: COBLENTZ III
Instrument: DOW KBr FOREPRISM-GRATING
Instrument parameters: BLAZED AT 3.5, 12.0, 20.0 MICRON AND CHANGED AT 5.0, 7.5, 14.9 MICRON
Sampling: TRANSMISSION
Resolution: 2
Origin: DOW CHEMICAL COMPANY
1/CM	TRANSMITTANCE
3800	0.7911
3791	0.7908
3782	0.7907
3773	0.7917
3764	0.7928
3755	0.7935
3746	0.7942
3737	0.7949
3728	0.7955
3719	0.7955
3710	0.7955
3701	0.7951
3692	0.7946
3683	0.7955
3674	0.7978
3665	0.8011
3656	0.8019
3647	0.8025
3638	0.8026
3629	0.8028
3620	0.8036
3611	0.8051
3602	0.8067
3593	0.8067
3584	0.8058
3575	0.8034
3566	0.8017
3557	0.8011
3548	0.8006
3539	0.8005
3530	0.8007
3521	0.8008
3512	0.8008
3503	0.8007
3494	0.8008
3485	0.801
3476	0.8007
3467	0.7998
3458	0.7917
3449	0.7774
3440	0.759
3431	0.7312
3422	0.6724
3413	0.6147
3404	0.496
3395	0.2322
3386	0.2222
3377	0.2935
3368	0.3962
3359	0.4989
3350	0.5527
3341	0.5719
3332	0.588
3323	0.602
3314	0.6109
3305	0.6173
3296	0.6225
3287	0.6238
3278	0.6224
3269	0.6007
3260	0.5726
3251	0.5341
3242	0.4626
3233	0.3634
3224	0.2928
3215	0.2713
3206	0.3147
3197	0.392
3188	0.4693
3179	0.5436
3170	0.6062
3161	0.6455
3152	0.6701
3143	0.6857
3134	0.6985
3125	0.71
3116	0.7196
3107	0.7282
3098	0.7356
3089	0.7422
3080	0.7483
3071	0.7537
3062	0.758
3053	0.7612
3044	0.7644
3035	0.7672
3026	0.7697
3017	0.7711
3008	0.7678
2999	0.7597
2990	0.7592
2981	0.7603
2972	0.7438
2963	0.744
2954	0.7549
2945	0.761
2936	0.7588
2927	0.7568
2918	0.7601
2909	0.7682
2900	0.7756
2891	0.7818
2882	0.784
2873	0.7839
2864	0.7831
2855	0.7834
2846	0.7875
2837	0.7939
2828	0.7975
2819	0.7992
2810	0.7975
2801	0.7912
2792	0.7883
2783	0.7896
2774	0.7917
2765	0.7935
2756	0.7951
2747	0.7968
2738	0.7995
2729	0.8021
2720	0.805
2711	0.8078
2702	0.8101
2693	0.8124
2684	0.8141
2675	0.8146
2666	0.8132
2657	0.8092
2648	0.8049
2639	0.8062
2630	0.8085
2621	0.8101
2612	0.8115
2603	0.8125
2594	0.8136
2585	0.8147
2576	0.8162
2567	0.8178
2558	0.8198
2549	0.8198
2540	0.8186
2531	0.8174
2522	0.8162
2513	0.8168
2504	0.8175
2495	0.8176
2486	0.8162
2477	0.8151
2468	0.8158
2459	0.818
2450	0.8181
2441	0.8161
2432	0.8153
2423	0.8145
2414	0.8146
2405	0.8146
2396	0.8147
2387	0.8151
2378	0.8158
2369	0.8165
2360	0.8175
2351	0.8183
2342	0.8191
2333	0.8196
2324	0.82
2315	0.8203
2306	0.8206
2297	0.8213
2288	0.8218
2279	0.8242
2270	0.8268
2261	0.8292
2252	0.8317
2243	0.8341
2234	0.8366
2225	0.8391
2216	0.8406
2207	0.8413
2198	0.8421
2189	0.8433
2180	0.8477
2171	0.8488
2162	0.8495
2153	0.8499
2144	0.8504
2135	0.8513
2126	0.8521
2117	0.8528
2108	0.8534
2099	0.8541
2090	0.8547
2081	0.8542
2072	0.8548
2063	0.8582
2054	0.8618
2045	0.8646
2036	0.8666
2027	0.8675
2018	0.8671
2009	0.863
2000	0.8621
1991	0.859
1982	0.862
1973	0.8627
1964	0.863
1955	0.865
1946	0.865
1937	0.8642
1928	0.8642
1919	0.8644
1910	0.8647
1901	0.864
1892	0.8627
1883	0.8615
1874	0.8617
1865	0.8618
1856	0.8606
1847	0.8601
1838	0.8588
1829	0.8571
1820	0.8551
1811	0.853
1802	0.8507
1793	0.8467
1784	0.84
1775	0.8417
1766	0.8444
1757	0.844
1748	0.8387
1739	0.8274
1730	0.8211
1721	0.82
1712	0.8125
1703	0.7675
1694	0.6393
1685	0.7193
1676	0.7001
1667	0.5632
1658	0.3657
1649	0.2065
1640	0.1151
1631	0.2514
1622	0.0629
1613	0.1906
1604	0.4441
1595	0.5212
1586	0.6078
1577	0.665
1568	0.7031
1559	0.7231
1550	0.7301
1541	0.7099
1532	0.6243
1523	0.0862
1514	0.2661
1505	0.0336
1496	0.3782
1487	0.6536
1478	0.7111
1469	0.7165
1460	0.6439
1451	0.65
1442	0.6123
1433	0.661
1424	0.5043
1415	0.5776
1406	0.5255
1397	0.6671
1388	0.6781
1379	0.7045
1370	0.7238
1361	0.7291
1352	0.7201
1343	0.6865
1334	0.7244
1325	0.7338
1316	0.7271
1307	0.6738
1298	0.6228
1289	0.7006
1280	0.7095
1271	0.6918
1262	0.6995
1253	0.7045
1244	0.7219
1235	0.7417
1226	0.751
1217	0.7578
1208	0.7628
1199	0.7715
1190	0.7841
1181	0.7632
1172	0.7804
1163	0.796
1154	0.8011
1145	0.7958
1136	0.756
1127	0.4764
1118	0.6188
1109	0.589
1100	0.7665
1091	0.8068
1082	0.816
1073	0.8156
1064	0.8068
1055	0.7264
1046	0.4104
1037	0.6284
1028	0.78
1019	0.8122
1010	0.8195
1001	0.8169
992	0.8131
983	0.7899
974	0.3614
965	0.6956
956	0.534
947	0.4052
938	0.7665
929	0.8057
920	0.8174
911	0.8221
902	0.8115
893	0.7258
884	0.8154
875	0.8307
866	0.8365
857	0.8385
848	0.8398
839	0.8393
830	0.8386
821	0.8371
812	0.832
803	0.815
794	0.7988
785	0.8076
776	0.786
767	0.7811
758	0.7889
749	0.7918
740	0.768
731	0.7647
722	0.7455
713	0.7212
704	0.7186
695	0.7243
686	0.6818
677	0.6791
668	0.7375
659	0.7814
650	0.8042
641	0.8215
632	0.8304
623	0.8364
614	0.8387
605	0.8065
596	0.8061
587	0.8331
578	0.8318
569	0.7331
560	0.7995
551	0.8471
542	0.8543
533	0.8553
524	0.8557
515	0.8578
506	0.8607
497	0.863
488	0.8624
479	0.8561
470	0.8207
