Infrared Spectrum: 3-Phenyl-1-pentene
Formula: C 11 H 14
CAS: 19947-22-9
State: gas
Instrument: HP-GC/MS/IRD
Origin: NIST Mass Spectrometry Data Center
1/CM	ABSORBANCE
550	0.0011151
562	0.0004872
574	0.0004263
586	0.0003906
598	0.0004578
610	0.0006951
622	0.000609
634	0.0004221
646	0.0005691
658	0.0011718
670	0.0022092
682	0.0053781
694	0.0119616
706	0.0124488
718	0.005523
730	0.0024948
742	0.0020706
754	0.0033936
766	0.0069531
778	0.006636
790	0.002625
802	0.0010878
814	0.0005124
826	0.0002457
838	0.0003822
850	0.0006426
862	0.0011214
874	0.002415
886	0.0059115
898	0.0107856
910	0.0068607
922	0.0019446
934	0.000756
946	0.0004053
958	0.0002415
970	0.0001239
982	6.51e-05
994	0.0001281
1006	0.0003087
1018	0.0014805
1030	0.0021987
1042	0.0007707
1054	0.0009135
1066	0.0013461
1078	0.0013272
1090	0.0009303
1102	0.0007812
1114	0.0008274
1126	0.0006237
1138	0.0001596
1150	2.1e-05
1162	4.2e-06
1174	0.0001071
1186	0.0002247
1198	8.61e-05
1210	0.0001974
1222	0.0003759
1234	0.0004725
1246	0.0005187
1258	0.000777
1270	0.0010668
1282	0.0014028
1294	0.0018039
1306	0.0017535
1318	0.0012999
1330	0.0008883
1342	0.0008631
1354	0.0009009
1366	0.0012222
1378	0.0019362
1390	0.0021504
1402	0.0017976
1414	0.0018795
1426	0.0023121
1438	0.0031983
1450	0.0040656
1462	0.004137
1474	0.0035133
1486	0.004326
1498	0.0041223
1510	0.0013272
1522	0.0007833
1534	0.0007476
1546	0.0006762
1558	0.0007392
1570	0.001302
1582	0.0018144
1594	0.0027573
1606	0.0029862
1618	0.0035574
1630	0.0044163
1642	0.0024234
1654	0.0008127
1666	0.0005292
1678	0.0005439
1690	0.0003885
1702	0.0001764
1714	0.0001869
1726	0.0003066
1738	0.00042
1750	0.0004851
1762	0.0003738
1774	0.0004746
1786	0.0010458
1798	0.0015729
1810	0.0012873
1822	0.0006657
1834	0.0003108
1846	0.0002457
1858	0.0004011
1870	0.0005733
1882	0.000714
1894	0.0004662
1906	0.0002352
1918	0.0003003
1930	0.0005943
1942	0.0007812
1954	0.0007056
1966	0.0003003
1978	0.000126
1990	0.0001029
2002	9.87e-05
2014	0.000105
2026	9.66e-05
2038	8.61e-05
2050	0.0001008
2062	7.56e-05
2074	7.98e-05
2086	7.98e-05
2098	7.56e-05
2110	7.14e-05
2122	7.77e-05
2134	9.87e-05
2146	9.24e-05
2158	8.61e-05
2170	0.0001071
2182	9.66e-05
2194	9.66e-05
2206	9.45e-05
2218	6.72e-05
2230	7.98e-05
2242	9.66e-05
2254	0.0001008
2266	0.0001302
2278	0.0001386
2290	0.0001197
2302	0.0001722
2314	0.0002016
2326	0.000168
2338	0.0001827
2350	0.0001617
2362	9.87e-05
2374	0.0001071
2386	0.000105
2398	0.0001197
2410	0.0001386
2422	0.0001386
2434	0.0001344
2446	0.0001113
2458	0.0001071
2470	7.14e-05
2482	7.56e-05
2494	9.24e-05
2506	0.0001029
2518	0.0001176
2530	0.0001155
2542	0.0001344
2554	0.0001449
2566	0.0001659
2578	0.0001827
2590	0.0001848
2602	0.0002121
2614	0.0001995
2626	0.0002016
2638	0.000168
2650	0.0002226
2662	0.0002562
2674	0.0002583
2686	0.0003045
2698	0.0002688
2710	0.0003465
2722	0.0003717
2734	0.0004347
2746	0.0005019
2758	0.0004662
2770	0.0004935
2782	0.0005691
2794	0.0007056
2806	0.0008757
2818	0.0011235
2830	0.0015267
2842	0.0022974
2854	0.0036141
2866	0.0058968
2878	0.0095592
2890	0.0096054
2902	0.0079296
2914	0.009345
2926	0.0135114
2938	0.0194523
2950	0.0180621
2962	0.0196518
2974	0.0189315
2986	0.0099036
2998	0.0057582
3010	0.0050253
3022	0.0061887
3034	0.0075327
3046	0.006888
3058	0.0092715
3070	0.0118587
3082	0.0120981
3094	0.0097629
3106	0.0041811
3118	0.0017913
3130	0.000966
3142	0.0007896
3154	0.0005964
3166	0.0004347
3178	0.0003801
3190	0.0003948
3202	0.0003213
3214	0.0002814
3226	0.0001995
3238	0.0001869
3250	0.0001533
3262	0.0001806
3274	0.0001365
3286	0.0001281
3298	0.0001281
3310	0.000126
3322	0.0001155
3334	0.0001281
3346	0.0001113
3358	0.0001218
3370	0.0001176
3382	0.0001134
3394	0.0001113
3406	0.0001239
3418	0.0001344
3430	0.000105
3442	0.0001407
3454	0.0001491
3466	0.0001323
3478	0.0001176
3490	0.0001365
3502	0.0001365
3514	9.24e-05
3526	9.66e-05
3538	0.0001302
3550	8.61e-05
3562	9.66e-05
3574	0.0001071
3586	0.0001386
3598	0.0001407
3610	0.0001113
3622	0.000147
3634	0.0001407
3646	0.0001575
3658	0.0002184
3670	0.0001113
3682	0.0001722
3694	0.0001743
3706	0.0001575
3718	0.0001218
3730	0.0001512
3742	0.000126
3754	9.66e-05
3766	0.0001596
3778	0.0002394
3790	0.0002163
3802	0.0001533
3814	0.0001911
3826	0.0001743
3838	0.0001596
