Infrared Spectrum: ACETAMIDE, N-(2,2,2-TRIFLUORO-1,1-DIPHENYLETHYL)-
Formula: C16 H14 F3 N O
CAS: 1995-76-2
State: SOLID (SPLIT MULL), FLUOROLUBE FOR 3800-1330 CM^-^1, NUJOL FOR 1330-400 CM^-^1
Class: COBLENTZ III
Instrument: BECKMAN IR-9 (GRATING)
Instrument parameters: ORDER CHANGES: 670, 1200, 2000 CM^-^1
Sampling: TRANSMISSION
Resolution: 2
Origin: DOW CHEMICAL COMPANY
1/CM	TRANSMITTANCE
403	0.5343
412	0.544
421	0.5667
430	0.6184
439	0.6871
448	0.7169
457	0.7412
466	0.7681
475	0.7788
484	0.7693
493	0.7507
502	0.7705
511	0.766
520	0.7846
529	0.7833
538	0.3993
547	0.5825
556	0.7444
565	0.5729
574	0.4059
583	0.6836
592	0.7783
601	0.8145
610	0.8415
619	0.823
628	0.8367
637	0.5681
646	0.4669
655	0.6957
664	0.7471
673	0.7774
682	0.788
691	0.6764
700	0.0733
709	0.0661
718	0.665
727	0.6974
736	0.7607
745	0.7297
754	0.4972
763	0.0797
772	0.7192
781	0.8218
790	0.838
799	0.8462
808	0.8494
817	0.8495
826	0.849
835	0.8494
844	0.8258
853	0.8373
862	0.8428
871	0.8392
880	0.8103
889	0.8037
898	0.8172
907	0.8092
916	0.5753
925	0.7784
934	0.7111
943	0.2444
952	0.703
961	0.7765
970	0.7784
979	0.676
988	0.6696
997	0.6831
1006	0.6455
1015	0.7957
1024	0.7941
1033	0.7696
1042	0.6369
1051	0.7171
1060	0.7606
1069	0.7247
1078	0.4291
1087	0.6818
1096	0.7134
1105	0.5343
1114	0.6089
1123	0.4757
1132	0.5491
1141	0.0634
1150	0.0241
1159	0.1292
1168	0.0681
1177	0.3017
1186	0.4082
1195	0.4453
1204	0.4494
1213	0.3782
1222	0.4088
1231	0.48
1240	0.4123
1249	0.1271
1258	0.3903
1267	0.4218
1276	0.1849
1285	0.1833
1294	0.4291
1303	0.4944
1312	0.6576
1321	0.6937
1330	0.7145
1339	0.6882
1348	0.679
1357	0.7186
1366	0.7183
1375	0.6369
1384	0.7046
1393	0.7211
1402	0.7284
1411	0.7325
1420	0.7336
1429	0.7326
1438	0.7257
1447	0.5877
1456	0.6996
1465	0.7038
1474	0.6711
1483	0.597
1492	0.4091
1501	0.2175
1510	0.422
1519	0.2526
1528	0.421
1537	0.7085
1546	0.7446
1555	0.7711
1564	0.7838
1573	0.7855
1582	0.7757
1591	0.7337
1600	0.7501
1609	0.7435
1618	0.7531
1627	0.7553
1636	0.7441
1645	0.6888
1654	0.6684
1663	0.5891
1672	0.2199
1681	0.0126
1690	0.4873
1699	0.639
1708	0.7901
1717	0.8203
1726	0.843
1735	0.8655
1744	0.8685
1753	0.8644
1762	0.8538
1771	0.8543
1780	0.8577
1789	0.8575
1798	0.8557
1807	0.8371
1816	0.8405
1825	0.8509
1834	0.8527
1843	0.854
1852	0.8552
1861	0.8554
1870	0.8551
1879	0.8461
1888	0.8403
1897	0.8409
1906	0.8462
1915	0.8468
1924	0.8466
1933	0.8468
1942	0.8474
1951	0.8398
1960	0.8328
1969	0.8414
1978	0.844
1987	0.8468
1996	0.8455
2005	0.8493
2014	0.852
2023	0.8518
2032	0.851
2041	0.8501
2050	0.849
2059	0.8475
2068	0.8462
2077	0.8452
2086	0.8435
2095	0.841
2104	0.8386
2113	0.836
2122	0.8335
2131	0.8311
2140	0.8287
2149	0.8262
2158	0.824
2167	0.822
2176	0.82
2185	0.8167
2194	0.8138
2203	0.8111
2212	0.8089
2221	0.8067
2230	0.8044
2239	0.8021
2248	0.7991
2257	0.7955
2266	0.7919
2275	0.7886
2284	0.7854
2293	0.7842
2302	0.7838
2311	0.7838
2320	0.784
2329	0.7842
2338	0.7845
2347	0.7847
2356	0.7848
2365	0.7849
2374	0.7855
2383	0.7861
2392	0.7861
2401	0.786
2410	0.786
2419	0.7861
2428	0.7861
2437	0.786
2446	0.7858
2455	0.7858
2464	0.7858
2473	0.7861
2482	0.7865
2491	0.7869
2500	0.7871
2509	0.7874
2518	0.7875
2527	0.7876
2536	0.7875
2545	0.7871
2554	0.7869
2563	0.7867
2572	0.7862
2581	0.7858
2590	0.7855
2599	0.785
2608	0.7845
2617	0.784
2626	0.7838
2635	0.7834
2644	0.7832
2653	0.7819
2662	0.7808
2671	0.7797
2680	0.7778
2689	0.776
2698	0.7741
2707	0.7721
2716	0.7703
2725	0.7683
2734	0.7662
2743	0.7644
2752	0.7626
2761	0.7608
2770	0.7591
2779	0.7569
2788	0.7549
2797	0.7547
2806	0.7551
2815	0.7565
2824	0.7575
2833	0.7576
2842	0.7553
2851	0.7483
2860	0.7424
2869	0.7404
2878	0.7396
2887	0.7392
2896	0.7382
2905	0.7369
2914	0.7343
2923	0.7308
2932	0.7254
2941	0.7199
2950	0.718
2959	0.7168
2968	0.715
2977	0.7121
2986	0.708
2995	0.7026
3004	0.6975
3013	0.6925
3022	0.69
3031	0.6815
3040	0.6775
3049	0.6787
3058	0.6488
3067	0.5947
3076	0.6224
3085	0.6989
3094	0.7019
3103	0.7005
3112	0.7025
3121	0.7061
3130	0.7078
3139	0.7082
3148	0.7078
3157	0.7053
3166	0.7028
3175	0.7003
3184	0.6972
3193	0.6924
3202	0.6874
3211	0.6821
3220	0.6794
3229	0.6771
3238	0.674
3247	0.6683
3256	0.6611
3265	0.6528
3274	0.645
3283	0.6373
3292	0.6221
3301	0.6057
3310	0.5734
3319	0.5119
3328	0.451
3337	0.3482
3346	0.1965
3355	0.3966
3364	0.5302
3373	0.6141
3382	0.67
3391	0.6878
3400	0.6961
3409	0.6998
3418	0.7018
3427	0.7018
3436	0.7015
3445	0.7011
3454	0.701
3463	0.7007
3472	0.7001
3481	0.6988
3490	0.6975
3499	0.6965
3508	0.6956
3517	0.695
3526	0.6946
3535	0.6943
3544	0.6943
3553	0.6944
3562	0.6947
3571	0.695
3580	0.6888
3589	0.6768
3598	0.6818
3607	0.688
3616	0.6887
3625	0.6876
3634	0.6865
3643	0.6853
3652	0.6841
3661	0.6828
3670	0.6817
3679	0.6804
3688	0.6792
3697	0.6785
3706	0.6778
3715	0.6772
3724	0.6768
3733	0.6762
3742	0.6758
3751	0.6756
3760	0.6756
3769	0.6751
3778	0.6751
3787	0.6751
3796	0.6753
