Infrared Spectrum: Hydroxylamine, o-acetyl-N-benzoyl-N-phenyl
Formula: C15 H13 N O3
CAS: 19958-58-8
State: SOLID (SPLIT MULL), FLUOROLUBE FOR 3800-1330 CM^-^1, NUJOL FOR 1330-450 CM^-^1
Class: COBLENTZ III
Instrument: DOW KBr FOREPRISM-GRATING
Instrument parameters: BLAZED AT 3.5, 12.0, 20.0 MICRON AND CHANGED AT 5.0, 7.5, 14.9 MICRON
Sampling: TRANSMISSION
Resolution: 2
Origin: DOW CHEMICAL COMPANY
1/CM	TRANSMITTANCE
3800	0.6029
3791	0.6054
3782	0.6079
3773	0.6092
3764	0.61
3755	0.6107
3746	0.612
3737	0.613
3728	0.6139
3719	0.615
3710	0.6157
3701	0.6157
3692	0.615
3683	0.6143
3674	0.6159
3665	0.6194
3656	0.622
3647	0.624
3638	0.6256
3629	0.627
3620	0.6283
3611	0.6295
3602	0.6308
3593	0.6321
3584	0.6335
3575	0.6348
3566	0.6358
3557	0.6351
3548	0.6324
3539	0.6324
3530	0.6352
3521	0.6376
3512	0.6397
3503	0.6417
3494	0.6433
3485	0.6445
3476	0.6458
3467	0.6468
3458	0.6482
3449	0.6498
3440	0.6514
3431	0.653
3422	0.6547
3413	0.6562
3404	0.6578
3395	0.6595
3386	0.6611
3377	0.6628
3368	0.6645
3359	0.6661
3350	0.6676
3341	0.6689
3332	0.6698
3323	0.6701
3314	0.6661
3305	0.6618
3296	0.6651
3287	0.6685
3278	0.6712
3269	0.6726
3260	0.6742
3251	0.6756
3242	0.6769
3233	0.6783
3224	0.6796
3215	0.6808
3206	0.6821
3197	0.6832
3188	0.6842
3179	0.6848
3170	0.6856
3161	0.6869
3152	0.6884
3143	0.6899
3134	0.691
3125	0.6922
3116	0.6933
3107	0.6925
3098	0.6912
3089	0.6858
3080	0.6701
3071	0.6626
3062	0.638
3053	0.6508
3044	0.6695
3035	0.6778
3026	0.6793
3017	0.684
3008	0.6901
2999	0.6942
2990	0.6975
2981	0.6992
2972	0.7008
2963	0.7022
2954	0.7036
2945	0.7037
2936	0.6937
2927	0.681
2918	0.6839
2909	0.6928
2900	0.6997
2891	0.7068
2882	0.714
2873	0.7187
2864	0.7215
2855	0.723
2846	0.7246
2837	0.7268
2828	0.7293
2819	0.7317
2810	0.7336
2801	0.7354
2792	0.7371
2783	0.739
2774	0.7406
2765	0.7421
2756	0.7438
2747	0.7454
2738	0.7469
2729	0.7487
2720	0.7503
2711	0.7519
2702	0.7535
2693	0.7549
2684	0.7564
2675	0.7578
2666	0.7593
2657	0.76
2648	0.7608
2639	0.7615
2630	0.763
2621	0.7645
2612	0.7661
2603	0.7675
2594	0.7693
2585	0.7708
2576	0.7724
2567	0.7735
2558	0.7747
2549	0.7758
2540	0.7767
2531	0.7769
2522	0.7772
2513	0.7775
2504	0.7776
2495	0.7772
2486	0.7769
2477	0.7765
2468	0.7761
2459	0.7756
2450	0.775
2441	0.7744
2432	0.774
2423	0.7739
2414	0.7742
2405	0.7744
2396	0.7745
2387	0.7745
2378	0.7745
2369	0.7747
2360	0.7748
2351	0.7748
2342	0.774
2333	0.7714
2324	0.7688
2315	0.7667
2306	0.7682
2297	0.7701
2288	0.7722
2279	0.7743
2270	0.7769
2261	0.7808
2252	0.7849
2243	0.7896
2234	0.7944
2225	0.8001
2216	0.8061
2207	0.813
2198	0.8165
2189	0.8169
2180	0.8184
2171	0.8216
2162	0.8252
2153	0.8282
2144	0.8313
2135	0.8344
2126	0.8377
2117	0.8411
2108	0.8445
2099	0.8478
2090	0.8512
2081	0.8546
2072	0.8575
2063	0.8607
2054	0.8641
2045	0.8652
2036	0.8607
2027	0.8587
2018	0.8608
2009	0.8653
2000	0.8702
1991	0.8604
1982	0.8589
1973	0.8541
1964	0.8593
1955	0.8591
1946	0.8558
1937	0.8668
1928	0.8725
1919	0.87
1910	0.8649
1901	0.8625
1892	0.8712
1883	0.8686
1874	0.8675
1865	0.875
1856	0.8663
1847	0.866
1838	0.8771
1829	0.8818
1820	0.8888
1811	0.8923
1802	0.8486
1793	0.7925
1784	0.1927
1775	0.3542
1766	0.6847
1757	0.7625
1748	0.7801
1739	0.7788
1730	0.791
1721	0.8187
1712	0.8199
1703	0.8268
1694	0.7688
1685	0.7543
1676	0.7049
1667	0.0238
1658	0.3208
1649	0.505
1640	0.6481
1631	0.7091
1622	0.7401
1613	0.7634
1604	0.7869
1595	0.6678
1586	0.6358
1577	0.5322
1568	0.7461
1559	0.8001
1550	0.823
1541	0.8263
1532	0.8339
1523	0.8396
1514	0.8499
1505	0.8468
1496	0.7784
1487	0.4372
1478	0.7781
1469	0.8264
1460	0.821
1451	0.6908
1442	0.561
1433	0.7171
1424	0.7108
1415	0.7378
1406	0.761
1397	0.7651
1388	0.7501
1379	0.4945
1370	0.5341
1361	0.6462
1352	0.4819
1343	0.0803
1334	0.238
1325	0.4814
1316	0.6765
1307	0.5112
1298	0.5812
1289	0.6156
1280	0.7114
1271	0.586
1262	0.4134
1253	0.6714
1244	0.7419
1235	0.7581
1226	0.7815
1217	0.7915
1208	0.7851
1199	0.7387
1190	0.6175
1181	0.0865
1172	0.0629
1163	0.4373
1154	0.6654
1145	0.74
1136	0.5233
1127	0.7536
1118	0.8093
1109	0.8121
1100	0.8085
1091	0.8138
1082	0.8051
1073	0.6138
1064	0.7437
1055	0.7787
1046	0.7235
1037	0.7037
1028	0.7411
1019	0.7689
1010	0.7276
1001	0.2184
992	0.6411
983	0.7661
974	0.7969
965	0.8045
956	0.8247
947	0.8318
938	0.8315
929	0.663
920	0.381
911	0.6449
902	0.7718
893	0.8286
884	0.8371
875	0.8435
866	0.8385
857	0.7672
848	0.5931
839	0.6898
830	0.8268
821	0.8406
812	0.8542
803	0.8564
794	0.8026
785	0.7686
776	0.7496
767	0.5181
758	0.8156
749	0.8361
740	0.821
731	0.7986
722	0.6192
713	0.4841
704	0.2106
695	0.4619
686	0.2895
677	0.8138
668	0.808
659	0.8252
650	0.5245
641	0.8502
632	0.8751
623	0.8775
614	0.8547
605	0.8747
596	0.7801
587	0.8367
578	0.8565
569	0.6851
560	0.6439
551	0.8176
542	0.8373
533	0.8396
524	0.8346
515	0.8246
506	0.7475
497	0.8158
488	0.8268
479	0.8315
470	0.83
461	0.8148
