Infrared Spectrum: P-CHLOROBENZENE SULFONIC ACID, P-CHLOROPHENYL HYDRAZIDE
Formula: C12 H10 Cl2 N2 O2 S
CAS: 19957-45-0
State: SOLID (MINERAL OIL MULL)
Class: COBLENTZ
Instrument: Not specified, most likely a prism, grating, or hybrid spectrometer.
Sampling: TRANSMISSION
Resolution: 4
Origin: DOW CHEMICAL COMPANY
MICROMETERS	TRANSMITTANCE
2.04	0.56
2.08012	0.569
2.12023	0.575
2.16035	0.58
2.20046	0.594
2.24058	0.595
2.2807	0.594
2.32081	0.597
2.36093	0.607
2.40104	0.619
2.44116	0.631
2.48127	0.642
2.52139	0.652
2.56151	0.662
2.60162	0.669
2.64174	0.681
2.68185	0.686
2.72197	0.696
2.76209	0.697
2.8022	0.709
2.84232	0.712
2.88243	0.724
2.92255	0.729
2.96267	0.667
3.00278	0.544
3.0429	0.57
3.08301	0.424
3.12313	0.592
3.16325	0.646
3.20336	0.662
3.24348	0.626
3.28359	0.632
3.32371	0.567
3.36382	0.322
3.40394	0.02
3.44406	0.06
3.48417	0.126
3.52429	0.459
3.5644	0.736
3.60452	0.784
3.64464	0.789
3.68475	0.787
3.72487	0.792
3.76498	0.797
3.8051	0.813
3.84522	0.819
3.88533	0.828
3.92545	0.841
3.96556	0.849
4.00568	0.853
4.04579	0.861
4.08591	0.868
4.12603	0.863
4.16614	0.863
4.20626	0.856
4.24637	0.874
4.28649	0.888
4.32661	0.893
4.36672	0.881
4.40684	0.883
4.44695	0.891
4.48707	0.896
4.52719	0.898
4.5673	0.898
4.60742	0.899
4.64753	0.904
4.68765	0.909
4.72777	0.909
4.76788	0.913
4.808	0.918
4.84811	0.919
4.88823	0.923
4.92834	0.924
4.96846	0.926
5.00858	0.933
5.04869	0.934
5.08881	0.939
5.12892	0.933
5.16904	0.921
5.20916	0.923
5.24927	0.939
5.28939	0.923
5.3295	0.928
5.36962	0.951
5.40974	0.941
5.44985	0.951
5.48997	0.951
5.53008	0.939
5.5702	0.943
5.61031	0.936
5.65043	0.941
5.69055	0.934
5.73066	0.939
5.77078	0.941
5.81089	0.943
5.85101	0.946
5.89113	0.954
5.93124	0.949
5.97136	0.938
6.01147	0.933
6.05159	0.931
6.09171	0.933
6.13182	0.948
6.17194	0.929
6.21205	0.761
6.25217	0.721
6.29228	0.777
6.3324	0.824
6.37252	0.869
6.41263	0.934
6.45275	0.936
6.49286	0.929
6.53298	0.863
6.5731	0.729
6.61321	0.639
6.65333	0.744
6.69344	0.57
6.73356	0.552
6.77368	0.459
6.81379	0.367
6.85391	0.405
6.89402	0.585
6.93414	0.716
6.97426	0.751
7.01437	0.727
7.05449	0.831
7.0946	0.746
7.13472	0.646
7.17483	0.641
7.21495	0.57
7.25507	0.58
7.29518	0.714
7.3353	0.774
7.37541	0.752
7.41553	0.662
7.45565	0.489
7.49576	0.223
7.53588	0.38
7.57599	0.637
7.61611	0.719
7.65623	0.691
7.69634	0.729
7.73646	0.704
7.77657	0.659
7.81669	0.787
7.8568	0.828
7.89692	0.779
7.93704	0.714
7.97715	0.776
8.01727	0.843
8.05738	0.874
8.0975	0.886
8.13762	0.893
8.17773	0.894
8.21785	0.894
8.25796	0.889
8.29808	0.879
8.3382	0.864
8.37831	0.819
8.41843	0.729
8.45854	0.617
8.49866	0.509
8.53878	0.277
8.57889	0.151
8.61901	0.328
8.65912	0.632
8.69924	0.747
8.73935	0.809
8.77947	0.839
8.81959	0.861
8.8597	0.858
8.89982	0.841
8.93993	0.836
8.98005	0.821
9.02017	0.766
9.06028	0.711
9.1004	0.57
9.14051	0.464
9.18063	0.398
9.22075	0.477
9.26086	0.632
9.30098	0.779
9.34109	0.821
9.38121	0.864
9.42132	0.883
9.46144	0.898
9.50156	0.903
9.54167	0.908
9.58179	0.908
9.6219	0.908
9.66202	0.911
9.70214	0.898
9.74225	0.889
9.78237	0.914
9.82248	0.772
9.8626	0.706
9.90272	0.739
9.94283	0.858
9.98295	0.909
10.0231	0.918
10.0632	0.924
10.1033	0.933
10.1434	0.931
10.1835	0.928
10.2236	0.926
10.2638	0.914
10.3039	0.911
10.344	0.916
10.3841	0.918
10.4242	0.908
10.4643	0.888
10.5045	0.914
10.5446	0.921
10.5847	0.929
10.6248	0.933
10.6649	0.938
10.705	0.933
10.7451	0.929
10.7853	0.934
10.8254	0.939
10.8655	0.939
10.9056	0.939
10.9457	0.939
10.9858	0.943
11.026	0.936
11.0661	0.923
11.1062	0.908
11.1463	0.889
11.1864	0.879
11.2265	0.873
11.2667	0.871
11.3068	0.878
11.3469	0.881
11.387	0.888
11.4271	0.889
11.4672	0.893
11.5074	0.894
11.5475	0.893
11.5876	0.888
11.6277	0.876
11.6678	0.859
11.7079	0.833
11.748	0.821
11.7882	0.826
11.8283	0.848
11.8684	0.816
11.9085	0.732
11.9486	0.699
11.9887	0.762
12.0289	0.672
12.069	0.502
12.1091	0.362
12.1492	0.283
12.1893	0.45
12.2294	0.689
12.2696	0.808
12.3097	0.864
12.3498	0.889
12.3899	0.899
12.43	0.908
12.4701	0.911
12.5102	0.914
12.5504	0.914
12.5905	0.914
12.6306	0.913
12.6707	0.908
12.7108	0.899
12.7509	0.891
12.7911	0.878
12.8312	0.874
12.8713	0.854
12.9114	0.816
12.9515	0.754
12.9916	0.722
13.0318	0.716
13.0719	0.731
13.112	0.722
13.1521	0.647
13.1922	0.56
13.2323	0.469
13.2725	0.405
13.3126	0.46
13.3527	0.632
13.3928	0.701
13.4329	0.746
13.473	0.757
13.5131	0.751
13.5533	0.729
13.5934	0.709
13.6335	0.679
13.6736	0.661
13.7137	0.639
13.7538	0.627
13.794	0.622
13.8341	0.627
13.8742	0.641
13.9143	0.667
13.9544	0.684
13.9945	0.701
14.0347	0.709
14.0748	0.702
14.1149	0.672
14.155	0.667
14.1951	0.677
14.2352	0.689
14.2753	0.687
14.3155	0.676
14.3556	0.674
14.3957	0.679
14.4358	0.689
14.4759	0.696
14.516	0.697
14.5562	0.697
14.5963	0.696
14.6364	0.687
14.6765	0.679
14.7166	0.669
14.7567	0.662
14.7969	0.646
14.837	0.639
14.8771	0.622
14.9172	0.614
14.9573	0.601
14.9974	0.585
15.0376	0.565
15.0777	0.544
15.1178	0.52
15.1579	0.502
15.198	0.484
15.2381	0.464
15.2782	0.44
15.3184	0.422
15.3585	0.404
15.3986	0.375
15.4387	0.353
15.4788	0.338
15.5189	0.332
15.5591	0.332
15.5992	0.34
15.6393	0.352
15.6794	0.36
15.7195	0.365
15.7596	0.367
15.7998	0.363
15.8399	0.358
15.88	0.358
15.9201	0.362
