Infrared Spectrum: 1-Bromo-4-chloro-2-fluorobenzene
Formula: C 6 H 3 Br Cl F
CAS: 1996-29-8
State: gas
Origin: EPA-IR VAPOR PHASE LIBRARY
1/CM	ABSORBANCE
549.8	0.03727
559.445	0.01047
569.09	0.00687
578.734	0.01187
588.379	0.00943
598.024	0.00541
607.669	0.00339
617.313	0.000977
626.958	0.000771
636.603	0.000701
646.248	0.0017121
655.893	0.00164
665.537	0.0016665
675.182	0.00255
684.827	0.00347
694.472	0.00414
704.116	0.00257
713.761	0.0020227
723.406	0.00256
733.051	0.0019364
742.695	0.0013169
752.34	0.0018434
761.985	0.00277
771.63	0.00389
781.275	0.00542
790.919	0.01608
800.564	0.02931
810.209	0.02679
819.854	0.01333
829.498	0.0052
839.143	0.00716
848.788	0.02204
858.433	0.04368
868.078	0.03286
877.722	0.01952
887.367	0.03512
897.012	0.10909
906.657	0.0756
916.301	0.00925
925.946	0.00392
935.591	0.00349
945.236	0.00279
954.88	0.00315
964.525	0.00359
974.17	0.00289
983.815	0.00321
993.46	0.00293
1003.1	0.00283
1012.75	0.00325
1022.39	0.00718
1032.04	0.01608
1041.68	0.0486
1051.33	0.03435
1060.97	0.0105
1070.62	0.02683
1080.26	0.09241
1089.91	0.07015
1099.55	0.02058
1109.2	0.00901
1118.84	0.01611
1128.49	0.01592
1138.13	0.01145
1147.78	0.01061
1157.42	0.00607
1167.07	0.00511
1176.71	0.00381
1186.36	0.00379
1196	0.00406
1205.64	0.00854
1215.29	0.02065
1224.93	0.02904
1234.58	0.0332
1244.22	0.02626
1253.87	0.01781
1263.51	0.01756
1273.16	0.01659
1282.8	0.00905
1292.45	0.00335
1302.09	0.0021573
1311.74	0.0020369
1321.38	0.0020344
1331.03	0.00258
1340.67	0.00322
1350.32	0.00401
1359.96	0.00597
1369.61	0.01134
1379.25	0.01957
1388.9	0.02971
1398.54	0.04088
1408.18	0.03895
1417.83	0.02349
1427.47	0.01913
1437.12	0.03387
1446.76	0.02633
1456.41	0.03024
1466.05	0.10898
1475.7	0.17407
1485.34	0.06302
1494.99	0.02102
1504.63	0.00888
1514.28	0.00893
1523.92	0.00809
1533.57	0.00589
1543.21	0.00681
1552.86	0.01354
1562.5	0.03517
1572.15	0.06538
1581.79	0.07264
1591.44	0.04453
1601.08	0.01763
1610.73	0.00742
1620.37	0.00444
1630.01	0.00318
1639.66	0.00266
1649.3	0.00248
1658.95	0.00255
1668.59	0.00278
1678.24	0.0028
1687.88	0.002178
1697.53	0.00232
1707.17	0.00421
1716.82	0.00508
1726.46	0.00387
1736.11	0.0034
1745.75	0.00287
1755.4	0.0019113
1765.04	0.00253
1774.69	0.00252
1784.33	0.00248
1793.98	0.00231
1803.62	0.0020684
1813.27	0.0018405
1822.91	0.0016266
1832.55	0.0014128
1842.2	0.0017966
1851.84	0.0021325
1861.49	0.00274
1871.13	0.00359
1880.78	0.00336
1890.42	0.00259
1900.07	0.0019898
1909.71	0.001574
1919.36	0.0015701
1929	0.0015381
1938.65	0.0017441
1948.29	0.0014958
1957.94	0.0014807
1967.58	0.00134041
1977.23	0.0016155
1986.87	0.0012853
1996.52	0.001095
2006.16	0.0012596
2015.81	0.0014003
2025.45	0.00135412
2035.1	0.00130641
2044.74	0.0012431
2054.38	0.00136559
2064.03	0.00128335
2073.67	0.00132291
2083.32	0.00133315
2092.96	0.0013958
2102.61	0.0014977
2112.25	0.0016656
2121.9	0.0021404
2131.54	0.0019057
2141.19	0.0014942
2150.83	0.001613
2160.48	0.0020999
2170.12	0.0019167
2179.77	0.001692
2189.41	0.0014636
2199.06	0.001042
2208.7	0.001141
2218.35	0.0011809
2227.99	0.00126528
2237.64	0.0014421
2247.28	0.0013033
2256.92	0.0018208
2266.57	0.001654
2276.21	0.0018829
2285.86	0.0017601
2295.5	0.0015419
2305.15	0.0015214
2314.79	0.0016573
2324.44	0.0014669
2334.08	0.0018308
2343.73	0.0015632
2353.37	0.0014512
2363.02	0.00136017
2372.66	0.001083
2382.31	0.0016099
2391.95	0.00130658
2401.6	0.0012363
2411.24	0.0015353
2420.89	0.0013801
2430.53	0.00136986
2440.18	0.0015806
2449.82	0.0016468
2459.47	0.0016035
2469.11	0.0019857
2478.75	0.0018206
2488.4	0.0020703
2498.04	0.0022057
2507.69	0.0021264
2517.33	0.0020471
2526.98	0.0015444
2536.62	0.00129522
2546.27	0.0014928
2555.91	0.000935
2565.56	0.00130151
2575.2	0.001126
2584.85	0.00134978
2594.49	0.0012318
2604.14	0.001012
2613.78	0.000915
2623.43	0.0011751
2633.07	0.0015026
2642.72	0.0018704
2652.36	0.0020133
2662.01	0.0017408
2671.65	0.0018635
2681.29	0.0018598
2690.94	0.0016884
2700.58	0.0014524
2710.23	0.0016705
2719.87	0.001435
2729.52	0.001079
2739.16	0.000716
2748.81	0.001106
2758.45	0.001025
2768.1	0.000974
2777.74	0.0014396
2787.39	0.001506
2797.03	0.0019493
2806.68	0.001599
2816.32	0.001539
2825.97	0.000893
2835.61	0.001109
2845.26	0.0014504
2854.9	0.0013272
2864.55	0.001118
2874.19	0.000666
2883.84	0.001078
2893.48	0.001149
2903.12	0.000722
2912.77	0.000891
2922.41	0.000974
2932.06	0.000805
2941.7	0.000578
2951.35	0.000968
2960.99	0.000943
2970.64	0.000669
2980.28	0.000987
2989.93	0.0005
2999.57	0.0012278
3009.22	0.000917
3018.86	0.0011866
3028.51	0.0013107
3038.15	0.000999
3047.8	0.0011891
3057.44	0.000909
3067.09	0.00136294
3076.73	0.0028
3086.38	0.00262
3096.02	0.00228
3105.67	0.001132
3115.31	0.00133426
3124.95	0.000952
3134.6	0.000893
3144.24	0.001133
3153.89	0.0017335
3163.53	0.001033
3173.18	0.00128716
3182.82	0.001007
3192.47	0.000946
3202.11	0.000997
3211.76	0.000807
3221.4	0.000866
3231.05	0.000303
3240.69	0.0012074
3250.34	0.001054
3259.98	0.001112
3269.63	0.000973
3279.27	0.001006
3288.92	0.000885
3298.56	0.00136607
3308.21	0.0012807
3317.85	0.001163
3327.49	0.001123
3337.14	0.001104
3346.78	0.00104
3356.43	0.000891
3366.07	0.001154
3375.72	0.0013785
3385.36	0.001016
3395.01	0.00113
3404.65	0.000686
3414.3	0.000303
3423.94	0.0013826
3433.59	0.001124
3443.23	0.0014889
3452.88	0.00133694
3462.52	0.000917
3472.17	0.000485
3481.81	0.000874
3491.46	0.001001
3501.1	0.000724
3510.75	0.0012563
3520.39	0.0009
3530.04	0.000327
3539.68	0.001048
3549.32	0.000709
3558.97	0.0014328
3568.61	0.001415
3578.26	0.0014124
3587.9	0.001138
3597.55	0.00021
3607.19	0.000788
3616.84	0.0012129
3626.48	0.00127517
3636.13	0.0013877
3645.77	0.000611
3655.42	0.0014074
3665.06	0.0014262
3674.71	0.0017484
3684.35	0.00128638
3694	0.00126671
3703.64	0.0012201
3713.29	0.00087
3722.93	0.000567
3732.58	0.0015357
3742.22	0.0012237
3751.86	0.0021457
3761.51	0.00136709
3771.15	0.001438
3780.8	0.00130672
3790.44	0.0012074
3800.09	0.0019468
3809.73	0.000991
3819.38	0.00130227
3829.02	0.0016872
3838.67	0.000981
3848.31	0.0017389
3857.96	0.001027
3867.6	0.0015634
3877.25	0.000745
3886.89	0.000588
3896.54	0.0016027
3906.18	0.0017975
3915.83	0.000703
3925.47	0.000979
3935.12	0.0014993
3944.76	0.0017101
3954.41	0.000274
3964.05	0.000977
3973.69	0.0015979
3983.34	0.001038
3992.98	0.0019716
