Infrared Spectrum: 4-HYDROXY-4,5,5-TRIMETHYLTHIAZOLIDINE-2-THIONE
Formula: C6 H11 N O S2
CAS: 19975-64-5
State: SOLID (KBr PELLET)
Melting point: 117 C
Class: COBLENTZ
Instrument: Not specified, most likely a prism, grating, or hybrid spectrometer.
Sampling: TRANSMISSION
Resolution: 4
Origin: EASTMAN KODAK COMPANY, RESEARCH LABORATORIES, ROCHESTER, N.Y.
MICROMETERS	TRANSMITTANCE
2.007	0.575
2.04698	0.576
2.08696	0.578
2.12694	0.58
2.16692	0.584
2.2069	0.586
2.24688	0.588
2.28686	0.594
2.32684	0.601
2.36682	0.607
2.4068	0.614
2.44678	0.616
2.48676	0.622
2.52674	0.624
2.56672	0.63
2.6067	0.633
2.64668	0.643
2.68666	0.671
2.72664	0.679
2.76662	0.684
2.8066	0.656
2.84658	0.571
2.88656	0.472
2.92654	0.385
2.96652	0.259
3.0065	0.218
3.04648	0.318
3.08646	0.328
3.12644	0.313
3.16642	0.161
3.2064	0.107
3.24638	0.253
3.28636	0.364
3.32634	0.431
3.36632	0.37
3.4063	0.346
3.44628	0.367
3.48626	0.488
3.52624	0.496
3.56622	0.519
3.6062	0.522
3.64618	0.568
3.68616	0.583
3.72614	0.589
3.76612	0.599
3.8061	0.616
3.84608	0.648
3.88606	0.658
3.92604	0.658
3.96602	0.661
4.006	0.669
4.04598	0.668
4.08596	0.669
4.12594	0.679
4.16592	0.692
4.2059	0.712
4.24588	0.714
4.28586	0.715
4.32584	0.722
4.36582	0.728
4.4058	0.746
4.44578	0.754
4.48576	0.761
4.52574	0.771
4.56572	0.777
4.6057	0.782
4.64568	0.784
4.68566	0.784
4.72564	0.785
4.76562	0.792
4.8056	0.795
4.84558	0.799
4.88556	0.8
4.92554	0.802
4.96552	0.803
5.0055	0.816
5.04548	0.823
5.08546	0.828
5.12544	0.833
5.16542	0.838
5.2054	0.841
5.24538	0.843
5.28536	0.848
5.32534	0.852
5.36532	0.856
5.4053	0.862
5.44528	0.866
5.48526	0.869
5.52524	0.869
5.56522	0.87
5.6052	0.877
5.64518	0.882
5.68516	0.888
5.72514	0.893
5.76512	0.892
5.8051	0.887
5.84508	0.887
5.88506	0.89
5.92504	0.89
5.96502	0.892
6.005	0.892
6.04498	0.872
6.08496	0.807
6.12494	0.807
6.16492	0.825
6.2049	0.834
6.24488	0.862
6.28486	0.882
6.32484	0.885
6.36482	0.885
6.4048	0.885
6.44478	0.883
6.48476	0.882
6.52474	0.872
6.56472	0.851
6.6047	0.803
6.64468	0.686
6.68466	0.264
6.72464	0.165
6.76462	0.204
6.8046	0.266
6.84458	0.256
6.88456	0.256
6.92454	0.323
6.96452	0.328
7.0045	0.377
7.04448	0.501
7.08446	0.586
7.12444	0.642
7.16442	0.632
7.2044	0.532
7.24438	0.462
7.28436	0.485
7.32434	0.447
7.36432	0.424
7.4043	0.32
7.44428	0.364
7.48426	0.486
7.52424	0.522
7.56422	0.457
7.6042	0.433
7.64418	0.485
7.68416	0.566
7.72414	0.635
7.76412	0.64
7.8041	0.596
7.84408	0.666
7.88406	0.725
7.92404	0.766
7.96402	0.792
8.004	0.807
8.04398	0.813
8.08396	0.815
8.12394	0.816
8.16392	0.816
8.2039	0.797
8.24388	0.777
8.28386	0.761
8.32384	0.66
8.36382	0.415
8.4038	0.475
8.44378	0.665
8.48376	0.671
8.52374	0.65
8.56372	0.635
8.6037	0.509
8.64368	0.486
8.68366	0.537
8.72364	0.529
8.76362	0.454
8.8036	0.346
8.84358	0.225
8.88356	0.13
8.92354	0.099
8.96352	0.101
9.0035	0.099
9.04349	0.081
9.08347	0.12
9.12345	0.261
9.16343	0.37
9.20341	0.439
9.24339	0.486
9.28337	0.545
9.32335	0.594
9.36333	0.645
9.40331	0.679
9.44329	0.702
9.48327	0.702
9.52325	0.665
9.56323	0.576
9.60321	0.495
9.64319	0.462
9.68317	0.49
9.72315	0.411
9.76313	0.106
9.80311	0.032
9.84309	0.199
9.88307	0.395
9.92305	0.382
9.96303	0.142
10.003	0.174
10.043	0.333
10.083	0.511
10.1229	0.56
10.1629	0.617
10.2029	0.656
10.2429	0.687
10.2829	0.712
10.3228	0.73
10.3628	0.743
10.4028	0.769
10.4428	0.776
10.4828	0.799
10.5227	0.805
10.5627	0.81
10.6027	0.803
10.6427	0.759
10.6827	0.661
10.7226	0.444
10.7626	0.269
10.8026	0.23
10.8426	0.166
10.8826	0.276
10.9225	0.38
10.9625	0.401
11.0025	0.433
11.0425	0.514
11.0825	0.581
11.1224	0.629
11.1624	0.666
11.2024	0.684
11.2424	0.704
11.2824	0.722
11.3223	0.736
11.3623	0.761
11.4023	0.769
11.4423	0.772
11.4823	0.785
11.5222	0.795
11.5622	0.8
11.6022	0.805
11.6422	0.808
11.6822	0.812
11.7221	0.812
11.7621	0.802
11.8021	0.776
11.8421	0.741
11.8821	0.771
11.922	0.789
11.962	0.812
12.002	0.821
12.042	0.838
12.082	0.841
12.1219	0.849
12.1619	0.856
12.2019	0.859
12.2419	0.867
12.2819	0.87
12.3218	0.872
12.3618	0.877
12.4018	0.879
12.4418	0.88
12.4818	0.883
12.5217	0.887
12.5617	0.888
12.6017	0.888
12.6417	0.888
12.6817	0.888
12.7216	0.887
12.7616	0.885
12.8016	0.883
12.8416	0.882
12.8816	0.879
12.9215	0.874
12.9615	0.866
13.0015	0.862
13.0415	0.861
13.0815	0.856
13.1214	0.848
13.1614	0.843
13.2014	0.839
13.2414	0.826
13.2814	0.812
13.3213	0.79
13.3613	0.751
13.4013	0.748
13.4413	0.75
13.4813	0.751
13.5212	0.751
13.5612	0.746
13.6012	0.732
13.6412	0.709
13.6812	0.684
13.7211	0.65
13.7611	0.616
13.8011	0.581
13.8411	0.534
13.8811	0.504
13.921	0.486
13.961	0.48
14.001	0.48
14.041	0.498
14.081	0.522
14.1209	0.553
14.1609	0.566
14.2009	0.578
14.2409	0.588
14.2809	0.596
14.3208	0.606
14.3608	0.612
14.4008	0.622
14.4408	0.643
14.4808	0.656
14.5207	0.666
14.5607	0.669
14.6007	0.663
14.6407	0.614
14.6807	0.529
14.7206	0.397
14.7606	0.303
14.8006	0.279
14.8406	0.3
14.8806	0.349
14.9205	0.406
14.9605	0.437
15.0005	0.478
15.0405	0.549
15.0805	0.617
15.1204	0.658
15.1604	0.686
15.2004	0.702
15.2404	0.715
15.2804	0.72
15.3203	0.728
15.3603	0.74
15.4003	0.746
15.4403	0.748
15.4803	0.748
15.5202	0.748
15.5602	0.748
15.6002	0.748
15.6402	0.746
15.6802	0.746
15.7201	0.745
15.7601	0.741
15.8001	0.741
15.8401	0.745
15.8801	0.748
15.92	0.75
15.96	0.751
16	0.753
