Infrared Spectrum: 2-Thiazoline, 2-(methylthio)-
Formula: C4 H7 N S2
CAS: 19975-56-5
State: LIQUID (NEAT)
Class: COBLENTZ III
Instrument: PERKIN-ELMER 21 (GRATING)
Instrument parameters: FILTER CHANGE ABOUT 1030 CM^-^1
Sampling: TRANSMISSION
Path length: CAPILLARY
Resolution: 2
Origin: SOUTHERN RESEARCH INSTITUTE
1/CM	TRANSMITTANCE
599.08	0.6407
608.12	0.6413
617.159	0.6402
626.199	0.6378
635.238	0.6366
644.278	0.6599
653.317	0.6933
662.357	0.7065
671.396	0.7249
680.436	0.7362
689.475	0.7374
698.515	0.7383
707.554	0.7509
716.594	0.8031
725.634	0.8376
734.673	0.8525
743.713	0.8626
752.752	0.8695
761.792	0.8755
770.831	0.8802
779.871	0.884
788.91	0.8868
797.95	0.8878
806.989	0.8861
816.029	0.8828
825.069	0.8781
834.108	0.858
843.148	0.8333
852.187	0.8518
861.227	0.8656
870.266	0.8613
879.306	0.8465
888.345	0.805
897.385	0.7905
906.424	0.5996
915.464	0.2034
924.503	0.5132
933.543	0.6272
942.583	0.5571
951.622	0.2647
960.662	0.2192
969.701	0.2969
978.741	0.2878
987.78	0.3182
996.82	0.1927
1005.86	0.2684
1014.9	0.378
1023.94	0.432
1032.98	0.7339
1042.02	0.7918
1051.06	0.7932
1060.1	0.7767
1069.14	0.8023
1078.18	0.8247
1087.22	0.8121
1096.25	0.863
1105.29	0.8763
1114.33	0.8756
1123.37	0.8651
1132.41	0.8364
1141.45	0.8459
1150.49	0.8669
1159.53	0.8664
1168.57	0.8556
1177.61	0.8358
1186.65	0.7618
1195.69	0.7016
1204.73	0.7861
1213.77	0.84
1222.81	0.856
1231.85	0.8495
1240.89	0.8262
1249.93	0.7982
1258.97	0.7782
1268.01	0.818
1277.05	0.8305
1286.09	0.8141
1295.12	0.7372
1304.16	0.4511
1313.2	0.7161
1322.24	0.8059
1331.28	0.8688
1340.32	0.8776
1349.36	0.8785
1358.4	0.8757
1367.44	0.8648
1376.48	0.8424
1385.52	0.7886
1394.56	0.7955
1403.6	0.7629
1412.64	0.7114
1421.68	0.6208
1430.72	0.5673
1439.76	0.6806
1448.8	0.709
1457.84	0.7586
1466.88	0.8388
1475.92	0.8477
1484.95	0.8478
1493.99	0.8478
1503.03	0.8483
1512.07	0.848
1521.11	0.8275
1530.15	0.7898
1539.19	0.732
1548.23	0.666
1557.27	0.148
1566.31	0.0875
1575.35	0.1151
1584.39	0.4412
1593.43	0.6687
1602.47	0.7452
1611.51	0.8042
1620.55	0.8361
1629.59	0.8557
1638.63	0.8584
1647.67	0.8486
1656.71	0.8293
1665.75	0.7135
1674.79	0.5331
1683.82	0.7122
1692.86	0.8705
1701.9	0.8915
1710.94	0.9
1719.98	0.9045
1729.02	0.9089
1738.06	0.9114
1747.1	0.9123
1756.14	0.9132
1765.18	0.9138
1774.22	0.914
1783.26	0.9138
1792.3	0.9135
1801.34	0.9132
1810.38	0.9121
1819.42	0.9109
1828.46	0.9106
1837.5	0.9112
1846.54	0.9119
1855.58	0.9123
1864.62	0.9127
1873.66	0.9123
1882.69	0.9119
1891.73	0.9099
1900.77	0.9082
1909.81	0.9082
1918.85	0.9101
1927.89	0.9123
1936.93	0.9127
1945.97	0.9121
1955.01	0.911
1964.05	0.9095
1973.09	0.908
1982.13	0.9066
1991.17	0.9057
2000.21	0.9063
2009.25	0.9083
2018.29	0.9094
2027.33	0.9113
2036.37	0.9136
2045.41	0.9155
2054.45	0.9173
2063.49	0.9183
2072.53	0.9186
2081.56	0.9182
2090.6	0.9173
2099.64	0.9163
2108.68	0.9152
2117.72	0.9147
2126.76	0.9141
2135.8	0.9142
2144.84	0.9146
2153.88	0.9149
2162.92	0.9152
2171.96	0.9145
2181	0.9132
2190.04	0.9113
2199.08	0.9095
2208.12	0.9085
2217.16	0.9075
2226.2	0.9066
2235.24	0.9057
2244.28	0.9049
2253.32	0.9042
2262.36	0.9035
2271.4	0.9043
2280.43	0.9049
2289.47	0.9056
2298.51	0.9063
2307.55	0.9065
2316.59	0.9068
2325.63	0.9074
2334.67	0.9082
2343.71	0.9089
2352.75	0.9098
2361.79	0.9112
2370.83	0.9126
2379.87	0.9129
2388.91	0.9128
2397.95	0.9126
2406.99	0.9119
2416.03	0.9113
2425.07	0.9107
2434.11	0.9103
2443.15	0.9099
2452.19	0.9095
2461.23	0.9093
2470.26	0.909
2479.3	0.9081
2488.34	0.9069
2497.38	0.9056
2506.42	0.9049
2515.46	0.9041
2524.5	0.9033
2533.54	0.9024
2542.58	0.9015
2551.62	0.9005
2560.66	0.8997
2569.7	0.8989
2578.74	0.8981
2587.78	0.8972
2596.82	0.8965
2605.86	0.8959
2614.9	0.8952
2623.94	0.8945
2632.98	0.8939
2642.02	0.8932
2651.06	0.8926
2660.1	0.892
2669.13	0.8913
2678.17	0.8907
2687.21	0.8894
2696.25	0.8879
2705.29	0.8864
2714.33	0.8841
2723.37	0.8817
2732.41	0.8795
2741.45	0.8774
2750.49	0.8752
2759.53	0.8709
2768.57	0.8656
2777.61	0.8576
2786.65	0.8454
2795.69	0.8261
2804.73	0.7959
2813.77	0.7475
2822.81	0.6927
2831.85	0.6455
2840.89	0.6663
2849.93	0.6951
2858.97	0.6919
2868	0.6777
2877.04	0.6507
2886.08	0.6141
2895.12	0.569
2904.16	0.5285
2913.2	0.5239
2922.24	0.5553
2931.28	0.6298
2940.32	0.7041
2949.36	0.7251
2958.4	0.7604
2967.44	0.7683
2976.48	0.7763
2985.52	0.7861
2994.56	0.803
3003.6	0.8294
3012.64	0.8515
3021.68	0.8556
3030.72	0.8568
3039.76	0.8571
3048.8	0.8571
3057.84	0.8569
3066.87	0.8543
3075.91	0.8489
3084.95	0.8465
3093.99	0.8445
3103.03	0.8426
3112.07	0.8436
3121.11	0.8488
3130.15	0.8576
3139.19	0.8642
3148.23	0.8664
3157.27	0.8668
3166.31	0.8652
3175.35	0.8639
3184.39	0.8634
3193.43	0.863
3202.47	0.8626
3211.51	0.8622
3220.55	0.8619
3229.59	0.862
3238.63	0.8621
3247.67	0.8622
3256.7	0.8623
3265.74	0.8624
3274.78	0.8625
3283.82	0.8621
3292.86	0.8618
3301.9	0.8611
3310.94	0.8602
3319.98	0.8592
3329.02	0.8575
3338.06	0.8549
3347.1	0.8534
3356.14	0.8524
3365.18	0.8514
3374.22	0.8504
3383.26	0.8494
3392.3	0.8504
3401.34	0.8518
3410.38	0.8523
3419.42	0.8527
3428.46	0.8533
3437.5	0.8548
3446.54	0.8563
3455.57	0.8558
3464.61	0.8629
3473.65	0.8647
3482.69	0.8649
3491.73	0.8652
3500.77	0.8654
3509.81	0.8658
3518.85	0.8664
3527.89	0.867
3536.93	0.8674
3545.97	0.8677
3555.01	0.8686
3564.05	0.8695
3573.09	0.8704
3582.13	0.8715
3591.17	0.8729
3600.21	0.8744
3609.25	0.8764
3618.29	0.8776
3627.33	0.8782
3636.37	0.8787
3645.41	0.8791
3654.44	0.8795
3663.48	0.8796
3672.52	0.8796
3681.56	0.8795
3690.6	0.8794
3699.64	0.8797
3708.68	0.8801
3717.72	0.8804
3726.76	0.8806
3735.8	0.8807
3744.84	0.8809
3753.88	0.8805
3762.92	0.8792
3771.96	0.8767
3781	0.8716
3790.04	0.8704
3799.08	0.8715
3808.12	0.8725
3817.16	0.8733
3826.2	0.874
3835.24	0.8739
3844.28	0.8739
3853.31	0.8738
3862.35	0.8738
3871.39	0.8739
3880.43	0.874
3889.47	0.8742
3898.51	0.8739
3907.55	0.8734
3916.59	0.8728
3925.63	0.8723
3934.67	0.8715
3943.71	0.8707
3952.75	0.8699
3961.79	0.8699
3970.83	0.8699
3979.87	0.8699
3988.91	0.8702
3997.95	0.8705
4006.99	0.871
