Infrared Spectrum: 4-HYDROXY-3,4,5,5-TETRA-METHYLTHIAZOLIDINE-2-THIONE
Formula: C7 H13 N O S2
CAS: 19975-63-4
State: SOLID (KBr PRESSING)
Melting point: 64 C
Class: COBLENTZ
Instrument: Not specified, most likely a prism, grating, or hybrid spectrometer.
Sampling: TRANSMISSION
Resolution: 4
Origin: EASTMAN KODAK COMPANY, RESEARCH LABORATORIES, ROCHESTER, N.Y.
MICROMETERS	TRANSMITTANCE
2.02	0.662
2.05996	0.664
2.09993	0.671
2.13989	0.669
2.17985	0.669
2.21981	0.667
2.25978	0.677
2.29974	0.682
2.3397	0.689
2.37967	0.69
2.41963	0.694
2.45959	0.697
2.49955	0.7
2.53952	0.71
2.57948	0.717
2.61944	0.72
2.65941	0.74
2.69937	0.73
2.73933	0.728
2.77929	0.682
2.81926	0.605
2.85922	0.5
2.89918	0.365
2.93915	0.355
2.97911	0.511
3.01907	0.6
3.05903	0.641
3.099	0.671
3.13896	0.699
3.17892	0.718
3.21889	0.731
3.25885	0.741
3.29881	0.743
3.33877	0.649
3.37874	0.613
3.4187	0.621
3.45866	0.682
3.49863	0.718
3.53859	0.743
3.57855	0.754
3.61851	0.768
3.65848	0.769
3.69844	0.769
3.7384	0.774
3.77837	0.781
3.81833	0.789
3.85829	0.789
3.89825	0.794
3.93822	0.797
3.97818	0.799
4.01814	0.802
4.05811	0.802
4.09807	0.8
4.13803	0.809
4.17799	0.82
4.21796	0.833
4.25792	0.838
4.29788	0.83
4.33785	0.824
4.37781	0.832
4.41777	0.837
4.45773	0.842
4.4977	0.845
4.53766	0.845
4.57762	0.851
4.61759	0.85
4.65755	0.848
4.69751	0.848
4.73747	0.853
4.77744	0.853
4.8174	0.85
4.85736	0.851
4.89733	0.855
4.93729	0.871
4.97725	0.871
5.01721	0.863
5.05718	0.871
5.09714	0.873
5.1371	0.875
5.17707	0.876
5.21703	0.879
5.25699	0.879
5.29695	0.888
5.33692	0.893
5.37688	0.889
5.41684	0.898
5.45681	0.901
5.49677	0.898
5.53673	0.902
5.57669	0.902
5.61666	0.902
5.65662	0.894
5.69658	0.904
5.73655	0.901
5.77651	0.871
5.81647	0.866
5.85643	0.881
5.8964	0.883
5.93636	0.891
5.97632	0.884
6.01629	0.886
6.05625	0.883
6.09621	0.868
6.13617	0.847
6.17614	0.85
6.2161	0.865
6.25606	0.87
6.29603	0.884
6.33599	0.902
6.37595	0.902
6.41591	0.911
6.45588	0.901
6.49584	0.896
6.5358	0.888
6.57577	0.883
6.61573	0.856
6.65569	0.804
6.69565	0.705
6.73562	0.379
6.77558	0.195
6.81554	0.309
6.85551	0.406
6.89547	0.5
6.93543	0.55
6.97539	0.501
7.01536	0.46
7.05532	0.643
7.09528	0.791
7.13525	0.809
7.17521	0.725
7.21517	0.314
7.25513	0.345
7.2951	0.271
7.33506	0.432
7.37502	0.631
7.41499	0.703
7.45495	0.7
7.49491	0.629
7.53487	0.407
7.57484	0.523
7.6148	0.689
7.65476	0.759
7.69473	0.802
7.73469	0.83
7.77465	0.847
7.81461	0.847
7.85458	0.837
7.89454	0.827
7.9345	0.84
7.97447	0.812
8.01443	0.718
8.05439	0.685
8.09435	0.574
8.13432	0.452
8.17428	0.514
8.21424	0.406
8.25421	0.19
8.29417	0.282
8.33413	0.411
8.37409	0.43
8.41406	0.496
8.45402	0.648
8.49398	0.699
8.53395	0.722
8.57391	0.723
8.61387	0.659
8.65383	0.531
8.6938	0.402
8.73376	0.473
8.77372	0.491
8.81369	0.309
8.85365	0.312
8.89361	0.472
8.93357	0.6
8.97354	0.572
9.0135	0.384
9.05346	0.302
9.09343	0.32
9.13339	0.32
9.17335	0.307
9.21331	0.317
9.25328	0.375
9.29324	0.429
9.3332	0.402
9.37317	0.273
9.41313	0.273
9.45309	0.44
9.49305	0.554
9.53302	0.639
9.57298	0.694
9.61294	0.74
9.65291	0.771
9.69287	0.797
9.73283	0.804
9.77279	0.824
9.81276	0.824
9.85272	0.809
9.89268	0.81
9.93265	0.825
9.97261	0.812
10.0126	0.815
10.0525	0.832
10.0925	0.845
10.1325	0.847
10.1724	0.82
10.2124	0.781
10.2523	0.657
10.2923	0.442
10.3323	0.241
10.3722	0.302
10.4122	0.504
10.4522	0.615
10.4921	0.661
10.5321	0.712
10.5721	0.735
10.612	0.725
10.652	0.664
10.6919	0.572
10.7319	0.613
10.7719	0.598
10.8118	0.463
10.8518	0.588
10.8918	0.723
10.9317	0.792
10.9717	0.837
11.0116	0.86
11.0516	0.868
11.0916	0.888
11.1315	0.893
11.1715	0.902
11.2115	0.904
11.2514	0.902
11.2914	0.911
11.3313	0.914
11.3713	0.911
11.4113	0.906
11.4512	0.899
11.4912	0.873
11.5312	0.819
11.5711	0.722
11.6111	0.613
11.651	0.529
11.691	0.544
11.731	0.659
11.7709	0.738
11.8109	0.8
11.8509	0.835
11.8908	0.866
11.9308	0.873
11.9708	0.896
12.0107	0.904
12.0507	0.925
12.0906	0.932
12.1306	0.934
12.1706	0.939
12.2105	0.942
12.2505	0.94
12.2905	0.934
12.3304	0.944
12.3704	0.955
12.4103	0.952
12.4503	0.952
12.4903	0.955
12.5302	0.952
12.5702	0.95
12.6102	0.953
12.6501	0.955
12.6901	0.96
12.73	0.96
12.77	0.96
12.81	0.96
12.8499	0.96
12.8899	0.955
12.9299	0.952
12.9698	0.93
13.0098	0.894
13.0497	0.828
13.0897	0.771
13.1297	0.842
13.1696	0.891
13.2096	0.914
13.2496	0.929
13.2895	0.929
13.3295	0.932
13.3695	0.934
13.4094	0.94
13.4494	0.944
13.4893	0.952
13.5293	0.95
13.5693	0.952
13.6092	0.955
13.6492	0.962
13.6892	0.962
13.7291	0.962
13.7691	0.96
13.809	0.96
13.849	0.96
13.889	0.96
13.9289	0.96
13.9689	0.962
14.0089	0.958
14.0488	0.96
14.0888	0.955
14.1287	0.953
14.1687	0.95
14.2087	0.942
14.2486	0.927
14.2886	0.911
14.3286	0.901
14.3685	0.904
14.4085	0.909
14.4484	0.924
14.4884	0.932
14.5284	0.935
14.5683	0.935
14.6083	0.939
14.6483	0.947
14.6882	0.944
14.7282	0.942
14.7682	0.942
14.8081	0.939
14.8481	0.94
14.888	0.937
14.928	0.93
14.968	0.912
15.0079	0.875
15.0479	0.84
15.0879	0.84
15.1278	0.85
15.1678	0.87
15.2077	0.879
15.2477	0.889
15.2877	0.893
15.3276	0.898
15.3676	0.891
15.4076	0.889
15.4475	0.881
15.4875	0.878
15.5274	0.87
15.5674	0.863
15.6074	0.858
15.6473	0.851
15.6873	0.851
15.7273	0.848
15.7672	0.842
15.8072	0.845
15.8471	0.848
15.8871	0.842
15.9271	0.838
15.967	0.827
16.007	0.825
