Infrared Spectrum: PURINE, 2-CHLORO-6-(TRIFLUOROMETHYL)-
Formula: C6 H2 Cl F3 N4
CAS: 1998-64-7
State: SOLID (0.8 mg / 650 KBr DISC)
Class: COBLENTZ III
Instrument: PERKIN-ELMER 221 (GRATING)
Instrument parameters: FILTER AT 980 CM^-^1. GRATING 4000-1428 CM^-^1, NaCl PRISM 1428-650 CM^-^1
Sampling: TRANSMISSION
Resolution: 2
Origin: SOUTHERN RESEARCH INSTITUTE
1/CM	TRANSMITTANCE
600.206	0.814
608.782	0.8159
617.358	0.817
625.933	0.817
634.509	0.8154
643.085	0.7972
651.661	0.7401
660.237	0.4613
668.812	0.749
677.388	0.7842
685.964	0.793
694.54	0.7795
703.116	0.7631
711.691	0.5675
720.267	0.772
728.843	0.7661
737.419	0.7342
745.995	0.727
754.57	0.7257
763.146	0.7097
771.722	0.6666
780.298	0.634
788.874	0.5913
797.449	0.5661
806.025	0.494
814.601	0.563
823.177	0.564
831.753	0.5553
840.328	0.5459
848.904	0.5008
857.48	0.4652
866.056	0.4322
874.632	0.3859
883.207	0.1838
891.783	0.3563
900.359	0.4168
908.935	0.3103
917.511	0.5289
926.086	0.5385
934.662	0.4282
943.238	0.3472
951.814	0.6165
960.39	0.691
968.965	0.673
977.541	0.6217
986.117	0.4341
994.693	0.1349
1003.27	0.514
1011.84	0.5708
1020.42	0.583
1029	0.584
1037.57	0.5794
1046.15	0.5708
1054.72	0.5465
1063.3	0.5285
1071.88	0.4969
1080.45	0.4574
1089.03	0.4255
1097.6	0.3826
1106.18	0.342
1114.75	0.2788
1123.33	0.2199
1131.91	0.1383
1140.48	0.0763
1149.06	0.0349
1157.63	0.028
1166.21	0.0847
1174.78	0.1225
1183.36	0.1939
1191.94	0.3113
1200.51	0.3388
1209.09	0.2011
1217.66	0.1071
1226.24	0.1026
1234.82	0.1138
1243.39	0.1015
1251.97	0.3265
1260.54	0.398
1269.12	0.2621
1277.69	0.1107
1286.27	0.2867
1294.85	0.4095
1303.42	0.5933
1312	0.5778
1320.57	0.506
1329.15	0.4124
1337.72	0.4839
1346.3	0.628
1354.88	0.6033
1363.45	0.4917
1372.03	0.2711
1380.6	0.1284
1389.18	0.2485
1397.76	0.3803
1406.33	0.3352
1414.91	0.4196
1423.48	0.5514
1432.06	0.5565
1440.63	0.5242
1449.21	0.4387
1457.79	0.2795
1466.36	0.2114
1474.94	0.21
1483.51	0.2816
1492.09	0.4732
1500.67	0.476
1509.24	0.4794
1517.82	0.5315
1526.39	0.6248
1534.97	0.6659
1543.54	0.666
1552.12	0.6366
1560.7	0.564
1569.27	0.4201
1577.85	0.4119
1586.42	0.5325
1595	0.5884
1603.57	0.5629
1612.15	0.4677
1620.73	0.396
1629.3	0.4823
1637.88	0.5619
1646.45	0.656
1655.03	0.66
1663.61	0.66
1672.18	0.66
1680.76	0.6517
1689.33	0.6359
1697.91	0.6249
1706.48	0.619
1715.06	0.618
1723.64	0.616
1732.21	0.6101
1740.79	0.614
1749.36	0.6323
1757.94	0.643
1766.52	0.646
1775.09	0.6533
1783.67	0.6698
1792.24	0.6771
1800.82	0.6875
1809.39	0.6919
1817.97	0.7004
1826.55	0.7064
1835.12	0.71
1843.7	0.71
1852.27	0.711
1860.85	0.711
1869.42	0.7099
1878	0.7071
1886.58	0.711
1895.15	0.718
1903.73	0.7327
1912.3	0.7399
1920.88	0.7477
1929.46	0.751
1938.03	0.753
1946.61	0.7557
1955.18	0.7597
1963.76	0.761
1972.33	0.764
1980.91	0.7645
1989.49	0.7665
1998.06	0.767
2006.64	0.765
2015.21	0.7632
2023.79	0.761
2032.36	0.7582
2040.94	0.7544
2049.52	0.755
2058.09	0.755
2066.67	0.754
2075.24	0.7522
2083.82	0.75
2092.4	0.7486
2100.97	0.748
2109.55	0.746
2118.12	0.7396
2126.7	0.738
2135.27	0.7326
2143.85	0.729
2152.43	0.727
2161	0.7266
2169.58	0.721
2178.15	0.721
2186.73	0.721
2195.31	0.7176
2203.88	0.7154
2212.46	0.7116
2221.03	0.7082
2229.61	0.704
2238.18	0.6986
2246.76	0.6922
2255.34	0.6862
2263.91	0.6796
2272.49	0.6686
2281.06	0.6592
2289.64	0.6462
2298.21	0.6406
2306.79	0.633
2315.37	0.6286
2323.94	0.618
2332.52	0.6002
2341.09	0.5938
2349.67	0.589
2358.25	0.5732
2366.82	0.561
2375.4	0.561
2383.97	0.5586
2392.55	0.5516
2401.12	0.5402
2409.7	0.5238
2418.28	0.5076
2426.85	0.4976
2435.43	0.488
2444	0.486
2452.58	0.488
2461.15	0.49
2469.73	0.4924
2478.31	0.483
2486.88	0.452
2495.46	0.4466
2504.03	0.4392
2512.61	0.4306
2521.19	0.4256
2529.76	0.4096
2538.34	0.4026
2546.91	0.3893
2555.49	0.3682
2564.06	0.3656
2572.64	0.3556
2581.22	0.349
2589.79	0.3446
2598.37	0.3462
2606.94	0.3534
2615.52	0.356
2624.1	0.356
2632.67	0.356
2641.25	0.3572
2649.82	0.3556
2658.4	0.353
2666.97	0.352
2675.55	0.3496
2684.13	0.348
2692.7	0.347
2701.28	0.3436
2709.85	0.3416
2718.43	0.332
2727	0.33
2735.58	0.33
2744.16	0.3292
2752.73	0.3238
2761.31	0.3196
2769.88	0.315
2778.46	0.3116
2787.04	0.3086
2795.61	0.303
2804.19	0.295
2812.76	0.297
2821.34	0.2994
2829.91	0.3094
2838.49	0.317
2847.07	0.3264
2855.64	0.3467
2864.22	0.3752
2872.79	0.3994
2881.37	0.404
2889.95	0.4094
2898.52	0.4524
2907.1	0.4486
2915.67	0.44
2924.25	0.438
2932.82	0.4414
2941.4	0.4392
2949.98	0.4313
2958.55	0.4079
2967.13	0.3806
2975.7	0.377
2984.28	0.375
2992.85	0.375
3001.43	0.374
3010.01	0.374
3018.58	0.3754
3027.16	0.378
3035.73	0.3924
3044.31	0.4098
3052.89	0.4422
3061.46	0.454
3070.04	0.4536
3078.61	0.4353
3087.19	0.4103
3095.76	0.4008
3104.34	0.4204
3112.92	0.443
3121.49	0.4448
3130.07	0.4567
3138.64	0.4988
3147.22	0.5141
3155.79	0.5348
3164.37	0.5584
3172.95	0.5794
3181.52	0.597
3190.1	0.6008
3198.67	0.6114
3207.25	0.6238
3215.83	0.63
3224.4	0.6334
3232.98	0.641
3241.55	0.645
3250.13	0.649
3258.7	0.6544
3267.28	0.6588
3275.86	0.662
3284.43	0.662
3293.01	0.662
3301.58	0.66
3310.16	0.658
3318.74	0.657
3327.31	0.656
3335.89	0.656
3344.46	0.654
3353.04	0.651
3361.61	0.6446
3370.19	0.6396
3378.77	0.638
3387.34	0.636
3395.92	0.634
3404.49	0.632
3413.07	0.632
3421.64	0.633
3430.22	0.6334
3438.8	0.6404
3447.37	0.646
3455.95	0.655
3464.52	0.657
3473.1	0.6604
3481.68	0.6638
3490.25	0.6668
3498.83	0.673
3507.4	0.6794
3515.98	0.684
3524.55	0.69
3533.13	0.691
3541.71	0.694
3550.28	0.6968
3558.86	0.7046
3567.43	0.712
3576.01	0.7174
3584.59	0.7224
3593.16	0.732
3601.74	0.7358
3610.31	0.7438
3618.89	0.75
3627.46	0.755
3636.04	0.76
3644.62	0.761
3653.19	0.7616
3661.77	0.764
3670.34	0.765
3678.92	0.7654
3687.49	0.765
3696.07	0.766
3704.65	0.7664
3713.22	0.766
3721.8	0.766
3730.37	0.7666
3738.95	0.767
3747.53	0.766
3756.1	0.766
3764.68	0.767
3773.25	0.768
3781.83	0.77
3790.4	0.768
3798.98	0.768
3807.56	0.768
3816.13	0.768
3824.71	0.768
3833.28	0.768
3841.86	0.768
3850.43	0.767
3859.01	0.7674
3867.59	0.768
3876.16	0.768
3884.74	0.768
3893.31	0.768
3901.89	0.768
3910.47	0.768
3919.04	0.7688
3927.62	0.77
3936.19	0.7688
3944.77	0.7704
3953.34	0.77
3961.92	0.77
3970.5	0.77
3979.07	0.77
3987.65	0.77
3996.22	0.771
4004.8	0.771
