Infrared Spectrum: 2-Bromomethyl-2,3-dihydrobenzofuran
Formula: C 9 H 9 Br O
CAS: 19997-53-6
State: gas
Origin: EPA-IR VAPOR PHASE LIBRARY
1/CM	ABSORBANCE
549.8	0.0005513
559.445	3.6e-05
569.09	0.0003248
578.734	0.0003681
588.379	0.0007114
598.024	0.0008952
607.669	0.0006052
617.313	0.000737
626.958	0.0007393
636.603	0.001384
646.248	0.001994
655.893	0.005914
665.537	0.008314
675.182	0.003804
684.827	0.002124
694.472	0.002624
704.116	0.003934
713.761	0.005164
723.406	0.006144
733.051	0.011064
742.695	0.024064
752.34	0.021204
761.985	0.008354
771.63	0.003604
781.275	0.002404
790.919	0.002344
800.564	0.002074
810.209	0.001874
819.854	0.002364
829.498	0.002504
839.143	0.002804
848.788	0.004594
858.433	0.009844
868.078	0.011394
877.722	0.006014
887.367	0.004134
897.012	0.003494
906.657	0.003024
916.301	0.003474
925.946	0.002824
935.591	0.002624
945.236	0.003874
954.88	0.006714
964.525	0.013334
974.17	0.018224
983.815	0.014364
993.46	0.011594
1003.1	0.007724
1012.75	0.007884
1022.39	0.004514
1032.04	0.002254
1041.68	0.002224
1051.33	0.002044
1060.97	0.002574
1070.62	0.002644
1080.26	0.003124
1089.91	0.004294
1099.55	0.004144
1109.2	0.003274
1118.84	0.003014
1128.49	0.001844
1138.13	0.002484
1147.78	0.002924
1157.42	0.006724
1167.07	0.008734
1176.71	0.004984
1186.36	0.003604
1196	0.005354
1205.64	0.015504
1215.29	0.034974
1224.93	0.049254
1234.58	0.041074
1244.22	0.017364
1253.87	0.009164
1263.51	0.005484
1273.16	0.003164
1282.8	0.002834
1292.45	0.003284
1302.09	0.004054
1311.74	0.006844
1321.38	0.008994
1331.03	0.007314
1340.67	0.004964
1350.32	0.004424
1359.96	0.004564
1369.61	0.002614
1379.25	0.001874
1388.9	0.001504
1398.54	0.001174
1408.18	0.001304
1417.83	0.002394
1427.47	0.003594
1437.12	0.004754
1446.76	0.008074
1456.41	0.013604
1466.05	0.023434
1475.7	0.037374
1485.34	0.032834
1494.99	0.010794
1504.63	0.005524
1514.28	0.002304
1523.92	0.001314
1533.57	0.001122
1543.21	0.001244
1552.86	0.001544
1562.5	0.001684
1572.15	0.002394
1581.79	0.005454
1591.44	0.011374
1601.08	0.014094
1610.73	0.007504
1620.37	0.003874
1630.01	0.001544
1639.66	0.0009221
1649.3	0.0007661
1658.95	0.0007079
1668.59	0.0008925
1678.24	0.0007676
1687.88	0.0008099
1697.53	0.0007218
1707.17	0.000558
1716.82	0.0005731
1726.46	0.0005453
1736.11	0.0004738
1745.75	0.0006623
1755.4	0.0009872
1765.04	0.001194
1774.69	0.000936
1784.33	0.0005933
1793.98	0.000689
1803.62	0.0008291
1813.27	0.0006376
1822.91	0.0005804
1832.55	0.0006133
1842.2	0.0007103
1851.84	0.0006579
1861.49	0.0005368
1871.13	0.0009175
1880.78	0.001154
1890.42	0.0011054
1900.07	0.0007717
1909.71	0.0006793
1919.36	0.001094
1929	0.0011393
1938.65	0.0006015
1948.29	0.0004849
1957.94	0.0005447
1967.58	0.0005358
1977.23	0.0004967
1986.87	0.000481
1996.52	0.0004594
2006.16	0.0005219
2015.81	0.0007003
2025.45	0.0006053
2035.1	0.0005548
2044.74	0.0003993
2054.38	0.0004445
2064.03	0.000411
2073.67	0.0005017
2083.32	0.0005119
2092.96	0.0005161
2102.61	0.0004464
2112.25	0.0004186
2121.9	0.0003949
2131.54	0.000336
2141.19	0.0003179
2150.83	0.0003408
2160.48	0.000417
2170.12	0.0003488
2179.77	0.0003918
2189.41	0.0004763
2199.06	0.0003955
2208.7	0.0003977
2218.35	0.0003803
2227.99	0.0003293
2237.64	0.0004405
2247.28	0.0005117
2256.92	0.0005159
2266.57	0.0005507
2276.21	0.0004107
2285.86	0.000493
2295.5	0.0005064
2305.15	0.0005801
2314.79	0.0005325
2324.44	0.0005139
2334.08	0.0004663
2343.73	0.0004079
2353.37	0.0004037
2363.02	0.0003246
2372.66	0.0003326
2382.31	0.0004042
2391.95	0.0004816
2401.6	0.0005117
2411.24	0.0004386
2420.89	0.0005071
2430.53	0.0004985
2440.18	0.0006498
2449.82	0.0007817
2459.47	0.0007252
2469.11	0.0006697
2478.75	0.0005464
2488.4	0.0005808
2498.04	0.0004315
2507.69	0.0004536
2517.33	0.0003771
2526.98	0.0004279
2536.62	0.0005693
2546.27	0.000564
2555.91	0.0006684
2565.56	0.0006087
2575.2	0.0004787
2584.85	0.0004946
2594.49	0.0003717
2604.14	0.0005059
2613.78	0.0006354
2623.43	0.0005726
2633.07	0.0005137
2642.72	0.0005237
2652.36	0.000533
2662.01	0.0005416
2671.65	0.000529
2681.29	0.000465
2690.94	0.0004613
2700.58	0.0004742
2710.23	0.0004037
2719.87	0.0002969
2729.52	0.0003122
2739.16	0.0003571
2748.81	0.0003674
2758.45	0.0004786
2768.1	0.0003574
2777.74	0.0005129
2787.39	0.000421
2797.03	0.0004915
2806.68	0.0004256
2816.32	0.000482
2825.97	0.0007395
2835.61	0.0011439
2845.26	0.001384
2854.9	0.002524
2864.55	0.003614
2874.19	0.003404
2883.84	0.002784
2893.48	0.002844
2903.12	0.003184
2912.77	0.004234
2922.41	0.004934
2932.06	0.004934
2941.7	0.005634
2951.35	0.006424
2960.99	0.006784
2970.64	0.007344
2980.28	0.006374
2989.93	0.003164
2999.57	0.001824
3009.22	0.001754
3018.86	0.002644
3028.51	0.004234
3038.15	0.005494
3047.8	0.005814
3057.44	0.006654
3067.09	0.006104
3076.73	0.007194
3086.38	0.006264
3096.02	0.003764
3105.67	0.001934
3115.31	0.0011279
3124.95	0.0004196
3134.6	0.00023515
3144.24	0.000433
3153.89	0.000295
3163.53	0.0003066
3173.18	0.0004416
3182.82	0.0003565
3192.47	0.0003698
3202.11	0.0002891
3211.76	0.0002278
3221.4	0.00019702
3231.05	0.000155633
3240.69	0.00024114
3250.34	9.08e-05
3259.98	0.00020832
3269.63	0.0003392
3279.27	0.000206
3288.92	0.0001177
3298.56	8.3e-05
3308.21	0.00018243
3317.85	0.0002669
3327.49	0.0003537
3337.14	0.00014942
3346.78	0.0002574
3356.43	0.0003737
3366.07	0.0003206
3375.72	0.0002769
3385.36	0.00018444
3395.01	0.0003441
3404.65	0.0002957
3414.3	0.0003236
3423.94	0.0002818
3433.59	0.0001106
3443.23	9.37e-05
3452.88	0.0003201
3462.52	0.0003598
3472.17	0.00018789
3481.81	0.0004033
3491.46	0.00019243
3501.1	0.0002545
3510.75	0.0001415
3520.39	5.68e-05
3530.04	9.72e-05
3539.68	0.00018509
3549.32	0.0004751
3558.97	0.0002605
3568.61	0.00020988
3578.26	0.0004645
3587.9	0.0002769
3597.55	5.55e-05
3607.19	0.0002586
3616.84	0.0001185
3626.48	0.0003361
3636.13	0.00022593
3645.77	0.000161319
3655.42	0.0002602
3665.06	0.000392
3674.71	0.0001397
3684.35	0.0004394
3694	0.00024502
3703.64	0.0002784
3713.29	0.00020689
3722.93	0.00024576
3732.58	0.00023059
3742.22	0.0004504
3751.86	0.00022279
3761.51	0.0003662
3771.15	0.00025056
3780.8	0.00024751
3790.44	0.0002418
3800.09	0.0003864
3809.73	0.0003332
3819.38	0.0001392
3829.02	0.0004298
3838.67	0.00020432
3848.31	0.00023552
3857.96	0.000161023
3867.6	0.0002922
3877.25	0.0004576
3886.89	0.0003789
3896.54	0.000369
3906.18	0.0003144
3915.83	0.0003364
3925.47	0.0002611
3935.12	0.0004381
3944.76	0.0005741
3954.41	0.00019447
3964.05	0.00022597
3973.69	0.00014816
3983.34	0.0003034
3992.98	0.000155348
