Infrared Spectrum: 2,2,2-Trichloro-1-phenylethanol
Formula: C 8 H 7 Cl 3 O
CAS: 2000-43-3
State: gas
Origin: EPA-IR VAPOR PHASE LIBRARY
1/CM	ABSORBANCE
549.9	0.00823
559.547	0.00882
569.193	0.01007
578.84	0.01354
588.486	0.0329
598.133	0.1077
607.779	0.10496
617.426	0.05147
627.072	0.04081
636.719	0.07255
646.365	0.10146
656.012	0.06199
665.658	0.03283
675.305	0.03077
684.951	0.06348
694.598	0.13058
704.245	0.09276
713.891	0.0414
723.538	0.03444
733.184	0.07173
742.831	0.15238
752.477	0.09836
762.124	0.09382
771.77	0.1346
781.417	0.09275
791.063	0.04814
800.71	0.0557
810.356	0.10571
820.003	0.20123
829.649	0.22573
839.296	0.14395
848.943	0.11573
858.589	0.08215
868.236	0.03465
877.882	0.01848
887.529	0.01443
897.175	0.01282
906.822	0.01376
916.468	0.01665
926.115	0.0123
935.761	0.00903
945.408	0.00841
955.054	0.00918
964.701	0.01108
974.347	0.01519
983.994	0.01904
993.64	0.01813
1003.29	0.01569
1012.93	0.01688
1022.58	0.02968
1032.23	0.03572
1041.87	0.03285
1051.52	0.06348
1061.17	0.10293
1070.81	0.08181
1080.46	0.05429
1090.11	0.04883
1099.75	0.03149
1109.4	0.02198
1119.05	0.01556
1128.69	0.01137
1138.34	0.01157
1147.99	0.01409
1157.63	0.0188
1167.28	0.03027
1176.92	0.05835
1186.57	0.07433
1196.22	0.05734
1205.86	0.0403
1215.51	0.04439
1225.16	0.04689
1234.8	0.03248
1244.45	0.02394
1254.1	0.02086
1263.74	0.02064
1273.39	0.02174
1283.04	0.02436
1292.68	0.02895
1302.33	0.03718
1311.98	0.04112
1321.62	0.03353
1331.27	0.02998
1340.92	0.02662
1350.56	0.02179
1360.21	0.02192
1369.86	0.02819
1379.5	0.0406
1389.15	0.04429
1398.79	0.02454
1408.44	0.01295
1418.09	0.01056
1427.73	0.00974
1437.38	0.01106
1447.03	0.02115
1456.67	0.02897
1466.32	0.01482
1475.97	0.00942
1485.61	0.0158
1495.26	0.02309
1504.91	0.01438
1514.55	0.007
1524.2	0.00547
1533.85	0.00531
1543.49	0.00448
1553.14	0.00382
1562.79	0.00391
1572.43	0.00446
1582.08	0.00575
1591.73	0.00628
1601.37	0.00607
1611.02	0.00469
1620.67	0.0035141
1630.31	0.0031088
1639.96	0.0029923
1649.6	0.0033899
1659.25	0.00401
1668.9	0.00363
1678.54	0.0031802
1688.19	0.0030471
1697.84	0.0027438
1707.48	0.0025443
1717.13	0.0026662
1726.78	0.0028513
1736.42	0.0031523
1746.07	0.00378
1755.72	0.004
1765.36	0.0034515
1775.01	0.0034779
1784.66	0.0039
1794.3	0.00633
1803.95	0.00701
1813.6	0.00458
1823.24	0.0035242
1832.89	0.0027901
1842.54	0.002384
1852.18	0.00241
1861.83	0.0028509
1871.47	0.00426
1881.12	0.00549
1890.77	0.00542
1900.41	0.00456
1910.06	0.0029729
1919.71	0.00264667
1929.35	0.003371
1939	0.0055
1948.65	0.00693
1958.29	0.0066
1967.94	0.00494
1977.59	0.00271088
1987.23	0.002232
1996.88	0.001958
2006.53	0.0018
2016.17	0.001794
2025.82	0.001847
2035.47	0.001786
2045.11	0.001791
2054.76	0.001815
2064.41	0.001806
2074.05	0.001769
2083.7	0.001866
2093.35	0.002
2102.99	0.002183
2112.64	0.002355
2122.28	0.002493
2131.93	0.002397
2141.58	0.002262
2151.22	0.002201
2160.87	0.002064
2170.52	0.001976
2180.16	0.001878
2189.81	0.001819
2199.46	0.001791
2209.1	0.001875
2218.75	0.001945
2228.4	0.001936
2238.04	0.001908
2247.69	0.001939
2257.34	0.001907
2266.98	0.001941
2276.63	0.001899
2286.28	0.001994
2295.92	0.002015
2305.57	0.002019
2315.22	0.002489
2324.86	0.002332
2334.51	0.002109
2344.16	0.002484
2353.8	0.002258
2363.45	0.00214
2373.09	0.002192
2382.74	0.002097
2392.39	0.001984
2402.03	0.001917
2411.68	0.001844
2421.33	0.001923
2430.97	0.001957
2440.62	0.002036
2450.27	0.001896
2459.91	0.001733
2469.56	0.00167
2479.21	0.0016
2488.85	0.00156
2498.5	0.00152
2508.15	0.00157
2517.79	0.00157
2527.44	0.00159
2537.09	0.00159
2546.73	0.00164
2556.38	0.001668
2566.03	0.001748
2575.67	0.001764
2585.32	0.001926
2594.96	0.0019
2604.61	0.001823
2614.26	0.001766
2623.9	0.001689
2633.55	0.00167
2643.2	0.00152
2652.84	0.00136
2662.49	0.00133
2672.14	0.00139
2681.78	0.00143
2691.43	0.0015
2701.08	0.00129
2710.72	0.00115
2720.37	0.0011
2730.02	0.00109
2739.66	0.00111
2749.31	0.00124
2758.96	0.00147
2768.6	0.00159
2778.25	0.00162
2787.9	0.001686
2797.54	0.00146
2807.19	0.00126
2816.84	0.00112
2826.48	0.00114
2836.13	0.00122
2845.77	0.00143
2855.42	0.00163
2865.07	0.001976
2874.71	0.0029065
2884.36	0.00495
2894.01	0.01144
2903.65	0.01928
2913.3	0.01616
2922.95	0.01001
2932.59	0.00661
2942.24	0.00449
2951.89	0.00273458
2961.53	0.001935
2971.18	0.001754
2980.83	0.001821
2990.47	0.002156
3000.12	0.0025779
3009.77	0.00393
3019.41	0.00777
3029.06	0.01986
3038.71	0.04052
3048.35	0.0384
3058	0.02887
3067.64	0.04531
3077.29	0.05098
3086.94	0.03083
3096.58	0.02443
3106.23	0.0164
3115.88	0.00917
3125.52	0.00429
3135.17	0.001844
3144.82	0.00124
3154.46	0.00097
3164.11	0.00111
3173.76	0.001
3183.4	0.00047
3193.05	5e-05
3202.7	0.00016
3212.34	0.0001
3221.99	0.00016
3231.64	0.00017
3241.28	0.00034
3250.93	0.00039
3260.58	0.00067
3270.22	0.00124
3279.87	0.00142
3289.52	0.00111
3299.16	0.00103
3308.81	0.00094
3318.45	0.00082
3328.1	0.00114
3337.75	0.00136
3347.39	0.00142
3357.04	0.00132
3366.69	0.00122
3376.33	0.00121
3385.98	0.0015
3395.63	0.00161
3405.27	0.0016
3414.92	0.00156
3424.57	0.00161
3434.21	0.00163
3443.86	0.001652
3453.51	0.001787
3463.15	0.00161
3472.8	0.00158
3482.45	0.00143
3492.09	0.00156
3501.74	0.00158
3511.39	0.00157
3521.03	0.001647
3530.68	0.001898
3540.33	0.001994
3549.97	0.002465
3559.62	0.002553
3569.26	0.0030399
3578.91	0.00372
3588.56	0.0055
3598.2	0.01149
3607.85	0.04332
3617.5	0.07464
3627.14	0.04417
3636.79	0.02273
3646.44	0.01226
3656.08	0.00816
3665.73	0.00571
3675.38	0.00444
3685.02	0.00386
3694.67	0.0033992
3704.32	0.0031165
3713.96	0.00269699
3723.61	0.00265397
3733.26	0.002534
3742.9	0.002534
3752.55	0.002506
3762.2	0.00272621
3771.84	0.0027654
3781.49	0.0027977
3791.13	0.0029901
3800.78	0.0030811
3810.43	0.0031057
3820.07	0.0031805
3829.72	0.0030325
3839.37	0.0031268
3849.01	0.0031297
3858.66	0.0029218
3868.31	0.0028098
3877.95	0.0027684
3887.6	0.0027988
3897.25	0.0030021
3906.89	0.0028786
3916.54	0.0027586
3926.19	0.002429
3935.83	0.00263721
3945.48	0.0027725
3955.13	0.0029461
3964.77	0.0028115
3974.42	0.002361
3984.07	0.00209
3993.71	0.001986
