Infrared Spectrum: Benzyl 4-bromophenyl ketone
Formula: C 14 H 11 Br O
CAS: 2001-29-8
State: gas
Origin: EPA-IR VAPOR PHASE LIBRARY
1/CM	ABSORBANCE
549.8	0.003009
559.445	0.005349
569.09	0.004649
578.734	0.003849
588.379	0.004019
598.024	0.007909
607.669	0.008269
617.313	0.004249
626.958	0.004729
636.603	0.002739
646.248	0.002479
655.893	0.002309
665.537	0.004129
675.182	0.006529
684.827	0.010379
694.472	0.021049
704.116	0.017249
713.761	0.013489
723.406	0.021259
733.051	0.027309
742.695	0.010029
752.34	0.005599
761.985	0.005929
771.63	0.008949
781.275	0.007169
790.919	0.008229
800.564	0.012299
810.209	0.016349
819.854	0.010039
829.498	0.007149
839.143	0.006049
848.788	0.005189
858.433	0.004159
868.078	0.002269
877.722	0.001779
887.367	0.001989
897.012	0.002019
906.657	0.002439
916.301	0.003339
925.946	0.003769
935.591	0.002779
945.236	0.002619
954.88	0.003379
964.525	0.004629
974.17	0.007759
983.815	0.018359
993.46	0.021629
1003.1	0.030119
1012.75	0.033599
1022.39	0.010179
1032.04	0.011439
1041.68	0.005949
1051.33	0.005279
1060.97	0.009859
1070.62	0.036899
1080.26	0.017339
1089.91	0.005919
1099.55	0.002489
1109.2	0.004329
1118.84	0.002469
1128.49	0.004099
1138.13	0.002329
1147.78	0.005029
1157.42	0.007729
1167.07	0.008769
1176.71	0.015249
1186.36	0.015259
1196	0.017119
1205.64	0.014769
1215.29	0.016609
1224.93	0.013759
1234.58	0.012919
1244.22	0.016779
1253.87	0.023009
1263.51	0.029219
1273.16	0.027669
1282.8	0.022149
1292.45	0.013799
1302.09	0.011349
1311.74	0.011409
1321.38	0.012399
1331.03	0.010689
1340.67	0.009749
1350.32	0.007379
1359.96	0.005199
1369.61	0.005019
1379.25	0.005879
1388.9	0.009949
1398.54	0.013129
1408.18	0.006719
1417.83	0.005519
1427.47	0.007089
1437.12	0.008599
1446.76	0.007259
1456.41	0.006719
1466.05	0.005599
1475.7	0.007999
1485.34	0.013889
1494.99	0.014599
1504.63	0.007209
1514.28	0.003449
1523.92	0.003229
1533.57	0.003879
1543.21	0.003999
1552.86	0.006119
1562.5	0.011439
1572.15	0.019109
1581.79	0.038649
1591.44	0.038369
1601.08	0.012269
1610.73	0.006959
1620.37	0.004239
1630.01	0.003309
1639.66	0.003509
1649.3	0.003639
1658.95	0.005029
1668.59	0.006339
1678.24	0.010379
1687.88	0.028329
1697.53	0.065599
1707.17	0.051169
1716.82	0.021499
1726.46	0.008339
1736.11	0.004709
1745.75	0.003699
1755.4	0.003319
1765.04	0.003099
1774.69	0.003169
1784.33	0.003369
1793.98	0.003569
1803.62	0.002679
1813.27	0.002009
1822.91	0.001689
1832.55	0.001859
1842.2	0.001899
1851.84	0.001759
1861.49	0.002119
1871.13	0.002109
1880.78	0.002329
1890.42	0.002389
1900.07	0.002239
1909.71	0.002189
1919.36	0.002119
1929	0.002259
1938.65	0.002739
1948.29	0.002519
1957.94	0.002139
1967.58	0.0015587
1977.23	0.0013564
1986.87	0.0012853
1996.52	0.0012782
2006.16	0.0011441
2015.81	0.0011648
2025.45	0.0012075
2035.1	0.0011702
2044.74	0.0009224
2054.38	0.0011063
2064.03	0.0012766
2073.67	0.0009575
2083.32	0.0009991
2092.96	0.0011331
2102.61	0.0010275
2112.25	0.000996
2121.9	0.0010136
2131.54	0.0012174
2141.19	0.0008845
2150.83	0.0010386
2160.48	0.0011806
2170.12	0.0011337
2179.77	0.0011235
2189.41	0.0010954
2199.06	0.0009912
2208.7	0.00072937
2218.35	0.0010385
2227.99	0.0009114
2237.64	0.0011882
2247.28	0.0008805
2256.92	0.0012347
2266.57	0.0010317
2276.21	0.0013827
2285.86	0.0013529
2295.5	0.0013507
2305.15	0.0011305
2314.79	0.0016161
2324.44	0.0013899
2334.08	0.0013406
2343.73	0.0013018
2353.37	0.0014401
2363.02	0.0010487
2372.66	0.0012312
2382.31	0.0012072
2391.95	0.0008666
2401.6	0.0012967
2411.24	0.0008866
2420.89	0.0012021
2430.53	0.0010663
2440.18	0.0010455
2449.82	0.0010909
2459.47	0.0010139
2469.11	0.00072684
2478.75	0.0010466
2488.4	0.0009787
2498.04	0.0010623
2507.69	0.0011802
2517.33	0.0009159
2526.98	0.0015108
2536.62	0.0012834
2546.27	0.0015716
2555.91	0.0014021
2565.56	0.0014802
2575.2	0.0011994
2584.85	0.0012182
2594.49	0.0016488
2604.14	0.0009106
2613.78	0.0011128
2623.43	0.0011576
2633.07	0.0012435
2642.72	0.0011705
2652.36	0.0011165
2662.01	0.0009403
2671.65	0.0011742
2681.29	0.0009303
2690.94	0.000908
2700.58	0.0009482
2710.23	0.0011273
2719.87	0.0010183
2729.52	0.001041
2739.16	0.0011785
2748.81	0.0011561
2758.45	0.00148
2768.1	0.0012649
2777.74	0.0013426
2787.39	0.0011154
2797.03	0.0011932
2806.68	0.0012792
2816.32	0.0016322
2825.97	0.001699
2835.61	0.001258
2845.26	0.001889
2854.9	0.001829
2864.55	0.001959
2874.19	0.002269
2883.84	0.001779
2893.48	0.002799
2903.12	0.003089
2912.77	0.003709
2922.41	0.004299
2932.06	0.004439
2941.7	0.003699
2951.35	0.003589
2960.99	0.003459
2970.64	0.003189
2980.28	0.002439
2989.93	0.002259
2999.57	0.002579
3009.22	0.003719
3018.86	0.005609
3028.51	0.010539
3038.15	0.012649
3047.8	0.008199
3057.44	0.007819
3067.09	0.013229
3076.73	0.013229
3086.38	0.009799
3096.02	0.008349
3105.67	0.004699
3115.31	0.003729
3124.95	0.0015984
3134.6	0.0012609
3144.24	0.0011923
3153.89	0.0007524
3163.53	0.00072155
3173.18	0.0011359
3182.82	0.0012189
3192.47	0.0011359
3202.11	0.0009926
3211.76	0.0010698
3221.4	0.0008883
3231.05	0.0011577
3240.69	0.00072297
3250.34	0.0007245
3259.98	0.00075249
3269.63	0.000951
3279.27	0.0007722
3288.92	0.000391
3298.56	0.0007654
3308.21	0.0010281
3317.85	0.000228
3327.49	0.0009159
3337.14	0.0010493
3346.78	0.001232
3356.43	0.0010182
3366.07	0.0009267
3375.72	0.001929
3385.36	0.0015729
3395.01	0.0014016
3404.65	0.0011465
3414.3	0.0016479
3423.94	0.0014386
3433.59	0.0009845
3443.23	0.0008775
3452.88	0.0008182
3462.52	0.0009158
3472.17	0.0008834
3481.81	0.0008641
3491.46	0.000481
3501.1	0.0009226
3510.75	0.0009631
3520.39	0.0005964
3530.04	0.0008718
3539.68	0.0008743
3549.32	0.0009259
3558.97	0.0006019
3568.61	0.0014273
3578.26	0.000441
3587.9	0.0008687
3597.55	0.0011609
3607.19	0.000565
3616.84	0.0008885
3626.48	0.00067475
3636.13	0.0009943
3645.77	0.000325
3655.42	0.000495
3665.06	0.0009117
3674.71	0.0008509
3684.35	0.0008385
3694	0.0008115
3703.64	0.0008724
3713.29	0.0014598
3722.93	0.0007786
3732.58	0.0011226
3742.22	0.000313
3751.86	0.000278
3761.51	0.0008757
3771.15	0.0012924
3780.8	0.000546
3790.44	0.0005925
3800.09	0.000245
3809.73	0.0013635
3819.38	0.00071509
3829.02	0.0009152
3838.67	0.00073524
3848.31	0.00070985
3857.96	0.0009658
3867.6	0.0009444
3877.25	0.0009351
3886.89	0.000947
3896.54	0.0009626
3906.18	0.0007881
3915.83	0.0008722
3925.47	0.000388
3935.12	0.00074476
3944.76	0.0007596
3954.41	0.000328
3964.05	0.000447
3973.69	0.000331
3983.34	0.000376
3992.98	0.0008453
