Infrared Spectrum: 2-AMINOETHANOL HYDROCHLORIDE
Formula: C2 H7 N O  * H Cl
CAS: 2002-24-6
State: SOLID (KBr PELLET)
Class: COBLENTZ
Instrument: PERKIN-ELMER
Sampling: TRANSMISSION
Resolution: 4
MICROMETERS	TRANSMITTANCE
2.031	0.855
2.06771	0.854
2.10441	0.852
2.14112	0.842
2.17782	0.838
2.21453	0.84
2.25124	0.84
2.28794	0.837
2.32465	0.837
2.36135	0.843
2.39806	0.849
2.43477	0.855
2.47147	0.857
2.50818	0.86
2.54488	0.869
2.58159	0.868
2.6183	0.869
2.655	0.874
2.69171	0.874
2.72841	0.877
2.76512	0.858
2.80182	0.806
2.83853	0.694
2.87524	0.556
2.91194	0.414
2.94865	0.302
2.98535	0.24
3.02206	0.21
3.05877	0.205
3.09547	0.2
3.13218	0.18
3.16888	0.164
3.20559	0.128
3.2423	0.101
3.279	0.088
3.31571	0.078
3.35241	0.065
3.38912	0.059
3.42583	0.056
3.46253	0.059
3.49924	0.087
3.53594	0.11
3.57265	0.165
3.60936	0.228
3.64606	0.286
3.68277	0.314
3.71947	0.366
3.75618	0.443
3.79289	0.469
3.82959	0.476
3.8663	0.515
3.903	0.538
3.93971	0.602
3.97642	0.645
4.01312	0.656
4.04983	0.665
4.08653	0.7
4.12324	0.743
4.15994	0.789
4.19665	0.822
4.23336	0.826
4.27006	0.828
4.30677	0.829
4.34347	0.849
4.38018	0.874
4.41689	0.884
4.45359	0.888
4.4903	0.888
4.527	0.894
4.56371	0.895
4.60042	0.898
4.63712	0.897
4.67383	0.892
4.71053	0.884
4.74724	0.875
4.78395	0.872
4.82065	0.865
4.85736	0.845
4.89406	0.829
4.93077	0.803
4.96748	0.783
5.00418	0.774
5.04089	0.776
5.07759	0.785
5.1143	0.792
5.15101	0.802
5.18771	0.811
5.22442	0.82
5.26112	0.831
5.29783	0.843
5.33454	0.855
5.37124	0.863
5.40795	0.861
5.44465	0.865
5.48136	0.874
5.51807	0.881
5.55477	0.883
5.59148	0.886
5.62818	0.886
5.66489	0.886
5.70159	0.883
5.7383	0.886
5.77501	0.884
5.81171	0.88
5.84842	0.871
5.88512	0.779
5.92183	0.667
5.95854	0.659
5.99524	0.641
6.03195	0.588
6.06865	0.542
6.10536	0.452
6.14207	0.351
6.17877	0.223
6.21548	0.159
6.25218	0.159
6.28889	0.2
6.3256	0.248
6.3623	0.338
6.39901	0.358
6.43571	0.432
6.47242	0.423
6.50913	0.365
6.54583	0.273
6.58254	0.187
6.61924	0.111
6.65595	0.098
6.69266	0.095
6.72936	0.111
6.76607	0.138
6.80277	0.196
6.83948	0.211
6.87619	0.234
6.91289	0.319
6.9496	0.378
6.9863	0.409
7.02301	0.415
7.05971	0.412
7.09642	0.417
7.13313	0.429
7.16983	0.435
7.20654	0.429
7.24324	0.42
7.27995	0.403
7.31666	0.415
7.35336	0.446
7.39007	0.461
7.42677	0.458
7.46348	0.43
7.50019	0.418
7.53689	0.409
7.5736	0.407
7.6103	0.432
7.64701	0.452
7.68372	0.473
7.72042	0.483
7.75713	0.484
7.79383	0.476
7.83054	0.449
7.86725	0.412
7.90395	0.398
7.94066	0.426
7.97736	0.472
8.01407	0.515
8.05078	0.547
8.08748	0.569
8.12419	0.578
8.16089	0.59
8.1976	0.593
8.23431	0.602
8.27101	0.607
8.30772	0.608
8.34442	0.61
8.38113	0.61
8.41783	0.61
8.45454	0.604
8.49125	0.599
8.52795	0.579
8.56466	0.552
8.60136	0.527
8.63807	0.501
8.67478	0.476
8.71148	0.45
8.74819	0.434
8.78489	0.412
8.8216	0.391
8.85831	0.377
8.89501	0.351
8.93172	0.444
8.96842	0.515
9.00513	0.536
9.04184	0.636
9.07854	0.757
9.11525	0.75
9.15195	0.722
9.18866	0.651
9.22537	0.556
9.26207	0.412
9.29878	0.309
9.33548	0.225
9.37219	0.239
9.4089	0.337
9.4456	0.481
9.48231	0.601
9.51901	0.693
9.55572	0.734
9.59243	0.757
9.62913	0.771
9.66584	0.776
9.70254	0.777
9.73925	0.759
9.77596	0.717
9.81266	0.625
9.84937	0.541
9.88607	0.348
9.92278	0.197
9.95948	0.104
9.99619	0.087
10.0329	0.081
10.0696	0.07
10.1063	0.067
10.143	0.115
10.1797	0.213
10.2164	0.34
10.2531	0.46
10.2898	0.542
10.3265	0.602
10.3633	0.651
10.4	0.668
10.4367	0.69
10.4734	0.703
10.5101	0.725
10.5468	0.734
10.5835	0.746
10.6202	0.759
10.6569	0.771
10.6936	0.78
10.7303	0.785
10.767	0.789
10.8037	0.796
10.8404	0.799
10.8771	0.803
10.9138	0.802
10.9505	0.803
10.9873	0.811
11.024	0.814
11.0607	0.814
11.0974	0.815
11.1341	0.817
11.1708	0.815
11.2075	0.817
11.2442	0.817
11.2809	0.819
11.3176	0.82
11.3543	0.814
11.391	0.786
11.4277	0.63
11.4644	0.59
11.5011	0.691
11.5378	0.746
11.5745	0.774
11.6113	0.788
11.648	0.792
11.6847	0.799
11.7214	0.805
11.7581	0.812
11.7948	0.809
11.8315	0.811
11.8682	0.766
11.9049	0.745
11.9416	0.759
11.9783	0.782
12.015	0.785
12.0517	0.785
12.0884	0.789
12.1251	0.789
12.1618	0.794
12.1985	0.792
12.2353	0.792
12.272	0.792
12.3087	0.789
12.3454	0.785
12.3821	0.785
12.4188	0.777
12.4555	0.776
12.4922	0.773
12.5289	0.768
12.5656	0.763
12.6023	0.754
12.639	0.748
12.6757	0.743
12.7124	0.74
12.7491	0.728
12.7858	0.72
12.8225	0.719
12.8593	0.714
12.896	0.707
12.9327	0.693
12.9694	0.691
13.0061	0.687
13.0428	0.679
13.0795	0.674
13.1162	0.67
13.1529	0.659
13.1896	0.651
13.2263	0.648
13.263	0.648
13.2997	0.644
13.3364	0.634
13.3731	0.638
13.4098	0.638
13.4465	0.638
13.4833	0.638
13.52	0.633
13.5567	0.638
13.5934	0.633
13.6301	0.633
13.6668	0.633
13.7035	0.63
13.7402	0.63
13.7769	0.624
13.8136	0.622
13.8503	0.616
13.887	0.607
13.9237	0.599
13.9604	0.588
13.9971	0.581
14.0338	0.569
14.0706	0.555
14.1073	0.541
14.144	0.526
14.1807	0.504
14.2174	0.476
14.2541	0.463
14.2908	0.441
14.3275	0.421
14.3642	0.401
14.4009	0.381
14.4376	0.363
14.4743	0.351
14.511	0.338
14.5477	0.326
14.5844	0.319
14.6211	0.311
14.6578	0.315
14.6946	0.315
14.7313	0.319
14.768	0.326
14.8047	0.345
14.8414	0.354
14.8781	0.372
14.9148	0.391
14.9515	0.403
14.9882	0.434
15.0249	0.461
15.0616	0.467
15.0983	0.481
15.135	0.5
15.1717	0.523
