Infrared Spectrum: 4-Cyclohexylbenzoic acid
Formula: C13 H16 O2
CAS: 20029-52-1
State: gas
Origin: EPA-IR VAPOR PHASE LIBRARY
1/CM	ABSORBANCE
549.9	0.00543
559.547	0.0065
569.193	0.00755
578.84	0.00706
588.486	0.00457
598.133	0.00319
607.779	0.00245
617.426	0.00272
627.072	0.00778
636.719	0.01585
646.365	0.0041
656.012	0.00252
665.658	0.0018954
675.305	0.0020158
684.951	0.0032
694.598	0.00515
704.245	0.00775
713.891	0.00914
723.538	0.00803
733.184	0.00827
742.831	0.00819
752.477	0.00626
762.124	0.00775
771.77	0.00965
781.417	0.00714
791.063	0.00369
800.71	0.00243
810.356	0.0019437
820.003	0.00214
829.649	0.00257
839.296	0.00406
848.943	0.00457
858.589	0.0032
868.236	0.00234
877.882	0.0018494
887.529	0.0016416
897.175	0.0016873
906.822	0.001674
916.468	0.001596
926.115	0.0014132
935.761	0.0012075
945.408	0.0012243
955.054	0.0012756
964.701	0.0013385
974.347	0.001549
983.994	0.0022
993.64	0.00405
1003.29	0.00457
1012.93	0.009
1022.58	0.00766
1032.23	0.00367
1041.87	0.00373
1051.52	0.00581
1061.17	0.01326
1070.81	0.03668
1080.46	0.05198
1090.11	0.02183
1099.75	0.01166
1109.4	0.00772
1119.05	0.00625
1128.69	0.00679
1138.34	0.00767
1147.99	0.00897
1157.63	0.01375
1167.28	0.03779
1176.92	0.04871
1186.57	0.02073
1196.22	0.01875
1205.86	0.01013
1215.51	0.00795
1225.16	0.00708
1234.8	0.0064
1244.45	0.00676
1254.1	0.00766
1263.74	0.01016
1273.39	0.0116
1283.04	0.01068
1292.68	0.00878
1302.33	0.008
1311.98	0.00865
1321.62	0.01062
1331.27	0.01473
1340.92	0.01464
1350.56	0.01416
1360.21	0.0192
1369.86	0.01455
1379.5	0.00552
1389.15	0.00352
1398.79	0.00385
1408.44	0.00578
1418.09	0.00695
1427.73	0.00424
1437.38	0.00362
1447.03	0.00643
1456.67	0.00701
1466.32	0.00386
1475.97	0.00235
1485.61	0.0019337
1495.26	0.00209
1504.91	0.00284
1514.55	0.00266
1524.2	0.0017672
1533.85	0.0016301
1543.49	0.0016627
1553.14	0.0018103
1562.79	0.00244
1572.43	0.00348
1582.08	0.00315
1591.73	0.00442
1601.37	0.00923
1611.02	0.01565
1620.67	0.00871
1630.31	0.0032
1639.96	0.0022
1649.6	0.0018389
1659.25	0.0018219
1668.9	0.00212
1678.54	0.00249
1688.19	0.00298
1697.84	0.00362
1707.48	0.00422
1717.13	0.00529
1726.78	0.00679
1736.42	0.01256
1746.07	0.0341
1755.72	0.11102
1765.36	0.07326
1775.01	0.01749
1784.66	0.00786
1794.3	0.00506
1803.95	0.00422
1813.6	0.00375
1823.24	0.00318
1832.89	0.00213
1842.54	0.0015472
1852.18	0.0013256
1861.83	0.0011407
1871.47	0.00112835
1881.12	0.00112105
1890.77	0.00110916
1900.41	0.001258
1910.06	0.0016814
1919.71	0.0018469
1929.35	0.0018024
1939	0.0015435
1948.65	0.0012615
1958.29	0.00107217
1967.94	0.00102848
1977.59	0.000996
1987.23	0.0009941
1996.88	0.000896
2006.53	0.000918
2016.17	0.000911
2025.82	0.000831
2035.47	0.000796
2045.11	0.000765
2054.76	0.000762
2064.41	0.000721
2074.05	0.000708
2083.7	0.000684
2093.35	0.000683
2102.99	0.0007
2112.64	0.0006
2122.28	0.000599
2131.93	0.000731
2141.58	0.000798
2151.22	0.000869
2160.87	0.000834
2170.52	0.000751
2180.16	0.000684
2189.81	0.000657
2199.46	0.000622
2209.1	0.000617
2218.75	0.000601
2228.4	0.000596
2238.04	0.000645
2247.69	0.000673
2257.34	0.000619
2266.98	0.000525
2276.63	0.00051
2286.28	0.000517
2295.92	0.000528
2305.57	0.000506
2315.22	0.000539
2324.86	0.000611
2334.51	0.000685
2344.16	0.000698
2353.8	0.000667
2363.45	0.000619
2373.09	0.000645
2382.74	0.00066
2392.39	0.000606
2402.03	0.000543
2411.68	0.000486
2421.33	0.000489
2430.97	0.000531
2440.62	0.000561
2450.27	0.000433
2459.91	0.000429
2469.56	0.000486
2479.21	0.000474
2488.85	0.000485
2498.5	0.000381
2508.15	0.000434
2517.79	0.000397
2527.44	0.000357
2537.09	0.000367
2546.73	0.00035
2556.38	0.000393
2566.03	0.000363
2575.67	0.000361
2585.32	0.000479
2594.96	0.000392
2604.61	0.000324
2614.26	0.000416
2623.9	0.000409
2633.55	0.000389
2643.2	0.000391
2652.84	0.000577
2662.49	0.000657
2672.14	0.000591
2681.78	0.000571
2691.43	0.000339
2701.08	0.000318
2710.72	0.000258
2720.37	0.000134
2730.02	9.8e-05
2739.66	2e-05
2749.31	0.000121
2758.96	0.000138
2768.6	0.000331
2778.25	0.000384
2787.9	0.000557
2797.54	0.000807
2807.19	0.000726
2816.84	0.000989
2826.48	0.0013087
2836.13	0.00204
2845.77	0.00471
2855.42	0.0143
2865.07	0.02326
2874.71	0.01388
2884.36	0.00756
2894.01	0.0059
2903.65	0.00919
2913.3	0.01542
2922.95	0.03124
2932.59	0.06456
2942.24	0.06745
2951.89	0.02345
2961.53	0.00662
2971.18	0.0028
2980.83	0.0015935
2990.47	0.0013964
3000.12	0.0013977
3009.77	0.0016554
3019.41	0.0017485
3029.06	0.00208
3038.71	0.00277
3048.35	0.00249
3058	0.00206
3067.64	0.0019822
3077.29	0.0018343
3086.94	0.0016291
3096.58	0.0017769
3106.23	0.0012872
3115.88	0.000903
3125.52	0.0006
3135.17	0.000509
3144.82	0.00041
3154.46	0.000691
3164.11	0.00058
3173.76	0.000471
3183.4	0.000527
3193.05	0.000297
3202.7	0.000422
3212.34	0.000494
3221.99	0.000522
3231.64	0.000411
3241.28	0.000531
3250.93	0.000653
3260.58	0.000782
3270.22	0.000676
3279.87	0.000862
3289.52	0.0010054
3299.16	0.000706
3308.81	0.000886
3318.45	0.0009429
3328.1	0.0009708
3337.75	0.0011757
3347.39	0.000866
3357.04	0.00104294
3366.69	0.00108684
3376.33	0.0011947
3385.98	0.0013129
3395.63	0.0012269
3405.27	0.001182
3414.92	0.001262
3424.57	0.0012483
3434.21	0.0013194
3443.86	0.0012224
3453.51	0.0012992
3463.15	0.0012212
3472.8	0.0012582
3482.45	0.0012544
3492.09	0.0016759
3501.74	0.001799
3511.39	0.0015637
3521.03	0.0013589
3530.68	0.0015854
3540.33	0.0014153
3549.97	0.0015883
3559.62	0.00223
3569.26	0.00545
3578.91	0.02698
3588.56	0.02931
3598.2	0.00359
3607.85	0.0018424
3617.5	0.0013585
3627.14	0.0015327
3636.79	0.0014306
3646.44	0.0012534
3656.08	0.0013385
3665.73	0.0011622
3675.38	0.0012213
3685.02	0.0012174
3694.67	0.00109255
3704.32	0.0011422
3713.96	0.001145
3723.61	0.0010617
3733.26	0.0011305
3742.9	0.00107781
3752.55	0.001156
3762.2	0.0010198
3771.84	0.0010132
3781.49	0.0011064
3791.13	0.0009304
3800.78	0.000886
3810.43	0.000827
3820.07	0.000831
3829.72	0.000797
3839.37	0.000772
3849.01	0.0009819
3858.66	0.000877
3868.31	0.000811
3877.95	0.000722
3887.6	0.000728
3897.25	0.000685
3906.89	0.00058
3916.54	0.000644
3926.19	0.000725
3935.83	0.000773
3945.48	0.00091
3955.13	0.000781
3964.77	0.000725
3974.42	0.000648
3984.07	0.000653
3993.71	0.000629
