Infrared Spectrum: Pentafluorophenylpropionic acid
Formula: C 9 H 5 F 5 O 2
CAS: 2002-94-0
State: gas
Origin: EPA-IR VAPOR PHASE LIBRARY
1/CM	ABSORBANCE
549.8	0.011591
559.445	0.015611
569.09	0.013481
578.734	0.010891
588.379	0.014581
598.024	0.020941
607.669	0.012401
617.313	0.010631
626.958	0.010071
636.603	0.008501
646.248	0.006721
655.893	0.005341
665.537	0.004581
675.182	0.003501
684.827	0.003591
694.472	0.003051
704.116	0.003351
713.761	0.002701
723.406	0.003291
733.051	0.003121
742.695	0.00177
752.34	0.002181
761.985	0.0015004
771.63	0.001657
781.275	0.0017393
790.919	0.0013859
800.564	0.0014748
810.209	0.001971
819.854	0.0012043
829.498	0.0013628
839.143	0.0011297
848.788	0.001712
858.433	0.001991
868.078	0.003171
877.722	0.004681
887.367	0.010241
897.012	0.011361
906.657	0.006391
916.301	0.006611
925.946	0.009781
935.591	0.017011
945.236	0.027381
954.88	0.036191
964.525	0.037401
974.17	0.029691
983.815	0.018461
993.46	0.018621
1003.1	0.019931
1012.75	0.020841
1022.39	0.025041
1032.04	0.037351
1041.68	0.052311
1051.33	0.039691
1060.97	0.016921
1070.62	0.009771
1080.26	0.008391
1089.91	0.010771
1099.55	0.017601
1109.2	0.029051
1118.84	0.062231
1128.49	0.082671
1138.13	0.054691
1147.78	0.030621
1157.42	0.019951
1167.07	0.014631
1176.71	0.013521
1186.36	0.011361
1196	0.014071
1205.64	0.014031
1215.29	0.008751
1224.93	0.007981
1234.58	0.007521
1244.22	0.006701
1253.87	0.007371
1263.51	0.008041
1273.16	0.008891
1282.8	0.008661
1292.45	0.010001
1302.09	0.013561
1311.74	0.011381
1321.38	0.007901
1331.03	0.007701
1340.67	0.008731
1350.32	0.009501
1359.96	0.010061
1369.61	0.011951
1379.25	0.015451
1388.9	0.016841
1398.54	0.011711
1408.18	0.008251
1417.83	0.009021
1427.47	0.010041
1437.12	0.008461
1446.76	0.007821
1456.41	0.008551
1466.05	0.009451
1475.7	0.015161
1485.34	0.041501
1494.99	0.114081
1504.63	0.153451
1514.28	0.129021
1523.92	0.096401
1533.57	0.022431
1543.21	0.009151
1552.86	0.006301
1562.5	0.005281
1572.15	0.004901
1581.79	0.004891
1591.44	0.004811
1601.08	0.003661
1610.73	0.002681
1620.37	0.003121
1630.01	0.003731
1639.66	0.005601
1649.3	0.009741
1658.95	0.006671
1668.59	0.002631
1678.24	0.002071
1687.88	0.002171
1697.53	0.002571
1707.17	0.003391
1716.82	0.004761
1726.46	0.007541
1736.11	0.011301
1745.75	0.016811
1755.4	0.025381
1765.04	0.039181
1774.69	0.059261
1784.33	0.070961
1793.98	0.045701
1803.62	0.025901
1813.27	0.015181
1822.91	0.008411
1832.55	0.004811
1842.2	0.003321
1851.84	0.002541
1861.49	0.001921
1871.13	0.0016479
1880.78	0.0015185
1890.42	0.001483
1900.07	0.0013289
1909.71	0.0013618
1919.36	0.001204
1929	0.0013373
1938.65	0.0013208
1948.29	0.0010772
1957.94	0.0013045
1967.58	0.0012409
1977.23	0.0010354
1986.87	0.0012467
1996.52	0.0010846
2006.16	0.0012251
2015.81	0.0012139
2025.45	0.0012559
2035.1	0.0014878
2044.74	0.0013788
2054.38	0.0015367
2064.03	0.0016332
2073.67	0.0017337
2083.32	0.0015065
2092.96	0.0011473
2102.61	0.0010485
2112.25	0.0011642
2121.9	0.0013956
2131.54	0.0011129
2141.19	0.0012031
2150.83	0.0010504
2160.48	0.0011772
2170.12	0.0012952
2179.77	0.0012454
2189.41	0.0012417
2199.06	0.0010033
2208.7	0.0012134
2218.35	0.001012
2227.99	0.0013584
2237.64	0.0015471
2247.28	0.0015526
2256.92	0.0014104
2266.57	0.0011516
2276.21	0.0011092
2285.86	0.0011513
2295.5	0.0010183
2305.15	0.001014
2314.79	0.0009652
2324.44	0.0010524
2334.08	0.0010627
2343.73	0.0010851
2353.37	0.0011431
2363.02	0.0012484
2372.66	0.0014261
2382.31	0.001683
2391.95	0.0016954
2401.6	0.0016365
2411.24	0.0013903
2420.89	0.0015144
2430.53	0.002061
2440.18	0.0018402
2449.82	0.002101
2459.47	0.0017989
2469.11	0.0016992
2478.75	0.0014143
2488.4	0.0015098
2498.04	0.0012287
2507.69	0.0010152
2517.33	0.0012432
2526.98	0.00097735
2536.62	0.0010566
2546.27	0.001198
2555.91	0.0011911
2565.56	0.000899076
2575.2	0.0010436
2584.85	0.0011337
2594.49	0.0012144
2604.14	0.0011495
2613.78	0.001449
2623.43	0.0015257
2633.07	0.0018151
2642.72	0.001941
2652.36	0.0016151
2662.01	0.0017115
2671.65	0.0009975
2681.29	0.0011789
2690.94	0.0011687
2700.58	0.0009726
2710.23	0.0010886
2719.87	0.00090575
2729.52	0.00088827
2739.16	0.0011069
2748.81	0.0008679
2758.45	0.0010859
2768.1	0.00093847
2777.74	0.0010412
2787.39	0.0009936
2797.03	0.001164
2806.68	0.001118
2816.32	0.0012782
2825.97	0.0011481
2835.61	0.001345
2845.26	0.0013941
2854.9	0.0011461
2864.55	0.0015072
2874.19	0.0011263
2883.84	0.0014653
2893.48	0.0017842
2903.12	0.0018544
2912.77	0.002011
2922.41	0.002131
2932.06	0.003221
2941.7	0.004081
2951.35	0.004681
2960.99	0.004431
2970.64	0.003051
2980.28	0.002951
2989.93	0.002651
2999.57	0.002541
3009.22	0.002201
3018.86	0.0014365
3028.51	0.0015148
3038.15	0.0012599
3047.8	0.001274
3057.44	0.00093707
3067.09	0.000358
3076.73	0.0010344
3086.38	0.0010481
3096.02	0.0009106
3105.67	0.00090646
3115.31	0.000502
3124.95	0.0010222
3134.6	0.00097358
3144.24	0.000728
3153.89	0.0011277
3163.53	0.000599
3173.18	0.000656
3182.82	0.000437
3192.47	0.000398
3202.11	0.0008415
3211.76	0.0008586
3221.4	0.00090178
3231.05	0.0010752
3240.69	0.00072
3250.34	0.000119
3259.98	0.000662
3269.63	0.000788
3279.27	0.00096358
3288.92	0.0009961
3298.56	0.000388
3308.21	0.000368
3317.85	0.000676
3327.49	0.0011979
3337.14	0.0009608
3346.78	0.0008108
3356.43	0.000495
3366.07	0.000661
3375.72	0.000655
3385.36	0.000629
3395.01	0.000619
3404.65	0.000709
3414.3	0.000361
3423.94	0.000416
3433.59	0.00105
3443.23	0.000697
3452.88	0.0012972
3462.52	0.0011332
3472.17	0.000778
3481.81	0.000796
3491.46	0.0011375
3501.1	0.0011971
3510.75	0.001471
3520.39	0.001941
3530.04	0.0017406
3539.68	0.002961
3549.32	0.003361
3558.97	0.006251
3568.61	0.026061
3578.26	0.031881
3587.9	0.006271
3597.55	0.003151
3607.19	0.002271
3616.84	0.0016225
3626.48	0.0012463
3636.13	0.0015363
3645.77	0.0012335
3655.42	0.00098461
3665.06	0.000515
3674.71	0.0008603
3684.35	0.0011307
3694	0.000553
3703.64	0.000481
3713.29	0.00092812
3722.93	0.000583
3732.58	0.000759
3742.22	0.000393
3751.86	0.0013072
3761.51	0.000467
3771.15	0.0008629
3780.8	0.000548
3790.44	0.001147
3800.09	0.000578
3809.73	0.0011123
3819.38	0.00066
3829.02	0.00011
3838.67	0.000615
3848.31	0.000278
3857.96	0.0014466
3867.6	0.00098204
3877.25	0.000585
3886.89	0.000579
3896.54	0.000603
3906.18	0.0010647
3915.83	0.000778
3925.47	0.000605
3935.12	0.0013817
3944.76	0.00059
3954.41	0.000515
3964.05	0.000558
3973.69	0.0011579
3983.34	0.00090383
3992.98	0.00091997
