Infrared Spectrum: Androst-5-ene-17-carboxylic acid, 3Beta-hydroxy-, methyl ester
Formula: C21 H32 O3
CAS: 200263-91-8
State: SOLID (SPLIT MULL), FLUOROLUBE FOR 3800-1330 CM^-^1, NUJOL FOR 1330-460 CM^-^1
Class: COBLENTZ III
Instrument: DOW KBr FOREPRISM-GRATING
Instrument parameters: BLAZED AT 3.5, 12.0, 20.0 MICRON AND CHANGED AT 5.0, 7.5, 14.9 MICRON
Sampling: TRANSMISSION
Resolution: 2
Origin: DOW CHEMICAL COMPANY
1/CM	TRANSMITTANCE
3800	0.7044
3791	0.7043
3782	0.7046
3773	0.7049
3764	0.7056
3755	0.7095
3746	0.7137
3737	0.7161
3728	0.7162
3719	0.7165
3710	0.7171
3701	0.7178
3692	0.7187
3683	0.7199
3674	0.7212
3665	0.7226
3656	0.7238
3647	0.7243
3638	0.725
3629	0.7256
3620	0.7261
3611	0.7265
3602	0.7268
3593	0.7269
3584	0.7268
3575	0.7236
3566	0.7136
3557	0.6921
3548	0.6505
3539	0.5759
3530	0.5292
3521	0.4195
3512	0.2302
3503	0.2427
3494	0.3979
3485	0.4567
3476	0.4948
3467	0.5268
3458	0.5472
3449	0.5647
3440	0.5771
3431	0.589
3422	0.5964
3413	0.6036
3404	0.6103
3395	0.6164
3386	0.6225
3377	0.6283
3368	0.6338
3359	0.6393
3350	0.6443
3341	0.6489
3332	0.6535
3323	0.658
3314	0.6625
3305	0.6668
3296	0.6714
3287	0.6749
3278	0.6774
3269	0.6798
3260	0.6821
3251	0.685
3242	0.6882
3233	0.6914
3224	0.6946
3215	0.6976
3206	0.7008
3197	0.704
3188	0.7071
3179	0.7103
3170	0.713
3161	0.7157
3152	0.7183
3143	0.7208
3134	0.7239
3125	0.7269
3116	0.7301
3107	0.733
3098	0.7351
3089	0.7372
3080	0.739
3071	0.74
3062	0.74
3053	0.7321
3044	0.7132
3035	0.6971
3026	0.7055
3017	0.7126
3008	0.7135
2999	0.7018
2990	0.5993
2981	0.4062
2972	0.368
2963	0.3641
2954	0.4034
2945	0.3542
2936	0.2995
2927	0.258
2918	0.393
2909	0.3556
2900	0.4224
2891	0.4647
2882	0.4847
2873	0.4901
2864	0.433
2855	0.4282
2846	0.49
2837	0.5984
2828	0.581
2819	0.597
2810	0.6526
2801	0.6762
2792	0.6918
2783	0.7044
2774	0.7141
2765	0.7211
2756	0.7261
2747	0.7294
2738	0.7321
2729	0.7349
2720	0.7375
2711	0.7401
2702	0.7428
2693	0.7453
2684	0.7465
2675	0.7467
2666	0.7475
2657	0.7485
2648	0.7497
2639	0.7525
2630	0.7554
2621	0.7584
2612	0.7608
2603	0.7621
2594	0.7636
2585	0.766
2576	0.7685
2567	0.7705
2558	0.7721
2549	0.7737
2540	0.7754
2531	0.7765
2522	0.7774
2513	0.7783
2504	0.7792
2495	0.7801
2486	0.7811
2477	0.7819
2468	0.7826
2459	0.7835
2450	0.7841
2441	0.7842
2432	0.7844
2423	0.7838
2414	0.7828
2405	0.7817
2396	0.7808
2387	0.7791
2378	0.7751
2369	0.7708
2360	0.7693
2351	0.7688
2342	0.7683
2333	0.7683
2324	0.7693
2315	0.7744
2306	0.7775
2297	0.7798
2288	0.7814
2279	0.7838
2270	0.7868
2261	0.7903
2252	0.7956
2243	0.8008
2234	0.8062
2225	0.8117
2216	0.8165
2207	0.8202
2198	0.8239
2189	0.8274
2180	0.8304
2171	0.8334
2162	0.8352
2153	0.8364
2144	0.8377
2135	0.8394
2126	0.8411
2117	0.8438
2108	0.8465
2099	0.8491
2090	0.8515
2081	0.8536
2072	0.8557
2063	0.8578
2054	0.8599
2045	0.8621
2036	0.8643
2027	0.8664
2018	0.8685
2009	0.8706
2000	0.8731
1991	0.8761
1982	0.8767
1973	0.8765
1964	0.8847
1955	0.8841
1946	0.8846
1937	0.8863
1928	0.8871
1919	0.8878
1910	0.8871
1901	0.8868
1892	0.8865
1883	0.8861
1874	0.8857
1865	0.8853
1856	0.8852
1847	0.8861
1838	0.8848
1829	0.8843
1820	0.8838
1811	0.8828
1802	0.8795
1793	0.8742
1784	0.869
1775	0.8621
1766	0.8514
1757	0.8334
1748	0.7612
1739	0.6123
1730	0.5584
1721	0.1861
1712	0.0507
1703	0.4508
1694	0.6035
1685	0.6788
1676	0.7235
1667	0.7383
1658	0.7755
1649	0.7968
1640	0.8134
1631	0.8249
1622	0.8354
1613	0.8443
1604	0.8493
1595	0.8521
1586	0.8548
1577	0.8574
1568	0.8568
1559	0.8561
1550	0.856
1541	0.8571
1532	0.859
1523	0.8603
1514	0.8604
1505	0.8595
1496	0.8564
1487	0.8377
1478	0.6719
1469	0.7154
1460	0.598
1451	0.539
1442	0.4588
1433	0.5653
1424	0.7497
1415	0.7337
1406	0.7236
1397	0.7506
1388	0.6856
1379	0.5627
1370	0.5691
1361	0.4905
1352	0.651
1343	0.711
1334	0.6989
1325	0.7731
1316	0.7684
1307	0.7085
1298	0.5508
1289	0.6657
1280	0.6251
1271	0.6954
1262	0.7235
1253	0.7292
1244	0.5889
1235	0.385
1226	0.5125
1217	0.5362
1208	0.2741
1199	0.3982
1190	0.5629
1181	0.5843
1172	0.4984
1163	0.5502
1154	0.617
1145	0.7384
1136	0.7365
1127	0.7324
1118	0.766
1109	0.7101
1100	0.7443
1091	0.7719
1082	0.7314
1073	0.3477
1064	0.5734
1055	0.6037
1046	0.6557
1037	0.7125
1028	0.6961
1019	0.715
1010	0.7382
1001	0.7811
992	0.7165
983	0.6982
974	0.7739
965	0.7244
956	0.6685
947	0.75
938	0.7828
929	0.8111
920	0.719
911	0.7596
902	0.8151
893	0.8011
884	0.8133
875	0.8247
866	0.8298
857	0.8327
848	0.8005
839	0.8044
830	0.8068
821	0.8334
812	0.7991
803	0.7793
794	0.8293
785	0.8375
776	0.8106
767	0.7745
758	0.8097
749	0.8178
740	0.7439
731	0.7815
722	0.7815
713	0.8211
704	0.829
695	0.8501
686	0.853
677	0.8946
668	0.8871
659	0.8863
650	0.8815
641	0.8596
632	0.8646
623	0.8606
614	0.8495
605	0.8001
596	0.7988
587	0.8151
578	0.8044
569	0.7933
560	0.7784
551	0.7558
542	0.7412
533	0.7565
524	0.7672
515	0.778
506	0.7828
497	0.7837
488	0.7842
479	0.784
