Infrared Spectrum: PURIN-2-OL, 6-MERCAPTO (KETO FORM)
Formula: C5 H4 N4 O S
CAS: 2002-59-7
State: SOLID (0.8 mg / 650 mg KBr DISC)
Class: COBLENTZ III
Instrument: PERKIN-ELMER 21 (GRATING)
Instrument parameters: FILTER CHANGE AT ABOUT 1070 CM^-^1
Sampling: TRANSMISSION
Resolution: 2
Origin: SOUTHERN RESEARCH INSTITUTE
1/CM	TRANSMITTANCE
626.842	1.061
635.232	0.8822
643.623	0.871
652.013	0.8554
660.404	0.8356
668.794	0.8274
677.184	0.8047
685.575	0.7835
693.965	0.7751
702.356	0.7546
710.746	0.6591
719.136	0.7969
727.527	0.7756
735.917	0.7229
744.308	0.669
752.698	0.6255
761.088	0.5411
769.479	0.6886
777.869	0.6693
786.26	0.6583
794.65	0.6394
803.04	0.616
811.431	0.5764
819.821	0.545
828.212	0.519
836.602	0.5029
844.992	0.492
853.383	0.5318
861.773	0.597
870.164	0.6189
878.554	0.6269
886.944	0.6422
895.335	0.653
903.725	0.7067
912.116	0.7475
920.506	0.758
928.896	0.7536
937.287	0.7459
945.677	0.7285
954.068	0.7451
962.458	0.797
970.848	0.7949
979.239	0.791
987.629	0.7792
996.02	0.7685
1004.41	0.752
1012.8	0.747
1021.19	0.748
1029.58	0.755
1037.97	0.756
1046.36	0.7546
1054.75	0.7406
1063.14	0.7317
1071.53	0.724
1079.92	0.7127
1088.31	0.6998
1096.7	0.6798
1105.09	0.6344
1113.49	0.5922
1121.88	0.6108
1130.27	0.6133
1138.66	0.5633
1147.05	0.526
1155.44	0.5762
1163.83	0.6724
1172.22	0.662
1180.61	0.6061
1189	0.5131
1197.39	0.4942
1205.78	0.5302
1214.17	0.718
1222.56	0.73
1230.95	0.732
1239.34	0.7227
1247.73	0.6843
1256.12	0.6821
1264.51	0.714
1272.9	0.7034
1281.29	0.6818
1289.68	0.6503
1298.07	0.6124
1306.46	0.5557
1314.85	0.4866
1323.25	0.4799
1331.64	0.456
1340.03	0.704
1348.42	0.6972
1356.81	0.6762
1365.2	0.6582
1373.59	0.6309
1381.98	0.6053
1390.37	0.5523
1398.76	0.5248
1407.15	0.4458
1415.54	0.3783
1423.93	0.4671
1432.32	0.4898
1440.71	0.4863
1449.1	0.451
1457.49	0.4638
1465.88	0.5308
1474.27	0.5697
1482.66	0.57
1491.05	0.57
1499.44	0.5681
1507.83	0.5544
1516.22	0.5261
1524.61	0.5029
1533.01	0.455
1541.4	0.4427
1549.79	0.3642
1558.18	0.3551
1566.57	0.3644
1574.96	0.4249
1583.35	0.4163
1591.74	0.3663
1600.13	0.3386
1608.52	0.3012
1616.91	0.2547
1625.3	0.2022
1633.69	0.1651
1642.08	0.118
1650.47	0.113
1658.86	0.11
1667.25	0.1058
1675.64	0.101
1684.03	0.1
1692.42	0.104
1700.81	0.1224
1709.2	0.1708
1717.59	0.2821
1725.98	0.3936
1734.37	0.4928
1742.77	0.5532
1751.16	0.599
1759.55	0.6447
1767.94	0.6711
1776.33	0.6958
1784.72	0.7146
1793.11	0.7314
1801.5	0.7641
1809.89	0.79
1818.28	0.8129
1826.67	0.8287
1835.06	0.837
1843.45	0.838
1851.84	0.839
1860.23	0.851
1868.62	0.8675
1877.01	0.8744
1885.4	0.8764
1893.79	0.8803
1902.18	0.883
1910.57	0.883
1918.96	0.883
1927.35	0.88
1935.74	0.8771
1944.13	0.873
1952.53	0.8682
1960.92	0.865
1969.31	0.865
1977.7	0.863
1986.09	0.858
1994.48	0.8556
2002.87	0.8482
2011.26	0.846
2019.65	0.8428
2028.04	0.837
2036.43	0.8326
2044.82	0.831
2053.21	0.823
2061.6	0.823
2069.99	0.823
2078.38	0.8226
2086.77	0.821
2095.16	0.817
2103.55	0.813
2111.94	0.8062
2120.33	0.8006
2128.72	0.797
2137.11	0.792
2145.5	0.7906
2153.89	0.789
2162.29	0.786
2170.68	0.7836
2179.07	0.7796
2187.46	0.778
2195.85	0.776
2204.24	0.7726
2212.63	0.767
2221.02	0.7632
2229.41	0.756
2237.8	0.7546
2246.19	0.752
2254.58	0.7474
2262.97	0.7452
2271.36	0.7366
2279.75	0.732
2288.14	0.7212
2296.53	0.714
2304.92	0.7106
2313.31	0.707
2321.7	0.704
2330.09	0.6996
2338.48	0.6916
2346.87	0.6866
2355.26	0.687
2363.65	0.688
2372.05	0.6788
2380.44	0.675
2388.83	0.6722
2397.22	0.6646
2405.61	0.661
2414	0.656
2422.39	0.6516
2430.78	0.6482
2439.17	0.6446
2447.56	0.6326
2455.95	0.626
2464.34	0.6174
2472.73	0.6068
2481.12	0.5992
2489.51	0.5906
2497.9	0.588
2506.29	0.584
2514.68	0.577
2523.07	0.5716
2531.46	0.5546
2539.85	0.5478
2548.24	0.5291
2556.63	0.5226
2565.02	0.5176
2573.41	0.5106
2581.81	0.5002
2590.2	0.492
2598.59	0.4816
2606.98	0.4756
2615.37	0.4662
2623.76	0.4626
2632.15	0.4526
2640.54	0.4456
2648.93	0.443
2657.32	0.4396
2665.71	0.434
2674.1	0.423
2682.49	0.4156
2690.88	0.4106
2699.27	0.4016
2707.66	0.3908
2716.05	0.3726
2724.44	0.3546
2732.83	0.3436
2741.22	0.3286
2749.61	0.3192
2758	0.3106
2766.39	0.3032
2774.78	0.304
2783.17	0.306
2791.57	0.3074
2799.96	0.3164
2808.35	0.32
2816.74	0.32
2825.13	0.3186
2833.52	0.316
2841.91	0.316
2850.3	0.317
2858.69	0.3224
2867.08	0.333
2875.47	0.3448
2883.86	0.3534
2892.25	0.358
2900.64	0.358
2909.03	0.3556
2917.42	0.3486
2925.81	0.3384
2934.2	0.3246
2942.59	0.316
2950.98	0.313
2959.37	0.312
2967.76	0.312
2976.15	0.3124
2984.54	0.3164
2992.93	0.3238
3001.33	0.332
3009.72	0.34
3018.11	0.3448
3026.5	0.3494
3034.89	0.353
3043.28	0.3554
3051.67	0.361
3060.06	0.366
3068.45	0.368
3076.84	0.3734
3085.23	0.377
3093.62	0.379
3102.01	0.384
3110.4	0.3898
3118.79	0.4058
3127.18	0.4318
3135.57	0.4498
3143.96	0.4602
3152.35	0.4744
3160.74	0.4952
3169.13	0.5104
3177.52	0.5276
3185.91	0.537
3194.3	0.5493
3202.69	0.5688
3211.09	0.5828
3219.48	0.5958
3227.87	0.6024
3236.26	0.6152
3244.65	0.6318
3253.04	0.6434
3261.43	0.6464
3269.82	0.6524
3278.21	0.656
3286.6	0.656
3294.99	0.655
3303.38	0.6516
3311.77	0.6456
3320.16	0.6386
3328.55	0.6286
3336.94	0.6166
3345.33	0.6062
3353.72	0.5976
3362.11	0.5896
3370.5	0.5826
3378.89	0.5752
3387.28	0.5676
3395.67	0.5654
3404.06	0.566
3412.45	0.567
3420.85	0.571
3429.24	0.574
3437.63	0.578
3446.02	0.5854
3454.41	0.594
3462.8	0.5988
3471.19	0.6034
3479.58	0.6178
3487.97	0.6272
3496.36	0.6384
3504.75	0.6444
3513.14	0.6578
3521.53	0.668
3529.92	0.6734
3538.31	0.6764
3546.7	0.6892
3555.09	0.701
3563.48	0.7118
3571.87	0.7244
3580.26	0.7358
3588.65	0.7448
3597.04	0.7534
3605.43	0.7614
3613.82	0.7664
3622.21	0.7674
3630.61	0.768
3639	0.77
3647.39	0.77
3655.78	0.77
3664.17	0.77
3672.56	0.77
3680.95	0.768
3689.34	0.768
3697.73	0.767
3706.12	0.767
3714.51	0.766
3722.9	0.765
3731.29	0.765
3739.68	0.766
3748.07	0.765
3756.46	0.765
3764.85	0.764
3773.24	0.764
3781.63	0.761
3790.02	0.761
3798.41	0.761
3806.8	0.7606
3815.19	0.7596
