Infrared Spectrum: Hydrocinnamic acid, 2,3,4,5,6-pentafluoro-
Formula: C9 H5 F5 O2
CAS: 2002-92-8
State: SOLID (SPLIT MULL), FLUOROLUBE FOR 3800-1330 CM^-^1, NUJOL FOR 1330-460 CM^-^1
Melting point: 97 C
Class: COBLENTZ II
Instrument: DOW KBr FOREPRISM-GRATING
Instrument parameters: BLAZED AT 3.5, 12.0, 20.0 MICRON AND CHANGED AT 5.0, 7.5, 14.9 MICRON
Sampling: TRANSMISSION
Resolution: 2
Origin: DOW CHEMICAL COMPANY
1/CM	TRANSMITTANCE
3800	0.7285
3791	0.7301
3782	0.7321
3773	0.7341
3764	0.7358
3755	0.7375
3746	0.7392
3737	0.7407
3728	0.7421
3719	0.7437
3710	0.7453
3701	0.7468
3692	0.7485
3683	0.75
3674	0.7518
3665	0.7539
3656	0.7561
3647	0.7582
3638	0.7596
3629	0.7612
3620	0.7639
3611	0.7671
3602	0.7697
3593	0.7699
3584	0.7695
3575	0.7687
3566	0.7708
3557	0.7737
3548	0.7751
3539	0.7753
3530	0.7758
3521	0.7768
3512	0.7778
3503	0.7791
3494	0.7807
3485	0.7821
3476	0.7836
3467	0.7849
3458	0.7861
3449	0.7874
3440	0.7885
3431	0.7895
3422	0.7906
3413	0.7918
3404	0.7933
3395	0.7946
3386	0.7961
3377	0.7961
3368	0.7951
3359	0.7928
3350	0.7895
3341	0.7868
3332	0.7851
3323	0.7844
3314	0.7828
3305	0.7803
3296	0.7756
3287	0.7708
3278	0.7664
3269	0.7618
3260	0.7504
3251	0.7378
3242	0.7267
3233	0.7172
3224	0.708
3215	0.6991
3206	0.6903
3197	0.6814
3188	0.6704
3179	0.6586
3170	0.6487
3161	0.6388
3152	0.6264
3143	0.6105
3134	0.5929
3125	0.5747
3116	0.5574
3107	0.5441
3098	0.536
3089	0.5332
3080	0.5222
3071	0.5062
3062	0.4925
3053	0.4796
3044	0.4678
3035	0.4623
3026	0.4615
3017	0.4736
3008	0.478
2999	0.4734
2990	0.4701
2981	0.4662
2972	0.4555
2963	0.4543
2954	0.4545
2945	0.4528
2936	0.4338
2927	0.4274
2918	0.432
2909	0.4402
2900	0.4483
2891	0.4566
2882	0.4643
2873	0.4677
2864	0.4696
2855	0.4762
2846	0.486
2837	0.4962
2828	0.5055
2819	0.5128
2810	0.5199
2801	0.5275
2792	0.534
2783	0.5355
2774	0.5346
2765	0.534
2756	0.5344
2747	0.5349
2738	0.5381
2729	0.5433
2720	0.5417
2711	0.5417
2702	0.5542
2693	0.5649
2684	0.5718
2675	0.5655
2666	0.5544
2657	0.5482
2648	0.5293
2639	0.4995
2630	0.496
2621	0.5056
2612	0.5273
2603	0.5465
2594	0.5648
2585	0.5706
2576	0.5648
2567	0.5602
2558	0.5712
2549	0.5856
2540	0.5951
2531	0.5918
2522	0.5981
2513	0.6056
2504	0.6123
2495	0.6212
2486	0.631
2477	0.64
2468	0.6496
2459	0.6593
2450	0.6674
2441	0.6678
2432	0.6714
2423	0.6757
2414	0.6819
2405	0.6884
2396	0.694
2387	0.6994
2378	0.7021
2369	0.7042
2360	0.7069
2351	0.711
2342	0.7162
2333	0.7218
2324	0.7292
2315	0.7394
2306	0.7494
2297	0.7551
2288	0.7538
2279	0.7535
2270	0.7543
2261	0.7617
2252	0.7686
2243	0.7747
2234	0.7801
2225	0.7861
2216	0.7924
2207	0.7986
2198	0.8055
2189	0.8122
2180	0.8192
2171	0.8257
2162	0.8232
2153	0.8228
2144	0.8239
2135	0.8265
2126	0.8333
2117	0.8385
2108	0.8413
2099	0.8401
2090	0.839
2081	0.8375
2072	0.8407
2063	0.8485
2054	0.8533
2045	0.8568
2036	0.8603
2027	0.8636
2018	0.8671
2009	0.8701
2000	0.87
1991	0.8696
1982	0.872
1973	0.8747
1964	0.8771
1955	0.8754
1946	0.877
1937	0.8773
1928	0.8756
1919	0.8741
1910	0.873
1901	0.8664
1892	0.866
1883	0.8661
1874	0.866
1865	0.8645
1856	0.862
1847	0.8604
1838	0.852
1829	0.8331
1820	0.8354
1811	0.8318
1802	0.8259
1793	0.8132
1784	0.7962
1775	0.7733
1766	0.7475
1757	0.7161
1748	0.6611
1739	0.5835
1730	0.4316
1721	0.1616
1712	0.0831
1703	0.1092
1694	0.2316
1685	0.4126
1676	0.5638
1667	0.6615
1658	0.4892
1649	0.6957
1640	0.7678
1631	0.8058
1622	0.8368
1613	0.8596
1604	0.857
1595	0.8597
1586	0.8652
1577	0.8728
1568	0.8695
1559	0.8571
1550	0.8181
1541	0.7045
1532	0.4535
1523	0.0374
1514	0.0831
1505	0.0377
1496	0.1802
1487	0.3709
1478	0.5173
1469	0.6018
1460	0.6137
1451	0.4315
1442	0.3259
1433	0.3714
1424	0.3149
1415	0.3916
1406	0.6379
1397	0.6787
1388	0.6834
1379	0.706
1370	0.7111
1361	0.6279
1352	0.7125
1343	0.7383
1334	0.7311
1325	0.6737
1316	0.482
1307	0.5776
1298	0.5571
1289	0.2803
1280	0.426
1271	0.7
1262	0.765
1253	0.8015
1244	0.7995
1235	0.6918
1226	0.4541
1217	0.3025
1208	0.6154
1199	0.734
1190	0.7587
1181	0.7185
1172	0.6083
1163	0.7886
1154	0.8184
1145	0.8321
1136	0.8053
1127	0.686
1118	0.4474
1109	0.5147
1100	0.7604
1091	0.8021
1082	0.8115
1073	0.7953
1064	0.7144
1055	0.3882
1046	0.5651
1037	0.7364
1028	0.804
1019	0.8202
1010	0.8233
1001	0.8233
992	0.8093
983	0.7686
974	0.5319
965	0.2469
956	0.3789
947	0.1061
938	0.5816
929	0.617
920	0.5651
911	0.483
902	0.5827
893	0.6581
884	0.7228
875	0.7604
866	0.776
857	0.7862
848	0.7984
839	0.8136
830	0.8266
821	0.8436
812	0.8538
803	0.8602
794	0.8636
785	0.8635
776	0.8654
767	0.8652
758	0.8635
749	0.8577
740	0.8282
731	0.85
722	0.8503
713	0.8628
704	0.8664
695	0.8683
686	0.8755
677	0.8816
668	0.8874
659	0.8884
650	0.8834
641	0.8261
632	0.838
623	0.8633
614	0.4975
605	0.8214
596	0.8744
587	0.8838
578	0.887
569	0.7378
560	0.8695
551	0.888
542	0.8918
533	0.8925
524	0.8865
515	0.8483
506	0.8122
497	0.8005
488	0.8478
479	0.8624
470	0.8086
