Infrared Spectrum: 2-Bromo-4-methyl-6-nitrophenol
Formula: C 7 H 6 Br N O 3
CAS: 20039-91-2
State: gas
Origin: EPA-IR VAPOR PHASE LIBRARY
1/CM	ABSORBANCE
549.8	0.001772
559.445	0.003552
569.09	0.003212
578.734	0.001972
588.379	0.001412
598.024	0.001412
607.669	0.001952
617.313	0.002692
626.958	0.002482
636.603	0.002762
646.248	0.003522
655.893	0.003982
665.537	0.004682
675.182	0.005342
684.827	0.005802
694.472	0.004922
704.116	0.003472
713.761	0.002732
723.406	0.003272
733.051	0.009752
742.695	0.011852
752.34	0.004802
761.985	0.006682
771.63	0.004922
781.275	0.004842
790.919	0.005632
800.564	0.002552
810.209	0.001522
819.854	0.0010419
829.498	0.0012555
839.143	0.0011752
848.788	0.001802
858.433	0.003252
868.078	0.005182
877.722	0.002552
887.367	0.0011472
897.012	0.0011088
906.657	0.001592
916.301	0.001992
925.946	0.004012
935.591	0.006572
945.236	0.003912
954.88	0.001582
964.525	0.0010117
974.17	0.0009995
983.815	0.001077
993.46	0.0011356
1003.1	0.001662
1012.75	0.001532
1022.39	0.0011415
1032.04	0.0012983
1041.68	0.001542
1051.33	0.002122
1060.97	0.002292
1070.62	0.002762
1080.26	0.005852
1089.91	0.010782
1099.55	0.006672
1109.2	0.002842
1118.84	0.003092
1128.49	0.003782
1138.13	0.004412
1147.78	0.006682
1157.42	0.010102
1167.07	0.010652
1176.71	0.009342
1186.36	0.006762
1196	0.005952
1205.64	0.007822
1215.29	0.011632
1224.93	0.011562
1234.58	0.010702
1244.22	0.021322
1253.87	0.028152
1263.51	0.021992
1273.16	0.013412
1282.8	0.008452
1292.45	0.007852
1302.09	0.013252
1311.74	0.021702
1321.38	0.027572
1331.03	0.026532
1340.67	0.021512
1350.32	0.019012
1359.96	0.014442
1369.61	0.010112
1379.25	0.007642
1388.9	0.007812
1398.54	0.010502
1408.18	0.015182
1417.83	0.017032
1427.47	0.012832
1437.12	0.008382
1446.76	0.008072
1456.41	0.011022
1466.05	0.015972
1475.7	0.016672
1485.34	0.009902
1494.99	0.005512
1504.63	0.004802
1514.28	0.005512
1523.92	0.007912
1533.57	0.014862
1543.21	0.033242
1552.86	0.040782
1562.5	0.021212
1572.15	0.009592
1581.79	0.005722
1591.44	0.004602
1601.08	0.004792
1610.73	0.005402
1620.37	0.006542
1630.01	0.005852
1639.66	0.002932
1649.3	0.001552
1658.95	0.001372
1668.59	0.001382
1678.24	0.0013678
1687.88	0.0010813
1697.53	0.0009189
1707.17	0.0009682
1716.82	0.0008324
1726.46	0.0009389
1736.11	0.0009272
1745.75	0.0009085
1755.4	0.0010818
1765.04	0.001652
1774.69	0.001702
1784.33	0.0010086
1793.98	0.0007961
1803.62	0.0007506
1813.27	0.0008792
1822.91	0.0008378
1832.55	0.0007146
1842.2	0.0006538
1851.84	0.0005674
1861.49	0.0005787
1871.13	0.0006093
1880.78	0.0006039
1890.42	0.0005619
1900.07	0.0004967
1909.71	0.0005539
1919.36	0.0005638
1929	0.0005493
1938.65	0.0005866
1948.29	0.0005858
1957.94	0.000579
1967.58	0.0005456
1977.23	0.0005512
1986.87	0.0005368
1996.52	0.0005556
2006.16	0.0005424
2015.81	0.0005514
2025.45	0.0005739
2035.1	0.0005872
2044.74	0.0006189
2054.38	0.000567
2064.03	0.0005178
2073.67	0.0005219
2083.32	0.0005645
2092.96	0.0005198
2102.61	0.0005475
2112.25	0.00043409
2121.9	0.00040921
2131.54	0.0005657
2141.19	0.0005098
2150.83	0.0004766
2160.48	0.00047155
2170.12	0.0004964
2179.77	0.00046918
2189.41	0.00046606
2199.06	0.0004798
2208.7	0.0004783
2218.35	0.0005486
2227.99	0.0004895
2237.64	0.0005181
2247.28	0.0006231
2256.92	0.0005917
2266.57	0.0006522
2276.21	0.0005463
2285.86	0.0005354
2295.5	0.000481
2305.15	0.0005258
2314.79	0.0006379
2324.44	0.0005731
2334.08	0.0005458
2343.73	0.0004824
2353.37	0.0005925
2363.02	0.0005486
2372.66	0.0005433
2382.31	0.000661
2391.95	0.0006551
2401.6	0.0006597
2411.24	0.0007298
2420.89	0.0006308
2430.53	0.0006701
2440.18	0.0005938
2449.82	0.000589
2459.47	0.000608
2469.11	0.0006913
2478.75	0.0006322
2488.4	0.0005791
2498.04	0.0006703
2507.69	0.0005432
2517.33	0.0006356
2526.98	0.0007287
2536.62	0.0007952
2546.27	0.0007945
2555.91	0.0006848
2565.56	0.0007055
2575.2	0.0008004
2584.85	0.0006787
2594.49	0.0007092
2604.14	0.0008048
2613.78	0.000804
2623.43	0.0006721
2633.07	0.0007527
2642.72	0.0006486
2652.36	0.0007073
2662.01	0.0006806
2671.65	0.0005635
2681.29	0.0006134
2690.94	0.0006471
2700.58	0.0006995
2710.23	0.0007345
2719.87	0.0005742
2729.52	0.0007032
2739.16	0.0008702
2748.81	0.0008524
2758.45	0.0007428
2768.1	0.00079
2777.74	0.0009073
2787.39	0.0008005
2797.03	0.0009018
2806.68	0.0009881
2816.32	0.0011618
2825.97	0.0011291
2835.61	0.0011645
2845.26	0.0011072
2854.9	0.001432
2864.55	0.002082
2874.19	0.002422
2883.84	0.002402
2893.48	0.002322
2903.12	0.002262
2912.77	0.002382
2922.41	0.003072
2932.06	0.004142
2941.7	0.004402
2951.35	0.002742
2960.99	0.002082
2970.64	0.001832
2980.28	0.001662
2989.93	0.001662
2999.57	0.001512
3009.22	0.001652
3018.86	0.001872
3028.51	0.001792
3038.15	0.001662
3047.8	0.001642
3057.44	0.001662
3067.09	0.001482
3076.73	0.0013442
3086.38	0.001412
3096.02	0.0010442
3105.67	0.0011941
3115.31	0.0010593
3124.95	0.0012793
3134.6	0.0012811
3144.24	0.001552
3153.89	0.001572
3163.53	0.001892
3173.18	0.002262
3182.82	0.002982
3192.47	0.003632
3202.11	0.004352
3211.76	0.005012
3221.4	0.005462
3231.05	0.006022
3240.69	0.006012
3250.34	0.005882
3259.98	0.005762
3269.63	0.005392
3279.27	0.005002
3288.92	0.004892
3298.56	0.004462
3308.21	0.004262
3317.85	0.004322
3327.49	0.003972
3337.14	0.003912
3346.78	0.003542
3356.43	0.003252
3366.07	0.003182
3375.72	0.002942
3385.36	0.002852
3395.01	0.002522
3404.65	0.002462
3414.3	0.002202
3423.94	0.001962
3433.59	0.001972
3443.23	0.001802
3452.88	0.001922
3462.52	0.001652
3472.17	0.001532
3481.81	0.001522
3491.46	0.001248
3501.1	0.001562
3510.75	0.001452
3520.39	0.0010801
3530.04	0.001532
3539.68	0.001832
3549.32	0.001552
3558.97	0.0010383
3568.61	0.0009274
3578.26	0.0009662
3587.9	0.0006736
3597.55	0.0007982
3607.19	0.000657
3616.84	0.000688
3626.48	0.0006574
3636.13	0.0005
3645.77	0.0006628
3655.42	0.00052
3665.06	0.0002884
3674.71	0.00045985
3684.35	0.00038457
3694	0.00023
3703.64	0.0003221
3713.29	0.000373879
3722.93	0.00042974
3732.58	0.00046454
3742.22	0.000262
3751.86	0.0004733
3761.51	0.000102
3771.15	0.000242
3780.8	0.00039111
3790.44	0.000132
3800.09	0.00040032
3809.73	0.000374108
3819.38	0.000239
3829.02	0.000158
3838.67	0.00042554
3848.31	0.00042137
3857.96	0.00037694
3867.6	0.00039865
3877.25	0.00023
3886.89	0.000235
3896.54	0.0005135
3906.18	7.1e-05
3915.83	0.0002848
3925.47	0.0005977
3935.12	0.00040212
3944.76	0.00019
3954.41	0.000204
3964.05	0.0003476
3973.69	0.00025
3983.34	0.00013
3992.98	0.000199
