Infrared Spectrum: trans-3-Penten-1-yne
Formula: C 5 H 6
CAS: 2004-69-5
State: gas
Instrument: HP-GC/MS/IRD
Origin: NIST Mass Spectrometry Data Center
1/CM	ABSORBANCE
550	0.0002212
562	0.0004536
574	0.000454
586	0.0004504
598	0.0006216
610	0.000752
622	0.0015856
634	0.0023132
646	0.0031664
658	0.004
670	0.0013952
682	0.0007976
694	0.00048
706	0.0002712
718	0.000122
730	0.0001184
742	0.000124
754	7.6e-05
766	0.00011
778	0.0001308
790	9.44e-05
802	0.0001572
814	6.32e-05
826	7.04e-05
838	0.0001388
850	0.0002008
862	0.0002872
874	0.0003132
886	0.0004936
898	0.0005168
910	0.0004988
922	0.0005188
934	0.0004412
946	0.00041
958	0.0004108
970	0.000422
982	0.0006412
994	0.0011212
1006	0.00221
1018	0.003638
1030	0.0038016
1042	0.0033292
1054	0.0027896
1066	0.0012176
1078	0.0005992
1090	0.0004164
1102	0.0003028
1114	0.000328
1126	0.0003292
1138	0.0002896
1150	0.0003308
1162	0.000332
1174	0.0004304
1186	0.0005
1198	0.0005456
1210	0.0006244
1222	0.0008932
1234	0.0009872
1246	0.0010472
1258	0.0010472
1270	0.0010556
1282	0.0009448
1294	0.0008252
1306	0.000752
1318	0.0006032
1330	0.0006048
1342	0.0007024
1354	0.0008996
1366	0.0012128
1378	0.001454
1390	0.0013896
1402	0.0012388
1414	0.0008268
1426	0.0004488
1438	0.0002692
1450	0.0001572
1462	0.0001444
1474	8.76e-05
1486	6.04e-05
1498	5.4e-05
1510	4.8e-05
1522	4.24e-05
1534	4.8e-06
1546	5.92e-05
1558	1.64e-05
1570	8.28e-05
1582	7.12e-05
1594	8e-05
1606	0.000126
1618	0.0001092
1630	0.0001208
1642	7.88e-05
1654	4.52e-05
1666	8.8e-05
1678	0.00013
1690	9.8e-05
1702	8.56e-05
1714	0.0001068
1726	7.48e-05
1738	0.0001108
1750	9.72e-05
1762	6.44e-05
1774	7.8e-05
1786	8.76e-05
1798	8e-05
1810	7.52e-05
1822	9.44e-05
1834	9.72e-05
1846	9.56e-05
1858	8.64e-05
1870	9.32e-05
1882	6.2e-05
1894	9.68e-05
1906	4.48e-05
1918	7.28e-05
1930	5.96e-05
1942	8.52e-05
1954	7.84e-05
1966	6.28e-05
1978	5.28e-05
1990	8.48e-05
2002	9.52e-05
2014	0.0001364
2026	0.000106
2038	0.0001292
2050	0.00013
2062	0.0001284
2074	0.00012
2086	0.000132
2098	6.6e-05
2110	0.0001428
2122	0.00014
2134	8.24e-05
2146	0.0001156
2158	0.0001044
2170	8.84e-05
2182	7.12e-05
2194	4.88e-05
2206	5.96e-05
2218	5.92e-05
2230	6.08e-05
2242	8.8e-05
2254	8.92e-05
2266	0.0001124
2278	0.0001016
2290	9.4e-05
2302	0.0001004
2314	0.0001008
2326	0.0001156
2338	0.0001384
2350	0.0001076
2362	0.000138
2374	0.0001396
2386	0.000106
2398	0.0001188
2410	0.000112
2422	0.0001056
2434	9.44e-05
2446	7.48e-05
2458	0.0001084
2470	7.84e-05
2482	6.88e-05
2494	0.0001056
2506	0.0001136
2518	0.0001064
2530	0.0001232
2542	0.0001096
2554	6.92e-05
2566	9.32e-05
2578	0.0001196
2590	0.00011
2602	9.56e-05
2614	0.0001052
2626	9.28e-05
2638	0.0001004
2650	0.0001484
2662	0.0001116
2674	0.00012
2686	0.0001168
2698	7.68e-05
2710	9.64e-05
2722	8.92e-05
2734	9.76e-05
2746	0.0001024
2758	9.24e-05
2770	0.0001392
2782	0.000138
2794	0.0001328
2806	0.000156
2818	0.00014
2830	0.0002256
2842	0.0002604
2854	0.000376
2866	0.000476
2878	0.0005788
2890	0.000582
2902	0.0007236
2914	0.0007844
2926	0.0008364
2938	0.000804
2950	0.000706
2962	0.0006248
2974	0.0004748
2986	0.0003872
2998	0.0002312
3010	0.0001644
3022	9.04e-05
3034	0.0001064
3046	0.0001172
3058	0.000146
3070	0.0001096
3082	7.28e-05
3094	0.0001036
3106	9.24e-05
3118	0.0001528
3130	8.8e-05
3142	0.0001416
3154	7.84e-05
3166	0.0001404
3178	6.76e-05
3190	0.0001588
3202	9.4e-05
3214	0.000128
3226	0.0001356
3238	8.56e-05
3250	0.0001504
3262	0.0002068
3274	0.0003104
3286	0.0005496
3298	0.0008888
3310	0.0015168
3322	0.001632
3334	0.0013352
3346	0.0012908
3358	0.0003976
3370	0.000224
3382	0.0002612
3394	0.0002268
3406	0.000158
3418	0.0001404
3430	0.0001672
3442	0.0001468
3454	0.0002136
3466	0.000202
3478	0.0002048
3490	0.0002248
3502	0.000266
3514	0.0002576
3526	0.0002604
3538	0.000172
3550	0.0002144
3562	0.0002056
3574	0.000178
3586	0.0001836
3598	0.0002284
3610	0.0003284
3622	0.0003928
3634	0.0005356
3646	0.0007092
3658	0.0006192
3670	0.0008264
3682	0.0006772
3694	0.0004368
3706	0.0003304
3718	0.0002384
3730	0.0002588
3742	0.0002268
3754	0.0001404
3766	0.0001356
3778	0.0001332
3790	0.0001892
3802	0.0002468
3814	0.0002744
3826	0.0002584
3838	0.0002216
