Infrared Spectrum: 2-Naphthamide, 1-hydroxy-N-octadecyl-
Formula: C29 H45 N O2
CAS: 20043-92-9
State: SOLID (SPLIT MULL), FLUOROLUBE FOR 3800-1330 CM^-^1, NUJOL FOR 1330-460 CM^-^1
Class: COBLENTZ III
Instrument: DOW FOREPRISM-GRATING
Instrument parameters: BLAZED AT 3.5, 12.0, 20.0 MICRON AND CHANGED AT 5.0, 7.5, 14.9 MICRON
Sampling: TRANSMISSION
Resolution: 2
Origin: DOW CHEMICAL COMPANY
1/CM	TRANSMITTANCE
457	0.7453
466	0.7574
475	0.7693
484	0.7585
493	0.7494
502	0.7832
511	0.7891
520	0.8024
529	0.8015
538	0.7807
547	0.8051
556	0.8261
565	0.8292
574	0.8098
583	0.8412
592	0.8438
601	0.8385
610	0.8437
619	0.8506
628	0.8533
637	0.8537
646	0.8508
655	0.7985
664	0.8565
673	0.8556
682	0.8531
691	0.848
700	0.8312
709	0.7669
718	0.605
727	0.6951
736	0.7799
745	0.7968
754	0.5137
763	0.6925
772	0.807
781	0.7729
790	0.7928
799	0.7725
808	0.7439
817	0.8242
826	0.8267
835	0.8157
844	0.8036
853	0.788
862	0.75
871	0.7182
880	0.7637
889	0.7868
898	0.7992
907	0.8022
916	0.7925
925	0.7664
934	0.7741
943	0.7808
952	0.7708
961	0.7803
970	0.7797
979	0.7891
988	0.7949
997	0.7935
1006	0.7847
1015	0.7592
1024	0.7945
1033	0.7902
1042	0.7881
1051	0.7856
1060	0.7568
1069	0.7714
1078	0.7789
1087	0.7259
1096	0.791
1105	0.7927
1114	0.7935
1123	0.7824
1132	0.7422
1141	0.7369
1150	0.6961
1159	0.7617
1168	0.7496
1177	0.7627
1186	0.7743
1195	0.7624
1204	0.6885
1213	0.7762
1222	0.7722
1231	0.7603
1240	0.7042
1249	0.6369
1258	0.7014
1267	0.5839
1276	0.615
1285	0.5892
1294	0.6473
1303	0.6585
1312	0.6219
1321	0.635
1330	0.6443
1339	0.6264
1348	0.6458
1357	0.6704
1366	0.7135
1375	0.732
1384	0.7394
1393	0.6645
1402	0.6801
1411	0.7079
1420	0.774
1429	0.7781
1438	0.7711
1447	0.746
1456	0.666
1465	0.5602
1474	0.6717
1483	0.7682
1492	0.7308
1501	0.7276
1510	0.7187
1519	0.6089
1528	0.5716
1537	0.6101
1546	0.7327
1555	0.765
1564	0.7423
1573	0.6172
1582	0.6841
1591	0.5374
1600	0.7417
1609	0.606
1618	0.7515
1627	0.7512
1636	0.798
1645	0.825
1654	0.8277
1663	0.8266
1672	0.8265
1681	0.8262
1690	0.8259
1699	0.8255
1708	0.8208
1717	0.8119
1726	0.8261
1735	0.8309
1744	0.8321
1753	0.8338
1762	0.835
1771	0.8348
1780	0.8339
1789	0.8334
1798	0.8331
1807	0.8327
1816	0.8326
1825	0.8326
1834	0.8325
1843	0.8327
1852	0.8331
1861	0.8335
1870	0.8344
1879	0.8354
1888	0.8365
1897	0.8373
1906	0.838
1915	0.8383
1924	0.8378
1933	0.8372
1942	0.8369
1951	0.8386
1960	0.8344
1969	0.834
1978	0.8339
1987	0.8328
1996	0.8726
2005	0.8887
2014	0.8863
2023	0.8838
2032	0.8816
2041	0.8782
2050	0.8758
2059	0.8758
2068	0.8796
2077	0.8827
2086	0.8833
2095	0.8827
2104	0.8816
2113	0.88
2122	0.8782
2131	0.8755
2140	0.8727
2149	0.8703
2158	0.8676
2167	0.8645
2176	0.8615
2185	0.8584
2194	0.8564
2203	0.8555
2212	0.8543
2221	0.8497
2230	0.845
2239	0.8402
2248	0.8353
2257	0.8292
2266	0.8233
2275	0.8181
2284	0.8158
2293	0.8161
2302	0.8169
2311	0.8201
2320	0.8232
2329	0.8256
2338	0.8264
2347	0.8265
2356	0.8265
2365	0.8261
2374	0.8253
2383	0.8214
2392	0.8183
2401	0.8156
2410	0.8152
2419	0.8151
2428	0.8146
2437	0.8141
2446	0.8132
2455	0.8116
2464	0.8101
2473	0.8086
2482	0.8073
2491	0.806
2500	0.806
2509	0.8074
2518	0.8069
2527	0.8061
2536	0.8094
2545	0.8101
2554	0.8081
2563	0.8051
2572	0.8018
2581	0.7979
2590	0.7941
2599	0.7908
2608	0.7879
2617	0.785
2626	0.782
2635	0.7792
2644	0.7764
2653	0.7735
2662	0.7707
2671	0.7672
2680	0.7621
2689	0.757
2698	0.7519
2707	0.7467
2716	0.7414
2725	0.7361
2734	0.7308
2743	0.7252
2752	0.7176
2761	0.7099
2770	0.7006
2779	0.6905
2788	0.68
2797	0.6687
2806	0.6574
2815	0.638
2824	0.6115
2833	0.5777
2842	0.5343
2851	0.2958
2860	0.1956
2869	0.5164
2878	0.4955
2887	0.4533
2896	0.4111
2905	0.3547
2914	0.1423
2923	0.1272
2932	0.3089
2941	0.4905
2950	0.498
2959	0.474
2968	0.5673
2977	0.5831
2986	0.5996
2995	0.6223
3004	0.6433
3013	0.6577
3022	0.6622
3031	0.6685
3040	0.6772
3049	0.6895
3058	0.7024
3067	0.7164
3076	0.7325
3085	0.7457
3094	0.7562
3103	0.763
3112	0.7662
3121	0.7678
3130	0.7702
3139	0.7727
3148	0.7753
3157	0.776
3166	0.7753
3175	0.7729
3184	0.7704
3193	0.7672
3202	0.7661
3211	0.772
3220	0.7828
3229	0.7908
3238	0.7975
3247	0.804
3256	0.8087
3265	0.8107
3274	0.8116
3283	0.8113
3292	0.8106
3301	0.8095
3310	0.8085
3319	0.8068
3328	0.805
3337	0.8028
3346	0.8007
3355	0.7984
3364	0.7961
3373	0.7936
3382	0.7911
3391	0.7879
3400	0.7841
3409	0.778
3418	0.7602
3427	0.7086
3436	0.6646
3445	0.782
3454	0.7909
3463	0.7913
3472	0.7914
3481	0.791
3490	0.7907
3499	0.7903
3508	0.79
3517	0.7894
3526	0.7889
3535	0.7881
3544	0.7874
3553	0.7865
3562	0.785
3571	0.7775
3580	0.7776
3589	0.7851
3598	0.7788
3607	0.7787
3616	0.7797
3625	0.7794
3634	0.7788
3643	0.778
3652	0.7774
3661	0.7768
3670	0.7763
3679	0.7757
3688	0.7752
3697	0.7747
3706	0.7747
3715	0.7747
3724	0.7748
3733	0.7749
3742	0.775
3751	0.7751
3760	0.7746
3769	0.774
3778	0.7735
3787	0.7729
3796	0.7723
