Infrared Spectrum: trans-1,3-Pentadiene
Formula: C 5 H 8
CAS: 2004-70-8
State: gas
Instrument: HP-GC/MS/IRD
Origin: NIST Mass Spectrometry Data Center
1/CM	ABSORBANCE
550	0.000663
562	7.5e-05
574	0.000162
586	0.0004695
598	0.000618
610	0.000648
622	0.000867
634	0.0009435
646	0.0011535
658	0.0010125
670	0.0008745
682	0.000669
694	0.000606
706	0.000567
718	0.0003735
730	0.0005325
742	0.0004815
754	0.000705
766	0.000837
778	0.001071
790	0.0012135
802	0.0015015
814	0.0020025
826	0.002088
838	0.0023205
850	0.002961
862	0.0041085
874	0.006216
886	0.0085515
898	0.01263
910	0.0115155
922	0.010785
934	0.0095895
946	0.009756
958	0.009951
970	0.0125025
982	0.014751
994	0.0147765
1006	0.01191
1018	0.009576
1030	0.006831
1042	0.0043395
1054	0.002574
1066	0.001452
1078	0.000909
1090	0.0006615
1102	0.0005655
1114	0.0006315
1126	0.0005745
1138	0.000645
1150	0.000807
1162	0.0008505
1174	0.0009375
1186	0.0008475
1198	0.0008805
1210	0.0007785
1222	0.0007635
1234	0.0007755
1246	0.0008145
1258	0.001023
1270	0.0013065
1282	0.0015525
1294	0.0014835
1306	0.001206
1318	0.001266
1330	0.0011415
1342	0.001128
1354	0.001257
1366	0.001548
1378	0.001755
1390	0.002247
1402	0.003006
1414	0.003174
1426	0.0032565
1438	0.0029985
1450	0.0028785
1462	0.002529
1474	0.002178
1486	0.001701
1498	0.0014565
1510	0.001347
1522	0.0012675
1534	0.0012615
1546	0.0012405
1558	0.0013575
1570	0.001725
1582	0.0024945
1594	0.0037065
1606	0.0040875
1618	0.003879
1630	0.0033795
1642	0.0041025
1654	0.004416
1666	0.0037515
1678	0.0015915
1690	0.0005925
1702	0.000453
1714	0.0004155
1726	0.0004995
1738	0.00063
1750	0.0008625
1762	0.0008925
1774	0.0010815
1786	0.0022635
1798	0.003111
1810	0.0032535
1822	0.0018285
1834	0.0012135
1846	0.000894
1858	0.0007605
1870	0.000501
1882	0.0003435
1894	0.0003045
1906	0.00024
1918	0.0002205
1930	0.000213
1942	0.0002355
1954	0.0001785
1966	0.0002295
1978	0.000276
1990	0.0002895
2002	0.000189
2014	0.0001605
2026	0.000162
2038	0.0001275
2050	0.0001005
2062	0.0001065
2074	8.25e-05
2086	5.4e-05
2098	5.1e-05
2110	0.000117
2122	9e-05
2134	3.9e-05
2146	3.15e-05
2158	4.05e-05
2170	6e-05
2182	4.65e-05
2194	4.2e-05
2206	1.2e-05
2218	2.7e-05
2230	7.8e-05
2242	7.95e-05
2254	7.95e-05
2266	0.000138
2278	0.0001575
2290	0.000126
2302	0.000102
2314	0.0001365
2326	0.000135
2338	0.000153
2350	0.000231
2362	0.0002475
2374	0.000198
2386	0.0002115
2398	0.000177
2410	0.000195
2422	0.000201
2434	0.0002025
2446	0.0002745
2458	0.000276
2470	0.0002685
2482	0.000213
2494	0.000189
2506	0.000192
2518	0.000234
2530	0.000249
2542	0.0002625
2554	0.0002865
2566	0.0002505
2578	0.000192
2590	0.0002175
2602	0.000159
2614	0.000171
2626	0.0001965
2638	0.0001935
2650	0.0001875
2662	0.0001755
2674	0.000222
2686	0.0002835
2698	0.000363
2710	0.000402
2722	0.0005685
2734	0.0007755
2746	0.0008415
2758	0.0007845
2770	0.0005925
2782	0.0005685
2794	0.0006855
2806	0.0008715
2818	0.001113
2830	0.001449
2842	0.002259
2854	0.0043515
2866	0.0059925
2878	0.0072495
2890	0.0074115
2902	0.007848
2914	0.010611
2926	0.012399
2938	0.012633
2950	0.0101835
2962	0.009633
2974	0.010179
2986	0.011307
2998	0.013194
3010	0.013908
3022	0.014004
3034	0.011715
3046	0.0096825
3058	0.0082185
3070	0.007395
3082	0.007947
3094	0.006672
3106	0.00612
3118	0.0030915
3130	0.0019485
3142	0.001341
3154	0.0008805
3166	0.000687
3178	0.0006075
3190	0.000528
3202	0.000444
3214	0.0003255
3226	0.000273
3238	0.0002955
3250	0.000237
3262	0.0002415
3274	0.000174
3286	0.0002325
3298	0.000204
3310	0.000198
3322	0.0002265
3334	0.000204
3346	0.000186
3358	0.0001455
3370	0.0002145
3382	0.0001875
3394	0.0001095
3406	0.0001425
3418	0.0001605
3430	0.000129
3442	0.0001545
3454	0.0001305
3466	0.000105
3478	0.0001485
3490	0.000111
3502	0.0001005
3514	4.5e-05
3526	5.7e-05
3538	9.9e-05
3550	4.8e-05
3562	1.8e-05
3574	0.0001035
3586	1.8e-05
3598	4.5e-05
3610	9.15e-05
3622	0.00012
3634	7.5e-05
3646	4.35e-05
3658	5.7e-05
3670	4.65e-05
3682	6.6e-05
3694	6.6e-05
3706	8.4e-05
3718	9.6e-05
3730	9.45e-05
3742	0.000117
3754	9.9e-05
3766	8.4e-05
3778	0.000186
3790	0.000198
3802	6.75e-05
3814	6.6e-05
3826	7.05e-05
3838	0.0001635
