Infrared Spectrum: 4-Methyl-4-penten-2-ol
Formula: C 6 H 12 O
CAS: 2004-67-3
State: gas
Instrument: HP-GC/MS/IRD
Origin: NIST Mass Spectrometry Data Center
1/CM	ABSORBANCE
550	0.0008788
562	0.000247
574	0.0001963
586	8.71e-05
598	0.0001092
610	0.0003016
622	0.0003809
634	0.0002314
646	0.0002834
658	0.0001638
670	0.0002652
682	0.0002158
694	0.0002236
706	0.000221
718	0.00026
730	0.000234
742	0.000234
754	0.0002639
766	0.000286
778	0.0003887
790	0.0004264
802	0.0005369
814	0.0007943
826	0.0013169
838	0.0019955
850	0.0022334
862	0.0021021
874	0.0031382
886	0.0057044
898	0.006929
910	0.0050375
922	0.0037986
934	0.0038454
946	0.0030498
958	0.0017017
970	0.001443
982	0.0014495
994	0.001625
1006	0.0018499
1018	0.002457
1030	0.0031629
1042	0.0039754
1054	0.0046124
1066	0.0048763
1078	0.0051311
1090	0.0058526
1102	0.0061152
1114	0.0056602
1126	0.0045045
1138	0.0030966
1150	0.0019864
1162	0.0015353
1174	0.0015418
1186	0.0018161
1198	0.0023777
1210	0.0026416
1222	0.0027937
1234	0.0031837
1246	0.0037323
1258	0.0040261
1270	0.0036998
1282	0.0028873
1294	0.0022555
1306	0.0019877
1318	0.0018902
1330	0.0020865
1342	0.0026975
1354	0.0036374
1366	0.004823
1378	0.0061269
1390	0.0059462
1402	0.0040365
1414	0.0028912
1426	0.0029016
1438	0.0034242
1450	0.0037882
1462	0.0032825
1474	0.0021697
1486	0.0011882
1498	0.000754
1510	0.0005213
1522	0.0004576
1534	0.0004173
1546	0.000403
1558	0.0004043
1570	0.0004342
1582	0.0004628
1594	0.0005304
1606	0.0007189
1618	0.0010803
1630	0.0019006
1642	0.0026455
1654	0.0023985
1666	0.0013728
1678	0.0006032
1690	0.000325
1702	0.0002483
1714	0.0002275
1726	0.0001807
1738	0.0001911
1750	0.0001872
1762	0.0002548
1774	0.0003731
1786	0.0005109
1798	0.0005486
1810	0.0004121
1822	0.0002392
1834	0.0001521
1846	9.49e-05
1858	7.8e-05
1870	7.8e-05
1882	5.72e-05
1894	4.94e-05
1906	5.33e-05
1918	4.68e-05
1930	3.51e-05
1942	6.63e-05
1954	3.77e-05
1966	6.37e-05
1978	4.94e-05
1990	3.64e-05
2002	1.3e-05
2014	7.8e-06
2026	3.64e-05
2038	2.86e-05
2050	2.6e-05
2062	3.25e-05
2074	2.99e-05
2086	2.86e-05
2098	2.47e-05
2110	4.29e-05
2122	2.6e-05
2134	2.73e-05
2146	1.95e-05
2158	5.2e-06
2170	1.95e-05
2182	2.21e-05
2194	3.38e-05
2206	4.29e-05
2218	5.85e-05
2230	4.42e-05
2242	3.51e-05
2254	2.73e-05
2266	2.08e-05
2278	3.25e-05
2290	7.8e-06
2302	1.17e-05
2314	3.9e-05
2326	5.07e-05
2338	5.2e-05
2350	5.59e-05
2362	7.54e-05
2374	5.33e-05
2386	5.46e-05
2398	7.8e-05
2410	6.89e-05
2422	8.32e-05
2434	0.0001105
2446	7.28e-05
2458	8.58e-05
2470	0.0001001
2482	7.28e-05
2494	0.0001001
2506	7.67e-05
2518	8.19e-05
2530	8.84e-05
2542	9.23e-05
2554	0.0001001
2566	0.000104
2578	0.0001287
2590	0.0001508
2602	0.0001846
2614	0.0002015
2626	0.0002275
2638	0.0002691
2650	0.0002886
2662	0.0002795
2674	0.0003003
2686	0.000338
2698	0.0003367
2710	0.0003536
2722	0.0004407
2734	0.0004823
2746	0.000546
2758	0.0005252
2770	0.000546
2782	0.0006409
2794	0.0007553
2806	0.000936
2818	0.0012493
2830	0.0016614
2842	0.0022438
2854	0.0030732
2866	0.0042588
2878	0.0058513
2890	0.007358
2902	0.0086502
2914	0.0099372
2926	0.0111904
2938	0.0110825
2950	0.0095862
2962	0.0099775
2974	0.0128206
2986	0.0114686
2998	0.0062153
3010	0.002756
3022	0.0016055
3034	0.0011895
3046	0.0011661
3058	0.0016744
3070	0.0031707
3082	0.0039949
3094	0.0028015
3106	0.0010205
3118	0.000559
3130	0.0003835
3142	0.0003263
3154	0.0002678
3166	0.0002314
3178	0.0001794
3190	0.0001781
3202	0.0001807
3214	0.0001534
3226	0.0001001
3238	8.19e-05
3250	5.07e-05
3262	9.75e-05
3274	7.67e-05
3286	2.47e-05
3298	0.0001053
3310	5.33e-05
3322	5.85e-05
3334	5.72e-05
3346	5.07e-05
3358	3.25e-05
3370	8.06e-05
3382	5.85e-05
3394	8.32e-05
3406	9.23e-05
3418	8.32e-05
3430	0.000117
3442	0.0001027
3454	0.0001092
3466	8.45e-05
3478	0
3490	4.55e-05
3502	9.88e-05
3514	9.49e-05
3526	8.19e-05
3538	4.16e-05
3550	7.15e-05
3562	7.54e-05
3574	9.23e-05
3586	0.0003094
3598	0.0008138
3610	0.0011661
3622	0.0013039
3634	0.0012948
3646	0.0015977
3658	0.0014261
3670	0.0007917
3682	0.0002457
3694	9.75e-05
3706	7.15e-05
3718	0.0001066
3730	3.64e-05
3742	2.6e-06
3754	7.41e-05
3766	1.56e-05
3778	6.89e-05
3790	5.59e-05
3802	1.82e-05
3814	0
3826	2.6e-06
3838	2.21e-05
