Infrared Spectrum: trans-3-Nonene
Formula: C 9 H 18
CAS: 20063-92-7
State: gas
Instrument: HP-GC/MS/IRD
Origin: NIST Mass Spectrometry Data Center
1/CM	ABSORBANCE
550	0.0002635
562	0.000248
574	0.0001178
586	4.96e-05
598	6.2e-05
610	8.37e-05
622	4.96e-05
634	3.72e-05
646	4.03e-05
658	0.000186
670	8.37e-05
682	8.37e-05
694	0.0001364
706	0.0002387
718	0.000372
730	0.0004464
742	0.0004588
754	0.0003534
766	0.0003131
778	0.0003038
790	0.0002914
802	0.0003162
814	0.0002728
826	0.0001953
838	0.0002635
850	0.0002635
862	0.0003689
874	0.0004278
886	0.000589
898	0.0007936
910	0.0008742
922	0.0008122
934	0.0011315
946	0.002263
958	0.0042687
970	0.0046469
982	0.0027218
994	0.0014353
1006	0.0008897
1018	0.0007192
1030	0.0006107
1042	0.0006758
1054	0.0007502
1066	0.0007409
1078	0.0007626
1090	0.0006727
1102	0.0005673
1114	0.0004557
1126	0.0003007
1138	0.0002666
1150	0.000217
1162	0.0002356
1174	0.0002604
1186	0.00031
1198	0.0002945
1210	0.0002542
1222	0.0003162
1234	0.0003348
1246	0.0003534
1258	0.0004526
1270	0.0005828
1282	0.0009176
1294	0.001178
1306	0.0011656
1318	0.0011191
1330	0.0012245
1342	0.0013423
1354	0.0011842
1366	0.0010478
1378	0.0012741
1390	0.0012555
1402	0.0009176
1414	0.00093
1426	0.0012741
1438	0.0021731
1450	0.0030628
1462	0.0034782
1474	0.0025916
1486	0.0013578
1498	0.0007347
1510	0.0004898
1522	0.0003317
1534	0.0002604
1546	0.0002263
1558	0.0001798
1570	0.0001705
1582	0.0001488
1594	0.0001395
1606	0.000124
1618	0.0001333
1630	0.0001209
1642	0.0001488
1654	0.0001209
1666	0.000155
1678	0.0001674
1690	0.0001643
1702	0.0001829
1714	0.0001798
1726	0.0001767
1738	0.0001457
1750	0.000155
1762	0.000186
1774	0.0001736
1786	0.0001705
1798	0.0001612
1810	0.0001054
1822	0.0001178
1834	8.06e-05
1846	6.82e-05
1858	4.96e-05
1870	5.27e-05
1882	2.17e-05
1894	3.72e-05
1906	3.41e-05
1918	1.55e-05
1930	2.17e-05
1942	4.65e-05
1954	2.79e-05
1966	1.86e-05
1978	2.17e-05
1990	2.79e-05
2002	6.2e-06
2014	3.1e-05
2026	5.89e-05
2038	6.2e-05
2050	5.27e-05
2062	1.24e-05
2074	1.86e-05
2086	2.17e-05
2098	1.86e-05
2110	2.79e-05
2122	2.17e-05
2134	1.55e-05
2146	2.17e-05
2158	1.55e-05
2170	1.86e-05
2182	2.48e-05
2194	3.1e-05
2206	4.03e-05
2218	2.17e-05
2230	2.79e-05
2242	0
2254	4.65e-05
2266	4.96e-05
2278	4.96e-05
2290	2.17e-05
2302	1.55e-05
2314	4.03e-05
2326	4.34e-05
2338	4.34e-05
2350	6.51e-05
2362	5.58e-05
2374	5.27e-05
2386	5.27e-05
2398	5.58e-05
2410	5.27e-05
2422	4.96e-05
2434	4.65e-05
2446	2.48e-05
2458	3.1e-05
2470	4.03e-05
2482	3.1e-05
2494	9.3e-06
2506	3.1e-05
2518	6.2e-05
2530	9.3e-05
2542	9.92e-05
2554	0.0001054
2566	0.0001116
2578	0.0001333
2590	0.0001333
2602	0.0001302
2614	0.0001519
2626	0.0001736
2638	0.0001984
2650	0.0002201
2662	0.0002573
2674	0.0002945
2686	0.0003038
2698	0.0002914
2710	0.0003379
2722	0.0003658
2734	0.0004836
2746	0.0005456
2758	0.0005208
2770	0.0006727
2782	0.000806
2794	0.0010323
2806	0.0013082
2818	0.0017887
2830	0.0027776
2842	0.0051088
2854	0.0094116
2866	0.0125643
2878	0.0130014
2890	0.0128774
2902	0.0138911
2914	0.0193285
2926	0.0280984
2938	0.0304451
2950	0.0238359
2962	0.0237739
2974	0.0240405
2986	0.012431
2998	0.0070618
3010	0.004991
3022	0.00403
3034	0.0030504
3046	0.0020336
3058	0.0013795
3070	0.0010509
3082	0.0008804
3094	0.0007874
3106	0.000651
3118	0.0005673
3130	0.0004681
3142	0.0004464
3154	0.0004154
3166	0.0003906
3178	0.0003255
3190	0.0002852
3202	0.0002325
3214	0.000155
3226	9.61e-05
3238	0.0001023
3250	9.92e-05
3262	4.34e-05
3274	8.68e-05
3286	5.27e-05
3298	3.41e-05
3310	6.2e-06
3322	6.2e-06
3334	3.1e-05
3346	4.34e-05
3358	8.06e-05
3370	8.68e-05
3382	5.89e-05
3394	3.72e-05
3406	5.89e-05
3418	5.89e-05
3430	6.2e-05
3442	5.89e-05
3454	8.99e-05
3466	5.58e-05
3478	5.27e-05
3490	2.48e-05
3502	2.48e-05
3514	9.3e-06
3526	1.86e-05
3538	4.34e-05
3550	5.58e-05
3562	3.1e-05
3574	5.58e-05
3586	8.37e-05
3598	8.37e-05
3610	7.13e-05
3622	7.13e-05
3634	5.89e-05
3646	0.0001054
3658	8.68e-05
3670	8.06e-05
3682	9.3e-05
3694	0.0001085
3706	6.2e-05
3718	0.0001023
3730	0.0001395
3742	0.0001395
3754	0.0001364
3766	0.0001054
3778	0.0001178
3790	0.0001271
3802	0.0001178
3814	0.0001395
3826	0.0001519
3838	0.0001364
