Infrared Spectrum: 2-Decene, (E)
Formula: C10 H20
CAS: 20063-97-2
State: LIQUID (NEAT)
Class: COBLENTZ III
Instrument: BECKMAN IR-12 (GRATING)
Instrument parameters: GRATING
Sampling: TRANSMISSION
Path length: 0.01056
Resolution: 2
Origin: COLGATE-PALMOLIVE COMPANY (KELLENBACH)
1/CM	TRANSMITTANCE
401	0.6022
410	0.6386
419	0.6803
428	0.7189
437	0.7501
446	0.7693
455	0.7936
464	0.8071
473	0.8168
482	0.8231
491	0.8295
500	0.8447
509	0.8512
518	0.851
527	0.8571
536	0.8617
545	0.8665
554	0.8715
563	0.8775
572	0.8853
581	0.8891
590	0.8856
599	0.8872
608	0.8894
617	0.8822
626	0.8794
635	0.8801
644	0.8837
653	0.8834
662	0.8791
671	0.868
680	0.8535
689	0.827
698	0.7726
707	0.6538
716	0.3587
725	0.2414
734	0.5034
743	0.5879
752	0.6247
761	0.6395
770	0.6362
779	0.6419
788	0.7111
797	0.7486
806	0.7705
815	0.7785
824	0.7486
833	0.7331
842	0.7403
851	0.7295
860	0.7193
869	0.6878
878	0.6572
887	0.5784
896	0.5117
905	0.5029
914	0.3724
923	0.315
932	0.3069
941	0.275
950	0.0675
959	0.0075
968	0.0072
977	0.1597
986	0.304
995	0.3743
1004	0.4047
1013	0.4393
1022	0.4539
1031	0.4607
1040	0.4712
1049	0.4574
1058	0.4179
1067	0.3949
1076	0.3985
1085	0.5344
1094	0.6624
1103	0.6308
1112	0.5902
1121	0.6728
1130	0.702
1139	0.7131
1148	0.7417
1157	0.7495
1166	0.7225
1175	0.6867
1184	0.7071
1193	0.6985
1202	0.6657
1211	0.6595
1220	0.6753
1229	0.6512
1238	0.6117
1247	0.5636
1256	0.571
1265	0.573
1274	0.5031
1283	0.437
1292	0.3993
1301	0.339
1310	0.4205
1319	0.5036
1328	0.4905
1337	0.3589
1346	0.3423
1355	0.3483
1364	0.2093
1373	0.0225
1382	0.3011
1391	0.4077
1400	0.4208
1409	0.3888
1418	0.2385
1427	0.0791
1436	0.013
1445	0.0097
1454	0.0093
1463	0.0083
1472	0.1213
1481	0.3593
1490	0.4422
1499	0.5217
1508	0.5868
1517	0.6102
1526	0.6514
1535	0.6775
1544	0.7066
1553	0.7203
1562	0.7349
1571	0.7493
1580	0.7605
1589	0.7687
1598	0.774
1607	0.7776
1616	0.783
1625	0.7912
1634	0.788
1643	0.784
1652	0.7801
1661	0.7542
1670	0.7014
1679	0.749
1688	0.754
1697	0.7352
1706	0.7125
1715	0.6912
1724	0.7006
1733	0.7186
1742	0.7476
1751	0.7758
1760	0.7937
1769	0.7929
1778	0.7826
1787	0.7806
1796	0.7776
1805	0.7818
1814	0.7957
1823	0.8076
1832	0.8167
1841	0.819
1850	0.8186
1859	0.8194
1868	0.8214
1877	0.828
1886	0.8336
1895	0.8348
1904	0.8285
1913	0.8271
1922	0.8291
1931	0.8344
1940	0.8315
1949	0.8276
1958	0.8243
1967	0.8267
1976	0.8211
1985	0.8076
1994	0.7703
2003	0.7782
2012	0.7985
2021	0.803
2030	0.8076
2039	0.813
2048	0.8184
2057	0.8227
2066	0.8255
2075	0.8246
2084	0.8269
2093	0.8326
2102	0.8323
2111	0.8299
2120	0.829
2129	0.828
2138	0.8227
2147	0.8155
2156	0.8131
2165	0.813
2174	0.8128
2183	0.8121
2192	0.8118
2201	0.8126
2210	0.8138
2219	0.814
2228	0.8132
2237	0.8114
2246	0.8088
2255	0.8057
2264	0.8024
2273	0.8022
2282	0.8001
2291	0.7989
2300	0.796
2309	0.7909
2318	0.7874
2327	0.7863
2336	0.7879
2345	0.7845
2354	0.7838
2363	0.7806
2372	0.7753
2381	0.7734
2390	0.7785
2399	0.7833
2408	0.7872
2417	0.7901
2426	0.7913
2435	0.79
2444	0.7876
2453	0.7892
2462	0.7865
2471	0.7893
2480	0.7945
2489	0.7932
2498	0.7845
2507	0.7743
2516	0.7699
2525	0.7579
2534	0.7567
2543	0.7548
2552	0.7463
2561	0.7277
2570	0.7132
2579	0.6998
2588	0.6837
2597	0.6675
2606	0.6553
2615	0.6485
2624	0.6289
2633	0.6083
2642	0.5853
2651	0.5596
2660	0.5436
2669	0.5503
2678	0.5684
2687	0.586
2696	0.5804
2705	0.539
2714	0.3883
2723	0.3882
2732	0.5049
2741	0.5165
2750	0.5139
2759	0.4619
2768	0.3907
2777	0.3194
2786	0.2481
2795	0.1769
2804	0.1084
2813	0.0523
2822	0.0136
2831	0.0068
2840	0.0049
2849	0.004
2858	0.0031
2867	0.003
2876	0.0028
2885	0.0027
2894	0.0025
2903	0.0024
2912	0.0022
2921	0.0021
2930	0.0019
2939	0.0018
2948	0.0017
2957	0.0018
2966	0.0058
2975	0.0121
2984	0.0145
2993	0.0276
3002	0.0249
3011	0.0177
3020	0.0918
3029	0.2157
3038	0.341
3047	0.4449
3056	0.495
3065	0.5333
3074	0.5605
3083	0.5878
3092	0.6062
3101	0.6218
3110	0.6361
3119	0.6489
3128	0.6607
3137	0.6739
3146	0.6902
3155	0.7049
3164	0.715
3173	0.7246
3182	0.7344
3191	0.7461
3200	0.7591
3209	0.777
3218	0.7867
3227	0.7946
3236	0.8017
3245	0.8087
3254	0.8149
3263	0.8198
3272	0.8233
3281	0.8254
3290	0.827
3299	0.8282
3308	0.8246
3317	0.824
3326	0.8274
3335	0.8305
3344	0.8295
3353	0.8259
3362	0.8233
3371	0.8236
3380	0.8238
3389	0.8256
3398	0.8273
3407	0.8273
3416	0.8266
3425	0.8259
3434	0.8253
3443	0.8246
3452	0.8251
3461	0.8297
3470	0.8328
3479	0.836
3488	0.8392
3497	0.8417
3506	0.8438
3515	0.8454
3524	0.8461
3533	0.8452
3542	0.8437
3551	0.8402
3560	0.8389
3569	0.8392
3578	0.8396
3587	0.8323
3596	0.8237
3605	0.8159
3614	0.8125
3623	0.8118
3632	0.8114
3641	0.811
3650	0.812
3659	0.8126
3668	0.8114
3677	0.8106
3686	0.8111
3695	0.8109
3704	0.8105
3713	0.81
3722	0.8085
3731	0.8069
3740	0.8056
3749	0.8056
3758	0.8062
3767	0.802
3776	0.7997
3785	0.7974
3794	0.7962
3803	0.7951
3812	0.7944
3821	0.7941
3830	0.7941
3839	0.7945
3848	0.7931
3857	0.7901
3866	0.7862
3875	0.7812
3884	0.7804
3893	0.7811
3902	0.7818
3911	0.7819
3920	0.7812
3929	0.7798
3938	0.7776
3947	0.7743
3956	0.7713
3965	0.7687
3974	0.7661
3983	0.7625
3992	0.7621
