Infrared Spectrum: Diethyl-p-aminobenzylphosphonate
Formula: C 11 H 18 N O 3 P
CAS: 20074-79-7
State: gas
Origin: EPA-IR VAPOR PHASE LIBRARY
1/CM	ABSORBANCE
501.5	0.018185
513.074	0.010305
524.648	0.005885
536.222	0.005635
547.796	0.009645
559.37	0.021745
570.944	0.012205
582.518	0.005765
594.092	0.004185
605.666	0.004015
617.24	0.004555
628.814	0.006285
640.388	0.009725
651.962	0.011515
663.536	0.010465
675.11	0.008775
686.684	0.008195
698.258	0.007745
709.832	0.007075
721.406	0.007915
732.98	0.008385
744.554	0.009215
756.128	0.010305
767.702	0.011255
779.276	0.015585
790.85	0.017435
802.423	0.016875
813.997	0.015365
825.571	0.016485
837.145	0.018755
848.719	0.020665
860.293	0.011165
871.867	0.006665
883.441	0.005825
895.015	0.006045
906.589	0.007795
918.163	0.012175
929.737	0.023125
941.311	0.043355
952.885	0.050215
964.459	0.035455
976.033	0.019855
987.607	0.013755
999.181	0.014605
1010.76	0.023615
1022.33	0.047655
1033.9	0.081885
1045.48	0.079265
1057.05	0.070255
1068.63	0.054755
1080.2	0.032395
1091.77	0.027225
1103.35	0.023865
1114.92	0.015125
1126.49	0.012445
1138.07	0.010625
1149.64	0.009425
1161.22	0.008995
1172.79	0.009295
1184.36	0.012125
1195.94	0.007055
1207.51	0.005235
1219.09	0.005905
1230.66	0.009155
1242.23	0.012935
1253.81	0.018985
1265.38	0.042675
1276.96	0.044845
1288.53	0.025415
1300.1	0.013145
1311.68	0.007625
1323.25	0.004895
1334.83	0.003525
1346.4	0.003005
1357.97	0.003295
1369.55	0.004665
1381.12	0.005625
1392.7	0.008995
1404.27	0.007775
1415.84	0.005445
1427.42	0.004255
1438.99	0.004115
1450.57	0.003745
1462.14	0.003485
1473.71	0.003685
1485.29	0.004575
1496.86	0.007055
1508.44	0.022485
1520.01	0.033455
1531.58	0.008305
1543.16	0.003835
1554.73	0.002695
1566.31	0.002585
1577.88	0.003035
1589.45	0.003795
1601.03	0.005605
1612.6	0.010885
1624.18	0.023045
1635.75	0.015375
1647.32	0.005245
1658.9	0.003085
1670.47	0.002515
1682.05	0.002255
1693.62	0.002115
1705.19	0.002065
1716.77	0.001905
1728.34	0.001785
1739.92	0.001775
1751.49	0.001845
1763.06	0.001745
1774.64	0.001655
1786.21	0.001605
1797.79	0.001525
1809.36	0.001508
1820.93	0.001535
1832.51	0.001555
1844.08	0.001645
1855.66	0.001865
1867.23	0.002005
1878.8	0.001795
1890.38	0.0014308
1901.95	0.0012474
1913.53	0.0012029
1925.1	0.0011395
1936.67	0.0010691
1948.25	0.0009829
1959.82	0.0009204
1971.4	0.0008938
1982.97	0.0009066
1994.54	0.0008745
2006.12	0.0008399
2017.69	0.0008365
2029.27	0.0008683
2040.84	0.0008269
2052.41	0.0008111
2063.99	0.0009066
2075.56	0.0008679
2087.14	0.0008169
2098.71	0.0008196
2110.28	0.0007804
2121.86	0.0007713
2133.43	0.000718
2145.01	0.0006533
2156.58	0.0006642
2168.15	0.0006531
2179.73	0.0006609
2191.3	0.000652
2202.88	0.00060053
2214.45	0.00060248
2226.02	0.00060237
2237.6	0.0006325
2249.17	0.0006535
2260.74	0.0006653
2272.32	0.00068
2283.89	0.0006649
2295.47	0.0006576
2307.04	0.0007062
2318.61	0.0007562
2330.19	0.0007501
2341.76	0.000756
2353.34	0.0007421
2364.91	0.0006965
2376.48	0.000619
2388.06	0.00060509
2399.63	0.00058587
2411.21	0.0005938
2422.78	0.00062161
2434.35	0.00061793
2445.93	0.0006706
2457.5	0.0006813
2469.08	0.0006467
2480.65	0.00056738
2492.22	0.00054177
2503.8	0.00054697
2515.37	0.00061665
2526.95	0.000676
2538.52	0.0007209
2550.09	0.0006574
2561.67	0.00062054
2573.24	0.00058763
2584.82	0.00061676
2596.39	0.0006979
2607.96	0.0006985
2619.54	0.0006484
2631.11	0.0006405
2642.69	0.0006474
2654.26	0.000633
2665.83	0.00060298
2677.41	0.00060769
2688.98	0.00058368
2700.56	0.0006309
2712.13	0.0006867
2723.7	0.0008107
2735.28	0.0008391
2746.85	0.0008719
2758.43	0.0009382
2770	0.0009821
2781.57	0.0010365
2793.15	0.001107
2804.72	0.0011242
2816.3	0.0011306
2827.87	0.0012368
2839.44	0.0014406
2851.02	0.001885
2862.59	0.002615
2874.17	0.004075
2885.74	0.005335
2897.31	0.006695
2908.89	0.010185
2920.46	0.011685
2932.04	0.012275
2943.61	0.014095
2955.18	0.011145
2966.76	0.012275
2978.33	0.017435
2989.91	0.019105
3001.48	0.014215
3013.05	0.011445
3024.63	0.009905
3036.2	0.009315
3047.78	0.005475
3059.35	0.004375
3070.92	0.003125
3082.5	0.002145
3094.07	0.001845
3105.65	0.001655
3117.22	0.0012645
3128.79	0.0011466
3140.37	0.0009556
3151.94	0.0008009
3163.52	0.0007029
3175.09	0.0006488
3186.66	0.0006362
3198.24	0.000678
3209.81	0.0007083
3221.39	0.0007579
3232.96	0.0007541
3244.53	0.00060521
3256.11	0.0004704
3267.68	0.0004712
3279.26	0.000337
3290.83	0.000302
3302.4	0.000255
3313.98	0.000257
3325.55	0.000256
3337.13	0.000222
3348.7	0.000239
3360.27	0.000353
3371.85	0.000417
3383.42	0.0006767
3395	0.001565
3406.57	0.002815
3418.14	0.002005
3429.72	0.0010092
3441.29	0.00058836
3452.86	0.00060892
3464.44	0.0006539
3476.01	0.0011782
3487.59	0.001695
3499.16	0.001565
3510.73	0.0009182
3522.31	0.0005166
3533.88	0.000306
3545.46	0.000269
3557.03	0.000195
3568.6	0.000125
3580.18	7.9e-05
3591.75	0.000118
3603.33	5.8e-05
3614.9	0.000158
3626.47	9.1e-05
3638.05	0.000158
3649.62	0.000131
3661.2	0.000166
3672.77	0.000169
3684.34	0.000145
3695.92	0.000178
3707.49	0.000172
3719.07	0.000178
3730.64	0.000231
3742.21	0.000146
3753.79	0.000204
3765.36	0.000244
3776.94	0.000145
3788.51	8.2e-05
3800.08	0.000127
3811.66	0.000159
3823.23	8.8e-05
3834.81	0.00018
3846.38	0.000302
3857.95	0.000357
3869.53	0.000298
3881.1	0.000185
3892.68	0.000208
3904.25	0.000164
3915.82	0.000174
3927.4	0.000258
3938.97	0.000237
3950.55	0.000326
3962.12	0.000256
3973.69	0.000191
3985.27	0.000324
3996.84	0.000312
