Infrared Spectrum: 1,3,2-Benzodioxaphosphole, 2,2,2-trichloro-2,2-dihydro-
Formula: C6 H4 Cl3 O2 P
CAS: 2007-97-8
State: SOLUTION (10% CCl4 FOR 3800-1330, 10% CS2 FOR 1330-400 CM^-^1) VS SOLVENT
Class: COBLENTZ III
Instrument: DOW KBr FOREPRISM-GRATING
Instrument parameters: BLAZED AT 3.5, 12.0, 20.0 MICRON AND CHANGED AT 5.0, 7.5, 14.9 MICRON
Sampling: TRANSMISSION
Path length: 0.010 CM, 0.011 CM
Resolution: 2
Origin: DOW CHEMICAL COMPANY
1/CM	TRANSMITTANCE
3800	0.8861
3791	0.8851
3782	0.884
3773	0.8828
3764	0.8815
3755	0.8804
3746	0.8794
3737	0.8799
3728	0.8805
3719	0.8817
3710	0.8828
3701	0.8841
3692	0.8837
3683	0.883
3674	0.8824
3665	0.8821
3656	0.8818
3647	0.8815
3638	0.8812
3629	0.8804
3620	0.8794
3611	0.8793
3602	0.8802
3593	0.8842
3584	0.8698
3575	0.8765
3566	0.8807
3557	0.8818
3548	0.8832
3539	0.8845
3530	0.8841
3521	0.8818
3512	0.8815
3503	0.8817
3494	0.8823
3485	0.8825
3476	0.8825
3467	0.8824
3458	0.8821
3449	0.8821
3440	0.8799
3431	0.8782
3422	0.8777
3413	0.8775
3404	0.8774
3395	0.8773
3386	0.8771
3377	0.877
3368	0.877
3359	0.8771
3350	0.8771
3341	0.8771
3332	0.8771
3323	0.8771
3314	0.8771
3305	0.8775
3296	0.8778
3287	0.8782
3278	0.8787
3269	0.8789
3260	0.8788
3251	0.8764
3242	0.8757
3233	0.8767
3224	0.8789
3215	0.8775
3206	0.8761
3197	0.8756
3188	0.8766
3179	0.877
3170	0.8768
3161	0.8764
3152	0.876
3143	0.8748
3134	0.8733
3125	0.871
3116	0.8674
3107	0.8592
3098	0.8531
3089	0.8516
3080	0.8446
3071	0.7986
3062	0.7869
3053	0.803
3044	0.8266
3035	0.8294
3026	0.8408
3017	0.8499
3008	0.8541
2999	0.8557
2990	0.8563
2981	0.8561
2972	0.8557
2963	0.8525
2954	0.8475
2945	0.8411
2936	0.8375
2927	0.8358
2918	0.8356
2909	0.8386
2900	0.8442
2891	0.8495
2882	0.8531
2873	0.8543
2864	0.8531
2855	0.8507
2846	0.8486
2837	0.848
2828	0.8483
2819	0.8504
2810	0.8525
2801	0.8548
2792	0.8571
2783	0.8578
2774	0.8585
2765	0.858
2756	0.8575
2747	0.8566
2738	0.8556
2729	0.8545
2720	0.853
2711	0.8534
2702	0.8555
2693	0.8577
2684	0.859
2675	0.8592
2666	0.8586
2657	0.8588
2648	0.8615
2639	0.8631
2630	0.8633
2621	0.8636
2612	0.8639
2603	0.8618
2594	0.8588
2585	0.8555
2576	0.8473
2567	0.851
2558	0.8568
2549	0.8584
2540	0.8589
2531	0.8616
2522	0.8617
2513	0.861
2504	0.8607
2495	0.8599
2486	0.854
2477	0.8485
2468	0.8483
2459	0.8571
2450	0.8594
2441	0.8608
2432	0.8632
2423	0.8649
2414	0.866
2405	0.867
2396	0.8682
2387	0.8695
2378	0.8708
2369	0.8727
2360	0.874
2351	0.8745
2342	0.8668
2333	0.8667
2324	0.8734
2315	0.8773
2306	0.8714
2297	0.8735
2288	0.8664
2279	0.8596
2270	0.8592
2261	0.8636
2252	0.8634
2243	0.8627
2234	0.8641
2225	0.8661
2216	0.8678
2207	0.868
2198	0.8683
2189	0.8686
2180	0.8693
2171	0.8697
2162	0.8704
2153	0.865
2144	0.8678
2135	0.8687
2126	0.8677
2117	0.8646
2108	0.8618
2099	0.8615
2090	0.8632
2081	0.8656
2072	0.8657
2063	0.8591
2054	0.8312
2045	0.8498
2036	0.8589
2027	0.8613
2018	0.8653
2009	0.868
2000	0.8658
1991	0.867
1982	0.8632
1973	0.8725
1964	0.8747
1955	0.8751
1946	0.8731
1937	0.8625
1928	0.8406
1919	0.8731
1910	0.8724
1901	0.8739
1892	0.8565
1883	0.8347
1874	0.8653
1865	0.8723
1856	0.8742
1847	0.8711
1838	0.8632
1829	0.8771
1820	0.8796
1811	0.8721
1802	0.8765
1793	0.8788
1784	0.8803
1775	0.8775
1766	0.827
1757	0.8381
1748	0.8683
1739	0.8753
1730	0.8795
1721	0.8815
1712	0.8813
1703	0.8753
1694	0.8678
1685	0.8739
1676	0.8756
1667	0.8709
1658	0.8616
1649	0.8639
1640	0.857
1631	0.5406
1622	0.7887
1613	0.8257
1604	0.7732
1595	0.8281
1586	0.7867
1577	0.8416
1568	0.8601
1559	0.8656
1550	0.866
1541	0.8617
1532	0.8383
1523	0.7976
1514	0.78
1505	0.7157
1496	0.4256
1487	0.0001
1478	0.1471
1469	0.6025
1460	0.7036
1451	0.7528
1442	0.7749
1433	0.8254
1424	0.8253
1415	0.8154
1406	0.8051
1397	0.845
1388	0.8555
1379	0.8567
1370	0.8627
1361	0.8224
1352	0.5547
1343	0.5259
1334	0.3787
1325	0.6653
1316	0.7734
1307	0.8189
1298	0.8216
1289	0.8172
1280	0.7197
1271	0.6978
1262	0.636
1253	0.2231
1244	0
1235	0.2865
1226	0.6055
1217	0.7398
1208	0.7928
1199	0.8194
1190	0.8134
1181	0.542
1172	0.6231
1163	0.8033
1154	0.821
1145	0.7971
1136	0.856
1127	0.856
1118	0.8402
1109	0.8382
1100	0.5533
1091	0.7651
1082	0.8674
1073	0.8812
1064	0.8864
1055	0.8508
1046	0.8871
1037	0.8828
1028	0.8767
1019	0.8482
1010	0.7987
1001	0.5105
992	0.8549
983	0.8743
974	0.8802
965	0.8667
956	0.8502
947	0.8452
938	0.8375
929	0.813
920	0.6525
911	0.5595
902	0.6582
893	0.5894
884	0.1984
875	0.0987
866	0
857	0.0103
848	0
839	0.2383
830	0.5505
821	0.6222
812	0.6214
803	0.5774
794	0.4145
785	0.408
776	0.5586
767	0.5688
758	0.5324
749	0.5106
740	0
731	0.3716
722	0.341
713	0.1484
704	0.2376
695	0.6339
686	0.7614
677	0.8248
668	0.8689
659	0.8085
650	0.8201
641	0.0321
632	0.478
623	0.7156
614	0.7292
605	0.6991
596	0.4496
587	0.034
578	0.0001
569	0.3434
560	0.6408
551	0.7328
542	0.7485
533	0.2077
524	0.2856
515	0.7786
506	0.8503
497	0.8753
488	0.8856
479	0.8714
470	0.8609
461	0.7522
452	0.0856
443	0.459
434	0.7561
425	0.7443
416	0.7271
407	0.8083
398	0.835
389	0.8418
380	0.8454
