Infrared Spectrum: 2,6-Dichlorobenzamide
Formula: C 7 H 5 Cl 2 N O
CAS: 2008-58-4
State: gas
Origin: EPA-IR VAPOR PHASE LIBRARY
1/CM	ABSORBANCE
551.7	0.00145108
563.274	0.00115108
574.848	0.00085338
586.421	0.00083168
597.995	0.00115108
609.569	0.00217108
621.143	0.00633108
632.717	0.00606108
644.291	0.00434108
655.864	0.00422108
667.438	0.00404108
679.012	0.00356108
690.586	0.00328108
702.16	0.00322108
713.734	0.00476108
725.307	0.0108211
736.881	0.0169011
748.455	0.00935108
760.029	0.00793108
771.603	0.0150611
783.177	0.0194811
794.75	0.0274611
806.324	0.0250411
817.898	0.00782108
829.472	0.00407108
841.046	0.00292108
852.619	0.00249108
864.193	0.00276108
875.767	0.00346108
887.341	0.00378108
898.915	0.00329108
910.489	0.00273108
922.062	0.00259108
933.636	0.00277108
945.21	0.00276108
956.784	0.00248108
968.358	0.00201108
979.932	0.00169108
991.505	0.00144108
1003.08	0.00148108
1014.65	0.00172108
1026.23	0.00182108
1037.8	0.00169108
1049.37	0.00187108
1060.95	0.00147108
1072.52	0.00231108
1084.1	0.00411108
1095.67	0.00513108
1107.24	0.00338108
1118.82	0.00183108
1130.39	0.00193108
1141.97	0.00487108
1153.54	0.00761108
1165.11	0.00458108
1176.69	0.00282108
1188.26	0.00918108
1199.83	0.00816108
1211.41	0.00225108
1222.98	0.00147108
1234.56	0.00202108
1246.13	0.00298108
1257.7	0.00377108
1269.28	0.00374108
1280.85	0.00389108
1292.42	0.00491108
1304	0.00974108
1315.57	0.0210211
1327.15	0.0351511
1338.72	0.0356711
1350.29	0.0160811
1361.87	0.00467108
1373.44	0.00238108
1385.02	0.00195108
1396.59	0.00196108
1408.16	0.00318108
1419.74	0.0129311
1431.31	0.0276611
1442.88	0.0127611
1454.46	0.00335108
1466.03	0.00210108
1477.61	0.00209108
1489.18	0.00221108
1500.75	0.00204108
1512.33	0.00181108
1523.9	0.00190108
1535.48	0.00287108
1547.05	0.00601108
1558.62	0.0168311
1570.2	0.0211111
1581.77	0.0294511
1593.34	0.0330811
1604.92	0.0131411
1616.49	0.00442108
1628.07	0.00301108
1639.64	0.00308108
1651.21	0.00326108
1662.79	0.00411108
1674.36	0.00591108
1685.93	0.00693108
1697.51	0.00636108
1709.08	0.00956108
1720.66	0.0351311
1732.23	0.0955311
1743.8	0.0629111
1755.38	0.0121311
1766.95	0.00461108
1778.53	0.00652108
1790.1	0.00522108
1801.67	0.00236108
1813.25	0.00168108
1824.82	0.00117108
1836.39	0.00103108
1847.97	0.00114108
1859.54	0.00108108
1871.12	0.00072258
1882.69	0.00069198
1894.26	0.00078218
1905.84	0.00086858
1917.41	0.00094128
1928.99	0.00108108
1940.56	0.00074298
1952.13	0.00042848
1963.71	0.00032128
1975.28	0.00023648
1986.85	0.00020118
1998.43	0.00020018
2010	0.00018578
2021.58	0.00022178
2033.15	0.00020528
2044.72	0.00022558
2056.3	0.00025528
2067.87	0.00018708
2079.44	0.00019008
2091.02	0.00017678
2102.59	0.00019988
2114.17	0.00023378
2125.74	0.00024708
2137.31	0.00018338
2148.89	0.00012028
2160.46	0.00020118
2172.04	0.00016948
2183.61	0.00017448
2195.18	0.00018578
2206.76	0.00016318
2218.33	0.00016138
2229.9	0.00017508
2241.48	0.00012348
2253.05	0.00013568
2264.63	0.00013018
2276.2	0.00013488
2287.77	0.00016078
2299.35	0.00018838
2310.92	0.00023088
2322.5	0.00017678
2334.07	0.00013928
2345.64	0.00020738
2357.22	0.00013218
2368.79	9.601e-05
2380.36	0.00020598
2391.94	0.00024758
2403.51	0.00021668
2415.09	0.00025608
2426.66	0.00023848
2438.23	0.00021928
2449.81	0.00021098
2461.38	0.00022928
2472.96	0.00017548
2484.53	0.00010398
2496.1	0.00012068
2507.68	0.00015868
2519.25	0.00010678
2530.82	8.817e-05
2542.4	5.899e-05
2553.97	9.666e-05
2565.55	0.00015758
2577.12	5.707e-05
2588.69	0.00014628
2600.27	0.00015798
2611.84	9.909e-05
2623.41	0.00016178
2634.99	0.00021578
2646.56	0.00026118
2658.14	0.00024118
2669.71	0.00031088
2681.28	0.00020628
2692.86	0.00017238
2704.43	0.00010198
2716.01	0.00013148
2727.58	0.00017728
2739.15	0.00017288
2750.73	0.00011488
2762.3	0.00014478
2773.87	0.00017228
2785.45	0.00012848
2797.02	0.00025558
2808.6	0.00037938
2820.17	0.00047278
2831.74	0.00023868
2843.32	0.00016418
2854.89	0.00012048
2866.47	0.00010288
2878.04	0.00016868
2889.61	0.00011358
2901.19	0.00013468
2912.76	0.00022948
2924.33	0.00017808
2935.91	0.00010318
2947.48	7.383e-05
2959.06	0.00010918
2970.63	0.00025488
2982.2	0.00034698
2993.78	0.00027388
3005.35	0.00016248
3016.92	0.00016728
3028.5	0.00023838
3040.07	0.00028358
3051.65	0.00072368
3063.22	0.00152108
3074.79	0.00160108
3086.37	0.00122108
3097.94	0.00050218
3109.52	0.00038428
3121.09	0.00070428
3132.66	0.00055048
3144.24	0.00042528
3155.81	0.00047218
3167.38	0.00041848
3178.96	0.00026788
3190.53	0.00017958
3202.11	7.133e-05
3213.68	2.443e-05
3225.25	0.00016578
3236.83	0.00012048
3248.4	0.00015118
3259.98	0.00014218
3271.55	0.00020028
3283.12	0.00021208
3294.7	0.00023338
3306.27	0.00029328
3317.84	0.00042558
3329.42	0.00032918
3340.99	0.00033518
3352.57	0.00031748
3364.14	0.00065328
3375.71	0.00095248
3387.29	0.00162108
3398.86	0.00332108
3410.43	0.00612108
3422.01	0.00867108
3433.58	0.0101511
3445.16	0.00452108
3456.73	0.00188108
3468.3	0.00136108
3479.88	0.00144108
3491.45	0.00164108
3503.03	0.00205108
3514.6	0.00278108
3526.17	0.00389108
3537.75	0.00452108
3549.32	0.00706108
3560.89	0.00516108
3572.47	0.00117108
3584.04	0.00051168
3595.62	0.00042728
3607.19	0.00040588
3618.76	0.00029818
3630.34	0.00015228
3641.91	0.00016038
3653.49	0.00012428
3665.06	0.00010388
3676.63	0.00019058
3688.21	0.00018428
3699.78	0.00022388
3711.35	0.00011748
3722.93	0.00013888
3734.5	0.00018588
3746.08	0.00021118
3757.65	0.00020178
3769.22	0.00013328
3780.8	7.468e-05
3792.37	0.00010318
3803.94	0.00017528
3815.52	0.00029078
3827.09	0.00026578
3838.67	7.521e-05
3850.24	0.00026518
3861.81	6.715e-05
3873.39	0.00018368
3884.96	0.00016948
3896.54	0.00015068
3908.11	0.00016608
3919.68	0.00014478
3931.26	0.00019518
3942.83	0.00018608
3954.4	8.916e-05
3965.98	0.00013888
3977.55	0
3989.13	9.412e-05
4000.7	0.00020658
