Infrared Spectrum: 4-Cyanophenacyl bromide
Formula: C 9 H 6 Br N O
CAS: 20099-89-2
State: gas
Origin: EPA-IR VAPOR PHASE LIBRARY
1/CM	ABSORBANCE
549.8	0.009115
559.445	0.010015
569.09	0.012665
578.734	0.008355
588.379	0.005575
598.024	0.004005
607.669	0.004235
617.313	0.003135
626.958	0.005805
636.603	0.010205
646.248	0.014895
655.893	0.011195
665.537	0.007345
675.182	0.008435
684.827	0.006615
694.472	0.003565
704.116	0.003415
713.761	0.002015
723.406	0.002215
733.051	0.002105
742.695	0.002485
752.34	0.003825
761.985	0.004415
771.63	0.004035
781.275	0.003795
790.919	0.003425
800.564	0.004645
810.209	0.005915
819.854	0.006805
829.498	0.009985
839.143	0.014845
848.788	0.018475
858.433	0.011545
868.078	0.004535
877.722	0.003575
887.367	0.002825
897.012	0.002325
906.657	0.002465
916.301	0.0014439
925.946	0.002075
935.591	0.0015835
945.236	0.001975
954.88	0.001745
964.525	0.002845
974.17	0.004265
983.815	0.008175
993.46	0.012195
1003.1	0.019985
1012.75	0.031205
1022.39	0.010315
1032.04	0.004935
1041.68	0.002375
1051.33	0.003325
1060.97	0.002985
1070.62	0.001875
1080.26	0.002295
1089.91	0.003055
1099.55	0.002875
1109.2	0.005605
1118.84	0.002845
1128.49	0.002645
1138.13	0.004445
1147.78	0.002855
1157.42	0.004805
1167.07	0.007775
1176.71	0.012675
1186.36	0.012105
1196	0.014265
1205.64	0.014545
1215.29	0.011645
1224.93	0.009935
1234.58	0.012225
1244.22	0.016015
1253.87	0.030005
1263.51	0.068345
1273.16	0.073995
1282.8	0.033735
1292.45	0.014275
1302.09	0.007225
1311.74	0.008965
1321.38	0.004625
1331.03	0.003365
1340.67	0.003355
1350.32	0.003315
1359.96	0.002835
1369.61	0.002755
1379.25	0.003215
1388.9	0.004795
1398.54	0.008245
1408.18	0.009255
1417.83	0.010495
1427.47	0.018105
1437.12	0.009855
1446.76	0.003155
1456.41	0.002015
1466.05	0.001885
1475.7	0.001855
1485.34	0.001905
1494.99	0.001825
1504.63	0.001715
1514.28	0.0016525
1523.92	0.001805
1533.57	0.001945
1543.21	0.002215
1552.86	0.003625
1562.5	0.005215
1572.15	0.004025
1581.79	0.002355
1591.44	0.003615
1601.08	0.007645
1610.73	0.008145
1620.37	0.002745
1630.01	0.002365
1639.66	0.002225
1649.3	0.003065
1658.95	0.003985
1668.59	0.005655
1678.24	0.008565
1687.88	0.019425
1697.53	0.053565
1707.17	0.074655
1716.82	0.044275
1726.46	0.020405
1736.11	0.009915
1745.75	0.005275
1755.4	0.003175
1765.04	0.002835
1774.69	0.002865
1784.33	0.002535
1793.98	0.002495
1803.62	0.002615
1813.27	0.002255
1822.91	0.002075
1832.55	0.0016279
1842.2	0.0014475
1851.84	0.0014473
1861.49	0.0013392
1871.13	0.0014079
1880.78	0.0013532
1890.42	0.0014359
1900.07	0.002055
1909.71	0.002405
1919.36	0.002245
1929	0.002045
1938.65	0.001805
1948.29	0.0015827
1957.94	0.0016804
1967.58	0.001265
1977.23	0.0011608
1986.87	0.0009853
1996.52	0.0009076
2006.16	0.000876
2015.81	0.0010177
2025.45	0.0009948
2035.1	0.0012491
2044.74	0.0009662
2054.38	0.0010773
2064.03	0.0008526
2073.67	0.0009647
2083.32	0.0008113
2092.96	0.000972
2102.61	0.001077
2112.25	0.0010597
2121.9	0.0009301
2131.54	0.0010617
2141.19	0.0008823
2150.83	0.0008744
2160.48	0.0011102
2170.12	0.0009895
2179.77	0.000688994
2189.41	0.0010233
2199.06	0.0008535
2208.7	0.0009806
2218.35	0.0015324
2227.99	0.002925
2237.64	0.003515
2247.28	0.0015238
2256.92	0.0010713
2266.57	0.0010981
2276.21	0.001305
2285.86	0.0014237
2295.5	0.0012132
2305.15	0.0014333
2314.79	0.0013257
2324.44	0.0010973
2334.08	0.0011027
2343.73	0.0009815
2353.37	0.0010757
2363.02	0.0010581
2372.66	0.0011685
2382.31	0.0012503
2391.95	0.0013413
2401.6	0.0010915
2411.24	0.0011998
2420.89	0.0009949
2430.53	0.0012498
2440.18	0.0012267
2449.82	0.0012842
2459.47	0.0008061
2469.11	0.0010379
2478.75	0.0012253
2488.4	0.0010016
2498.04	0.0008611
2507.69	0.0008872
2517.33	0.0009569
2526.98	0.0009015
2536.62	0.0012177
2546.27	0.0008446
2555.91	0.0009021
2565.56	0.0009507
2575.2	0.0009042
2584.85	0.0010626
2594.49	0.0011266
2604.14	0.0008371
2613.78	0.00076638
2623.43	0.0009671
2633.07	0.00074636
2642.72	0.0006555
2652.36	0.0010281
2662.01	0.0008846
2671.65	0.0010297
2681.29	0.00072519
2690.94	0.0008329
2700.58	0.0012235
2710.23	0.0010619
2719.87	0.0009518
2729.52	0.00074846
2739.16	0.0009756
2748.81	0.0010169
2758.45	0.0012077
2768.1	0.0011132
2777.74	0.0011531
2787.39	0.0011743
2797.03	0.001335
2806.68	0.0015368
2816.32	0.0012357
2825.97	0.0009902
2835.61	0.0008733
2845.26	0.0013245
2854.9	0.0008086
2864.55	0.0013671
2874.19	0.0012047
2883.84	0.0013054
2893.48	0.0008684
2903.12	0.0011346
2912.77	0.0013926
2922.41	0.0008152
2932.06	0.0015447
2941.7	0.001885
2951.35	0.002615
2960.99	0.002215
2970.64	0.002055
2980.28	0.003335
2989.93	0.002185
2999.57	0.001925
3009.22	0.0012341
3018.86	0.0012643
3028.51	0.0015969
3038.15	0.0011886
3047.8	0.001995
3057.44	0.001785
3067.09	0.001865
3076.73	0.002165
3086.38	0.002775
3096.02	0.002755
3105.67	0.001875
3115.31	0.001795
3124.95	0.001555
3134.6	0.0007933
3144.24	0.0006479
3153.89	0.0011154
3163.53	0.0009599
3173.18	0.0009397
3182.82	0.0009167
3192.47	0.0008719
3202.11	0.000635
3211.76	0.00074748
3221.4	0.0013165
3231.05	0.0012351
3240.69	0.000427
3250.34	0.00052
3259.98	0.0008423
3269.63	0.0009028
3279.27	0.0008647
3288.92	0.000577
3298.56	0.0008975
3308.21	0.000412
3317.85	0.0012994
3327.49	0.0012324
3337.14	0.0006226
3346.78	0.000421
3356.43	0.0012109
3366.07	0.0011849
3375.72	0.0016729
3385.36	0.001755
3395.01	0.002065
3404.65	0.0010926
3414.3	0.001775
3423.94	0.0013606
3433.59	0.0012274
3443.23	0.001725
3452.88	0.0012709
3462.52	0.0008343
3472.17	0.0015154
3481.81	0.0014113
3491.46	0.0007864
3501.1	0.0011371
3510.75	0.0010203
3520.39	0.0012352
3530.04	0.0010029
3539.68	0.0009841
3549.32	0.0011903
3558.97	0.0012
3568.61	0.0008568
3578.26	0.0012369
3587.9	0.0014513
3597.55	0.0014041
3607.19	0.000922
3616.84	0.0012698
3626.48	0.0012434
3636.13	0.0007906
3645.77	0.000474
3655.42	0.0010276
3665.06	0.000518
3674.71	0.0009839
3684.35	0.000552
3694	0.0011376
3703.64	0.0008561
3713.29	0.0009449
3722.93	0.000838
3732.58	0.0011183
3742.22	0.0007899
3751.86	0.0006028
3761.51	0.0012428
3771.15	0.0008161
3780.8	0.00070888
3790.44	0.0011601
3800.09	0.0012308
3809.73	0.0008253
3819.38	0.0012508
3829.02	0.0010594
3838.67	0.0011954
3848.31	0.0005871
3857.96	0.0010365
3867.6	0.0008009
3877.25	0.000493
3886.89	0.0010561
3896.54	0.0012588
3906.18	0.0010843
3915.83	0.000638
3925.47	0.0009987
3935.12	0.00074321
3944.76	0.0012228
3954.41	0.0012549
3964.05	0
3973.69	0.0010118
3983.34	0.000185
3992.98	0.0010844
