Infrared Spectrum: 9H-PURINE-6(1H)-THIONE, 9-Beta-D-RIBOFURANOSYL-, 3',5'-CYCLIC PHOSPHATE
Formula: C10 H11 N4 O6 P S
CAS: 20096-88-2
State: SOLID (1 mg / 650 mg KBr DISC)
Class: COBLENTZ III
Instrument: PERKIN-ELMER 221 (GRATING)
Instrument parameters: FILTER CHANGES AT 2490, 980 CM^-^1, GRATING FOR 4000-1428 CM^-^1, NaCl PRISM FOR 1428-650 CM^-^1
Sampling: TRANSMISSION
Resolution: 4
Origin: SOUTHERN RESEARCH INST.
1/CM	TRANSMITTANCE
603.21	0.629
612.841	0.629
622.472	0.632
632.103	0.608
641.733	0.575
651.364	0.587
660.995	0.63
670.626	0.674
680.257	0.679
689.888	0.686
699.518	0.695
709.149	0.699
718.78	0.699
728.411	0.674
738.042	0.617
747.673	0.543
757.303	0.52
766.934	0.517
776.565	0.542
786.196	0.617
795.827	0.624
805.458	0.583
815.088	0.397
824.719	0.329
834.35	0.355
843.981	0.45
853.612	0.489
863.243	0.535
872.873	0.606
882.504	0.629
892.135	0.681
901.766	0.693
911.397	0.684
921.028	0.665
930.658	0.637
940.289	0.617
949.92	0.556
959.551	0.534
969.182	0.501
978.813	0.456
988.443	0.438
998.074	0.393
1007.71	0.317
1017.34	0.299
1026.97	0.326
1036.6	0.389
1046.23	0.31
1055.86	0.246
1065.49	0.22
1075.12	0.19
1084.75	0.224
1094.38	0.25
1104.01	0.284
1113.64	0.333
1123.28	0.3
1132.91	0.355
1142.54	0.508
1152.17	0.546
1161.8	0.526
1171.43	0.46
1181.06	0.28
1190.69	0.252
1200.32	0.337
1209.95	0.337
1219.58	0.266
1229.21	0.232
1238.85	0.245
1248.48	0.287
1258.11	0.355
1267.74	0.439
1277.37	0.544
1287	0.64
1296.63	0.659
1306.26	0.651
1315.89	0.633
1325.52	0.603
1335.15	0.59
1344.78	0.639
1354.42	0.661
1364.05	0.611
1373.68	0.491
1383.31	0.298
1392.94	0.292
1402.57	0.373
1412.2	0.477
1421.83	0.494
1431.46	0.522
1441.09	0.549
1450.72	0.566
1460.35	0.575
1469.99	0.539
1479.62	0.55
1489.25	0.592
1498.88	0.674
1508.51	0.683
1518.14	0.621
1527.77	0.466
1537.4	0.398
1547.03	0.395
1556.66	0.426
1566.29	0.455
1575.92	0.447
1585.56	0.2
1595.19	0.176
1604.82	0.325
1614.45	0.487
1624.08	0.551
1633.71	0.577
1643.34	0.597
1652.97	0.626
1662.6	0.636
1672.23	0.652
1681.86	0.654
1691.49	0.654
1701.13	0.661
1710.76	0.692
1720.39	0.737
1730.02	0.768
1739.65	0.775
1749.28	0.785
1758.91	0.794
1768.54	0.798
1778.17	0.801
1787.8	0.804
1797.43	0.806
1807.06	0.808
1816.7	0.811
1826.33	0.812
1835.96	0.812
1845.59	0.812
1855.22	0.812
1864.85	0.812
1874.48	0.812
1884.11	0.812
1893.74	0.811
1903.37	0.811
1913	0.811
1922.63	0.809
1932.27	0.809
1941.9	0.809
1951.53	0.808
1961.16	0.808
1970.79	0.809
1980.42	0.81
1990.05	0.808
1999.68	0.808
2009.31	0.809
2018.94	0.812
2028.57	0.811
2038.2	0.81
2047.84	0.809
2057.47	0.81
2067.1	0.81
2076.73	0.812
2086.36	0.812
2095.99	0.813
2105.62	0.814
2115.25	0.815
2124.88	0.816
2134.51	0.819
2144.14	0.821
2153.77	0.823
2163.41	0.824
2173.04	0.826
2182.67	0.828
2192.3	0.828
2201.93	0.825
2211.56	0.827
2221.19	0.828
2230.82	0.83
2240.45	0.83
2250.08	0.828
2259.71	0.828
2269.34	0.827
2278.98	0.826
2288.61	0.823
2298.24	0.82
2307.87	0.815
2317.5	0.812
2327.13	0.811
2336.76	0.808
2346.39	0.807
2356.02	0.805
2365.65	0.803
2375.28	0.802
2384.91	0.802
2394.55	0.801
2404.18	0.801
2413.81	0.793
2423.44	0.782
2433.07	0.782
2442.7	0.779
2452.33	0.775
2461.96	0.773
2471.59	0.771
2481.22	0.77
2490.85	0.757
2500.48	0.747
2510.12	0.736
2519.75	0.726
2529.38	0.724
2539.01	0.723
2548.64	0.721
2558.27	0.717
2567.9	0.704
2577.53	0.698
2587.16	0.693
2596.79	0.689
2606.42	0.683
2616.05	0.67
2625.69	0.656
2635.32	0.645
2644.95	0.638
2654.58	0.634
2664.21	0.627
2673.84	0.618
2683.47	0.613
2693.1	0.608
2702.73	0.6
2712.36	0.588
2721.99	0.576
2731.62	0.559
2741.26	0.554
2750.89	0.551
2760.52	0.545
2770.15	0.536
2779.78	0.528
2789.41	0.524
2799.04	0.52
2808.67	0.52
2818.3	0.513
2827.93	0.498
2837.56	0.491
2847.19	0.478
2856.83	0.472
2866.46	0.467
2876.09	0.448
2885.72	0.435
2895.35	0.428
2904.98	0.425
2914.61	0.421
2924.24	0.416
2933.87	0.415
2943.5	0.404
2953.13	0.401
2962.76	0.393
2972.4	0.383
2982.03	0.379
2991.66	0.373
3001.29	0.363
3010.92	0.358
3020.55	0.353
3030.18	0.351
3039.81	0.347
3049.44	0.335
3059.07	0.327
3068.7	0.322
3078.33	0.313
3087.97	0.295
3097.6	0.277
3107.23	0.262
3116.86	0.256
3126.49	0.252
3136.12	0.25
3145.75	0.251
3155.38	0.252
3165.01	0.254
3174.64	0.257
3184.27	0.26
3193.9	0.265
3203.54	0.271
3213.17	0.279
3222.8	0.289
3232.43	0.298
3242.06	0.306
3251.69	0.314
3261.32	0.329
3270.95	0.337
3280.58	0.344
3290.21	0.367
3299.84	0.374
3309.47	0.391
3319.11	0.395
3328.74	0.398
3338.37	0.399
3348	0.399
3357.63	0.398
3367.26	0.397
3376.89	0.397
3386.52	0.397
3396.15	0.398
3405.78	0.4
3415.41	0.401
3425.04	0.405
3434.68	0.41
3444.31	0.419
3453.94	0.427
3463.57	0.437
3473.2	0.448
3482.83	0.475
3492.46	0.481
3502.09	0.485
3511.72	0.505
3521.35	0.522
3530.98	0.536
3540.61	0.544
3550.25	0.559
3559.88	0.571
3569.51	0.589
3579.14	0.6
3588.77	0.628
3598.4	0.64
3608.03	0.679
3617.66	0.693
3627.29	0.719
3636.92	0.737
3646.55	0.767
3656.18	0.777
3665.82	0.805
3675.45	0.812
3685.08	0.821
3694.71	0.827
3704.34	0.838
3713.97	0.84
3723.6	0.838
3733.23	0.833
3742.86	0.823
3752.49	0.825
3762.12	0.838
3771.75	0.843
3781.39	0.845
3791.02	0.844
3800.65	0.843
3810.28	0.842
3819.91	0.841
3829.54	0.84
3839.17	0.838
3848.8	0.838
3858.43	0.835
3868.06	0.835
3877.69	0.836
3887.32	0.838
3896.96	0.84
3906.59	0.842
3916.22	0.843
3925.85	0.842
3935.48	0.844
3945.11	0.844
3954.74	0.844
3964.37	0.844
3974	0.844
3983.63	0.844
3993.26	0.844
4002.89	0.844
