Infrared Spectrum: 1,4-CYCLOHEXANEDICARBOXAMIDE
Formula: C8 H14 N2 O2
CAS: 20101-86-4
State: SOLID (KBr PELLET)
Class: COBLENTZ
Instrument: Not specified, most likely a prism, grating, or hybrid spectrometer.
Sampling: TRANSMISSION
Resolution: 4
Origin: TENNESSEE EASTMAN COMPANY, RESEARCH LABORATORIES
MICROMETERS	TRANSMITTANCE
2.054	0.858
2.09474	0.861
2.13548	0.864
2.17622	0.873
2.21695	0.876
2.25769	0.88
2.29843	0.882
2.33917	0.883
2.37991	0.883
2.42065	0.887
2.46139	0.89
2.50212	0.895
2.54286	0.895
2.5836	0.895
2.62434	0.892
2.66508	0.894
2.70582	0.892
2.74656	0.871
2.78729	0.842
2.82803	0.811
2.86877	0.774
2.90951	0.671
2.95025	0.341
2.99099	0.128
3.03173	0.169
3.07246	0.297
3.1132	0.355
3.15394	0.203
3.19468	0.213
3.23542	0.468
3.27616	0.637
3.3169	0.765
3.35764	0.777
3.39837	0.403
3.43911	0.77
3.47985	0.656
3.52059	0.803
3.56133	0.805
3.60207	0.842
3.64281	0.873
3.68354	0.885
3.72428	0.902
3.76502	0.911
3.80576	0.914
3.8465	0.919
3.88724	0.923
3.92798	0.923
3.96871	0.926
4.00945	0.929
4.05019	0.931
4.09093	0.933
4.13167	0.935
4.17241	0.936
4.21315	0.938
4.25388	0.931
4.29462	0.916
4.33536	0.921
4.3761	0.935
4.41684	0.947
4.45758	0.945
4.49832	0.95
4.53905	0.952
4.57979	0.953
4.62053	0.955
4.66127	0.955
4.70201	0.955
4.74275	0.957
4.78349	0.958
4.82422	0.962
4.86496	0.962
4.9057	0.962
4.94644	0.962
4.98718	0.962
5.02792	0.962
5.06866	0.962
5.10939	0.962
5.15013	0.962
5.19087	0.962
5.23161	0.962
5.27235	0.962
5.31309	0.962
5.35383	0.957
5.39456	0.953
5.4353	0.952
5.47604	0.948
5.51678	0.943
5.55752	0.933
5.59826	0.921
5.639	0.911
5.67974	0.885
5.72047	0.858
5.76121	0.832
5.80195	0.791
5.84269	0.709
5.88343	0.437
5.92417	0.188
5.96491	0.083
6.00564	0.071
6.04638	0.073
6.08712	0.085
6.12786	0.172
6.1686	0.254
6.20934	0.422
6.25008	0.608
6.29081	0.738
6.33155	0.772
6.37229	0.794
6.41303	0.805
6.45377	0.806
6.49451	0.806
6.53525	0.805
6.57598	0.798
6.61672	0.793
6.65746	0.782
6.6982	0.75
6.73894	0.705
6.77968	0.646
6.82042	0.582
6.86115	0.379
6.90189	0.326
6.94263	0.179
6.98337	0.244
7.02411	0.48
7.06485	0.615
7.10559	0.676
7.14632	0.685
7.18706	0.682
7.2278	0.678
7.26854	0.705
7.30928	0.671
7.35002	0.605
7.39076	0.711
7.43149	0.743
7.47223	0.741
7.51297	0.757
7.55371	0.774
7.59445	0.784
7.63519	0.774
7.67593	0.618
7.71666	0.422
7.7574	0.531
7.79814	0.77
7.83888	0.815
7.87962	0.829
7.92036	0.835
7.9611	0.842
8.00184	0.851
8.04257	0.852
8.08331	0.847
8.12405	0.618
8.16479	0.543
8.20553	0.776
8.24627	0.834
8.28701	0.832
8.32774	0.856
8.36848	0.858
8.40922	0.861
8.44996	0.863
8.4907	0.863
8.53144	0.863
8.57218	0.852
8.61291	0.832
8.65365	0.757
8.69439	0.694
8.73513	0.796
8.77587	0.829
8.81661	0.841
8.85735	0.852
8.89808	0.851
8.93882	0.851
8.97956	0.858
9.0203	0.854
9.06104	0.856
9.10178	0.864
9.14252	0.861
9.18325	0.868
9.22399	0.871
9.26473	0.87
9.30547	0.871
9.34621	0.873
9.38695	0.87
9.42769	0.876
9.46842	0.873
9.50916	0.846
9.5499	0.861
9.59064	0.871
9.63138	0.871
9.67212	0.875
9.71286	0.882
9.75359	0.882
9.79433	0.888
9.83507	0.9
9.87581	0.902
9.91655	0.904
9.95729	0.909
9.99803	0.909
10.0388	0.909
10.0795	0.912
10.1202	0.923
10.161	0.921
10.2017	0.914
10.2425	0.924
10.2832	0.928
10.3239	0.923
10.3647	0.923
10.4054	0.931
10.4462	0.931
10.4869	0.931
10.5276	0.929
10.5684	0.933
10.6091	0.933
10.6498	0.929
10.6906	0.928
10.7313	0.933
10.7721	0.931
10.8128	0.912
10.8535	0.854
10.8943	0.728
10.935	0.82
10.9758	0.856
11.0165	0.887
11.0572	0.912
11.098	0.921
11.1387	0.923
11.1794	0.929
11.2202	0.935
11.2609	0.933
11.3017	0.911
11.3424	0.851
11.3831	0.788
11.4239	0.791
11.4646	0.852
11.5054	0.882
11.5461	0.894
11.5868	0.895
11.6276	0.882
11.6683	0.861
11.709	0.847
11.7498	0.835
11.7905	0.834
11.8313	0.825
11.872	0.823
11.9127	0.823
11.9535	0.827
11.9942	0.829
12.035	0.83
12.0757	0.832
12.1164	0.839
12.1572	0.842
12.1979	0.847
12.2386	0.851
12.2794	0.852
12.3201	0.854
12.3609	0.859
12.4016	0.864
12.4423	0.864
12.4831	0.859
12.5238	0.858
12.5646	0.864
12.6053	0.864
12.646	0.866
12.6868	0.861
12.7275	0.856
12.7683	0.854
12.809	0.849
12.8497	0.844
12.8905	0.837
12.9312	0.83
12.9719	0.825
13.0127	0.82
13.0534	0.813
13.0942	0.803
13.1349	0.796
13.1756	0.788
13.2164	0.777
13.2571	0.77
13.2979	0.762
13.3386	0.753
13.3793	0.74
13.4201	0.726
13.4608	0.709
13.5015	0.692
13.5423	0.676
13.583	0.663
13.6238	0.637
13.6645	0.62
13.7052	0.6
13.746	0.588
13.7867	0.581
13.8275	0.577
13.8682	0.577
13.9089	0.577
13.9497	0.577
13.9904	0.574
14.0311	0.564
14.0719	0.543
14.1126	0.524
14.1534	0.499
14.1941	0.473
14.2348	0.449
14.2756	0.432
14.3163	0.418
14.3571	0.41
14.3978	0.413
14.4385	0.43
14.4793	0.442
14.52	0.47
14.5607	0.494
14.6015	0.511
14.6422	0.531
14.683	0.543
14.7237	0.56
14.7644	0.572
14.8052	0.581
14.8459	0.588
14.8867	0.594
14.9274	0.598
14.9681	0.598
15.0089	0.598
15.0496	0.598
15.0904	0.596
15.1311	0.594
15.1718	0.594
15.2126	0.598
15.2533	0.6
15.294	0.605
15.3348	0.61
15.3755	0.617
15.4163	0.622
15.457	0.629
15.4977	0.635
15.5385	0.637
15.5792	0.637
15.62	0.639
15.6607	0.644
15.7014	0.647
15.7422	0.651
15.7829	0.656
15.8236	0.661
15.8644	0.661
15.9051	0.67
15.9459	0.671
15.9866	0.67
