Infrared Spectrum: 4-Chloro-(2-hydroxyhexafluoroisopropyl)benzene
Formula: C 9 H 5 Cl F 6 O
CAS: 2010-63-1
State: gas
Origin: EPA-IR VAPOR PHASE LIBRARY
1/CM	ABSORBANCE
549.8	0.008431
559.445	0.006001
569.09	0.005671
578.734	0.003261
588.379	0.004221
598.024	0.003451
607.669	0.003591
617.313	0.004111
626.958	0.004011
636.603	0.004681
646.248	0.003841
655.893	0.003991
665.537	0.003581
675.182	0.003441
684.827	0.006411
694.472	0.018591
704.116	0.025141
713.761	0.012001
723.406	0.032981
733.051	0.055971
742.695	0.017231
752.34	0.014401
761.985	0.025751
771.63	0.007521
781.275	0.008321
790.919	0.007271
800.564	0.007181
810.209	0.012021
819.854	0.046061
829.498	0.040481
839.143	0.009951
848.788	0.007501
858.433	0.007071
868.078	0.006191
877.722	0.006621
887.367	0.009311
897.012	0.013071
906.657	0.024101
916.301	0.063591
925.946	0.086851
935.591	0.058671
945.236	0.044871
954.88	0.042701
964.525	0.061831
974.17	0.060081
983.815	0.029221
993.46	0.017411
1003.1	0.015741
1012.75	0.029281
1022.39	0.030871
1032.04	0.012911
1041.68	0.011261
1051.33	0.011551
1060.97	0.013511
1070.62	0.018681
1080.26	0.033461
1089.91	0.074551
1099.55	0.156141
1109.2	0.072861
1118.84	0.037671
1128.49	0.039781
1138.13	0.040891
1147.78	0.057831
1157.42	0.115171
1167.07	0.158051
1176.71	0.141281
1186.36	0.121021
1196	0.126991
1205.64	0.167861
1215.29	0.294141
1224.93	0.365231
1234.58	0.288601
1244.22	0.257581
1253.87	0.265201
1263.51	0.270671
1273.16	0.223371
1282.8	0.170921
1292.45	0.102251
1302.09	0.068341
1311.74	0.053381
1321.38	0.032991
1331.03	0.019471
1340.67	0.016301
1350.32	0.016001
1359.96	0.018251
1369.61	0.019171
1379.25	0.013211
1388.9	0.008921
1398.54	0.008411
1408.18	0.012031
1417.83	0.010871
1427.47	0.007331
1437.12	0.006421
1446.76	0.006631
1456.41	0.007521
1466.05	0.007791
1475.7	0.010931
1485.34	0.021651
1494.99	0.058951
1504.63	0.039221
1514.28	0.009681
1523.92	0.005921
1533.57	0.004761
1543.21	0.004491
1552.86	0.004341
1562.5	0.005191
1572.15	0.007081
1581.79	0.008441
1591.44	0.015151
1601.08	0.021651
1610.73	0.007701
1620.37	0.003991
1630.01	0.003811
1639.66	0.005331
1649.3	0.004861
1658.95	0.003481
1668.59	0.002531
1678.24	0.002211
1687.88	0.002511
1697.53	0.002161
1707.17	0.002331
1716.82	0.002311
1726.46	0.002591
1736.11	0.002681
1745.75	0.002621
1755.4	0.002631
1765.04	0.002881
1774.69	0.003341
1784.33	0.004001
1793.98	0.002691
1803.62	0.002161
1813.27	0.002411
1822.91	0.002391
1832.55	0.001891
1842.2	0.001881
1851.84	0.001851
1861.49	0.002081
1871.13	0.002191
1880.78	0.002521
1890.42	0.003071
1900.07	0.003791
1909.71	0.003801
1919.36	0.002891
1929	0.002161
1938.65	0.002171
1948.29	0.0015992
1957.94	0.0016191
1967.58	0.0015955
1977.23	0.001831
1986.87	0.001801
1996.52	0.0016352
2006.16	0.0016532
2015.81	0.0014287
2025.45	0.0012782
2035.1	0.0013986
2044.74	0.0014006
2054.38	0.0015173
2064.03	0.0010468
2073.67	0.0014681
2083.32	0.0014379
2092.96	0.0012497
2102.61	0.0014686
2112.25	0.001701
2121.9	0.001811
2131.54	0.001731
2141.19	0.001851
2150.83	0.001801
2160.48	0.001671
2170.12	0.001801
2179.77	0.00166
2189.41	0.0016188
2199.06	0.001871
2208.7	0.001751
2218.35	0.0015968
2227.99	0.0015914
2237.64	0.0013774
2247.28	0.001296
2256.92	0.0013564
2266.57	0.001246
2276.21	0.0009859
2285.86	0.0014261
2295.5	0.0014841
2305.15	0.001721
2314.79	0.001921
2324.44	0.002191
2334.08	0.002181
2343.73	0.002401
2353.37	0.002331
2363.02	0.002301
2372.66	0.002381
2382.31	0.002151
2391.95	0.002431
2401.6	0.002361
2411.24	0.001731
2420.89	0.002271
2430.53	0.001941
2440.18	0.001771
2449.82	0.001981
2459.47	0.0016364
2469.11	0.0015796
2478.75	0.001871
2488.4	0.0013156
2498.04	0.0016171
2507.69	0.0013983
2517.33	0.0011347
2526.98	0.0014653
2536.62	0.0016197
2546.27	0.001821
2555.91	0.0012231
2565.56	0.0012191
2575.2	0.0011653
2584.85	0.0010186
2594.49	0.0012278
2604.14	0.0012639
2613.78	0.0012265
2623.43	0.0009504
2633.07	0.0007913
2642.72	0.0013477
2652.36	0.0006126
2662.01	0.0012291
2671.65	0.0007829
2681.29	0.0008597
2690.94	0.0012302
2700.58	0.0011829
2710.23	0.0011488
2719.87	0.0010731
2729.52	0.0012966
2739.16	0.0010347
2748.81	0.0011078
2758.45	0.0011439
2768.1	0.00075401
2777.74	0.0014276
2787.39	0.0008537
2797.03	0.0009394
2806.68	0.0008667
2816.32	0.00073808
2825.97	0.0008615
2835.61	0.000448
2845.26	0.0008625
2854.9	0.0010349
2864.55	0.0009662
2874.19	0.0009116
2883.84	0.0006073
2893.48	0.000493
2903.12	0.0007445
2912.77	0.0008205
2922.41	0.000287
2932.06	0.0011866
2941.7	0.0010415
2951.35	0.00070193
2960.99	0.0009624
2970.64	0.0007425
2980.28	0.0008988
2989.93	0.0007629
2999.57	0.0006481
3009.22	0.000547
3018.86	0.0012869
3028.51	0.0012712
3038.15	0.0008273
3047.8	0.0015328
3057.44	0.0015376
3067.09	0.0015712
3076.73	0.001871
3086.38	0.003741
3096.02	0.002731
3105.67	0.001721
3115.31	0.0016114
3124.95	0.0011224
3134.6	0.0011147
3144.24	0.0006039
3153.89	0.0014853
3163.53	0.00073485
3173.18	0.0011212
3182.82	0.00067715
3192.47	0.0010707
3202.11	0.0011663
3211.76	0.0006733
3221.4	0.0014066
3231.05	0.00043
3240.69	0.0011354
3250.34	0.0010631
3259.98	0.0006205
3269.63	0.0015036
3279.27	0.0012301
3288.92	0.001751
3298.56	0.0015679
3308.21	0.0013537
3317.85	0.0015473
3327.49	0.001961
3337.14	0.0008663
3346.78	0.0014176
3356.43	0.002371
3366.07	0.001159
3375.72	0.0015662
3385.36	0.0009749
3395.01	0.001691
3404.65	0.0014722
3414.3	0.0011437
3423.94	0.0010707
3433.59	0.0014859
3443.23	0.001971
3452.88	0.001661
3462.52	0.0012219
3472.17	0.0014581
3481.81	0.0013729
3491.46	0.0012024
3501.1	0.0013979
3510.75	0.001629
3520.39	0.0012865
3530.04	0.0009914
3539.68	0.001701
3549.32	0.0014662
3558.97	0.0015482
3568.61	0.0013654
3578.26	0.001771
3587.9	0.002831
3597.55	0.003751
3607.19	0.006391
3616.84	0.024361
3626.48	0.079561
3636.13	0.035581
3645.77	0.009301
3655.42	0.004811
3665.06	0.003651
3674.71	0.002561
3684.35	0.001991
3694	0.001961
3703.64	0.002161
3713.29	0.002061
3722.93	0.0015303
3732.58	0.0010529
3742.22	0.0012611
3751.86	0.002041
3761.51	0.001891
3771.15	0.00111
3780.8	0.0013893
3790.44	0.001931
3800.09	0.0011151
3809.73	0.0013446
3819.38	0.0015033
3829.02	0.0014322
3838.67	0.0008482
3848.31	0.001971
3857.96	0.0015717
3867.6	0.0016192
3877.25	0.0013578
3886.89	0.0015947
3896.54	0.001338
3906.18	0.0012005
3915.83	0.001911
3925.47	0.0015753
3935.12	0.002161
3944.76	0.0014211
3954.41	0.001881
3964.05	0.002321
3973.69	0.0014704
3983.34	0.0013537
3992.98	0.0014913
