Infrared Spectrum: 2-Amino-4-phenylthiazole
Formula: C 9 H 8 N 2 S
CAS: 2010-06-2
State: gas
Origin: EPA-IR VAPOR PHASE LIBRARY
1/CM	ABSORBANCE
549.8	0.007173
559.445	0.008043
569.09	0.009703
578.734	0.008493
588.379	0.009773
598.024	0.009543
607.669	0.012523
617.313	0.015083
626.958	0.018543
636.603	0.021473
646.248	0.023653
655.893	0.032363
665.537	0.020263
675.182	0.020603
684.827	0.030493
694.472	0.058573
704.116	0.092433
713.761	0.056423
723.406	0.026063
733.051	0.019173
742.695	0.021233
752.34	0.021053
761.985	0.022013
771.63	0.023063
781.275	0.016203
790.919	0.012643
800.564	0.010553
810.209	0.008243
819.854	0.008053
829.498	0.013093
839.143	0.020303
848.788	0.013523
858.433	0.007063
868.078	0.005313
877.722	0.005383
887.367	0.005483
897.012	0.006973
906.657	0.007493
916.301	0.006163
925.946	0.005573
935.591	0.004813
945.236	0.004543
954.88	0.004053
964.525	0.004153
974.17	0.004783
983.815	0.004633
993.46	0.005773
1003.1	0.006253
1012.75	0.009513
1022.39	0.016913
1032.04	0.022273
1041.68	0.018953
1051.33	0.012273
1060.97	0.008393
1070.62	0.008933
1080.26	0.005193
1089.91	0.005223
1099.55	0.004413
1109.2	0.007223
1118.84	0.008133
1128.49	0.007163
1138.13	0.003803
1147.78	0.002433
1157.42	0.004413
1167.07	0.003983
1176.71	0.006693
1186.36	0.007483
1196	0.009543
1205.64	0.005063
1215.29	0.004193
1224.93	0.004913
1234.58	0.006533
1244.22	0.007893
1253.87	0.011823
1263.51	0.015543
1273.16	0.020153
1282.8	0.025293
1292.45	0.030973
1302.09	0.033763
1311.74	0.034483
1321.38	0.042843
1331.03	0.048873
1340.67	0.041673
1350.32	0.025243
1359.96	0.016063
1369.61	0.014933
1379.25	0.013853
1388.9	0.009363
1398.54	0.006573
1408.18	0.005453
1417.83	0.004723
1427.47	0.005263
1437.12	0.010853
1446.76	0.014293
1456.41	0.009063
1466.05	0.011763
1475.7	0.019423
1485.34	0.019603
1494.99	0.013913
1504.63	0.017523
1514.28	0.048013
1523.92	0.139573
1533.57	0.141993
1543.21	0.038263
1552.86	0.016023
1562.5	0.013533
1572.15	0.015293
1581.79	0.023583
1591.44	0.042893
1601.08	0.082643
1610.73	0.089923
1620.37	0.045693
1630.01	0.019353
1639.66	0.010503
1649.3	0.007483
1658.95	0.005633
1668.59	0.004843
1678.24	0.004813
1687.88	0.004133
1697.53	0.003263
1707.17	0.002633
1716.82	0.002593
1726.46	0.002883
1736.11	0.002903
1745.75	0.003113
1755.4	0.002943
1765.04	0.002763
1774.69	0.002793
1784.33	0.002933
1793.98	0.003853
1803.62	0.003703
1813.27	0.002683
1822.91	0.002553
1832.55	0.001973
1842.2	0.0017778
1851.84	0.0017493
1861.49	0.001973
1871.13	0.002473
1880.78	0.003103
1890.42	0.003093
1900.07	0.002193
1909.71	0.0017515
1919.36	0.002113
1929	0.002253
1938.65	0.003313
1948.29	0.004123
1957.94	0.003473
1967.58	0.002293
1977.23	0.0017048
1986.87	0.001833
1996.52	0.0015246
2006.16	0.0014893
2015.81	0.0013905
2025.45	0.0015972
2035.1	0.001464
2044.74	0.001329
2054.38	0.0012195
2064.03	0.0015668
2073.67	0.0011718
2083.32	0.001365
2092.96	0.0014459
2102.61	0.001374
2112.25	0.0013872
2121.9	0.0011591
2131.54	0.0011444
2141.19	0.001435
2150.83	0.0013103
2160.48	0.0011779
2170.12	0.001325
2179.77	0.0009895
2189.41	0.0011096
2199.06	0.0009089
2208.7	0.0013141
2218.35	0.0012897
2227.99	0.0010738
2237.64	0.0012699
2247.28	0.0014157
2256.92	0.0013874
2266.57	0.0011495
2276.21	0.0010978
2285.86	0.0013242
2295.5	0.0012184
2305.15	0.0014165
2314.79	0.0012982
2324.44	0.001484
2334.08	0.0013505
2343.73	0.0010312
2353.37	0.001304
2363.02	0.0014615
2372.66	0.0011994
2382.31	0.0013717
2391.95	0.0010993
2401.6	0.0011543
2411.24	0.000904
2420.89	0.0007103
2430.53	0.000577
2440.18	0.00084469
2449.82	0.0009829
2459.47	0.0009723
2469.11	0.000585
2478.75	0.000531
2488.4	0.0007618
2498.04	0.000689
2507.69	0.000584
2517.33	0.000496
2526.98	0.0007447
2536.62	0.0008525
2546.27	0.00085867
2555.91	0.00087743
2565.56	0.0011417
2575.2	0.0009458
2584.85	0.0011802
2594.49	0.000747
2604.14	0.0013027
2613.78	0.0013245
2623.43	0.0007509
2633.07	0.0013564
2642.72	0.0016212
2652.36	0.0012811
2662.01	0.0013914
2671.65	0.0009715
2681.29	0.0011356
2690.94	0.0012625
2700.58	0.0007361
2710.23	0.0010819
2719.87	0.0010885
2729.52	0.001366
2739.16	0.0012168
2748.81	0.000709
2758.45	0.0011495
2768.1	0.00081666
2777.74	0.0013572
2787.39	0.0010894
2797.03	0.0017811
2806.68	0.0013842
2816.32	0.0013846
2825.97	0.000425
2835.61	0.0010142
2845.26	0.0013616
2854.9	0.00089217
2864.55	0.0011502
2874.19	0.0011579
2883.84	0.0011679
2893.48	0.00088976
2903.12	0.0011249
2912.77	0.0011461
2922.41	0.0012174
2932.06	0.0015026
2941.7	0.0012704
2951.35	0.0007681
2960.99	0.0011528
2970.64	0.0013564
2980.28	0.0015862
2989.93	0.001219
2999.57	0.002683
3009.22	0.003343
3018.86	0.005923
3028.51	0.009963
3038.15	0.014093
3047.8	0.013453
3057.44	0.016613
3067.09	0.026133
3076.73	0.024573
3086.38	0.014943
3096.02	0.008573
3105.67	0.006223
3115.31	0.005243
3124.95	0.004803
3134.6	0.002753
3144.24	0.0015753
3153.89	0.0010107
3163.53	0.0015841
3173.18	0.0009502
3182.82	0.0016559
3192.47	0.0013939
3202.11	0.0011346
3211.76	0.0014565
3221.4	0.0017696
3231.05	0.0013313
3240.69	0.0008949
3250.34	0.0015346
3259.98	0.0016375
3269.63	0.000605
3279.27	0.0007149
3288.92	0.000322
3298.56	0.00081285
3308.21	0.000376
3317.85	0.000476
3327.49	0.000798695
3337.14	0.000524
3346.78	0.000628
3356.43	0.00083125
3366.07	0.0014731
3375.72	0.002733
3385.36	0.004983
3395.01	0.011823
3404.65	0.022333
3414.3	0.022303
3423.94	0.012583
3433.59	0.005503
3443.23	0.002613
3452.88	0.001803
3462.52	0.001883
3472.17	0.002823
3481.81	0.004613
3491.46	0.009253
3501.1	0.016303
3510.75	0.013543
3520.39	0.007983
3530.04	0.004373
3539.68	0.002023
3549.32	0.0017154
3558.97	0.0010265
3568.61	0.00080601
3578.26	0.00078518
3587.9	0.000568
3597.55	0.000322
3607.19	0.0010108
3616.84	0.0007599
3626.48	0.000326
3636.13	0.0009074
3645.77	0.000801517
3655.42	0.0010424
3665.06	0.00084513
3674.71	0.0007176
3684.35	0.00088754
3694	0.0012454
3703.64	0.001394
3713.29	0.0010266
3722.93	0.0012381
3732.58	0.0007598
3742.22	0.000591
3751.86	0.00082113
3761.51	0.0007281
3771.15	0.00089021
3780.8	0.0010698
3790.44	0.000209
3800.09	0.0011318
3809.73	0.000442
3819.38	0.00052
3829.02	0.00082138
3838.67	0.0009678
3848.31	0.000638
3857.96	0.0010324
3867.6	0.0009112
3877.25	0.000517
3886.89	0.0013175
3896.54	0.0009908
3906.18	0.0010342
3915.83	0.0010561
3925.47	0.0007683
3935.12	0.000403
3944.76	0.000306
3954.41	0.000601
3964.05	0.0011865
3973.69	0.0014459
3983.34	0.000724
3992.98	0.00038
