Infrared Spectrum: Dipropylene glycol dibenzoate
Formula: C20 H22 O5
CAS: 20109-39-1
State: SOLUTION (10% CCl4 FOR 2.7-7.5, 10% CS2 FOR 7.5-26 MICRON) VS SOLVENT
Class: COBLENTZ III
Instrument: DOW KBr FOREPRISM-GRATING
Instrument parameters: BLAZED AT 3.5, 12.0, 20.0 MICRON AND CHANGED AT 5.0, 7.5, 14.9 MICRON
Sampling: TRANSMISSION
Path length: 0.011 CM, 0.011 CM
Resolution: 2
Origin: DOW CHEMICAL COMPANY
1/CM	TRANSMITTANCE
3800	0.8665
3791	0.864
3782	0.8615
3773	0.8601
3764	0.8602
3755	0.8605
3746	0.8612
3737	0.8618
3728	0.8625
3719	0.8632
3710	0.8632
3701	0.8631
3692	0.8631
3683	0.8616
3674	0.8573
3665	0.8547
3656	0.86
3647	0.8575
3638	0.8586
3629	0.8609
3620	0.8624
3611	0.8625
3602	0.8632
3593	0.8643
3584	0.8664
3575	0.8678
3566	0.868
3557	0.8682
3548	0.8686
3539	0.8687
3530	0.8689
3521	0.8703
3512	0.8717
3503	0.8739
3494	0.8762
3485	0.8785
3476	0.8803
3467	0.8817
3458	0.8831
3449	0.8834
3440	0.8816
3431	0.8736
3422	0.8621
3413	0.8559
3404	0.8574
3395	0.8674
3386	0.877
3377	0.8833
3368	0.8875
3359	0.8904
3350	0.8921
3341	0.8923
3332	0.8913
3323	0.8893
3314	0.8873
3305	0.8863
3296	0.8868
3287	0.8878
3278	0.8891
3269	0.8906
3260	0.8913
3251	0.8917
3242	0.8921
3233	0.8921
3224	0.8917
3215	0.8908
3206	0.8893
3197	0.8878
3188	0.8864
3179	0.884
3170	0.8797
3161	0.8715
3152	0.8774
3143	0.879
3134	0.8801
3125	0.8814
3116	0.8798
3107	0.86
3098	0.8418
3089	0.7406
3080	0.7736
3071	0.6432
3062	0.6493
3053	0.7543
3044	0.7658
3035	0.7399
3026	0.7551
3017	0.8078
3008	0.7719
2999	0.6767
2990	0.4525
2981	0.3722
2972	0.4868
2963	0.5869
2954	0.5823
2945	0.5395
2936	0.4935
2927	0.5599
2918	0.6293
2909	0.6273
2900	0.6112
2891	0.5857
2882	0.575
2873	0.5526
2864	0.5831
2855	0.6536
2846	0.695
2837	0.7644
2828	0.7992
2819	0.8155
2810	0.8172
2801	0.8192
2792	0.8253
2783	0.8325
2774	0.8386
2765	0.8403
2756	0.8405
2747	0.8418
2738	0.845
2729	0.8488
2720	0.8527
2711	0.8568
2702	0.861
2693	0.8648
2684	0.8678
2675	0.8692
2666	0.8699
2657	0.87
2648	0.8698
2639	0.8697
2630	0.8681
2621	0.867
2612	0.8663
2603	0.8653
2594	0.8642
2585	0.8632
2576	0.8636
2567	0.8657
2558	0.8675
2549	0.8675
2540	0.8675
2531	0.8678
2522	0.8686
2513	0.8706
2504	0.8731
2495	0.8742
2486	0.875
2477	0.8754
2468	0.8758
2459	0.8761
2450	0.8764
2441	0.8767
2432	0.877
2423	0.8771
2414	0.8771
2405	0.8746
2396	0.8694
2387	0.8625
2378	0.8613
2369	0.8625
2360	0.8641
2351	0.8654
2342	0.867
2333	0.8686
2324	0.8693
2315	0.8694
2306	0.8691
2297	0.8688
2288	0.8683
2279	0.8673
2270	0.8685
2261	0.8684
2252	0.8649
2243	0.8671
2234	0.8686
2225	0.8696
2216	0.8712
2207	0.8728
2198	0.8738
2189	0.8758
2180	0.8834
2171	0.8833
2162	0.8807
2153	0.8795
2144	0.8755
2135	0.8718
2126	0.8707
2117	0.8706
2108	0.8704
2099	0.8703
2090	0.8707
2081	0.8721
2072	0.8732
2063	0.8741
2054	0.8749
2045	0.8753
2036	0.8754
2027	0.8747
2018	0.8737
2009	0.8727
2000	0.8718
1991	0.8663
1982	0.8624
1973	0.8398
1964	0.8313
1955	0.8018
1946	0.836
1937	0.8518
1928	0.8538
1919	0.8187
1910	0.8218
1901	0.8108
1892	0.8523
1883	0.8647
1874	0.866
1865	0.8671
1856	0.8684
1847	0.8668
1838	0.8601
1829	0.8462
1820	0.8268
1811	0.788
1802	0.8089
1793	0.8128
1784	0.7878
1775	0.7538
1766	0.7538
1757	0.7558
1748	0.7005
1739	0.3627
1730	0.0625
1721	0.0045
1712	0.0097
1703	0.3475
1694	0.5277
1685	0.6124
1676	0.6728
1667	0.7445
1658	0.7715
1649	0.7689
1640	0.7701
1631	0.8041
1622	0.805
1613	0.7728
1604	0.401
1595	0.7183
1586	0.522
1577	0.7569
1568	0.7971
1559	0.7999
1550	0.8078
1541	0.8195
1532	0.8212
1523	0.825
1514	0.8175
1505	0.8182
1496	0.6814
1487	0.7576
1478	0.7267
1469	0.6394
1460	0.271
1451	0.3472
1442	0.6366
1433	0.7351
1424	0.7575
1415	0.7531
1406	0.7074
1397	0.5567
1388	0.3912
1379	0.3792
1370	0.5055
1361	0.461
1352	0.4369
1343	0.4691
1334	0.513
1325	0.4021
1316	0.1446
1307	0.3926
1298	0.3439
1289	0.1877
1280	0.0172
1271	0.0017
1262	0.0117
1253	0.118
1244	0.1734
1235	0.486
1226	0.6133
1217	0.6855
1208	0.7118
1199	0.7139
1190	0.6895
1181	0.3504
1172	0.2862
1163	0.3119
1154	0.3114
1145	0.3309
1136	0.2869
1127	0.1308
1118	0.035
1109	0.0146
1100	0.0335
1091	0.0483
1082	0.2072
1073	0.1332
1064	0.2058
1055	0.4521
1046	0.6475
1037	0.6711
1028	0.0708
1019	0.5327
1010	0.635
1001	0.6489
992	0.6864
983	0.6058
974	0.6495
965	0.6832
956	0.7253
947	0.7356
938	0.5812
929	0.6262
920	0.6901
911	0.7221
902	0.7531
893	0.7844
884	0.8004
875	0.7889
866	0.765
857	0.7106
848	0.6371
839	0.7307
830	0.7553
821	0.7722
812	0.7774
803	0.7375
794	0.7932
785	0.8236
776	0.8309
767	0.8325
758	0.8233
749	0.8099
740	0.7915
731	0.7318
722	0.5608
713	0.0033
704	0.0788
695	0.5927
686	0.3185
677	0.5785
668	0.7458
659	0.8078
650	0.806
641	0.8125
632	0.816
623	0.827
614	0.8121
605	0.8195
596	0.8297
587	0.8271
578	0.8132
569	0.8082
560	0.8117
551	0.8128
542	0.8119
533	0.8001
524	0.7869
515	0.7789
506	0.775
497	0.7751
488	0.7748
479	0.7692
470	0.7604
461	0.7547
452	0.7515
443	0.7504
434	0.7499
425	0.7498
416	0.7501
407	0.7511
398	0.7542
