Infrared Spectrum: Ethyl 3-morpholinopropionate
Formula: C 9 H 17 N O 3
CAS: 20120-24-5
State: gas
Origin: EPA-IR VAPOR PHASE LIBRARY
1/CM	ABSORBANCE
549.8	0.000843
559.445	0.000634
569.09	0.000545
578.735	0.0009185
588.38	0.0011302
598.025	0.00182
607.67	0.003056
617.315	0.004986
626.96	0.003636
636.605	0.002236
646.251	0.0017676
655.896	0.001349
665.541	0.0014672
675.186	0.0011427
684.831	0.00106616
694.476	0.001251
704.121	0.0014411
713.766	0.0014154
723.411	0.0014095
733.056	0.0015246
742.701	0.002136
752.346	0.002996
761.991	0.004706
771.636	0.006406
781.281	0.004596
790.926	0.003806
800.571	0.003446
810.216	0.002766
819.861	0.002476
829.507	0.002856
839.152	0.004246
848.797	0.008176
858.442	0.016056
868.087	0.014946
877.732	0.010186
887.377	0.006426
897.022	0.006226
906.667	0.008196
916.312	0.009566
925.957	0.011116
935.602	0.012266
945.247	0.008036
954.892	0.005206
964.537	0.004766
974.182	0.005576
983.827	0.006836
993.472	0.009306
1003.12	0.019226
1012.76	0.030386
1022.41	0.031176
1032.05	0.033766
1041.7	0.030626
1051.34	0.029916
1060.99	0.025506
1070.63	0.018936
1080.28	0.016106
1089.92	0.019846
1099.57	0.031006
1109.21	0.050206
1118.86	0.083846
1128.5	0.106996
1138.15	0.097396
1147.79	0.071486
1157.44	0.057766
1167.08	0.058286
1176.73	0.068376
1186.37	0.074866
1196.02	0.067926
1205.66	0.053506
1215.31	0.041626
1224.95	0.038836
1234.6	0.045556
1244.24	0.055126
1253.89	0.053856
1263.53	0.039486
1273.18	0.031386
1282.82	0.032256
1292.47	0.036846
1302.11	0.037466
1311.76	0.032496
1321.4	0.026626
1331.05	0.023016
1340.69	0.022286
1350.34	0.024226
1359.98	0.026686
1369.63	0.029896
1379.27	0.023586
1388.92	0.015126
1398.56	0.014316
1408.21	0.011956
1417.85	0.009936
1427.5	0.010526
1437.14	0.012906
1446.79	0.016866
1456.43	0.019546
1466.08	0.017456
1475.73	0.011326
1485.37	0.006296
1495.02	0.003856
1504.66	0.002796
1514.31	0.002236
1523.95	0.0019344
1533.6	0.0017767
1543.24	0.0016043
1552.89	0.0015045
1562.53	0.0014571
1572.18	0.0012985
1581.82	0.0013555
1591.47	0.001355
1601.11	0.0013521
1610.76	0.0014741
1620.4	0.0015848
1630.05	0.0016739
1639.69	0.0017417
1649.34	0.0017565
1658.98	0.00193
1668.63	0.002186
1678.27	0.002726
1687.92	0.003746
1697.56	0.005546
1707.21	0.008346
1716.85	0.012106
1726.5	0.019496
1736.14	0.040956
1745.79	0.083306
1755.43	0.105986
1765.08	0.063666
1774.72	0.025976
1784.37	0.012586
1794.01	0.007616
1803.66	0.005056
1813.3	0.003546
1822.95	0.002626
1832.59	0.002036
1842.24	0.0017515
1851.88	0.0015915
1861.53	0.001547
1871.17	0.0016429
1880.82	0.0017137
1890.46	0.0018055
1900.11	0.0018014
1909.75	0.0017988
1919.4	0.0018541
1929.04	0.0017171
1938.69	0.0016059
1948.33	0.0015767
1957.98	0.0016481
1967.62	0.0018386
1977.27	0.002066
1986.91	0.0018919
1996.56	0.0016655
2006.2	0.0014554
2015.85	0.0014052
2025.49	0.0014043
2035.14	0.0013292
2044.78	0.0014047
2054.43	0.0013917
2064.07	0.0013682
2073.72	0.0013491
2083.36	0.0012591
2093.01	0.0012234
2102.65	0.0011698
2112.3	0.00108386
2121.94	0.00108223
2131.59	0.00105947
2141.23	0.0009187
2150.88	0.0009396
2160.52	0.0009576
2170.17	0.000879
2179.81	0.000809
2189.46	0.000812
2199.1	0.000821
2208.75	0.0009646
2218.39	0.0009237
2228.04	0.00103795
2237.68	0.0011108
2247.33	0.0011076
2256.97	0.00101845
2266.62	0.00105234
2276.26	0.00103936
2285.91	0.00112
2295.55	0.0010977
2305.2	0.0011609
2314.84	0.0011025
2324.49	0.00098774
2334.13	0.00100702
2343.78	0.00101719
2353.42	0.0009253
2363.07	0.000997159
2372.72	0.0009748
2382.36	0.00100088
2392.01	0.00101354
2401.65	0.00102283
2411.3	0.00098638
2420.94	0.000943
2430.59	0.0009373
2440.23	0.000845
2449.88	0.0009044
2459.52	0.000893
2469.17	0.0009588
2478.81	0.00106371
2488.46	0.00099204
2498.1	0.0009333
2507.75	0.00099067
2517.39	0.000821
2527.04	0.000876
2536.68	0.000883
2546.33	0.0009848
2555.97	0.00109389
2565.62	0.0011253
2575.26	0.0011458
2584.91	0.0010992
2594.55	0.0012049
2604.2	0.0013373
2613.84	0.0015408
2623.49	0.0016541
2633.13	0.002036
2642.78	0.002606
2652.42	0.003226
2662.07	0.003696
2671.71	0.004416
2681.36	0.005636
2691	0.006446
2700.65	0.006246
2710.29	0.006136
2719.94	0.006886
2729.58	0.007986
2739.23	0.008996
2748.87	0.010846
2758.52	0.013166
2768.16	0.015196
2777.81	0.017176
2787.45	0.021716
2797.1	0.031846
2806.74	0.045456
2816.39	0.046456
2826.03	0.037886
2835.68	0.029866
2845.32	0.028296
2854.97	0.041266
2864.61	0.049506
2874.26	0.033536
2883.9	0.025456
2893.55	0.026026
2903.19	0.028966
2912.84	0.030606
2922.48	0.034856
2932.13	0.041206
2941.77	0.047606
2951.42	0.047836
2961.06	0.056626
2970.71	0.074676
2980.35	0.053386
2990	0.035716
2999.64	0.021216
3009.29	0.012796
3018.93	0.007566
3028.58	0.004666
3038.22	0.003246
3047.87	0.002506
3057.51	0.0019516
3067.16	0.001574
3076.8	0.0012304
3086.45	0.0011244
3096.09	0.0011063
3105.74	0.000998054
3115.38	0.00106547
3125.03	0.00106067
3134.67	0.000831
3144.32	0.000871
3153.96	0.000825
3163.61	0.000759
3173.25	0.000802
3182.9	0.000538
3192.54	0.000593
3202.19	0.00062
3211.83	0.000418
3221.48	0.000406
3231.12	0.000511
3240.77	0.000364
3250.41	0.000294
3260.06	0.000312
3269.7	0.000299
3279.35	0.000186
3289	0.000152
3298.64	0.00022
3308.29	0.000313
3317.93	0.00025
3327.58	0.000187
3337.22	0.000151
3346.87	0.000243
3356.51	0.00034
3366.16	0.000248
3375.8	0.000256
3385.45	0.000104
3395.09	0.000225
3404.74	0.000134
3414.38	0.000184
3424.03	0.000211
3433.67	0.00032
3443.32	0.000319
3452.96	0.000264
3462.61	0.000414
3472.25	0.00073
3481.9	0.0010744
3491.54	0.00104916
3501.19	0.000841
3510.83	0.000568
3520.48	0.000403
3530.12	0.000197
3539.77	0.000228
3549.41	0.00027
3559.06	0.000208
3568.7	0.000175
3578.35	0.000242
3587.99	0.000238
3597.64	0.000186
3607.28	0.000175
3616.93	0.000142
3626.57	1.7e-05
3636.22	9.3e-05
3645.86	6.9e-05
3655.51	0.000206
3665.15	0.000125
3674.8	7.9e-05
3684.44	0.000206
3694.09	0.000275
3703.73	0.00038
3713.38	0.000297
3723.02	0.000345
3732.67	0.000343
3742.31	0.00031
3751.96	0.000353
3761.6	0.000213
3771.25	0.000399
3780.89	0.000237
3790.54	0.000363
3800.18	0.000409
3809.83	0.000402
3819.47	0.000477
3829.12	0.000412
3838.76	0.000596
3848.41	0.000394
3858.05	0.000457
3867.7	0.000484
3877.34	0.00061
3886.99	0.000306
3896.63	0.000352
3906.28	0.000408
3915.92	0.000572
3925.57	0.000742
3935.21	0.000637
3944.86	0.000638
3954.5	0.000699
3964.15	0.000746
3973.79	0.000977
3983.44	0.00101441
3993.08	0.000836
