Infrared Spectrum: cis-3-Octen-1-ol
Formula: C 8 H 16 O
CAS: 20125-84-2
State: gas
Instrument: HP-GC/MS/IRD
Origin: NIST Mass Spectrometry Data Center
1/CM	ABSORBANCE
550	0.0004843
562	0.0001276
574	0.0003683
586	0.0007018
598	0.0006931
610	0.0003393
622	0.0002871
634	0.0002668
646	0.000435
658	0.0005974
670	0.0010556
682	0.0016588
694	0.0025607
706	0.0032451
718	0.0031146
730	0.0024128
742	0.0017429
754	0.0012064
766	0.0008294
778	0.0005887
790	0.0006467
802	0.0006177
814	0.0006728
826	0.0008062
838	0.000957
850	0.0011426
862	0.0014558
874	0.0016211
886	0.0013514
898	0.000928
910	0.0007105
922	0.0007221
934	0.0008004
946	0.0009019
958	0.0011542
970	0.0015892
982	0.0022446
994	0.0032799
1006	0.0046168
1018	0.0062843
1030	0.0098629
1042	0.0148857
1054	0.0138272
1066	0.0081751
1078	0.0041644
1090	0.0023925
1102	0.0017429
1114	0.0013746
1126	0.0011716
1138	0.0011455
1150	0.0012499
1162	0.0014152
1174	0.001566
1186	0.001682
1198	0.0017052
1210	0.0016733
1222	0.0015805
1234	0.0015776
1246	0.001653
1258	0.0017081
1270	0.0017487
1282	0.0018212
1294	0.0019517
1306	0.00203
1318	0.0019749
1330	0.0019488
1342	0.0020851
1354	0.0022011
1366	0.002871
1378	0.0041876
1390	0.0041441
1402	0.0031349
1414	0.0022272
1426	0.0019836
1438	0.0024128
1450	0.0030015
1462	0.0032161
1474	0.0027028
1486	0.0016124
1498	0.0007975
1510	0.0004611
1522	0.00029
1534	0.0002117
1546	0.0001537
1558	0.0001102
1570	8.99e-05
1582	9.57e-05
1594	7.25e-05
1606	6.96e-05
1618	0.0001363
1630	0.0002349
1642	0.0004176
1654	0.0005365
1666	0.0004524
1678	0.0003799
1690	0.0003161
1702	0.0002523
1714	0.0001827
1726	0.0001189
1738	9.57e-05
1750	4.64e-05
1762	4.06e-05
1774	6.09e-05
1786	2.61e-05
1798	2.32e-05
1810	2.32e-05
1822	1.16e-05
1834	8.7e-06
1846	1.74e-05
1858	3.19e-05
1870	5.8e-06
1882	4.06e-05
1894	8.12e-05
1906	6.09e-05
1918	7.25e-05
1930	8.12e-05
1942	7.83e-05
1954	4.93e-05
1966	2.32e-05
1978	2.61e-05
1990	2.03e-05
2002	5.8e-05
2014	9.28e-05
2026	9.86e-05
2038	0.0001711
2050	0.0001566
2062	0.0001392
2074	0.0001537
2086	0.0001421
2098	0.0001247
2110	7.54e-05
2122	8.12e-05
2134	8.41e-05
2146	8.41e-05
2158	7.25e-05
2170	7.54e-05
2182	9.86e-05
2194	5.8e-05
2206	6.67e-05
2218	8.41e-05
2230	7.83e-05
2242	6.67e-05
2254	8.12e-05
2266	9.28e-05
2278	0.000116
2290	0.0001218
2302	0.0001102
2314	9.28e-05
2326	0.0001276
2338	0.000116
2350	0.0001218
2362	0.0001073
2374	0.000145
2386	0.0001276
2398	0.0001624
2410	0.0001769
2422	0.0001798
2434	0.0001653
2446	0.0001827
2458	0.0001508
2470	0.0001595
2482	0.0001653
2494	0.0001798
2506	0.0001711
2518	0.0001682
2530	0.0001769
2542	0.0001914
2554	0.0001798
2566	0.0001943
2578	0.0002378
2590	0.0002349
2602	0.0002465
2614	0.0002668
2626	0.0003074
2638	0.000377
2650	0.0004553
2662	0.0004727
2674	0.0005249
2686	0.0005539
2698	0.0005771
2710	0.0006177
2722	0.0007105
2734	0.0008207
2746	0.0010005
2758	0.0010382
2770	0.0010846
2782	0.001247
2794	0.0014732
2806	0.0018096
2818	0.0023751
2830	0.0034075
2842	0.0053331
2854	0.0090799
2866	0.014036
2878	0.0172434
2890	0.0164546
2902	0.0160341
2914	0.0198389
2926	0.0262595
2938	0.029
2950	0.0255316
2962	0.0249342
2974	0.0210685
2986	0.0107648
2998	0.0075342
3010	0.0091031
3022	0.0083346
3034	0.004466
3046	0.0021141
3058	0.0013659
3070	0.0011281
3082	0.0008903
3094	0.0006815
3106	0.0006003
3118	0.0004437
3130	0.0004176
3142	0.0003625
3154	0.0003277
3166	0.0002755
3178	0.0002726
3190	0.0002146
3202	0.0001798
3214	0.0002117
3226	0.0001479
3238	0.0001421
3250	0.0001334
3262	0.0001421
3274	0.0001218
3286	0.0001044
3298	0.0001102
3310	5.51e-05
3322	9.28e-05
3334	0.0001218
3346	0.0001044
3358	0.0001247
3370	7.83e-05
3382	9.28e-05
3394	9.28e-05
3406	0.0001189
3418	0.0001479
3430	0.000145
3442	0.000174
3454	0.0001276
3466	0.0001218
3478	0.0001392
3490	0.0001653
3502	0.0001653
3514	0.0001856
3526	0.000145
3538	0.0001653
3550	0.000145
3562	0.0001769
3574	0.0002059
3586	0.0002204
3598	0.000406
3610	0.0007047
3622	0.0010266
3634	0.001131
3646	0.0014384
3658	0.0020967
3670	0.0024331
3682	0.0015834
3694	0.0007453
3706	0.0004553
3718	0.0002639
3730	0.0002204
3742	0.0002262
3754	0.0002146
3766	0.0001711
3778	0.0001914
3790	0.0001798
3802	0.0001682
3814	0.0002175
3826	0.000232
3838	0.0002523
