Infrared Spectrum: 2-(p-Chlorophenyl)-3-methylbutyric acid
Formula: C11 H13 Cl O2
CAS: 2012-74-0
State: gas
Origin: EPA-IR VAPOR PHASE LIBRARY
1/CM	ABSORBANCE
549.8	0.013642
559.445	0.017902
569.09	0.020592
578.734	0.018512
588.379	0.011002
598.024	0.007502
607.669	0.007112
617.313	0.008282
626.958	0.009682
636.603	0.011092
646.248	0.017302
655.893	0.017012
665.537	0.007992
675.182	0.004862
684.827	0.003412
694.472	0.003222
704.116	0.004312
713.761	0.006772
723.406	0.006572
733.051	0.006142
742.695	0.009482
752.34	0.013842
761.985	0.007982
771.63	0.004612
781.275	0.004732
790.919	0.005252
800.564	0.006412
810.209	0.011732
819.854	0.015512
829.498	0.010392
839.143	0.005132
848.788	0.002872
858.433	0.002652
868.078	0.002942
877.722	0.002902
887.367	0.002712
897.012	0.002512
906.657	0.002522
916.301	0.002162
925.946	0.002532
935.591	0.002892
945.236	0.002192
954.88	0.002612
964.525	0.003022
974.17	0.002672
983.815	0.002642
993.46	0.002972
1003.1	0.004162
1012.75	0.017552
1022.39	0.013792
1032.04	0.004052
1041.68	0.004602
1051.33	0.006112
1060.97	0.008102
1070.62	0.014322
1080.26	0.031242
1089.91	0.074972
1099.55	0.072922
1109.2	0.043692
1118.84	0.035802
1128.49	0.036482
1138.13	0.038192
1147.78	0.034992
1157.42	0.028112
1167.07	0.018942
1176.71	0.011762
1186.36	0.009622
1196	0.008792
1205.64	0.006342
1215.29	0.005252
1224.93	0.005502
1234.58	0.005822
1244.22	0.006562
1253.87	0.006832
1263.51	0.007452
1273.16	0.007212
1282.8	0.007002
1292.45	0.007642
1302.09	0.008082
1311.74	0.007292
1321.38	0.006992
1331.03	0.007292
1340.67	0.008012
1350.32	0.009342
1359.96	0.010872
1369.61	0.012772
1379.25	0.012112
1388.9	0.010282
1398.54	0.009172
1408.18	0.007352
1417.83	0.006372
1427.47	0.004052
1437.12	0.003792
1446.76	0.005152
1456.41	0.007122
1466.05	0.009822
1475.7	0.013842
1485.34	0.026272
1494.99	0.038212
1504.63	0.011352
1514.28	0.003802
1523.92	0.002392
1533.57	0.001892
1543.21	0.001542
1552.86	0.001332
1562.5	0.0012958
1572.15	0.001432
1581.79	0.001882
1591.44	0.003522
1601.08	0.003562
1610.73	0.001922
1620.37	0.001762
1630.01	0.002082
1639.66	0.002112
1649.3	0.001732
1658.95	0.001462
1668.59	0.001442
1678.24	0.001582
1687.88	0.001962
1697.53	0.002432
1707.17	0.003502
1716.82	0.006132
1726.46	0.011142
1736.11	0.012532
1745.75	0.017772
1755.4	0.042772
1765.04	0.096152
1774.69	0.080992
1784.33	0.030312
1793.98	0.015482
1803.62	0.012722
1813.27	0.008802
1822.91	0.004522
1832.55	0.002902
1842.2	0.002242
1851.84	0.001742
1861.49	0.001542
1871.13	0.001572
1880.78	0.001762
1890.42	0.002362
1900.07	0.001992
1909.71	0.0012531
1919.36	0.0010747
1929	0.0008739
1938.65	0.0008167
1948.29	0.0007272
1957.94	0.0007008
1967.58	0.0006124
1977.23	0.000619
1986.87	0.0006264
1996.52	0.0005571
2006.16	0.000576
2015.81	0.0006549
2025.45	0.0005293
2035.1	0.0006324
2044.74	0.0006103
2054.38	0.0005461
2064.03	0.0004657
2073.67	0.0005036
2083.32	0.0004263
2092.96	0.00055
2102.61	0.00051
2112.25	0.0004909
2121.9	0.00038399
2131.54	0.00040373
2141.19	0.00035563
2150.83	0.0004427
2160.48	0.000535
2170.12	0.0006123
2179.77	0.000689
2189.41	0.0006741
2199.06	0.0007533
2208.7	0.0006483
2218.35	0.0006281
2227.99	0.0006198
2237.64	0.0006026
2247.28	0.0006651
2256.92	0.0006123
2266.57	0.0006251
2276.21	0.0006171
2285.86	0.0006872
2295.5	0.0006902
2305.15	0.0006253
2314.79	0.0005693
2324.44	0.0006373
2334.08	0.0006737
2343.73	0.0006102
2353.37	0.0006564
2363.02	0.000675
2372.66	0.0005641
2382.31	0.0005164
2391.95	0.0005977
2401.6	0.0005776
2411.24	0.0005754
2420.89	0.0007478
2430.53	0.0005295
2440.18	0.0006429
2449.82	0.0005609
2459.47	0.0005341
2469.11	0.0005173
2478.75	0.0004895
2488.4	0.0005158
2498.04	0.000506
2507.69	0.0005153
2517.33	0.0004748
2526.98	0.0004375
2536.62	0.00041965
2546.27	0.0004874
2555.91	0.0005084
2565.56	0.0005956
2575.2	0.000508
2584.85	0.0007408
2594.49	0.000628
2604.14	0.0007128
2613.78	0.0007971
2623.43	0.0004949
2633.07	0.0004973
2642.72	0.0005835
2652.36	0.000501
2662.01	0.0005481
2671.65	0.0005371
2681.29	0.0007506
2690.94	0.0006458
2700.58	0.0005503
2710.23	0.0005408
2719.87	0.000672
2729.52	0.0007514
2739.16	0.0009712
2748.81	0.0009252
2758.45	0.0007676
2768.1	0.0007899
2777.74	0.0008349
2787.39	0.0008503
2797.03	0.0008004
2806.68	0.0008845
2816.32	0.001143
2825.97	0.001352
2835.61	0.001512
2845.26	0.001732
2854.9	0.002272
2864.55	0.003422
2874.19	0.007392
2883.84	0.012052
2893.48	0.009572
2903.12	0.008072
2912.77	0.009132
2922.41	0.011222
2932.06	0.015842
2941.7	0.018992
2951.35	0.016122
2960.99	0.022172
2970.64	0.036252
2980.28	0.032222
2989.93	0.014442
2999.57	0.005362
3009.22	0.003142
3018.86	0.002812
3028.51	0.003712
3038.15	0.004412
3047.8	0.003302
3057.44	0.002542
3067.09	0.001942
3076.73	0.002382
3086.38	0.003562
3096.02	0.003482
3105.67	0.002282
3115.31	0.001402
3124.95	0.0011571
3134.6	0.0007524
3144.24	0.0008216
3153.89	0.0007602
3163.53	0.0008086
3173.18	0.0006092
3182.82	0.00076
3192.47	0.0006964
3202.11	0.0005631
3211.76	0.0006477
3221.4	0.0004306
3231.05	0.00031976
3240.69	0.000306
3250.34	0.0002734
3259.98	0.0004345
3269.63	0.0004552
3279.27	0.00035703
3288.92	0.0002528
3298.56	0.000446
3308.21	0.0004616
3317.85	0.00038886
3327.49	0.00038476
3337.14	0.00033639
3346.78	0.00014
3356.43	0.000128
3366.07	0.00031689
3375.72	9.8e-05
3385.36	0.0004921
3395.01	0.00038442
3404.65	0.00034372
3414.3	0.0002948
3423.94	0.00032485
3433.59	0.0004708
3443.23	0.000331933
3452.88	0.0005493
3462.52	0.000267
3472.17	0.0004475
3481.81	0.00031638
3491.46	0.0004991
3501.1	0.0006304
3510.75	0.0012699
3520.39	0.001662
3530.04	0.001402
3539.68	0.001742
3549.32	0.003912
3558.97	0.020512
3568.61	0.041492
3578.26	0.017052
3587.9	0.002922
3597.55	0.001362
3607.19	0.0013057
3616.84	0.0008821
3626.48	0.0007486
3636.13	0.000403
3645.77	0.00035822
3655.42	0.0004339
3665.06	0.0004358
3674.71	0.000358
3684.35	0.00040177
3694	0.0004423
3703.64	0.0003599
3713.29	0.0004601
3722.93	0.00041543
3732.58	0.0003102
3742.22	0.000205
3751.86	0.0003621
3761.51	0.0005031
3771.15	0.00040609
3780.8	0.00033406
3790.44	0.0002888
3800.09	0.00038334
3809.73	0.00031963
3819.38	0.0004365
3829.02	0.000206
3838.67	0.0002653
3848.31	0.0002605
3857.96	0.0002714
3867.6	0.0002605
3877.25	0.00041336
3886.89	0.0005938
3896.54	0.0003675
3906.18	0.00038661
3915.83	0
3925.47	0.00036868
3935.12	0.000321659
3944.76	0.000221
3954.41	0.000248
3964.05	0.000123
3973.69	0.00040391
3983.34	0.0002827
3992.98	0.00034202
