Infrared Spectrum: trans-2-Octen-4-ol
Formula: C 8 H 16 O
CAS: 20125-81-9
State: gas
Instrument: HP-GC/MS/IRD
Origin: NIST Mass Spectrometry Data Center
1/CM	ABSORBANCE
550	0.000612
562	0.000176
574	0.000236
586	0.000136
598	8e-06
610	1.6e-05
622	6.6e-05
634	6.4e-05
646	0.000102
658	0.000126
670	0.000106
682	8e-05
694	9e-05
706	0.00013
718	0.00021
730	0.000396
742	0.000434
754	0.0003
766	0.000244
778	0.00027
790	0.00035
802	0.000348
814	0.000278
826	0.000282
838	0.000374
850	0.000504
862	0.00064
874	0.000774
886	0.001036
898	0.00124
910	0.001462
922	0.001684
934	0.00213
946	0.003146
958	0.00535
970	0.00597
982	0.004596
994	0.004278
1006	0.004448
1018	0.00502
1030	0.005182
1042	0.004436
1054	0.003584
1066	0.00296
1078	0.002428
1090	0.002082
1102	0.001954
1114	0.002048
1126	0.00204
1138	0.00182
1150	0.001426
1162	0.001118
1174	0.001094
1186	0.001302
1198	0.00165
1210	0.001886
1222	0.002008
1234	0.0021
1246	0.002288
1258	0.002288
1270	0.002098
1282	0.001868
1294	0.001834
1306	0.00185
1318	0.00175
1330	0.001906
1342	0.002236
1354	0.00253
1366	0.002822
1378	0.00323
1390	0.002872
1402	0.001864
1414	0.00142
1426	0.00144
1438	0.001922
1450	0.002538
1462	0.002714
1474	0.002002
1486	0.001112
1498	0.000712
1510	0.000506
1522	0.000396
1534	0.000328
1546	0.000256
1558	0.000226
1570	0.00017
1582	0.000156
1594	0.000128
1606	0.000126
1618	0.00013
1630	0.000154
1642	0.000206
1654	0.000438
1666	0.000716
1678	0.00059
1690	0.00022
1702	0.000116
1714	0.000108
1726	0.000134
1738	0.000188
1750	0.000222
1762	0.000174
1774	0.000132
1786	8.2e-05
1798	8e-05
1810	8.4e-05
1822	8e-05
1834	8.2e-05
1846	8.6e-05
1858	3.4e-05
1870	4e-05
1882	4e-05
1894	3.8e-05
1906	3.4e-05
1918	3.2e-05
1930	3.4e-05
1942	4e-05
1954	4e-05
1966	1.4e-05
1978	4.8e-05
1990	9e-05
2002	0.000106
2014	6.6e-05
2026	5.8e-05
2038	4.6e-05
2050	4.2e-05
2062	3e-05
2074	3.4e-05
2086	3e-05
2098	2.2e-05
2110	2.8e-05
2122	8e-06
2134	2.8e-05
2146	3.2e-05
2158	1.6e-05
2170	3.2e-05
2182	1.6e-05
2194	2.8e-05
2206	2.8e-05
2218	2.4e-05
2230	2e-05
2242	2.4e-05
2254	2e-06
2266	2e-05
2278	4e-06
2290	2.8e-05
2302	3.2e-05
2314	3.8e-05
2326	7e-05
2338	8.2e-05
2350	5.8e-05
2362	7e-05
2374	6.2e-05
2386	5.6e-05
2398	7.2e-05
2410	6e-05
2422	7.6e-05
2434	7.6e-05
2446	5.8e-05
2458	4.8e-05
2470	5.4e-05
2482	3.8e-05
2494	6.4e-05
2506	3.6e-05
2518	5e-05
2530	7e-05
2542	9e-05
2554	9.6e-05
2566	0.000106
2578	0.0001
2590	0.000108
2602	0.00013
2614	0.000132
2626	0.000162
2638	0.000194
2650	0.000204
2662	0.00022
2674	0.000248
2686	0.000278
2698	0.00028
2710	0.000296
2722	0.000346
2734	0.000486
2746	0.000578
2758	0.000502
2770	0.000502
2782	0.000592
2794	0.000722
2806	0.000928
2818	0.001232
2830	0.001824
2842	0.003056
2854	0.0056
2866	0.009166
2878	0.010512
2890	0.00908
2902	0.008556
2914	0.011482
2926	0.01734
2938	0.02
2950	0.016312
2962	0.015076
2974	0.0133
2986	0.007354
2998	0.004702
3010	0.003822
3022	0.003318
3034	0.0026
3046	0.001864
3058	0.001272
3070	0.000978
3082	0.000786
3094	0.000614
3106	0.000488
3118	0.000418
3130	0.000382
3142	0.000298
3154	0.000254
3166	0.000174
3178	0.000198
3190	0.000148
3202	0.000136
3214	0.000118
3226	6e-05
3238	5.4e-05
3250	5.2e-05
3262	6e-06
3274	6e-05
3286	3.2e-05
3298	2.2e-05
3310	4.2e-05
3322	2e-05
3334	8e-06
3346	5.8e-05
3358	4.6e-05
3370	6.6e-05
3382	3e-05
3394	7e-05
3406	6.4e-05
3418	7.2e-05
3430	8.2e-05
3442	8.2e-05
3454	7.6e-05
3466	5e-05
3478	7e-05
3490	7.8e-05
3502	6e-05
3514	7.6e-05
3526	1.2e-05
3538	6.6e-05
3550	7.2e-05
3562	5.2e-05
3574	7.2e-05
3586	9e-05
3598	0.000148
3610	0.000236
3622	0.000448
3634	0.001094
3646	0.001892
3658	0.001324
3670	0.000486
3682	0.00023
3694	0.000148
3706	9.8e-05
3718	9.2e-05
3730	6.4e-05
3742	9e-05
3754	0.000118
3766	7.2e-05
3778	5e-05
3790	9.4e-05
3802	8.2e-05
3814	0.00013
3826	0.000186
3838	0.000108
