Infrared Spectrum: TOLUIDIDE, 4'-CHLORO-o-ACETOACETO-
Formula: C11 H12 Cl N O2
CAS: 20139-55-3
State: SOLID (SPLIT MULL)
Melting point: 87 C
Class: COBLENTZ III
Instrument: BECKMAN IR-9 (GRATING)
Instrument parameters: ORDER CHANGES: 670, 1200, 2000 CM^-^1
Sampling: TRANSMISSION
Resolution: 2
Origin: DOW CHEMICAL COMPANY
1/CM	TRANSMITTANCE
403	0.4814
412	0.4783
421	0.4544
430	0.5141
439	0.5533
448	0.5922
457	0.6166
466	0.6699
475	0.6933
484	0.7155
493	0.7297
502	0.7434
511	0.7571
520	0.7676
529	0.7744
538	0.7765
547	0.7804
556	0.596
565	0.7758
574	0.7644
583	0.5862
592	0.7776
601	0.7431
610	0.7944
619	0.8024
628	0.6612
637	0.7878
646	0.8158
655	0.8237
664	0.8267
673	0.8252
682	0.8047
691	0.7903
700	0.7251
709	0.7721
718	0.7384
727	0.7039
736	0.6718
745	0.5775
754	0.5727
763	0.6943
772	0.7456
781	0.7821
790	0.8051
799	0.8208
808	0.8339
817	0.8301
826	0.8074
835	0.4546
844	0.5553
853	0.7928
862	0.8194
871	0.8261
880	0.7798
889	0.4801
898	0.788
907	0.8614
916	0.8678
925	0.8685
934	0.8741
943	0.8714
952	0.8632
961	0.8368
970	0.8562
979	0.8509
988	0.7688
997	0.8121
1006	0.8122
1015	0.841
1024	0.8081
1033	0.583
1042	0.72
1051	0.7675
1060	0.779
1069	0.7751
1078	0.7653
1087	0.7572
1096	0.6865
1105	0.7437
1114	0.7574
1123	0.7443
1132	0.6547
1141	0.7565
1150	0.7128
1159	0.503
1168	0.5781
1177	0.7501
1186	0.7595
1195	0.5742
1204	0.7696
1213	0.7849
1222	0.7787
1231	0.7378
1240	0.7007
1249	0.7424
1258	0.6047
1267	0.6819
1276	0.6965
1285	0.7542
1294	0.6976
1303	0.5577
1312	0.3448
1321	0.6648
1330	0.7625
1339	0.7187
1348	0.6637
1357	0.3626
1366	0.2842
1375	0.3097
1384	0.4038
1393	0.5806
1402	0.4912
1411	0.5242
1420	0.5192
1429	0.5
1438	0.3989
1447	0.4397
1456	0.5274
1465	0.5424
1474	0.4537
1483	0.3582
1492	0.5276
1501	0.5202
1510	0.4554
1519	0.3906
1528	0.2623
1537	0.1573
1546	0.1542
1555	0.5033
1564	0.7021
1573	0.5578
1582	0.3386
1591	0.3784
1600	0.5581
1609	0.3854
1618	0.5718
1627	0.5953
1636	0.5958
1645	0.5981
1654	0.5698
1663	0.4954
1672	0.3181
1681	0.4481
1690	0.6391
1699	0.6194
1708	0.3425
1717	0.2615
1726	0.7
1735	0.7811
1744	0.8055
1753	0.8567
1762	0.8845
1771	0.8765
1780	0.881
1789	0.875
1798	0.861
1807	0.8695
1816	0.8687
1825	0.8654
1834	0.86
1843	0.855
1852	0.8521
1861	0.8461
1870	0.8421
1879	0.838
1888	0.83
1897	0.8307
1906	0.8243
1915	0.8056
1924	0.8045
1933	0.8145
1942	0.8141
1951	0.8128
1960	0.8119
1969	0.8043
1978	0.8006
1987	0.7971
1996	0.7943
2005	0.8001
2014	0.8015
2023	0.8008
2032	0.7961
2041	0.7908
2050	0.7858
2059	0.7811
2068	0.7765
2077	0.7719
2086	0.7685
2095	0.7651
2104	0.7606
2113	0.756
2122	0.7514
2131	0.7467
2140	0.7419
2149	0.7375
2158	0.7334
2167	0.7292
2176	0.7251
2185	0.7208
2194	0.7168
2203	0.7125
2212	0.7085
2221	0.7044
2230	0.7003
2239	0.6961
2248	0.6921
2257	0.6884
2266	0.6848
2275	0.6818
2284	0.6792
2293	0.6765
2302	0.6753
2311	0.674
2320	0.6726
2329	0.6715
2338	0.6721
2347	0.6725
2356	0.6721
2365	0.6715
2374	0.6699
2383	0.6668
2392	0.6615
2401	0.6586
2410	0.6568
2419	0.6574
2428	0.6581
2437	0.6581
2446	0.6569
2455	0.6548
2464	0.6517
2473	0.6495
2482	0.6485
2491	0.6474
2500	0.6461
2509	0.6451
2518	0.6449
2527	0.6446
2536	0.644
2545	0.6424
2554	0.6408
2563	0.6393
2572	0.6378
2581	0.6352
2590	0.6326
2599	0.6299
2608	0.6273
2617	0.6247
2626	0.6221
2635	0.6189
2644	0.6157
2653	0.6125
2662	0.6093
2671	0.606
2680	0.6029
2689	0.5998
2698	0.5968
2707	0.5937
2716	0.5907
2725	0.5877
2734	0.5848
2743	0.5818
2752	0.579
2761	0.576
2770	0.5733
2779	0.5704
2788	0.5676
2797	0.5648
2806	0.562
2815	0.5594
2824	0.5569
2833	0.5532
2842	0.5459
2851	0.5359
2860	0.5237
2869	0.5096
2878	0.4946
2887	0.4664
2896	0.471
2905	0.5141
2914	0.5026
2923	0.4674
2932	0.5092
2941	0.521
2950	0.5183
2959	0.5093
2968	0.5003
2977	0.4904
2986	0.4826
2995	0.5045
3004	0.5107
3013	0.5053
3022	0.4958
3031	0.4869
3040	0.4795
3049	0.4721
3058	0.4649
3067	0.458
3076	0.4518
3085	0.4668
3094	0.4644
3103	0.451
3112	0.4416
3121	0.4399
3130	0.432
3139	0.4266
3148	0.4196
3157	0.4126
3166	0.4047
3175	0.3959
3184	0.3868
3193	0.3759
3202	0.3637
3211	0.3449
3220	0.33
3229	0.3154
3238	0.3091
3247	0.3165
3256	0.3089
3265	0.2978
3274	0.3013
3283	0.3264
3292	0.3402
3301	0.3432
3310	0.3434
3319	0.3425
3328	0.3412
3337	0.339
3346	0.3359
3355	0.3288
3364	0.3223
3373	0.316
3382	0.3104
3391	0.306
3400	0.3015
3409	0.2988
3418	0.2968
3427	0.2948
3436	0.2939
3445	0.2933
3454	0.2927
3463	0.2937
3472	0.2955
3481	0.2972
3490	0.2993
3499	0.3023
3508	0.3054
3517	0.3084
3526	0.3117
3535	0.3156
3544	0.3196
3553	0.3236
3562	0.3276
3571	0.3322
3580	0.3373
3589	0.3423
3598	0.3482
3607	0.3549
3616	0.3614
3625	0.3682
3634	0.3766
3643	0.3849
3652	0.3927
3661	0.3987
3670	0.4048
3679	0.4091
3688	0.4132
3697	0.4158
3706	0.4168
3715	0.4179
3724	0.4187
3733	0.4193
3742	0.4199
3751	0.4201
3760	0.4201
3769	0.4201
3778	0.4197
3787	0.4194
3796	0.4195
