Infrared Spectrum: 1-Chloro-3-(1-naphthyloxy)-2-propanol
Formula: C13 H13 Cl O2
CAS: 20133-93-1
State: LIQUID (NEAT)
Class: COBLENTZ III
Instrument: DOW KBr FOREPRISM-GRATING
Instrument parameters: BLAZED AT 3.5, 12.0, 20.0 MICRON AND CHANGED AT 5.0, 7.5, 14.9 MICRON
Sampling: TRANSMISSION
Path length: CAPILLARY
Resolution: 2
Origin: DOW CHEMICAL COMPANY
1/CM	TRANSMITTANCE
3792	0.8484
3783	0.8505
3774	0.853
3765	0.8546
3756	0.8561
3747	0.857
3738	0.8573
3729	0.8571
3720	0.8565
3711	0.8558
3702	0.8553
3693	0.8548
3684	0.8528
3675	0.8489
3666	0.8421
3657	0.8336
3648	0.824
3639	0.8143
3630	0.8085
3621	0.8025
3612	0.791
3603	0.7671
3594	0.7115
3585	0.6605
3576	0.6224
3567	0.604
3558	0.596
3549	0.597
3540	0.599
3531	0.6004
3522	0.6028
3513	0.591
3504	0.574
3495	0.5557
3486	0.5362
3477	0.5159
3468	0.5021
3459	0.4866
3450	0.4651
3441	0.4556
3432	0.4469
3423	0.4399
3414	0.4345
3405	0.4304
3396	0.4278
3387	0.4273
3378	0.4281
3369	0.4316
3360	0.436
3351	0.442
3342	0.4504
3333	0.4603
3324	0.4721
3315	0.4836
3306	0.4949
3297	0.506
3288	0.5171
3279	0.5283
3270	0.5399
3261	0.5514
3252	0.5642
3243	0.577
3234	0.5898
3225	0.6024
3216	0.6153
3207	0.6301
3198	0.645
3189	0.6598
3180	0.6746
3171	0.6875
3162	0.7005
3153	0.7139
3144	0.7271
3135	0.739
3126	0.7456
3117	0.7458
3108	0.7428
3099	0.7337
3090	0.7105
3081	0.6808
3072	0.6295
3063	0.5529
3054	0.5394
3045	0.6417
3036	0.7084
3027	0.7401
3018	0.7224
3009	0.7415
3000	0.7768
2991	0.7803
2982	0.7628
2973	0.6651
2964	0.5994
2955	0.5891
2946	0.571
2937	0.5666
2928	0.585
2919	0.6265
2910	0.6657
2901	0.6722
2892	0.6617
2883	0.6377
2874	0.6711
2865	0.704
2856	0.7382
2847	0.7667
2838	0.7851
2829	0.8003
2820	0.8143
2811	0.8218
2802	0.8264
2793	0.8305
2784	0.8342
2775	0.837
2766	0.8396
2757	0.8413
2748	0.8406
2739	0.8374
2730	0.8424
2721	0.8463
2712	0.8473
2703	0.846
2694	0.8452
2685	0.8447
2676	0.8449
2667	0.8454
2658	0.846
2649	0.8466
2640	0.8484
2631	0.8505
2622	0.8525
2613	0.8547
2604	0.8565
2595	0.8581
2586	0.8589
2577	0.8598
2568	0.8599
2559	0.8595
2550	0.8578
2541	0.8562
2532	0.8598
2523	0.8583
2514	0.8545
2505	0.8575
2496	0.8603
2487	0.8596
2478	0.8597
2469	0.8657
2460	0.8671
2451	0.868
2442	0.8681
2433	0.8687
2424	0.866
2415	0.8645
2406	0.87
2397	0.8717
2388	0.8721
2379	0.8725
2370	0.876
2361	0.8838
2352	0.8871
2343	0.8855
2334	0.8828
2325	0.8774
2316	0.8716
2307	0.8721
2298	0.8743
2289	0.8761
2280	0.8768
2271	0.8785
2262	0.8811
2253	0.8845
2244	0.8873
2235	0.8888
2226	0.8895
2217	0.8901
2208	0.8849
2199	0.8827
2190	0.8821
2181	0.8827
2172	0.8831
2163	0.8818
2154	0.8797
2145	0.8771
2136	0.8736
2127	0.8699
2118	0.8668
2109	0.8681
2100	0.8713
2091	0.8745
2082	0.8767
2073	0.8788
2064	0.8786
2055	0.8782
2046	0.8783
2037	0.8782
2028	0.8778
2019	0.8764
2010	0.8715
2001	0.8655
1992	0.8625
1983	0.8551
1974	0.8467
1965	0.8439
1956	0.8431
1947	0.8406
1938	0.833
1929	0.8273
1920	0.8236
1911	0.8358
1902	0.8544
1893	0.861
1884	0.8645
1875	0.8623
1866	0.8548
1857	0.8471
1848	0.8368
1839	0.8212
1830	0.8288
1821	0.8394
1812	0.839
1803	0.8444
1794	0.8527
1785	0.8561
1776	0.8496
1767	0.8462
1758	0.8416
1749	0.8283
1740	0.8126
1731	0.8
1722	0.8108
1713	0.8191
1704	0.8259
1695	0.8285
1686	0.8316
1677	0.8307
1668	0.8187
1659	0.8037
1650	0.7889
1641	0.774
1632	0.6526
1623	0.7047
1614	0.7708
1605	0.7168
1596	0.3366
1587	0.35
1578	0.3387
1569	0.7324
1560	0.795
1551	0.8146
1542	0.8061
1533	0.788
1524	0.7562
1515	0.5402
1506	0.4918
1497	0.7485
1488	0.7728
1479	0.7091
1470	0.5631
1461	0.2812
1452	0.4278
1443	0.4657
1434	0.4719
1425	0.4937
1416	0.548
1407	0.2099
1398	0.1284
1389	0.2578
1380	0.4429
1371	0.5053
1362	0.5745
1353	0.6132
1344	0.6062
1335	0.6398
1326	0.6278
1317	0.6091
1308	0.5831
1299	0.5568
1290	0.5267
1281	0.3112
1272	0.0876
1263	0.2749
1254	0.4617
1245	0.1563
1236	0.2355
1227	0.4271
1218	0.5049
1209	0.5634
1200	0.6207
1191	0.5946
1182	0.4875
1173	0.5873
1164	0.5374
1155	0.461
1146	0.6403
1137	0.6604
1128	0.5453
1119	0.3584
1110	0.1517
1101	0.0959
1092	0.3062
1083	0.3514
1074	0.3332
1065	0.2833
1056	0.405
1047	0.527
1038	0.5922
1029	0.5704
1020	0.3354
1011	0.6074
1002	0.5621
993	0.654
984	0.6975
975	0.7085
966	0.6405
957	0.613
948	0.6083
939	0.6432
930	0.6793
921	0.6608
912	0.649
903	0.6726
894	0.7046
885	0.7424
876	0.6662
867	0.6891
858	0.6611
849	0.6426
840	0.6783
831	0.7568
822	0.7661
813	0.7483
804	0.6158
795	0.1471
786	0.3327
777	0.1767
768	0.1092
759	0.4469
750	0.4667
741	0.508
732	0.3664
723	0.594
714	0.6495
705	0.6012
696	0.6611
687	0.6939
678	0.7011
669	0.7053
660	0.6828
651	0.6457
642	0.6038
633	0.5767
624	0.6088
615	0.5674
606	0.5946
597	0.5829
588	0.596
579	0.55
570	0.4059
561	0.5925
552	0.6055
543	0.6092
534	0.6025
525	0.6009
516	0.5929
507	0.6128
498	0.6068
489	0.5707
480	0.5904
