Infrared Spectrum: 1-Tetradecylamine
Formula: C 14 H 31 N
CAS: 2016-42-4
State: gas
Origin: EPA-IR VAPOR PHASE LIBRARY
1/CM	ABSORBANCE
549.8	0.00228
559.445	0.00286
569.09	0.00265
578.734	0.00281
588.379	0.00347
598.024	0.00372
607.669	0.00379
617.313	0.00386
626.958	0.00416
636.603	0.00445
646.248	0.005
655.893	0.00553
665.537	0.00604
675.182	0.0067
684.827	0.00787
694.472	0.00969
704.116	0.01219
713.761	0.0163
723.406	0.01925
733.051	0.02223
742.695	0.0257
752.34	0.02957
761.985	0.03293
771.63	0.03403
781.275	0.03107
790.919	0.02381
800.564	0.01703
810.209	0.01302
819.854	0.01046
829.498	0.00906
839.143	0.00778
848.788	0.00723
858.433	0.00663
868.078	0.00598
877.722	0.00559
887.367	0.00528
897.012	0.00512
906.657	0.00487
916.301	0.00457
925.946	0.0044
935.591	0.00448
945.236	0.00432
954.88	0.00396
964.525	0.00395
974.17	0.00388
983.815	0.00393
993.46	0.00398
1003.1	0.00422
1012.75	0.00421
1022.39	0.00506
1032.04	0.00597
1041.68	0.00677
1051.33	0.0077
1060.97	0.00931
1070.62	0.01087
1080.26	0.0101
1089.91	0.00811
1099.55	0.0062
1109.2	0.00445
1118.84	0.00322
1128.49	0.00319
1138.13	0.00263
1147.78	0.00241
1157.42	0.00237
1167.07	0.00242
1176.71	0.00266
1186.36	0.00296
1196	0.00294
1205.64	0.00319
1215.29	0.00332
1224.93	0.00366
1234.58	0.00394
1244.22	0.00368
1253.87	0.0041
1263.51	0.00473
1273.16	0.00494
1282.8	0.00564
1292.45	0.00692
1302.09	0.00796
1311.74	0.00816
1321.38	0.00751
1331.03	0.00824
1340.67	0.01108
1350.32	0.01435
1359.96	0.01436
1369.61	0.01314
1379.25	0.01258
1388.9	0.01128
1398.54	0.00792
1408.18	0.0061
1417.83	0.00592
1427.47	0.00733
1437.12	0.0118
1446.76	0.02017
1456.41	0.02874
1466.05	0.02937
1475.7	0.01856
1485.34	0.00953
1494.99	0.00586
1504.63	0.00421
1514.28	0.00344
1523.92	0.00296
1533.57	0.00268
1543.21	0.00261
1552.86	0.00258
1562.5	0.00263
1572.15	0.003
1581.79	0.00345
1591.44	0.00441
1601.08	0.00588
1610.73	0.00828
1620.37	0.01067
1630.01	0.00933
1639.66	0.00609
1649.3	0.0041
1658.95	0.00294
1668.59	0.00221
1678.24	0.00182
1687.88	0.0016
1697.53	0.00144
1707.17	0.00129
1716.82	0.00117
1726.46	0.00119
1736.11	0.0011
1745.75	0.000995
1755.4	0.000946
1765.04	0.0009621
1774.69	0.00102
1784.33	0.0009957
1793.98	0.0009393
1803.62	0.0009431
1813.27	0.0009983
1822.91	0.00102
1832.55	0.000912
1842.2	0.0008902
1851.84	0.0008963
1861.49	0.0008364
1871.13	0.0006909
1880.78	0.0005817
1890.42	0.0005234
1900.07	0.000492
1909.71	0.0004508
1919.36	0.0004465
1929	0.0003803
1938.65	0.0003938
1948.29	0.000383
1957.94	0.0004616
1967.58	0.0004054
1977.23	0.0004635
1986.87	0.0004747
1996.52	0.0004869
2006.16	0.0005493
2015.81	0.0005876
2025.45	0.0008381
2035.1	0.0008118
2044.74	0.0008415
2054.38	0.0007587
2064.03	0.0006598
2073.67	0.0006659
2083.32	0.0006302
2092.96	0.000622
2102.61	0.000599
2112.25	0.0006066
2121.9	0.0005695
2131.54	0.0006255
2141.19	0.0005491
2150.83	0.0005926
2160.48	0.0006281
2170.12	0.0006022
2179.77	0.0005889
2189.41	0.0005495
2199.06	0.0005408
2208.7	0.0006165
2218.35	0.0006572
2227.99	0.0006569
2237.64	0.000626
2247.28	0.0006892
2256.92	0.0006384
2266.57	0.0006767
2276.21	0.0006003
2285.86	0.0006855
2295.5	0.0007044
2305.15	0.0007395
2314.79	0.0006877
2324.44	0.0007207
2334.08	0.0006434
2343.73	0.0006922
2353.37	0.0007253
2363.02	0.0006591
2372.66	0.0006148
2382.31	0.0007462
2391.95	0.0006976
2401.6	0.0007215
2411.24	0.0006472
2420.89	0.0007234
2430.53	0.0008005
2440.18	0.0007277
2449.82	0.000712
2459.47	0.0007609
2469.11	0.0007192
2478.75	0.0007845
2488.4	0.0008084
2498.04	0.0008176
2507.69	0.00108
2517.33	0.00112
2526.98	0.00136
2536.62	0.00145
2546.27	0.00153
2555.91	0.00154
2565.56	0.00169
2575.2	0.00182
2584.85	0.00206
2594.49	0.00226
2604.14	0.00253
2613.78	0.00264
2623.43	0.00294
2633.07	0.00335
2642.72	0.00368
2652.36	0.00406
2662.01	0.00466
2671.65	0.00508
2681.29	0.00539
2690.94	0.0053
2700.58	0.00519
2710.23	0.00514
2719.87	0.00527
2729.52	0.00574
2739.16	0.0064
2748.81	0.00681
2758.45	0.00717
2768.1	0.00749
2777.74	0.00836
2787.39	0.00991
2797.03	0.01198
2806.68	0.01503
2816.32	0.01956
2825.97	0.02668
2835.61	0.03885
2845.26	0.06594
2854.9	0.13335
2864.55	0.17895
2874.19	0.13103
2883.84	0.10105
2893.48	0.09647
2903.12	0.12737
2912.77	0.19392
2922.41	0.32827
2932.06	0.46995
2941.7	0.3488
2951.35	0.18653
2960.99	0.12512
2970.64	0.09945
2980.28	0.05395
2989.93	0.03102
2999.57	0.02083
3009.22	0.01505
3018.86	0.01167
3028.51	0.00919
3038.15	0.00747
3047.8	0.00619
3057.44	0.00528
3067.09	0.00456
3076.73	0.00406
3086.38	0.00349
3096.02	0.00318
3105.67	0.0028
3115.31	0.00247
3124.95	0.0023
3134.6	0.00226
3144.24	0.00192
3153.89	0.00194
3163.53	0.00171
3173.18	0.00176
3182.82	0.00157
3192.47	0.00149
3202.11	0.00138
3211.76	0.00124
3221.4	0.0008884
3231.05	0.000886
3240.69	0.0007187
3250.34	0.0005428
3259.98	0.0006532
3269.63	0.0006704
3279.27	0.00075
3288.92	0.0006274
3298.56	0.0007505
3308.21	0.0005954
3317.85	0.0007341
3327.49	0.0007059
3337.14	0.00145
3346.78	0.0016
3356.43	0.00134
3366.07	0.00117
3375.72	0.0008329
3385.36	0.0008258
3395.01	0.0007209
3404.65	0.0009865
3414.3	0.0008381
3423.94	0.0005898
3433.59	0.0008494
3443.23	0.0006875
3452.88	0.0005936
3462.52	0.0005784
3472.17	0.0003418
3481.81	0.0003429
3491.46	0.0005251
3501.1	0.0005983
3510.75	0.000293
3520.39	0.0003831
3530.04	0.0002198
3539.68	0.0004468
3549.32	0.0002688
3558.97	0.0005259
3568.61	0.0005669
3578.26	0.0005769
3587.9	0.0007382
3597.55	0.0005873
3607.19	0.0006699
3616.84	0.0006087
3626.48	0.0008986
3636.13	0.0008288
3645.77	0.00105
3655.42	0.00103
3665.06	0.0008451
3674.71	0.0006368
3684.35	0.0008328
3694	0.000961
3703.64	0.0009879
3713.29	0.0006446
3722.93	0.0007177
3732.58	0.0007816
3742.22	0.0007181
3751.86	0.0007087
3761.51	0.0007432
3771.15	0.0008245
3780.8	0.001
3790.44	0.0008864
3800.09	0.0009387
3809.73	0.0007148
3819.38	0.0006725
3829.02	0.0008843
3838.67	0.000967
3848.31	0.0007456
3857.96	0.0008026
3867.6	0.00104
3877.25	0.0009488
3886.89	0.0008378
3896.54	0.0008776
3906.18	0.0008581
3915.83	0.0008423
3925.47	0.000954
3935.12	0.0009899
3944.76	0.0008628
3954.41	0.00107
3964.05	0.00118
3973.69	0.00107
3983.34	0.00104
3992.98	0.00118
