Infrared Spectrum: Dodecanamine, N,N-dimethyl-, hydrochloride
Formula: C14 H32 Cl N
CAS: 2016-48-0
State: SOLID (KBr DISC, 0.8% WT.)
Class: COBLENTZ III
Instrument: PERKIN-ELMER 157
Sampling: TRANSMISSION
Resolution: 2
Origin: BRITISH PETROLEUM CO. LTD., ENGLAND
1/CM	TRANSMITTANCE
668	0.9677
677	0.9374
686	0.9167
695	0.89
704	0.8294
713	0.7097
722	0.4955
731	0.268
740	0.7383
749	0.8065
758	0.8142
767	0.7377
776	0.7886
785	0.8068
794	0.7976
803	0.8118
812	0.8095
821	0.7909
830	0.6709
839	0.7846
848	0.7373
857	0.796
866	0.7961
875	0.7883
884	0.7638
893	0.7402
902	0.7842
911	0.7815
920	0.768
929	0.718
938	0.698
947	0.5286
956	0.3658
965	0.5573
974	0.3401
983	0.5987
992	0.5632
1001	0.5449
1010	0.3333
1019	0.5782
1028	0.6583
1037	0.6671
1046	0.6538
1055	0.6516
1064	0.6581
1073	0.6868
1082	0.675
1091	0.7118
1100	0.6133
1109	0.6053
1118	0.6476
1127	0.6855
1136	0.6984
1145	0.6682
1154	0.615
1163	0.59
1172	0.5692
1181	0.631
1190	0.6209
1199	0.6281
1208	0.628
1217	0.6125
1226	0.6273
1235	0.571
1244	0.6111
1253	0.6432
1262	0.59
1271	0.6218
1280	0.6073
1289	0.6037
1298	0.5961
1307	0.5708
1316	0.558
1325	0.4401
1334	0.5142
1343	0.5471
1352	0.5487
1361	0.499
1370	0.4161
1379	0.375
1388	0.3938
1397	0.3984
1406	0.3751
1415	0.3261
1424	0.3183
1433	0.2335
1442	0.2699
1451	0.2398
1460	0.0686
1469	0.059
1478	0.0721
1487	0.0939
1496	0.348
1505	0.4453
1514	0.487
1523	0.5182
1532	0.5229
1541	0.5366
1550	0.5357
1559	0.538
1568	0.5444
1577	0.5512
1586	0.5544
1595	0.5626
1604	0.5629
1613	0.5619
1622	0.5618
1631	0.5674
1640	0.5736
1649	0.5761
1658	0.5818
1667	0.5848
1676	0.5823
1685	0.578
1694	0.5764
1703	0.5628
1712	0.5547
1721	0.5384
1730	0.5446
1739	0.5745
1748	0.6118
1757	0.6281
1766	0.6331
1775	0.635
1784	0.6358
1793	0.6363
1802	0.6359
1811	0.6357
1820	0.6355
1829	0.6351
1838	0.6346
1847	0.6336
1856	0.6311
1865	0.6279
1874	0.6203
1883	0.6184
1892	0.617
1901	0.616
1910	0.6155
1919	0.6156
1928	0.6162
1937	0.6142
1946	0.6065
1955	0.6008
1964	0.598
1973	0.5959
1982	0.5944
1991	0.5927
2000	0.591
2009	0.587
2018	0.5812
2027	0.5768
2036	0.5756
2045	0.5747
2054	0.574
2063	0.5742
2072	0.5747
2081	0.5748
2090	0.5745
2099	0.5697
2108	0.5612
2117	0.5566
2126	0.5556
2135	0.555
2144	0.5547
2153	0.5543
2162	0.5535
2171	0.5513
2180	0.5469
2189	0.5418
2198	0.5354
2207	0.5283
2216	0.5205
2225	0.5128
2234	0.5057
2243	0.4985
2252	0.4912
2261	0.4839
2270	0.4769
2279	0.47
2288	0.4625
2297	0.4547
2306	0.4452
2315	0.4187
2324	0.3962
2333	0.385
2342	0.3689
2351	0.3477
2360	0.3299
2369	0.3157
2378	0.285
2387	0.2659
2396	0.2544
2405	0.2432
2414	0.2205
2423	0.1934
2432	0.1726
2441	0.1167
2450	0.0872
2459	0.0735
2468	0.0595
2477	0.0498
2486	0.0529
2495	0.0588
2504	0.0559
2513	0.0506
2522	0.05
2531	0.0501
2540	0.0503
2549	0.0502
2558	0.0491
2567	0.0438
2576	0.0394
2585	0.0367
2594	0.0186
2603	0.016
2612	0.0141
2621	0.0132
2630	0.0129
2639	0.0129
2648	0.0133
2657	0.0155
2666	0.0197
2675	0.0239
2684	0.0287
2693	0.0349
2702	0.0455
2711	0.0566
2720	0.0673
2729	0.0823
2738	0.1126
2747	0.1279
2756	0.1385
2765	0.142
2774	0.1444
2783	0.1456
2792	0.146
2801	0.146
2810	0.1379
2819	0.1078
2828	0.078
2837	0.0484
2846	0.0214
2855	0.016
2864	0.0159
2873	0.016
2882	0.016
2891	0.0161
2900	0.0162
2909	0.0163
2918	0.0184
2927	0.0218
2936	0.0252
2945	0.0285
2954	0.0322
2963	0.0428
2972	0.0552
2981	0.101
2990	0.1042
2999	0.1079
3008	0.1255
3017	0.1349
3026	0.146
3035	0.1561
3044	0.1637
3053	0.1739
3062	0.1831
3071	0.1893
3080	0.1965
3089	0.2058
3098	0.2156
3107	0.2219
3116	0.227
3125	0.2307
3134	0.2329
3143	0.2342
3152	0.2344
3161	0.2345
3170	0.2345
3179	0.2345
3188	0.2346
3197	0.2346
3206	0.236
3215	0.2345
3224	0.2345
3233	0.2345
3242	0.2344
3251	0.2341
3260	0.234
3269	0.2338
3278	0.2333
3287	0.2329
3296	0.2323
3305	0.2308
3314	0.2273
3323	0.2225
3332	0.2175
3341	0.2125
3350	0.2075
3359	0.2021
3368	0.1969
3377	0.1929
3386	0.192
3395	0.192
3404	0.1921
3413	0.1922
3422	0.1922
3431	0.1924
3440	0.1926
3449	0.1929
3458	0.1932
3467	0.1935
3476	0.1939
3485	0.1944
3494	0.1962
3503	0.1994
3512	0.2035
3521	0.208
3530	0.213
3539	0.2181
3548	0.2246
3557	0.2318
3566	0.2407
3575	0.2499
3584	0.2564
3593	0.2606
3602	0.2634
3611	0.2651
3620	0.2658
3629	0.2663
3638	0.2669
3647	0.2674
3656	0.2679
3665	0.2683
3674	0.2684
3683	0.2685
3692	0.2686
3701	0.2686
3710	0.2687
3719	0.2687
3728	0.2687
3737	0.2686
3746	0.2685
3755	0.2684
3764	0.2684
3773	0.2682
3782	0.2679
3791	0.2674
3800	0.2669
3809	0.2659
3818	0.2647
3827	0.2635
3836	0.2622
3845	0.2611
3854	0.2599
3863	0.2589
3872	0.2578
3881	0.2564
3890	0.255
3899	0.2535
3908	0.2522
3917	0.251
3926	0.2499
3935	0.2488
3944	0.2477
3953	0.2465
3962	0.2448
3971	0.2431
3980	0.2415
3989	0.2398
3998	0.2383
