Infrared Spectrum: 3-Nonyne
Formula: C 9 H 16
CAS: 20184-89-8
State: gas
Instrument: HP-GC/MS/IRD
Origin: NIST Mass Spectrometry Data Center
1/CM	ABSORBANCE
550	0.0002553
562	8.14e-05
574	0.000148
586	0.0001258
598	0.0001628
610	0.0001369
622	0.0001036
634	0.0001739
646	0.000111
658	0.0001073
670	8.14e-05
682	0.000111
694	0.0001147
706	0.0001406
718	0.0002627
730	0.0004514
742	0.0004773
754	0.0003885
766	0.0003589
778	0.0002331
790	0.0002146
802	0.0001554
814	4.44e-05
826	0.0001221
838	0.0001036
850	8.14e-05
862	5.55e-05
874	0.0001184
886	0.000148
898	0.0001517
910	0.0001628
922	0.0001147
934	9.25e-05
946	0.0001332
958	0.0002257
970	0.0002738
982	0.0003182
994	0.0002109
1006	0.0001591
1018	0.0001184
1030	0.0001517
1042	0.0002109
1054	0.0004884
1066	0.0006734
1078	0.0005661
1090	0.000407
1102	0.0004033
1114	0.0002257
1126	0.000111
1138	7.4e-05
1150	0.0001369
1162	0.0001258
1174	0.0001554
1186	0.0002146
1198	0.0002405
1210	0.0003145
1222	0.0003071
1234	0.0003626
1246	0.0003996
1258	0.0004329
1270	0.000592
1282	0.0009916
1294	0.0013579
1306	0.0025197
1318	0.0054723
1330	0.0055981
1342	0.0030636
1354	0.0018907
1366	0.0015022
1378	0.0014837
1390	0.0014134
1402	0.0011322
1414	0.0011914
1426	0.0018463
1438	0.003256
1450	0.0038739
1462	0.0039479
1474	0.0029711
1486	0.001628
1498	0.0009398
1510	0.0006105
1522	0.0004403
1534	0.0003293
1546	0.0002183
1558	0.0001739
1570	0.0001739
1582	0.000185
1594	0.0001776
1606	0.0001554
1618	0.0001258
1630	0.000111
1642	8.88e-05
1654	5.92e-05
1666	8.51e-05
1678	8.14e-05
1690	7.03e-05
1702	3.33e-05
1714	3.7e-05
1726	4.07e-05
1738	4.07e-05
1750	4.81e-05
1762	7.4e-06
1774	1.85e-05
1786	4.44e-05
1798	1.85e-05
1810	1.85e-05
1822	2.59e-05
1834	4.07e-05
1846	4.81e-05
1858	5.55e-05
1870	8.88e-05
1882	5.92e-05
1894	4.07e-05
1906	3.33e-05
1918	1.48e-05
1930	2.59e-05
1942	7.4e-06
1954	1.85e-05
1966	4.07e-05
1978	2.96e-05
1990	4.44e-05
2002	1.11e-05
2014	1.48e-05
2026	3.7e-05
2038	6.66e-05
2050	7.4e-05
2062	2.59e-05
2074	3.33e-05
2086	4.81e-05
2098	1.11e-05
2110	2.59e-05
2122	4.07e-05
2134	1.85e-05
2146	7.4e-06
2158	2.59e-05
2170	1.11e-05
2182	1.11e-05
2194	1.11e-05
2206	2.59e-05
2218	0
2230	2.96e-05
2242	2.96e-05
2254	2.96e-05
2266	1.85e-05
2278	1.48e-05
2290	2.96e-05
2302	2.96e-05
2314	3.7e-05
2326	0
2338	1.48e-05
2350	7.4e-06
2362	1.11e-05
2374	3.33e-05
2386	4.44e-05
2398	5.92e-05
2410	5.55e-05
2422	4.81e-05
2434	9.25e-05
2446	8.14e-05
2458	5.92e-05
2470	4.44e-05
2482	3.33e-05
2494	5.18e-05
2506	6.66e-05
2518	7.77e-05
2530	6.66e-05
2542	9.25e-05
2554	0.0001036
2566	0.0001147
2578	0.000148
2590	0.0001591
2602	0.0001739
2614	0.000222
2626	0.0002775
2638	0.0003367
2650	0.0003182
2662	0.0002923
2674	0.0003367
2686	0.0002812
2698	0.000296
2710	0.000333
2722	0.0004329
2734	0.000518
2746	0.0006105
2758	0.0006364
2770	0.0006919
2782	0.0007881
2794	0.0009768
2806	0.0012654
2818	0.0017464
2830	0.0026455
2842	0.0045843
2854	0.0085285
2866	0.0128538
2878	0.0136678
2890	0.0133718
2902	0.0140193
2914	0.0191253
2926	0.0287231
2938	0.037
2950	0.0314981
2962	0.0247641
2974	0.023088
2986	0.0156325
2998	0.0075332
3010	0.0045843
3022	0.0029119
3034	0.0019499
3046	0.0013838
3058	0.0010545
3070	0.0008991
3082	0.0007696
3094	0.0007215
3106	0.0006586
3118	0.0005846
3130	0.0005809
3142	0.0004921
3154	0.0004255
3166	0.0004144
3178	0.00037
3190	0.0003219
3202	0.0002516
3214	0.0002072
3226	0.0001628
3238	0.0001184
3250	0.0001221
3262	0.0001147
3274	7.03e-05
3286	7.77e-05
3298	8.14e-05
3310	7.03e-05
3322	7.03e-05
3334	8.51e-05
3346	9.25e-05
3358	9.25e-05
3370	9.99e-05
3382	5.18e-05
3394	5.92e-05
3406	4.07e-05
3418	2.96e-05
3430	0.0001073
3442	9.25e-05
3454	7.77e-05
3466	7.77e-05
3478	5.92e-05
3490	5.92e-05
3502	5.55e-05
3514	3.33e-05
3526	0
3538	1.85e-05
3550	4.81e-05
3562	4.81e-05
3574	5.92e-05
3586	5.18e-05
3598	6.29e-05
3610	2.96e-05
3622	3.33e-05
3634	4.81e-05
3646	2.59e-05
3658	8.14e-05
3670	8.51e-05
3682	5.92e-05
3694	7.4e-05
3706	6.29e-05
3718	9.62e-05
3730	6.66e-05
3742	9.25e-05
3754	5.92e-05
3766	0.0001073
3778	9.62e-05
3790	0.0001258
3802	7.77e-05
3814	0.0001369
3826	0.0001295
3838	0.000111
