Infrared Spectrum: 4-Nonyne
Formula: C 9 H 16
CAS: 20184-91-2
State: gas
Instrument: HP-GC/MS/IRD
Origin: NIST Mass Spectrometry Data Center
1/CM	ABSORBANCE
550	0.0005719
562	0.0003397
574	0.0003268
586	0.0003913
598	0.0001634
610	0.0001333
622	0.0001634
634	0.0001505
646	0.0001634
658	3.87e-05
670	5.16e-05
682	6.45e-05
694	0.0001462
706	0.0001978
718	0.0003268
730	0.0004128
742	0.0007052
754	0.0007482
766	0.0005977
778	0.0004343
790	0.0003182
802	0.0003698
814	0.0003483
826	0.0002365
838	0.0002021
850	0.0001763
862	0.000301
874	0.0003612
886	0.0004085
898	0.0004085
910	0.0002709
922	0.0002236
934	0.0002064
946	0.0002193
958	0.0003655
970	0.0003182
982	0.0002838
994	0.0001763
1006	0.0001118
1018	0.000215
1030	0.0003311
1042	0.0002666
1054	0.0002752
1066	0.0004257
1078	0.0004128
1090	0.0005461
1102	0.000602
1114	0.0003397
1126	0.0002064
1138	0.000172
1150	0.000129
1162	0.0001634
1174	0.0002236
1186	0.0002537
1198	0.0003311
1210	0.0004343
1222	0.0005246
1234	0.0005977
1246	0.000731
1258	0.0008815
1270	0.0012857
1282	0.0018017
1294	0.0014792
1306	0.0017243
1318	0.0029455
1330	0.0054438
1342	0.0047558
1354	0.0025757
1366	0.0020038
1378	0.0022876
1390	0.002322
1402	0.0015007
1414	0.0013803
1426	0.0022618
1438	0.0039431
1450	0.0046655
1462	0.0048504
1474	0.0036292
1486	0.001978
1498	0.0011008
1510	0.000688
1522	0.0005074
1534	0.0004171
1546	0.0003268
1558	0.0002795
1570	0.000258
1582	0.0002451
1594	0.0002193
1606	0.0002107
1618	0.0001978
1630	0.0001677
1642	0.0001505
1654	0.0001505
1666	0.0001591
1678	0.0001849
1690	0.0001892
1702	0.0001591
1714	9.03e-05
1726	9.03e-05
1738	8.17e-05
1750	5.16e-05
1762	3.87e-05
1774	6.02e-05
1786	3.87e-05
1798	4.73e-05
1810	3.44e-05
1822	3.44e-05
1834	4.3e-05
1846	3.01e-05
1858	4.73e-05
1870	3.01e-05
1882	4.3e-06
1894	2.15e-05
1906	8.6e-06
1918	2.15e-05
1930	8.6e-06
1942	1.72e-05
1954	1.72e-05
1966	2.15e-05
1978	2.15e-05
1990	8.6e-06
2002	3.01e-05
2014	4.73e-05
2026	8.6e-05
2038	7.74e-05
2050	6.02e-05
2062	3.01e-05
2074	2.15e-05
2086	2.15e-05
2098	3.44e-05
2110	3.44e-05
2122	6.02e-05
2134	4.3e-05
2146	4.73e-05
2158	6.45e-05
2170	9.03e-05
2182	9.89e-05
2194	9.46e-05
2206	6.88e-05
2218	6.88e-05
2230	7.31e-05
2242	4.73e-05
2254	5.16e-05
2266	6.45e-05
2278	5.59e-05
2290	6.88e-05
2302	1.72e-05
2314	4.73e-05
2326	3.87e-05
2338	3.44e-05
2350	2.58e-05
2362	3.87e-05
2374	4.3e-05
2386	6.45e-05
2398	9.46e-05
2410	9.89e-05
2422	8.6e-05
2434	8.17e-05
2446	5.59e-05
2458	6.02e-05
2470	4.3e-06
2482	3.44e-05
2494	2.58e-05
2506	3.87e-05
2518	7.74e-05
2530	9.03e-05
2542	0.0001247
2554	0.0001505
2566	0.0001591
2578	0.0001849
2590	0.0002021
2602	0.0001677
2614	0.000172
2626	0.0002107
2638	0.0002924
2650	0.0004128
2662	0.0004214
2674	0.0004773
2686	0.00043
2698	0.0003999
2710	0.000387
2722	0.0004128
2734	0.0005418
2746	0.0006794
2758	0.0007353
2770	0.0007912
2782	0.0009288
2794	0.0011137
2806	0.0014534
2818	0.0019952
2830	0.0029928
2842	0.0053922
2854	0.0093181
2866	0.0133687
2878	0.0173247
2890	0.0166238
2902	0.0161637
2914	0.0224288
2926	0.0327273
2938	0.043
2950	0.037367
2962	0.0334239
2974	0.0317641
2986	0.0172731
2998	0.007525
3010	0.0041194
3022	0.0028767
3034	0.002236
3046	0.0017157
3058	0.0013674
3070	0.0011954
3082	0.0010449
3094	0.0009503
3106	0.0007396
3118	0.0006192
3130	0.0005074
3142	0.0004773
3154	0.0004214
3166	0.0003827
3178	0.0003956
3190	0.0003311
3202	0.000301
3214	0.0002408
3226	0.0001634
3238	0.0001462
3250	0.0001161
3262	9.89e-05
3274	8.17e-05
3286	7.31e-05
3298	9.89e-05
3310	9.46e-05
3322	0.0001247
3334	0.0001247
3346	0.0001462
3358	0.0001505
3370	6.88e-05
3382	6.88e-05
3394	9.46e-05
3406	0.0001075
3418	8.17e-05
3430	8.17e-05
3442	0.0001161
3454	7.31e-05
3466	6.45e-05
3478	8.17e-05
3490	3.01e-05
3502	2.58e-05
3514	1.72e-05
3526	3.87e-05
3538	2.58e-05
3550	2.15e-05
3562	2.58e-05
3574	4.73e-05
3586	2.58e-05
3598	5.16e-05
3610	4.3e-06
3622	6.02e-05
3634	7.74e-05
3646	3.87e-05
3658	3.87e-05
3670	3.44e-05
3682	5.16e-05
3694	6.45e-05
3706	3.44e-05
3718	5.59e-05
3730	5.59e-05
3742	7.31e-05
3754	6.45e-05
3766	6.02e-05
3778	7.74e-05
3790	0.0001032
3802	6.02e-05
3814	7.74e-05
3826	2.58e-05
3838	2.15e-05
