Infrared Spectrum: 4-Methyl-2-hexyne
Formula: C 7 H 12
CAS: 20198-49-6
State: gas
Instrument: HP-GC/MS/IRD
Origin: NIST Mass Spectrometry Data Center
1/CM	ABSORBANCE
550	0.0003596
562	0.0002759
574	0.0001798
586	0.0001333
598	0.0001612
610	0.0002728
622	0.0003627
634	0.0003255
646	0.0002573
658	0.0001891
670	0.0001488
682	0.0001612
694	0.0001922
706	0.0001488
718	0.0001333
730	0.0001364
742	6.82e-05
754	0.0001364
766	0.000217
778	0.0003193
790	0.0004433
802	0.0004836
814	0.0004433
826	0.0002821
838	0.0001674
850	6.82e-05
862	9.61e-05
874	6.2e-05
886	4.65e-05
898	6.2e-05
910	0.0001209
922	0.0001271
934	0.0003317
946	0.0005487
958	0.000775
970	0.0007068
982	0.0006758
994	0.0008432
1006	0.0012431
1018	0.0012772
1030	0.0007812
1042	0.0004991
1054	0.000465
1066	0.000434
1078	0.0005301
1090	0.0007688
1102	0.0007626
1114	0.0003906
1126	0.0003007
1138	0.0002573
1150	0.0002046
1162	0.0004216
1174	0.0005859
1186	0.0003906
1198	0.0001829
1210	0.0002077
1222	0.0002511
1234	0.000341
1246	0.0006045
1258	0.0008029
1270	0.0008184
1282	0.0012679
1294	0.001488
1306	0.0014105
1318	0.0024676
1330	0.0043276
1342	0.0045229
1354	0.0029481
1366	0.0027063
1378	0.0037541
1390	0.0033604
1402	0.0017422
1414	0.0013547
1426	0.0015469
1438	0.0024211
1450	0.004123
1462	0.005022
1474	0.0036239
1486	0.0020398
1498	0.0013733
1510	0.0010416
1522	0.0008432
1534	0.0007843
1546	0.0007874
1558	0.0006386
1570	0.0005673
1582	0.0005146
1594	0.0004092
1606	0.0003441
1618	0.0003224
1630	0.0002108
1642	0.0002232
1654	0.0001953
1666	0.0001736
1678	0.0001488
1690	0.0001426
1702	0.0001178
1714	7.75e-05
1726	8.37e-05
1738	6.51e-05
1750	5.58e-05
1762	4.65e-05
1774	5.27e-05
1786	4.34e-05
1798	6.2e-05
1810	6.51e-05
1822	4.96e-05
1834	4.34e-05
1846	6.51e-05
1858	6.2e-05
1870	4.96e-05
1882	1.55e-05
1894	3.1e-05
1906	1.24e-05
1918	3.41e-05
1930	2.48e-05
1942	3.41e-05
1954	9.3e-06
1966	9.3e-06
1978	6.2e-06
1990	3.1e-05
2002	1.24e-05
2014	4.03e-05
2026	9.3e-06
2038	8.68e-05
2050	0.0001705
2062	0.0001581
2074	4.65e-05
2086	6.2e-06
2098	3.1e-05
2110	4.96e-05
2122	2.17e-05
2134	8.06e-05
2146	3.72e-05
2158	5.89e-05
2170	6.2e-06
2182	1.86e-05
2194	4.03e-05
2206	3.72e-05
2218	2.48e-05
2230	8.37e-05
2242	6.51e-05
2254	9.3e-05
2266	8.06e-05
2278	8.68e-05
2290	0.0001023
2302	8.99e-05
2314	0.0001178
2326	0.0001271
2338	0.0001333
2350	0.0001333
2362	0.0001426
2374	0.0001426
2386	0.0001488
2398	0.0001395
2410	0.0001705
2422	0.0001643
2434	0.0001767
2446	0.000186
2458	0.0001953
2470	0.0001798
2482	0.0002077
2494	0.000186
2506	0.0001829
2518	0.000186
2530	0.0002077
2542	0.0002325
2554	0.0002697
2566	0.0002728
2578	0.0002387
2590	0.000186
2602	0.0001953
2614	0.000217
2626	0.0001767
2638	0.000217
2650	0.0002387
2662	0.0002635
2674	0.0002821
2686	0.0002542
2698	0.0002604
2710	0.0003596
2722	0.0004929
2734	0.0007006
2746	0.000961
2758	0.0008928
2770	0.000682
2782	0.0007316
2794	0.0008463
2806	0.0009889
2818	0.0012369
2830	0.0016833
2842	0.0024459
2854	0.0047368
2866	0.0102889
2878	0.0157325
2890	0.0151156
2902	0.0116219
2914	0.0130882
2926	0.0235197
2938	0.0280333
2950	0.0215295
2962	0.0228625
2974	0.031
2986	0.0232779
2998	0.0089497
3010	0.0039928
3022	0.0026443
3034	0.0024056
3046	0.0018135
3058	0.0017515
3070	0.0014694
3082	0.0013113
3094	0.0011625
3106	0.0009362
3118	0.0007967
3130	0.000651
3142	0.0005115
3154	0.0004898
3166	0.0004681
3178	0.0004774
3190	0.0005022
3202	0.0004619
3214	0.0003844
3226	0.0003255
3238	0.0002356
3250	0.0002139
3262	0.000186
3274	0.0001922
3286	0.0002077
3298	0.000155
3310	0.0001457
3322	0.0001581
3334	0.0001519
3346	0.0001674
3358	0.0001395
3370	0.0001705
3382	0.0001767
3394	0.0001178
3406	0.0001178
3418	0.0001612
3430	0.0001519
3442	8.68e-05
3454	7.75e-05
3466	0.0001488
3478	0.0001023
3490	0.0001178
3502	7.44e-05
3514	7.44e-05
3526	0.0001116
3538	6.82e-05
3550	7.44e-05
3562	9.3e-05
3574	9.61e-05
3586	8.06e-05
3598	8.99e-05
3610	8.68e-05
3622	6.51e-05
3634	9.92e-05
3646	9.61e-05
3658	8.37e-05
3670	6.51e-05
3682	8.68e-05
3694	0.0001147
3706	6.2e-05
3718	0.000155
3730	8.37e-05
3742	9.92e-05
3754	8.99e-05
3766	8.37e-05
3778	7.44e-05
3790	9.61e-05
3802	6.2e-05
3814	9.61e-05
3826	8.68e-05
3838	0.0001364
