Infrared Spectrum: Octadecanamide, N-methyl-
Formula: C19 H39 N O
CAS: 20198-92-9
State: SOLID (SPLIT MULL), FLUOROLUBE FOR 3800-1330 CM^-^1, NUJOL FOR 1330-400 CM^-^1
Class: COBLENTZ III
Instrument: BECKMAN IR-9 (GRATING)
Instrument parameters: ORDER CHANGES: 670, 1200, 2000 CM^-^1
Sampling: TRANSMISSION
Resolution: 2
Origin: DOW CHEMICAL COMPANY
1/CM	TRANSMITTANCE
404	0.5802
413	0.5777
422	0.5899
431	0.6353
440	0.6838
449	0.7207
458	0.7447
467	0.7574
476	0.7739
485	0.7757
494	0.796
503	0.8067
512	0.811
521	0.8147
530	0.8328
539	0.8402
548	0.8471
557	0.8541
566	0.8592
575	0.8686
584	0.872
593	0.8283
602	0.7985
611	0.8761
620	0.8895
629	0.8928
638	0.8932
647	0.8933
656	0.891
665	0.8874
674	0.8826
683	0.8649
692	0.7616
701	0.8428
710	0.8566
719	0.6464
728	0.7259
737	0.7864
746	0.7432
755	0.7689
764	0.8156
773	0.8264
782	0.8533
791	0.8617
800	0.8663
809	0.8695
818	0.8732
827	0.8686
836	0.8775
845	0.8784
854	0.877
863	0.8713
872	0.8609
881	0.869
890	0.853
899	0.8689
908	0.8689
917	0.855
926	0.8646
935	0.864
944	0.8616
953	0.8588
962	0.8507
971	0.8587
980	0.8574
989	0.8412
998	0.8557
1007	0.8533
1016	0.8424
1025	0.8386
1034	0.8392
1043	0.8288
1052	0.8306
1061	0.8207
1070	0.8108
1079	0.791
1088	0.8137
1097	0.8143
1106	0.8164
1115	0.8199
1124	0.8086
1133	0.8183
1142	0.8137
1151	0.7839
1160	0.7151
1169	0.7494
1178	0.7842
1187	0.8112
1196	0.8163
1205	0.825
1214	0.8285
1223	0.8247
1232	0.8383
1241	0.8161
1250	0.8408
1259	0.8186
1268	0.8347
1277	0.8037
1286	0.7892
1295	0.7769
1304	0.7977
1313	0.8127
1322	0.8139
1331	0.8054
1340	0.7995
1349	0.7954
1358	0.8323
1367	0.8279
1376	0.7765
1385	0.794
1394	0.8207
1403	0.8041
1412	0.7537
1421	0.6544
1430	0.7381
1439	0.7156
1448	0.7253
1457	0.769
1466	0.5313
1475	0.5272
1484	0.8053
1493	0.8231
1502	0.8308
1511	0.8323
1520	0.8273
1529	0.8123
1538	0.7798
1547	0.71
1556	0.5633
1565	0.5081
1574	0.5644
1583	0.7578
1592	0.7922
1601	0.8027
1610	0.7711
1619	0.7662
1628	0.6003
1637	0.0835
1646	0.4088
1655	0.7086
1664	0.818
1673	0.8588
1682	0.8793
1691	0.8919
1700	0.8982
1709	0.8998
1718	0.9001
1727	0.9026
1736	0.907
1745	0.9074
1754	0.9141
1763	0.9215
1772	0.9272
1781	0.928
1790	0.9284
1799	0.9287
1808	0.9289
1817	0.9297
1826	0.9305
1835	0.9304
1844	0.9304
1853	0.9304
1862	0.9306
1871	0.9307
1880	0.931
1889	0.9314
1898	0.9318
1907	0.9323
1916	0.9325
1925	0.9327
1934	0.9328
1943	0.9329
1952	0.9327
1961	0.9325
1970	0.9323
1979	0.9312
1988	0.93
1997	0.9287
2006	0.9275
2015	0.9267
2024	0.9259
2033	0.9253
2042	0.925
2051	0.9246
2060	0.9243
2069	0.9239
2078	0.9234
2087	0.9229
2096	0.9225
2105	0.9213
2114	0.9197
2123	0.918
2132	0.9162
2141	0.9144
2150	0.9128
2159	0.9113
2168	0.9098
2177	0.9082
2186	0.9064
2195	0.9047
2204	0.903
2213	0.9012
2222	0.8994
2231	0.8976
2240	0.8955
2249	0.8933
2258	0.8904
2267	0.8876
2276	0.8864
2285	0.8853
2294	0.8842
2303	0.8832
2312	0.8826
2321	0.882
2330	0.8815
2339	0.8832
2348	0.8852
2357	0.8885
2366	0.8919
2375	0.8965
2384	0.8927
2393	0.8893
2402	0.8894
2411	0.8895
2420	0.8897
2429	0.89
2438	0.8902
2447	0.8901
2456	0.89
2465	0.8895
2474	0.889
2483	0.8886
2492	0.8882
2501	0.8878
2510	0.8877
2519	0.8874
2528	0.8873
2537	0.887
2546	0.8866
2555	0.8861
2564	0.8857
2573	0.8849
2582	0.8839
2591	0.8829
2600	0.8818
2609	0.8803
2618	0.8785
2627	0.8755
2636	0.8724
2645	0.871
2654	0.8708
2663	0.8711
2672	0.8722
2681	0.8753
2690	0.8769
2699	0.8739
2708	0.8707
2717	0.867
2726	0.8632
2735	0.8604
2744	0.8576
2753	0.8538
2762	0.8498
2771	0.8442
2780	0.837
2789	0.8284
2798	0.8192
2807	0.8086
2816	0.793
2825	0.7589
2834	0.6791
2843	0.0556
2852	0.2334
2861	0.5123
2870	0.6224
2879	0.6142
2888	0.5271
2897	0.4409
2906	0.2505
2915	0.0313
2924	0.1677
2933	0.3749
2942	0.5821
2951	0.5538
2960	0.6276
2969	0.6413
2978	0.7959
2987	0.8142
2996	0.8257
3005	0.8325
3014	0.8386
3023	0.8436
3032	0.8467
3041	0.849
3050	0.8498
3059	0.8434
3068	0.8357
3077	0.8237
3086	0.8102
3095	0.7982
3104	0.7964
3113	0.803
3122	0.8136
3131	0.8229
3140	0.831
3149	0.8375
3158	0.8406
3167	0.8411
3176	0.8382
3185	0.8333
3194	0.8275
3203	0.82
3212	0.8125
3221	0.8049
3230	0.7966
3239	0.7868
3248	0.7727
3257	0.7492
3266	0.7129
3275	0.6519
3284	0.557
3293	0.175
3302	0.255
3311	0.4873
3320	0.6344
3329	0.7356
3338	0.7849
3347	0.8135
3356	0.8281
3365	0.8371
3374	0.8448
3383	0.852
3392	0.8577
3401	0.8624
3410	0.8655
3419	0.8679
3428	0.8695
3437	0.8707
3446	0.8716
3455	0.8724
3464	0.873
3473	0.8733
3482	0.8737
3491	0.8741
3500	0.8745
3509	0.8754
3518	0.8764
3527	0.8773
3536	0.8783
3545	0.8781
3554	0.878
3563	0.8778
3572	0.8776
3581	0.8771
3590	0.8768
3599	0.8763
3608	0.8749
3617	0.873
3626	0.8734
3635	0.8748
3644	0.8761
3653	0.876
3662	0.8759
3671	0.8758
3680	0.8755
3689	0.8749
3698	0.8745
3707	0.8739
3716	0.8736
3725	0.8735
3734	0.8735
3743	0.8733
3752	0.8731
3761	0.8729
3770	0.8726
3779	0.8728
3788	0.8723
3797	0.8714
