Infrared Spectrum: 3-(4-Chlorophenyl)propionic acid
Formula: C 9 H 9 Cl O 2
CAS: 2019-34-3
State: gas
Origin: EPA-IR VAPOR PHASE LIBRARY
1/CM	ABSORBANCE
549.8	0.017332
559.445	0.018312
569.09	0.016342
578.734	0.014872
588.379	0.015082
598.024	0.015622
607.669	0.014512
617.313	0.010992
626.958	0.009982
636.603	0.012522
646.248	0.012872
655.893	0.011252
665.537	0.009622
675.182	0.008022
684.827	0.006562
694.472	0.006082
704.116	0.005872
713.761	0.006742
723.406	0.004952
733.051	0.003432
742.695	0.002902
752.34	0.002432
761.985	0.002722
771.63	0.003492
781.275	0.003752
790.919	0.004542
800.564	0.006942
810.209	0.012622
819.854	0.018192
829.498	0.014682
839.143	0.006962
848.788	0.003332
858.433	0.002132
868.078	0.002132
877.722	0.001832
887.367	0.002242
897.012	0.002382
906.657	0.002292
916.301	0.002222
925.946	0.002522
935.591	0.003032
945.236	0.003952
954.88	0.004022
964.525	0.003662
974.17	0.003152
983.815	0.003512
993.46	0.003832
1003.1	0.006212
1012.75	0.018932
1022.39	0.015042
1032.04	0.007502
1041.68	0.006212
1051.33	0.006032
1060.97	0.007072
1070.62	0.010692
1080.26	0.018872
1089.91	0.045222
1099.55	0.065062
1109.2	0.053982
1118.84	0.066902
1128.49	0.058702
1138.13	0.035922
1147.78	0.024702
1157.42	0.017972
1167.07	0.015012
1176.71	0.015062
1186.36	0.015802
1196	0.014482
1205.64	0.012892
1215.29	0.010442
1224.93	0.009132
1234.58	0.007642
1244.22	0.007132
1253.87	0.007392
1263.51	0.007472
1273.16	0.007562
1282.8	0.007312
1292.45	0.006732
1302.09	0.006162
1311.74	0.005932
1321.38	0.005882
1331.03	0.006272
1340.67	0.006962
1350.32	0.008122
1359.96	0.010352
1369.61	0.013002
1379.25	0.014942
1388.9	0.013312
1398.54	0.010072
1408.18	0.008652
1417.83	0.007882
1427.47	0.007722
1437.12	0.007352
1446.76	0.006972
1456.41	0.006902
1466.05	0.005722
1475.7	0.007922
1485.34	0.021512
1494.99	0.036522
1504.63	0.013022
1514.28	0.004152
1523.92	0.002292
1533.57	0.001702
1543.21	0.001412
1552.86	0.0013088
1562.5	0.0012169
1572.15	0.001342
1581.79	0.001652
1591.44	0.002462
1601.08	0.002772
1610.73	0.001872
1620.37	0.001592
1630.01	0.001772
1639.66	0.001942
1649.3	0.001722
1658.95	0.0012334
1668.59	0.0013202
1678.24	0.0013276
1687.88	0.001762
1697.53	0.002402
1707.17	0.003472
1716.82	0.005222
1726.46	0.008502
1736.11	0.013632
1745.75	0.021962
1755.4	0.033602
1765.04	0.055712
1774.69	0.084272
1784.33	0.075872
1793.98	0.046422
1803.62	0.027302
1813.27	0.016142
1822.91	0.008692
1832.55	0.004872
1842.2	0.003142
1851.84	0.002222
1861.49	0.001952
1871.13	0.001872
1880.78	0.002282
1890.42	0.002422
1900.07	0.001962
1909.71	0.001472
1919.36	0.0010623
1929	0.000979
1938.65	0.000873
1948.29	0.0007914
1957.94	0.0007531
1967.58	0.0006871
1977.23	0.000692
1986.87	0.000566
1996.52	0.0006337
2006.16	0.0005873
2015.81	0.0006427
2025.45	0.0005038
2035.1	0.0005687
2044.74	0.0004943
2054.38	0.0004793
2064.03	0.0005235
2073.67	0.0004866
2083.32	0.00042825
2092.96	0.0004867
2102.61	0.0004995
2112.25	0.0004733
2121.9	0.000489
2131.54	0.0005611
2141.19	0.0005593
2150.83	0.0006088
2160.48	0.0005581
2170.12	0.0004911
2179.77	0.0006085
2189.41	0.0005691
2199.06	0.0005269
2208.7	0.0005849
2218.35	0.0006718
2227.99	0.0006984
2237.64	0.0007219
2247.28	0.0006514
2256.92	0.0006016
2266.57	0.0005532
2276.21	0.0005982
2285.86	0.0005818
2295.5	0.0005876
2305.15	0.0006821
2314.79	0.0005844
2324.44	0.0005451
2334.08	0.0004953
2343.73	0.0005292
2353.37	0.0004732
2363.02	0.000449
2372.66	0.0004763
2382.31	0.0005488
2391.95	0.0005203
2401.6	0.0005476
2411.24	0.0006133
2420.89	0.0005864
2430.53	0.0005236
2440.18	0.0006468
2449.82	0.0005372
2459.47	0.0004564
2469.11	0.00042538
2478.75	0.0004689
2488.4	0.0004352
2498.04	0.0005279
2507.69	0.0003784
2517.33	0.00040318
2526.98	0.00039823
2536.62	0.0005028
2546.27	0.00043076
2555.91	0.0004387
2565.56	0.0004387
2575.2	0.00041945
2584.85	0.00040633
2594.49	0.0004929
2604.14	0.0004854
2613.78	0.000515
2623.43	0.0002695
2633.07	0.000336992
2642.72	0.000492
2652.36	0.00039729
2662.01	0.0004721
2671.65	0.0005402
2681.29	0.0004482
2690.94	0.000443
2700.58	0.0004328
2710.23	0.0004348
2719.87	0.0003726
2729.52	0.000337188
2739.16	0.00036707
2748.81	0.0004668
2758.45	0.00039106
2768.1	0.00037332
2777.74	0.00039291
2787.39	0.0004833
2797.03	0.0005514
2806.68	0.0005918
2816.32	0.0005734
2825.97	0.0007232
2835.61	0.0009063
2845.26	0.0011204
2854.9	0.001622
2864.55	0.002232
2874.19	0.002692
2883.84	0.002422
2893.48	0.002092
2903.12	0.002202
2912.77	0.002892
2922.41	0.004792
2932.06	0.007862
2941.7	0.009052
2951.35	0.007512
2960.99	0.006382
2970.64	0.005812
2980.28	0.004872
2989.93	0.004132
2999.57	0.003142
3009.22	0.002492
3018.86	0.003122
3028.51	0.005542
3038.15	0.005912
3047.8	0.003972
3057.44	0.003072
3067.09	0.002202
3076.73	0.002772
3086.38	0.003042
3096.02	0.003252
3105.67	0.002162
3115.31	0.001362
3124.95	0.0006745
3134.6	0.00039307
3144.24	0.00041318
3153.89	0.0004741
3163.53	0.0004467
3173.18	0.000333967
3182.82	0.000155
3192.47	0.0002467
3202.11	0.000204
3211.76	0.0003114
3221.4	0.00032683
3231.05	0.000183
3240.69	0.00036726
3250.34	0.0003075
3259.98	0.0003393
3269.63	0.000292
3279.27	0.000211
3288.92	0.0003232
3298.56	0.00035307
3308.21	0.000109
3317.85	0.000299
3327.49	0.00031
3337.14	0.0005191
3346.78	0.0002977
3356.43	0.00032702
3366.07	0.0003647
3375.72	0.0002477
3385.36	0.0003078
3395.01	0.000204
3404.65	0.000161
3414.3	3.4e-05
3423.94	7.8e-05
3433.59	0.0003962
3443.23	0.00036983
3452.88	0.0004703
3462.52	0.00041169
3472.17	0.0003078
3481.81	0.00037381
3491.46	0.0003632
3501.1	0.0007658
3510.75	0.0006966
3520.39	0.001342
3530.04	0.002042
3539.68	0.002102
3549.32	0.003492
3558.97	0.007802
3568.61	0.029522
3578.26	0.036652
3587.9	0.008342
3597.55	0.003122
3607.19	0.001762
3616.84	0.001372
3626.48	0.000814
3636.13	0.0007282
3645.77	0.0006725
3655.42	0.0005551
3665.06	0.0005054
3674.71	0.0006836
3684.35	0.00041964
3694	0.0004489
3703.64	0.00042315
3713.29	0.0004335
3722.93	0.0004696
3732.58	0.0005249
3742.22	0.000309
3751.86	0.0005167
3761.51	0.0004701
3771.15	0.0002544
3780.8	0.00037305
3790.44	0.000223
3800.09	0.00042693
3809.73	0.0003509
3819.38	0.0004532
3829.02	0.0004382
3838.67	0.00034411
3848.31	0.0005228
3857.96	0.00039112
3867.6	0.0005133
3877.25	0.0005576
3886.89	0.00038408
3896.54	0.00038448
3906.18	0.000186
3915.83	0.0002547
3925.47	0.000485
3935.12	0.0004861
3944.76	0.00017
3954.41	0.000296
3964.05	0.0002986
3973.69	0.0005631
3983.34	0.00042066
3992.98	0.0002455
