Infrared Spectrum: Aniline, 2-tert-butyl-N-cyclohexyl-
Formula: C16 H25 N
CAS: 202276-37-7
State: LIQUID (NEAT)
Class: COBLENTZ III
Instrument: BECKMAN IR-4 (HYBRID PRISM-GRATING)
Instrument parameters: NaCl PRISM
Sampling: TRANSMISSION
Path length: CAPILLARY
Resolution: 2
Origin: MONSANTO (J. FREEMAN)
1/CM	TRANSMITTANCE
625	0.8122
634	0.8309
643	0.8631
652	0.8715
661	0.8902
670	0.8931
679	0.8972
688	0.8881
697	0.8485
706	0.8488
715	0.8394
724	0.7804
733	0.4861
742	0.0887
751	0.2777
760	0.756
769	0.8582
778	0.8683
787	0.8562
796	0.8286
805	0.8074
814	0.659
823	0.6797
832	0.8571
841	0.8106
850	0.8603
859	0.6848
868	0.9099
877	0.9153
886	0.6721
895	0.7869
904	0.8915
913	0.9331
922	0.8372
931	0.7838
940	0.9274
949	0.9372
958	0.926
967	0.9358
976	0.8956
985	0.9011
994	0.9245
1003	0.8676
1012	0.8962
1021	0.837
1030	0.8121
1039	0.8589
1048	0.6832
1057	0.3902
1066	0.8525
1075	0.7833
1084	0.7752
1093	0.7689
1102	0.6401
1111	0.4908
1120	0.7441
1129	0.7326
1138	0.6401
1147	0.6797
1156	0.3281
1165	0.5066
1174	0.6396
1183	0.7644
1192	0.5601
1201	0.4928
1210	0.7723
1219	0.8333
1228	0.7743
1237	0.5356
1246	0.58
1255	0.2949
1264	0.2139
1273	0.3253
1282	0.5147
1291	0.413
1300	0.5089
1309	0.1947
1318	0.1538
1327	0.37
1336	0.5515
1345	0.6382
1354	0.5692
1363	0.6647
1372	0.3725
1381	0.5301
1390	0.7521
1399	0.6115
1408	0.579
1417	0.6839
1426	0.6883
1435	0.4691
1444	0.2229
1453	0.09
1462	0.157
1471	0.3395
1480	0.4259
1489	0.3392
1498	0.3819
1507	0.2363
1516	0.1119
1525	0.1282
1534	0.3053
1543	0.5286
1552	0.6105
1561	0.7588
1570	0.7648
1579	0.5442
1588	0.2697
1597	0.4702
1606	0.262
1615	0.359
1624	0.4555
1633	0.7251
1642	0.7921
1651	0.8497
1660	0.8512
1669	0.841
1678	0.8464
1687	0.8611
1696	0.8998
1705	0.921
1714	0.928
1723	0.9321
1732	0.939
1741	0.9474
1750	0.9541
1759	0.9563
1768	0.95
1777	0.9373
1786	0.9411
1795	0.9525
1804	0.9528
1813	0.9529
1822	0.954
1831	0.9565
1840	0.9583
1849	0.9545
1858	0.949
1867	0.9429
1876	0.9396
1885	0.9314
1894	0.9115
1903	0.9117
1912	0.9316
1921	0.941
1930	0.9399
1939	0.9448
1948	0.9582
1957	0.967
1966	0.9709
1975	0.9732
1984	0.9745
1993	0.9759
2002	0.9782
2011	0.9809
2020	0.9832
2029	0.9835
2038	0.9832
2047	0.983
2056	0.9831
2065	0.9827
2074	0.9822
2083	0.9818
2092	0.9814
2101	0.9807
2110	0.9796
2119	0.9786
2128	0.9775
2137	0.9754
2146	0.9713
2155	0.9725
2164	0.9764
2173	0.9761
2182	0.9723
2191	0.9734
2200	0.9761
2209	0.9787
2218	0.9804
2227	0.9814
2236	0.9825
2245	0.984
2254	0.9839
2263	0.9827
2272	0.9807
2281	0.979
2290	0.9781
2299	0.9771
2308	0.9763
2317	0.9767
2326	0.9779
2335	0.9791
2344	0.9802
2353	0.9822
2362	0.9843
2371	0.9864
2380	0.9882
2389	0.9891
2398	0.9818
2407	0.9712
2416	0.9663
2425	0.964
2434	0.9638
2443	0.9645
2452	0.9668
2461	0.9682
2470	0.9667
2479	0.965
2488	0.9629
2497	0.961
2506	0.9594
2515	0.9573
2524	0.9545
2533	0.9508
2542	0.9475
2551	0.9461
2560	0.9448
2569	0.9413
2578	0.9345
2587	0.9264
2596	0.9191
2605	0.9143
2614	0.9101
2623	0.9088
2632	0.9083
2641	0.9077
2650	0.9071
2659	0.9069
2668	0.9005
2677	0.889
2686	0.8769
2695	0.8696
2704	0.8835
2713	0.8964
2722	0.904
2731	0.9056
2740	0.9054
2749	0.9039
2758	0.9021
2767	0.8994
2776	0.8958
2785	0.8841
2794	0.8692
2803	0.8541
2812	0.8344
2821	0.8113
2830	0.7901
2839	0.762
2848	0.6993
2857	0.6491
2866	0.5002
2875	0.2358
2884	0.1821
2893	0.1978
2902	0.2191
2911	0.2154
2920	0.1682
2929	0.1213
2938	0.0751
2947	0.0586
2956	0.0575
2965	0.0593
2974	0.0843
2983	0.1166
2992	0.1886
3001	0.2605
3010	0.3319
3019	0.4029
3028	0.4734
3037	0.5436
3046	0.6126
3055	0.6314
3064	0.63
3073	0.6239
3082	0.6167
3091	0.6095
3100	0.6054
3109	0.6334
3118	0.6796
3127	0.7255
3136	0.7711
3145	0.8164
3154	0.8595
3163	0.8738
3172	0.8843
3181	0.8913
3190	0.8958
3199	0.899
3208	0.9019
3217	0.9048
3226	0.9078
3235	0.9115
3244	0.9207
3253	0.9245
3262	0.925
3271	0.925
3280	0.9249
3289	0.9248
3298	0.9246
3307	0.9242
3316	0.9239
3325	0.9236
3334	0.9229
3343	0.922
3352	0.9199
3361	0.9171
3370	0.913
3379	0.9078
3388	0.9017
3397	0.8942
3406	0.8863
3415	0.8731
3424	0.8679
3433	0.8665
3442	0.8665
3451	0.8661
3460	0.8582
3469	0.8167
3478	0.7712
3487	0.7259
3496	0.6809
3505	0.645
3514	0.6505
3523	0.6888
3532	0.7299
3541	0.7708
3550	0.8115
3559	0.8446
3568	0.856
3577	0.8644
3586	0.8758
3595	0.8902
3604	0.9025
3613	0.9135
3622	0.9182
3631	0.9214
3640	0.9239
3649	0.9258
3658	0.9277
3667	0.9293
3676	0.9301
3685	0.931
3694	0.9316
3703	0.9322
3712	0.9325
3721	0.9301
3730	0.9321
3739	0.9319
3748	0.9316
3757	0.9313
3766	0.931
3775	0.9308
3784	0.9304
3793	0.9301
3802	0.9297
3811	0.929
3820	0.9281
3829	0.9272
3838	0.9262
3847	0.9252
3856	0.9241
3865	0.923
3874	0.9221
3883	0.9212
3892	0.9208
3901	0.9203
3910	0.92
3919	0.9194
3928	0.9187
3937	0.918
3946	0.9167
3955	0.9146
3964	0.9127
3973	0.9112
3982	0.9102
3991	0.9094
4000	0.9087
