Infrared Spectrum: Carbodiimide, bis(o-methoxyphenyl)-
Formula: C15 H14 N2 O2
CAS: 20220-77-3
State: SOLID (SPLIT MULL), FLUOROLUBE FOR 3800-1330 CM^-^1, NUJOL FOR 1330-400 CM^-^1
Class: COBLENTZ III
Instrument: BECKMAN IR-9 (GRATING)
Instrument parameters: ORDER CHANGES: 670, 1200, 2000 CM^-^1
Sampling: TRANSMISSION
Resolution: 2
Origin: DOW CHEMICAL COMPANY
1/CM	TRANSMITTANCE
3798	0.7195
3789	0.7204
3780	0.7212
3771	0.7221
3762	0.7232
3753	0.7243
3744	0.7256
3735	0.7265
3726	0.7275
3717	0.7284
3708	0.7294
3699	0.7304
3690	0.7315
3681	0.7325
3672	0.7335
3663	0.7344
3654	0.7353
3645	0.7362
3636	0.7371
3627	0.7382
3618	0.7391
3609	0.7396
3600	0.7401
3591	0.7405
3582	0.7408
3573	0.7408
3564	0.7408
3555	0.7405
3546	0.7399
3537	0.7393
3528	0.7389
3519	0.7386
3510	0.7398
3501	0.7421
3492	0.7443
3483	0.7464
3474	0.7476
3465	0.7489
3456	0.7503
3447	0.7518
3438	0.7533
3429	0.7544
3420	0.7551
3411	0.7556
3402	0.756
3393	0.7565
3384	0.7568
3375	0.7557
3366	0.754
3357	0.7491
3348	0.7214
3339	0.7062
3330	0.7191
3321	0.7365
3312	0.749
3303	0.7576
3294	0.7638
3285	0.7687
3276	0.7721
3267	0.7738
3258	0.7743
3249	0.7741
3240	0.7739
3231	0.7732
3222	0.7725
3213	0.7717
3204	0.7708
3195	0.7701
3186	0.7698
3177	0.7734
3168	0.7782
3159	0.7822
3150	0.7858
3141	0.7885
3132	0.7908
3123	0.7921
3114	0.7932
3105	0.7926
3096	0.7918
3087	0.7848
3078	0.7771
3069	0.7744
3060	0.7785
3051	0.7811
3042	0.7833
3033	0.7851
3024	0.7757
3015	0.7818
3006	0.7368
2997	0.7697
2988	0.7878
2979	0.7435
2970	0.74
2961	0.7587
2952	0.7386
2943	0.7214
2934	0.7547
2925	0.763
2916	0.7654
2907	0.7717
2898	0.7821
2889	0.79
2880	0.7962
2871	0.7958
2862	0.7917
2853	0.781
2844	0.7324
2835	0.7968
2826	0.8125
2817	0.8203
2808	0.8241
2799	0.8263
2790	0.8275
2781	0.828
2772	0.8285
2763	0.8289
2754	0.8294
2745	0.8306
2736	0.832
2727	0.8334
2718	0.836
2709	0.8385
2700	0.8405
2691	0.8423
2682	0.8438
2673	0.8451
2664	0.8465
2655	0.8461
2646	0.8436
2637	0.8418
2628	0.8416
2619	0.8439
2610	0.8456
2601	0.8468
2592	0.8477
2583	0.8485
2574	0.8498
2565	0.8513
2556	0.8525
2547	0.8538
2538	0.8541
2529	0.8543
2520	0.8558
2511	0.858
2502	0.861
2493	0.8637
2484	0.8661
2475	0.8684
2466	0.8703
2457	0.8712
2448	0.8705
2439	0.8678
2430	0.8681
2421	0.8668
2412	0.8638
2403	0.8637
2394	0.8654
2385	0.8638
2376	0.8598
2367	0.856
2358	0.8537
2349	0.8607
2340	0.8642
2331	0.8636
2322	0.8628
2313	0.8637
2304	0.8696
2295	0.8735
2286	0.8642
2277	0.8491
2268	0.8436
2259	0.8514
2250	0.8786
2241	0.887
2232	0.888
2223	0.8883
2214	0.8886
2205	0.8883
2196	0.8811
2187	0.8525
2178	0.7521
2169	0.7293
2160	0.5393
2151	0.2
2142	0.1204
2133	0.2334
2124	0.291
2115	0.0585
2106	0.0308
2097	0.2391
2088	0.2927
2079	0.3909
2070	0.6031
2061	0.6571
2052	0.6733
2043	0.6722
2034	0.5844
2025	0.6364
2016	0.7489
2007	0.7935
1998	0.7836
1989	0.8198
1980	0.8315
1971	0.8398
1962	0.8446
1953	0.842
1944	0.8349
1935	0.8393
1926	0.8556
1917	0.8544
1908	0.8517
1899	0.8554
1890	0.8654
1881	0.8695
1872	0.8671
1863	0.8671
1854	0.8727
1845	0.877
1836	0.8784
1827	0.8815
1818	0.8843
1809	0.887
1800	0.8861
1791	0.8789
1782	0.8788
1773	0.8853
1764	0.8895
1755	0.8925
1746	0.895
1737	0.8961
1728	0.896
1719	0.8955
1710	0.8932
1701	0.8897
1692	0.8874
1683	0.8507
1674	0.838
1665	0.8828
1656	0.8921
1647	0.8961
1638	0.8947
1629	0.8925
1620	0.8849
1611	0.8537
1602	0.7437
1593	0.6812
1584	0.7425
1575	0.8698
1566	0.8775
1557	0.8553
1548	0.701
1539	0.7064
1530	0.8048
1521	0.8103
1512	0.8157
1503	0.6686
1494	0.3473
1485	0.7025
1476	0.7167
1467	0.636
1458	0.4927
1449	0.7517
1440	0.7206
1431	0.8087
1422	0.8284
1413	0.8421
1404	0.8578
1395	0.8662
1386	0.87
1377	0.8693
1368	0.8628
1359	0.8478
1350	0.8252
1341	0.7658
1332	0.7837
1323	0.7549
1314	0.4812
1305	0.546
1296	0.6288
1287	0.6968
1278	0.5868
1269	0.6014
1260	0.1303
1251	0.305
1242	0.3879
1233	0.5796
1224	0.6341
1215	0.5228
1206	0.4351
1197	0.7171
1188	0.6905
1179	0.4768
1170	0.7082
1161	0.6032
1152	0.7658
1143	0.8114
1134	0.8158
1125	0.7611
1116	0.3697
1107	0.6229
1098	0.7676
1089	0.7353
1080	0.6575
1071	0.8158
1062	0.8218
1053	0.7489
1044	0.3812
1035	0.569
1026	0.2582
1017	0.6105
1008	0.771
999	0.813
990	0.8344
981	0.8416
972	0.8436
963	0.8575
954	0.864
945	0.8567
936	0.7437
927	0.8506
918	0.8662
909	0.884
900	0.8844
891	0.8871
882	0.8925
873	0.8962
864	0.895
855	0.8534
846	0.884
837	0.6715
828	0.8816
819	0.8805
810	0.7557
801	0.8775
792	0.8942
783	0.8774
774	0.8489
765	0.7636
756	0.0881
747	0.5184
738	0.6323
729	0.7192
720	0.7792
711	0.8694
702	0.8771
693	0.8959
684	0.9125
675	0.9216
666	0.9261
657	0.9297
648	0.9273
639	0.8818
630	0.8952
621	0.819
612	0.3262
603	0.6915
594	0.8697
585	0.8487
576	0.6753
567	0.8797
558	0.8992
549	0.9049
540	0.9039
531	0.8954
522	0.85
513	0.8658
504	0.8718
495	0.8597
486	0.7907
477	0.8071
468	0.796
459	0.7831
450	0.7568
441	0.7239
432	0.68
423	0.6548
414	0.6438
405	0.6354
