Infrared Spectrum: CIS-9, TRANS-12 METHYL LINOLEATE
Formula: C19 H34 O2
CAS: 20221-26-5
State: SOLUTION (9.1% CS2 FOR 5000-2380 AND 1330-625, 9.1% C2Cl4 FOR 2380-1330 CM^-^1)
Class: COBLENTZ
Instrument: PERKIN-ELMER
Sampling: TRANSMISSION
Path length: 0.01 CM, 0.01 CM
Resolution: 4
Origin: HORMEL INSTITUTE
MICROMETERS	TRANSMITTANCE
2.014	0.907
2.0478	0.907
2.0816	0.903
2.1154	0.903
2.1492	0.902
2.183	0.902
2.2168	0.902
2.2506	0.897
2.2844	0.885
2.3182	0.876
2.352	0.875
2.3858	0.876
2.4196	0.881
2.4534	0.887
2.4872	0.888
2.521	0.893
2.5548	0.898
2.5886	0.9
2.6224	0.9
2.6562	0.903
2.69	0.902
2.7238	0.902
2.7576	0.903
2.7914	0.902
2.8252	0.9
2.859	0.89
2.8928	0.88
2.9266	0.887
2.9604	0.888
2.9942	0.89
3.028	0.892
3.0618	0.892
3.0956	0.892
3.12941	0.888
3.16321	0.887
3.19701	0.883
3.23081	0.873
3.26461	0.841
3.29841	0.672
3.33221	0.519
3.36601	0.313
3.39981	0.116
3.43361	0.084
3.46741	0.318
3.50121	0.192
3.53501	0.598
3.56881	0.782
3.60261	0.839
3.63641	0.856
3.67021	0.858
3.70401	0.863
3.73781	0.861
3.77161	0.87
3.80541	0.873
3.83921	0.878
3.87301	0.885
3.90681	0.888
3.94061	0.888
3.97441	0.89
4.00821	0.897
4.04201	0.902
4.07581	0.9
4.10961	0.9
4.14341	0.897
4.17721	0.892
4.21101	0.892
4.24481	0.892
4.27861	0.892
4.31241	0.892
4.34621	0.898
4.38001	0.902
4.41381	0.902
4.44761	0.902
4.48141	0.903
4.51521	0.905
4.54901	0.905
4.58281	0.903
4.61661	0.902
4.65041	0.902
4.68421	0.902
4.71801	0.902
4.75181	0.902
4.78561	0.9
4.81941	0.893
4.85321	0.892
4.88701	0.892
4.92081	0.892
4.95461	0.898
4.98841	0.898
5.02221	0.898
5.05601	0.898
5.08981	0.9
5.12361	0.9
5.15741	0.9
5.19121	0.902
5.22501	0.902
5.25881	0.9
5.29261	0.9
5.32642	0.898
5.36022	0.898
5.39402	0.898
5.42782	0.892
5.46162	0.885
5.49542	0.878
5.52922	0.87
5.56302	0.848
5.59682	0.817
5.63062	0.763
5.66442	0.585
5.69822	0.224
5.73202	0.059
5.76582	0.301
5.79962	0.569
5.83342	0.706
5.86722	0.731
5.90102	0.787
5.93482	0.811
5.96862	0.824
6.00242	0.819
6.03622	0.817
6.07002	0.831
6.10382	0.839
6.13762	0.846
6.17142	0.849
6.20522	0.853
6.23902	0.856
6.27282	0.858
6.30662	0.86
6.34042	0.86
6.37422	0.861
6.40802	0.863
6.44182	0.866
6.47562	0.861
6.50942	0.866
6.54322	0.868
6.57702	0.866
6.61082	0.86
6.64462	0.849
6.67842	0.841
6.71222	0.821
6.74602	0.775
6.77982	0.615
6.81362	0.389
6.84742	0.401
6.88122	0.462
6.91502	0.418
6.94882	0.333
6.98262	0.561
7.01642	0.622
7.05022	0.699
7.08402	0.743
7.11782	0.748
7.15162	0.762
7.18542	0.762
7.21922	0.679
7.25302	0.627
7.28682	0.61
7.32062	0.524
7.35442	0.527
7.38822	0.549
7.42202	0.583
7.45582	0.615
7.48962	0.629
7.52342	0.62
7.55723	0.598
7.59103	0.586
7.62483	0.586
7.65863	0.59
7.69243	0.593
7.72623	0.598
7.76003	0.593
7.79383	0.566
7.82763	0.556
7.86143	0.544
7.89523	0.517
7.92903	0.485
7.96283	0.448
7.99663	0.416
8.03043	0.401
8.06423	0.419
8.09803	0.45
8.13183	0.462
8.16563	0.467
8.19943	0.456
8.23323	0.431
8.26703	0.401
8.30083	0.35
8.33463	0.308
8.36843	0.306
8.40223	0.36
8.43603	0.394
8.46983	0.338
8.50363	0.279
8.53743	0.259
8.57123	0.278
8.60503	0.35
8.63883	0.403
8.67263	0.46
8.70643	0.514
8.74023	0.537
8.77403	0.568
8.80783	0.598
8.84163	0.62
8.87543	0.629
8.90923	0.632
8.94303	0.647
8.97683	0.662
9.01063	0.659
9.04443	0.649
9.07823	0.645
9.11203	0.65
9.14583	0.655
9.17963	0.662
9.21343	0.672
9.24723	0.689
9.28103	0.699
9.31483	0.716
9.34863	0.73
9.38243	0.736
9.41623	0.743
9.45003	0.752
9.48383	0.757
9.51763	0.765
9.55143	0.765
9.58523	0.758
9.61903	0.752
9.65283	0.741
9.68663	0.73
9.72043	0.716
9.75424	0.696
9.78804	0.686
9.82184	0.679
9.85564	0.686
9.88944	0.693
9.92324	0.703
9.95704	0.715
9.99084	0.72
10.0246	0.723
10.0584	0.716
10.0922	0.709
10.126	0.696
10.1598	0.671
10.1936	0.625
10.2274	0.531
10.2612	0.438
10.295	0.367
10.3288	0.335
10.3626	0.381
10.3964	0.516
10.4302	0.629
10.464	0.706
10.4978	0.753
10.5316	0.775
10.5654	0.795
10.5992	0.809
10.633	0.816
10.6668	0.824
10.7006	0.831
10.7344	0.834
10.7682	0.829
10.802	0.829
10.8358	0.826
10.8696	0.819
10.9034	0.826
10.9372	0.826
10.971	0.826
11.0048	0.824
11.0386	0.824
11.0724	0.821
11.1062	0.822
11.14	0.819
11.1738	0.812
11.2076	0.809
11.2414	0.801
11.2752	0.792
11.309	0.785
11.3428	0.779
11.3766	0.775
11.4104	0.782
11.4442	0.785
11.478	0.784
11.5118	0.782
11.5456	0.782
11.5794	0.784
11.6132	0.784
11.647	0.78
11.6808	0.782
11.7146	0.785
11.7484	0.785
11.7822	0.784
11.816	0.784
11.8498	0.784
11.8836	0.784
11.9174	0.785
11.9512	0.792
11.985	0.795
12.0188	0.801
12.0526	0.802
12.0864	0.811
12.1202	0.817
12.154	0.826
12.1878	0.829
12.2216	0.829
12.2554	0.833
12.2892	0.834
12.323	0.834
12.3568	0.834
12.3906	0.836
12.4244	0.836
12.4582	0.838
12.492	0.839
12.5258	0.839
12.5596	0.839
12.5934	0.839
12.6272	0.838
12.661	0.834
12.6948	0.834
12.7286	0.827
12.7624	0.827
12.7962	0.824
12.83	0.824
12.8638	0.822
12.8976	0.819
12.9314	0.816
12.9652	0.816
12.999	0.811
13.0328	0.806
13.0667	0.799
13.1005	0.797
13.1343	0.795
13.1681	0.787
13.2019	0.784
13.2357	0.784
13.2695	0.782
13.3033	0.779
13.3371	0.777
13.3709	0.772
13.4047	0.763
13.4385	0.757
13.4723	0.748
13.5061	0.743
13.5399	0.735
13.5737	0.72
13.6075	0.703
13.6413	0.689
13.6751	0.676
13.7089	0.661
13.7427	0.65
13.7765	0.634
13.8103	0.627
13.8441	0.627
13.8779	0.635
13.9117	0.667
13.9455	0.684
13.9793	0.694
14.0131	0.708
14.0469	0.716
14.0807	0.728
14.1145	0.736
14.1483	0.74
14.1821	0.743
14.2159	0.753
14.2497	0.753
14.2835	0.755
14.3173	0.762
14.3511	0.765
14.3849	0.768
14.4187	0.774
14.4525	0.78
14.4863	0.784
14.5201	0.789
14.5539	0.794
14.5877	0.795
14.6215	0.804
14.6553	0.809
14.6891	0.811
14.7229	0.821
14.7567	0.824
14.7905	0.829
14.8243	0.833
14.8581	0.838
14.8919	0.841
14.9257	0.838
14.9595	0.834
14.9933	0.844
15.0271	0.863
15.0609	0.86
15.0947	0.853
15.1285	0.854
15.1623	0.863
15.1961	0.865
15.2299	0.865
