Infrared Spectrum: cis-3-Nonene
Formula: C 9 H 18
CAS: 20237-46-1
State: gas
Instrument: HP-GC/MS/IRD
Origin: NIST Mass Spectrometry Data Center
1/CM	ABSORBANCE
550	0.0002132
562	3.12e-05
574	0.0001378
586	0.0003796
598	0.0003146
610	0.0002418
622	0.000221
634	0.0003406
646	0.0003744
658	0.000559
670	0.000832
682	0.0012558
694	0.001898
706	0.0022516
718	0.0021788
730	0.001742
742	0.0012272
754	0.0008554
766	0.0007254
778	0.000611
790	0.0004862
802	0.0003588
814	0.0002626
826	0.0003016
838	0.0003146
850	0.0003406
862	0.0003666
874	0.0003198
886	0.0002808
898	0.0002834
910	0.000182
922	0.0001638
934	0.0001118
946	0.0002288
958	0.0003484
970	0.0003744
982	0.000403
994	0.0003692
1006	0.0002938
1018	0.000416
1030	0.0003848
1042	0.000351
1054	0.0004134
1066	0.0006006
1078	0.0005226
1090	0.0003822
1102	0.0002964
1114	0.0001898
1126	0.0002314
1138	0.0001872
1150	0.0001196
1162	5.2e-05
1174	7.54e-05
1186	0.0001118
1198	0.00013
1210	0.0001482
1222	0.0001716
1234	0.0002106
1246	0.00026
1258	0.0003302
1270	0.000455
1282	0.0006422
1294	0.0008918
1306	0.0011206
1318	0.0008034
1330	0.0006292
1342	0.0006864
1354	0.000702
1366	0.0006968
1378	0.0009412
1390	0.0010452
1402	0.001196
1414	0.0010322
1426	0.000988
1438	0.0015522
1450	0.0024726
1462	0.0030186
1474	0.0023322
1486	0.0012792
1498	0.0006656
1510	0.0004394
1522	0.0002912
1534	0.0001898
1546	0.0001612
1558	0.0001248
1570	0.0001066
1582	0.0001066
1594	0.0001274
1606	0.00013
1618	0.000182
1630	0.0002704
1642	0.0003952
1654	0.0004706
1666	0.00039
1678	0.0003146
1690	0.0002548
1702	0.0001794
1714	0.0001612
1726	0.0001066
1738	8.84e-05
1750	8.06e-05
1762	7.54e-05
1774	6.5e-05
1786	5.46e-05
1798	4.68e-05
1810	3.64e-05
1822	3.38e-05
1834	3.38e-05
1846	2.34e-05
1858	2.6e-05
1870	1.82e-05
1882	3.9e-05
1894	3.38e-05
1906	1.04e-05
1918	1.82e-05
1930	1.56e-05
1942	1.56e-05
1954	1.3e-05
1966	2.6e-05
1978	2.08e-05
1990	2.6e-06
2002	2.34e-05
2014	3.9e-05
2026	7.28e-05
2038	7.54e-05
2050	4.42e-05
2062	4.94e-05
2074	3.12e-05
2086	2.08e-05
2098	2.34e-05
2110	0
2122	1.3e-05
2134	2.34e-05
2146	3.12e-05
2158	7.8e-06
2170	2.08e-05
2182	2.6e-05
2194	0
2206	3.12e-05
2218	2.86e-05
2230	2.08e-05
2242	2.6e-05
2254	3.64e-05
2266	3.64e-05
2278	3.9e-05
2290	4.94e-05
2302	3.64e-05
2314	4.94e-05
2326	4.68e-05
2338	5.2e-05
2350	6.24e-05
2362	4.16e-05
2374	5.72e-05
2386	5.46e-05
2398	5.46e-05
2410	6.24e-05
2422	6.76e-05
2434	3.9e-05
2446	5.72e-05
2458	4.42e-05
2470	5.2e-05
2482	4.68e-05
2494	6.76e-05
2506	6.24e-05
2518	9.36e-05
2530	0.0001144
2542	0.000117
2554	0.000117
2566	0.0001144
2578	0.0001274
2590	0.0001352
2602	0.0001482
2614	0.0001378
2626	0.0001846
2638	0.0002028
2650	0.000234
2662	0.0002782
2674	0.0002704
2686	0.000273
2698	0.0002886
2710	0.0003354
2722	0.0003874
2734	0.0004992
2746	0.0005356
2758	0.0005382
2770	0.0006084
2782	0.000715
2794	0.0008892
2806	0.0011362
2818	0.0016042
2830	0.0023582
2842	0.004056
2854	0.0074282
2866	0.0107874
2878	0.0122694
2890	0.011908
2902	0.0117078
2914	0.015652
2926	0.0227942
2938	0.026
2950	0.0217932
2962	0.0216606
2974	0.0204152
2986	0.0112398
2998	0.007826
3010	0.0084812
3022	0.006422
3034	0.0031044
3046	0.0016354
3058	0.0012506
3070	0.0010374
3082	0.0008164
3094	0.0006916
3106	0.0005954
3118	0.0004732
3130	0.0004394
3142	0.0004264
3154	0.0003562
3166	0.0003406
3178	0.0003068
3190	0.0002834
3202	0.0001846
3214	0.000156
3226	0.0001456
3238	0.000117
3250	9.36e-05
3262	9.62e-05
3274	0.0001144
3286	0.0001352
3298	5.72e-05
3310	9.1e-05
3322	4.94e-05
3334	6.5e-05
3346	5.72e-05
3358	5.46e-05
3370	8.06e-05
3382	4.42e-05
3394	5.46e-05
3406	3.64e-05
3418	6.24e-05
3430	6.24e-05
3442	7.02e-05
3454	3.38e-05
3466	3.12e-05
3478	4.42e-05
3490	5.2e-06
3502	5.98e-05
3514	8.32e-05
3526	3.64e-05
3538	1.3e-05
3550	2.86e-05
3562	5.72e-05
3574	4.68e-05
3586	7.28e-05
3598	4.42e-05
3610	7.28e-05
3622	4.68e-05
3634	7.02e-05
3646	8.58e-05
3658	8.32e-05
3670	0.0001248
3682	7.8e-05
3694	8.84e-05
3706	8.84e-05
3718	0.0001092
3730	0.0001092
3742	0.0001144
3754	7.8e-05
3766	0.0001222
3778	0.000117
3790	0.0001014
3802	8.58e-05
3814	7.8e-05
3826	0.0001222
3838	5.46e-05
