Infrared Spectrum: CHRYSAZIN, 4-ANILINO-5-NITRO
Formula: C20 H12 N2 O6
CAS: 20241-76-3
State: SOLID (KBr PELLET)
Class: COBLENTZ
Instrument: Not specified, most likely a prism, grating, or hybrid spectrometer.
Sampling: TRANSMISSION
Resolution: 4
Origin: TENNESSEE EASTMAN COMPANY, RESEARCH LABORATORIES
MICROMETERS	TRANSMITTANCE
2.036	0.788
2.07589	0.792
2.11578	0.8
2.15567	0.801
2.19555	0.811
2.23544	0.818
2.27533	0.82
2.31522	0.821
2.35511	0.826
2.395	0.831
2.43488	0.841
2.47477	0.845
2.51466	0.848
2.55455	0.85
2.59444	0.86
2.63433	0.853
2.67422	0.858
2.7141	0.851
2.75399	0.853
2.79388	0.853
2.83377	0.851
2.87366	0.851
2.91355	0.848
2.95343	0.841
2.99332	0.843
3.03321	0.843
3.0731	0.843
3.11299	0.831
3.15288	0.821
3.19276	0.816
3.23265	0.806
3.27254	0.763
3.31243	0.762
3.35232	0.793
3.39221	0.801
3.4321	0.803
3.47198	0.823
3.51187	0.836
3.55176	0.86
3.59165	0.863
3.63154	0.871
3.67143	0.871
3.71131	0.871
3.7512	0.876
3.79109	0.883
3.83098	0.886
3.87087	0.888
3.91076	0.896
3.95065	0.9
3.99053	0.903
4.03042	0.911
4.07031	0.916
4.1102	0.918
4.15009	0.92
4.18998	0.921
4.22986	0.943
4.26975	0.96
4.30964	0.94
4.34953	0.911
4.38942	0.923
4.42931	0.941
4.4692	0.945
4.50908	0.945
4.54897	0.946
4.58886	0.951
4.62875	0.95
4.66864	0.95
4.70853	0.951
4.74841	0.95
4.7883	0.955
4.82819	0.956
4.86808	0.955
4.90797	0.953
4.94786	0.953
4.98774	0.955
5.02763	0.963
5.06752	0.958
5.10741	0.946
5.1473	0.943
5.18719	0.953
5.22708	0.938
5.26696	0.955
5.30685	0.95
5.34674	0.955
5.38663	0.951
5.42652	0.951
5.46641	0.953
5.50629	0.941
5.54618	0.943
5.58607	0.94
5.62596	0.95
5.66585	0.925
5.70574	0.931
5.74563	0.91
5.78551	0.9
5.8254	0.916
5.86529	0.901
5.90518	0.85
5.94507	0.863
5.98496	0.86
6.02484	0.861
6.06473	0.845
6.10462	0.775
6.14451	0.74
6.1844	0.589
6.22429	0.212
6.26418	0.199
6.30406	0.116
6.34395	0.342
6.38384	0.261
6.42373	0.379
6.46362	0.342
6.50351	0.164
6.54339	0.537
6.58328	0.489
6.62317	0.332
6.66306	0.452
6.70295	0.502
6.74284	0.51
6.78272	0.357
6.82261	0.269
6.8625	0.241
6.90239	0.419
6.94228	0.457
6.98217	0.494
7.02206	0.52
7.06194	0.584
7.10183	0.713
7.14172	0.715
7.18161	0.657
7.2215	0.56
7.26139	0.444
7.30127	0.384
7.34116	0.339
7.38105	0.524
7.42094	0.422
7.46083	0.47
7.50072	0.574
7.54061	0.648
7.58049	0.597
7.62038	0.608
7.66027	0.55
7.70016	0.43
7.74005	0.277
7.77994	0.309
7.81982	0.317
7.85971	0.294
7.8996	0.196
7.93949	0.088
7.97938	0.068
8.01927	0.174
8.05916	0.201
8.09904	0.277
8.13893	0.327
8.17882	0.434
8.21871	0.419
8.2586	0.314
8.29849	0.267
8.33837	0.399
8.37826	0.52
8.41815	0.46
8.45804	0.294
8.49793	0.069
8.53782	0.151
8.5777	0.347
8.61759	0.567
8.65748	0.577
8.69737	0.484
8.73726	0.665
8.77715	0.735
8.81704	0.763
8.85692	0.787
8.89681	0.798
8.9367	0.8
8.97659	0.787
9.01648	0.775
9.05637	0.826
9.09625	0.845
9.13614	0.85
9.17603	0.838
9.21592	0.806
9.25581	0.83
9.2957	0.856
9.33559	0.873
9.37547	0.871
9.41536	0.876
9.45525	0.883
9.49514	0.89
9.53503	0.89
9.57492	0.89
9.6148	0.883
9.65469	0.871
9.69458	0.863
9.73447	0.88
9.77436	0.886
9.81425	0.888
9.85414	0.89
9.89402	0.891
9.93391	0.891
9.9738	0.865
10.0137	0.81
10.0536	0.618
10.0935	0.7
10.1334	0.8
10.1732	0.815
10.2131	0.821
10.253	0.821
10.2929	0.833
10.3328	0.876
10.3727	0.89
10.4126	0.906
10.4525	0.908
10.4924	0.916
10.5322	0.92
10.5721	0.921
10.612	0.926
10.6519	0.921
10.6918	0.901
10.7317	0.91
10.7716	0.925
10.8115	0.931
10.8513	0.941
10.8912	0.945
10.9311	0.898
10.971	0.813
11.0109	0.883
11.0508	0.923
11.0907	0.945
11.1306	0.955
11.1705	0.961
11.2103	0.963
11.2502	0.963
11.2901	0.961
11.33	0.96
11.3699	0.96
11.4098	0.951
11.4497	0.871
11.4896	0.903
11.5294	0.95
11.5693	0.953
11.6092	0.945
11.6491	0.921
11.689	0.855
11.7289	0.63
11.7688	0.469
11.8087	0.502
11.8486	0.65
11.8884	0.673
11.9283	0.668
11.9682	0.725
12.0081	0.793
12.048	0.85
12.0879	0.868
12.1278	0.851
12.1677	0.803
12.2076	0.793
12.2474	0.815
12.2873	0.831
12.3272	0.84
12.3671	0.843
12.407	0.84
12.4469	0.823
12.4868	0.806
12.5267	0.78
12.5665	0.735
12.6064	0.672
12.6463	0.653
12.6862	0.64
12.7261	0.59
12.766	0.517
12.8059	0.457
12.8458	0.499
12.8857	0.668
12.9255	0.788
12.9654	0.838
13.0053	0.831
13.0452	0.81
13.0851	0.76
13.125	0.628
13.1649	0.592
13.2048	0.643
13.2447	0.655
13.2845	0.628
13.3244	0.58
13.3643	0.517
13.4042	0.445
13.4441	0.392
13.484	0.387
13.5239	0.522
13.5638	0.643
13.6036	0.703
13.6435	0.74
13.6834	0.765
13.7233	0.793
13.7632	0.808
13.8031	0.818
13.843	0.83
13.8829	0.836
13.9228	0.833
13.9626	0.831
14.0025	0.836
14.0424	0.848
14.0823	0.855
14.1222	0.855
14.1621	0.851
14.202	0.83
14.2419	0.8
14.2818	0.743
14.3216	0.657
14.3615	0.56
14.4014	0.52
14.4413	0.564
14.4812	0.683
14.5211	0.762
14.561	0.805
14.6009	0.81
14.6407	0.805
14.6806	0.81
14.7205	0.818
14.7604	0.82
14.8003	0.803
14.8402	0.768
14.8801	0.732
14.92	0.722
14.9599	0.738
14.9997	0.811
15.0396	0.855
15.0795	0.87
15.1194	0.883
15.1593	0.891
15.1992	0.9
15.2391	0.905
15.279	0.908
15.3189	0.911
15.3587	0.913
15.3986	0.913
15.4385	0.913
15.4784	0.913
15.5183	0.911
15.5582	0.91
15.5981	0.91
15.638	0.905
15.6778	0.9
15.7177	0.885
15.7576	0.875
15.7975	0.858
15.8374	0.838
15.8773	0.813
15.9172	0.792
15.9571	0.773
15.997	0.767
