Infrared Spectrum: 6-METHYL IONONE
Formula: C14 H22 O
CAS: 202481-73-0
State: LIQUID
Class: COBLENTZ
Instrument: Not specified, most likely a prism, grating, or hybrid spectrometer.
Sampling: TRANSMISSION
Path length: 0.0025 CM
Resolution: 4
Origin: INFRACORD
MICROMETERS	TRANSMITTANCE
2.53	0.856
2.56541	0.861
2.60082	0.864
2.63623	0.867
2.67163	0.873
2.70704	0.869
2.74245	0.875
2.77786	0.875
2.81327	0.86
2.84868	0.848
2.88409	0.83
2.91949	0.79
2.9549	0.767
2.99031	0.764
3.02572	0.773
3.06113	0.766
3.09654	0.768
3.13194	0.787
3.16735	0.805
3.20276	0.808
3.23817	0.803
3.27358	0.804
3.30899	0.797
3.3444	0.74
3.3798	0.611
3.41521	0.481
3.45062	0.118
3.48603	0.003
3.52144	0.003
3.55685	0.052
3.59226	0.062
3.62766	0.26
3.66307	0.699
3.69848	0.812
3.73389	0.831
3.7693	0.837
3.80471	0.849
3.84012	0.851
3.87552	0.854
3.91093	0.877
3.94634	0.89
3.98175	0.899
4.01716	0.918
4.05257	0.921
4.08797	0.926
4.12338	0.932
4.15879	0.94
4.1942	0.94
4.22961	0.938
4.26502	0.941
4.30043	0.949
4.33583	0.956
4.37124	0.949
4.40665	0.95
4.44206	0.947
4.47747	0.947
4.51288	0.953
4.54829	0.953
4.58369	0.952
4.6191	0.95
4.65451	0.943
4.68992	0.944
4.72533	0.944
4.76074	0.941
4.79615	0.944
4.83155	0.945
4.86696	0.944
4.90237	0.939
4.93778	0.936
4.97319	0.933
5.0086	0.932
5.044	0.932
5.07941	0.932
5.11482	0.932
5.15023	0.931
5.18564	0.93
5.22105	0.931
5.25646	0.931
5.29186	0.933
5.32727	0.928
5.36268	0.92
5.39809	0.918
5.4335	0.915
5.46891	0.906
5.50432	0.896
5.53972	0.899
5.57513	0.892
5.61054	0.879
5.64595	0.856
5.68136	0.828
5.71677	0.787
5.75218	0.704
5.78758	0.555
5.82299	0.29
5.8584	0.072
5.89381	0.206
5.92922	0.379
5.96463	0.411
6.00003	0.197
6.03544	0.17
6.07085	0.031
6.10626	0.129
6.14167	0.363
6.17708	0.578
6.21249	0.502
6.24789	0.313
6.2833	0.273
6.31871	0.492
6.35412	0.649
6.38953	0.734
6.42494	0.796
6.46035	0.836
6.49575	0.851
6.53116	0.856
6.56657	0.862
6.60198	0.855
6.63739	0.838
6.6728	0.842
6.70821	0.835
6.74361	0.811
6.77902	0.781
6.81443	0.739
6.84984	0.558
6.88525	0.468
6.92066	0.221
6.95606	0.21
6.99147	0.225
7.02688	0.26
7.06229	0.29
7.0977	0.337
7.13311	0.407
7.16852	0.56
7.20392	0.594
7.23933	0.582
7.27474	0.439
7.31015	0.345
7.34556	0.285
7.38097	0.204
7.41638	0.142
7.45178	0.142
7.48719	0.274
7.5226	0.395
7.55801	0.452
7.59342	0.515
7.62883	0.492
7.66424	0.491
7.69964	0.516
7.73505	0.508
7.77046	0.464
7.80587	0.43
7.84128	0.445
7.87669	0.471
7.91209	0.483
7.9475	0.43
7.98291	0.322
8.01832	0.229
8.05373	0.103
8.08914	0.031
8.12455	0.125
8.15995	0.267
8.19536	0.336
8.23077	0.361
8.26618	0.345
8.30159	0.329
8.337	0.331
8.37241	0.321
8.40781	0.291
8.44322	0.299
8.47863	0.28
8.51404	0.234
8.54945	0.214
8.58486	0.202
8.62027	0.207
8.65567	0.24
8.69108	0.293
8.72649	0.348
8.7619	0.406
8.79731	0.485
8.83272	0.505
8.86812	0.568
8.90353	0.636
8.93894	0.619
8.97435	0.547
9.00976	0.476
9.04517	0.434
9.08058	0.482
9.11598	0.526
9.15139	0.581
9.1868	0.586
9.22221	0.605
9.25762	0.624
9.29303	0.614
9.32844	0.632
9.36384	0.655
9.39925	0.651
9.43466	0.635
9.47007	0.572
9.50548	0.549
9.54089	0.558
9.5763	0.521
9.6117	0.529
9.64711	0.529
9.68252	0.508
9.71793	0.479
9.75334	0.471
9.78875	0.488
9.82415	0.51
9.85956	0.531
9.89497	0.578
9.93038	0.598
9.96579	0.562
10.0012	0.488
10.0366	0.408
10.072	0.349
10.1074	0.336
10.1428	0.387
10.1782	0.398
10.2136	0.362
10.2491	0.359
10.2845	0.438
10.3199	0.617
10.3553	0.675
10.3907	0.681
10.4261	0.674
10.4615	0.668
10.4969	0.677
10.5323	0.682
10.5677	0.697
10.6031	0.734
10.6386	0.761
10.674	0.778
10.7094	0.783
10.7448	0.785
10.7802	0.79
10.8156	0.793
10.851	0.777
10.8864	0.779
10.9218	0.776
10.9572	0.741
10.9926	0.678
11.028	0.636
11.0635	0.714
11.0989	0.784
11.1343	0.8
11.1697	0.806
11.2051	0.815
11.2405	0.817
11.2759	0.812
11.3113	0.808
11.3467	0.799
11.3821	0.78
11.4175	0.783
11.4529	0.798
11.4884	0.797
11.5238	0.791
11.5592	0.778
11.5946	0.758
11.63	0.763
11.6654	0.772
11.7008	0.76
11.7362	0.776
11.7716	0.784
11.807	0.784
11.8424	0.793
11.8778	0.796
11.9133	0.8
11.9487	0.81
11.9841	0.825
12.0195	0.834
12.0549	0.835
12.0903	0.83
12.1257	0.813
12.1611	0.803
12.1965	0.791
12.2319	0.763
12.2673	0.74
12.3028	0.701
12.3382	0.663
12.3736	0.619
12.409	0.622
12.4444	0.616
12.4798	0.649
12.5152	0.695
12.5506	0.731
12.586	0.746
12.6214	0.751
12.6568	0.741
12.6922	0.764
12.7277	0.785
12.7631	0.806
12.7985	0.821
12.8339	0.818
12.8693	0.819
12.9047	0.825
12.9401	0.832
12.9755	0.832
13.0109	0.836
13.0463	0.84
13.0817	0.841
13.1171	0.84
13.1526	0.835
13.188	0.836
13.2234	0.836
13.2588	0.838
13.2942	0.835
13.3296	0.831
13.365	0.829
13.4004	0.824
13.4358	0.829
13.4712	0.824
13.5066	0.815
13.542	0.806
13.5775	0.812
13.6129	0.806
13.6483	0.804
13.6837	0.783
13.7191	0.773
13.7545	0.766
13.7899	0.75
13.8253	0.721
13.8607	0.714
13.8961	0.71
13.9315	0.725
13.967	0.728
14.0024	0.739
14.0378	0.746
14.0732	0.755
14.1086	0.759
14.144	0.768
14.1794	0.774
14.2148	0.772
14.2502	0.763
14.2856	0.763
14.321	0.772
14.3564	0.779
14.3919	0.781
14.4273	0.772
14.4627	0.767
14.4981	0.772
14.5335	0.771
14.5689	0.774
14.6043	0.768
14.6397	0.772
14.6751	0.763
14.7105	0.767
14.7459	0.755
14.7813	0.748
14.8168	0.735
14.8522	0.728
14.8876	0.726
14.923	0.736
14.9584	0.738
14.9938	0.735
