Infrared Spectrum: Indole, 3-methyl-, hydrochloride
Formula: C9 H10 Cl N
CAS: 20244-19-3
State: SOLID (KBr DISC, 0.9% WT.)
Class: COBLENTZ III
Instrument: PERKIN-ELMER 157
Sampling: TRANSMISSION
Resolution: 2
Origin: BRITISH PETROLEUM CO. LTD., ENGLAND
1/CM	TRANSMITTANCE
668	0.572
677	0.2145
686	0.6362
695	0.7024
704	0.7917
713	0.723
722	0.6626
731	0.3181
740	0.0474
749	0.0348
758	0.0357
767	0.6062
776	0.7019
785	0.6422
794	0.8361
803	0.8379
812	0.82
821	0.7791
830	0.6377
839	0.7368
848	0.7559
857	0.7814
866	0.6673
875	0.6977
884	0.4368
893	0.6947
902	0.5815
911	0.2494
920	0.3895
929	0.5236
938	0.5342
947	0.4983
956	0.657
965	0.73
974	0.7249
983	0.6877
992	0.6723
1001	0.4488
1010	0.5344
1019	0.5496
1028	0.5844
1037	0.6521
1046	0.6424
1055	0.5944
1064	0.6544
1073	0.6251
1082	0.594
1091	0.4265
1100	0.5358
1109	0.4464
1118	0.4787
1127	0.5129
1136	0.4744
1145	0.5098
1154	0.498
1163	0.5663
1172	0.4652
1181	0.5956
1190	0.5905
1199	0.5672
1208	0.4701
1217	0.3496
1226	0.2936
1235	0.2798
1244	0.199
1253	0.3674
1262	0.3347
1271	0.444
1280	0.5278
1289	0.5023
1298	0.3033
1307	0.0922
1316	0.1347
1325	0.2121
1334	0.1531
1343	0.2813
1352	0.3539
1361	0.2757
1370	0.1892
1379	0.1119
1388	0.1843
1397	0.4723
1406	0.5476
1415	0.5347
1424	0.49
1433	0.3321
1442	0.1622
1451	0.0677
1460	0.1561
1469	0.4462
1478	0.2225
1487	0.2978
1496	0.598
1505	0.6716
1514	0.6664
1523	0.6488
1532	0.6146
1541	0.4948
1550	0.347
1559	0.2756
1568	0.3553
1577	0.4777
1586	0.4767
1595	0.4897
1604	0.5592
1613	0.4929
1622	0.5553
1631	0.6586
1640	0.6975
1649	0.7151
1658	0.7321
1667	0.7489
1676	0.7548
1685	0.7626
1694	0.7669
1703	0.7676
1712	0.7724
1721	0.7825
1730	0.7838
1739	0.7766
1748	0.763
1757	0.7599
1766	0.7679
1775	0.7685
1784	0.7479
1793	0.7147
1802	0.7262
1811	0.7572
1820	0.7557
1829	0.7436
1838	0.7073
1847	0.6938
1856	0.6803
1865	0.6484
1874	0.6564
1883	0.6729
1892	0.6944
1901	0.6876
1910	0.6674
1919	0.6562
1928	0.6915
1937	0.705
1946	0.7002
1955	0.6955
1964	0.7013
1973	0.6936
1982	0.6732
1991	0.6606
2000	0.6541
2009	0.6367
2018	0.6223
2027	0.6076
2036	0.6104
2045	0.6155
2054	0.6127
2063	0.6046
2072	0.6
2081	0.5986
2090	0.5885
2099	0.5852
2108	0.5828
2117	0.5711
2126	0.5659
2135	0.5641
2144	0.5631
2153	0.553
2162	0.5338
2171	0.5301
2180	0.5248
2189	0.5158
2198	0.5039
2207	0.4906
2216	0.4782
2225	0.4587
2234	0.4434
2243	0.4324
2252	0.4109
2261	0.3884
2270	0.3662
2279	0.3385
2288	0.3229
2297	0.2992
2306	0.2817
2315	0.259
2324	0.2329
2333	0.2102
2342	0.1909
2351	0.159
2360	0.149
2369	0.1372
2378	0.1266
2387	0.1198
2396	0.1134
2405	0.1042
2414	0.0874
2423	0.0695
2432	0.0535
2441	0.043
2450	0.0354
2459	0.0313
2468	0.0286
2477	0.0276
2486	0.0276
2495	0.0276
2504	0.0283
2513	0.0296
2522	0.0312
2531	0.0325
2540	0.0336
2549	0.0335
2558	0.0325
2567	0.0307
2576	0.0296
2585	0.0296
2594	0.0307
2603	0.0317
2612	0.0327
2621	0.0322
2630	0.0323
2639	0.0313
2648	0.0305
2657	0.0297
2666	0.0295
2675	0.0305
2684	0.0319
2693	0.0335
2702	0.0346
2711	0.0346
2720	0.0338
2729	0.0322
2738	0.0311
2747	0.0301
2756	0.0293
2765	0.0291
2774	0.0294
2783	0.0301
2792	0.0315
2801	0.0351
2810	0.0421
2819	0.0477
2828	0.0512
2837	0.0533
2846	0.0586
2855	0.084
2864	0.0932
2873	0.0986
2882	0.1019
2891	0.105
2900	0.1392
2909	0.1641
2918	0.1773
2927	0.187
2936	0.2154
2945	0.2537
2954	0.2887
2963	0.3035
2972	0.3051
2981	0.3038
2990	0.296
2999	0.287
3008	0.2782
3017	0.273
3026	0.2813
3035	0.3437
3044	0.3985
3053	0.4062
3062	0.4081
3071	0.4085
3080	0.4081
3089	0.4013
3098	0.3776
3107	0.3537
3116	0.3299
3125	0.3063
3134	0.2827
3143	0.2593
3152	0.2361
3161	0.2129
3170	0.19
3179	0.1711
3188	0.1511
3197	0.1294
3206	0.1079
3215	0.0891
3224	0.0527
3233	0.0361
3242	0.0319
3251	0.0303
3260	0.0343
3269	0.0646
3278	0.0959
3287	0.127
3296	0.158
3305	0.1888
3314	0.2381
3323	0.2694
3332	0.2872
3341	0.3049
3350	0.3225
3359	0.3365
3368	0.3454
3377	0.3521
3386	0.3583
3395	0.3665
3404	0.372
3413	0.3767
3422	0.3818
3431	0.3883
3440	0.4015
3449	0.4139
3458	0.4272
3467	0.4441
3476	0.4669
3485	0.4859
3494	0.501
3503	0.5227
3512	0.5382
3521	0.5474
3530	0.5584
3539	0.5753
3548	0.586
3557	0.5965
3566	0.6103
3575	0.6324
3584	0.6544
3593	0.6646
3602	0.6738
3611	0.6856
3620	0.7
3629	0.7127
3638	0.721
3647	0.7261
3656	0.7296
3665	0.7309
3674	0.7309
3683	0.7298
3692	0.7271
3701	0.7244
3710	0.7221
3719	0.7209
3728	0.7199
3737	0.7191
3746	0.7191
3755	0.7192
3764	0.7197
3773	0.7201
3782	0.7205
3791	0.7181
3800	0.714
3809	0.7081
3818	0.7043
3827	0.7005
3836	0.6968
3845	0.6934
3854	0.6902
3863	0.6882
3872	0.6863
3881	0.6846
3890	0.6837
3899	0.6828
3908	0.6819
3917	0.6812
3926	0.6807
3935	0.6802
3944	0.6799
3953	0.6796
3962	0.6791
3971	0.6788
3980	0.6784
3989	0.678
3998	0.6777
