Infrared Spectrum: 2,4,4,6-Tetrabromo-2,5-cyclohexadienone
Formula: C 6 H 2 Br 4 O
CAS: 20244-61-5
State: gas
Origin: EPA-IR VAPOR PHASE LIBRARY
1/CM	ABSORBANCE
549.9	0.0011689
559.547	0.00037708
569.193	0.000185
578.84	0.0003172
588.486	0.000106
598.133	0.000335068
607.779	0.00038667
617.426	0.00042285
627.072	0.000278
636.719	0.0003055
646.365	0.000613
656.012	0.0009658
665.658	0.0011569
675.305	0.004078
684.951	0.003538
694.598	0.000698
704.245	0.0009713
713.891	0.000808
723.538	0.001291
733.184	0.003558
742.831	0.002898
752.477	0.0008616
762.124	0.0008389
771.77	0.0012253
781.417	0.000794
791.063	0.00039528
800.71	0.0002542
810.356	0.0002502
820.003	0.0002569
829.649	0.0003148
839.296	0.0006056
848.943	0.0012161
858.589	0.002898
868.236	0.0008881
877.882	0.0005569
887.529	0.0004328
897.175	0.00040399
906.822	0.00033438
916.468	0.0002596
926.115	0.0003092
935.761	0.0002459
945.408	0.0003055
955.054	0.0002806
964.701	0.0002815
974.347	0.0002719
983.994	0.000267
993.64	0.0002316
1003.29	0.000219
1012.93	0.000216
1022.58	0.000225
1032.23	0.0004024
1041.87	0.0004754
1051.52	0.0005807
1061.17	0.0006442
1070.81	0.00069
1080.46	0.0006332
1090.11	0.0006241
1099.75	0.0008174
1109.4	0.0009655
1119.05	0.0005712
1128.69	0.0004331
1138.34	0.0008315
1147.99	0.002448
1157.63	0.006668
1167.28	0.004548
1176.92	0.001758
1186.57	0.001608
1196.22	0.002578
1205.86	0.002568
1215.51	0.001858
1225.16	0.003668
1234.8	0.001778
1244.45	0.0008926
1254.1	0.001538
1263.74	0.002818
1273.39	0.002018
1283.04	0.0006631
1292.68	0.0005056
1302.33	0.001778
1311.98	0.006328
1321.62	0.004188
1331.27	0.0010833
1340.92	0.0011863
1350.56	0.000944
1360.21	0.0007352
1369.86	0.001548
1379.5	0.003658
1389.15	0.003788
1398.79	0.001948
1408.44	0.001768
1418.09	0.001498
1427.73	0.001538
1437.38	0.002968
1447.03	0.007648
1456.67	0.016258
1466.32	0.005928
1475.97	0.001758
1485.61	0.0010021
1495.26	0.0005291
1504.91	0.0004578
1514.55	0.0005722
1524.2	0.0005923
1533.85	0.0006251
1543.49	0.0011231
1553.14	0.002308
1562.79	0.001818
1572.43	0.0011277
1582.08	0.0009754
1591.73	0.0006255
1601.37	0.0004406
1611.02	0.00035465
1620.67	0.0002722
1630.31	0.00033801
1639.96	0.00032442
1649.6	0.0003092
1659.25	0.00033922
1668.9	0.0002792
1678.54	0.0002913
1688.19	0.0003037
1697.84	0.000345
1707.48	0.0004664
1717.13	0.0004675
1726.78	0.0005472
1736.42	0.000479
1746.07	0.0004452
1755.72	0.0003385
1765.36	0.0002622
1775.01	0.000239
1784.66	0.000284
1794.3	0.0002712
1803.95	0.0002605
1813.6	0.0003166
1823.24	0.0002857
1832.89	0.0002713
1842.54	0.0002727
1852.18	0.0002801
1861.83	0.0003154
1871.47	0.000268
1881.12	0.0002837
1890.77	0.0003122
1900.41	0.0002977
1910.06	0.0003164
1919.71	0.000314
1929.35	0.00033853
1939	0.0003124
1948.65	0.0003037
1958.29	0.0002952
1967.94	0.000311
1977.59	0.0003164
1987.23	0.0003111
1996.88	0.00033507
2006.53	0.00032491
2016.17	0.000329091
2025.82	0.00034504
2035.47	0.00031913
2045.11	0.0003174
2054.76	0.0002809
2064.41	0.0003069
2074.05	0.00035028
2083.7	0.00034511
2093.35	0.000330896
2102.99	0.0003677
2112.64	0.00035212
2122.28	0.000332178
2131.93	0.00032193
2141.58	0.00032357
2151.22	0.00037068
2160.87	0.000294
2170.52	0.0003093
2180.16	0.00032678
2189.81	0.0003087
2199.46	0.000330896
2209.1	0.00035737
2218.75	0.00031865
2228.4	0.00041301
2238.04	0.00038022
2247.69	0.00040387
2257.34	0.00037007
2266.98	0.00038057
2276.63	0.00038313
2286.28	0.00036973
2295.92	0.00039072
2305.57	0.00033385
2315.22	0.00039749
2324.86	0.00035052
2334.51	0.00034477
2344.16	0.00036573
2353.8	0.00033839
2363.45	0.00037542
2373.09	0.00037533
2382.74	0.00039713
2392.39	0.0003686
2402.03	0.0003703
2411.68	0.00040689
2421.33	0.00042612
2430.97	0.0004397
2440.62	0.00036141
2450.27	0.00041367
2459.91	0.00038865
2469.56	0.0004423
2479.21	0.0004472
2488.85	0.0004504
2498.5	0.00040815
2508.15	0.0004596
2517.79	0.0003937
2527.44	0.0004656
2537.09	0.00041247
2546.73	0.00039103
2556.38	0.00039794
2566.03	0.0003896
2575.67	0.00040663
2585.32	0.0004296
2594.96	0.0004339
2604.61	0.0004541
2614.26	0.00042635
2623.9	0.00040992
2633.55	0.00042382
2643.2	0.0004376
2652.84	0.00041622
2662.49	0.0004556
2672.14	0.00042715
2681.78	0.0005019
2691.43	0.000497
2701.08	0.0004891
2710.72	0.0004315
2720.37	0.0004922
2730.02	0.0005043
2739.66	0.00042795
2749.31	0.0004451
2758.96	0.0004668
2768.6	0.0004663
2778.25	0.0005311
2787.9	0.000444
2797.54	0.00038357
2807.19	0.0005037
2816.84	0.0004658
2826.48	0.0005392
2836.13	0.0005095
2845.77	0.0006374
2855.42	0.0005061
2865.07	0.0005034
2874.71	0.0004684
2884.36	0.0004835
2894.01	0.0004987
2903.65	0.0005587
2913.3	0.0004831
2922.95	0.0004676
2932.59	0.0004316
2942.24	0.0004861
2951.89	0.000432
2961.53	0.00040977
2971.18	0.0005038
2980.83	0.0005248
2990.47	0.0004434
3000.12	0.00036973
3009.77	0.0006263
3019.41	0.00035227
3029.06	0.00042663
3038.71	0.0004402
3048.35	0.00038835
3058	0.00038553
3067.64	0.0004713
3077.29	0.00038352
3086.94	0.0004354
3096.58	0.0003074
3106.23	0.00039517
3115.88	0.0004771
3125.52	0.000222
3135.17	0.0002783
3144.82	0.0003031
3154.46	0.000336364
3164.11	0.0002292
3173.76	0.0002343
3183.4	0.0002502
3193.05	0.00036439
3202.7	0.0002326
3212.34	0.0003023
3221.99	0.0003038
3231.64	0.000127
3241.28	0.0003088
3250.93	7.7e-05
3260.58	0.000218
3270.22	0.0002293
3279.87	0.0002951
3289.52	0.000193
3299.16	0.0002959
3308.81	0.0002861
3318.45	9e-05
3328.1	0.0002326
3337.75	0.00016
3347.39	0
3357.04	0.0002973
3366.69	0.00012
3376.33	0.000156
3385.98	0.000251
3395.63	0.00021
3405.27	0.000207
3414.92	0.00035719
3424.57	0.000164
3434.21	0.0002736
3443.86	0.000158
3453.51	0.000158
3463.15	0.0003432
3472.8	0.000141
3482.45	0.0002476
3492.09	0.000295
3501.74	0.0003405
3511.39	0.00037638
3521.03	0.00037147
3530.68	0.000987
3540.33	0.006108
3549.97	0.008388
3559.62	0.003518
3569.26	0.0010545
3578.91	0.0005371
3588.56	0.000333338
3598.2	0.00038465
3607.85	0.000208
3617.5	0.000222
3627.14	5e-05
3636.79	0.0002544
3646.44	0.0002518
3656.08	0.000173
3665.73	0.0002561
3675.38	0.000185
3685.02	0.00031967
3694.67	0.000207
3704.32	0.000167
3713.96	0.0002858
3723.61	0.0002928
3733.26	0.0002418
3742.9	0.0003042
3752.55	0.000151
3762.2	0.0002889
3771.84	0.000206
3781.49	0.0002345
3791.13	0.00035117
3800.78	0.000168
3810.43	0.000327058
3820.07	0.00037268
3829.72	0.0003055
3839.37	0.00035788
3849.01	0.000303
3858.66	0.00038844
3868.31	0.0002932
3877.95	0.0002388
3887.6	0.0002403
3897.25	0.000213
3906.89	0.0002519
3916.54	0.00037203
3926.19	0.00036492
3935.83	0.00037543
3945.48	0.00035776
3955.13	0.00041399
3964.77	0.000334645
3974.42	0.0002492
3984.07	0.0003099
3993.71	0.000330535
