Infrared Spectrum: Ethyl 2-bromo-3-methyl-4,4,4-trifluorobutyrate
Formula: C 7 H 10 Br F 3 O 2
CAS: 2024-54-6
State: gas
Origin: EPA-IR VAPOR PHASE LIBRARY
1/CM	ABSORBANCE
549.8	0.00247
559.445	0.0032
569.09	0.00251
578.734	0.0018134
588.379	0.00237
598.024	0.00354
607.669	0.00304
617.313	0.0036
626.958	0.00343
636.603	0.00333
646.248	0.00277
655.893	0.00255
665.537	0.0027
675.182	0.00126474
684.827	0.00251
694.472	0.0021285
704.116	0.0014819
713.761	0.0018258
723.406	0.0020342
733.051	0.0020435
742.695	0.0014204
752.34	0.0014597
761.985	0.0017052
771.63	0.0019149
781.275	0.0014283
790.919	0.0025
800.564	0.0014706
810.209	0.00251
819.854	0.00409
829.498	0.0015902
839.143	0.00241
848.788	0.00258
858.433	0.00319
868.078	0.00294
877.722	0.0016481
887.367	0.0018431
897.012	0.00253
906.657	0.0015772
916.301	0.0016715
925.946	0.0021634
935.591	0.00245
945.236	0.0029
954.88	0.00319
964.525	0.00268
974.17	0.00262
983.815	0.00386
993.46	0.0036
1003.1	0.00474
1012.75	0.00875
1022.39	0.01449
1032.04	0.01529
1041.68	0.01087
1051.33	0.00749
1060.97	0.00905
1070.62	0.00923
1080.26	0.00825
1089.91	0.00958
1099.55	0.0134
1109.2	0.01739
1118.84	0.01963
1128.49	0.02695
1138.13	0.04237
1147.78	0.0448
1157.42	0.03623
1167.07	0.03037
1176.71	0.03909
1186.36	0.04443
1196	0.02983
1205.64	0.01796
1215.29	0.01822
1224.93	0.01918
1234.58	0.02362
1244.22	0.02917
1253.87	0.03619
1263.51	0.034
1273.16	0.02849
1282.8	0.023
1292.45	0.01778
1302.09	0.01558
1311.74	0.01425
1321.38	0.0111
1331.03	0.00806
1340.67	0.0081
1350.32	0.009
1359.96	0.01025
1369.61	0.01068
1379.25	0.00878
1388.9	0.00704
1398.54	0.00634
1408.18	0.00412
1417.83	0.00368
1427.47	0.0037
1437.12	0.00355
1446.76	0.00412
1456.41	0.00523
1466.05	0.0073
1475.7	0.00552
1485.34	0.00348
1494.99	0.00247
1504.63	0.0021154
1514.28	0.0021478
1523.92	0.00189
1533.57	0.0018064
1543.21	0.0019321
1552.86	0.0017152
1562.5	0.0013662
1572.15	0.0016307
1581.79	0.0017764
1591.44	0.001793
1601.08	0.0015401
1610.73	0.002144
1620.37	0.0021942
1630.01	0.0015821
1639.66	0.0019347
1649.3	0.0016321
1658.95	0.0017115
1668.59	0.0019785
1678.24	0.0022131
1687.88	0.00227
1697.53	0.00226
1707.17	0.0029
1716.82	0.00361
1726.46	0.005
1736.11	0.00882
1745.75	0.01676
1755.4	0.02838
1765.04	0.0284
1774.69	0.01194
1784.33	0.00551
1793.98	0.00374
1803.62	0.00291
1813.27	0.00243
1822.91	0.0020719
1832.55	0.0017483
1842.2	0.0017086
1851.84	0.0016421
1861.49	0.0018333
1871.13	0.0017971
1880.78	0.0016553
1890.42	0.0013822
1900.07	0.0015985
1909.71	0.0016024
1919.36	0.0013873
1929	0.0013532
1938.65	0.0014456
1948.29	0.0017292
1957.94	0.0014791
1967.58	0.0014215
1977.23	0.0015143
1986.87	0.00132564
1996.52	0.00133709
2006.16	0.00129246
2015.81	0.0012066
2025.45	0.0013169
2035.1	0.0016276
2044.74	0.0015228
2054.38	0.0014725
2064.03	0.0015083
2073.67	0.0012248
2083.32	0.0014327
2092.96	0.0017128
2102.61	0.00126014
2112.25	0.001106
2121.9	0.00132559
2131.54	0.0012277
2141.19	0.000881
2150.83	0.00126583
2160.48	0.0014492
2170.12	0.00126452
2179.77	0.0012084
2189.41	0.00125713
2199.06	0.0014166
2208.7	0.0014184
2218.35	0.0012052
2227.99	0.0014287
2237.64	0.00128157
2247.28	0.000971
2256.92	0.00127474
2266.57	0.00128247
2276.21	0.000899
2285.86	0.0017817
2295.5	0.00124973
2305.15	0.001198
2314.79	0.001176
2324.44	0.0011516
2334.08	0.001111
2343.73	0.000937
2353.37	0.001075
2363.02	0.0014291
2372.66	0.00137
2382.31	0.0012167
2391.95	0.00130973
2401.6	0.0011857
2411.24	0.00133479
2420.89	0.000904
2430.53	0.000665
2440.18	0.0014184
2449.82	0.001122
2459.47	0.000979
2469.11	0.0014154
2478.75	0.00124236
2488.4	0.00133659
2498.04	0.001051
2507.69	0.000876
2517.33	0.0012177
2526.98	0.001051
2536.62	0.000979
2546.27	0.00111
2555.91	0.0011504
2565.56	0.00125935
2575.2	0.000914
2584.85	0.00077
2594.49	0.000795
2604.14	0.0012256
2613.78	0.0013935
2623.43	0.0011871
2633.07	0.000976
2642.72	0.00065
2652.36	0.0013565
2662.01	0.00086
2671.65	0.000661
2681.29	0.000874
2690.94	0.00076
2700.58	0.00099
2710.23	0.000803
2719.87	0.0013962
2729.52	0.0021304
2739.16	0.0013278
2748.81	0.0014118
2758.45	0.000972
2768.1	0.00127915
2777.74	0.00132372
2787.39	0.000513
2797.03	0.000516
2806.68	0.0012809
2816.32	0.0013762
2825.97	0.00126416
2835.61	0.001033
2845.26	0.000679
2854.9	0.00109
2864.55	0.0011917
2874.19	0.001473
2883.84	0.0018128
2893.48	0.0022319
2903.12	0.00278
2912.77	0.00256
2922.41	0.00308
2932.06	0.00312
2941.7	0.0047
2951.35	0.0048
2960.99	0.00468
2970.64	0.00456
2980.28	0.00617
2989.93	0.00799
2999.57	0.0071
3009.22	0.00613
3018.86	0.00393
3028.51	0.00274
3038.15	0.0011641
3047.8	0.000891
3057.44	0.0014285
3067.09	0.00127077
3076.73	0.00133674
3086.38	0.00130284
3096.02	0.001046
3105.67	0.00134864
3115.31	0.000913
3124.95	0.001109
3134.6	0.000659
3144.24	0.000948
3153.89	0.0014757
3163.53	0.0014342
3173.18	0.00127814
3182.82	0.000922
3192.47	0.000676
3202.11	0.0014421
3211.76	0.000948
3221.4	0.0011841
3231.05	0.00104
3240.69	0.0015653
3250.34	0.000618
3259.98	0.000653
3269.63	0.000941
3279.27	0.0013854
3288.92	0.000965
3298.56	0.000797
3308.21	0.0011517
3317.85	0.000943
3327.49	0.000759
3337.14	0.000445
3346.78	0.00126939
3356.43	0.0013843
3366.07	0.000645
3375.72	0.000757
3385.36	0.00126505
3395.01	0.0014297
3404.65	0.000988
3414.3	0.00130282
3423.94	0.000656
3433.59	0.000963
3443.23	0.0015899
3452.88	0.000566
3462.52	0.001854
3472.17	0.0017154
3481.81	0.00126059
3491.46	0.0016328
3501.1	0.0013842
3510.75	0.0015739
3520.39	0.00132831
3530.04	0.0012393
3539.68	0.001175
3549.32	0.000618
3558.97	0.001052
3568.61	0.0011878
3578.26	0.000538
3587.9	0.0016484
3597.55	0.0014652
3607.19	0.001493
3616.84	0.0015408
3626.48	0.00132843
3636.13	0.001024
3645.77	0.0015175
3655.42	0.0014108
3665.06	0.001029
3674.71	0.0011763
3684.35	0.00168
3694	0.000867
3703.64	0.000275
3713.29	0.000621
3722.93	0.001113
3732.58	0.000763
3742.22	0.00072
3751.86	0.000391
3761.51	0.0013699
3771.15	0.000774
3780.8	0.001077
3790.44	0.0016582
3800.09	0.000277
3809.73	0.00132394
3819.38	0.000773
3829.02	0.000917
3838.67	0.001233
3848.31	0.0011
3857.96	0.0015199
3867.6	0.0014669
3877.25	0.000788
3886.89	0.0015316
3896.54	0.000594
3906.18	0.000785
3915.83	0.000986
3925.47	0.000525
3935.12	0.0014924
3944.76	0.000745
3954.41	0.001218
3964.05	0.0011795
3973.69	0.000468
3983.34	0.000759
3992.98	0.001035
