Infrared Spectrum: ETHYL Alpha-CYANOCINNAMATE
Formula: C12 H11 N O2
CAS: 2025-40-3
State: SOLID (MINERAL OIL MULL)
Melting point: 59-61 C
Class: COBLENTZ
Instrument: Not specified, most likely a prism, grating, or hybrid spectrometer.
Sampling: TRANSMISSION
Resolution: 4
Origin: WYANDOTTE CHEMICALS CORP., WYANDOTTE, MICHIGAN, USA
MICROMETERS	TRANSMITTANCE
2.012	0.464
2.04912	0.462
2.08624	0.467
2.12336	0.467
2.16048	0.462
2.1976	0.445
2.23472	0.444
2.27184	0.44
2.30896	0.439
2.34608	0.447
2.3832	0.439
2.42033	0.456
2.45745	0.453
2.49457	0.459
2.53169	0.481
2.56881	0.481
2.60593	0.481
2.64305	0.484
2.68017	0.484
2.71729	0.489
2.75441	0.489
2.79153	0.481
2.82865	0.489
2.86577	0.484
2.90289	0.479
2.94001	0.468
2.97713	0.476
3.01425	0.467
3.05137	0.465
3.08849	0.465
3.12561	0.454
3.16273	0.451
3.19985	0.447
3.23698	0.434
3.2741	0.417
3.31122	0.139
3.34834	0.021
3.38546	0.026
3.42258	0.032
3.4597	0.034
3.49682	0.057
3.53394	0.291
3.57106	0.454
3.60818	0.512
3.6453	0.51
3.68242	0.51
3.71954	0.532
3.75666	0.535
3.79378	0.548
3.8309	0.562
3.86802	0.571
3.90514	0.588
3.94226	0.597
3.97938	0.614
4.0165	0.622
4.05363	0.63
4.09075	0.628
4.12787	0.631
4.16499	0.636
4.20211	0.63
4.23923	0.604
4.27635	0.63
4.31347	0.638
4.35059	0.672
4.38771	0.686
4.42483	0.689
4.46195	0.687
4.49907	0.694
4.53619	0.656
4.57331	0.568
4.61043	0.686
4.64755	0.701
4.68467	0.714
4.72179	0.74
4.75891	0.746
4.79603	0.745
4.83315	0.757
4.87028	0.762
4.9074	0.767
4.94452	0.781
4.98164	0.798
5.01876	0.81
5.05588	0.822
5.093	0.787
5.13012	0.785
5.16724	0.771
5.20436	0.793
5.24148	0.833
5.2786	0.849
5.31572	0.835
5.35284	0.843
5.38996	0.903
5.42708	0.914
5.4642	0.902
5.50132	0.928
5.53844	0.927
5.57556	0.93
5.61268	0.923
5.64981	0.913
5.68693	0.751
5.72405	0.381
5.76117	0.178
5.79829	0.164
5.83541	0.22
5.87253	0.347
5.90965	0.433
5.94677	0.501
5.98389	0.568
6.02101	0.652
6.05813	0.759
6.09525	0.801
6.13237	0.437
6.16949	0.166
6.20661	0.262
6.24373	0.417
6.28085	0.416
6.31797	0.402
6.35509	0.506
6.39221	0.576
6.42933	0.59
6.46646	0.641
6.50358	0.647
6.5407	0.68
6.57782	0.694
6.61494	0.571
6.65206	0.495
6.68918	0.551
6.7263	0.361
6.76342	0.06
6.80054	0.052
6.83766	0.079
6.87478	0.051
6.9119	0.139
6.94902	0.405
6.98614	0.566
7.02326	0.67
7.06038	0.711
7.0975	0.731
7.13462	0.667
7.17174	0.389
7.20886	0.164
7.24598	0.155
7.28311	0.186
7.32023	0.454
7.35735	0.649
7.39447	0.709
7.43159	0.67
7.46871	0.732
7.50583	0.663
7.54295	0.507
7.58007	0.487
7.61719	0.361
7.65431	0.239
7.69143	0.279
7.72855	0.35
7.76567	0.495
7.80279	0.45
7.83991	0.301
7.87703	0.15
7.91415	0.09
7.95127	0.088
7.98839	0.145
8.02551	0.228
8.06263	0.27
8.09976	0.305
8.13688	0.501
8.174	0.655
8.21112	0.531
8.24824	0.259
8.28536	0.096
8.32248	0.085
8.3596	0.136
8.39672	0.147
8.43384	0.177
8.47096	0.184
8.50808	0.201
8.5452	0.232
8.58232	0.288
8.61944	0.318
8.65656	0.315
8.69368	0.372
8.7308	0.442
8.76792	0.484
8.80504	0.526
8.84216	0.554
8.87929	0.588
8.91641	0.608
8.95353	0.639
8.99065	0.586
9.02777	0.315
9.06489	0.222
9.10201	0.192
9.13913	0.184
9.17625	0.184
9.21337	0.254
9.25049	0.312
9.28761	0.336
9.32473	0.358
9.36185	0.428
9.39897	0.462
9.43609	0.501
9.47321	0.531
9.51033	0.54
9.54745	0.569
9.58457	0.574
9.62169	0.586
9.65881	0.585
9.69594	0.599
9.73306	0.591
9.77018	0.554
9.8073	0.437
9.84442	0.333
9.88154	0.276
9.91866	0.302
9.95578	0.355
9.9929	0.394
10.03	0.439
10.0671	0.444
10.1043	0.472
10.1414	0.504
10.1785	0.503
10.2156	0.459
10.2527	0.386
10.2899	0.405
10.327	0.391
10.3641	0.422
10.4012	0.541
10.4383	0.574
10.4755	0.586
10.5126	0.599
10.5497	0.625
10.5868	0.635
10.6239	0.655
10.6611	0.656
10.6982	0.659
10.7353	0.67
10.7724	0.675
10.8095	0.684
10.8467	0.704
10.8838	0.687
10.9209	0.701
10.958	0.732
10.9952	0.753
11.0323	0.762
11.0694	0.767
11.1065	0.776
11.1436	0.776
11.1808	0.774
11.2179	0.698
11.255	0.577
11.2921	0.572
11.3292	0.675
11.3664	0.731
11.4035	0.763
11.4406	0.781
11.4777	0.801
11.5148	0.81
11.552	0.822
11.5891	0.819
11.6262	0.81
11.6633	0.796
11.7004	0.742
11.7376	0.607
11.7747	0.487
11.8118	0.492
11.8489	0.577
11.886	0.624
11.9232	0.65
11.9603	0.656
11.9974	0.678
12.0345	0.729
12.0716	0.742
12.1088	0.753
12.1459	0.759
12.183	0.771
12.2201	0.776
12.2572	0.776
12.2944	0.773
12.3315	0.767
12.3686	0.74
12.4057	0.69
12.4428	0.684
12.48	0.706
12.5171	0.718
12.5542	0.72
12.5913	0.692
12.6285	0.694
12.6656	0.687
12.7027	0.67
12.7398	0.635
12.7769	0.582
12.8141	0.49
12.8512	0.372
12.8883	0.24
12.9254	0.203
12.9625	0.145
12.9997	0.113
13.0368	0.094
13.0739	0.156
13.111	0.267
13.1481	0.385
13.1853	0.47
13.2224	0.51
13.2595	0.583
13.2966	0.631
13.3337	0.67
13.3709	0.649
13.408	0.624
13.4451	0.659
13.4822	0.709
13.5193	0.729
13.5565	0.742
13.5936	0.767
13.6307	0.773
13.6678	0.788
13.7049	0.798
13.7421	0.807
13.7792	0.798
13.8163	0.795
13.8534	0.79
13.8905	0.788
13.9277	0.807
13.9648	0.836
14.0019	0.843
14.039	0.85
14.0761	0.85
14.1133	0.846
14.1504	0.84
14.1875	0.83
14.2246	0.821
14.2618	0.815
14.2989	0.81
14.336	0.807
14.3731	0.801
14.4102	0.796
14.4474	0.784
14.4845	0.647
14.5216	0.577
14.5587	0.487
14.5958	0.385
14.633	0.307
14.6701	0.259
14.7072	0.245
14.7443	0.276
14.7814	0.352
14.8186	0.427
14.8557	0.496
14.8928	0.548
14.9299	0.59
14.967	0.616
15.0042	0.624
15.0413	0.628
15.0784	0.644
15.1155	0.697
15.1526	0.729
15.1898	0.768
15.2269	0.799
15.264	0.812
15.3011	0.816
15.3382	0.824
15.3754	0.812
15.4125	0.81
15.4496	0.807
15.4867	0.799
15.5238	0.798
15.561	0.79
15.5981	0.791
15.6352	0.785
15.6723	0.774
15.7094	0.743
15.7466	0.729
15.7837	0.714
15.8208	0.709
15.8579	0.703
15.8951	0.695
15.9322	0.669
15.9693	0.652
16.0064	0.638
