Infrared Spectrum: 2,7-DIHYDROXY-NAPHTHALDEHYDE
Formula: C11 H8 O3
CAS: 20258-95-1
State: SOLID (1.0% IN KBr PELLET)
Class: COBLENTZ
Instrument: Not specified, most likely a prism, grating, or hybrid spectrometer.
Sampling: TRANSMISSION
Path length: 0.0355 CM
Resolution: 4
Origin: ANDERSON PHYSICAL LABORATORY
1/CM	TRANSMITTANCE
665.834	0.466
674.266	0.493
682.698	0.493
691.131	0.481
699.563	0.451
707.995	0.486
716.427	0.451
724.86	0.411
733.292	0.331
741.724	0.249
750.156	0.142
758.589	0.091
767.021	0.1589
775.453	0.2969
783.885	0.403
792.318	0.45
800.75	0.444
809.182	0.492
817.614	0.498
826.047	0.456
834.479	0.297
842.911	0.163
851.343	0.2278
859.775	0.6779
868.208	0.704
876.64	0.68
885.072	0.62
893.504	0.785
901.937	0.81
910.369	0.81
918.801	0.81
927.233	0.807
935.666	0.777
944.098	0.749
952.53	0.792
960.962	0.786
969.395	0.77
977.827	0.722
986.259	0.761
994.691	0.743
1003.12	0.744
1011.56	0.74
1019.99	0.732
1028.42	0.725
1036.85	0.707
1045.28	0.689
1053.72	0.663
1062.15	0.645
1070.58	0.618
1079.01	0.539
1087.45	0.327
1095.88	0.5929
1104.31	0.594
1112.74	0.557
1121.17	0.537
1129.61	0.496
1138.04	0.37
1146.47	0.237
1154.9	0.518
1163.34	0.456
1171.77	0.369
1180.2	0.2581
1188.63	0.174
1197.06	0.2739
1205.5	0.249
1213.93	0.157
1222.36	0.048
1230.79	0.087
1239.23	0.193
1247.66	0.216
1256.09	0.274
1264.52	0.253
1272.96	0.229
1281.39	0.1451
1289.82	0.048
1298.25	0.036
1306.68	0.036
1315.12	0.031
1323.55	0.036
1331.98	0.235
1340.41	0.611
1348.85	0.665
1357.28	0.5551
1365.71	0.393
1374.14	0.43
1382.57	0.442
1391.01	0.442
1399.44	0.288
1407.87	0.202
1416.3	0.354
1424.74	0.367
1433.17	0.372
1441.6	0.5569
1450.03	0.539
1458.46	0.534
1466.9	0.51
1475.33	0.438
1483.76	0.399
1492.19	0.36
1500.63	0.274
1509.06	0.174
1517.49	0.166
1525.92	0.2769
1534.35	0.382
1542.79	0.406
1551.22	0.394
1559.65	0.294
1568.08	0.231
1576.52	0.168
1584.95	0.118
1593.38	0.076
1601.81	0.034
1610.24	0.03
1618.68	0.028
1627.11	0.043
1635.54	0.072
1643.97	0.184
1652.41	0.391
1660.84	0.5
1669.27	0.656
1677.7	0.672
1686.13	0.672
1694.57	0.7529
1703	0.828
1711.43	0.867
1719.86	0.891
1728.3	0.914
1736.73	0.915
1745.16	0.915
1753.59	0.914
1762.02	0.912
1770.46	0.912
1778.89	0.912
1787.32	0.926
1795.75	0.938
1804.19	0.936
1812.62	0.936
1821.05	0.95
1829.48	0.95
1837.91	0.945
1846.35	0.939
1854.78	0.936
1863.21	0.936
1871.64	0.93
1880.08	0.897
1888.51	0.909
1896.94	0.92
1905.37	0.918
1913.81	0.917
1922.24	0.912
1930.67	0.905
1939.1	0.879
1947.53	0.876
1955.97	0.915
1964.4	0.921
1972.83	0.917
1981.26	0.912
1989.7	0.914
1998.13	0.893
2006.56	0.8727
2014.99	0.869
2023.42	0.8667
2031.86	0.858
2040.29	0.8519
2048.72	0.8419
2057.15	0.8313
2065.59	0.8224
2074.02	0.8024
2082.45	0.7646
2090.88	0.7589
2099.31	0.7802
2107.75	0.796
2116.18	0.8031
2124.61	0.806
2133.04	0.8018
2141.48	0.7972
2149.91	0.7949
2158.34	0.7899
2166.77	0.7824
2175.2	0.78
2183.64	0.779
2192.07	0.7759
2200.5	0.7717
2208.93	0.77
2217.37	0.7637
2225.8	0.7586
2234.23	0.753
2242.66	0.7445
2251.09	0.7337
2259.53	0.732
2267.96	0.731
2276.39	0.7234
2284.82	0.7198
2293.26	0.7166
2301.69	0.7109
2310.12	0.7012
2318.55	0.6976
2326.98	0.6941
2335.42	0.6878
2343.85	0.686
2352.28	0.683
2360.71	0.681
2369.15	0.6785
2377.58	0.669
2386.01	0.6612
2394.44	0.655
2402.87	0.6487
2411.31	0.6439
2419.74	0.633
2428.17	0.6244
2436.6	0.6179
2445.04	0.6109
2453.47	0.6027
2461.9	0.5994
2470.33	0.5974
2478.76	0.5957
2487.2	0.5837
2495.63	0.5695
2504.06	0.5577
2512.49	0.5508
2520.93	0.548
2529.36	0.5432
2537.79	0.5391
2546.22	0.5337
2554.66	0.53
2563.09	0.527
2571.52	0.525
2579.95	0.525
2588.38	0.5246
2596.82	0.5227
2605.25	0.5211
2613.68	0.5155
2622.11	0.5096
2630.55	0.4977
2638.98	0.4872
2647.41	0.4835
2655.84	0.4791
2664.27	0.476
2672.71	0.4721
2681.14	0.4652
2689.57	0.4611
2698	0.4546
2706.44	0.4481
2714.87	0.4463
2723.3	0.44
2731.73	0.4365
2740.16	0.435
2748.6	0.4293
2757.03	0.422
2765.46	0.4185
2773.89	0.415
2782.33	0.4022
2790.76	0.3893
2799.19	0.3782
2807.62	0.3639
2816.05	0.3539
2824.49	0.3484
2832.92	0.348
2841.35	0.3448
2849.78	0.3381
2858.22	0.3306
2866.65	0.3187
2875.08	0.3146
2883.51	0.306
2891.94	0.2935
2900.38	0.2825
2908.81	0.2755
2917.24	0.2693
2925.67	0.261
2934.11	0.2521
2942.54	0.2486
2950.97	0.244
2959.4	0.2411
2967.83	0.2371
2976.27	0.2319
2984.7	0.2272
2993.13	0.221
3001.56	0.2143
3010	0.2045
3018.43	0.1994
3026.86	0.188
3035.29	0.1841
3043.72	0.1765
3052.16	0.1701
3060.59	0.168
3069.02	0.165
3077.45	0.1608
3085.89	0.1429
3094.32	0.1086
3102.75	0.0911
3111.18	0.0843
3119.61	0.0785
3128.05	0.0708
3136.48	0.066
3144.91	0.0607
3153.34	0.058
3161.78	0.057
3170.21	0.055
3178.64	0.0556
3187.07	0.058
3195.51	0.0608
3203.94	0.0672
3212.37	0.0762
3220.8	0.0862
3229.23	0.0956
3237.67	0.1124
3246.1	0.118
3254.53	0.1247
3262.96	0.1268
3271.4	0.1302
3279.83	0.1382
3288.26	0.1488
3296.69	0.1536
3305.12	0.1567
3313.56	0.1691
3321.99	0.1746
3330.42	0.1779
3338.85	0.1834
3347.29	0.1882
3355.72	0.1979
3364.15	0.2047
3372.58	0.2178
3381.01	0.2362
3389.45	0.2531
3397.88	0.2751
3406.31	0.2966
3414.74	0.3139
3423.18	0.334
3431.61	0.3546
3440.04	0.3706
3448.47	0.3867
3456.9	0.4035
3465.34	0.4169
3473.77	0.4237
3482.2	0.4295
3490.63	0.4352
3499.07	0.448
3507.5	0.4615
3515.93	0.4725
3524.36	0.4778
3532.79	0.4891
3541.23	0.4965
3549.66	0.5062
3558.09	0.5143
3566.52	0.5212
3574.96	0.5286
3583.39	0.5356
3591.82	0.5414
3600.25	0.546
3608.68	0.548
3617.12	0.548
3625.55	0.548
3633.98	0.548
3642.41	0.548
3650.85	0.546
3659.28	0.5452
3667.71	0.5429
3676.14	0.54
3684.57	0.539
3693.01	0.537
3701.44	0.539
3709.87	0.5382
3718.3	0.5322
3726.74	0.5196
3735.17	0.5087
3743.6	0.5022
3752.03	0.5003
3760.46	0.4982
3768.9	0.496
3777.33	0.495
3785.76	0.493
3794.19	0.4892
3802.63	0.4796
3811.06	0.4761
3819.49	0.4764
3827.92	0.4839
3836.36	0.4847
3844.79	0.4745
3853.22	0.4747
3861.65	0.48
3870.08	0.48
3878.52	0.479
3886.95	0.4773
3895.38	0.474
3903.81	0.4712
3912.25	0.4655
3920.68	0.4622
3929.11	0.46
3937.54	0.459
3945.97	0.457
3954.41	0.456
3962.84	0.456
3971.27	0.454
3979.7	0.454
