Infrared Spectrum: 3,4,5-Triemthylheptane
Formula: C 10 H 22
CAS: 20278-87-9
State: gas
Instrument: HP-GC/MS/IRD
Origin: NIST Mass Spectrometry Data Center
1/CM	ABSORBANCE
550	4.5e-05
562	8.1e-05
574	0.0001485
586	0.000225
598	0.0002025
610	0.0001485
622	4.95e-05
634	0.000126
646	0.000108
658	6.75e-05
670	4.5e-06
682	4.5e-05
694	7.65e-05
706	0.0001125
718	7.2e-05
730	0.0001035
742	0.0002025
754	0.000279
766	0.000342
778	0.000423
790	0.000405
802	0.0002565
814	0.0001935
826	0.000117
838	7.65e-05
850	0.000108
862	0.0001035
874	6.3e-05
886	9.45e-05
898	0.0001305
910	0.0001215
922	0.000117
934	0.000297
946	0.000567
958	0.000756
970	0.0009495
982	0.0011385
994	0.0013545
1006	0.0013455
1018	0.001089
1030	0.000729
1042	0.0005175
1054	0.0006165
1066	0.000585
1078	0.000585
1090	0.0006975
1102	0.0011565
1114	0.001539
1126	0.001089
1138	0.0005535
1150	0.000423
1162	0.000324
1174	0.0002565
1186	0.000189
1198	0.0002115
1210	0.0001665
1222	0.00018
1234	0.000279
1246	0.0003825
1258	0.000459
1270	0.0005265
1282	0.0005715
1294	0.000612
1306	0.000684
1318	0.000738
1330	0.000783
1342	0.0008685
1354	0.001188
1366	0.002475
1378	0.005346
1390	0.005229
1402	0.002034
1414	0.0010575
1426	0.0010665
1438	0.0017415
1450	0.0036675
1462	0.0057825
1474	0.0047385
1486	0.002223
1498	0.0010485
1510	0.0006525
1522	0.000486
1534	0.000396
1546	0.0003195
1558	0.0003105
1570	0.000279
1582	0.0002475
1594	0.000234
1606	0.0002115
1618	0.000198
1630	0.000198
1642	0.0002115
1654	0.0002115
1666	0.0001665
1678	0.000135
1690	0.000126
1702	0.0001125
1714	8.55e-05
1726	5.85e-05
1738	7.2e-05
1750	4.5e-05
1762	3.6e-05
1774	5.4e-05
1786	2.7e-05
1798	6.3e-05
1810	2.25e-05
1822	3.6e-05
1834	3.15e-05
1846	2.25e-05
1858	1.8e-05
1870	3.6e-05
1882	1.8e-05
1894	1.35e-05
1906	1.35e-05
1918	1.35e-05
1930	2.7e-05
1942	1.8e-05
1954	1.8e-05
1966	4.5e-06
1978	4.5e-06
1990	2.25e-05
2002	0
2014	9e-06
2026	1.35e-05
2038	1.8e-05
2050	4.5e-06
2062	9e-06
2074	9e-06
2086	0
2098	4.5e-06
2110	9e-06
2122	9e-06
2134	9e-06
2146	1.35e-05
2158	9e-06
2170	1.35e-05
2182	0
2194	2.25e-05
2206	9e-06
2218	0
2230	3.15e-05
2242	2.25e-05
2254	2.7e-05
2266	3.15e-05
2278	4.95e-05
2290	3.6e-05
2302	5.4e-05
2314	8.55e-05
2326	0.000117
2338	0.000117
2350	0.000108
2362	9e-05
2374	9.9e-05
2386	7.2e-05
2398	0.000117
2410	0.000117
2422	9.9e-05
2434	7.2e-05
2446	9e-05
2458	7.2e-05
2470	7.65e-05
2482	5.85e-05
2494	5.85e-05
2506	6.75e-05
2518	7.2e-05
2530	9.9e-05
2542	0.0001305
2554	0.0001665
2566	0.0002475
2578	0.0002925
2590	0.00036
2602	0.0003825
2614	0.0004005
2626	0.0003825
2638	0.0003825
2650	0.0003555
2662	0.000387
2674	0.0004095
2686	0.000441
2698	0.000504
2710	0.00054
2722	0.0006525
2734	0.000792
2746	0.000873
2758	0.0007785
2770	0.0007875
2782	0.0009
2794	0.001071
2806	0.001341
2818	0.001638
2830	0.0021735
2842	0.002952
2854	0.005085
2866	0.010296
2878	0.018261
2890	0.020475
2902	0.016416
2914	0.017739
2926	0.022482
2938	0.0254655
2950	0.0262575
2962	0.038943
2974	0.042615
2986	0.022266
2998	0.008649
3010	0.0042885
3022	0.0027675
3034	0.0020925
3046	0.001746
3058	0.001449
3070	0.001251
3082	0.001143
3094	0.001044
3106	0.000918
3118	0.0008145
3130	0.000774
3142	0.0007245
3154	0.000684
3166	0.000603
3178	0.0004995
3190	0.000432
3202	0.000315
3214	0.000279
3226	0.0002115
3238	0.0001755
3250	0.0001125
3262	0.0001305
3274	0.000126
3286	0.0001125
3298	9.45e-05
3310	4.5e-05
3322	3.6e-05
3334	3.6e-05
3346	8.1e-05
3358	4.95e-05
3370	8.1e-05
3382	3.15e-05
3394	4.95e-05
3406	4.05e-05
3418	1.35e-05
3430	4.95e-05
3442	3.6e-05
3454	2.25e-05
3466	0
3478	2.7e-05
3490	3.6e-05
3502	4.95e-05
3514	1.8e-05
3526	3.15e-05
3538	3.15e-05
3550	0
3562	3.15e-05
3574	3.6e-05
3586	4.05e-05
3598	1.35e-05
3610	4.5e-05
3622	4.5e-05
3634	5.4e-05
3646	4.95e-05
3658	6.75e-05
3670	8.1e-05
3682	4.95e-05
3694	0.0001305
3706	0.0001035
3718	6.75e-05
3730	8.55e-05
3742	9.45e-05
3754	9.9e-05
3766	7.65e-05
3778	5.4e-05
3790	8.1e-05
3802	4.05e-05
3814	8.55e-05
3826	8.55e-05
3838	9.45e-05
