Infrared Spectrum: Imidazole-4-carboxylic acid, 5-nitro-, methyl ester
Formula: C5 H5 N3 O4
CAS: 20271-20-9
State: SOLID (0.8 mg / 650 mg KBr DISC)
Class: COBLENTZ III
Instrument: PERKIN-ELMER 21 (GRATING)
Instrument parameters: FILTER CHANGE ABOUT 1030 CM^-^1
Sampling: TRANSMISSION
Resolution: 2
Origin: SOUTHERN RESEARCH INSTITUTE
1/CM	TRANSMITTANCE
603	0.6369
612.032	0.6273
621.064	0.6314
630.096	0.6435
639.128	0.6486
648.159	0.6091
657.191	0.5735
666.223	0.7428
675.255	0.7776
684.287	0.7806
693.319	0.7813
702.351	0.7811
711.383	0.7812
720.415	0.7795
729.447	0.7765
738.478	0.7653
747.51	0.7405
756.542	0.6001
765.574	0.7664
774.606	0.7557
783.638	0.6407
792.67	0.6433
801.702	0.3476
810.734	0.7647
819.766	0.8304
828.797	0.7761
837.829	0.6804
846.861	0.6478
855.893	0.7268
864.925	0.6759
873.957	0.5297
882.989	0.4152
892.021	0.602
901.053	0.7553
910.084	0.7225
919.116	0.637
928.148	0.5597
937.18	0.4968
946.212	0.3149
955.244	0.3132
964.276	0.5193
973.308	0.8113
982.34	0.8518
991.372	0.8533
1000.4	0.85
1009.44	0.845
1018.47	0.828
1027.5	0.8056
1036.53	0.8224
1045.56	0.8057
1054.59	0.7823
1063.63	0.7498
1072.66	0.6381
1081.69	0.2908
1090.72	0.4999
1099.75	0.7752
1108.79	0.7825
1117.82	0.7711
1126.85	0.743
1135.88	0.69
1144.91	0.5253
1153.95	0.4783
1162.98	0.7553
1172.01	0.7633
1181.04	0.7469
1190.07	0.7249
1199.11	0.6878
1208.14	0.5987
1217.17	0.3932
1226.2	0.3739
1235.23	0.5177
1244.26	0.4659
1253.3	0.1513
1262.33	0.3992
1271.36	0.7474
1280.39	0.7253
1289.42	0.674
1298.46	0.6171
1307.49	0.4636
1316.52	0.3228
1325.55	0.2339
1334.58	0.1503
1343.62	0.0965
1352.65	0.3357
1361.68	0.2097
1370.71	0.1883
1379.74	0.5665
1388.77	0.7007
1397.81	0.751
1406.84	0.7896
1415.87	0.71
1424.9	0.6926
1433.93	0.5321
1442.97	0.4143
1452	0.2309
1461.03	0.2258
1470.06	0.2998
1479.09	0.2103
1488.13	0.5037
1497.16	0.6615
1506.19	0.6843
1515.22	0.6312
1524.25	0.412
1533.29	0.1781
1542.32	0.2154
1551.35	0.4305
1560.38	0.6811
1569.41	0.6981
1578.44	0.7095
1587.48	0.7374
1596.51	0.7898
1605.54	0.7948
1614.57	0.785
1623.6	0.7724
1632.64	0.7683
1641.67	0.7617
1650.7	0.7458
1659.73	0.68
1668.76	0.5922
1677.8	0.5327
1686.83	0.4236
1695.86	0.2815
1704.89	0.0729
1713.92	0.1844
1722.96	0.3926
1731.99	0.601
1741.02	0.676
1750.05	0.6792
1759.08	0.7324
1768.11	0.7688
1777.15	0.7806
1786.18	0.7726
1795.21	0.7607
1804.24	0.7536
1813.27	0.7508
1822.31	0.7499
1831.34	0.7487
1840.37	0.7477
1849.4	0.7515
1858.43	0.7529
1867.47	0.7547
1876.5	0.7573
1885.53	0.7606
1894.56	0.7674
1903.59	0.7753
1912.62	0.7834
1921.66	0.7921
1930.69	0.7995
1939.72	0.8057
1948.75	0.8146
1957.78	0.8234
1966.82	0.8317
1975.85	0.8392
1984.88	0.8459
1993.91	0.8521
2002.94	0.8572
2011.98	0.8622
2021.01	0.8665
2030.04	0.87
2039.07	0.8731
2048.1	0.876
2057.14	0.8778
2066.17	0.8796
2075.2	0.8812
2084.23	0.8825
2093.26	0.883
2102.29	0.8835
2111.33	0.8822
2120.36	0.8807
2129.39	0.8791
2138.42	0.8769
2147.45	0.8743
2156.49	0.8712
2165.52	0.8677
2174.55	0.8642
2183.58	0.8602
2192.61	0.8559
2201.65	0.854
2210.68	0.8551
2219.71	0.8522
2228.74	0.8445
2237.77	0.834
2246.81	0.8235
2255.84	0.8138
2264.87	0.8042
2273.9	0.7929
2282.93	0.7803
2291.96	0.763
2301	0.7498
2310.03	0.7396
2319.06	0.731
2328.09	0.7203
2337.12	0.7079
2346.16	0.6947
2355.19	0.6844
2364.22	0.6801
2373.25	0.6766
2382.28	0.6631
2391.32	0.6485
2400.35	0.6335
2409.38	0.6206
2418.41	0.609
2427.44	0.5997
2436.47	0.5947
2445.51	0.5877
2454.54	0.5718
2463.57	0.5556
2472.6	0.536
2481.63	0.5184
2490.67	0.5014
2499.7	0.4834
2508.73	0.4635
2517.76	0.4629
2526.79	0.4604
2535.83	0.4421
2544.86	0.4204
2553.89	0.4007
2562.92	0.3852
2571.95	0.3775
2580.99	0.3747
2590.02	0.3774
2599.05	0.38
2608.08	0.3803
2617.11	0.3815
2626.14	0.3848
2635.18	0.3888
2644.21	0.3952
2653.24	0.4102
2662.27	0.422
2671.3	0.421
2680.34	0.4064
2689.37	0.3945
2698.4	0.3858
2707.43	0.3795
2716.46	0.376
2725.5	0.364
2734.53	0.3598
2743.56	0.3602
2752.59	0.3609
2761.62	0.3614
2770.66	0.3621
2779.69	0.3671
2788.72	0.3666
2797.75	0.3669
2806.78	0.3719
2815.81	0.3884
2824.85	0.4094
2833.88	0.4356
2842.91	0.4775
2851.94	0.4992
2860.97	0.5038
2870.01	0.4906
2879.04	0.4622
2888.07	0.433
2897.1	0.4135
2906.13	0.4054
2915.17	0.401
2924.2	0.4015
2933.23	0.4119
2942.26	0.4391
2951.29	0.4722
2960.32	0.5139
2969.36	0.5443
2978.39	0.5581
2987.42	0.5547
2996.45	0.5409
3005.48	0.5297
3014.52	0.5264
3023.55	0.532
3032.58	0.5398
3041.61	0.5579
3050.64	0.5857
3059.68	0.6129
3068.71	0.6397
3077.74	0.6719
3086.77	0.7006
3095.8	0.7131
3104.84	0.7182
3113.87	0.7204
3122.9	0.7194
3131.93	0.7136
3140.96	0.7054
3149.99	0.7077
3159.03	0.7415
3168.06	0.7804
3177.09	0.7976
3186.12	0.8047
3195.15	0.8092
3204.19	0.8119
3213.22	0.8136
3222.25	0.8148
3231.28	0.8162
3240.31	0.8175
3249.35	0.818
3258.38	0.8178
3267.41	0.8174
3276.44	0.8172
3285.47	0.8171
3294.51	0.8159
3303.54	0.8139
3312.57	0.8101
3321.6	0.8042
3330.63	0.793
3339.66	0.7838
3348.7	0.771
3357.73	0.7612
3366.76	0.7534
3375.79	0.7469
3384.82	0.7423
3393.86	0.7395
3402.89	0.741
3411.92	0.7441
3420.95	0.747
3429.98	0.7499
3439.02	0.7534
3448.05	0.7546
3457.08	0.7568
3466.11	0.7597
3475.14	0.7621
3484.17	0.7641
3493.21	0.7658
3502.24	0.7706
3511.27	0.7786
3520.3	0.7855
3529.33	0.7941
3538.37	0.8014
3547.4	0.8042
3556.43	0.8044
3565.46	0.811
3574.49	0.818
3583.53	0.8245
3592.56	0.8293
3601.59	0.8335
3610.62	0.8369
3619.65	0.8394
3628.69	0.8418
3637.72	0.8467
3646.75	0.8484
3655.78	0.8486
3664.81	0.8487
3673.84	0.8488
3682.88	0.849
3691.91	0.8491
3700.94	0.8491
3709.97	0.8492
3719	0.8496
3728.04	0.8499
3737.07	0.8509
3746.1	0.8525
3755.13	0.8538
3764.16	0.8542
3773.2	0.8544
3782.23	0.8544
3791.26	0.8525
3800.29	0.8496
3809.32	0.847
3818.35	0.8445
3827.39	0.8431
3836.42	0.8425
3845.45	0.8425
3854.48	0.8427
3863.51	0.8429
3872.55	0.8432
3881.58	0.8427
3890.61	0.8422
3899.64	0.8418
3908.67	0.8416
3917.71	0.8415
3926.74	0.8413
3935.77	0.8409
3944.8	0.8405
3953.83	0.8399
3962.87	0.8387
3971.9	0.8384
3980.93	0.839
3989.96	0.8404
3998.99	0.8361
