Infrared Spectrum: 2-Isopropylnaphthalene
Formula: C 13 H 14
CAS: 2027-17-0
State: gas
Instrument: HP-GC/MS/IRD
Origin: NIST Mass Spectrometry Data Center
1/CM	ABSORBANCE
550	0.0008432
562	0.0001457
574	0.0001426
586	0.0001953
598	6.2e-06
610	0.0005921
622	0.0012152
634	0.0002666
646	0.0003627
658	0.0005952
670	0.0002728
682	0.0001612
694	0.0001891
706	0.0002604
718	0.001085
730	0.0060016
742	0.011718
754	0.004402
766	0.0009579
778	0.0004929
790	0.0011811
802	0.0048794
814	0.0079577
826	0.0033356
838	0.0029233
850	0.0052421
862	0.002573
874	0.0013299
886	0.0025048
898	0.0017732
910	0.0006851
922	0.0004526
934	0.0007967
946	0.0020336
958	0.0018941
970	0.0003038
982	6.82e-05
994	0.0001271
1006	0.0003751
1018	0.0008401
1030	0.0006076
1042	0.0015438
1054	0.0010788
1066	0.001085
1078	0.0011842
1090	0.0005301
1102	0.0005053
1114	0.0008091
1126	0.0016461
1138	0.0018073
1150	0.0010478
1162	0.0003472
1174	0.0006727
1186	0.0012617
1198	0.000434
1210	0.0003658
1222	0.0004526
1234	0.0005177
1246	0.0005797
1258	0.0007688
1270	0.0013237
1282	0.0009579
1294	0.001395
1306	0.0026536
1318	0.0017205
1330	0.0007564
1342	0.0006975
1354	0.0013392
1366	0.0025947
1378	0.0027342
1390	0.0027187
1402	0.0013764
1414	0.0006541
1426	0.000775
1438	0.0012276
1450	0.0019282
1462	0.0028954
1474	0.002914
1486	0.0019158
1498	0.0030411
1510	0.0033294
1522	0.0007967
1534	0.0003906
1546	0.0004154
1558	0.0004061
1570	0.0004464
1582	0.0009982
1594	0.0023219
1606	0.002108
1618	0.0011966
1630	0.0021917
1642	0.0014353
1654	0.000496
1666	0.0004464
1678	0.0006262
1690	0.0006045
1702	0.000434
1714	0.0003224
1726	0.0004588
1738	0.0005642
1750	0.0007905
1762	0.000775
1774	0.0006851
1786	0.0005766
1798	0.0004495
1810	0.0004526
1822	0.0004681
1834	0.0002883
1846	0.0002759
1858	0.0002077
1870	0.0001736
1882	0.0003596
1894	0.0006944
1906	0.0008401
1918	0.0006851
1930	0.0006758
1942	0.0006107
1954	0.0001302
1966	2.48e-05
1978	1.55e-05
1990	2.79e-05
2002	5.27e-05
2014	3.41e-05
2026	2.79e-05
2038	3.41e-05
2050	3.41e-05
2062	2.48e-05
2074	3.72e-05
2086	1.55e-05
2098	4.34e-05
2110	2.79e-05
2122	4.34e-05
2134	2.48e-05
2146	2.79e-05
2158	1.24e-05
2170	2.17e-05
2182	2.17e-05
2194	4.34e-05
2206	3.41e-05
2218	6.2e-05
2230	4.03e-05
2242	3.1e-05
2254	3.1e-05
2266	6.51e-05
2278	0.0001457
2290	0.0001581
2302	0.000124
2314	3.1e-05
2326	3.1e-06
2338	3.1e-06
2350	3.1e-06
2362	3.1e-06
2374	0
2386	7.13e-05
2398	5.58e-05
2410	6.82e-05
2422	9.3e-05
2434	6.51e-05
2446	6.2e-05
2458	0.0001271
2470	0.0001209
2482	7.44e-05
2494	6.51e-05
2506	3.72e-05
2518	2.48e-05
2530	3.41e-05
2542	3.1e-06
2554	6.82e-05
2566	6.82e-05
2578	0.0001271
2590	0.0001612
2602	0.0001364
2614	0.0001209
2626	9.92e-05
2638	8.06e-05
2650	4.03e-05
2662	7.44e-05
2674	8.99e-05
2686	0.0001178
2698	8.99e-05
2710	0.0001488
2722	0.0002294
2734	0.0002852
2746	0.0002542
2758	0.0002759
2770	0.0002821
2782	0.0002759
2794	0.0003286
2806	0.000434
2818	0.0005549
2830	0.0006634
2842	0.0009145
2854	0.001612
2866	0.0033542
2878	0.0067363
2890	0.0070649
2902	0.0068448
2914	0.0070246
2926	0.0079887
2938	0.009982
2950	0.0109554
2962	0.0238762
2974	0.0272273
2986	0.008897
2998	0.0044423
3010	0.0044485
3022	0.0054126
3034	0.0052855
3046	0.0087606
3058	0.014539
3070	0.0119102
3082	0.0059055
3094	0.0029109
3106	0.001333
3118	0.0008029
3130	0.0006386
3142	0.0005797
3154	0.0005053
3166	0.0004867
3178	0.0004712
3190	0.0004495
3202	0.0003844
3214	0.0003069
3226	0.0002945
3238	0.0002852
3250	0.0001953
3262	0.0001364
3274	0.0001271
3286	6.51e-05
3298	9.3e-05
3310	8.68e-05
3322	8.68e-05
3334	5.89e-05
3346	6.82e-05
3358	8.68e-05
3370	6.51e-05
3382	5.58e-05
3394	4.65e-05
3406	5.27e-05
3418	5.89e-05
3430	4.96e-05
3442	1.86e-05
3454	5.58e-05
3466	4.34e-05
3478	2.48e-05
3490	4.65e-05
3502	6.51e-05
3514	5.27e-05
3526	3.41e-05
3538	2.17e-05
3550	2.48e-05
3562	5.27e-05
3574	7.75e-05
3586	5.89e-05
3598	4.96e-05
3610	3.1e-05
3622	5.89e-05
3634	6.2e-05
3646	4.65e-05
3658	3.72e-05
3670	1.55e-05
3682	5.89e-05
3694	5.27e-05
3706	8.06e-05
3718	8.68e-05
3730	9.3e-06
3742	2.79e-05
3754	3.1e-06
3766	6.51e-05
3778	1.24e-05
3790	0.0001054
3802	0.0001085
3814	0.0001054
3826	0.0001209
3838	0.0001271
