Infrared Spectrum: 4-Aminopyrazolo[3,4-d]pyrimidine
Formula: C 5 H 5 N 5
CAS: 20289-44-5
State: gas
Origin: EPA-IR VAPOR PHASE LIBRARY
1/CM	ABSORBANCE
549.8	0.01293
559.445	0.00772
569.09	0.00487
578.734	0.00343
588.379	0.00238
598.024	0.00226
607.669	0.00241
617.313	0.00206
626.958	0.00266
636.603	0.00414
646.248	0.00667
655.893	0.00809
665.537	0.00815
675.182	0.0079
684.827	0.00688
694.472	0.00635
704.116	0.00614
713.761	0.00544
723.406	0.00422
733.051	0.00343
742.695	0.00279
752.34	0.00254
761.985	0.00334
771.63	0.00498
781.275	0.00675
790.919	0.01002
800.564	0.00947
810.209	0.00715
819.854	0.00577
829.498	0.00598
839.143	0.00717
848.788	0.00617
858.433	0.00538
868.078	0.00439
877.722	0.00537
887.367	0.00497
897.012	0.00466
906.657	0.00363
916.301	0.00522
925.946	0.013
935.591	0.01456
945.236	0.01057
954.88	0.0066
964.525	0.00918
974.17	0.01108
983.815	0.01045
993.46	0.00694
1003.1	0.00385
1012.75	0.00325
1022.39	0.00336
1032.04	0.00353
1041.68	0.00336
1051.33	0.00233
1060.97	0.0018845
1070.62	0.0018007
1080.26	0.0016873
1089.91	0
1099.55	0.0013703
1109.2	0.000831
1118.84	0.0014117
1128.49	0.00236
1138.13	0.00392
1147.78	0.00346
1157.42	0.00233
1167.07	0.001843
1176.71	0.0026
1186.36	0.00424
1196	0.00412
1205.64	0.00219
1215.29	0.0019916
1224.93	0.0020175
1234.58	0.00313
1244.22	0.00595
1253.87	0.00769
1263.51	0.00811
1273.16	0.0076
1282.8	0.00826
1292.45	0.00941
1302.09	0.0084
1311.74	0.00627
1321.38	0.004
1331.03	0.00517
1340.67	0.00847
1350.32	0.00869
1359.96	0.00681
1369.61	0.00473
1379.25	0.00362
1388.9	0.0018515
1398.54	0.0015754
1408.18	0.00206
1417.83	0.0031
1427.47	0.00506
1437.12	0.00746
1446.76	0.015
1456.41	0.02112
1466.05	0.02244
1475.7	0.01258
1485.34	0.0074
1494.99	0.00408
1504.63	0.00307
1514.28	0.00289
1523.92	0.00299
1533.57	0.00341
1543.21	0.00413
1552.86	0.00728
1562.5	0.01371
1572.15	0.0237
1581.79	0.03602
1591.44	0.0475
1601.08	0.06218
1610.73	0.07833
1620.37	0.0765
1630.01	0.05629
1639.66	0.02482
1649.3	0.01152
1658.95	0.00654
1668.59	0.00425
1678.24	0.00375
1687.88	0.00324
1697.53	0.00251
1707.17	0.0023
1716.82	0.0020027
1726.46	0.0018296
1736.11	0.0014732
1745.75	0.0015647
1755.4	0.0016325
1765.04	0.0016089
1774.69	0.0014437
1784.33	0.0014814
1793.98	0.0015758
1803.62	0.0014085
1813.27	0.0013742
1822.91	0.0013695
1832.55	0.0014546
1842.2	0.0013664
1851.84	0.0015291
1861.49	0.0014447
1871.13	0.0014229
1880.78	0.001312
1890.42	0.0013237
1900.07	0.0014244
1909.71	0.0016732
1919.36	0.0017811
1929	0.0017906
1938.65	0.001544
1948.29	0.0013867
1957.94	0.0014204
1967.58	0.0013625
1977.23	0.0013581
1986.87	0.0013188
1996.52	0.0012838
2006.16	0.0013463
2015.81	0.0013174
2025.45	0.0012918
2035.1	0.0013736
2044.74	0.0013301
2054.38	0.0013839
2064.03	0.001288
2073.67	0.0013045
2083.32	0.0012886
2092.96	0.001232
2102.61	0.0012045
2112.25	0.0012437
2121.9	0.0014863
2131.54	0.0014531
2141.19	0.0013392
2150.83	0.0013542
2160.48	0.001389
2170.12	0.0014035
2179.77	0.001477
2189.41	0.0013274
2199.06	0.0014703
2208.7	0.0016362
2218.35	0.0014843
2227.99	0.0015581
2237.64	0.0015042
2247.28	0.0015692
2256.92	0.0015738
2266.57	0.001605
2276.21	0.0016338
2285.86	0.0017455
2295.5	0.0015397
2305.15	0.0015313
2314.79	0.0016021
2324.44	0.0014516
2334.08	0.0013497
2343.73	0.0012748
2353.37	0.001256
2363.02	0.001328
2372.66	0.0011631
2382.31	0.0011666
2391.95	0.00128
2401.6	0.0013131
2411.24	0.0012075
2420.89	0.0012132
2430.53	0.0013766
2440.18	0.0014092
2449.82	0.0013621
2459.47	0.0012968
2469.11	0.0012178
2478.75	0.001517
2488.4	0.0015003
2498.04	0.0015863
2507.69	0.0014578
2517.33	0.0013829
2526.98	0.0014329
2536.62	0.0014604
2546.27	0.0015093
2555.91	0.0014071
2565.56	0.001435
2575.2	0.0016153
2584.85	0.0014546
2594.49	0.0013846
2604.14	0.0014954
2613.78	0.001576
2623.43	0.001642
2633.07	0.0015263
2642.72	0.0015767
2652.36	0.0016991
2662.01	0.0015534
2671.65	0.0015057
2681.29	0.001503
2690.94	0.0012059
2700.58	0.0011813
2710.23	0.0011526
2719.87	0.0013231
2729.52	0.0014627
2739.16	0.0013939
2748.81	0.0015873
2758.45	0.001604
2768.1	0.0014674
2777.74	0.001262
2787.39	0.0013891
2797.03	0.001492
2806.68	0.0014966
2816.32	0.0013703
2825.97	0.0013477
2835.61	0.0015199
2845.26	0.0012429
2854.9	0.00112556
2864.55	0.0013072
2874.19	0.0011792
2883.84	0.0012941
2893.48	0.0014732
2903.12	0.0014115
2912.77	0.0012216
2922.41	0.0012838
2932.06	0.0015155
2941.7	0.0013202
2951.35	0.0014025
2960.99	0.0013371
2970.64	0.0014332
2980.28	0.0012707
2989.93	0.0013393
2999.57	0.0014698
3009.22	0.0014445
3018.86	0.0018568
3028.51	0.00206
3038.15	0.00291
3047.8	0.0035
3057.44	0.00395
3067.09	0.0036
3076.73	0.00289
3086.38	0.0019707
3096.02	0.0016722
3105.67	0.0017115
3115.31	0.001809
3124.95	0.0017743
3134.6	0.001383
3144.24	0.0014053
3153.89	0.0015678
3163.53	0.0012403
3173.18	0.0015574
3182.82	0.0015092
3192.47	0.0014109
3202.11	0.0015136
3211.76	0.0012799
3221.4	0.0012499
3231.05	0.0012779
3240.69	0.0013857
3250.34	0.0014141
3259.98	0.0013999
3269.63	0.0012828
3279.27	0.0012593
3288.92	0.0013166
3298.56	0.0011801
3308.21	0.0012156
3317.85	0.00104828
3327.49	0.0012464
3337.14	0.0012083
3346.78	0.0012631
3356.43	0.0013672
3366.07	0.0014844
3375.72	0.0016872
3385.36	0.0020075
3395.01	0.00254
3404.65	0.00387
3414.3	0.0059
3423.94	0.00698
3433.59	0.00831
3443.23	0.00784
3452.88	0.00682
3462.52	0.00439
3472.17	0.00389
3481.81	0.00551
3491.46	0.00965
3501.1	0.01859
3510.75	0.02197
3520.39	0.01745
3530.04	0.00631
3539.68	0.00401
3549.32	0.00375
3558.97	0.00401
3568.61	0.00373
3578.26	0.00244
3587.9	0.0014241
3597.55	0.0011395
3607.19	0.0009852
3616.84	0.0009619
3626.48	0.0010157
3636.13	0.0009406
3645.77	0.0009606
3655.42	0.00109721
3665.06	0.0009768
3674.71	0.0009914
3684.35	0.0009442
3694	0.0013772
3703.64	0.000898
3713.29	0.0009761
3722.93	0.00102361
3732.58	0.001062
3742.22	0.00103822
3751.86	0.000803
3761.51	0.0010043
3771.15	0.000924
3780.8	0.0013116
3790.44	0.001185
3800.09	0.0009607
3809.73	0.000913
3819.38	0.00108285
3829.02	0.00107391
3838.67	0.00102643
3848.31	0.00107695
3857.96	0.000943
3867.6	0.0009345
3877.25	0.00103518
3886.89	0.000807
3896.54	0.00075
3906.18	0.00105341
3915.83	0.0009672
3925.47	0.00111303
3935.12	0.00103542
3944.76	0.0011105
3954.41	0.0011791
3964.05	0.000918
3973.69	0.0013167
3983.34	0.0011019
3992.98	0.00107639
