Infrared Spectrum: Ethanethiol, 2-(p-fluoroanilino)-
Formula: C8 H10 F N S
CAS: 20295-60-7
State: SOLUTION (10% CCl4 FOR 3800-1330, 10% CS2 FOR 1330-460 CM^-^1)
Boiling point: 142 C AT 4 mmHg
Class: COBLENTZ III
Instrument: DOW KBr FOREPRISM-GRATING
Instrument parameters: BLAZED AT 3.5, 12.0, 20.0 MICRON AND CHANGED AT 5.0, 7.5, 14.9 MICRON
Sampling: TRANSMISSION
Path length: 0.011 CM, 0.011 CM
Resolution: 2
Origin: DOW CHEMICAL COMPANY
1/CM	TRANSMITTANCE
461	0.5613
470	0.5526
479	0.5352
488	0.5081
497	0.4673
506	0.395
515	0.3462
524	0.5603
533	0.6327
542	0.6527
551	0.6358
560	0.5991
569	0.5614
578	0.5586
587	0.5652
596	0.5742
605	0.5877
614	0.6006
623	0.6141
632	0.6259
641	0.6095
650	0.6096
659	0.5965
668	0.619
677	0.6614
686	0.6793
695	0.6622
704	0.6557
713	0.6293
722	0.6082
731	0.5899
740	0.5839
749	0.6067
758	0.6341
767	0.6464
776	0.6744
785	0.654
794	0.5444
803	0.5396
812	0.2489
821	0.0064
830	0.3045
839	0.6075
848	0.5895
857	0.5889
866	0.6302
875	0.6716
884	0.7235
893	0.7784
902	0.7829
911	0.7145
920	0.8033
929	0.7991
938	0.8012
947	0.8131
956	0.8156
965	0.8062
974	0.7768
983	0.7517
992	0.8052
1001	0.8006
1010	0.7518
1019	0.7821
1028	0.7682
1037	0.7488
1046	0.7312
1055	0.7332
1064	0.7279
1073	0.702
1082	0.6343
1091	0.6306
1100	0.6215
1109	0.4224
1118	0.4681
1127	0.7088
1136	0.7524
1145	0.7453
1154	0.5669
1163	0.7174
1172	0.7012
1181	0.5673
1190	0.5853
1199	0.5478
1208	0.2441
1217	0.0855
1226	0.0075
1235	0.2638
1244	0.5255
1253	0.4034
1262	0.3567
1271	0.5644
1280	0.5285
1289	0.3939
1298	0.5195
1307	0.4895
1316	0.3309
1325	0.4843
1334	0.6043
1343	0.7173
1352	0.7185
1361	0.6151
1370	0.7026
1379	0.749
1388	0.7714
1397	0.7379
1406	0.5269
1415	0.6617
1424	0.5627
1433	0.6568
1442	0.6798
1451	0.6187
1460	0.5805
1469	0.4477
1478	0.4101
1487	0.3726
1496	0.4007
1505	0.0256
1514	0
1523	0.0017
1532	0.222
1541	0.364
1550	0.3769
1559	0.421
1568	0.5037
1577	0.5502
1586	0.5589
1595	0.5873
1604	0.5855
1613	0.504
1622	0.6012
1631	0.7375
1640	0.7639
1649	0.7814
1658	0.7995
1667	0.8142
1676	0.8262
1685	0.8329
1694	0.8348
1703	0.832
1712	0.8249
1721	0.8117
1730	0.8076
1739	0.8207
1748	0.8395
1757	0.8548
1766	0.8643
1775	0.8679
1784	0.8686
1793	0.8679
1802	0.8645
1811	0.8591
1820	0.8507
1829	0.8339
1838	0.7877
1847	0.7406
1856	0.822
1865	0.841
1874	0.8505
1883	0.857
1892	0.8591
1901	0.8638
1910	0.8676
1919	0.8696
1928	0.8707
1937	0.8713
1946	0.8711
1955	0.87
1964	0.8685
1973	0.8671
1982	0.8658
1991	0.8649
2000	0.884
2009	0.8866
2018	0.8877
2027	0.8888
2036	0.8895
2045	0.8888
2054	0.8874
2063	0.8892
2072	0.8923
2081	0.8957
2090	0.8993
2099	0.9024
2108	0.9041
2117	0.9049
2126	0.9056
2135	0.9057
2144	0.9053
2153	0.905
2162	0.9048
2171	0.9046
2180	0.9052
2189	0.9058
2198	0.9065
2207	0.9073
2216	0.9082
2225	0.9089
2234	0.9078
2243	0.9055
2252	0.9025
2261	0.8986
2270	0.8946
2279	0.8912
2288	0.8888
2297	0.888
2306	0.8874
2315	0.8879
2324	0.8885
2333	0.8886
2342	0.8884
2351	0.888
2360	0.8874
2369	0.8868
2378	0.8872
2387	0.89
2396	0.8939
2405	0.8971
2414	0.8962
2423	0.8944
2432	0.8911
2441	0.887
2450	0.8847
2459	0.8869
2468	0.8885
2477	0.8894
2486	0.889
2495	0.887
2504	0.8845
2513	0.8816
2522	0.8769
2531	0.8725
2540	0.8679
2549	0.8622
2558	0.8547
2567	0.847
2576	0.8451
2585	0.8482
2594	0.8544
2603	0.8603
2612	0.8623
2621	0.8639
2630	0.8637
2639	0.8622
2648	0.8594
2657	0.8563
2666	0.8528
2675	0.8488
2684	0.8442
2693	0.8386
2702	0.8318
2711	0.8358
2720	0.8417
2729	0.8496
2738	0.8494
2747	0.8468
2756	0.8437
2765	0.841
2774	0.8368
2783	0.8306
2792	0.8188
2801	0.8033
2810	0.7599
2819	0.6764
2828	0.6366
2837	0.629
2846	0.6071
2855	0.6087
2864	0.6223
2873	0.6201
2882	0.6386
2891	0.6738
2900	0.6709
2909	0.6526
2918	0.6085
2927	0.5349
2936	0.5031
2945	0.5329
2954	0.6102
2963	0.6021
2972	0.5874
2981	0.6275
2990	0.7099
2999	0.7635
3008	0.7725
3017	0.7775
3026	0.7591
3035	0.6809
3044	0.6555
3053	0.715
3062	0.6821
3071	0.739
3080	0.7755
3089	0.7979
3098	0.802
3107	0.8011
3116	0.7973
3125	0.7987
3134	0.8016
3143	0.8049
3152	0.8092
3161	0.8134
3170	0.8162
3179	0.8176
3188	0.8183
3197	0.8179
3206	0.82
3215	0.8151
3224	0.8143
3233	0.8144
3242	0.8167
3251	0.8178
3260	0.8176
3269	0.8153
3278	0.8121
3287	0.8081
3296	0.8018
3305	0.7938
3314	0.7833
3323	0.7707
3332	0.7542
3341	0.7338
3350	0.7068
3359	0.6751
3368	0.6472
3377	0.6348
3386	0.6304
3395	0.6295
3404	0.6363
3413	0.6476
3422	0.652
3431	0.6478
3440	0.6459
3449	0.6669
3458	0.7358
3467	0.7594
3476	0.7784
3485	0.7889
3494	0.7986
3503	0.8068
3512	0.8139
3521	0.8194
3530	0.8244
3539	0.8291
3548	0.8338
3557	0.8381
3566	0.8418
3575	0.8455
3584	0.8492
3593	0.8526
3602	0.8555
3611	0.8584
3620	0.8613
3629	0.8629
3638	0.8642
3647	0.8654
3656	0.8667
3665	0.867
3674	0.8675
3683	0.8678
3692	0.8686
3701	0.8693
3710	0.8707
3719	0.8721
3728	0.872
3737	0.8717
3746	0.8715
3755	0.8712
3764	0.871
3773	0.8709
3782	0.8713
3791	0.8717
3800	0.872
