Infrared Spectrum: 3,4-Diethoxybenzaldehyde
Formula: C 11 H 14 O 3
CAS: 2029-94-9
State: gas
Origin: EPA-IR VAPOR PHASE LIBRARY
1/CM	ABSORBANCE
501.5	0.0005203
513.074	0.0008133
524.648	0.0010795
536.222	0.001576
547.796	0.001566
559.37	0.001626
570.944	0.002106
582.518	0.003206
594.092	0.003436
605.666	0.002986
617.24	0.004416
628.814	0.006776
640.388	0.006066
651.962	0.003996
663.536	0.001616
675.11	0.0008904
686.684	0.0007709
698.258	0.0010825
709.832	0.002436
721.406	0.006296
732.98	0.009336
744.554	0.009546
756.128	0.007896
767.702	0.008956
779.276	0.010026
790.85	0.009886
802.423	0.011326
813.997	0.009866
825.571	0.007686
837.145	0.005876
848.719	0.004736
860.293	0.006746
871.867	0.009316
883.441	0.009436
895.015	0.009916
906.589	0.008286
918.163	0.005516
929.737	0.004126
941.311	0.003836
952.885	0.004716
964.459	0.005616
976.033	0.006016
987.607	0.006246
999.181	0.007756
1010.76	0.012646
1022.33	0.027076
1033.9	0.046516
1045.48	0.041106
1057.05	0.020946
1068.63	0.012416
1080.2	0.013326
1091.77	0.018356
1103.35	0.027386
1114.92	0.047566
1126.49	0.056656
1138.07	0.040636
1149.64	0.031276
1161.22	0.025626
1172.79	0.016206
1184.36	0.012206
1195.94	0.014596
1207.51	0.023516
1219.09	0.032776
1230.66	0.038076
1242.23	0.047816
1253.81	0.094916
1265.38	0.146656
1276.96	0.105476
1288.53	0.057376
1300.1	0.039136
1311.68	0.027396
1323.25	0.017816
1334.83	0.012236
1346.4	0.009636
1357.97	0.011936
1369.55	0.017046
1381.12	0.030096
1392.7	0.034026
1404.27	0.020576
1415.84	0.017676
1427.42	0.030696
1438.99	0.022866
1450.57	0.012456
1462.14	0.012556
1473.71	0.020936
1485.29	0.028446
1496.86	0.048546
1508.44	0.053666
1520.01	0.023356
1531.58	0.011376
1543.16	0.008486
1554.73	0.009606
1566.31	0.017976
1577.88	0.033106
1589.45	0.044806
1601.03	0.040316
1612.6	0.015516
1624.18	0.006696
1635.75	0.004586
1647.32	0.004056
1658.9	0.004266
1670.47	0.006106
1682.05	0.008716
1693.62	0.019336
1705.19	0.079726
1716.77	0.117196
1728.34	0.032656
1739.92	0.010966
1751.49	0.005466
1763.06	0.003456
1774.64	0.002626
1786.21	0.002266
1797.79	0.002056
1809.36	0.001866
1820.93	0.001756
1832.51	0.001706
1844.08	0.001606
1855.66	0.001636
1867.23	0.001766
1878.8	0.001836
1890.38	0.001906
1901.95	0.001936
1913.53	0.001806
1925.1	0.001676
1936.67	0.001526
1948.25	0.001346
1959.82	0.001246
1971.4	0.001236
1982.97	0.001326
1994.54	0.001336
2006.12	0.001326
2017.69	0.001316
2029.27	0.001326
2040.84	0.001356
2052.41	0.001306
2063.99	0.001176
2075.56	0.0009894
2087.14	0.0008532
2098.71	0.0007644
2110.28	0.0007657
2121.86	0.000795
2133.43	0.0007748
2145.01	0.0007671
2156.58	0.0007317
2168.15	0.0006385
2179.73	0.0005332
2191.3	0.0004603
2202.88	0.0004906
2214.45	0.0005354
2226.02	0.0006242
2237.6	0.0007097
2249.17	0.0007685
2260.74	0.0008249
2272.32	0.0008157
2283.89	0.0007977
2295.47	0.0007201
2307.04	0.0006282
2318.61	0.0005969
2330.19	0.0005019
2341.76	0.0005002
2353.34	0.0004884
2364.91	0.0004914
2376.48	0.0005253
2388.06	0.0005601
2399.63	0.0006323
2411.21	0.0007756
2422.78	0.0008305
2434.35	0.0007704
2445.93	0.0007533
2457.5	0.000767
2469.08	0.0007966
2480.65	0.0008018
2492.22	0.0008055
2503.8	0.0009156
2515.37	0.0010409
2526.95	0.001256
2538.52	0.001446
2550.09	0.001656
2561.67	0.001846
2573.24	0.002026
2584.82	0.002106
2596.39	0.002036
2607.96	0.001856
2619.54	0.001656
2631.11	0.001636
2642.69	0.001746
2654.26	0.001946
2665.83	0.002046
2677.41	0.002436
2688.98	0.004006
2700.56	0.009286
2712.13	0.017306
2723.7	0.018086
2735.28	0.011156
2746.85	0.007246
2758.43	0.006566
2770	0.007696
2781.57	0.009216
2793.15	0.011586
2804.72	0.017096
2816.3	0.016256
2827.87	0.010196
2839.44	0.006156
2851.02	0.005916
2862.59	0.007266
2874.17	0.010786
2885.74	0.015616
2897.31	0.016736
2908.89	0.016626
2920.46	0.017346
2932.04	0.020616
2943.61	0.023946
2955.18	0.018236
2966.76	0.018636
2978.33	0.029046
2989.91	0.035736
3001.48	0.020156
3013.05	0.010026
3024.63	0.006826
3036.2	0.006116
3047.78	0.005616
3059.35	0.005126
3070.92	0.004926
3082.5	0.003846
3094.07	0.002716
3105.65	0.002046
3117.22	0.001406
3128.79	0.0009952
3140.37	0.0008665
3151.94	0.0007617
3163.52	0.0007554
3175.09	0.0007579
3186.66	0.0006791
3198.24	0.0006261
3209.81	0.0004741
3221.39	0.0003429
3232.96	0.0002602
3244.53	0.00019293
3256.11	0.00016485
3267.68	0.0001193
3279.26	0.00014811
3290.83	0.00017337
3302.4	0.0002195
3313.98	0.00014307
3325.55	0.00012035
3337.13	7.67e-05
3348.7	0.00017512
3360.27	0.0002281
3371.85	0.000259
3383.42	0.0004583
3395	0.0010491
3406.57	0.001816
3418.14	0.001326
3429.72	0.0006159
3441.29	0.0003505
3452.86	0.00016277
3464.44	0.00010369
3476.01	5.98e-05
3487.59	7.81e-05
3499.16	8e-06
3510.73	8.27e-05
3522.31	5.96e-05
3533.88	4.43e-05
3545.46	3.07e-05
3557.03	7.6e-05
3568.6	6.2e-06
3580.18	6.78e-05
3591.75	5.53e-05
3603.33	1.5e-05
3614.9	4.48e-05
3626.47	3e-06
3638.05	5.4e-05
3649.62	7.7e-06
3661.2	6.96e-05
3672.77	8.94e-05
3684.34	8.97e-05
3695.92	0.00012781
3707.49	5.06e-05
3719.07	0.00016888
3730.64	0.00014151
3742.21	0.00014761
3753.79	0.00018289
3765.36	0.00014241
3776.94	0.00014916
3788.51	0.0002142
3800.08	0.000171
3811.66	0.00013978
3823.23	0.00013337
3834.81	0.00018666
3846.38	0.0002552
3857.95	0.00014031
3869.53	0.00014685
3881.1	0.00014186
3892.68	0.00017254
3904.25	0.0001379
3915.82	0.00010207
3927.4	0.00016994
3938.97	0.00017922
3950.55	0.0002382
3962.12	0.0002121
3973.69	0.0002322
3985.27	0.0002918
3996.84	0.0003049
