Infrared Spectrum: 4H-Cyclopenta(def)phenanthrene
Formula: C 15 H 10
CAS: 203-64-5
State: gas
Instrument: HP-GC/MS/IRD
Origin: NIST Mass Spectrometry Data Center
1/CM	ABSORBANCE
550	0.0001763
562	8.6e-06
574	0.0002623
586	0.0010621
598	0.0006665
610	0.0002365
622	0.0001806
634	0.0002494
646	0.0006235
658	0.0007568
670	0.0007783
682	0.0021887
694	0.0083162
706	0.0045752
718	0.0015953
730	0.0065661
742	0.0244455
754	0.0129903
766	0.0050009
778	0.0039646
790	0.0031476
802	0.0153983
814	0.0340259
826	0.0095245
838	0.0014362
850	0.0010148
862	0.0011051
874	0.0021844
886	0.0016813
898	0.000516
910	0.000258
922	0.0003569
934	0.0006794
946	0.0007998
958	0.0011438
970	0.0009159
982	0.0005891
994	0.0005246
1006	0.0011094
1018	0.0020855
1030	0.0009804
1042	0.001591
1054	0.0022446
1066	0.000989
1078	0.0002881
1090	0.0001333
1102	0.0001548
1114	0.000172
1126	0.0003053
1138	0.0003827
1150	0.0004128
1162	0.0004601
1174	0.000215
1186	0.0003741
1198	0.000817
1210	0.001591
1222	0.0010363
1234	0.0002494
1246	0.0001462
1258	0.0001032
1270	2.15e-05
1282	0.000129
1294	0.0005719
1306	0.0012083
1318	0.0008428
1330	0.0004515
1342	0.000946
1354	0.0007353
1366	0.0004128
1378	0.0007783
1390	0.0018146
1402	0.0031347
1414	0.006149
1426	0.0070649
1438	0.0044849
1450	0.0035088
1462	0.0010836
1474	0.0005977
1486	0.001204
1498	0.0015222
1510	0.002322
1522	0.0008514
1534	0.0003053
1546	0.0004257
1558	0.0006579
1570	0.0007181
1582	0.0014233
1594	0.0010836
1606	0.0006149
1618	0.0007353
1630	0.0009116
1642	0.0012857
1654	0.0017587
1666	0.0010148
1678	0.0007697
1690	0.0010492
1702	0.0014276
1714	0.0007396
1726	0.000516
1738	0.0004816
1750	0.0011094
1762	0.0025757
1774	0.0017372
1786	0.0004472
1798	0.0003397
1810	0.0004343
1822	0.0011782
1834	0.0016985
1846	0.0012771
1858	0.0006235
1870	0.0002666
1882	0.000473
1894	0.0012771
1906	0.0023607
1918	0.0028251
1930	0.0010277
1942	0.000215
1954	0.0001118
1966	5.16e-05
1978	6.02e-05
1990	9.46e-05
2002	7.31e-05
2014	9.46e-05
2026	5.59e-05
2038	5.59e-05
2050	3.01e-05
2062	8.6e-06
2074	3.87e-05
2086	5.16e-05
2098	2.15e-05
2110	0
2122	1.72e-05
2134	4.73e-05
2146	0.0001204
2158	9.03e-05
2170	6.88e-05
2182	7.31e-05
2194	1.72e-05
2206	3.01e-05
2218	9.46e-05
2230	0.0001591
2242	0.0001462
2254	0.0001333
2266	0.0002064
2278	0.0001763
2290	0.0001806
2302	0.0001591
2314	0.0002365
2326	0.0002623
2338	0.0001462
2350	0.000129
2362	0.0001376
2374	0.0001247
2386	0.0001247
2398	0.0001505
2410	9.03e-05
2422	4.73e-05
2434	0.0001032
2446	0.0001118
2458	0.0001548
2470	0.0002494
2482	0.0002064
2494	0.0001763
2506	0.0001806
2518	0.0001204
2530	9.03e-05
2542	9.03e-05
2554	8.17e-05
2566	0.0001161
2578	0.0002021
2590	0.0002064
2602	0.0001591
2614	0.0001204
2626	9.89e-05
2638	0.000172
2650	0.0001892
2662	0.0001419
2674	0.0001806
2686	0.0001849
2698	0.0001462
2710	8.6e-05
2722	0.0001032
2734	0.0001161
2746	0.0001376
2758	0.0001462
2770	0.0001806
2782	0.0002967
2794	0.0006192
2806	0.0009718
2818	0.0007482
2830	0.0004988
2842	0.0004515
2854	0.0003698
2866	0.0003354
2878	0.0004816
2890	0.0007912
2902	0.0024983
2914	0.0080023
2926	0.0065661
2938	0.0039173
2950	0.0013975
2962	0.0008557
2974	0.0008385
2986	0.0010062
2998	0.0016383
3010	0.0030831
3022	0.0053148
3034	0.011868
3046	0.0309772
3058	0.041882
3070	0.0169463
3082	0.007267
3094	0.0034185
3106	0.0013158
3118	0.0007654
3130	0.0007869
3142	0.0005891
3154	0.0003827
3166	0.0003397
3178	0.0004902
3190	0.0004515
3202	0.0002021
3214	0.0001892
3226	0.0001763
3238	0.0001806
3250	0.0001462
3262	0.0001462
3274	0.0001032
3286	9.46e-05
3298	9.03e-05
3310	9.03e-05
3322	4.73e-05
3334	0.0001376
3346	9.03e-05
3358	0.0001118
3370	0.0001075
3382	9.03e-05
3394	0.0001978
3406	0.0001892
3418	6.45e-05
3430	5.16e-05
3442	3.44e-05
3454	3.01e-05
3466	5.59e-05
3478	8.6e-05
3490	0.0001333
3502	7.31e-05
3514	0.0001376
3526	0.0001419
3538	0.0001376
3550	0.0001075
3562	8.17e-05
3574	9.46e-05
3586	4.3e-05
3598	7.74e-05
3610	0.0001161
3622	5.59e-05
3634	0.0001118
3646	5.59e-05
3658	0.0001161
3670	8.6e-05
3682	6.45e-05
3694	0.000129
3706	0.0001247
3718	0.0001892
3730	0.0001763
3742	0.0002279
3754	0.0001892
3766	0.0001634
3778	0.0001419
3790	0.0002107
3802	0.0002279
3814	0.0002709
3826	0.0003526
3838	0.0003311
