Infrared Spectrum: 3-Dodecene
Formula: C 12 H 24
CAS: 2030-83-3
State: gas
Instrument: HP-GC/MS/IRD
Origin: NIST Mass Spectrometry Data Center
1/CM	ABSORBANCE
550	0.0002646
562	0.0001566
574	0.0003402
586	0.000486
598	0.0004212
610	0.0004212
622	0.0003186
634	0.0003942
646	0.0004968
658	0.0007938
670	0.0010584
682	0.0015606
694	0.0022788
706	0.0028512
718	0.0029808
730	0.0023058
742	0.0015984
754	0.001107
766	0.0009558
778	0.000783
790	0.0007236
802	0.0007344
814	0.0005292
826	0.0004104
838	0.000378
850	0.0004806
862	0.0005616
874	0.0005616
886	0.000513
898	0.000486
910	0.0003834
922	0.0003456
934	0.000351
946	0.0004266
958	0.0004914
970	0.0005454
982	0.0004374
994	0.0003726
1006	0.0004266
1018	0.000621
1030	0.0006534
1042	0.00054
1054	0.0006102
1066	0.0007776
1078	0.0006858
1090	0.0005292
1102	0.0004212
1114	0.0003942
1126	0.0003294
1138	0.0003132
1150	0.0001944
1162	0.0001998
1174	0.0002538
1186	0.0001944
1198	0.0002052
1210	0.000243
1222	0.0003186
1234	0.0003996
1246	0.0004914
1258	0.000567
1270	0.0007614
1282	0.0009666
1294	0.001377
1306	0.0017226
1318	0.0012312
1330	0.0010584
1342	0.0013662
1354	0.0015012
1366	0.0013176
1378	0.0013878
1390	0.0013824
1402	0.001593
1414	0.00135
1426	0.001404
1438	0.0023328
1450	0.0039258
1462	0.004995
1474	0.0035478
1486	0.0017334
1498	0.0009612
1510	0.0006156
1522	0.0004212
1534	0.0003132
1546	0.0002646
1558	0.0002538
1570	0.0002052
1582	0.0001944
1594	0.0002052
1606	0.0002376
1618	0.0002754
1630	0.0003564
1642	0.0005022
1654	0.0005832
1666	0.0004752
1678	0.0003996
1690	0.0003186
1702	0.00027
1714	0.0001998
1726	0.0001512
1738	0.000135
1750	0.0001296
1762	0.0001134
1774	9.72e-05
1786	7.02e-05
1798	5.4e-05
1810	5.4e-05
1822	6.48e-05
1834	4.32e-05
1846	3.78e-05
1858	0
1870	3.24e-05
1882	2.7e-05
1894	3.78e-05
1906	2.16e-05
1918	2.16e-05
1930	3.24e-05
1942	2.7e-05
1954	2.16e-05
1966	2.16e-05
1978	2.7e-05
1990	2.7e-05
2002	4.86e-05
2014	6.48e-05
2026	7.56e-05
2038	0.000108
2050	0.0001188
2062	7.56e-05
2074	4.86e-05
2086	4.32e-05
2098	3.78e-05
2110	5.4e-05
2122	3.78e-05
2134	4.86e-05
2146	4.86e-05
2158	2.7e-05
2170	7.02e-05
2182	5.4e-05
2194	7.02e-05
2206	3.78e-05
2218	5.4e-05
2230	5.94e-05
2242	7.02e-05
2254	5.94e-05
2266	7.56e-05
2278	7.56e-05
2290	8.64e-05
2302	8.64e-05
2314	7.56e-05
2326	8.1e-05
2338	0.0001188
2350	9.18e-05
2362	0.0001026
2374	9.18e-05
2386	9.18e-05
2398	0.0001134
2410	0.0001026
2422	9.72e-05
2434	0.0001026
2446	9.18e-05
2458	0.0001026
2470	9.72e-05
2482	0.0001242
2494	0.000135
2506	0.0001566
2518	0.0001566
2530	0.0002052
2542	0.000243
2554	0.0002214
2566	0.0002592
2578	0.000243
2590	0.00027
2602	0.0003078
2614	0.0003456
2626	0.0003672
2638	0.0004212
2650	0.0004536
2662	0.0005238
2674	0.0005832
2686	0.0005778
2698	0.000594
2710	0.0005886
2722	0.0006588
2734	0.0008046
2746	0.0008964
2758	0.0009126
2770	0.0010206
2782	0.0011988
2794	0.0015336
2806	0.0019926
2818	0.002727
2830	0.003996
2842	0.006939
2854	0.0147852
2866	0.021249
2878	0.0188352
2890	0.0173772
2902	0.0188892
2914	0.0279774
2926	0.0474444
2938	0.0514944
2950	0.0337122
2962	0.028539
2974	0.0256716
2986	0.0133704
2998	0.0092934
3010	0.0106758
3022	0.007533
3034	0.0036288
3046	0.0021654
3058	0.0016416
3070	0.001377
3082	0.0010368
3094	0.0008802
3106	0.0008208
3118	0.0007074
3130	0.0006264
3142	0.000567
3154	0.000486
3166	0.0004536
3178	0.0004158
3190	0.0003618
3202	0.000297
3214	0.00027
3226	0.0002322
3238	0.0001836
3250	0.000162
3262	0.0001404
3274	0.0001458
3286	0.0001566
3298	0.0001242
3310	0.0001134
3322	8.64e-05
3334	9.72e-05
3346	8.1e-05
3358	0.0001296
3370	0.0001188
3382	9.72e-05
3394	7.02e-05
3406	0.0001242
3418	0.000108
3430	8.1e-05
3442	0.0001188
3454	4.86e-05
3466	3.78e-05
3478	6.48e-05
3490	7.02e-05
3502	5.94e-05
3514	7.02e-05
3526	8.64e-05
3538	4.32e-05
3550	8.64e-05
3562	7.02e-05
3574	0.0001026
3586	0.0001458
3598	0.0001026
3610	0.0001134
3622	0.000135
3634	0.0001566
3646	0.0001134
3658	0.0001674
3670	0.0001512
3682	0.000189
3694	0.0001728
3706	0.000162
3718	0.0001512
3730	0.0001404
3742	0.0001998
3754	0.0001944
3766	0.0001944
3778	0.000189
3790	0.0002106
3802	0.0001674
3814	0.0002214
3826	0.0001728
3838	0.0002322
