Infrared Spectrum: 5-Methylbenzofurazan
Formula: C 7 H 6 N 2 O
CAS: 20304-86-3
State: gas
Origin: EPA-IR VAPOR PHASE LIBRARY
1/CM	ABSORBANCE
549.8	0.003058
559.445	0.004664
569.09	0.00588
578.734	0.00938
588.379	0.00846
598.024	0.00546
607.669	0.00559
617.313	0.0047756
626.958	0.0048304
636.603	0.0041905
646.248	0.003862
655.893	0.003412
665.537	0.0038847
675.182	0.0041952
684.827	0.003521
694.472	0.003285
704.116	0.00497
713.761	0.003941
723.406	0.00618
733.051	0.00891
742.695	0.00861
752.34	0.00713
761.985	0.00812
771.63	0.01019
781.275	0.01608
790.919	0.02601
800.564	0.02768
810.209	0.02293
819.854	0.01154
829.498	0.0068
839.143	0.00992
848.788	0.01146
858.433	0.01167
868.078	0.01265
877.722	0.01688
887.367	0.02065
897.012	0.016
906.657	0.00507
916.301	0.00508
925.946	0.00573
935.591	0.0047638
945.236	0.00501
954.88	0.0040647
964.525	0.0039497
974.17	0.0042019
983.815	0.00666
993.46	0.01173
1003.1	0.01914
1012.75	0.02274
1022.39	0.01449
1032.04	0.00784
1041.68	0.00773
1051.33	0.00641
1060.97	0.0047017
1070.62	0.0041232
1080.26	0.00404374
1089.91	0.0045393
1099.55	0.00521
1109.2	0.00521
1118.84	0.00507
1128.49	0.00542
1138.13	0.00646
1147.78	0.00763
1157.42	0.00708
1167.07	0.00525
1176.71	0.00197
1186.36	0.00313
1196	0.00082
1205.64	0.00205
1215.29	0.0045539
1224.93	0.00357
1234.58	0.00281
1244.22	0.003016
1253.87	0.003677
1263.51	0.00507
1273.16	0.00404965
1282.8	0.00576
1292.45	0.00528
1302.09	0.00659
1311.74	0.00877
1321.38	0.00935
1331.03	0.00655
1340.67	0.00546
1350.32	0.00612
1359.96	0.00737
1369.61	0.00762
1379.25	0.00644
1388.9	0.00627
1398.54	0.00669
1408.18	0.00711
1417.83	0.00677
1427.47	0.00609
1437.12	0.00671
1446.76	0.00809
1456.41	0.00781
1466.05	0.00829
1475.7	0.00769
1485.34	0.00622
1494.99	0.00559
1504.63	0.00641
1514.28	0.00869
1523.92	0.01126
1533.57	0.01546
1543.21	0.01456
1552.86	0.00823
1562.5	0.00558
1572.15	0.00596
1581.79	0.00524
1591.44	0.00556
1601.08	0.00559
1610.73	0.00611
1620.37	0.00755
1630.01	0.01066
1639.66	0.01176
1649.3	0.0092
1658.95	0.00716
1668.59	0.0065
1678.24	0.0063
1687.88	0.00652
1697.53	0.00738
1707.17	0.00712
1716.82	0.00616
1726.46	0.00524
1736.11	0.00499
1745.75	0.00555
1755.4	0.00519
1765.04	0.0047658
1774.69	0.0042665
1784.33	0.0041926
1793.98	0.004087
1803.62	0.004377
1813.27	0.0042497
1822.91	0.0044074
1832.55	0.0040282
1842.2	0.00395623
1851.84	0.0040841
1861.49	0.00401039
1871.13	0.0041674
1880.78	0.0041358
1890.42	0.0043128
1900.07	0.0044767
1909.71	0.0045649
1919.36	0.0047114
1929	0.0045458
1938.65	0.00383
1948.29	0.003796
1957.94	0.00401549
1967.58	0.0039112
1977.23	0.0040793
1986.87	0.0040261
1996.52	0.0043107
2006.16	0.0040721
2015.81	0.0040935
2025.45	0.00404551
2035.1	0.0040093
2044.74	0.0041601
2054.38	0.0043986
2064.03	0.0041116
2073.67	0.003836
2083.32	0.003769
2092.96	0.0040612
2102.61	0.0041464
2112.25	0.0041435
2121.9	0.003946
2131.54	0.0043044
2141.19	0.004136
2150.83	0.0039414
2160.48	0.00399445
2170.12	0.0039221
2179.77	0.00403791
2189.41	0.0044148
2199.06	0.0042296
2208.7	0.0041496
2218.35	0.0041174
2227.99	0.0041267
2237.64	0.0041041
2247.28	0.00401335
2256.92	0.004156
2266.57	0.0042308
2276.21	0.0042152
2285.86	0.0042446
2295.5	0.0044817
2305.15	0.0041307
2314.79	0.0042735
2324.44	0.0040987
2334.08	0.0043376
2343.73	0.003616
2353.37	0.00400962
2363.02	0.0042057
2372.66	0.0041999
2382.31	0.0042871
2391.95	0.00401813
2401.6	0.0043017
2411.24	0.0046305
2420.89	0.003805
2430.53	0.003758
2440.18	0.0045365
2449.82	0.0040784
2459.47	0.0040832
2469.11	0.0046677
2478.75	0.0045117
2488.4	0.0044574
2498.04	0.0044375
2507.69	0.0039
2517.33	0.0040981
2526.98	0.0040774
2536.62	0.0042538
2546.27	0.0045425
2555.91	0.0044226
2565.56	0.0043127
2575.2	0.0040825
2584.85	0.003671
2594.49	0.003859
2604.14	0.0043001
2613.78	0.0043531
2623.43	0.0043987
2633.07	0.0038988
2642.72	0.0039391
2652.36	0.00397197
2662.01	0.003669
2671.65	0.0039555
2681.29	0.00402698
2690.94	0.00386
2700.58	0.0045488
2710.23	0.0041981
2719.87	0.00403169
2729.52	0.0044497
2739.16	0.004015
2748.81	0.0046926
2758.45	0.00402774
2768.1	0.0040613
2777.74	0.0044619
2787.39	0.0039261
2797.03	0.0043573
2806.68	0.0042528
2816.32	0.0044875
2825.97	0.0048751
2835.61	0.00512
2845.26	0.00543
2854.9	0.00551
2864.55	0.00678
2874.19	0.00822
2883.84	0.00835
2893.48	0.00747
2903.12	0.00666
2912.77	0.00716
2922.41	0.00962
2932.06	0.01334
2941.7	0.01262
2951.35	0.00926
2960.99	0.00921
2970.64	0.00927
2980.28	0.00927
2989.93	0.00927
2999.57	0.00822
3009.22	0.00664
3018.86	0.00631
3028.51	0.00734
3038.15	0.00907
3047.8	0.01
3057.44	0.00975
3067.09	0.00924
3076.73	0.00877
3086.38	0.00771
3096.02	0.00653
3105.67	0.00595
3115.31	0.00576
3124.95	0.00556
3134.6	0.0047214
3144.24	0.0042836
3153.89	0.0048807
3163.53	0.0042596
3173.18	0.0047047
3182.82	0.0043376
3192.47	0.003672
3202.11	0.0040178
3211.76	0.003607
3221.4	0.003792
3231.05	0.0047518
3240.69	0.0043054
3250.34	0.0045913
3259.98	0.003806
3269.63	0.0038998
3279.27	0.0038605
3288.92	0.00401083
3298.56	0.003574
3308.21	0.00346
3317.85	0.00405987
3327.49	0.003851
3337.14	0.0041178
3346.78	0.0045619
3356.43	0.0045602
3366.07	0.0044659
3375.72	0.00291
3385.36	0.0043511
3395.01	0.0039201
3404.65	0.00404442
3414.3	0.0042827
3423.94	0.00318
3433.59	0.0047567
3443.23	0.00401476
3452.88	0.0038628
3462.52	0.00292
3472.17	0.003772
3481.81	0.0044092
3491.46	0.003349
3501.1	0.003668
3510.75	0.004515
3520.39	0.003693
3530.04	0.00504
3539.68	0.0040917
3549.32	0.0040853
3558.97	0.003698
3568.61	0.0041924
3578.26	0.00496
3587.9	0.004803
3597.55	0.0044219
3607.19	0.003857
3616.84	0.00401856
3626.48	0.004378
3636.13	0.0038928
3645.77	0.0044469
3655.42	0.00328
3665.06	0.0045383
3674.71	0.00343
3684.35	0.0046044
3694	0.0040397
3703.64	0.0040928
3713.29	0.0044465
3722.93	0.0044355
3732.58	0.0042183
3742.22	0.0041777
3751.86	0.0048002
3761.51	0.0040942
3771.15	0.0045054
3780.8	0.00293
3790.44	0.00458
3800.09	0.0043486
3809.73	0.0038952
3819.38	0.003807
3829.02	0.003586
3838.67	0.003503
3848.31	0.00376
3857.96	0.00396152
3867.6	0.0044747
3877.25	0.0043564
3886.89	0.0042739
3896.54	0.003503
3906.18	0.0047034
3915.83	0.00385
3925.47	0.0039315
3935.12	0.0043159
3944.76	0.003698
3954.41	0.0041473
3964.05	0.0047379
3973.69	0.004298
3983.34	0.0040784
3992.98	0.0043773
