Infrared Spectrum: trans-1,1,3,4-Tetramethylcyclopentane
Formula: C 9 H 18
CAS: 20309-77-7
State: gas
Instrument: HP-GC/MS/IRD
Origin: NIST Mass Spectrometry Data Center
1/CM	ABSORBANCE
550	0.0003456
562	0.0004392
574	0.0002628
586	0.0003312
598	0.0002556
610	0.0002052
622	9.72e-05
634	9.72e-05
646	0.00018
658	9.72e-05
670	0.000144
682	9.36e-05
694	7.2e-05
706	3.96e-05
718	6.84e-05
730	9.36e-05
742	6.48e-05
754	6.12e-05
766	6.48e-05
778	0.0001224
790	5.76e-05
802	3.96e-05
814	2.88e-05
826	0.0001764
838	0.0001296
850	0.0001044
862	9.72e-05
874	0.0001296
886	0.0001512
898	0.0001152
910	0.0001404
922	0.0001296
934	7.2e-05
946	0.000144
958	0.0002628
970	0.0002808
982	0.0002556
994	0.0001872
1006	0.0001872
1018	0.0001512
1030	0.0002052
1042	0.0003348
1054	0.0003852
1066	0.0003456
1078	0.000216
1090	0.0001368
1102	0.0001584
1114	0.0001656
1126	0.0001296
1138	0.000162
1150	0.0001944
1162	0.0002844
1174	0.0003132
1186	0.0005544
1198	0.000684
1210	0.0005832
1222	0.0004428
1234	0.0003816
1246	0.0003492
1258	0.0004068
1270	0.0004608
1282	0.0006624
1294	0.001026
1306	0.0009324
1318	0.0005724
1330	0.0004644
1342	0.0006876
1354	0.001494
1366	0.0027468
1378	0.0030096
1390	0.001926
1402	0.0006912
1414	0.000522
1426	0.0007488
1438	0.0016776
1450	0.0031104
1462	0.0037656
1474	0.0026496
1486	0.001206
1498	0.0005184
1510	0.0002916
1522	0.0001728
1534	0.0001548
1546	0.000108
1558	0.0001188
1570	0.000126
1582	0.0001332
1594	0.0001584
1606	0.0001512
1618	0.0001512
1630	0.000144
1642	0.0001404
1654	0.0001404
1666	0.0001476
1678	0.0001512
1690	0.0001368
1702	0.0001188
1714	8.28e-05
1726	8.64e-05
1738	7.2e-05
1750	6.84e-05
1762	5.04e-05
1774	3.6e-05
1786	4.68e-05
1798	4.68e-05
1810	7.56e-05
1822	5.76e-05
1834	3.96e-05
1846	7.2e-05
1858	6.84e-05
1870	3.96e-05
1882	3.6e-05
1894	4.68e-05
1906	6.84e-05
1918	2.88e-05
1930	2.88e-05
1942	3.6e-05
1954	2.88e-05
1966	3.6e-05
1978	5.04e-05
1990	3.24e-05
2002	2.88e-05
2014	3.6e-05
2026	4.68e-05
2038	4.32e-05
2050	2.52e-05
2062	3.6e-05
2074	2.52e-05
2086	4.32e-05
2098	3.96e-05
2110	4.68e-05
2122	4.32e-05
2134	2.88e-05
2146	2.88e-05
2158	1.8e-05
2170	3.6e-05
2182	1.8e-05
2194	5.76e-05
2206	0
2218	1.44e-05
2230	0
2242	2.16e-05
2254	7.2e-06
2266	2.88e-05
2278	3.24e-05
2290	2.16e-05
2302	1.08e-05
2314	0
2326	1.08e-05
2338	3.6e-05
2350	3.24e-05
2362	1.8e-05
2374	3.96e-05
2386	1.8e-05
2398	5.4e-05
2410	4.32e-05
2422	5.04e-05
2434	6.48e-05
2446	5.4e-05
2458	3.24e-05
2470	3.24e-05
2482	3.96e-05
2494	0
2506	3.24e-05
2518	2.16e-05
2530	2.52e-05
2542	7.56e-05
2554	7.2e-05
2566	0.0001368
2578	0.000108
2590	0.0001044
2602	9.72e-05
2614	0.0001152
2626	0.0001404
2638	0.0002016
2650	0.000162
2662	0.0001584
2674	0.0001296
2686	0.0001476
2698	0.0002232
2710	0.000288
2722	0.00045
2734	0.0005328
2746	0.0004356
2758	0.0003528
2770	0.000378
2782	0.0003924
2794	0.0004716
2806	0.000792
2818	0.0012024
2830	0.0018468
2842	0.0031464
2854	0.0064584
2866	0.011772
2878	0.0145476
2890	0.0124704
2902	0.011646
2914	0.0152424
2926	0.0216144
2938	0.0242064
2950	0.03033
2962	0.0344016
2974	0.0155412
2986	0.0036144
2998	0.0015048
3010	0.0008784
3022	0.0006624
3034	0.0004716
3046	0.0004176
3058	0.0004068
3070	0.0004464
3082	0.0004536
3094	0.0004068
3106	0.0003564
3118	0.0002988
3130	0.0002844
3142	0.0003456
3154	0.000378
3166	0.0003708
3178	0.000396
3190	0.0003744
3202	0.0002952
3214	0.00018
3226	0.0001008
3238	0.000108
3250	0.0001368
3262	0.000108
3274	3.6e-05
3286	0.0001224
3298	7.2e-05
3310	5.76e-05
3322	1.08e-05
3334	3.96e-05
3346	3.6e-06
3358	2.52e-05
3370	7.2e-05
3382	3.24e-05
3394	8.28e-05
3406	7.2e-05
3418	3.24e-05
3430	5.04e-05
3442	6.48e-05
3454	0.0001404
3466	7.56e-05
3478	5.76e-05
3490	7.56e-05
3502	8.28e-05
3514	7.92e-05
3526	3.24e-05
3538	7.2e-05
3550	7.2e-05
3562	3.96e-05
3574	3.6e-05
3586	5.4e-05
3598	3.24e-05
3610	6.84e-05
3622	7.92e-05
3634	0.000108
3646	8.28e-05
3658	8.64e-05
3670	5.4e-05
3682	7.2e-05
3694	8.64e-05
3706	0.0001152
3718	0.0001368
3730	0.0001656
3742	9.36e-05
3754	0.0001332
3766	6.48e-05
3778	0.0001368
3790	0.0001404
3802	0.0001332
3814	0.0001764
3826	0.0001728
3838	0.0001116
