Infrared Spectrum: METHYLDIETHOXYSILANE
Formula: C5 H14 O2 Si
CAS: 2031-62-1
State: SOLUTION (10% IN CCl4 FOR 3800-1270, 2% IN CS2 FOR 1270-650, AND 8% IN CCl4 FOR 650-250 CM^-^1) VS. SOLVENT
Boiling point: 94 C
Class: COBLENTZ III
Instrument: PERKIN-ELMER 521 (GRATING)
Instrument parameters: FILTERS AT 3150, 2500, 2000, 1150, 700, 410. GRATING CHANGES: 2000, 630 CM^-^1
Sampling: TRANSMISSION
Path length: 0.011 CM, 0.011 CM, AND 0.011 CM
Resolution: 2
Origin: DOW CORNING CORP.
1/CM	TRANSMITTANCE
251.054	0.897
260.422	0.895
269.789	0.877
279.157	0.872
288.525	0.865
297.892	0.852
307.26	0.831
316.628	0.813
325.996	0.795
335.363	0.781
344.731	0.799
354.099	0.814
363.466	0.833
372.834	0.847
382.202	0.859
391.569	0.851
400.937	0.841
410.305	0.824
419.673	0.778
429.04	0.737
438.408	0.705
447.776	0.722
457.143	0.792
466.511	0.822
475.879	0.847
485.246	0.896
494.614	0.93
503.982	0.942
513.35	0.945
522.717	0.945
532.085	0.947
541.453	0.95
550.82	0.955
560.188	0.957
569.556	0.96
578.923	0.962
588.291	0.968
597.659	0.968
607.026	0.965
616.394	0.956
625.762	0.942
635.13	0.932
644.497	0.924
653.865	0.918
663.233	0.916
672.6	0.915
681.968	0.913
691.336	0.91
700.703	0.905
710.071	0.888
719.439	0.856
728.807	0.804
738.174	0.778
747.542	0.734
756.91	0.69
766.277	0.502
775.645	0.556
785.013	0.667
794.38	0.76
803.748	0.812
813.116	0.819
822.484	0.84
831.851	0.843
841.219	0.836
850.587	0.79
859.954	0.725
869.322	0.595
878.69	0.364
888.057	0.212
897.425	0.234
906.793	0.51
916.161	0.684
925.528	0.682
934.896	0.593
944.264	0.493
953.631	0.441
962.999	0.469
972.367	0.709
981.734	0.827
991.102	0.855
1000.47	0.856
1009.84	0.84
1019.21	0.815
1028.57	0.764
1037.94	0.727
1047.31	0.661
1056.68	0.578
1066.04	0.443
1075.41	0.21
1084.78	0.223
1094.15	0.349
1103.51	0.241
1112.88	0.265
1122.25	0.413
1131.62	0.583
1140.99	0.69
1150.35	0.703
1159.72	0.647
1169.09	0.624
1178.46	0.79
1187.82	0.845
1197.19	0.863
1206.56	0.869
1215.93	0.87
1225.29	0.868
1234.66	0.852
1244.03	0.82
1253.4	0.433
1262.77	0.707
1272.13	0.721
1281.5	0.685
1290.87	0.5749
1300.24	0.653
1309.6	0.777
1318.97	0.809
1328.34	0.812
1337.71	0.797
1347.07	0.785
1356.44	0.748
1365.81	0.629
1375.18	0.604
1384.55	0.4289
1393.91	0.2531
1403.28	0.621
1412.65	0.677
1422.02	0.708
1431.38	0.679
1440.75	0.511
1450.12	0.635
1459.49	0.704
1468.85	0.781
1478.22	0.7269
1487.59	0.745
1496.96	0.843
1506.33	0.872
1515.69	0.891
1525.06	0.907
1534.43	0.919
1543.8	0.928
1553.16	0.927
1562.53	0.923
1571.9	0.919
1581.27	0.916
1590.63	0.909
1600	0.907
1609.37	0.906
1618.74	0.905
1628.11	0.907
1637.47	0.909
1646.84	0.906
1656.21	0.905
1665.58	0.904
1674.94	0.902
1684.31	0.904
1693.68	0.907
1703.05	0.902
1712.41	0.895
1721.78	0.887
1731.15	0.884
1740.52	0.887
1749.89	0.886
1759.25	0.884
1768.62	0.883
1777.99	0.886
1787.36	0.881
1796.72	0.875
1806.09	0.87
1815.46	0.872
1824.83	0.872
1834.19	0.864
1843.56	0.869
1852.93	0.874
1862.3	0.878
1871.67	0.879
1881.03	0.882
1890.4	0.883
1899.77	0.883
1909.14	0.893
1918.5	0.906
1927.87	0.91
1937.24	0.913
1946.61	0.915
1955.97	0.915
1965.34	0.914
1974.71	0.913
1984.08	0.915
1993.45	0.915
2002.81	0.8915
2012.18	0.883
2021.55	0.883
2030.92	0.883
2040.28	0.883
2049.65	0.882
2059.02	0.8744
2068.39	0.8678
2077.75	0.8496
2087.12	0.814
2096.49	0.7544
2105.86	0.6317
2115.23	0.4264
2124.59	0.243
2133.96	0.2547
2143.33	0.3077
2152.7	0.278
2162.06	0.201
2171.43	0.192
2180.8	0.273
2190.17	0.4083
2199.54	0.5607
2208.9	0.6788
2218.27	0.7551
2227.64	0.8201
2237.01	0.8426
2246.37	0.8622
2255.74	0.873
2265.11	0.8778
2274.48	0.8878
2283.84	0.8929
2293.21	0.897
2302.58	0.8979
2311.95	0.9
2321.32	0.901
2330.68	0.902
2340.05	0.904
2349.42	0.904
2358.79	0.9069
2368.15	0.909
2377.52	0.907
2386.89	0.906
2396.26	0.906
2405.62	0.906
2414.99	0.906
2424.36	0.9039
2433.73	0.8999
2443.1	0.896
2452.46	0.897
2461.83	0.901
2471.2	0.9041
2480.57	0.9061
2489.93	0.9059
2499.3	0.904
2508.67	0.906
2518.04	0.906
2527.4	0.906
2536.77	0.9058
2546.14	0.905
2555.51	0.904
2564.88	0.901
2574.24	0.9
2583.61	0.9
2592.98	0.896
2602.35	0.895
2611.71	0.8895
2621.08	0.8817
2630.45	0.879
2639.82	0.881
2649.18	0.8846
2658.55	0.888
2667.92	0.8867
2677.29	0.884
2686.66	0.886
2696.02	0.884
2705.39	0.8759
2714.76	0.8569
2724.13	0.821
2733.49	0.7812
2742.86	0.765
2752.23	0.8189
2761.6	0.8091
2770.96	0.8035
2780.33	0.8334
2789.7	0.835
2799.07	0.8295
2808.44	0.801
2817.8	0.77
2827.17	0.7659
2836.54	0.7306
2845.91	0.6402
2855.27	0.5997
2864.64	0.3864
2874.01	0.2572
2883.38	0.1886
2892.74	0.2391
2902.11	0.2565
2911.48	0.2789
2920.85	0.2662
2930.22	0.2292
2939.58	0.3038
2948.95	0.4337
2958.32	0.4091
2967.69	0.1614
2977.05	0.0367
2986.42	0.1235
2995.79	0.3148
3005.16	0.5701
3014.52	0.7029
3023.89	0.7743
3033.26	0.8163
3042.63	0.8394
3052	0.8508
3061.36	0.8648
3070.73	0.8728
3080.1	0.8837
3089.47	0.891
3098.83	0.8947
3108.2	0.8979
3117.57	0.9019
3126.94	0.902
3136.3	0.905
3145.67	0.906
3155.04	0.909
3164.41	0.911
3173.78	0.911
3183.14	0.91
3192.51	0.909
3201.88	0.909
3211.25	0.907
3220.61	0.907
3229.98	0.91
3239.35	0.9111
3248.72	0.9131
3258.08	0.914
3267.45	0.914
3276.82	0.914
3286.19	0.914
3295.56	0.914
3304.92	0.914
3314.29	0.913
3323.66	0.911
3333.03	0.91
3342.39	0.91
3351.76	0.909
3361.13	0.9086
3370.5	0.907
3379.86	0.906
3389.23	0.9058
3398.6	0.905
3407.97	0.905
3417.34	0.905
3426.7	0.904
3436.07	0.902
3445.44	0.901
3454.81	0.9
3464.17	0.897
3473.54	0.8957
3482.91	0.8906
3492.28	0.883
3501.64	0.879
3511.01	0.875
3520.38	0.875
3529.75	0.879
3539.12	0.8848
3548.48	0.8914
3557.85	0.8964
3567.22	0.9005
3576.59	0.901
3585.95	0.906
3595.32	0.904
3604.69	0.9
3614.06	0.8925
3623.42	0.878
3632.79	0.874
3642.16	0.8831
3651.53	0.8961
3660.9	0.901
3670.26	0.901
3679.63	0.9
3689	0.9006
3698.37	0.901
3707.73	0.9016
3717.1	0.902
3726.47	0.9033
3735.84	0.9097
3745.21	0.911
3754.57	0.913
3763.94	0.9103
3773.31	0.907
3782.68	0.9053
