Infrared Spectrum: 3-HYDROXY-4-HEXENOIC ACID, ETHYL ESTER
Formula: C8 H14 O3
CAS: 20316-32-9
State: SOLUTION (10% CCl4 FOR 5000-1330, 10% CS2 FOR 1330-625 CM^-^1)
Class: COBLENTZ
Instrument: Not specified, most likely a prism, grating, or hybrid spectrometer.
Sampling: TRANSMISSION
Path length: 0.0124 CM, 0.0124 CM
Resolution: 4
Origin: DOW CHEMICAL COMPANY
MICROMETERS	TRANSMITTANCE
2.027	0.904
2.06804	0.901
2.10908	0.908
2.15011	0.904
2.19115	0.892
2.23219	0.88
2.27323	0.882
2.31426	0.892
2.3553	0.894
2.39634	0.889
2.43738	0.899
2.47842	0.902
2.51945	0.904
2.56049	0.904
2.60153	0.906
2.64257	0.899
2.6836	0.877
2.72464	0.775
2.76568	0.609
2.80672	0.494
2.84776	0.519
2.88879	0.608
2.92983	0.742
2.97087	0.798
3.01191	0.838
3.05295	0.855
3.09398	0.865
3.13502	0.865
3.17606	0.856
3.2171	0.81
3.25813	0.71
3.29917	0.519
3.34021	0.291
3.38125	0.398
3.42229	0.55
3.46332	0.72
3.50436	0.827
3.5454	0.867
3.58644	0.875
3.62747	0.877
3.66851	0.892
3.70955	0.892
3.75059	0.897
3.79163	0.899
3.83266	0.902
3.8737	0.909
3.91474	0.909
3.95578	0.908
3.99681	0.909
4.03785	0.909
4.07889	0.913
4.11993	0.906
4.16097	0.904
4.202	0.896
4.24304	0.892
4.28408	0.899
4.32512	0.897
4.36616	0.909
4.40719	0.916
4.44823	0.921
4.48927	0.923
4.53031	0.925
4.57134	0.923
4.61238	0.923
4.65342	0.919
4.69446	0.919
4.7355	0.918
4.77653	0.914
4.81757	0.902
4.85861	0.911
4.89965	0.904
4.94068	0.899
4.98172	0.901
5.02276	0.909
5.0638	0.908
5.10484	0.913
5.14587	0.914
5.18691	0.906
5.22795	0.899
5.26899	0.892
5.31002	0.894
5.35106	0.894
5.3921	0.885
5.43314	0.875
5.47418	0.868
5.51521	0.85
5.55625	0.81
5.59729	0.764
5.63833	0.606
5.67936	0.315
5.7204	0.071
5.76144	0.039
5.80248	0.059
5.84352	0.316
5.88455	0.565
5.92559	0.606
5.96663	0.734
6.00767	0.781
6.04871	0.787
6.08974	0.822
6.13078	0.81
6.17182	0.766
6.21286	0.71
6.25389	0.65
6.29493	0.614
6.33597	0.575
6.37701	0.531
6.41805	0.473
6.45908	0.516
6.50012	0.596
6.54116	0.63
6.5822	0.679
6.62323	0.73
6.66427	0.732
6.70531	0.625
6.74635	0.546
6.78739	0.507
6.82842	0.434
6.86946	0.333
6.9105	0.396
6.95154	0.444
6.99257	0.42
7.03361	0.303
7.07465	0.247
7.11569	0.262
7.15673	0.31
7.19776	0.293
7.2388	0.182
7.27984	0.272
7.32088	0.48
7.36192	0.366
7.40295	0.339
7.44399	0.321
7.48503	0.25
7.52607	0.182
7.5671	0.199
7.60814	0.219
7.64918	0.231
7.69022	0.262
7.73126	0.265
7.77229	0.25
7.81333	0.24
7.85437	0.235
7.89541	0.233
7.93644	0.218
7.97748	0.194
8.01852	0.172
8.05956	0.183
8.1006	0.206
8.14163	0.216
8.18267	0.209
8.22371	0.19
8.26475	0.17
8.30578	0.137
8.34682	0.088
8.38786	0.051
8.4289	0.027
8.46994	0.027
8.51097	0.035
8.55201	0.042
8.59305	0.066
8.63409	0.126
8.67512	0.223
8.71616	0.315
8.7572	0.361
8.79824	0.369
8.83928	0.34
8.88031	0.287
8.92135	0.253
8.96239	0.253
9.00343	0.306
9.04447	0.344
9.0855	0.327
9.12654	0.303
9.16758	0.32
9.20862	0.313
9.24965	0.321
9.29069	0.367
9.33173	0.407
9.37277	0.407
9.41381	0.362
9.45484	0.318
9.49588	0.27
9.53692	0.231
9.57796	0.195
9.61899	0.149
9.66003	0.124
9.70107	0.102
9.74211	0.098
9.78315	0.132
9.82418	0.211
9.86522	0.333
9.90626	0.432
9.9473	0.494
9.98833	0.526
10.0294	0.555
10.0704	0.574
10.1114	0.584
10.1525	0.577
10.1935	0.54
10.2346	0.456
10.2756	0.315
10.3166	0.151
10.3577	0.083
10.3987	0.151
10.4398	0.391
10.4808	0.502
10.5218	0.529
10.5629	0.529
10.6039	0.538
10.6449	0.563
10.686	0.599
10.727	0.62
10.7681	0.625
10.8091	0.609
10.8501	0.597
10.8912	0.613
10.9322	0.659
10.9732	0.695
11.0143	0.717
11.0553	0.722
11.0964	0.724
11.1374	0.722
11.1784	0.71
11.2195	0.672
11.2605	0.632
11.3015	0.606
11.3426	0.606
11.3836	0.625
11.4247	0.638
11.4657	0.64
11.5067	0.637
11.5478	0.623
11.5888	0.606
11.6298	0.584
11.6709	0.575
11.7119	0.572
11.753	0.574
11.794	0.587
11.835	0.606
11.8761	0.654
11.9171	0.706
11.9581	0.759
11.9992	0.783
12.0402	0.809
12.0813	0.816
12.1223	0.821
12.1633	0.821
12.2044	0.814
12.2454	0.802
12.2865	0.79
12.3275	0.77
12.3685	0.759
12.4096	0.752
12.4506	0.752
12.4916	0.758
12.5327	0.758
12.5737	0.756
12.6148	0.756
12.6558	0.758
12.6968	0.763
12.7379	0.768
12.7789	0.773
12.8199	0.787
12.861	0.793
12.902	0.8
12.9431	0.804
12.9841	0.81
13.0251	0.81
13.0662	0.809
13.1072	0.804
13.1482	0.798
13.1893	0.797
13.2303	0.788
13.2714	0.78
13.3124	0.773
13.3534	0.763
13.3945	0.756
13.4355	0.746
13.4765	0.739
13.5176	0.73
13.5586	0.72
13.5997	0.712
13.6407	0.705
13.6817	0.7
13.7228	0.696
13.7638	0.693
13.8049	0.693
13.8459	0.688
13.8869	0.686
13.928	0.684
13.969	0.683
14.01	0.683
14.0511	0.683
14.0921	0.681
14.1332	0.678
14.1742	0.678
14.2152	0.678
14.2563	0.676
14.2973	0.672
14.3383	0.666
14.3794	0.662
14.4204	0.657
14.4615	0.652
14.5025	0.647
14.5435	0.642
14.5846	0.637
14.6256	0.63
14.6666	0.623
14.7077	0.613
14.7487	0.603
14.7898	0.596
14.8308	0.586
14.8718	0.577
14.9129	0.567
14.9539	0.558
14.9949	0.546
15.036	0.533
15.077	0.521
15.1181	0.507
15.1591	0.495
15.2001	0.478
15.2412	0.463
15.2822	0.449
15.3232	0.436
15.3643	0.427
15.4053	0.422
15.4464	0.405
15.4874	0.396
15.5284	0.388
15.5695	0.381
15.6105	0.376
15.6516	0.374
15.6926	0.373
15.7336	0.369
15.7747	0.366
15.8157	0.364
15.8567	0.359
