Infrared Spectrum: Dipentyl fumarate
Formula: C14 H24 O4
CAS: 20314-74-3
State: gas
Origin: EPA-IR VAPOR PHASE LIBRARY
1/CM	ABSORBANCE
549.8	0.0007768
559.445	0.0004469
569.09	0.00035082
578.734	0.000104
588.379	0.00029939
598.024	0.0002679
607.669	0.0003842
617.313	0.0004469
626.958	0.0007429
636.603	0.001511
646.248	0.002981
655.893	0.005431
665.537	0.006821
675.182	0.003441
684.827	0.001621
694.472	0.001301
704.116	0.0011789
713.761	0.001431
723.406	0.001981
733.051	0.002351
742.695	0.002701
752.34	0.002341
761.985	0.003731
771.63	0.005041
781.275	0.004831
790.919	0.003271
800.564	0.002481
810.209	0.002181
819.854	0.002191
829.498	0.002311
839.143	0.002701
848.788	0.003041
858.433	0.003341
868.078	0.004041
877.722	0.004091
887.367	0.003661
897.012	0.003371
906.657	0.003761
916.301	0.003831
925.946	0.003891
935.591	0.004641
945.236	0.005231
954.88	0.006881
964.525	0.011741
974.17	0.023161
983.815	0.033191
993.46	0.034881
1003.1	0.029891
1012.75	0.025181
1022.39	0.023601
1032.04	0.027031
1041.68	0.027521
1051.33	0.021361
1060.97	0.013921
1070.62	0.014411
1080.26	0.012601
1089.91	0.008771
1099.55	0.008111
1109.2	0.008451
1118.84	0.011231
1128.49	0.015731
1138.13	0.030081
1147.78	0.082841
1157.42	0.090681
1167.07	0.075311
1176.71	0.050691
1186.36	0.024681
1196	0.021521
1205.64	0.028281
1215.29	0.048851
1224.93	0.064791
1234.58	0.054451
1244.22	0.090241
1253.87	0.128451
1263.51	0.094131
1273.16	0.061191
1282.8	0.082311
1292.45	0.121311
1302.09	0.079521
1311.74	0.040361
1321.38	0.023531
1331.03	0.015351
1340.67	0.010611
1350.32	0.009161
1359.96	0.008481
1369.61	0.008331
1379.25	0.011141
1388.9	0.014671
1398.54	0.008931
1408.18	0.006081
1417.83	0.005301
1427.47	0.005441
1437.12	0.006641
1446.76	0.008431
1456.41	0.011451
1466.05	0.013711
1475.7	0.010701
1485.34	0.006241
1494.99	0.003991
1504.63	0.003151
1514.28	0.002711
1523.92	0.002441
1533.57	0.002191
1543.21	0.001971
1552.86	0.001771
1562.5	0.001601
1572.15	0.001531
1581.79	0.001611
1591.44	0.001591
1601.08	0.001691
1610.73	0.001961
1620.37	0.002551
1630.01	0.004011
1639.66	0.007021
1649.3	0.007331
1658.95	0.004911
1668.59	0.004351
1678.24	0.004391
1687.88	0.005381
1697.53	0.008321
1707.17	0.012761
1716.82	0.021081
1726.46	0.045161
1736.11	0.116791
1745.75	0.131481
1755.4	0.048121
1765.04	0.020021
1774.69	0.011801
1784.33	0.008011
1793.98	0.005261
1803.62	0.003531
1813.27	0.002631
1822.91	0.002181
1832.55	0.001921
1842.2	0.001731
1851.84	0.001681
1861.49	0.001721
1871.13	0.001491
1880.78	0.001441
1890.42	0.001381
1900.07	0.001341
1909.71	0.0012594
1919.36	0.001187
1929	0.001138
1938.65	0.0010828
1948.29	0.0009974
1957.94	0.0009532
1967.58	0.0009617
1977.23	0.0009724
1986.87	0.0008558
1996.52	0.0008796
2006.16	0.0009015
2015.81	0.0008979
2025.45	0.0009847
2035.1	0.001033
2044.74	0.0011112
2054.38	0.0009728
2064.03	0.0010768
2073.67	0.0010417
2083.32	0.0011023
2092.96	0.0011474
2102.61	0.0010421
2112.25	0.0011118
2121.9	0.0011678
2131.54	0.0011026
2141.19	0.0010333
2150.83	0.0009334
2160.48	0.000955
2170.12	0.0009038
2179.77	0.0008506
2189.41	0.0008744
2199.06	0.0008491
2208.7	0.0007852
2218.35	0.0008706
2227.99	0.0007046
2237.64	0.0007326
2247.28	0.0007803
2256.92	0.0008254
2266.57	0.0007384
2276.21	0.0007396
2285.86	0.0007699
2295.5	0.0007811
2305.15	0.0007013
2314.79	0.0007021
2324.44	0.000798
2334.08	0.000846
2343.73	0.0008941
2353.37	0.0006824
2363.02	0.0005352
2372.66	0.0005731
2382.31	0.0006283
2391.95	0.0007287
2401.6	0.0005946
2411.24	0.0006297
2420.89	0.0006727
2430.53	0.0005697
2440.18	0.0005689
2449.82	0.0006432
2459.47	0.0005991
2469.11	0.0007338
2478.75	0.0007032
2488.4	0.0006019
2498.04	0.0007328
2507.69	0.0005736
2517.33	0.0006018
2526.98	0.0006152
2536.62	0.0006096
2546.27	0.0005396
2555.91	0.0005457
2565.56	0.0006627
2575.2	0.0007061
2584.85	0.0006938
2594.49	0.0006012
2604.14	0.0007902
2613.78	0.0007614
2623.43	0.0006866
2633.07	0.0007911
2642.72	0.00078
2652.36	0.0007812
2662.01	0.0009551
2671.65	0.0009807
2681.29	0.0010505
2690.94	0.0010965
2700.58	0.0011058
2710.23	0.0010787
2719.87	0.0011934
2729.52	0.0012396
2739.16	0.001441
2748.81	0.001591
2758.45	0.001751
2768.1	0.001681
2777.74	0.001801
2787.39	0.001851
2797.03	0.002151
2806.68	0.002391
2816.32	0.002971
2825.97	0.003881
2835.61	0.005001
2845.26	0.007431
2854.9	0.012061
2864.55	0.019391
2874.19	0.024381
2883.84	0.025181
2893.48	0.022231
2903.12	0.023421
2912.77	0.028341
2922.41	0.037781
2932.06	0.051771
2941.7	0.061561
2951.35	0.053811
2960.99	0.060381
2970.64	0.065401
2980.28	0.038861
2989.93	0.021471
2999.57	0.012541
3009.22	0.007681
3018.86	0.005361
3028.51	0.004111
3038.15	0.003201
3047.8	0.002601
3057.44	0.002251
3067.09	0.002041
3076.73	0.001741
3086.38	0.001671
3096.02	0.001371
3105.67	0.001361
3115.31	0.0011982
3124.95	0.0010535
3134.6	0.0010575
3144.24	0.0010193
3153.89	0.0008598
3163.53	0.0008326
3173.18	0.0009509
3182.82	0.0009835
3192.47	0.0008043
3202.11	0.00078
3211.76	0.0006906
3221.4	0.0005098
3231.05	0.0004876
3240.69	0.0005527
3250.34	0.00035269
3259.98	0.0004241
3269.63	0.0004851
3279.27	0.00036068
3288.92	0.000414
3298.56	0.00027553
3308.21	0.0004753
3317.85	0.00035896
3327.49	0.0004797
3337.14	0.0005043
3346.78	0.0003844
3356.43	0.000457
3366.07	0.0005194
3375.72	0.0006458
3385.36	0.0005104
3395.01	0.0006172
3404.65	0.00037687
3414.3	0.00034958
3423.94	0.0004655
3433.59	0.000653
3443.23	0.000668
3452.88	0.0010434
3462.52	0.001671
3472.17	0.001881
3481.81	0.0012093
3491.46	0.000824
3501.1	0.0007106
3510.75	0.0004515
3520.39	0.0004158
3530.04	0.0005396
3539.68	0.0002509
3549.32	0.00036075
3558.97	0.00030449
3568.61	0.0002707
3578.26	0.0004974
3587.9	0.0002279
3597.55	0.00027619
3607.19	0.00036651
3616.84	0.0004434
3626.48	0.0003864
3636.13	0.00036234
3645.77	0.0003081
3655.42	0.0002448
3665.06	0.0004506
3674.71	0.0005117
3684.35	0.0005749
3694	0.0003965
3703.64	0.0004779
3713.29	0.0004469
3722.93	0.0004254
3732.58	0.00056
3742.22	0.0004515
3751.86	0.0004454
3761.51	0.00031181
3771.15	0.0005018
3780.8	0.0004244
3790.44	0.0004406
3800.09	0.0004706
3809.73	0.0006014
3819.38	0.0004901
3829.02	0.0005519
3838.67	0.0004621
3848.31	0.000436
3857.96	0.0004638
3867.6	0.0003836
3877.25	0.0005981
3886.89	0.0005955
3896.54	0.00037644
3906.18	0.000448
3915.83	0.0004284
3925.47	0.0005251
3935.12	0.0003909
3944.76	0.00037861
3954.41	0.0004804
3964.05	0.0006119
3973.69	0.0005819
3983.34	0.0005263
3992.98	0.0008277
