Infrared Spectrum: TRIETHOXYMETHYLSILANE
Formula: C7 H18 O3 Si
CAS: 2031-67-6
State: SOLUTION (5% IN CCl4 FOR 3800-1210, 2% IN CS2 FOR 1300-550, AND 5% IN CCl4 FOR 600-250 CM^-^1)
Boiling point: 79 C AT 84 mmHg
Class: COBLENTZ III
Instrument: PERKIN-ELMER 521 (GRATING)
Instrument parameters: FILTERS AT 3150, 2500, 2000, 1150, 700, 410. GRATING CHANGES: 2000, 630 CM^-^1
Sampling: TRANSMISSION
Path length: 0.011 CM, 0.011 CM, AND 0.021 CM
Resolution: 2
Origin: DOW CORNING CORP.
1/CM	TRANSMITTANCE
254.886	0.797
264.248	0.796
273.61	0.783
282.973	0.756
292.335	0.738
301.697	0.722
311.059	0.717
320.421	0.717
329.784	0.718
339.146	0.718
348.508	0.715
357.87	0.707
367.233	0.685
376.595	0.674
385.957	0.659
395.319	0.648
404.681	0.612
414.044	0.558
423.406	0.521
432.768	0.459
442.13	0.399
451.492	0.383
460.855	0.439
470.217	0.522
479.579	0.627
488.941	0.693
498.303	0.749
507.666	0.777
517.028	0.789
526.39	0.795
535.752	0.801
545.114	0.823
554.477	0.825
563.839	0.828
573.201	0.824
582.563	0.818
591.926	0.832
601.288	0.836
610.65	0.963
620.012	0.961
629.374	0.955
638.737	0.909
648.099	0.91
657.461	0.911
666.823	0.911
676.185	0.912
685.548	0.917
694.91	0.915
704.272	0.912
713.634	0.915
722.996	0.888
732.359	0.83
741.721	0.872
751.083	0.89
760.445	0.875
769.807	0.811
779.17	0.548
788.532	0.52
797.894	0.734
807.256	0.637
816.619	0.526
825.981	0.451
835.343	0.505
844.705	0.771
854.067	0.875
863.43	0.911
872.792	0.922
882.154	0.926
891.516	0.922
900.878	0.916
910.241	0.919
919.603	0.893
928.965	0.824
938.327	0.673
947.689	0.556
957.052	0.435
966.414	0.436
975.776	0.695
985.138	0.861
994.5	0.891
1003.86	0.9
1013.22	0.895
1022.59	0.873
1031.95	0.85
1041.31	0.803
1050.67	0.756
1060.04	0.659
1069.4	0.458
1078.76	0.149
1088.12	0.174
1097.48	0.229
1106.85	0.145
1116.21	0.297
1125.57	0.376
1134.93	0.506
1144.3	0.641
1153.66	0.648
1163.02	0.571
1172.38	0.535
1181.74	0.772
1191.11	0.852
1200.47	0.896
1209.83	0.902
1219.19	0.903
1228.56	0.908
1237.92	0.907
1247.28	0.895
1256.64	0.833
1266	0.534
1275.37	0.859
1284.73	0.882
1294.09	0.838
1303.45	0.844
1312.82	0.85
1322.18	0.85
1331.54	0.84
1340.9	0.831
1350.26	0.818
1359.63	0.795
1368.99	0.659
1378.35	0.677
1387.71	0.566
1397.08	0.403
1406.44	0.673
1415.8	0.718
1425.16	0.687
1434.52	0.745
1443.89	0.635
1453.25	0.644
1462.61	0.701
1471.97	0.788
1481.34	0.772
1490.7	0.728
1500.06	0.844
1509.42	0.867
1518.78	0.876
1528.15	0.883
1537.51	0.887
1546.87	0.888
1556.23	0.887
1565.6	0.885
1574.96	0.861
1584.32	0.859
1593.68	0.887
1603.04	0.878
1612.41	0.871
1621.77	0.887
1631.13	0.887
1640.49	0.873
1649.86	0.893
1659.22	0.894
1668.58	0.89
1677.94	0.886
1687.3	0.885
1696.67	0.882
1706.03	0.88
1715.39	0.879
1724.75	0.878
1734.11	0.874
1743.48	0.876
1752.84	0.878
1762.2	0.88
1771.56	0.883
1780.93	0.886
1790.29	0.881
1799.65	0.876
1809.01	0.875
1818.37	0.869
1827.74	0.869
1837.1	0.869
1846.46	0.872
1855.82	0.868
1865.19	0.871
1874.55	0.874
1883.91	0.874
1893.27	0.871
1902.63	0.868
1912	0.867
1921.36	0.874
1930.72	0.878
1940.08	0.881
1949.45	0.885
1958.81	0.887
1968.17	0.893
1977.53	0.893
1986.89	0.894
1996.26	0.895
2005.62	0.8901
2014.98	0.9046
2024.34	0.915
2033.71	0.915
2043.07	0.914
2052.43	0.912
2061.79	0.914
2071.15	0.9166
2080.52	0.917
2089.88	0.917
2099.24	0.916
2108.6	0.914
2117.97	0.912
2127.33	0.911
2136.69	0.911
2146.05	0.911
2155.41	0.911
2164.78	0.911
2174.14	0.9095
2183.5	0.908
2192.86	0.908
2202.23	0.9097
2211.59	0.915
2220.95	0.918
2230.31	0.919
2239.67	0.919
2249.04	0.9211
2258.4	0.923
2267.76	0.923
2277.12	0.923
2286.49	0.9234
2295.85	0.929
2305.21	0.929
2314.57	0.9297
2323.93	0.9317
2333.3	0.932
2342.66	0.932
2352.02	0.933
2361.38	0.936
2370.75	0.9339
2380.11	0.932
2389.47	0.9307
2398.83	0.929
2408.19	0.926
2417.56	0.924
2426.92	0.924
2436.28	0.9223
2445.64	0.919
2455.01	0.9162
2464.37	0.914
2473.73	0.918
2483.09	0.9231
2492.45	0.923
2501.82	0.918
2511.18	0.9196
2520.54	0.922
2529.9	0.921
2539.26	0.921
2548.63	0.923
2557.99	0.919
2567.35	0.9142
2576.71	0.912
2586.08	0.912
2595.44	0.912
2604.8	0.911
2614.16	0.911
2623.52	0.9077
2632.89	0.9037
2642.25	0.901
2651.61	0.9045
2660.97	0.907
2670.34	0.908
2679.7	0.909
2689.06	0.909
2698.42	0.909
2707.78	0.907
2717.15	0.8979
2726.51	0.8755
2735.87	0.855
2745.23	0.8087
2754.6	0.8449
2763.96	0.8576
2773.32	0.8435
2782.68	0.8616
2792.04	0.8727
2801.41	0.8682
2810.77	0.8625
2820.13	0.8334
2829.49	0.823
2838.86	0.8165
2848.22	0.7707
2857.58	0.7287
2866.94	0.6579
2876.3	0.4421
2885.67	0.3333
2895.03	0.2963
2904.39	0.3383
2913.75	0.3684
2923.12	0.3734
2932.48	0.2924
2941.84	0.3986
2951.2	0.4863
2960.56	0.5332
2969.93	0.4201
2979.29	0.1497
2988.65	0.1274
2998.01	0.3479
3007.38	0.5102
3016.74	0.7018
3026.1	0.7926
3035.46	0.8202
3044.82	0.8536
3054.19	0.8656
3063.55	0.8739
3072.91	0.8821
3082.27	0.888
3091.64	0.8916
3101	0.9003
3110.36	0.9074
3119.72	0.91
3129.08	0.911
3138.45	0.911
3147.81	0.911
3157.17	0.912
3166.53	0.915
3175.9	0.914
3185.26	0.912
3194.62	0.911
3203.98	0.91
3213.34	0.9102
3222.71	0.912
3232.07	0.914
3241.43	0.915
3250.79	0.916
3260.15	0.917
3269.52	0.919
3278.88	0.919
3288.24	0.919
3297.6	0.921
3306.97	0.921
3316.33	0.922
3325.69	0.922
3335.05	0.922
3344.41	0.922
3353.78	0.922
3363.14	0.922
3372.5	0.921
3381.86	0.919
3391.23	0.918
3400.59	0.918
3409.95	0.9189
3419.31	0.919
3428.67	0.921
3438.04	0.921
3447.4	0.921
3456.76	0.921
3466.12	0.921
3475.49	0.921
3484.85	0.921
3494.21	0.921
3503.57	0.919
3512.93	0.919
3522.3	0.918
3531.66	0.919
3541.02	0.919
3550.38	0.921
3559.75	0.921
3569.11	0.9172
3578.47	0.9217
3587.83	0.921
3597.19	0.921
3606.56	0.918
3615.92	0.9174
3625.28	0.916
3634.64	0.9112
3644.01	0.911
3653.37	0.911
3662.73	0.914
3672.09	0.912
3681.45	0.9098
3690.82	0.908
3700.18	0.908
3709.54	0.909
3718.9	0.908
3728.27	0.908
3737.63	0.9073
3746.99	0.907
3756.35	0.9078
3765.71	0.909
3775.08	0.91
