Infrared Spectrum: Aminocarb
Formula: C 11 H 16 N 2 O 2
CAS: 2032-59-9
State: gas
Instrument: HP-GC/MS/IRD
Origin: NIST Mass Spectrometry Data Center
1/CM	ABSORBANCE
550	0.001479
562	0.0012648
574	0.0021012
586	0.0027744
598	0.001734
610	0.0008568
622	0.0006222
634	0.0004284
646	0.000204
658	0.0001122
670	8.16e-05
682	0.0001122
694	0.0004182
706	0.0006936
718	0.000561
730	0.000561
742	0.0007446
754	0.001377
766	0.0021012
778	0.0019074
790	0.001479
802	0.0020808
814	0.0037536
826	0.0027234
838	0.0016626
850	0.0016422
862	0.0025908
874	0.0040902
886	0.0042636
898	0.0047226
910	0.0053958
922	0.0075174
934	0.01632
946	0.0143208
958	0.0072216
970	0.0051102
982	0.0039474
994	0.0049368
1006	0.003978
1018	0.0026418
1030	0.0031518
1042	0.0060384
1054	0.0104142
1066	0.0102306
1078	0.0106896
1090	0.0182886
1102	0.0100776
1114	0.0078948
1126	0.0079458
1138	0.0143922
1150	0.0442782
1162	0.0616284
1174	0.0332418
1186	0.0357204
1198	0.0620568
1210	0.0987666
1222	0.084456
1234	0.0429522
1246	0.0205428
1258	0.0137088
1270	0.0172686
1282	0.0153918
1294	0.0094656
1306	0.0101184
1318	0.0138924
1330	0.0193188
1342	0.0101184
1354	0.0047838
1366	0.0036516
1378	0.0039984
1390	0.0041718
1402	0.0071298
1414	0.0131478
1426	0.0137292
1438	0.0157794
1450	0.0213894
1462	0.028254
1474	0.0533868
1486	0.0864756
1498	0.0614856
1510	0.0313854
1522	0.019635
1534	0.013923
1546	0.010047
1558	0.0074052
1570	0.005508
1582	0.0043248
1594	0.0039882
1606	0.004335
1618	0.003519
1630	0.0024072
1642	0.0018564
1654	0.0016116
1666	0.0014076
1678	0.0013362
1690	0.0013974
1702	0.0017748
1714	0.0028764
1726	0.0058242
1738	0.00969
1750	0.0179316
1762	0.0401064
1774	0.0674118
1786	0.0371994
1798	0.0131376
1810	0.0064668
1822	0.0041208
1834	0.002091
1846	0.0014994
1858	0.0013566
1870	0.0009588
1882	0.000663
1894	0.0005814
1906	0.0004896
1918	0.0003366
1930	0.0001836
1942	0.0001224
1954	0.0001122
1966	9.18e-05
1978	8.16e-05
1990	0.0001632
2002	0.0002142
2014	0.0002958
2026	0.0002652
2038	0.000153
2050	0.0001326
2062	0.0002244
2074	0.0003162
2086	0.0003672
2098	0.0004488
2110	0.0005406
2122	0.000612
2134	0.0004998
2146	0.0003468
2158	0.0002754
2170	0.000255
2182	0.0002754
2194	0.000306
2206	0.0004386
2218	0.0006426
2230	0.0011016
2242	0.0018054
2254	0.0025398
2266	0.0029274
2278	0.0032946
2290	0.0028968
2302	0.0024072
2314	0.002193
2326	0.001122
2338	0.0008466
2350	0.0006018
2362	0.0002142
2374	0.0001734
2386	0.0001122
2398	0.0001326
2410	9.18e-05
2422	0.0001122
2434	0.0001632
2446	0.0002346
2458	0.0002856
2470	0.000255
2482	0.0001836
2494	0.000153
2506	0.000102
2518	0.0001122
2530	9.18e-05
2542	0.000102
2554	0.0001122
2566	0.0001224
2578	0.0001938
2590	0.0002652
2602	0.0003264
2614	0.0003672
2626	0.000357
2638	0.0003366
2650	0.0003672
2662	0.0004386
2674	0.000408
2686	0.0005304
2698	0.000561
2710	0.0006936
2722	0.0009384
2734	0.0013974
2746	0.0020196
2758	0.003366
2770	0.0063342
2782	0.0112404
2794	0.0134334
2806	0.009129
2818	0.0090882
2830	0.0138312
2842	0.0119748
2854	0.0101694
2866	0.0105162
2878	0.010251
2890	0.0106692
2902	0.011985
2914	0.0134538
2926	0.017034
2938	0.0239394
2950	0.0251022
2962	0.0166566
2974	0.0127092
2986	0.0132192
2998	0.0077622
3010	0.004794
3022	0.0044778
3034	0.005202
3046	0.0046716
3058	0.0037332
3070	0.0032028
3082	0.002703
3094	0.00204
3106	0.00153
3118	0.0010812
3130	0.0007344
3142	0.0005406
3154	0.0004284
3166	0.000357
3178	0.0002958
3190	0.0002754
3202	0.0002652
3214	0.0002244
3226	0.0001428
3238	0.0001326
3250	0.0001428
3262	0.0001326
3274	0.000102
3286	4.08e-05
3298	4.08e-05
3310	3.06e-05
3322	4.08e-05
3334	5.1e-05
3346	6.12e-05
3358	9.18e-05
3370	7.14e-05
3382	7.14e-05
3394	8.16e-05
3406	0.0001428
3418	0.0001224
3430	0.0002754
3442	0.0005712
3454	0.0011934
3466	0.0024378
3478	0.0046104
3490	0.006273
3502	0.00459
3514	0.0022338
3526	0.0013566
3538	0.000969
3550	0.0006426
3562	0.0003774
3574	0.0002244
3586	0.0001938
3598	0.0001632
3610	0.000153
3622	0.000153
3634	0.000204
3646	0.0004488
3658	0.0004692
3670	0.0002142
3682	6.12e-05
3694	7.14e-05
3706	0.0001122
3718	0.0001734
3730	0.0001326
3742	0.0001836
3754	0.0001224
3766	0.0001938
3778	0.0001938
3790	0.0001632
3802	0.0001326
3814	0.0002346
3826	0.000204
3838	0.0002244
