Infrared Spectrum: Ethyl 6-amino-3,4-dimethoxybenzoate
Formula: C 11 H 15 N O 4
CAS: 20323-74-4
State: gas
Origin: EPA-IR VAPOR PHASE LIBRARY
1/CM	ABSORBANCE
549.8	0.02184
559.445	0.02088
569.09	0.02021
578.734	0.02127
588.379	0.02517
598.024	0.02514
607.669	0.02253
617.313	0.02227
626.958	0.02252
636.603	0.0249
646.248	0.02644
655.893	0.0281
665.537	0.02699
675.182	0.02337
684.827	0.02077
694.472	0.01985
704.116	0.01986
713.761	0.02031
723.406	0.02094
733.051	0.02074
742.695	0.02408
752.34	0.02967
761.985	0.03521
771.63	0.03794
781.275	0.04378
790.919	0.0454
800.564	0.03601
810.209	0.03591
819.854	0.0415
829.498	0.03492
839.143	0.02916
848.788	0.03059
858.433	0.03106
868.078	0.03199
877.722	0.0324
887.367	0.0254
897.012	0.02252
906.657	0.01886
916.301	0.01516
925.946	0.01374
935.591	0.01374
945.236	0.01445
954.88	0.01713
964.525	0.02202
974.17	0.03279
983.815	0.0476
993.46	0.05378
1003.1	0.05689
1012.75	0.08063
1022.39	0.1233
1032.04	0.14211
1041.68	0.10912
1051.33	0.06005
1060.97	0.05138
1070.62	0.08509
1080.26	0.12717
1089.91	0.12645
1099.55	0.11139
1109.2	0.07155
1118.84	0.05201
1128.49	0.05628
1138.13	0.08881
1147.78	0.18064
1157.42	0.32844
1167.07	0.35374
1176.71	0.24708
1186.36	0.21861
1196	0.32033
1205.64	0.50485
1215.29	0.45495
1224.93	0.2988
1234.58	0.27744
1244.22	0.33743
1253.87	0.30657
1263.51	0.22132
1273.16	0.27631
1282.8	0.27725
1292.45	0.16832
1302.09	0.0976
1311.74	0.06486
1321.38	0.05798
1331.03	0.06647
1340.67	0.07715
1350.32	0.07456
1359.96	0.06835
1369.61	0.10117
1379.25	0.07134
1388.9	0.04901
1398.54	0.05517
1408.18	0.06916
1417.83	0.06911
1427.47	0.05549
1437.12	0.06492
1446.76	0.08248
1456.41	0.10006
1466.05	0.10469
1475.7	0.09497
1485.34	0.09537
1494.99	0.14827
1504.63	0.22709
1514.28	0.21146
1523.92	0.10705
1533.57	0.06549
1543.21	0.07347
1552.86	0.10903
1562.5	0.11267
1572.15	0.08387
1581.79	0.09479
1591.44	0.15998
1601.08	0.20064
1610.73	0.16186
1620.37	0.14346
1630.01	0.10157
1639.66	0.05434
1649.3	0.03785
1658.95	0.03541
1668.59	0.03905
1678.24	0.0494
1687.88	0.09253
1697.53	0.2461
1707.17	0.32853
1716.82	0.15259
1726.46	0.09484
1736.11	0.04999
1745.75	0.02819
1755.4	0.02092
1765.04	0.01681
1774.69	0.01388
1784.33	0.01152
1793.98	0.0104
1803.62	0.00951
1813.27	0.00815
1822.91	0.00692
1832.55	0.00642
1842.2	0.00602
1851.84	0.00576
1861.49	0.00583
1871.13	0.00593
1880.78	0.00596
1890.42	0.00575
1900.07	0.00551
1909.71	0.0051
1919.36	0.00498
1929	0.00561
1938.65	0.00638
1948.29	0.00656
1957.94	0.00616
1967.58	0.0056
1977.23	0.00539
1986.87	0.00535
1996.52	0.00558
2006.16	0.00563
2015.81	0.00583
2025.45	0.00596
2035.1	0.00608
2044.74	0.0061
2054.38	0.0059
2064.03	0.00608
2073.67	0.0057
2083.32	0.00519
2092.96	0.00465
2102.61	0.00457
2112.25	0.00421
2121.9	0.00395
2131.54	0.00406
2141.19	0.00425
2150.83	0.00443
2160.48	0.00412
2170.12	0.0037
2179.77	0.00382
2189.41	0.00398
2199.06	0.00396
2208.7	0.00356
2218.35	0.00341
2227.99	0.00341
2237.64	0.00347
2247.28	0.00341
2256.92	0.00308
2266.57	0.00304
2276.21	0.00295
2285.86	0.00299
2295.5	0.00294
2305.15	0.00268
2314.79	0.00265
2324.44	0.00271
2334.08	0.00266
2343.73	0.00282
2353.37	0.00298
2363.02	0.00298
2372.66	0.00297
2382.31	0.00279
2391.95	0.00283
2401.6	0.00268
2411.24	0.00262
2420.89	0.00255
2430.53	0.00231
2440.18	0.00238
2449.82	0.00258
2459.47	0.00229
2469.11	0.00237
2478.75	0.00252
2488.4	0.00275
2498.04	0.00304
2507.69	0.00285
2517.33	0.00271
2526.98	0.00265
2536.62	0.00289
2546.27	0.00291
2555.91	0.00325
2565.56	0.00347
2575.2	0.00359
2584.85	0.0036
2594.49	0.00389
2604.14	0.00446
2613.78	0.00501
2623.43	0.00514
2633.07	0.00511
2642.72	0.00444
2652.36	0.00407
2662.01	0.00364
2671.65	0.0032
2681.29	0.00288
2690.94	0.00284
2700.58	0.00293
2710.23	0.00291
2719.87	0.00302
2729.52	0.00323
2739.16	0.00324
2748.81	0.00362
2758.45	0.00396
2768.1	0.00503
2777.74	0.00567
2787.39	0.00677
2797.03	0.00833
2806.68	0.0111
2816.32	0.01611
2825.97	0.0264
2835.61	0.04083
2845.26	0.04208
2854.9	0.0337
2864.55	0.03268
2874.19	0.03278
2883.84	0.03477
2893.48	0.03731
2903.12	0.04383
2912.77	0.0546
2922.41	0.06006
2932.06	0.07535
2941.7	0.10749
2951.35	0.10003
2960.99	0.08613
2970.64	0.08018
2980.28	0.09124
2989.93	0.09426
2999.57	0.08495
3009.22	0.07035
3018.86	0.03844
3028.51	0.0237
3038.15	0.02006
3047.8	0.01973
3057.44	0.01753
3067.09	0.01436
3076.73	0.01283
3086.38	0.01207
3096.02	0.00929
3105.67	0.00729
3115.31	0.00585
3124.95	0.00511
3134.6	0.00422
3144.24	0.00399
3153.89	0.00355
3163.53	0.00361
3173.18	0.00366
3182.82	0.00333
3192.47	0.00304
3202.11	0.00264
3211.76	0.0022
3221.4	0.00225
3231.05	0.00173
3240.69	0.00161
3250.34	0.00167
3259.98	0.00209
3269.63	0.00191
3279.27	0.00241
3288.92	0.0037
3298.56	0.00411
3308.21	0.00395
3317.85	0.00339
3327.49	0.00319
3337.14	0.00392
3346.78	0.00534
3356.43	0.00994
3366.07	0.02504
3375.72	0.05791
3385.36	0.06081
3395.01	0.0312
3404.65	0.01503
3414.3	0.01195
3423.94	0.01016
3433.59	0.0048
3443.23	0.0035
3452.88	0.00353
3462.52	0.00427
3472.17	0.0069
3481.81	0.01102
3491.46	0.01964
3501.1	0.03423
3510.75	0.04177
3520.39	0.02823
3530.04	0.01269
3539.68	0.00558
3549.32	0.00323
3558.97	0.00184
3568.61	0.0017
3578.26	0.00107
3587.9	0.0009247
3597.55	0.000852
3607.19	0.0003368
3616.84	0.0004917
3626.48	0.0005328
3636.13	0.0002367
3645.77	0.0005075
3655.42	0.0004188
3665.06	0.0005965
3674.71	0.000531
3684.35	0.0005168
3694	0.0005525
3703.64	0.0004853
3713.29	0.000646
3722.93	0.0007073
3732.58	0.0008875
3742.22	0.0005621
3751.86	0.0006768
3761.51	0.0005303
3771.15	0.0008472
3780.8	0.000743
3790.44	0.0007846
3800.09	0.0007764
3809.73	0.0008632
3819.38	0.0007071
3829.02	0.0009782
3838.67	0.0014
3848.31	0.0008784
3857.96	0.0004839
3867.6	0.0008812
3877.25	0.0007175
3886.89	0.00141
3896.54	0.0009109
3906.18	0.00104
3915.83	0.0008245
3925.47	0.0006585
3935.12	0.00116
3944.76	0.0008304
3954.41	0.0009101
3964.05	0.0006758
3973.69	0.00133
3983.34	0.00129
3992.98	0.00124
