Infrared Spectrum: p-t-Butylacetanilide
Formula: C 12 H 17 N O
CAS: 20330-45-4
State: gas
Origin: EPA-IR VAPOR PHASE LIBRARY
1/CM	ABSORBANCE
549.8	0.006779
559.445	0.004459
569.09	0.002979
578.734	0.002549
588.379	0.002189
598.024	0.003069
607.669	0.003649
617.313	0.002159
626.958	0.001809
636.603	0.001829
646.248	0.001329
655.893	0.0010726
665.537	0.0008952
675.182	0.0010286
684.827	0.0008409
694.472	0.0011329
704.116	0.0008683
713.761	0.0008058
723.406	0.0006888
733.051	0.0006721
742.695	0.0008334
752.34	0.0005669
761.985	0.0009103
771.63	0.000896
781.275	0.001189
790.919	0.001529
800.564	0.002589
810.209	0.003729
819.854	0.005259
829.498	0.007519
839.143	0.007329
848.788	0.004219
858.433	0.002199
868.078	0.001329
877.722	0.0011409
887.367	0.0009428
897.012	0.0011697
906.657	0.001439
916.301	0.001489
925.946	0.001579
935.591	0.001359
945.236	0.001659
954.88	0.001559
964.525	0.002199
974.17	0.003189
983.815	0.004459
993.46	0.004859
1003.1	0.003489
1012.75	0.005499
1022.39	0.005069
1032.04	0.002749
1041.68	0.002389
1051.33	0.002419
1060.97	0.002569
1070.62	0.002679
1080.26	0.001469
1089.91	0.001719
1099.55	0.002469
1109.2	0.004339
1118.84	0.003449
1128.49	0.002629
1138.13	0.001999
1147.78	0.001369
1157.42	0.0011689
1167.07	0.0011238
1176.71	0.002159
1186.36	0.006199
1196	0.009339
1205.64	0.011009
1215.29	0.014339
1224.93	0.018139
1234.58	0.017089
1244.22	0.018289
1253.87	0.012329
1263.51	0.013769
1273.16	0.013989
1282.8	0.017169
1292.45	0.021789
1302.09	0.018309
1311.74	0.021039
1321.38	0.013119
1331.03	0.006799
1340.67	0.005759
1350.32	0.007299
1359.96	0.013649
1369.61	0.020389
1379.25	0.016739
1388.9	0.014039
1398.54	0.017869
1408.18	0.017519
1417.83	0.009309
1427.47	0.006629
1437.12	0.006319
1446.76	0.007599
1456.41	0.010589
1466.05	0.015509
1475.7	0.022889
1485.34	0.033729
1494.99	0.040829
1504.63	0.041579
1514.28	0.056409
1523.92	0.042969
1533.57	0.015079
1543.21	0.007899
1552.86	0.005349
1562.5	0.004599
1572.15	0.005249
1581.79	0.007359
1591.44	0.009199
1601.08	0.008539
1610.73	0.007409
1620.37	0.004849
1630.01	0.003429
1639.66	0.002869
1649.3	0.002839
1658.95	0.002849
1668.59	0.003539
1678.24	0.004369
1687.88	0.006019
1697.53	0.009699
1707.17	0.019139
1716.82	0.048249
1726.46	0.049639
1736.11	0.028559
1745.75	0.014929
1755.4	0.008179
1765.04	0.005009
1774.69	0.003389
1784.33	0.002449
1793.98	0.001829
1803.62	0.001359
1813.27	0.0011733
1822.91	0.0011021
1832.55	0.0010676
1842.2	0.0011127
1851.84	0.001059
1861.49	0.0010482
1871.13	0.0010822
1880.78	0.0010236
1890.42	0.0010862
1900.07	0.0010101
1909.71	0.0008228
1919.36	0.0007509
1929	0.0006641
1938.65	0.0005196
1948.29	0.000561
1957.94	0.0005577
1967.58	0.0005021
1977.23	0.0003887
1986.87	0.0005175
1996.52	0.0004035
2006.16	0.0003744
2015.81	0.0004663
2025.45	0.000376
2035.1	0.0004121
2044.74	0.0003846
2054.38	0.0004454
2064.03	0.0004548
2073.67	0.0003952
2083.32	0.0004271
2092.96	0.0003767
2102.61	0.0004844
2112.25	0.0004389
2121.9	0.0004176
2131.54	0.0005168
2141.19	0.0005147
2150.83	0.0004467
2160.48	0.0003901
2170.12	0.0004574
2179.77	0.0003835
2189.41	0.0003565
2199.06	0.000335
2208.7	0.0004106
2218.35	0.0004552
2227.99	0.0003028
2237.64	0.0002893
2247.28	0.0001646
2256.92	0.000186348
2266.57	0.00026485
2276.21	0.00026085
2285.86	0.00027662
2295.5	0.0004295
2305.15	0.0004436
2314.79	0.0004079
2324.44	0.000438
2334.08	0.0003816
2343.73	0.0003752
2353.37	0.0002834
2363.02	0.0003512
2372.66	0.00025585
2382.31	0.0004205
2391.95	0.0003733
2401.6	0.0003182
2411.24	0.0003622
2420.89	0.000476
2430.53	0.0005532
2440.18	0.0003606
2449.82	0.0003794
2459.47	0.0004581
2469.11	0.0003858
2478.75	0.0003969
2488.4	0.00026481
2498.04	0.0003554
2507.69	0.0003486
2517.33	0.0004446
2526.98	0.00026277
2536.62	0.000354
2546.27	0.00026465
2555.91	0.00025851
2565.56	0.0003365
2575.2	0.0004889
2584.85	0.0003723
2594.49	0.00027807
2604.14	0.000346
2613.78	0.00027817
2623.43	0.0003438
2633.07	0.00021921
2642.72	0.0003535
2652.36	0.0004027
2662.01	0.0004335
2671.65	0.0004746
2681.29	0.0004851
2690.94	0.0003869
2700.58	0.0005388
2710.23	0.000612
2719.87	0.0007436
2729.52	0.0006957
2739.16	0.0006624
2748.81	0.0004712
2758.45	0.0005834
2768.1	0.0004439
2777.74	0.0005139
2787.39	0.0006015
2797.03	0.000736
2806.68	0.0007974
2816.32	0.0008189
2825.97	0.0008662
2835.61	0.001289
2845.26	0.001579
2854.9	0.002559
2864.55	0.004739
2874.19	0.007259
2883.84	0.007859
2893.48	0.007529
2903.12	0.008289
2912.77	0.010719
2922.41	0.010689
2932.06	0.010319
2941.7	0.012079
2951.35	0.017839
2960.99	0.033159
2970.64	0.039929
2980.28	0.020059
2989.93	0.008589
2999.57	0.004639
3009.22	0.003649
3018.86	0.004139
3028.51	0.005409
3038.15	0.004519
3047.8	0.003629
3057.44	0.003399
3067.09	0.003739
3076.73	0.003149
3086.38	0.002439
3096.02	0.002259
3105.67	0.002069
3115.31	0.001839
3124.95	0.0010749
3134.6	0.0009669
3144.24	0.0008504
3153.89	0.0005908
3163.53	0.0008316
3173.18	0.0005225
3182.82	0.000565
3192.47	0.0007928
3202.11	0.0007003
3211.76	0.00023482
3221.4	0.0008271
3231.05	0.0005453
3240.69	0.000492
3250.34	0.0003332
3259.98	0.0003216
3269.63	0.0003987
3279.27	0.0005011
3288.92	0.0005622
3298.56	0.0004174
3308.21	0.0004664
3317.85	0.0004045
3327.49	0.00024196
3337.14	0.0005633
3346.78	0.0001653
3356.43	0.0001788
3366.07	0.0003706
3375.72	0.0004315
3385.36	0.0008088
3395.01	0.0008504
3404.65	0.001199
3414.3	0.001539
3423.94	0.001789
3433.59	0.002159
3443.23	0.002119
3452.88	0.002579
3462.52	0.002939
3472.17	0.002439
3481.81	0.001219
3491.46	0.000782
3501.1	0.0004413
3510.75	0.0004139
3520.39	0.0004005
3530.04	0.0003329
3539.68	0.0003552
3549.32	0.0003158
3558.97	0.0002843
3568.61	0.0004222
3578.26	7.5e-05
3587.9	0.0003953
3597.55	0.0001924
3607.19	7.6e-05
3616.84	0.0003968
3626.48	0.0003876
3636.13	0.0001234
3645.77	0.0003863
3655.42	0.0003065
3665.06	0.0005106
3674.71	0.00026173
3684.35	0.0002829
3694	0.00025699
3703.64	0.000446
3713.29	0.0001379
3722.93	0.0003934
3732.58	0.0004843
3742.22	0.00019711
3751.86	0.00020065
3761.51	0.000332
3771.15	0.0003237
3780.8	0.000311
3790.44	0.0004428
3800.09	0.0003297
3809.73	0.0001961
3819.38	0.0001909
3829.02	0.00026578
3838.67	0.0006119
3848.31	0.00024341
3857.96	0.0004387
3867.6	0.0003574
3877.25	0.0004125
3886.89	0.0005023
3896.54	0.000180439
3906.18	0.0003774
3915.83	0.00024027
3925.47	0.0003103
3935.12	0.00023284
3944.76	0.000396
3954.41	0.0003269
3964.05	0.0004705
3973.69	0.0003605
3983.34	0.0004359
3992.98	7.9e-05
