Infrared Spectrum: DIPHENYL TIN SULFIDE
Formula: C12 H10 S Sn
CAS: 20332-10-9
State: SOLID (KBr PELLET)
Class: COBLENTZ
Instrument: Not specified, most likely a prism, grating, or hybrid spectrometer.
Sampling: TRANSMISSION
Resolution: 4
Origin: TENNESSEE EASTMAN COMPANY, RESEARCH LABORATORIES
MICROMETERS	TRANSMITTANCE
2.055	0.555
2.09594	0.565
2.13687	0.576
2.17781	0.588
2.21874	0.603
2.25968	0.613
2.30061	0.618
2.34155	0.627
2.38248	0.632
2.42342	0.627
2.46435	0.617
2.50529	0.649
2.54623	0.654
2.58716	0.658
2.6281	0.671
2.66903	0.668
2.70997	0.641
2.7509	0.615
2.79184	0.6
2.83277	0.579
2.87371	0.55
2.91464	0.557
2.95558	0.603
2.99651	0.647
3.03745	0.673
3.07839	0.694
3.11932	0.711
3.16026	0.721
3.20119	0.719
3.24213	0.343
3.28306	0.524
3.324	0.618
3.36493	0.704
3.40587	0.733
3.4468	0.765
3.48774	0.784
3.52868	0.801
3.56961	0.81
3.61055	0.815
3.65148	0.82
3.69242	0.825
3.73335	0.829
3.77429	0.818
3.81522	0.829
3.85616	0.817
3.89709	0.832
3.93803	0.839
3.97896	0.851
4.0199	0.852
4.06084	0.861
4.10177	0.866
4.14271	0.868
4.18364	0.871
4.22458	0.851
4.26551	0.837
4.30645	0.842
4.34738	0.883
4.38832	0.89
4.42925	0.888
4.47019	0.9
4.51113	0.909
4.55206	0.914
4.593	0.916
4.63393	0.899
4.67487	0.923
4.7158	0.912
4.75674	0.923
4.79767	0.929
4.83861	0.928
4.87954	0.929
4.92048	0.928
4.96141	0.926
5.00235	0.899
5.04329	0.849
5.08422	0.818
5.12516	0.912
5.16609	0.928
5.20703	0.892
5.24796	0.849
5.2889	0.813
5.32983	0.911
5.37077	0.935
5.4117	0.912
5.45264	0.861
5.49358	0.813
5.53451	0.921
5.57545	0.935
5.61638	0.902
5.65732	0.899
5.69825	0.916
5.73919	0.907
5.78012	0.914
5.82106	0.911
5.86199	0.904
5.90293	0.9
5.94386	0.905
5.9848	0.902
6.02574	0.868
6.06667	0.815
6.10761	0.832
6.14854	0.858
6.18948	0.849
6.23041	0.888
6.27135	0.871
6.31228	0.676
6.35322	0.832
6.39415	0.89
6.43509	0.914
6.47603	0.929
6.51696	0.936
6.5579	0.938
6.59883	0.936
6.63977	0.952
6.6807	0.811
6.72164	0.307
6.76257	0.834
6.80351	0.912
6.84444	0.926
6.88538	0.928
6.92631	0.512
6.96725	0.104
7.00819	0.673
7.04912	0.837
7.09006	0.885
7.13099	0.899
7.17193	0.887
7.21286	0.842
7.2538	0.837
7.29473	0.899
7.33567	0.921
7.3766	0.943
7.41754	0.95
7.45848	0.887
7.49941	0.536
7.54035	0.864
7.58128	0.9
7.62222	0.794
7.66315	0.611
7.70409	0.731
7.74502	0.849
7.78596	0.912
7.82689	0.929
7.86783	0.899
7.90876	0.776
7.9497	0.846
7.99064	0.916
8.03157	0.935
8.07251	0.938
8.11344	0.95
8.15438	0.955
8.19531	0.953
8.23625	0.941
8.27718	0.938
8.31812	0.917
8.35905	0.707
8.39999	0.615
8.44093	0.794
8.48186	0.813
8.5228	0.861
8.56373	0.818
8.60467	0.745
8.6456	0.888
8.68654	0.919
8.72747	0.924
8.76841	0.924
8.80934	0.923
8.85028	0.923
8.89121	0.911
8.93215	0.9
8.97309	0.888
9.01402	0.875
9.05496	0.868
9.09589	0.858
9.13683	0.856
9.17776	0.866
9.2187	0.805
9.25963	0.394
9.30057	0.124
9.3415	0.456
9.38244	0.6
9.42338	0.777
9.46431	0.83
9.50525	0.868
9.54618	0.888
9.58712	0.897
9.62805	0.899
9.66899	0.895
9.70992	0.765
9.75086	0.406
9.79179	0.745
9.83273	0.854
9.87366	0.87
9.9146	0.899
9.95554	0.651
9.99647	0.148
10.0374	0.623
10.0783	0.851
10.1193	0.864
10.1602	0.923
10.2011	0.958
10.2421	0.957
10.283	0.921
10.324	0.919
10.3649	0.962
10.4058	0.986
10.4468	0.994
10.4877	0.996
10.5286	0.996
10.5696	0.994
10.6105	0.993
10.6514	0.994
10.6924	0.993
10.7333	0.993
10.7742	0.993
10.8152	0.991
10.8561	0.977
10.8971	0.873
10.938	0.849
10.9789	0.905
11.0199	0.977
11.0608	0.993
11.1017	0.994
11.1427	0.998
11.1836	0.998
11.2245	0.998
11.2655	0.996
11.3064	0.998
11.3473	0.998
11.3883	0.998
11.4292	0.998
11.4701	0.998
11.5111	0.996
11.552	0.996
11.593	0.989
11.6339	0.94
11.6748	0.856
11.7158	0.849
11.7567	0.941
11.7976	0.976
11.8386	0.991
11.8795	0.998
11.9204	0.998
11.9614	0.998
12.0023	0.993
12.0432	0.991
12.0842	0.989
12.1251	0.986
12.166	0.982
12.207	0.979
12.2479	0.974
12.2889	0.967
12.3298	0.96
12.3707	0.953
12.4117	0.95
12.4526	0.952
12.4935	0.958
12.5345	0.967
12.5754	0.972
12.6163	0.976
12.6573	0.979
12.6982	0.982
12.7391	0.982
12.7801	0.986
12.821	0.986
12.862	0.988
12.9029	0.986
12.9438	0.984
12.9848	0.981
13.0257	0.979
13.0666	0.979
13.1076	0.977
13.1485	0.974
13.1894	0.953
13.2304	0.917
13.2713	0.878
13.3122	0.82
13.3532	0.769
13.3941	0.699
13.435	0.594
13.476	0.369
13.5169	0.147
13.5579	0.088
13.5988	0.071
13.6397	0.049
13.6807	0.047
13.7216	0.051
13.7625	0.121
13.8035	0.259
13.8444	0.552
13.8853	0.676
13.9263	0.726
13.9672	0.748
14.0081	0.743
14.0491	0.704
14.09	0.63
14.1309	0.529
14.1719	0.403
14.2128	0.283
14.2538	0.181
14.2947	0.123
14.3356	0.088
14.3766	0.08
14.4175	0.1
14.4584	0.184
14.4994	0.316
14.5403	0.458
14.5812	0.594
14.6222	0.67
14.6631	0.714
14.704	0.735
14.745	0.747
14.7859	0.75
14.8269	0.745
14.8678	0.743
14.9087	0.745
14.9497	0.75
14.9906	0.765
15.0315	0.776
15.0725	0.767
15.1134	0.741
15.1543	0.728
15.1953	0.728
15.2362	0.753
15.2771	0.772
15.3181	0.786
15.359	0.791
15.3999	0.791
15.4409	0.791
15.4818	0.789
15.5228	0.782
15.5637	0.774
15.6046	0.765
15.6456	0.762
15.6865	0.753
15.7274	0.748
15.7684	0.745
15.8093	0.733
15.8502	0.724
15.8912	0.719
15.9321	0.714
15.973	0.716
16.014	0.716
