Infrared Spectrum: p-Pentylacetanilide
Formula: C 13 H 19 N O
CAS: 20330-52-3
State: gas
Origin: EPA-IR VAPOR PHASE LIBRARY
1/CM	ABSORBANCE
549.8	0.0106471
559.445	0.0059771
569.09	0.0036171
578.734	0.0022071
588.379	0.0019471
598.024	0.0026371
607.669	0.0035371
617.313	0.0040871
626.958	0.0039071
636.603	0.0038271
646.248	0.0042371
655.893	0.0027371
665.537	0.0017371
675.182	0.0014971
684.827	0.0013071
694.472	0.0013671
704.116	0.0012771
713.761	0.0017371
723.406	0.0019771
733.051	0.0024571
742.695	0.0022271
752.34	0.0026171
761.985	0.0031071
771.63	0.0037571
781.275	0.0043571
790.919	0.0059371
800.564	0.0069271
810.209	0.0081271
819.854	0.0087271
829.498	0.0102171
839.143	0.0104371
848.788	0.0077771
858.433	0.0045471
868.078	0.0028871
877.722	0.0024671
887.367	0.0025371
897.012	0.0026171
906.657	0.0027871
916.301	0.0026471
925.946	0.0023971
935.591	0.0029771
945.236	0.0028571
954.88	0.0029971
964.525	0.0041771
974.17	0.0062271
983.815	0.0087371
993.46	0.0088771
1003.1	0.0064171
1012.75	0.0068271
1022.39	0.0071171
1032.04	0.0045971
1041.68	0.0044271
1051.33	0.0046271
1060.97	0.0046271
1070.62	0.0042671
1080.26	0.0035571
1089.91	0.0031571
1099.55	0.0031971
1109.2	0.0037471
1118.84	0.0048371
1128.49	0.0038871
1138.13	0.0023771
1147.78	0.0020671
1157.42	0.0022971
1167.07	0.0025471
1176.71	0.0049871
1186.36	0.0083271
1196	0.0127871
1205.64	0.0179271
1215.29	0.0237971
1224.93	0.0297871
1234.58	0.0383771
1244.22	0.0384171
1253.87	0.0214271
1263.51	0.0191771
1273.16	0.0213871
1282.8	0.0281171
1292.45	0.0391371
1302.09	0.0464671
1311.74	0.0418071
1321.38	0.0234471
1331.03	0.0146071
1340.67	0.0122371
1350.32	0.0132971
1359.96	0.0215871
1369.61	0.0310671
1379.25	0.0252371
1388.9	0.0218971
1398.54	0.0317171
1408.18	0.0435671
1417.83	0.0242171
1427.47	0.0157971
1437.12	0.0150571
1446.76	0.0177671
1456.41	0.0218571
1466.05	0.0281871
1475.7	0.0381071
1485.34	0.0570371
1494.99	0.0758371
1504.63	0.0893371
1514.28	0.137337
1523.92	0.0668471
1533.57	0.0260571
1543.21	0.0155671
1552.86	0.0111871
1562.5	0.0091771
1572.15	0.0090271
1581.79	0.0124171
1591.44	0.0181271
1601.08	0.0160071
1610.73	0.0148871
1620.37	0.0104571
1630.01	0.0064071
1639.66	0.0050371
1649.3	0.0047971
1658.95	0.0053971
1668.59	0.0066271
1678.24	0.0091171
1687.88	0.0132371
1697.53	0.0223671
1707.17	0.0437971
1716.82	0.0978771
1726.46	0.0955271
1736.11	0.0562471
1745.75	0.0290871
1755.4	0.0161071
1765.04	0.0099071
1774.69	0.0066271
1784.33	0.0045371
1793.98	0.0031071
1803.62	0.0022671
1813.27	0.0019371
1822.91	0.0017271
1832.55	0.0016871
1842.2	0.0017071
1851.84	0.0017471
1861.49	0.0018371
1871.13	0.0019071
1880.78	0.0019571
1890.42	0.0019071
1900.07	0.0015671
1909.71	0.0013371
1919.36	0.0012071
1929	0.0010133
1938.65	0.0008504
1948.29	0.0006681
1957.94	0.000648
1967.58	0.0006651
1977.23	0.0005593
1986.87	0.0006089
1996.52	0.0005794
2006.16	0.0005964
2015.81	0.0006608
2025.45	0.0006603
2035.1	0.0005831
2044.74	0.0005629
2054.38	0.0005412
2064.03	0.0006674
2073.67	0.0006278
2083.32	0.0006074
2092.96	0.0005773
2102.61	0.0005424
2112.25	0.0004925
2121.9	0.000651
2131.54	0.0007475
2141.19	0.0006929
2150.83	0.0007158
2160.48	0.0007245
2170.12	0.0006766
2179.77	0.0004974
2189.41	0.000509
2199.06	0.0005359
2208.7	0.0004939
2218.35	0.0005306
2227.99	0.0005083
2237.64	0.0004746
2247.28	0.0004658
2256.92	0.0004116
2266.57	0.0003564
2276.21	0.0004753
2285.86	0.0005339
2295.5	0.0005797
2305.15	0.0007625
2314.79	0.0006544
2324.44	0.0006218
2334.08	0.0006298
2343.73	0.0006116
2353.37	0.0006378
2363.02	0.0006349
2372.66	0.0004818
2382.31	0.0003551
2391.95	0.000435
2401.6	0.0004626
2411.24	0.000596
2420.89	0.0005953
2430.53	0.0007247
2440.18	0.0007653
2449.82	0.0006222
2459.47	0.0007112
2469.11	0.0006419
2478.75	0.0004934
2488.4	0.0004989
2498.04	0.0004932
2507.69	0.0005022
2517.33	0.00059
2526.98	0.000562
2536.62	0.0005641
2546.27	0.0006359
2555.91	0.000632
2565.56	0.0006944
2575.2	0.000625
2584.85	0.000682
2594.49	0.0006233
2604.14	0.0006804
2613.78	0.0007246
2623.43	0.0008102
2633.07	0.0010471
2642.72	0.0009454
2652.36	0.0009151
2662.01	0.0010571
2671.65	0.0011571
2681.29	0.0011271
2690.94	0.0010571
2700.58	0.0011871
2710.23	0.0011671
2719.87	0.0013071
2729.52	0.0014071
2739.16	0.0015271
2748.81	0.0014171
2758.45	0.0013571
2768.1	0.0014371
2777.74	0.0014971
2787.39	0.0018871
2797.03	0.0022371
2806.68	0.0026671
2816.32	0.0033971
2825.97	0.0043371
2835.61	0.0058571
2845.26	0.0092271
2854.9	0.0174871
2864.55	0.0272671
2874.19	0.0261771
2883.84	0.0233071
2893.48	0.0198171
2903.12	0.0221371
2912.77	0.0307671
2922.41	0.0489871
2932.06	0.0722471
2941.7	0.0689171
2951.35	0.0443271
2960.99	0.0398371
2970.64	0.0408771
2980.28	0.0227371
2989.93	0.0135471
2999.57	0.0111871
3009.22	0.0107871
3018.86	0.0135971
3028.51	0.0171971
3038.15	0.0129471
3047.8	0.0111671
3057.44	0.0090371
3067.09	0.0063171
3076.73	0.0044971
3086.38	0.0039471
3096.02	0.0036471
3105.67	0.0034171
3115.31	0.0028771
3124.95	0.0022671
3134.6	0.0016271
3144.24	0.0011671
3153.89	0.0010971
3163.53	0.000857
3173.18	0.0007667
3182.82	0.0007041
3192.47	0.0006975
3202.11	0.0006126
3211.76	0.0004959
3221.4	0.0004635
3231.05	0.0003644
3240.69	0.0003129
3250.34	0.0003781
3259.98	0.0003012
3269.63	0.0004933
3279.27	0.0001637
3288.92	0.0003713
3298.56	0.000266
3308.21	0.0002361
3317.85	0.000417
3327.49	0.0003895
3337.14	0.0003068
3346.78	0.0003031
3356.43	0.0004111
3366.07	0.0005475
3375.72	0.0004996
3385.36	0.000811
3395.01	0.0011871
3404.65	0.0018871
3414.3	0.0030471
3423.94	0.0034771
3433.59	0.0033771
3443.23	0.0036471
3452.88	0.0044871
3462.52	0.0059171
3472.17	0.0048171
3481.81	0.0024471
3491.46	0.0013271
3501.1	0.0007719
3510.75	0.0006054
3520.39	0.00037
3530.04	0.0002642
3539.68	0.0002433
3549.32	0.0001859
3558.97	0.00011313
3568.61	0.0002371
3578.26	5.958e-05
3587.9	0.000226
3597.55	7.179e-05
3607.19	0.0002709
3616.84	0.00012707
3626.48	7.215e-05
3636.13	0.0001186
3645.77	0.00011839
3655.42	0.0001057
3665.06	0.0002152
3674.71	8.851e-05
3684.35	0.0002086
3694	0.000423
3703.64	0.0002231
3713.29	0.000326
3722.93	0.00013451
3732.58	5.406e-05
3742.22	0.00014392
3751.86	0.0001582
3761.51	0.0001942
3771.15	0.000281
3780.8	0.0002704
3790.44	0.0003259
3800.09	0.0004801
3809.73	0.0003822
3819.38	0.0002295
3829.02	0.00013876
3838.67	0.0003826
3848.31	0.0003688
3857.96	0.0005025
3867.6	0.000367
3877.25	0.0002511
3886.89	0.0002118
3896.54	0.0005311
3906.18	0.0004877
3915.83	0.0005314
3925.47	0.0004445
3935.12	0.00043
3944.76	0.0004271
3954.41	0.0004443
3964.05	0.0005919
3973.69	0.0004122
3983.34	0.0003747
3992.98	0.0003185
