Infrared Spectrum: Acetanilide, 4(2'-butyl)-
Formula: C12 H17 N O
CAS: 20331-25-3
State: SOLID (NUJOL MULL)
Class: COBLENTZ III
Instrument: BECKMAN IR-4 (HYBRID PRISM-GRATING)
Instrument parameters: NaCl PRISM
Sampling: TRANSMISSION
Resolution: 2
Origin: MONSANTO (J. FREEMAN)
1/CM	TRANSMITTANCE
626.382	0.8441
635.172	0.8461
643.962	0.8519
652.751	0.882
661.541	0.9199
670.331	0.9324
679.121	0.9384
687.911	0.9239
696.701	0.8928
705.49	0.8312
714.28	0.6848
723.07	0.5068
731.86	0.5684
740.65	0.4948
749.44	0.4009
758.229	0.3989
767.019	0.5119
775.809	0.6881
784.599	0.7738
793.389	0.8163
802.179	0.7684
810.968	0.844
819.758	0.631
828.548	0.1293
837.338	0.4224
846.128	0.537
854.917	0.8366
863.707	0.9126
872.497	0.9404
881.287	0.942
890.077	0.9345
898.867	0.9451
907.656	0.9413
916.446	0.9335
925.236	0.9275
934.026	0.8976
942.816	0.8305
951.606	0.8201
960.395	0.7248
969.185	0.5905
977.975	0.8487
986.765	0.8179
995.555	0.721
1004.34	0.6973
1013.13	0.6839
1021.92	0.7726
1030.71	0.7703
1039.5	0.7382
1048.29	0.8394
1057.08	0.8658
1065.87	0.8553
1074.66	0.9031
1083.45	0.9084
1092.24	0.8792
1101.03	0.9045
1109.82	0.8292
1118.61	0.9132
1127.4	0.9178
1136.19	0.8934
1144.98	0.8356
1153.77	0.8887
1162.56	0.8979
1171.35	0.8889
1180.14	0.7754
1188.93	0.9111
1197.72	0.9038
1206.51	0.8817
1215.3	0.8718
1224.09	0.8681
1232.88	0.8412
1241.67	0.8126
1250.46	0.808
1259.25	0.7562
1268.04	0.47
1276.83	0.628
1285.62	0.6507
1294.41	0.7195
1303.2	0.6101
1311.99	0.5244
1320.78	0.1328
1329.57	0.2351
1338.36	0.5501
1347.15	0.5052
1355.94	0.5792
1364.73	0.5351
1373.52	0.2906
1382.31	0.1784
1391.1	0.3803
1399.89	0.3064
1408.68	0.1249
1417.47	0.2397
1426.26	0.4881
1435.05	0.3787
1443.84	0.2451
1452.63	0.1082
1461.42	0.0771
1470.21	0.1467
1479	0.3035
1487.78	0.3822
1496.57	0.3401
1505.36	0.3473
1514.15	0.1897
1522.94	0.1766
1531.73	0.2083
1540.52	0.1615
1549.31	0.0847
1558.1	0.077
1566.89	0.4004
1575.68	0.64
1584.47	0.5792
1593.26	0.3706
1602.05	0.1053
1610.84	0.0516
1619.63	0.2017
1628.42	0.3998
1637.21	0.4524
1646	0.3827
1654.79	0.2502
1663.58	0.0144
1672.37	0.1099
1681.16	0.2568
1689.95	0.2876
1698.74	0.4523
1707.53	0.7687
1716.32	0.8646
1725.11	0.9207
1733.9	0.943
1742.69	0.9496
1751.48	0.9523
1760.27	0.9527
1769.06	0.9512
1777.85	0.9491
1786.64	0.9459
1795.43	0.9458
1804.22	0.9495
1813.01	0.9539
1821.8	0.9571
1830.59	0.9589
1839.38	0.9601
1848.17	0.9607
1856.96	0.9609
1865.75	0.9608
1874.54	0.9597
1883.33	0.9571
1892.12	0.948
1900.91	0.9204
1909.7	0.8744
1918.49	0.9336
1927.28	0.9506
1936.07	0.9547
1944.86	0.956
1953.65	0.9564
1962.44	0.9563
1971.23	0.9562
1980.02	0.9563
1988.8	0.9564
1997.59	0.9566
2006.38	0.9566
2015.17	0.9559
2023.96	0.9552
2032.75	0.9545
2041.54	0.9535
2050.33	0.9527
2059.12	0.9518
2067.91	0.9509
2076.7	0.95
2085.49	0.9489
2094.28	0.9479
2103.07	0.9469
2111.86	0.946
2120.65	0.9452
2129.44	0.9444
2138.23	0.9436
2147.02	0.943
2155.81	0.9423
2164.6	0.9411
2173.39	0.9398
2182.18	0.9386
2190.97	0.9374
2199.76	0.9364
2208.55	0.9356
2217.34	0.9347
2226.13	0.9339
2234.92	0.9331
2243.71	0.9318
2252.5	0.9306
2261.29	0.929
2270.08	0.927
2278.87	0.9249
2287.66	0.923
2296.45	0.9213
2305.24	0.9197
2314.03	0.9177
2322.82	0.9158
2331.61	0.9141
2340.4	0.9125
2349.19	0.911
2357.98	0.9098
2366.77	0.9088
2375.56	0.9079
2384.35	0.9071
2393.14	0.9064
2401.93	0.9063
2410.72	0.9066
2419.51	0.9086
2428.3	0.9099
2437.09	0.9105
2445.88	0.9108
2454.67	0.9096
2463.46	0.9084
2472.25	0.907
2481.04	0.9055
2489.83	0.904
2498.61	0.9024
2507.4	0.8999
2516.19	0.8976
2524.98	0.8951
2533.77	0.8919
2542.56	0.8876
2551.35	0.8835
2560.14	0.8783
2568.93	0.8722
2577.72	0.8677
2586.51	0.8643
2595.3	0.8608
2604.09	0.8565
2612.88	0.8524
2621.67	0.8467
2630.46	0.84
2639.25	0.8354
2648.04	0.8317
2656.83	0.8299
2665.62	0.8282
2674.41	0.8266
2683.2	0.8205
2691.99	0.8141
2700.78	0.8097
2709.57	0.8091
2718.36	0.8094
2727.15	0.8095
2735.94	0.8066
2744.73	0.7994
2753.52	0.7907
2762.31	0.7911
2771.1	0.7943
2779.89	0.7975
2788.68	0.796
2797.47	0.7903
2806.26	0.768
2815.05	0.7439
2823.84	0.702
2832.63	0.533
2841.42	0.3662
2850.21	0.2005
2859	0.0662
2867.79	0.0454
2876.58	0.0195
2885.37	0.0119
2894.16	0.0077
2902.95	0.0045
2911.74	0.0022
2920.53	0.0003
2929.32	0.0002
2938.11	0.0002
2946.9	0.0032
2955.69	0.0592
2964.48	0.1173
2973.27	0.1751
2982.06	0.2324
2990.85	0.2894
2999.63	0.346
3008.42	0.4023
3017.21	0.4497
3026	0.4657
3034.79	0.4737
3043.58	0.4762
3052.37	0.452
3061.16	0.4295
3069.95	0.4072
3078.74	0.389
3087.53	0.4048
3096.32	0.4364
3105.11	0.4541
3113.9	0.4077
3122.69	0.3463
3131.48	0.3208
3140.27	0.3692
3149.06	0.4174
3157.85	0.4487
3166.64	0.439
3175.43	0.3601
3184.22	0.3061
3193.01	0.306
3201.8	0.3336
3210.59	0.3597
3219.38	0.3152
3228.17	0.2239
3236.96	0.1645
3245.75	0.154
3254.54	0.1476
3263.33	0.1456
3272.12	0.1466
3280.91	0.1967
3289.7	0.2709
3298.49	0.3446
3307.28	0.418
3316.07	0.4909
3324.86	0.5634
3333.65	0.6357
3342.44	0.7075
3351.23	0.7745
3360.02	0.8032
3368.81	0.8216
3377.6	0.836
3386.39	0.845
3395.18	0.8524
3403.97	0.8587
3412.76	0.8643
3421.55	0.868
3430.34	0.8717
3439.13	0.8751
3447.92	0.8779
3456.71	0.8808
3465.5	0.8835
3474.29	0.8861
3483.08	0.8883
3491.87	0.8904
3500.66	0.892
3509.44	0.8934
3518.23	0.8948
3527.02	0.8963
3535.81	0.8977
3544.6	0.899
3553.39	0.8998
3562.18	0.9005
3570.97	0.9014
3579.76	0.9026
3588.55	0.9049
3597.34	0.9145
3606.13	0.9207
3614.92	0.9239
3623.71	0.9262
3632.5	0.9278
3641.29	0.9292
3650.08	0.9294
3658.87	0.9296
3667.66	0.9297
3676.45	0.9296
3685.24	0.9281
3694.03	0.9292
3702.82	0.929
3711.61	0.9288
3720.4	0.9284
3729.19	0.928
3737.98	0.9277
3746.77	0.9273
3755.56	0.9269
3764.35	0.9264
3773.14	0.9258
3781.93	0.9252
3790.72	0.9245
3799.51	0.9238
3808.3	0.9232
3817.09	0.9226
3825.88	0.9212
3834.67	0.9195
3843.46	0.9179
3852.25	0.9179
3861.04	0.9178
3869.83	0.9179
3878.62	0.9182
3887.41	0.9186
3896.2	0.919
3904.99	0.9194
3913.78	0.9198
