Infrared Spectrum: Dimethyl 5-chloroisophthalate
Formula: C 10 H 9 Cl O 4
CAS: 20330-90-9
State: gas
Origin: EPA-IR VAPOR PHASE LIBRARY
1/CM	ABSORBANCE
549.8	0.0009333
559.445	0.0007654
569.09	0.0007946
578.734	0.00047359
588.379	0.0008322
598.024	0.0003591
607.669	0.0008415
617.313	0.0006771
626.958	0.000829
636.603	0.0010755
646.248	0.001444
655.893	0.003324
665.537	0.007614
675.182	0.004384
684.827	0.002494
694.472	0.003294
704.116	0.006474
713.761	0.028394
723.406	0.036274
733.051	0.013604
742.695	0.031144
752.34	0.117544
761.985	0.087014
771.63	0.015654
781.275	0.006194
790.919	0.004614
800.564	0.004744
810.209	0.005584
819.854	0.007774
829.498	0.018244
839.143	0.037234
848.788	0.027454
858.433	0.013444
868.078	0.013354
877.722	0.011704
887.367	0.012024
897.012	0.019474
906.657	0.014764
916.301	0.006884
925.946	0.005854
935.591	0.005514
945.236	0.006034
954.88	0.011964
964.525	0.025114
974.17	0.039614
983.815	0.039604
993.46	0.057694
1003.1	0.092944
1012.75	0.045654
1022.39	0.014544
1032.04	0.008164
1041.68	0.006314
1051.33	0.006544
1060.97	0.007454
1070.62	0.009204
1080.26	0.011984
1089.91	0.024794
1099.55	0.052864
1109.2	0.057044
1118.84	0.043394
1128.49	0.043534
1138.13	0.059474
1147.78	0.068684
1157.42	0.047574
1167.07	0.033204
1176.71	0.035334
1186.36	0.047964
1196	0.063984
1205.64	0.085874
1215.29	0.174744
1224.93	0.397774
1234.58	0.638224
1244.22	0.587644
1253.87	0.325524
1263.51	0.122774
1273.16	0.077164
1282.8	0.086174
1292.45	0.183644
1302.09	0.333584
1311.74	0.281174
1321.38	0.090024
1331.03	0.037114
1340.67	0.026154
1350.32	0.020604
1359.96	0.017184
1369.61	0.015774
1379.25	0.016064
1388.9	0.017054
1398.54	0.017704
1408.18	0.020404
1417.83	0.030734
1427.47	0.052954
1437.12	0.087474
1446.76	0.090294
1456.41	0.034364
1466.05	0.019844
1475.7	0.014694
1485.34	0.011434
1494.99	0.009844
1504.63	0.009024
1514.28	0.008694
1523.92	0.008644
1533.57	0.010014
1543.21	0.010084
1552.86	0.011954
1562.5	0.017204
1572.15	0.030894
1581.79	0.044004
1591.44	0.025364
1601.08	0.014774
1610.73	0.011264
1620.37	0.008064
1630.01	0.006334
1639.66	0.005314
1649.3	0.005944
1658.95	0.007884
1668.59	0.009234
1678.24	0.010544
1687.88	0.011364
1697.53	0.017484
1707.17	0.037214
1716.82	0.044194
1726.46	0.044864
1736.11	0.102854
1745.75	0.451244
1755.4	0.420574
1765.04	0.098374
1774.69	0.032454
1784.33	0.044284
1793.98	0.034174
1803.62	0.015154
1813.27	0.010934
1822.91	0.010144
1832.55	0.009334
1842.2	0.008384
1851.84	0.006134
1861.49	0.005004
1871.13	0.004104
1880.78	0.003144
1890.42	0.002104
1900.07	0.001824
1909.71	0.001734
1919.36	0.001894
1929	0.002194
1938.65	0.002864
1948.29	0.003754
1957.94	0.004664
1967.58	0.005294
1977.23	0.004904
1986.87	0.003924
1996.52	0.003374
2006.16	0.003094
2015.81	0.002544
2025.45	0.002164
2035.1	0.001994
2044.74	0.002104
2054.38	0.002484
2064.03	0.002964
2073.67	0.003204
2083.32	0.003414
2092.96	0.003514
2102.61	0.003594
2112.25	0.003364
2121.9	0.002774
2131.54	0.002444
2141.19	0.002624
2150.83	0.002654
2160.48	0.002434
2170.12	0.002154
2179.77	0.001714
2189.41	0.0013426
2199.06	0.0012704
2208.7	0.001236
2218.35	0.0011104
2227.99	0.0010373
2237.64	0.0009063
2247.28	0.0008321
2256.92	0.0008713
2266.57	0.0008875
2276.21	0.0010158
2285.86	0.0012051
2295.5	0.0014004
2305.15	0.001454
2314.79	0.001514
2324.44	0.0013446
2334.08	0.0011163
2343.73	0.0012359
2353.37	0.001159
2363.02	0.0010541
2372.66	0.0011252
2382.31	0.0012931
2391.95	0.001295
2401.6	0.0012855
2411.24	0.0014139
2420.89	0.0012413
2430.53	0.0011683
2440.18	0.0011841
2449.82	0.0011182
2459.47	0.0010885
2469.11	0.0011081
2478.75	0.0011508
2488.4	0.0011666
2498.04	0.0011716
2507.69	0.0010707
2517.33	0.0012706
2526.98	0.001424
2536.62	0.001674
2546.27	0.0014237
2555.91	0.0010954
2565.56	0.0011458
2575.2	0.00128
2584.85	0.001684
2594.49	0.001904
2604.14	0.001804
2613.78	0.0014237
2623.43	0.001237
2633.07	0.0009553
2642.72	0.0009483
2652.36	0.0009795
2662.01	0.0009824
2671.65	0.0009936
2681.29	0.0008699
2690.94	0.0009435
2700.58	0.0008118
2710.23	0.0007606
2719.87	0.0009723
2729.52	0.0010547
2739.16	0.0010898
2748.81	0.0011422
2758.45	0.0009666
2768.1	0.0008748
2777.74	0.0009095
2787.39	0.0011537
2797.03	0.0011853
2806.68	0.001329
2816.32	0.001954
2825.97	0.002974
2835.61	0.005074
2845.26	0.011184
2854.9	0.013114
2864.55	0.007804
2874.19	0.006524
2883.84	0.007174
2893.48	0.008714
2903.12	0.011034
2912.77	0.012564
2922.41	0.012514
2932.06	0.011544
2941.7	0.014444
2951.35	0.032164
2960.99	0.090264
2970.64	0.050464
2980.28	0.015454
2989.93	0.013864
2999.57	0.018324
3009.22	0.019134
3018.86	0.014344
3028.51	0.014814
3038.15	0.013914
3047.8	0.009034
3057.44	0.006594
3067.09	0.006004
3076.73	0.007564
3086.38	0.010564
3096.02	0.007844
3105.67	0.004724
3115.31	0.003624
3124.95	0.002884
3134.6	0.002264
3144.24	0.001974
3153.89	0.001714
3163.53	0.001644
3173.18	0.001534
3182.82	0.001634
3192.47	0.0012942
3202.11	0.001076
3211.76	0.0009361
3221.4	0.0008052
3231.05	0.0007214
3240.69	0.0007222
3250.34	0.00052029
3259.98	0.0005429
3269.63	0.0005408
3279.27	0.000378
3288.92	0.00044526
3298.56	0.0006112
3308.21	0.0006835
3317.85	0.0005692
3327.49	0.0006189
3337.14	0.0006978
3346.78	0.0006698
3356.43	0.0008263
3366.07	0.0006662
3375.72	0.0007707
3385.36	0.0007392
3395.01	0.0008419
3404.65	0.0007798
3414.3	0.0008116
3423.94	0.000787
3433.59	0.0009459
3443.23	0.0012208
3452.88	0.0012245
3462.52	0.001954
3472.17	0.003804
3481.81	0.005534
3491.46	0.003314
3501.1	0.001584
3510.75	0.0013627
3520.39	0.0010653
3530.04	0.0006199
3539.68	0.0007765
3549.32	0.00048215
3558.97	0.0005843
3568.61	0.0006394
3578.26	0.00052312
3587.9	0.000299
3597.55	0.00041425
3607.19	0.00046996
3616.84	0.00050028
3626.48	0.00044287
3636.13	0
3645.77	0.00025
3655.42	0.000263
3665.06	0.000273
3674.71	0.000233
3684.35	0.000312
3694	0.00049209
3703.64	0.000231
3713.29	0.0005127
3722.93	0.0004495
3732.58	0.0003722
3742.22	0.00044435
3751.86	0.0003566
3761.51	0.0004113
3771.15	0.00045957
3780.8	0.00041659
3790.44	0.000669
3800.09	0.00044608
3809.73	0.0005307
3819.38	0.0005789
3829.02	0.000658
3838.67	0.00046259
3848.31	0.00048235
3857.96	0.0005841
3867.6	0.0004012
3877.25	0.00050139
3886.89	0.0005722
3896.54	0.00049276
3906.18	0.000399
3915.83	0.0006391
3925.47	0.0006883
3935.12	0.0005812
3944.76	0.0009203
3954.41	0.0007273
3964.05	0.0008121
3973.69	0.0008493
3983.34	0.0008341
3992.98	0.0007492
