Infrared Spectrum: VALERIC ACID, 5-HYDROXY HYDRAZIDE
Formula: C5 H12 N2 O2
CAS: 2034-25-5
State: SOLID (NUJOL MULL)
Class: COBLENTZ
Instrument: Not specified, most likely a prism, grating, or hybrid spectrometer.
Sampling: TRANSMISSION
Resolution: 4
Origin: TENNESSEE EASTMAN COMPANY, RESEARCH LABORATORIES
MICROMETERS	TRANSMITTANCE
2.055	0.95
2.09594	0.952
2.13687	0.955
2.17781	0.957
2.21874	0.955
2.25968	0.952
2.30061	0.943
2.34155	0.94
2.38248	0.941
2.42342	0.945
2.46435	0.95
2.50529	0.958
2.54622	0.969
2.58716	0.979
2.62809	0.982
2.66903	0.989
2.70996	0.993
2.7509	1
2.79183	1.001
2.83277	1.001
2.87371	0.998
2.91464	0.945
2.95558	0.827
2.99651	0.716
3.03745	0.335
3.07838	0.425
3.11932	0.586
3.16025	0.553
3.20119	0.505
3.24212	0.562
3.28306	0.586
3.32399	0.588
3.36493	0.266
3.40586	0.063
3.4468	0.066
3.48773	0.117
3.52867	0.152
3.5696	0.683
3.61054	0.769
3.65148	0.764
3.69241	0.779
3.73335	0.81
3.77428	0.82
3.81522	0.849
3.85615	0.847
3.89709	0.846
3.93802	0.897
3.97896	0.907
4.01989	0.921
4.06083	0.933
4.10176	0.948
4.1427	0.95
4.18363	0.957
4.22457	0.967
4.2655	0.986
4.30644	0.996
4.34737	0.994
4.38831	0.981
4.42924	0.982
4.47018	0.986
4.51112	0.988
4.55205	0.986
4.59299	0.988
4.63392	0.988
4.67486	0.989
4.71579	0.989
4.75673	0.991
4.79766	0.998
4.8386	1
4.87953	0.998
4.92047	0.998
4.9614	1.001
5.00234	1
5.04327	1
5.08421	1
5.12514	1
5.16608	1
5.20701	1.001
5.24795	1.001
5.28889	1.003
5.32982	1.005
5.37076	1.005
5.41169	1.005
5.45263	1.005
5.49356	1.003
5.5345	1.001
5.57543	0.998
5.61637	0.989
5.6573	0.974
5.69824	0.967
5.73917	0.96
5.78011	0.938
5.82104	0.911
5.86198	0.88
5.90291	0.815
5.94385	0.748
5.98478	0.652
6.02572	0.497
6.06666	0.394
6.10759	0.249
6.14853	0.237
6.18946	0.358
6.2304	0.523
6.27133	0.62
6.31227	0.68
6.3532	0.726
6.39414	0.748
6.43507	0.654
6.47601	0.512
6.51694	0.569
6.55788	0.69
6.59881	0.755
6.63975	0.76
6.68068	0.755
6.72162	0.704
6.76255	0.557
6.80349	0.353
6.84443	0.329
6.88536	0.427
6.9263	0.562
6.96723	0.683
7.00817	0.745
7.0491	0.788
7.09004	0.8
7.13097	0.798
7.17191	0.709
7.21284	0.526
7.25378	0.439
7.29471	0.562
7.33565	0.642
7.37658	0.733
7.41752	0.758
7.45845	0.748
7.49939	0.747
7.54032	0.789
7.58126	0.789
7.62219	0.767
7.66313	0.748
7.70407	0.735
7.745	0.777
7.78594	0.76
7.82687	0.685
7.86781	0.789
7.90874	0.825
7.94968	0.832
7.99061	0.752
8.03155	0.723
8.07248	0.798
8.11342	0.801
8.15435	0.76
8.19529	0.81
8.23622	0.83
8.27716	0.839
8.31809	0.846
8.35903	0.842
8.39996	0.811
8.4409	0.793
8.48184	0.823
8.52277	0.837
8.56371	0.841
8.60464	0.839
8.64558	0.835
8.68651	0.835
8.72745	0.847
8.76838	0.866
8.80932	0.878
8.85025	0.882
8.89119	0.882
8.93212	0.883
8.97306	0.883
9.01399	0.883
9.05493	0.878
9.09586	0.858
9.1368	0.858
9.17773	0.858
9.21867	0.83
9.25961	0.735
9.30054	0.584
9.34148	0.586
9.38241	0.702
9.42335	0.765
9.46428	0.752
9.50522	0.649
9.54615	0.704
9.58709	0.765
9.62802	0.682
9.66896	0.528
9.70989	0.588
9.75083	0.707
9.79176	0.794
9.8327	0.827
9.87363	0.839
9.91457	0.851
9.9555	0.859
9.99644	0.852
10.0374	0.779
10.0783	0.753
10.1192	0.798
10.1602	0.8
10.2011	0.794
10.2421	0.769
10.283	0.733
10.3239	0.699
10.3649	0.694
10.4058	0.705
10.4467	0.735
10.4877	0.786
10.5286	0.818
10.5695	0.837
10.6105	0.847
10.6514	0.858
10.6923	0.864
10.7333	0.873
10.7742	0.88
10.8151	0.887
10.8561	0.897
10.897	0.897
10.938	0.899
10.9789	0.902
11.0198	0.907
11.0608	0.911
11.1017	0.911
11.1426	0.911
11.1836	0.911
11.2245	0.911
11.2654	0.911
11.3064	0.911
11.3473	0.911
11.3882	0.911
11.4292	0.912
11.4701	0.914
11.511	0.916
11.552	0.916
11.5929	0.916
11.6339	0.916
11.6748	0.916
11.7157	0.914
11.7567	0.911
11.7976	0.911
11.8385	0.909
11.8795	0.909
11.9204	0.905
11.9613	0.904
12.0023	0.902
12.0432	0.902
12.0841	0.902
12.1251	0.899
12.166	0.899
12.2069	0.897
12.2479	0.895
12.2888	0.894
12.3297	0.89
12.3707	0.887
12.4116	0.88
12.4526	0.864
12.4935	0.854
12.5344	0.851
12.5754	0.849
12.6163	0.847
12.6572	0.841
12.6982	0.832
12.7391	0.827
12.78	0.82
12.821	0.806
12.8619	0.798
12.9028	0.789
12.9438	0.781
12.9847	0.776
13.0256	0.769
13.0666	0.764
13.1075	0.757
13.1485	0.757
13.1894	0.755
13.2303	0.757
13.2713	0.757
13.3122	0.755
13.3531	0.733
13.3941	0.687
13.435	0.673
13.4759	0.675
13.5169	0.683
13.5578	0.685
13.5987	0.688
13.6397	0.719
13.6806	0.738
13.7215	0.743
13.7625	0.745
13.8034	0.745
13.8444	0.748
13.8853	0.755
13.9262	0.755
13.9672	0.762
14.0081	0.76
14.049	0.758
14.09	0.758
14.1309	0.753
14.1718	0.747
14.2128	0.741
14.2537	0.729
14.2946	0.719
14.3356	0.711
14.3765	0.694
14.4174	0.676
14.4584	0.656
14.4993	0.637
14.5403	0.615
14.5812	0.605
14.6221	0.601
14.6631	0.6
14.704	0.601
14.7449	0.61
14.7859	0.625
14.8268	0.647
14.8677	0.663
14.9087	0.673
14.9496	0.687
14.9905	0.704
15.0315	0.714
15.0724	0.716
15.1133	0.714
15.1543	0.712
15.1952	0.712
15.2362	0.714
15.2771	0.714
15.318	0.714
15.359	0.714
15.3999	0.712
15.4408	0.716
15.4818	0.714
15.5227	0.714
15.5636	0.714
15.6046	0.714
15.6455	0.714
15.6864	0.714
15.7274	0.714
15.7683	0.716
15.8092	0.714
15.8502	0.712
15.8911	0.716
15.9321	0.712
15.973	0.716
