Infrared Spectrum: IMIDAZOLE, 2,4,5-TRIBROMO-
Formula: C3 H Br3 N2
CAS: 2034-22-2
State: SOLID (SPLIT MULL)
Class: COBLENTZ III
Instrument: DOW KBr FOREPRISM-GRATING
Instrument parameters: BLAZED AT 3.5, 12.0, 20.0 MICRON AND CHANGED AT 5.0, 7.5, 14.9 MICRON
Sampling: TRANSMISSION
Resolution: 2
Origin: DOW CHEMICAL COMPANY
1/CM	TRANSMITTANCE
381	0.9785
390	0.9734
399	0.9645
408	0.9536
417	0.9438
426	0.9355
435	0.9216
444	0.9271
453	0.9111
462	0.9315
471	0.9357
480	0.9374
489	0.9373
498	0.9335
507	0.8517
516	0.8261
525	0.9407
534	0.9463
543	0.9501
552	0.9528
561	0.9548
570	0.9565
579	0.9595
588	0.9611
597	0.9613
606	0.9655
615	0.9611
624	0.9405
633	0.9645
642	0.9585
651	0.8987
660	0.7558
669	0.9588
678	0.9547
687	0.9481
696	0.9367
705	0.9141
714	0.8459
723	0.8221
732	0.8605
741	0.8711
750	0.87
759	0.8632
768	0.8531
777	0.8407
786	0.8228
795	0.7996
804	0.7725
813	0.7442
822	0.7038
831	0.6587
840	0.6518
849	0.7043
858	0.7621
867	0.8065
876	0.8371
885	0.8488
894	0.854
903	0.8561
912	0.8338
921	0.863
930	0.8716
939	0.8616
948	0.8302
957	0.7889
966	0.753
975	0.3155
984	0.6776
993	0.8367
1002	0.2765
1011	0.9064
1020	0.9065
1029	0.9191
1038	0.9365
1047	0.9336
1056	0.9277
1065	0.9202
1074	0.9158
1083	0.9217
1092	0.9215
1101	0.909
1110	0.9028
1119	0.9035
1128	0.8898
1137	0.8711
1146	0.846
1155	0.8157
1164	0.7696
1173	0.6789
1182	0.3639
1191	0.57
1200	0.7042
1209	0.7747
1218	0.8737
1227	0.8708
1236	0.8612
1245	0.851
1254	0.8223
1263	0.8352
1272	0.8056
1281	0.7391
1290	0.4681
1299	0.4071
1308	0.7508
1317	0.7591
1326	0.7851
1335	0.7768
1344	0.7648
1353	0.823
1362	0.8057
1371	0.7768
1380	0.6575
1389	0.1932
1398	0.3405
1407	0.9134
1416	0.8991
1425	0.8912
1434	0.8151
1443	0.6614
1452	0.8694
1461	0.9737
1470	0.9946
1479	0.9889
1488	0.9706
1497	0.9502
1506	0.8902
1515	0.8232
1524	0.4497
1533	0.463
1542	0.7165
1551	0.9441
1560	0.9813
1569	1.0087
1578	1.0175
1587	1.0053
1596	0.9932
1605	0.9798
1614	0.9647
1623	0.946
1632	0.925
1641	0.9316
1650	0.915
1659	0.9332
1668	0.936
1677	0.9367
1686	0.9449
1695	0.94
1704	0.9532
1713	0.9433
1722	0.9616
1731	0.9706
1740	0.9766
1749	0.9798
1758	0.9851
1767	0.987
1776	0.9884
1785	0.9844
1794	0.9933
1803	0.998
1812	0.9975
1821	0.9959
1830	0.9945
1839	0.995
1848	0.9949
1857	0.9933
1866	0.9917
1875	0.9939
1884	0.9893
1893	0.9947
1902	0.9938
1911	0.9928
1920	0.9933
1929	0.9928
1938	0.9911
1947	0.9953
1956	1.0725
1965	0.9675
1974	0.9633
1983	0.9614
1992	0.9618
2001	0.9554
2010	0.9518
2019	0.9675
2028	0.9418
2037	0.9295
2046	0.9225
2055	0.915
2064	0.9077
2073	0.9005
2082	0.8932
2091	0.8858
2100	0.8801
2109	0.876
2118	0.8712
2127	0.8645
2136	0.857
2145	0.8493
2154	0.8418
2163	0.8341
2172	0.8266
2181	0.8189
2190	0.8114
2199	0.8037
2208	0.7961
2217	0.7886
2226	0.781
2235	0.7734
2244	0.7658
2253	0.7582
2262	0.7506
2271	0.743
2280	0.7354
2289	0.7271
2298	0.7195
2307	0.7121
2316	0.7041
2325	0.6961
2334	0.688
2343	0.6764
2352	0.6635
2361	0.6608
2370	0.6575
2379	0.6468
2388	0.6385
2397	0.6284
2406	0.6143
2415	0.627
2424	0.6421
2433	0.637
2442	0.6302
2451	0.6239
2460	0.6142
2469	0.6038
2478	0.5931
2487	0.5816
2496	0.572
2505	0.5621
2514	0.5419
2523	0.5217
2532	0.5036
2541	0.4846
2550	0.4645
2559	0.4412
2568	0.4057
2577	0.3766
2586	0.352
2595	0.3245
2604	0.3065
2613	0.3055
2622	0.3152
2631	0.3192
2640	0.3507
2649	0.3814
2658	0.3884
2667	0.3843
2676	0.3682
2685	0.3428
2694	0.3135
2703	0.3008
2712	0.309
2721	0.3004
2730	0.3117
2739	0.3225
2748	0.3019
2757	0.2735
2766	0.2447
2775	0.2171
2784	0.1908
2793	0.1672
2802	0.1485
2811	0.1684
2820	0.2176
2829	0.2361
2838	0.242
2847	0.2691
2856	0.3139
2865	0.3384
2874	0.3343
2883	0.3049
2892	0.2615
2901	0.2235
2910	0.2111
2919	0.2187
2928	0.2813
2937	0.356
2946	0.4319
2955	0.4209
2964	0.3529
2973	0.2849
2982	0.2294
2991	0.2058
3000	0.2024
3009	0.2197
3018	0.272
3027	0.3257
3036	0.3938
3045	0.38
3054	0.3445
3063	0.3288
3072	0.3318
3081	0.3642
3090	0.3999
3099	0.4368
3108	0.4804
3117	0.5416
3126	0.5862
3135	0.621
3144	0.6415
3153	0.6593
3162	0.6758
3171	0.6921
3180	0.7078
3189	0.7224
3198	0.7365
3207	0.7494
3216	0.7594
3225	0.7667
3234	0.771
3243	0.774
3252	0.7751
3261	0.7746
3270	0.7733
3279	0.7708
3288	0.7675
3297	0.7642
3306	0.7608
3315	0.7574
3324	0.7538
3333	0.7499
3342	0.7461
3351	0.7428
3360	0.74
3369	0.7369
3378	0.7344
3387	0.7321
3396	0.7301
3405	0.7278
3414	0.7253
3423	0.7228
3432	0.7206
3441	0.7186
3450	0.7167
3459	0.7146
3468	0.7125
3477	0.7106
3486	0.7088
3495	0.7075
3504	0.7065
3513	0.7053
3522	0.704
3531	0.7025
3540	0.7011
3549	0.7
3558	0.699
3567	0.6978
3576	0.6962
3585	0.6939
3594	0.6951
3603	0.6958
3612	0.6953
3621	0.6967
3630	0.6962
3639	0.6928
3648	0.6949
3657	0.6961
3666	0.6941
3675	0.6951
3684	0.6975
3693	0.6961
3702	0.6958
3711	0.6971
3720	0.6949
3729	0.6911
3738	0.6898
3747	0.6918
3756	0.6958
3765	0.6965
3774	0.6928
3783	0.6875
3792	0.6807
