Infrared Spectrum: cis-2-Decene
Formula: C 10 H 20
CAS: 20348-51-0
State: gas
Instrument: HP-GC/MS/IRD
Origin: NIST Mass Spectrometry Data Center
1/CM	ABSORBANCE
550	0.0005512
562	4.68e-05
574	0.0001664
586	0.000299
598	0.0003848
610	0.0004758
622	0.000468
634	0.0005434
646	0.0008346
658	0.0011778
670	0.001534
682	0.00221
694	0.002444
706	0.0020618
718	0.0015444
730	0.0012376
742	0.0009386
754	0.0007202
766	0.0007124
778	0.0006136
790	0.000637
802	0.0005746
814	0.000637
826	0.0006656
838	0.0005772
850	0.0005096
862	0.000507
874	0.0005824
886	0.0005642
898	0.0005876
910	0.0006838
922	0.0006994
934	0.0006682
946	0.0007852
958	0.0007254
970	0.000728
982	0.000767
994	0.0007072
1006	0.0007566
1018	0.00078
1030	0.000741
1042	0.000637
1054	0.000559
1066	0.0005512
1078	0.0004992
1090	0.0004706
1102	0.0005044
1114	0.0004758
1126	0.0005148
1138	0.000429
1150	0.0004446
1162	0.0003744
1174	0.0004264
1186	0.0004186
1198	0.0003952
1210	0.00039
1222	0.0004004
1234	0.0004316
1246	0.0004888
1258	0.0006214
1270	0.000624
1282	0.0006734
1294	0.0007358
1306	0.000832
1318	0.0008892
1330	0.0009594
1342	0.0010712
1354	0.0011804
1366	0.0012012
1378	0.0012948
1390	0.0012792
1402	0.0014326
1414	0.0013312
1426	0.0011518
1438	0.0015522
1450	0.0022542
1462	0.002535
1474	0.001833
1486	0.0010816
1498	0.0007384
1510	0.0005616
1522	0.0005226
1534	0.0005356
1546	0.0004758
1558	0.0003848
1570	0.0004056
1582	0.0004004
1594	0.0003926
1606	0.0003744
1618	0.0003848
1630	0.000468
1642	0.0005772
1654	0.0006526
1666	0.0005642
1678	0.000416
1690	0.000364
1702	0.0002522
1714	0.00026
1726	0.0002548
1738	0.0002132
1750	0.0002132
1762	0.0002184
1774	0.0001872
1786	0.0001924
1798	0.0002054
1810	0.0002002
1822	0.0001898
1834	0.0001794
1846	0.0001768
1858	0.0001872
1870	0.000182
1882	0.000169
1894	0.0001794
1906	0.000195
1918	0.0001768
1930	0.0001742
1942	0.0001742
1954	0.0001794
1966	0.0001664
1978	0.0001716
1990	0.0001924
2002	0.000208
2014	0.0001794
2026	0.0001716
2038	0.000156
2050	0.000156
2062	0.0001326
2074	0.000117
2086	0.0001248
2098	0.0001248
2110	0.0001118
2122	0.0001222
2134	0.0001404
2146	0.0001092
2158	0.000117
2170	0.0001014
2182	9.62e-05
2194	0.000104
2206	0.0001144
2218	0.0001274
2230	9.88e-05
2242	0.0001092
2254	9.88e-05
2266	8.32e-05
2278	0.0001144
2290	9.88e-05
2302	9.1e-05
2314	0.0001248
2326	6.76e-05
2338	0.0001118
2350	8.32e-05
2362	6.76e-05
2374	9.62e-05
2386	8.84e-05
2398	6.5e-05
2410	1.82e-05
2422	6.76e-05
2434	6.76e-05
2446	3.12e-05
2458	7.8e-05
2470	4.42e-05
2482	7.54e-05
2494	9.62e-05
2506	0.000104
2518	9.62e-05
2530	9.1e-05
2542	0.0001274
2554	0.000104
2566	7.8e-05
2578	0.000143
2590	0.0001352
2602	0.0001586
2614	0.0001508
2626	0.000169
2638	0.0002132
2650	0.0002366
2662	0.0002574
2674	0.0003094
2686	0.000299
2698	0.0003068
2710	0.0003198
2722	0.0003224
2734	0.000429
2746	0.0004784
2758	0.0004628
2770	0.0004836
2782	0.0006266
2794	0.0007696
2806	0.0010192
2818	0.0013754
2830	0.0020072
2842	0.0035724
2854	0.0072488
2866	0.0101556
2878	0.0092404
2890	0.0080262
2902	0.0091052
2914	0.0141856
2926	0.0234676
2938	0.0247598
2950	0.0163124
2962	0.0125294
2974	0.0099736
2986	0.0053976
2998	0.0038168
3010	0.004303
3022	0.0054704
3034	0.0038428
3046	0.0021684
3058	0.0013312
3070	0.0010244
3082	0.0008268
3094	0.0006006
3106	0.000442
3118	0.0003952
3130	0.0003432
3142	0.0002626
3154	0.000247
3166	0.0002184
3178	0.0001742
3190	0.0001742
3202	0.0001716
3214	0.0001326
3226	0.000143
3238	0.000104
3250	9.36e-05
3262	0.000117
3274	7.28e-05
3286	0.0001326
3298	8.32e-05
3310	0.0001222
3322	9.88e-05
3334	0.0001222
3346	8.32e-05
3358	0.0001248
3370	8.32e-05
3382	0.0001196
3394	0.0001248
3406	0.0001404
3418	9.88e-05
3430	0.000117
3442	0.0001066
3454	8.84e-05
3466	6.76e-05
3478	2.86e-05
3490	8.84e-05
3502	3.9e-05
3514	5.72e-05
3526	4.68e-05
3538	5.98e-05
3550	0.0001222
3562	9.88e-05
3574	7.54e-05
3586	0.0001066
3598	9.62e-05
3610	8.58e-05
3622	0.000104
3634	9.62e-05
3646	4.42e-05
3658	8.58e-05
3670	5.2e-05
3682	0.0001456
3694	0.0001508
3706	0.0001196
3718	0.0001066
3730	0.0001222
3742	8.06e-05
3754	9.36e-05
3766	7.54e-05
3778	0.0001144
3790	0.0001326
3802	0.0001144
3814	0.0001352
3826	0.0001196
3838	0.0001196
