Infrared Spectrum: 2H-Pyrido[3,2,b]-1,4-oxazin-3[4H]-one
Formula: C 7 H 6 N 2 O 2
CAS: 20348-09-8
State: gas
Origin: EPA-IR VAPOR PHASE LIBRARY
1/CM	ABSORBANCE
549.8	0.0019331
559.445	0.0016878
569.09	0.000406
578.734	0.0009437
588.379	0.0023
598.024	0.0016496
607.669	0.00221
617.313	0.00319
626.958	0.00357
636.603	0.0034
646.248	0.00206
655.893	0.0019434
665.537	0.001323
675.182	0.001175
684.827	0.0010796
694.472	0.00104767
704.116	0.0013998
713.761	0.0009759
723.406	0.0009249
733.051	0.0017233
742.695	0.00209
752.34	0.00261
761.985	0.00202
771.63	0.00126
781.275	0.00268
790.919	0.003
800.564	0.0017187
810.209	0.000853
819.854	0.0011933
829.498	0.000773
839.143	0.000649
848.788	0.000577
858.433	0.0012949
868.078	0.00105012
877.722	0.000861
887.367	0.0018203
897.012	0.0011889
906.657	0.0014185
916.301	0.0009165
925.946	0.0013704
935.591	5.5e-05
945.236	0.000529
954.88	0.000899
964.525	0.000642
974.17	0.0009427
983.815	0.000702
993.46	0.0012541
1003.1	0.000887
1012.75	0.0013883
1022.39	0.0013777
1032.04	0.00264
1041.68	0.0019681
1051.33	0.00295
1060.97	0.00253
1070.62	0.0016161
1080.26	0.000881
1089.91	0.000718
1099.55	0.0012656
1109.2	0.0012016
1118.84	0.0009718
1128.49	0.0016256
1138.13	0.0012746
1147.78	0.0017664
1157.42	0.0013163
1167.07	0.0016488
1176.71	0.00328
1186.36	0.00489
1196	0.00551
1205.64	0.00316
1215.29	0.00327
1224.93	0.00277
1234.58	0.00434
1244.22	0.0034
1253.87	0.00342
1263.51	0.00513
1273.16	0.00808
1282.8	0.0084
1292.45	0.00443
1302.09	0.00331
1311.74	0.00399
1321.38	0.00559
1331.03	0.01
1340.67	0.0132
1350.32	0.01087
1359.96	0.00576
1369.61	0.00314
1379.25	0.00259
1388.9	0.00286
1398.54	0.00459
1408.18	0.00594
1417.83	0.00442
1427.47	0.00276
1437.12	0.00343
1446.76	0.00513
1456.41	0.01112
1466.05	0.01763
1475.7	0.02164
1485.34	0.01665
1494.99	0.00655
1504.63	0.0026
1514.28	0.0019415
1523.92	0.0018008
1533.57	0.0017688
1543.21	0.0012737
1552.86	0.001433
1562.5	0.0015711
1572.15	0.0017873
1581.79	0.00225
1591.44	0.00378
1601.08	0.00477
1610.73	0.00373
1620.37	0.0019909
1630.01	0.0014439
1639.66	0.0013449
1649.3	0.001307
1658.95	0.0012085
1668.59	0.0012808
1678.24	0.0013957
1687.88	0.0019427
1697.53	0.00269
1707.17	0.00334
1716.82	0.00558
1726.46	0.01295
1736.11	0.02596
1745.75	0.02744
1755.4	0.01527
1765.04	0.00947
1774.69	0.00705
1784.33	0.00466
1793.98	0.0034
1803.62	0.00291
1813.27	0.00222
1822.91	0.0019272
1832.55	0.0018103
1842.2	0.0013757
1851.84	0.0013747
1861.49	0.0011992
1871.13	0.0012355
1880.78	0.0012833
1890.42	0.00105474
1900.07	0.0009693
1909.71	0.001147
1919.36	0.0011619
1929	0.0011751
1938.65	0.0009796
1948.29	0.00109987
1957.94	0.00101387
1967.58	0.0010256
1977.23	0.0009376
1986.87	0.0009
1996.52	0.000905
2006.16	0.000842
2015.81	0.0009214
2025.45	0.00100084
2035.1	0.000974
2044.74	0.00105591
2054.38	0.0012019
2064.03	0.000817
2073.67	0.0011609
2083.32	0.00100675
2092.96	0.0009509
2102.61	0.00078
2112.25	0.0009565
2121.9	0.00108012
2131.54	0.000814
2141.19	0.00108781
2150.83	0.000877
2160.48	0.0009706
2170.12	0.000817
2179.77	0.000708
2189.41	0.0009281
2199.06	0.000919
2208.7	0.0009767
2218.35	0.000839
2227.99	0.0009197
2237.64	0.00110472
2247.28	0.00107931
2256.92	0.0009345
2266.57	0.000904
2276.21	0.000654
2285.86	0.000718
2295.5	0.0009573
2305.15	0.000706
2314.79	0.00103186
2324.44	0.000812
2334.08	0.000782
2343.73	0.0009285
2353.37	0.000702
2363.02	0.00104707
2372.66	0.00105975
2382.31	0.000864
2391.95	0.000833
2401.6	0.000906
2411.24	0.00102063
2420.89	0.000828
2430.53	0.00106312
2440.18	0.00100664
2449.82	0.000672
2459.47	0.00108177
2469.11	0.00106641
2478.75	0.000834
2488.4	0.0009995
2498.04	0.000872
2507.69	0.000809
2517.33	0.00088
2526.98	0.00092
2536.62	0.000674
2546.27	0.00109647
2555.91	0.000846
2565.56	0.000702
2575.2	0.0009837
2584.85	0.0009621
2594.49	0.000684
2604.14	0.0009526
2613.78	0.000779
2623.43	0.0009967
2633.07	0.000736
2642.72	0.00108479
2652.36	0.000821
2662.01	0.000415
2671.65	0.000751
2681.29	0.0009552
2690.94	0.000711
2700.58	0.00104604
2710.23	0.000714
2719.87	0.0011199
2729.52	0.001214
2739.16	0.0009239
2748.81	0.0009167
2758.45	0.000991
2768.1	0.000773
2777.74	0.000886
2787.39	0.0009598
2797.03	0.00061
2806.68	0.0012846
2816.32	0.000875
2825.97	0.000825
2835.61	0.000884
2845.26	0.000889
2854.9	0.00108904
2864.55	0.0012548
2874.19	0.0014789
2883.84	0.0013171
2893.48	0.0015988
2903.12	0.0015783
2912.77	0.0014865
2922.41	0.0009963
2932.06	0.00101624
2941.7	0.0009189
2951.35	0.00106349
2960.99	0.000886
2970.64	0.00108995
2980.28	0.0009749
2989.93	0.0011151
2999.57	0.0009281
3009.22	0.0009326
3018.86	0.00103115
3028.51	0.0012851
3038.15	0.00102672
3047.8	0.0013985
3057.44	0.0017393
3067.09	0.0019362
3076.73	0.0017056
3086.38	0.0015969
3096.02	0.0014319
3105.67	0.00064
3115.31	0.000689
3124.95	0.000574
3134.6	0.0009369
3144.24	0.000776
3153.89	0.000786
3163.53	0.00084
3173.18	0.0009458
3182.82	0.000668
3192.47	0.000658
3202.11	0.000814
3211.76	0.000418
3221.4	0.0009702
3231.05	0.000546
3240.69	0.000836
3250.34	0.000311
3259.98	9.5e-05
3269.63	0.0009316
3279.27	0.0010792
3288.92	0.00106055
3298.56	0.000288
3308.21	0.00102534
3317.85	0.000473
3327.49	0.000685
3337.14	0.0011551
3346.78	0.000764
3356.43	0.000872
3366.07	0.000722
3375.72	0.000483
3385.36	0.000619
3395.01	0.00105162
3404.65	0.0014734
3414.3	0.00217
3423.94	0.00321
3433.59	0.00362
3443.23	0.0023
3452.88	0.00104627
3462.52	0.000932
3472.17	0.0013453
3481.81	0.0009721
3491.46	0.000718
3501.1	0.0009571
3510.75	0.000694
3520.39	0.0009992
3530.04	0.000712
3539.68	0.0011706
3549.32	0.000736
3558.97	0.000573
3568.61	0.00105354
3578.26	0.000837
3587.9	0.000697
3597.55	0.00066
3607.19	0.000599
3616.84	0.0009806
3626.48	0.000673
3636.13	0.0009276
3645.77	0.000536
3655.42	0.000702
3665.06	0.000848
3674.71	0.000718
3684.35	0.00058
3694	0.000626
3703.64	0.000862
3713.29	0.000826
3722.93	0.000682
3732.58	0.000737
3742.22	0.000628
3751.86	0.0009649
3761.51	0.000624
3771.15	0.000394
3780.8	0.000417
3790.44	0.000395
3800.09	0.000836
3809.73	0.00100339
3819.38	0.000672
3829.02	0.000281
3838.67	0.000529
3848.31	0.000823
3857.96	0.000878
3867.6	0.00110974
3877.25	0.000673
3886.89	0.000721
3896.54	0.0009
3906.18	0.0012485
3915.83	0.000817
3925.47	0.000807
3935.12	0.000552
3944.76	0.000999
3954.41	0.00110489
3964.05	0.000757
3973.69	0.0009979
3983.34	0.000821
3992.98	0.00103301
