Infrared Spectrum: trans-1,3-Dimethyl-2-methylenecyclohexane
Formula: C 9 H 16
CAS: 20348-74-7
State: gas
Instrument: HP-GC/MS/IRD
Origin: NIST Mass Spectrometry Data Center
1/CM	ABSORBANCE
550	0.000301
562	0.0002485
574	0.0001155
586	0.0001295
598	0.000294
610	0.0006055
622	0.0007665
634	0.0008575
646	0.000791
658	0.0005215
670	0.0004655
682	0.0003395
694	0.000434
706	0.000434
718	0.000336
730	0.000238
742	0.000252
754	0.000245
766	0.00021
778	0.000245
790	0.0002835
802	0.000392
814	0.00056
826	0.000658
838	0.0005215
850	0.000525
862	0.000714
874	0.002184
886	0.005726
898	0.006139
910	0.002653
922	0.000749
934	0.000679
946	0.0008085
958	0.0007665
970	0.000826
982	0.0008295
994	0.000616
1006	0.0004235
1018	0.000301
1030	0.000399
1042	0.0006475
1054	0.0006545
1066	0.0004445
1078	0.000651
1090	0.0006265
1102	0.0004445
1114	0.000336
1126	0.000294
1138	0.000357
1150	0.000448
1162	0.000434
1174	0.000378
1186	0.0004515
1198	0.000539
1210	0.0003535
1222	0.0002765
1234	0.0004515
1246	0.0004725
1258	0.000399
1270	0.000315
1282	0.000329
1294	0.000455
1306	0.000693
1318	0.000721
1330	0.000546
1342	0.000574
1354	0.0008435
1366	0.001771
1378	0.0027195
1390	0.0019635
1402	0.001204
1414	0.001127
1426	0.0014035
1438	0.002436
1450	0.0038115
1462	0.004207
1474	0.0027125
1486	0.0010605
1498	0.000469
1510	0.0003325
1522	0.000273
1534	0.000308
1546	0.000287
1558	0.0002555
1570	0.0002345
1582	0.0002835
1594	0.0003675
1606	0.0005915
1618	0.001211
1630	0.002583
1642	0.0031255
1654	0.001764
1666	0.0005425
1678	0.000238
1690	0.0001855
1702	0.0001645
1714	0.000175
1726	0.0001575
1738	0.000154
1750	0.000147
1762	0.000161
1774	0.0002555
1786	0.000469
1798	0.00049
1810	0.0002835
1822	0.0001225
1834	7.7e-05
1846	8.05e-05
1858	5.95e-05
1870	6.3e-05
1882	5.25e-05
1894	6.3e-05
1906	5.6e-05
1918	5.6e-05
1930	3.5e-05
1942	5.6e-05
1954	4.9e-05
1966	5.6e-05
1978	3.85e-05
1990	7.35e-05
2002	6.3e-05
2014	4.2e-05
2026	2.45e-05
2038	3.15e-05
2050	3.85e-05
2062	7e-06
2074	3.85e-05
2086	3.5e-05
2098	1.05e-05
2110	2.8e-05
2122	1.75e-05
2134	1.75e-05
2146	3.5e-05
2158	3.5e-05
2170	4.9e-05
2182	4.2e-05
2194	3.85e-05
2206	1.05e-05
2218	1.75e-05
2230	2.1e-05
2242	2.8e-05
2254	5.6e-05
2266	2.8e-05
2278	6.3e-05
2290	5.95e-05
2302	4.55e-05
2314	4.9e-05
2326	5.6e-05
2338	4.2e-05
2350	5.95e-05
2362	6.3e-05
2374	7.7e-05
2386	7.7e-05
2398	6.65e-05
2410	7.7e-05
2422	7.35e-05
2434	8.05e-05
2446	9.45e-05
2458	9.1e-05
2470	9.8e-05
2482	8.4e-05
2494	9.45e-05
2506	0.0001085
2518	0.000112
2530	0.000126
2542	0.0001295
2554	0.000154
2566	0.000189
2578	0.000252
2590	0.000266
2602	0.000252
2614	0.000266
2626	0.000259
2638	0.000287
2650	0.0003535
2662	0.000413
2674	0.0004165
2686	0.000378
2698	0.0003115
2710	0.0003535
2722	0.0003815
2734	0.00042
2746	0.000406
2758	0.0004235
2770	0.000497
2782	0.000595
2794	0.000742
2806	0.000812
2818	0.0010115
2830	0.001449
2842	0.003108
2854	0.007273
2866	0.0112315
2878	0.01148
2890	0.010087
2902	0.0116445
2914	0.0197225
2926	0.029939
2938	0.030996
2950	0.020244
2962	0.017381
2974	0.016793
2986	0.0090265
2998	0.00399
3010	0.002072
3022	0.001155
3034	0.0009695
3046	0.0009345
3058	0.0010815
3070	0.0016695
3082	0.00301
3094	0.002772
3106	0.001064
3118	0.0004725
3130	0.000357
3142	0.0003325
3154	0.0003045
3166	0.0003255
3178	0.0003115
3190	0.00028
3202	0.0002625
3214	0.000217
3226	0.0002275
3238	0.000182
3250	0.0001715
3262	0.000182
3274	0.000168
3286	0.0001435
3298	0.0001715
3310	0.000133
3322	8.75e-05
3334	0.0001155
3346	8.4e-05
3358	3.85e-05
3370	7.35e-05
3382	7e-05
3394	5.25e-05
3406	8.4e-05
3418	0.0001015
3430	6.3e-05
3442	8.4e-05
3454	2.1e-05
3466	4.55e-05
3478	4.9e-05
3490	2.45e-05
3502	8.05e-05
3514	4.55e-05
3526	7e-05
3538	7e-05
3550	9.1e-05
3562	7.7e-05
3574	6.65e-05
3586	3.5e-05
3598	9.45e-05
3610	4.2e-05
3622	8.05e-05
3634	3.85e-05
3646	3.85e-05
3658	5.95e-05
3670	6.65e-05
3682	8.4e-05
3694	8.05e-05
3706	7e-05
3718	5.95e-05
3730	8.4e-05
3742	7.7e-05
3754	0.000119
3766	0.0001295
3778	9.45e-05
3790	0.000112
3802	0.000126
3814	0.0001365
3826	5.25e-05
3838	8.05e-05
