Infrared Spectrum: 2-Methoxydibenzofuran
Formula: C 13 H 10 O 2
CAS: 20357-70-4
State: gas
Instrument: HP-GC/MS/IRD
Origin: NIST Mass Spectrometry Data Center
1/CM	ABSORBANCE
550	0.0003799
562	0.0005104
574	0.0001508
586	0.0001508
598	0.000493
610	0.0013775
622	0.0032799
634	0.0012035
646	0.0005249
658	0.0002378
670	0.0001769
682	0.000203
694	0.0001189
706	0.0006496
718	0.0028884
730	0.0045588
742	0.0086826
754	0.0060581
766	0.0013195
778	0.0010208
790	0.0030131
802	0.0064844
814	0.0057246
826	0.0029116
838	0.0051678
850	0.0035148
862	0.0036453
874	0.0018096
886	0.001102
898	0.0004785
910	0.0003074
922	0.0004031
934	0.000319
946	0.0002465
958	0.0002668
970	0.000406
982	0.0006583
994	0.0010585
1006	0.00232
1018	0.0043616
1030	0.005162
1042	0.005162
1054	0.0024998
1066	0.00116
1078	0.0008149
1090	0.001131
1102	0.0038599
1114	0.003248
1126	0.0017458
1138	0.0025491
1150	0.0064119
1162	0.0171999
1174	0.0201666
1186	0.025491
1198	0.0187862
1210	0.0063481
1222	0.0076415
1234	0.0075632
1246	0.0041325
1258	0.0044312
1270	0.0108953
1282	0.0065308
1294	0.0048227
1306	0.0028594
1318	0.002291
1330	0.0014645
1342	0.0009106
1354	0.0005626
1366	0.000493
1378	0.0004727
1390	0.0005829
1402	0.0009976
1414	0.001682
1426	0.0044921
1438	0.0116986
1450	0.0118523
1462	0.0108373
1474	0.0209525
1486	0.0258129
1498	0.0062002
1510	0.0016762
1522	0.0010469
1534	0.0008062
1546	0.0007105
1558	0.0007424
1570	0.0012528
1582	0.0025114
1594	0.0037062
1606	0.0027927
1618	0.0018154
1630	0.002117
1642	0.001682
1654	0.0007279
1666	0.0005481
1678	0.0004959
1690	0.0004089
1702	0.0003016
1714	0.0002987
1726	0.0004495
1738	0.0004292
1750	0.0002668
1762	0.0003422
1774	0.0004147
1786	0.0002262
1798	0.0002117
1810	0.0003277
1822	0.0002813
1834	0.0003103
1846	0.0004843
1858	0.0005858
1870	0.0003045
1882	0.0004118
1894	0.0004495
1906	0.0002059
1918	0.0004002
1930	0.0004901
1942	0.0001943
1954	0.0001769
1966	0.000116
1978	0.0001131
1990	0.0001363
2002	0.0001537
2014	0.0002117
2026	0.000261
2038	0.0003074
2050	0.0003712
2062	0.000377
2074	0.0003654
2086	0.0002465
2098	0.0001392
2110	0.0001044
2122	6.96e-05
2134	6.67e-05
2146	6.09e-05
2158	7.83e-05
2170	6.38e-05
2182	5.8e-05
2194	7.25e-05
2206	9.28e-05
2218	7.83e-05
2230	6.67e-05
2242	6.38e-05
2254	6.96e-05
2266	6.67e-05
2278	8.12e-05
2290	0.0001276
2302	0.0001247
2314	9.28e-05
2326	7.54e-05
2338	3.48e-05
2350	6.96e-05
2362	8.99e-05
2374	0.0001102
2386	8.7e-05
2398	0.0001073
2410	0.0001247
2422	0.0001653
2434	0.0002146
2446	0.0002001
2458	0.000174
2470	0.0001885
2482	0.0001682
2494	0.0001218
2506	0.0001131
2518	9.86e-05
2530	8.12e-05
2542	6.09e-05
2554	6.09e-05
2566	3.77e-05
2578	6.67e-05
2590	8.7e-05
2602	9.86e-05
2614	0.0001102
2626	0.0001566
2638	0.0001595
2650	9.57e-05
2662	7.25e-05
2674	8.41e-05
2686	6.96e-05
2698	8.12e-05
2710	9.28e-05
2722	9.86e-05
2734	0.0001073
2746	8.12e-05
2758	0.0001102
2770	0.0001914
2782	0.0002697
2794	0.000348
2806	0.0004814
2818	0.0007569
2830	0.0014616
2842	0.0025346
2854	0.0015138
2866	0.0010962
2878	0.0011484
2890	0.0013688
2902	0.0017226
2914	0.0022997
2926	0.0024766
2938	0.0031842
2950	0.0038628
2962	0.0027376
2974	0.0017023
2986	0.0015747
2998	0.0029087
3010	0.0033901
3022	0.0014877
3034	0.0013746
3046	0.0020416
3058	0.0029899
3070	0.0035728
3082	0.0032828
3094	0.0021721
3106	0.0011194
3118	0.0004466
3130	0.0002552
3142	0.0001885
3154	0.0001392
3166	0.0001566
3178	0.0001189
3190	7.54e-05
3202	7.54e-05
3214	5.8e-05
3226	8.7e-05
3238	8.7e-05
3250	5.22e-05
3262	4.35e-05
3274	4.64e-05
3286	2.61e-05
3298	3.19e-05
3310	4.64e-05
3322	2.9e-05
3334	3.48e-05
3346	2.9e-05
3358	8.12e-05
3370	1.45e-05
3382	3.19e-05
3394	2.32e-05
3406	8.41e-05
3418	4.64e-05
3430	5.8e-05
3442	5.8e-05
3454	5.22e-05
3466	4.64e-05
3478	5.22e-05
3490	6.09e-05
3502	9.28e-05
3514	4.93e-05
3526	4.35e-05
3538	4.64e-05
3550	6.67e-05
3562	7.54e-05
3574	6.96e-05
3586	8.7e-05
3598	0.0001044
3610	8.41e-05
3622	5.8e-05
3634	3.77e-05
3646	7.25e-05
3658	0.0001102
3670	9.57e-05
3682	0.0001015
3694	0.0001102
3706	0.0001102
3718	0.0001044
3730	8.12e-05
3742	0.0001015
3754	8.12e-05
3766	0.0001044
3778	0.0001276
3790	0.0001044
3802	0.000116
3814	8.99e-05
3826	0.0001131
3838	0.000116
