Infrared Spectrum: 6-Nitroveratraldehyde
Formula: C 9 H 9 N O 5
CAS: 20357-25-9
State: gas
Origin: EPA-IR VAPOR PHASE LIBRARY
1/CM	ABSORBANCE
549.8	0.00197303
559.445	0.00198303
569.09	0.00239303
578.734	0.00295303
588.379	0.00339303
598.024	0.00417303
607.669	0.00443303
617.313	0.00350303
626.958	0.00251303
636.603	0.00175303
646.248	0.00146303
655.893	0.00108303
665.537	0.00115303
675.182	0.00098033
684.827	0.00107303
694.472	0.00111303
704.116	0.00129303
713.761	0.00247303
723.406	0.00494303
733.051	0.00691303
742.695	0.00607303
752.34	0.00434303
761.985	0.00359303
771.63	0.00352303
781.275	0.00668303
790.919	0.00949303
800.564	0.00571303
810.209	0.00278303
819.854	0.00191303
829.498	0.00170303
839.143	0.00156303
848.788	0.00248303
858.433	0.00450303
868.078	0.00678303
877.722	0.00763303
887.367	0.00576303
897.012	0.00443303
906.657	0.00288303
916.301	0.00159303
925.946	0.00130303
935.591	0.00129303
945.236	0.00154303
954.88	0.00205303
964.525	0.00269303
974.17	0.00410303
983.815	0.00426303
993.46	0.00461303
1003.1	0.00478303
1012.75	0.00659303
1022.39	0.010413
1032.04	0.011503
1041.68	0.00952303
1051.33	0.013153
1060.97	0.026923
1070.62	0.025523
1080.26	0.00938303
1089.91	0.00372303
1099.55	0.00214303
1109.2	0.00263303
1118.84	0.00197303
1128.49	0.00251303
1138.13	0.00491303
1147.78	0.010433
1157.42	0.014303
1167.07	0.010573
1176.71	0.00845303
1186.36	0.00882303
1196	0.010173
1205.64	0.016293
1215.29	0.030243
1224.93	0.039423
1234.58	0.025533
1244.22	0.015143
1253.87	0.017263
1263.51	0.025323
1273.16	0.051683
1282.8	0.077483
1292.45	0.055933
1302.09	0.026983
1311.74	0.018293
1321.38	0.020873
1331.03	0.031893
1340.67	0.044093
1350.32	0.038273
1359.96	0.022853
1369.61	0.015783
1379.25	0.018823
1388.9	0.022783
1398.54	0.015063
1408.18	0.00812303
1417.83	0.00592303
1427.47	0.00645303
1437.12	0.010333
1446.76	0.013003
1456.41	0.011783
1466.05	0.015063
1475.7	0.014413
1485.34	0.016973
1494.99	0.030963
1504.63	0.047023
1514.28	0.044433
1523.92	0.036143
1533.57	0.049973
1543.21	0.056573
1552.86	0.034173
1562.5	0.028063
1572.15	0.032633
1581.79	0.026843
1591.44	0.016923
1601.08	0.016593
1610.73	0.015263
1620.37	0.00839303
1630.01	0.00481303
1639.66	0.00383303
1649.3	0.00353303
1658.95	0.00366303
1668.59	0.00402303
1678.24	0.00460303
1687.88	0.00803303
1697.53	0.026273
1707.17	0.046113
1716.82	0.023163
1726.46	0.00855303
1736.11	0.00532303
1745.75	0.00347303
1755.4	0.00274303
1765.04	0.00220303
1774.69	0.00180303
1784.33	0.00152303
1793.98	0.00136303
1803.62	0.00127303
1813.27	0.00114303
1822.91	0.00108303
1832.55	0.00096043
1842.2	0.00094833
1851.84	0.00083443
1861.49	0.00072313
1871.13	0.00069193
1880.78	0.00066453
1890.42	0.00067233
1900.07	0.00061663
1909.71	0.00055993
1919.36	0.00054423
1929	0.00053933
1938.65	0.00051453
1948.29	0.00058173
1957.94	0.00065513
1967.58	0.00065433
1977.23	0.00079543
1986.87	0.00080043
1996.52	0.00095603
2006.16	0.00119303
2015.81	0.00124303
2025.45	0.00129303
2035.1	0.00125303
2044.74	0.00109303
2054.38	0.00100303
2064.03	0.00090573
2073.67	0.00083043
2083.32	0.00063663
2092.96	0.00056053
2102.61	0.00053203
2112.25	0.00049513
2121.9	0.00044563
2131.54	0.00040913
2141.19	0.00033663
2150.83	0.00035663
2160.48	0.00040003
2170.12	0.00043343
2179.77	0.00036093
2189.41	0.00039933
2199.06	0.00045153
2208.7	0.00041253
2218.35	0.00043663
2227.99	0.00040113
2237.64	0.00035453
2247.28	0.00037713
2256.92	0.00046833
2266.57	0.00048063
2276.21	0.00050453
2285.86	0.00041323
2295.5	0.00046023
2305.15	0.00039343
2314.79	0.00042493
2324.44	0.00032383
2334.08	0.00037783
2343.73	0.00029583
2353.37	0.00028513
2363.02	0.00029263
2372.66	0.00032313
2382.31	0.00038013
2391.95	0.00039973
2401.6	0.00046963
2411.24	0.00035233
2420.89	0.00044963
2430.53	0.00038923
2440.18	0.00045583
2449.82	0.00031983
2459.47	0.00035603
2469.11	0.00030103
2478.75	0.00034413
2488.4	0.00038773
2498.04	0.00031953
2507.69	0.00029113
2517.33	0.00031553
2526.98	0.00028913
2536.62	0.00045683
2546.27	0.00059793
2555.91	0.00060613
2565.56	0.00068133
2575.2	0.00077123
2584.85	0.00082153
2594.49	0.00093313
2604.14	0.00121303
2613.78	0.00132303
2623.43	0.00131303
2633.07	0.00122303
2642.72	0.00102303
2652.36	0.00103303
2662.01	0.00096873
2671.65	0.00086573
2681.29	0.00097183
2690.94	0.00079653
2700.58	0.00073853
2710.23	0.00076623
2719.87	0.00094453
2729.52	0.00100303
2739.16	0.00113303
2748.81	0.00134303
2758.45	0.00148303
2768.1	0.00156303
2777.74	0.00161303
2787.39	0.00169303
2797.03	0.00151303
2806.68	0.00169303
2816.32	0.00206303
2825.97	0.00286303
2835.61	0.00410303
2845.26	0.00566303
2854.9	0.00768303
2864.55	0.00752303
2874.19	0.00595303
2883.84	0.00642303
2893.48	0.00741303
2903.12	0.00754303
2912.77	0.00683303
2922.41	0.00671303
2932.06	0.00683303
2941.7	0.010223
2951.35	0.012513
2960.99	0.010003
2970.64	0.00928303
2980.28	0.00737303
2989.93	0.00500303
2999.57	0.00476303
3009.22	0.00626303
3018.86	0.00824303
3028.51	0.00520303
3038.15	0.00255303
3047.8	0.00188303
3057.44	0.00161303
3067.09	0.00177303
3076.73	0.00165303
3086.38	0.00199303
3096.02	0.00198303
3105.67	0.00151303
3115.31	0.00099453
3124.95	0.00084193
3134.6	0.00066813
3144.24	0.00083983
3153.89	0.00061183
3163.53	0.00043573
3173.18	0.00041363
3182.82	0.00050173
3192.47	0.00032553
3202.11	0.00026903
3211.76	0.00040863
3221.4	0.00037463
3231.05	0.00032833
3240.69	0.00030403
3250.34	0.00031393
3259.98	0.00031313
3269.63	0.00013303
3279.27	0.00016173
3288.92	0.00038993
3298.56	0.00028293
3308.21	0.00013703
3317.85	0.00020063
3327.49	4.507e-05
3337.14	0.00017673
3346.78	5.473e-05
3356.43	0.00025283
3366.07	0.00035753
3375.72	0.00053093
3385.36	0.00107303
3395.01	0.00121303
3404.65	0.00080983
3414.3	0.00044263
3423.94	0.00025063
3433.59	0.00023543
3443.23	0.00040363
3452.88	0.00045963
3462.52	0.00027663
3472.17	0.00027833
3481.81	0.00044193
3491.46	0.00039043
3501.1	0.00039073
3510.75	0.00033543
3520.39	0.00035063
3530.04	0.00028103
3539.68	0.00023893
3549.32	0.00028623
3558.97	0.00036143
3568.61	8.761e-05
3578.26	0.00034833
3587.9	0.00018993
3597.55	0.00020983
3607.19	0.00046303
3616.84	0.00032333
3626.48	0.00023293
3636.13	0.00015063
3645.77	0.00015943
3655.42	0.00025933
3665.06	0.00042143
3674.71	0.00030483
3684.35	0.00031983
3694	0.00038213
3703.64	0.00039743
3713.29	0.00013563
3722.93	0.00045973
3732.58	0.00015953
3742.22	0.00014173
3751.86	0.00036953
3761.51	0.00047273
3771.15	0.00023263
3780.8	6.8e-05
3790.44	0.00011213
3800.09	0.00021903
3809.73	0.00027253
3819.38	1.522e-05
3829.02	0.00015113
3838.67	0.00023983
3848.31	0.00017603
3857.96	0.00019673
3867.6	0.00032833
3877.25	0.00038363
3886.89	0.00030383
3896.54	0.00019083
3906.18	0.00032103
3915.83	0.00020873
3925.47	0.00031523
3935.12	0.00014633
3944.76	0.00048513
3954.41	0.00013583
3964.05	0.00031463
3973.69	0.00046763
3983.34	0.00044003
3992.98	0.00034423
