Infrared Spectrum: Toluene-d8
Formula: C 7 D 8
CAS: 2037-26-5
State: gas
Instrument: HP-GC/MS/IRD
Origin: NIST Mass Spectrometry Data Center
1/CM	ABSORBANCE
550	0.0192648
562	0.0193062
574	0.003979
586	0.0021206
598	0.0026726
610	0.001564
622	0.0008464
634	0.0001242
646	9.2e-06
658	7.36e-05
670	0.0002484
682	0.0004002
694	0.0007406
706	0.0018584
718	0.002001
730	0.0012144
742	0.0003082
754	0.000437
766	0.0009844
778	0.0014214
790	0.0015962
802	0.0025024
814	0.0054418
826	0.0070702
838	0.0064722
850	0.0052624
862	0.002185
874	0.0016146
886	0.0015364
898	0.0010166
910	0.0007268
922	0.0008142
934	0.0008786
946	0.0009476
958	0.0010902
970	0.001265
982	0.0015824
994	0.0018584
1006	0.0021252
1018	0.0023828
1030	0.0026174
1042	0.0032062
1054	0.0034362
1066	0.0031004
1078	0.0027278
1090	0.0024518
1102	0.0020654
1114	0.00184
1126	0.0015732
1138	0.0013662
1150	0.0014214
1162	0.0022724
1174	0.0026404
1186	0.0022724
1198	0.0014306
1210	0.0007728
1222	0.0003266
1234	0.0006716
1246	0.001334
1258	0.0014582
1270	0.0011408
1282	0.0011132
1294	0.0010626
1306	0.0011408
1318	0.0016238
1330	0.0014122
1342	0.0013386
1354	0.0022632
1366	0.0063204
1378	0.0136482
1390	0.0124476
1402	0.0064124
1414	0.0020194
1426	0.0022218
1438	0.0021436
1450	0.00161
1462	0.0009338
1474	0.0009614
1486	0.0012282
1498	0.001173
1510	0.0011454
1522	0.0010534
1534	0.0019366
1546	0.004324
1558	0.0073416
1570	0.0110216
1582	0.0114678
1594	0.0075992
1606	0.0032752
1618	0.0017986
1630	0.0013662
1642	0.0007866
1654	0.0007452
1666	0.0007038
1678	0.000667
1690	0.000483
1702	0.0003128
1714	0.0001334
1726	0.0001242
1738	0.0001564
1750	0.0002806
1762	0.0003496
1774	0.0002438
1786	0.0001334
1798	8.28e-05
1810	9.66e-05
1822	0.0001104
1834	0.000161
1846	0.0001886
1858	0.000345
1870	0.0004738
1882	0.0004646
1894	0.000345
1906	0.0001886
1918	0.0001104
1930	0.0001104
1942	9.66e-05
1954	9.2e-05
1966	0.0001426
1978	0.0001794
1990	0.0002254
2002	0.0003174
2014	0.0004738
2026	0.0009752
2038	0.002254
2050	0.0041032
2062	0.0040664
2074	0.0033764
2086	0.0044758
2098	0.0051474
2110	0.006463
2122	0.0102396
2134	0.0097244
2146	0.004531
2158	0.0031786
2170	0.0044114
2182	0.0062422
2194	0.0087078
2206	0.0110308
2218	0.0110676
2230	0.01265
2242	0.015617
2254	0.0253874
2266	0.0397762
2278	0.0440634
2290	0.0385618
2302	0.0186024
2314	0.0056718
2326	0.0018262
2338	0.0011132
2350	0.0009476
2362	0.0012098
2374	0.001817
2386	0.002093
2398	0.001656
2410	0.0011132
2422	0.0008832
2434	0.0006624
2446	0.0004738
2458	0.000253
2470	0.000138
2482	0.0001104
2494	0.0001104
2506	9.2e-05
2518	0.0001288
2530	0.0001472
2542	0.0002024
2554	0.000161
2566	0.000138
2578	0.0001518
2590	0.0001104
2602	0.0001472
2614	0.0001104
2626	0.000115
2638	9.2e-05
2650	5.98e-05
2662	5.98e-05
2674	5.52e-05
2686	2.76e-05
2698	3.22e-05
2710	4.6e-06
2722	5.52e-05
2734	8.28e-05
2746	0.0001104
2758	9.66e-05
2770	0.0001058
2782	9.66e-05
2794	0.000115
2806	0.0001656
2818	0.0002208
2830	0.0002254
2842	0.00023
2854	0.0002346
2866	0.0002576
2878	0.000276
2890	0.0001978
2902	0.0001748
2914	0.0001794
2926	0.0002116
2938	0.0002622
2950	0.0003312
2962	0.0003174
2974	0.0003036
2986	0.0003542
2998	0.000368
3010	0.0002852
3022	0.0002162
3034	0.0003588
3046	0.00046
3058	0.0005198
3070	0.0004922
3082	0.0004002
3094	0.0002392
3106	0.0003174
3118	0.0003542
3130	0.0003726
3142	0.0004232
3154	0.000391
3166	0.0003404
3178	0.0002806
3190	0.0003312
3202	0.0005842
3214	0.001012
3226	0.001288
3238	0.0010718
3250	0.0005566
3262	0.0004738
3274	0.000391
3286	0.0004048
3298	0.0004324
3310	0.000391
3322	0.00023
3334	0.0001334
3346	0.0001472
3358	0.0001012
3370	9.66e-05
3382	6.44e-05
3394	2.76e-05
3406	0.0001012
3418	0.0001104
3430	0.0002392
3442	0.0002484
3454	0.0001978
3466	0.000161
3478	9.66e-05
3490	1.38e-05
3502	0.0001012
3514	4.6e-05
3526	5.98e-05
3538	4.6e-05
3550	0.0001196
3562	4.14e-05
3574	6.9e-05
3586	5.98e-05
3598	0.0001472
3610	0.0001288
3622	0.0001426
3634	0.0001334
3646	0.0001012
3658	0.0001702
3670	0.0001288
3682	0.0001012
3694	0.0001104
3706	0.0001426
3718	0.000115
3730	6.44e-05
3742	0.0001058
3754	0.0001656
3766	0.0001794
3778	0.0002576
3790	0.000437
3802	0.0005198
3814	0.0005796
3826	0.000529
3838	0.0003082
