Infrared Spectrum: N,N-Diisopropylbenzamide
Formula: C 13 H 19 N O
CAS: 20383-28-2
State: gas
Origin: EPA-IR VAPOR PHASE LIBRARY
1/CM	ABSORBANCE
549.8	0.0006846
559.445	0.001415
569.09	0.003495
578.734	0.002275
588.379	0.0009114
598.024	0.001425
607.669	0.003915
617.313	0.003665
626.958	0.001595
636.603	0.001028
646.248	0.0008425
655.893	0.0010929
665.537	0.002135
675.182	0.005025
684.827	0.007155
694.472	0.015335
704.116	0.015595
713.761	0.005145
723.406	0.004135
733.051	0.004675
742.695	0.003965
752.34	0.005015
761.985	0.006405
771.63	0.004635
781.275	0.004195
790.919	0.002495
800.564	0.0008675
810.209	0.0006233
819.854	0.001245
829.498	0.002715
839.143	0.003405
848.788	0.001265
858.433	0.0009782
868.078	0.001355
877.722	0.0009233
887.367	0.001145
897.012	0.001415
906.657	0.002115
916.301	0.001935
925.946	0.001835
935.591	0.0008535
945.236	0.0006563
954.88	0.0004147
964.525	0.0004185
974.17	0.0005786
983.815	0.0008497
993.46	0.0009659
1003.1	0.001125
1012.75	0.003285
1022.39	0.009275
1032.04	0.008575
1041.68	0.006365
1051.33	0.003405
1060.97	0.002855
1070.62	0.003615
1080.26	0.005225
1089.91	0.007395
1099.55	0.005965
1109.2	0.004325
1118.84	0.005605
1128.49	0.008075
1138.13	0.008055
1147.78	0.009215
1157.42	0.010365
1167.07	0.008965
1176.71	0.007575
1186.36	0.008275
1196	0.009055
1205.64	0.010585
1215.29	0.009635
1224.93	0.006395
1234.58	0.005055
1244.22	0.003325
1253.87	0.002675
1263.51	0.002795
1273.16	0.003535
1282.8	0.004865
1292.45	0.007625
1302.09	0.015015
1311.74	0.030435
1321.38	0.060505
1331.03	0.074855
1340.67	0.034155
1350.32	0.012375
1359.96	0.010915
1369.61	0.018665
1379.25	0.021085
1388.9	0.012975
1398.54	0.006425
1408.18	0.008425
1417.83	0.016675
1427.47	0.027335
1437.12	0.025075
1446.76	0.015425
1456.41	0.009495
1466.05	0.008435
1475.7	0.007485
1485.34	0.005475
1494.99	0.004285
1504.63	0.002985
1514.28	0.002825
1523.92	0.002685
1533.57	0.002395
1543.21	0.002195
1552.86	0.001985
1562.5	0.001875
1572.15	0.002115
1581.79	0.002445
1591.44	0.002675
1601.08	0.003525
1610.73	0.004115
1620.37	0.005175
1630.01	0.007855
1639.66	0.017765
1649.3	0.047925
1658.95	0.077425
1668.59	0.044495
1678.24	0.013705
1687.88	0.006155
1697.53	0.003775
1707.17	0.002965
1716.82	0.002225
1726.46	0.001545
1736.11	0.001415
1745.75	0.001365
1755.4	0.001175
1765.04	0.001018
1774.69	0.0008961
1784.33	0.0008452
1793.98	0.001155
1803.62	0.001155
1813.27	0.000907
1822.91	0.0007917
1832.55	0.0006401
1842.2	0.0005253
1851.84	0.000546
1861.49	0.0006197
1871.13	0.0007472
1880.78	0.0007859
1890.42	0.0007377
1900.07	0.0006709
1909.71	0.0004506
1919.36	0.0005009
1929	0.0005721
1938.65	0.0009573
1948.29	0.0008745
1957.94	0.0007236
1967.58	0.0004638
1977.23	0.0003397
1986.87	0.0003652
1996.52	0.0003538
2006.16	0.0004115
2015.81	0.0003942
2025.45	0.0002962
2035.1	0.000334
2044.74	0.0002505
2054.38	0.0002528
2064.03	0.0002638
2073.67	0.0003181
2083.32	0.00020279
2092.96	0.00015243
2102.61	0.0002662
2112.25	0.0002827
2121.9	0.0002215
2131.54	0.0002713
2141.19	0.00016661
2150.83	0.0002375
2160.48	0.0002939
2170.12	0.00015044
2179.77	0.000124263
2189.41	0.0002655
2199.06	0.000251
2208.7	0.0002848
2218.35	0.0002936
2227.99	0.0002344
2237.64	0.0003163
2247.28	0.0003977
2256.92	0.0003636
2266.57	0.000285
2276.21	0.0003061
2285.86	0.0002964
2295.5	0.0003299
2305.15	0.0002853
2314.79	0.0004314
2324.44	0.00018813
2334.08	0.0003432
2343.73	0.0002829
2353.37	0.0002503
2363.02	0.0002204
2372.66	0.000314
2382.31	0.0003831
2391.95	0.0003907
2401.6	0.0003486
2411.24	0.000415
2420.89	0.0004044
2430.53	0.0004136
2440.18	0.000278
2449.82	0.0002743
2459.47	0.00015213
2469.11	0.0003631
2478.75	0.0003067
2488.4	0.0004401
2498.04	0.0003829
2507.69	0.0004281
2517.33	0.0002995
2526.98	0.0004263
2536.62	0.0003777
2546.27	0.0002818
2555.91	0.0003133
2565.56	0.000326
2575.2	0.0002724
2584.85	0.0003037
2594.49	0.0002973
2604.14	0.0003815
2613.78	0.0004274
2623.43	0.0005787
2633.07	0.0004652
2642.72	0.0004212
2652.36	0.0003957
2662.01	0.0002412
2671.65	0.0004002
2681.29	0.0003633
2690.94	0.0003789
2700.58	0.0004
2710.23	0.0006172
2719.87	0.0006411
2729.52	0.0008053
2739.16	0.0007007
2748.81	0.0006801
2758.45	0.0008297
2768.1	0.0007669
2777.74	0.0009035
2787.39	0.000884
2797.03	0.0008686
2806.68	0.0010557
2816.32	0.001115
2825.97	0.001395
2835.61	0.001645
2845.26	0.001955
2854.9	0.002425
2864.55	0.003875
2874.19	0.006415
2883.84	0.008465
2893.48	0.008575
2903.12	0.008025
2912.77	0.008615
2922.41	0.011135
2932.06	0.016665
2941.7	0.019885
2951.35	0.016105
2960.99	0.020135
2970.64	0.032545
2980.28	0.029805
2989.93	0.017505
2999.57	0.014575
3009.22	0.010075
3018.86	0.006405
3028.51	0.006165
3038.15	0.005375
3047.8	0.004195
3057.44	0.005585
3067.09	0.009395
3076.73	0.008135
3086.38	0.005945
3096.02	0.004155
3105.67	0.002875
3115.31	0.001975
3124.95	0.001295
3134.6	0.0010038
3144.24	0.0010996
3153.89	0.0010624
3163.53	0.0008641
3173.18	0.0006669
3182.82	0.0005168
3192.47	0.0006249
3202.11	0.0004972
3211.76	0.0006337
3221.4	0.0004801
3231.05	0.0004228
3240.69	0.0003709
3250.34	0.0004883
3259.98	0.00020688
3269.63	0.0003904
3279.27	0.0004069
3288.92	0.0009001
3298.56	0.0009048
3308.21	0.001067
3317.85	0.0007275
3327.49	0.0003029
3337.14	0.0004031
3346.78	0.0004318
3356.43	0.0003008
3366.07	0.0002728
3375.72	0.00015388
3385.36	0.0003259
3395.01	0.0003756
3404.65	6.62e-05
3414.3	0.00019786
3423.94	0.0002851
3433.59	0.0003175
3443.23	0.0005055
3452.88	0.0002749
3462.52	0.000116102
3472.17	0.00017374
3481.81	0.00021186
3491.46	0.0002569
3501.1	0.0004496
3510.75	0.0002859
3520.39	2.78e-05
3530.04	0.00016663
3539.68	0.0002328
3549.32	0.0003244
3558.97	0.00015367
3568.61	0.00019999
3578.26	5.77e-05
3587.9	0.00012922
3597.55	0.0002295
3607.19	0.0002654
3616.84	0.0003044
3626.48	0.00018269
3636.13	0.00016126
3645.77	0.000387
3655.42	0.0003864
3665.06	0.00014346
3674.71	0.00019941
3684.35	0.0002808
3694	0.000243
3703.64	0.0002222
3713.29	0.0003619
3722.93	0.00023
3732.58	0.00019992
3742.22	0.0002493
3751.86	0.00018481
3761.51	0.00018823
3771.15	0.00016097
3780.8	0.000114562
3790.44	0.0003102
3800.09	0.00017714
3809.73	0.0004126
3819.38	0.0002337
3829.02	0.00014973
3838.67	0.00016157
3848.31	0.000319
3857.96	0.0003739
3867.6	0.0002417
3877.25	0.00018485
3886.89	0.0002167
3896.54	0.0003324
3906.18	0.000286
3915.83	0.0001995
3925.47	0.0002229
3935.12	0.00017398
3944.76	0.0002512
3954.41	0.0002529
3964.05	0.0003883
3973.69	0.0003387
3983.34	0.0002415
3992.98	0.0002578
