Infrared Spectrum: 9,12-OCTADECADIENE
Formula: C18 H34
CAS: 20389-49-5
State: SOLUTION (10% CS2 FOR 5000-2380 AND 1390-625, 10% C2Cl4 FOR 2380-1390 CM^-^1)
Class: COBLENTZ
Instrument: PERKIN-ELMER
Sampling: TRANSMISSION
Path length: 0.01 CM, 0.01 CM
Resolution: 4
Origin: HORMEL INSTITUTE
MICROMETERS	TRANSMITTANCE
2.007	0.908
2.04092	0.908
2.07483	0.908
2.10875	0.908
2.14267	0.908
2.17658	0.908
2.2105	0.908
2.24442	0.905
2.27833	0.891
2.31225	0.866
2.34617	0.869
2.38008	0.871
2.414	0.878
2.44792	0.879
2.48183	0.883
2.51575	0.893
2.54967	0.895
2.58358	0.896
2.6175	0.895
2.65142	0.901
2.68534	0.901
2.71925	0.901
2.75317	0.901
2.78709	0.901
2.821	0.901
2.85492	0.896
2.88884	0.896
2.92275	0.891
2.95667	0.89
2.99059	0.89
3.0245	0.89
3.05842	0.891
3.09234	0.891
3.12625	0.886
3.16017	0.883
3.19409	0.878
3.228	0.869
3.26192	0.824
3.29584	0.697
3.32975	0.382
3.36367	0.483
3.39759	0.125
3.4315	0.021
3.46542	0.162
3.49934	0.128
3.53325	0.411
3.56717	0.703
3.60109	0.798
3.635	0.832
3.66892	0.842
3.70284	0.846
3.73675	0.847
3.77067	0.851
3.80459	0.857
3.8385	0.868
3.87242	0.874
3.90634	0.878
3.94025	0.881
3.97417	0.884
4.00809	0.886
4.04201	0.886
4.07592	0.89
4.10984	0.893
4.14376	0.893
4.17767	0.893
4.21159	0.895
4.24551	0.896
4.27942	0.898
4.31334	0.901
4.34726	0.905
4.38117	0.905
4.41509	0.901
4.44901	0.903
4.48292	0.903
4.51684	0.903
4.55076	0.903
4.58467	0.901
4.61859	0.901
4.65251	0.903
4.68642	0.905
4.72034	0.903
4.75426	0.903
4.78817	0.903
4.82209	0.903
4.85601	0.901
4.88992	0.901
4.92384	0.901
4.95776	0.903
4.99167	0.903
5.02559	0.901
5.05951	0.901
5.09342	0.901
5.12734	0.901
5.16126	0.901
5.19517	0.9
5.22909	0.9
5.26301	0.901
5.29693	0.905
5.33084	0.9
5.36476	0.901
5.39868	0.901
5.43259	0.9
5.46651	0.898
5.50043	0.898
5.53434	0.898
5.56826	0.898
5.60218	0.895
5.63609	0.895
5.67001	0.891
5.70393	0.886
5.73784	0.878
5.77176	0.869
5.80568	0.861
5.83959	0.849
5.87351	0.839
5.90743	0.834
5.94134	0.837
5.97526	0.832
6.00918	0.788
6.04309	0.781
6.07701	0.798
6.11093	0.839
6.14484	0.851
6.17876	0.861
6.21268	0.873
6.24659	0.874
6.28051	0.876
6.31443	0.879
6.34834	0.879
6.38226	0.879
6.41618	0.878
6.45009	0.876
6.48401	0.878
6.51793	0.871
6.55184	0.854
6.58576	0.852
6.61968	0.854
6.6536	0.849
6.68751	0.832
6.72143	0.812
6.75535	0.742
6.78926	0.384
6.82318	0.306
6.8571	0.346
6.89101	0.477
6.92493	0.543
6.95885	0.609
6.99276	0.695
7.02668	0.752
7.0606	0.78
7.09451	0.758
7.12843	0.695
7.16235	0.73
7.19626	0.771
7.23018	0.585
7.2641	0.593
7.29801	0.653
7.33193	0.683
7.36585	0.705
7.39976	0.708
7.43368	0.712
7.4676	0.727
7.50151	0.742
7.53543	0.737
7.56935	0.725
7.60326	0.73
7.63718	0.732
7.6711	0.727
7.70501	0.732
7.73893	0.734
7.77285	0.729
7.80676	0.714
7.84068	0.697
7.8746	0.697
7.90852	0.714
7.94243	0.732
7.97635	0.746
8.01027	0.756
8.04418	0.764
8.0781	0.771
8.11202	0.774
8.14593	0.778
8.17985	0.788
8.21377	0.783
8.24768	0.788
8.2816	0.791
8.31552	0.793
8.34943	0.795
8.38335	0.798
8.41727	0.8
8.45118	0.803
8.4851	0.803
8.51902	0.805
8.55293	0.805
8.58685	0.805
8.62077	0.803
8.65468	0.798
8.6886	0.8
8.72252	0.802
8.75643	0.802
8.79035	0.802
8.82427	0.798
8.85818	0.795
8.8921	0.786
8.92602	0.773
8.95993	0.768
8.99385	0.763
9.02777	0.759
9.06168	0.769
9.0956	0.783
9.12952	0.795
9.16343	0.798
9.19735	0.796
9.23127	0.791
9.26519	0.786
9.2991	0.78
9.33302	0.773
9.36694	0.771
9.40085	0.771
9.43477	0.771
9.46869	0.771
9.5026	0.768
9.53652	0.764
9.57044	0.754
9.60435	0.749
9.63827	0.758
9.67219	0.759
9.7061	0.764
9.74002	0.768
9.77394	0.768
9.80785	0.768
9.84177	0.769
9.87569	0.769
9.9096	0.773
9.94352	0.78
9.97744	0.783
10.0114	0.781
10.0453	0.78
10.0792	0.78
10.1131	0.78
10.147	0.78
10.1809	0.774
10.2149	0.761
10.2488	0.749
10.2827	0.734
10.3166	0.72
10.3505	0.72
10.3844	0.727
10.4184	0.737
10.4523	0.746
10.4862	0.751
10.5201	0.754
10.554	0.756
10.5879	0.756
10.6219	0.756
10.6558	0.758
10.6897	0.759
10.7236	0.761
10.7575	0.764
10.7914	0.763
10.8254	0.761
10.8593	0.742
10.8932	0.725
10.9271	0.7
10.961	0.683
10.9949	0.668
11.0289	0.683
11.0628	0.719
11.0967	0.746
11.1306	0.763
11.1645	0.778
11.1984	0.785
11.2324	0.788
11.2663	0.79
11.3002	0.79
11.3341	0.79
11.368	0.79
11.4019	0.79
11.4359	0.79
11.4698	0.791
11.5037	0.791
11.5376	0.791
11.5715	0.793
11.6054	0.795
11.6394	0.795
11.6733	0.793
11.7072	0.796
11.7411	0.798
11.775	0.802
11.8089	0.803
11.8429	0.8
11.8768	0.795
11.9107	0.796
11.9446	0.796
11.9785	0.8
12.0124	0.798
12.0464	0.798
12.0803	0.8
12.1142	0.802
12.1481	0.802
12.182	0.802
12.2159	0.8
12.2499	0.796
12.2838	0.795
12.3177	0.795
12.3516	0.795
12.3855	0.79
12.4194	0.79
12.4534	0.795
12.4873	0.796
12.5212	0.795
12.5551	0.793
12.589	0.791
12.6229	0.788
12.6569	0.786
12.6908	0.783
12.7247	0.78
12.7586	0.776
12.7925	0.769
12.8264	0.764
12.8604	0.759
12.8943	0.751
12.9282	0.746
12.9621	0.739
12.996	0.73
13.0299	0.727
13.0639	0.725
13.0978	0.724
13.1317	0.72
13.1656	0.712
13.1995	0.707
13.2334	0.705
13.2674	0.703
13.3013	0.702
13.3352	0.692
13.3691	0.681
13.403	0.663
13.4369	0.646
13.4709	0.622
13.5048	0.607
13.5387	0.582
13.5726	0.554
13.6065	0.531
13.6404	0.507
13.6744	0.489
13.7083	0.468
13.7422	0.453
13.7761	0.441
13.81	0.419
13.8439	0.404
13.8779	0.399
13.9118	0.406
13.9457	0.416
13.9796	0.434
14.0135	0.445
14.0474	0.458
14.0814	0.468
14.1153	0.478
14.1492	0.489
14.1831	0.499
14.217	0.509
14.2509	0.519
14.2849	0.522
14.3188	0.532
14.3527	0.543
14.3866	0.546
14.4205	0.549
14.4544	0.56
14.4884	0.563
14.5223	0.571
14.5562	0.575
14.5901	0.585
14.624	0.59
14.6579	0.597
14.6919	0.604
14.7258	0.612
14.7597	0.617
14.7936	0.629
14.8275	0.632
14.8614	0.654
14.8954	0.661
14.9293	0.663
14.9632	0.668
14.9971	0.685
15.031	0.712
15.0649	0.714
