Infrared Spectrum: 2,3,4,5,6-Pentamethylbenzophenone
Formula: C 18 H 20 O
CAS: 20386-33-8
State: gas
Origin: EPA-IR VAPOR PHASE LIBRARY
1/CM	ABSORBANCE
549.8	0.005949
559.445	0.005839
569.09	0.003409
578.734	0.0011662
588.379	0.001639
598.024	0.001289
607.669	0.0014374
617.313	0.003949
626.958	0.008879
636.603	0.007389
646.248	0.004779
655.893	0.012669
665.537	0.044869
675.182	0.016239
684.827	0.018049
694.472	0.037239
704.116	0.076039
713.761	0.035859
723.406	0.012209
733.051	0.012269
742.695	0.008379
752.34	0.006859
761.985	0.010029
771.63	0.019109
781.275	0.010619
790.919	0.003809
800.564	0.004259
810.209	0.003449
819.854	0.003659
829.498	0.002959
839.143	0.003469
848.788	0.004939
858.433	0.007009
868.078	0.015699
877.722	0.040839
887.367	0.093299
897.012	0.036529
906.657	0.011109
916.301	0.006379
925.946	0.005239
935.591	0.005359
945.236	0.004779
954.88	0.006279
964.525	0.008489
974.17	0.011409
983.815	0.010049
993.46	0.008829
1003.1	0.010289
1012.75	0.011069
1022.39	0.018839
1032.04	0.011739
1041.68	0.008249
1051.33	0.012439
1060.97	0.018869
1070.62	0.021709
1080.26	0.012759
1089.91	0.007599
1099.55	0.006589
1109.2	0.007209
1118.84	0.005729
1128.49	0.006229
1138.13	0.006129
1147.78	0.008309
1157.42	0.012179
1167.07	0.029429
1176.71	0.075839
1186.36	0.026119
1196	0.066509
1205.64	0.102579
1215.29	0.025299
1224.93	0.013659
1234.58	0.010409
1244.22	0.012999
1253.87	0.034019
1263.51	0.086679
1273.16	0.037439
1282.8	0.022789
1292.45	0.050049
1302.09	0.058989
1311.74	0.070529
1321.38	0.045579
1331.03	0.014929
1340.67	0.010479
1350.32	0.008769
1359.96	0.009029
1369.61	0.010559
1379.25	0.015199
1388.9	0.021459
1398.54	0.022809
1408.18	0.023789
1417.83	0.027529
1427.47	0.026449
1437.12	0.027589
1446.76	0.048349
1456.41	0.031959
1466.05	0.021199
1475.7	0.018389
1485.34	0.016269
1494.99	0.014699
1504.63	0.013109
1514.28	0.011779
1523.92	0.011439
1533.57	0.011799
1543.21	0.013209
1552.86	0.014509
1562.5	0.015929
1572.15	0.020339
1581.79	0.025469
1591.44	0.023069
1601.08	0.022419
1610.73	0.011639
1620.37	0.009989
1630.01	0.009729
1639.66	0.011829
1649.3	0.013669
1658.95	0.018139
1668.59	0.035739
1678.24	0.110289
1687.88	0.176029
1697.53	0.066429
1707.17	0.020799
1716.82	0.012389
1726.46	0.009819
1736.11	0.005869
1745.75	0.003769
1755.4	0.003299
1765.04	0.004029
1774.69	0.004619
1784.33	0.003329
1793.98	0.002879
1803.62	0.004079
1813.27	0.005529
1822.91	0.003969
1832.55	0.002399
1842.2	0.001789
1851.84	0.001549
1861.49	0.0013804
1871.13	0.001509
1880.78	0.001669
1890.42	0.002129
1900.07	0.003359
1909.71	0.003719
1919.36	0.003129
1929	0.002069
1938.65	0.002099
1948.29	0.003139
1957.94	0.003969
1967.58	0.003559
1977.23	0.002169
1986.87	0.0014576
1996.52	0.00145
2006.16	0.0012785
2015.81	0.0011685
2025.45	0.001224
2035.1	0.0012296
2044.74	0.0012319
2054.38	0.0011787
2064.03	0.0010629
2073.67	0.0011257
2083.32	0.0010822
2092.96	0.0011101
2102.61	0.0011398
2112.25	0.0009117
2121.9	0.0010375
2131.54	0.0011586
2141.19	0.0010017
2150.83	0.0010861
2160.48	0.0009098
2170.12	0.0008227
2179.77	0.0009021
2189.41	0.000839
2199.06	0.0008799
2208.7	0.0007333
2218.35	0.000924
2227.99	0.0008675
2237.64	0.0009796
2247.28	0.0010221
2256.92	0.0008321
2266.57	0.0009138
2276.21	0.0009992
2285.86	0.0009316
2295.5	0.0008492
2305.15	0.0010704
2314.79	0.001669
2324.44	0.001569
2334.08	0.001749
2343.73	0.0013206
2353.37	0.0010546
2363.02	0.001153
2372.66	0.0012893
2382.31	0.0014807
2391.95	0.001539
2401.6	0.001589
2411.24	0.001569
2420.89	0.0013598
2430.53	0.0013727
2440.18	0.0013861
2449.82	0.0014093
2459.47	0.001599
2469.11	0.001509
2478.75	0.0014493
2488.4	0.0014673
2498.04	0.0012962
2507.69	0.001241
2517.33	0.001509
2526.98	0.0010556
2536.62	0.0012585
2546.27	0.0009994
2555.91	0.0010616
2565.56	0.0012764
2575.2	0.0012627
2584.85	0.0012147
2594.49	0.0013479
2604.14	0.0013703
2613.78	0.0014136
2623.43	0.001539
2633.07	0.0011195
2642.72	0.0014889
2652.36	0.0011316
2662.01	0.0012193
2671.65	0.0013904
2681.29	0.001689
2690.94	0.001719
2700.58	0.001729
2710.23	0.001709
2719.87	0.002189
2729.52	0.003079
2739.16	0.004809
2748.81	0.004429
2758.45	0.003899
2768.1	0.003669
2777.74	0.003839
2787.39	0.004329
2797.03	0.004659
2806.68	0.004999
2816.32	0.005719
2825.97	0.006989
2835.61	0.009329
2845.26	0.012509
2854.9	0.018209
2864.55	0.027949
2874.19	0.040029
2883.84	0.045219
2893.48	0.045229
2903.12	0.046959
2912.77	0.052489
2922.41	0.061699
2932.06	0.074249
2941.7	0.077819
2951.35	0.066739
2960.99	0.050909
2970.64	0.038529
2980.28	0.033429
2989.93	0.033329
2999.57	0.033959
3009.22	0.032639
3018.86	0.033359
3028.51	0.037129
3038.15	0.035349
3047.8	0.029599
3057.44	0.033129
3067.09	0.050059
3076.73	0.038869
3086.38	0.029979
3096.02	0.016689
3105.67	0.009669
3115.31	0.006339
3124.95	0.005119
3134.6	0.004319
3144.24	0.003719
3153.89	0.003589
3163.53	0.003219
3173.18	0.002159
3182.82	0.001829
3192.47	0.001589
3202.11	0.0013553
3211.76	0.000902
3221.4	0.0011317
3231.05	0.0009163
3240.69	0.0010954
3250.34	0.0010122
3259.98	0.0006978
3269.63	0.0013645
3279.27	0.0007911
3288.92	0.0012088
3298.56	0.0012111
3308.21	0.0007408
3317.85	0.0010986
3327.49	0.001549
3337.14	0.001879
3346.78	0.002949
3356.43	0.003009
3366.07	0.001619
3375.72	0.0011298
3385.36	0.0009316
3395.01	0.0011781
3404.65	0.0008445
3414.3	0.0008966
3423.94	0.0007686
3433.59	0.0006221
3443.23	0.00051991
3452.88	0.0007381
3462.52	0.000489354
3472.17	0.0008388
3481.81	0.00056082
3491.46	0.000498106
3501.1	0.0006491
3510.75	0.000761
3520.39	0.0005187
3530.04	0.0005921
3539.68	0.00053767
3549.32	0.00036
3558.97	0.0007389
3568.61	0.00028
3578.26	0.00051443
3587.9	0.000113
3597.55	0.0004625
3607.19	0.0004579
3616.84	0.0004287
3626.48	0.0005433
3636.13	0.00027
3645.77	0.0007694
3655.42	0.0006369
3665.06	0.000498794
3674.71	0.000311
3684.35	0.0004295
3694	0.0004236
3703.64	0.0008847
3713.29	0.000495927
3722.93	0.0008321
3732.58	0.0004526
3742.22	0.0006553
3751.86	0.000306
3761.51	0.0007458
3771.15	0.00050371
3780.8	0.0004486
3790.44	0.000328
3800.09	0.0006506
3809.73	0.00053082
3819.38	0.00054834
3829.02	0.000329
3838.67	0.0005327
3848.31	0.0009576
3857.96	0.0006253
3867.6	0.0006645
3877.25	0.000663
3886.89	0.0003969
3896.54	0.0008008
3906.18	0.0009431
3915.83	0.000334
3925.47	0.000726
3935.12	0.0008875
3944.76	0.0009637
3954.41	0.0009766
3964.05	0.0006408
3973.69	0.0008421
3983.34	0.0006519
3992.98	0.0008977
