Infrared Spectrum: 4-Chlorobenzyl benzoate
Formula: C 14 H 11 Cl O 2
CAS: 20386-93-0
State: gas
Origin: EPA-IR VAPOR PHASE LIBRARY
1/CM	ABSORBANCE
549.9	0.01345
559.547	0.00776
569.193	0.00439
578.84	0.0032503
588.486	0.00254735
598.133	0.0028067
607.779	0.0029158
617.426	0.00386
627.072	0.0033272
636.719	0.00421
646.365	0.00626
656.012	0.00884
665.658	0.012
675.305	0.01669
684.951	0.02352
694.598	0.03452
704.245	0.0655
713.891	0.06523
723.538	0.0315
733.184	0.01391
742.831	0.00767
752.477	0.00596
762.124	0.00591
771.77	0.00688
781.417	0.01136
791.063	0.02154
800.71	0.03038
810.356	0.03697
820.003	0.0367
829.649	0.02653
839.296	0.02206
848.943	0.01675
858.589	0.01125
868.236	0.00969
877.882	0.00981
887.529	0.00961
897.175	0.00795
906.822	0.0069
916.468	0.00727
926.115	0.00954
935.761	0.01359
945.408	0.01326
955.054	0.01547
964.701	0.01581
974.347	0.01363
983.994	0.01081
993.64	0.0105
1003.29	0.01523
1012.93	0.05649
1022.58	0.06114
1032.23	0.03322
1041.87	0.0145
1051.52	0.0229
1061.17	0.05512
1070.81	0.06943
1080.46	0.10094
1090.11	0.24907
1099.75	0.21645
1109.4	0.15872
1119.05	0.06494
1128.69	0.03173
1138.34	0.02019
1147.99	0.0149
1157.63	0.0137
1167.28	0.01871
1176.92	0.05564
1186.57	0.02453
1196.22	0.01502
1205.86	0.0208
1215.51	0.02486
1225.16	0.04227
1234.8	0.08918
1244.45	0.12434
1254.1	0.23057
1263.74	0.45446
1273.39	0.22713
1283.04	0.07497
1292.68	0.03781
1302.33	0.02831
1311.98	0.03486
1321.62	0.02002
1331.27	0.01207
1340.92	0.01131
1350.56	0.0126
1360.21	0.01723
1369.86	0.02439
1379.5	0.01848
1389.15	0.0107
1398.79	0.00935
1408.44	0.01015
1418.09	0.00974
1427.73	0.00951
1437.38	0.01233
1447.03	0.02356
1456.67	0.02741
1466.32	0.01792
1475.97	0.01887
1485.61	0.03602
1495.26	0.0629
1504.91	0.02319
1514.55	0.00928
1524.2	0.00639
1533.85	0.00558
1543.49	0.00565
1553.14	0.00604
1562.79	0.00674
1572.43	0.00868
1582.08	0.01191
1591.73	0.01707
1601.37	0.02298
1611.02	0.01276
1620.67	0.00819
1630.31	0.00737
1639.96	0.00783
1649.6	0.00699
1659.25	0.00556
1668.9	0.00514
1678.54	0.0061
1688.19	0.00835
1697.84	0.01107
1707.48	0.01407
1717.13	0.0246
1726.78	0.06218
1736.42	0.16984
1746.07	0.19301
1755.72	0.07309
1765.36	0.02783
1775.01	0.01758
1784.66	0.0125
1794.3	0.01032
1803.95	0.00892
1813.6	0.0075
1823.24	0.00509
1832.89	0.00405
1842.54	0.00351
1852.18	0.0034589
1861.83	0.0037
1871.47	0.00452
1881.12	0.00559
1890.77	0.0066
1900.41	0.00684
1910.06	0.00629
1919.71	0.0054
1929.35	0.00402
1939	0.00361
1948.65	0.00408
1958.29	0.00459
1967.94	0.00449
1977.59	0.00354
1987.23	0.0027136
1996.88	0.0025064
2006.53	0.002387
2016.17	0.0024411
2025.82	0.0026179
2035.47	0.0028081
2045.11	0.0030967
2054.76	0.0033246
2064.41	0.00346
2074.05	0.0033722
2083.7	0.003113
2093.35	0.0028219
2102.99	0.00255874
2112.64	0.0024212
2122.28	0.002337
2131.93	0.002341
2141.58	0.002301
2151.22	0.002238
2160.87	0.002237
2170.52	0.002211
2180.16	0.002224
2189.81	0.002225
2199.46	0.002169
2209.1	0.002169
2218.75	0.002154
2228.4	0.002124
2238.04	0.002205
2247.69	0.002124
2257.34	0.002104
2266.98	0.002193
2276.63	0.0024195
2286.28	0.00247557
2295.92	0.0023995
2305.57	0.002305
2315.22	0.00254211
2324.86	0.0027116
2334.51	0.0025681
2344.16	0.0026081
2353.8	0.0025737
2363.45	0.0024156
2373.09	0.002291
2382.74	0.002121
2392.39	0.002011
2402.03	0.001963
2411.68	0.001997
2421.33	0.001936
2430.97	0.001897
2440.62	0.001902
2450.27	0.001891
2459.91	0.001862
2469.56	0.001864
2479.21	0.001748
2488.85	0.001842
2498.5	0.001874
2508.15	0.001986
2517.79	0.002111
2527.44	0.002059
2537.09	0.002101
2546.73	0.001956
2556.38	0.001946
2566.03	0.001968
2575.67	0.001864
2585.32	0.001961
2594.96	0.002011
2604.61	0.001965
2614.26	0.00187
2623.9	0.001734
2633.55	0.001638
2643.2	0.00143
2652.84	0.001498
2662.49	0.00143
2672.14	0.00142
2681.78	0.001501
2691.43	0.001461
2701.08	0.001512
2710.72	0.00142
2720.37	0.001491
2730.02	0.00141
2739.66	0.001463
2749.31	0.0015
2758.96	0.001646
2768.6	0.001536
2778.25	0.00142
2787.9	0.00139
2797.54	0.001626
2807.19	0.001646
2816.84	0.0018
2826.48	0.002159
2836.13	0.002317
2845.77	0.002206
2855.42	0.00253707
2865.07	0.0028162
2874.71	0.003352
2884.36	0.00468
2894.01	0.0059
2903.65	0.00547
2913.3	0.00442
2922.95	0.00403
2932.59	0.005
2942.24	0.00767
2951.89	0.01302
2961.53	0.0165
2971.18	0.0129
2980.83	0.00889
2990.47	0.00666
3000.12	0.00527
3009.77	0.00515
3019.41	0.00569
3029.06	0.009
3038.71	0.01385
3048.35	0.01464
3058	0.01399
3067.64	0.01996
3077.29	0.02601
3086.94	0.0152
3096.58	0.01368
3106.23	0.00918
3115.88	0.00436
3125.52	0.001903
3135.17	0.00099
3144.82	0.0009
3154.46	0.00096
3164.11	0.00097
3173.76	0.00073
3183.4	0.00046
3193.05	0.00031
3202.7	0.00047
3212.34	0.00013
3221.99	0.00014
3231.64	0.00017
3241.28	0.00014
3250.93	0.0001
3260.58	0.00023
3270.22	0.0001
3279.87	7e-05
3289.52	0.00022
3299.16	0.00013
3308.81	0.0002
3318.45	0.00034
3328.1	0.00046
3337.75	0.00046
3347.39	0.00041
3357.04	0.00049
3366.69	0.00034
3376.33	0.00044
3385.98	0.00041
3395.63	0.00028
3405.27	0.00048
3414.92	0.00062
3424.57	0.00053
3434.21	0.00068
3443.86	0.00121
3453.51	0.001552
3463.15	0.0024074
3472.8	0.001914
3482.45	0.00124
3492.09	0.00096
3501.74	0.00089
3511.39	0.00069
3521.03	0.00092
3530.68	0.00084
3540.33	0.00082
3549.97	0.00087
3559.62	0.00089
3569.26	0.0007
3578.91	0.00082
3588.56	0.00084
3598.2	0.001
3607.85	0.00089
3617.5	0.00107
3627.14	0.00099
3636.79	0.0011
3646.44	0.00122
3656.08	0.0013
3665.73	0.00131
3675.38	0.001521
3685.02	0.00136
3694.67	0.00142
3704.32	0.00132
3713.96	0.00155
3723.61	0.00145
3733.26	0.00143
3742.9	0.00146
3752.55	0.00122
3762.2	0.00143
3771.84	0.00133
3781.49	0.00138
3791.13	0.00137
3800.78	0.00134
3810.43	0.00129
3820.07	0.00129
3829.72	0.00128
3839.37	0.00122
3849.01	0.00144
3858.66	0.00143
3868.31	0.00133
3877.95	0.001481
3887.6	0.00148
3897.25	0.00144
3906.89	0.001576
3916.54	0.001541
3926.19	0.001465
3935.83	0.001589
3945.48	0.001531
3955.13	0.001539
3964.77	0.00141
3974.42	0.00161
3984.07	0.001566
3993.71	0.001567
