Infrared Spectrum: 2,6-Diiodo-p-benzoquinone
Formula: C 6 H 2 I 2 O 2
CAS: 20389-01-9
State: gas
Origin: EPA-IR VAPOR PHASE LIBRARY
1/CM	ABSORBANCE
549.8	7e-05
559.445	0.0020099
569.09	0.0026443
578.734	0.001418
588.379	0.00333
598.024	0.00437
607.669	0.0027121
617.313	0.00065
626.958	0.00158
636.603	0.0026173
646.248	0.0025122
655.893	0.00887
665.537	0.01113
675.182	0.00421
684.827	0.0032
694.472	0.0020854
704.116	0.0020796
713.761	0.0023007
723.406	0.0026177
733.051	0.00191284
742.695	0.00190182
752.34	0.00190196
761.985	0.0025535
771.63	0.00314
781.275	0.0022445
790.919	0.001681
800.564	0.0021441
810.209	0.0022439
819.854	0.001395
829.498	0.0024506
839.143	0.0023459
848.788	0.0018404
858.433	0.0025334
868.078	0.0027546
877.722	0.0022079
887.367	0.00299
897.012	0.00398
906.657	0.00719
916.301	0.00781
925.946	0.00332
935.591	0.0024822
945.236	0.0025597
954.88	0.00295
964.525	0.00547
974.17	0.01156
983.815	0.01209
993.46	0.00528
1003.1	0.00451
1012.75	0.00296
1022.39	0.0021661
1032.04	0.0025824
1041.68	0.001251
1051.33	0.001681
1060.97	0.001478
1070.62	0.00171
1080.26	0.001431
1089.91	0.001246
1099.55	0.00291
1109.2	0.0024943
1118.84	0.00602
1128.49	0.0038
1138.13	0.0018506
1147.78	0.00054
1157.42	0.00411
1167.07	0.00327
1176.71	0.00306
1186.36	0.0025523
1196	0.00292
1205.64	0.001336
1215.29	0.001564
1224.93	0.00448
1234.58	0.00557
1244.22	0.01297
1253.87	0.02894
1263.51	0.03627
1273.16	0.0125
1282.8	0.00466
1292.45	0.00323
1302.09	0.00305
1311.74	0.0023009
1321.38	0.002198
1331.03	0.0020998
1340.67	0.0018699
1350.32	0.0022496
1359.96	0.00191631
1369.61	0.0022856
1379.25	0.00191507
1388.9	0.0022348
1398.54	0.0024747
1408.18	0.0025827
1417.83	0.0023102
1427.47	0.0023636
1437.12	0.0020773
1446.76	0.0020408
1456.41	0.0023026
1466.05	0.0020779
1475.7	0.0023305
1485.34	0.0022685
1494.99	0.0024566
1504.63	0.002561
1514.28	0.0024346
1523.92	0.0025805
1533.57	0.00342
1543.21	0.00638
1552.86	0.01674
1562.5	0.01262
1572.15	0.00563
1581.79	0.00981
1591.44	0.00754
1601.08	0.00329
1610.73	0.00291
1620.37	0.00319
1630.01	0.00465
1639.66	0.00733
1649.3	0.01313
1658.95	0.01998
1668.59	0.02059
1678.24	0.01756
1687.88	0.02282
1697.53	0.01449
1707.17	0.00742
1716.82	0.00585
1726.46	0.00386
1736.11	0.00304
1745.75	0.0027153
1755.4	0.0025156
1765.04	0.002814
1774.69	0.00295
1784.33	0.0026675
1793.98	0.0025673
1803.62	0.0023568
1813.27	0.0023243
1822.91	0.0022577
1832.55	0.0023065
1842.2	0.0021276
1851.84	0.0021668
1861.49	0.00189747
1871.13	0.0022956
1880.78	0.0022257
1890.42	0.0021043
1900.07	0.002012
1909.71	0.0021015
1919.36	0.0024233
1929	0.00197232
1938.65	0.0023954
1948.29	0.0024372
1957.94	0.0021812
1967.58	0.0022467
1977.23	0.00192611
1986.87	0.0020594
1996.52	0.0020705
2006.16	0.0021856
2015.81	0.0020292
2025.45	0.0018447
2035.1	0.00188118
2044.74	0.0018304
2054.38	0.0021973
2064.03	0.002184
2073.67	0.0023606
2083.32	0.0023588
2092.96	0.0022675
2102.61	0.0022494
2112.25	0.0023032
2121.9	0.0022271
2131.54	0.0018446
2141.19	0.0021424
2150.83	0.0020706
2160.48	0.002098
2170.12	0.0020862
2179.77	0.0020001
2189.41	0.00193879
2199.06	0.0023259
2208.7	0.0020411
2218.35	0.0022385
2227.99	0.0021126
2237.64	0.0021327
2247.28	0.0021339
2256.92	0.0025551
2266.57	0.0020232
2276.21	0.00194705
2285.86	0.0022039
2295.5	0.0020835
2305.15	0.001761
2314.79	0.0020199
2324.44	0.00195683
2334.08	0.002139
2343.73	0.0018067
2353.37	0.0018569
2363.02	0.0021466
2372.66	0.0022715
2382.31	0.0020915
2391.95	0.0020543
2401.6	0.0025608
2411.24	0.002031
2420.89	0.001616
2430.53	0.001801
2440.18	0.002165
2449.82	0.002124
2459.47	0.001762
2469.11	0.0024331
2478.75	0.0020216
2488.4	0.0021948
2498.04	0.00192962
2507.69	0.00195539
2517.33	0.0021161
2526.98	0.0020436
2536.62	0.0022769
2546.27	0.0018083
2555.91	0.001608
2565.56	0.00193512
2575.2	0.0020488
2584.85	0.0022206
2594.49	0.001605
2604.14	0.0022813
2613.78	0.00190016
2623.43	0.0018294
2633.07	0.0022188
2642.72	0.0022592
2652.36	0.00190136
2662.01	0.002077
2671.65	0.002151
2681.29	0.0020793
2690.94	0.0022802
2700.58	0.001398
2710.23	0.0023322
2719.87	0.001312
2729.52	0.001747
2739.16	0.001752
2748.81	0.001669
2758.45	0.0023941
2768.1	0.0021387
2777.74	0.001697
2787.39	0.0022253
2797.03	0.001697
2806.68	0.0022607
2816.32	0.0018125
2825.97	0.0025103
2835.61	0.0022934
2845.26	0.0021638
2854.9	0.001765
2864.55	0.0024925
2874.19	0.0024729
2883.84	0.001727
2893.48	0.0022367
2903.12	0.0026113
2912.77	0.0020504
2922.41	0.0020675
2932.06	0.002323
2941.7	0.0024649
2951.35	0.0024044
2960.99	0.0021891
2970.64	0.001672
2980.28	0.0018003
2989.93	0.0020121
2999.57	0.0020131
3009.22	0.0024829
3018.86	0.0023371
3028.51	0.0022917
3038.15	0.0026519
3047.8	0.0025662
3057.44	0.0018555
3067.09	0.0027178
3076.73	0.002102
3086.38	0.0021773
3096.02	0.0024446
3105.67	0.001716
3115.31	0.002322
3124.95	0.0024368
3134.6	0.0024186
3144.24	0.002467
3153.89	0.0027593
3163.53	0.0027024
3173.18	0.0025107
3182.82	0.0021636
3192.47	0.0022525
3202.11	0.001369
3211.76	0.001343
3221.4	0.00189909
3231.05	0.0020712
3240.69	0.002121
3250.34	0.0023016
3259.98	0.0020992
3269.63	0.001631
3279.27	0.0020813
3288.92	0.0024656
3298.56	0.00295
3308.21	0.0027575
3317.85	0.0021228
3327.49	0.0027195
3337.14	0.00194969
3346.78	0.0027368
3356.43	0.0025338
3366.07	0.00313
3375.72	0.001245
3385.36	0.0018457
3395.01	0.001611
3404.65	0.001777
3414.3	0.00177
3423.94	0.0026532
3433.59	0.0020742
3443.23	0.0024005
3452.88	0.0020922
3462.52	0.00188598
3472.17	0.0021966
3481.81	0.0024011
3491.46	0.0026506
3501.1	0.0020326
3510.75	0.0025957
3520.39	0.00189601
3530.04	0.0020342
3539.68	0.0022301
3549.32	0.00193598
3558.97	0.00196416
3568.61	0.0017938
3578.26	0.0020959
3587.9	0.0020743
3597.55	0.001634
3607.19	0.0020538
3616.84	0.001782
3626.48	0.0022395
3636.13	0.0020779
3645.77	0.001709
3655.42	0.0023186
3665.06	0.00193533
3674.71	0.001009
3684.35	0.001513
3694	0.0022983
3703.64	0.0021676
3713.29	0.0023801
3722.93	0.00131
3732.58	0.001714
3742.22	0.001302
3751.86	0.0025465
3761.51	0.001453
3771.15	0.001676
3780.8	0.0026659
3790.44	0.0022832
3800.09	0.0023913
3809.73	0.0022548
3819.38	0.00137
3829.02	0.0020603
3838.67	0.0021468
3848.31	0.0023905
3857.96	0.00189516
3867.6	0.0023394
3877.25	0.002459
3886.89	0.001495
3896.54	0.001724
3906.18	0.0024881
3915.83	0.0018601
3925.47	0.0020408
3935.12	0.0022406
3944.76	0.00192049
3954.41	0.0023638
3964.05	0.001707
3973.69	0.0020687
3983.34	0.00296
3992.98	0.001465
