Infrared Spectrum: P-BROMOSTYRENE
Formula: C8 H7 Br
CAS: 2039-82-9
State: SOLUTION (10% CCl4 FOR 2.5-7.5, 10% CS2 FOR 7.5-15 MICRON)
Class: COBLENTZ
Instrument: Not specified, most likely a prism, grating, or hybrid spectrometer.
Sampling: TRANSMISSION
Path length: 0.01 CM, 0.01 CM
Resolution: 4
Origin: DOW CHEMICAL COMPANY
MICROMETERS	TRANSMITTANCE
2.075	0.84
2.11409	0.839
2.15318	0.835
2.19226	0.835
2.23135	0.835
2.27044	0.835
2.30953	0.835
2.34861	0.835
2.3877	0.835
2.42679	0.842
2.46588	0.839
2.50497	0.842
2.54405	0.855
2.58314	0.853
2.62223	0.853
2.66132	0.86
2.7004	0.856
2.73949	0.858
2.77858	0.858
2.81767	0.855
2.85675	0.855
2.89584	0.85
2.93493	0.84
2.97402	0.835
3.01311	0.835
3.05219	0.84
3.09128	0.84
3.13037	0.837
3.16946	0.835
3.20854	0.83
3.24763	0.798
3.28672	0.725
3.32581	0.749
3.3649	0.747
3.40398	0.816
3.44307	0.858
3.48216	0.865
3.52125	0.871
3.56033	0.878
3.59942	0.874
3.63851	0.878
3.6776	0.881
3.71668	0.882
3.75577	0.882
3.79486	0.884
3.83395	0.886
3.87304	0.881
3.91212	0.881
3.95121	0.882
3.9903	0.881
4.02939	0.886
4.06847	0.887
4.10756	0.887
4.14665	0.886
4.18574	0.881
4.22483	0.873
4.26391	0.874
4.303	0.881
4.34209	0.878
4.38118	0.861
4.42026	0.876
4.45935	0.886
4.49844	0.886
4.53753	0.891
4.57661	0.892
4.6157	0.894
4.65479	0.894
4.69388	0.891
4.73297	0.894
4.77205	0.892
4.81114	0.897
4.85023	0.899
4.88932	0.894
4.9284	0.892
4.96749	0.891
5.00658	0.887
5.04567	0.891
5.08476	0.889
5.12384	0.884
5.16293	0.889
5.20202	0.892
5.24111	0.886
5.28019	0.845
5.31928	0.809
5.35837	0.884
5.39746	0.887
5.43654	0.869
5.47563	0.829
5.51472	0.814
5.55381	0.86
5.5929	0.884
5.63198	0.886
5.67107	0.876
5.71016	0.889
5.74925	0.887
5.78833	0.891
5.82742	0.895
5.86651	0.887
5.9056	0.884
5.94469	0.886
5.98377	0.878
6.02286	0.861
6.06195	0.829
6.10104	0.8
6.14012	0.669
6.17921	0.661
6.2183	0.788
6.25739	0.721
6.29647	0.541
6.33556	0.565
6.37465	0.59
6.41374	0.557
6.45283	0.494
6.49191	0.491
6.531	0.544
6.57009	0.586
6.60918	0.642
6.64826	0.681
6.68735	0.668
6.72644	0.479
6.76553	0.352
6.80462	0.767
6.8437	0.817
6.88279	0.842
6.92188	0.865
6.96097	0.86
7.00005	0.853
7.03914	0.814
7.07823	0.814
7.11732	0.822
7.1564	0.731
7.19549	0.569
7.23458	0.79
7.27367	0.84
7.31276	0.863
7.35184	0.884
7.39093	0.891
7.43002	0.876
7.46911	0.891
7.50819	0.904
7.54728	0.899
7.58637	0.881
7.62546	0.863
7.66455	0.871
7.70363	0.868
7.74272	0.845
7.78181	0.847
7.8209	0.856
7.85998	0.863
7.89907	0.858
7.93816	0.852
7.97725	0.865
8.01633	0.891
8.05542	0.897
8.09451	0.897
8.1336	0.886
8.17269	0.878
8.21177	0.886
8.25086	0.892
8.28995	0.889
8.32904	0.878
8.36812	0.876
8.40721	0.879
8.4463	0.868
8.48539	0.847
8.52448	0.843
8.56356	0.873
8.60265	0.886
8.64174	0.889
8.68083	0.891
8.71991	0.894
8.759	0.891
8.79809	0.884
8.83718	0.881
8.87626	0.878
8.91535	0.868
8.95444	0.845
8.99353	0.816
9.03262	0.73
9.0717	0.671
9.11079	0.801
9.14988	0.829
9.18897	0.821
9.22805	0.78
9.26714	0.718
9.30623	0.6
9.34532	0.386
9.38441	0.313
9.42349	0.642
9.46258	0.769
9.50167	0.801
9.54076	0.821
9.57984	0.826
9.61893	0.829
9.65802	0.829
9.69711	0.803
9.73619	0.764
9.77528	0.751
9.81437	0.769
9.85346	0.76
9.89255	0.578
9.93163	0.312
9.97072	0.559
10.0098	0.738
10.0489	0.751
10.088	0.704
10.1271	0.525
10.1662	0.336
10.2052	0.331
10.2443	0.673
10.2834	0.78
10.3225	0.811
10.3616	0.829
10.4007	0.832
10.4398	0.834
10.4789	0.835
10.5179	0.837
10.557	0.84
10.5961	0.84
10.6352	0.83
10.6743	0.822
10.7134	0.822
10.7525	0.819
10.7916	0.808
10.8307	0.777
10.8697	0.731
10.9088	0.617
10.9479	0.456
10.987	0.281
11.0261	0.149
11.0652	0.261
11.1043	0.486
11.1434	0.63
11.1824	0.707
11.2215	0.752
11.2606	0.77
11.2997	0.772
11.3388	0.772
11.3779	0.769
11.417	0.762
11.4561	0.752
11.4951	0.739
11.5342	0.733
11.5733	0.721
11.6124	0.707
11.6515	0.697
11.6906	0.687
11.7297	0.684
11.7688	0.687
11.8078	0.7
11.8469	0.707
11.886	0.707
11.9251	0.661
11.9642	0.559
12.0033	0.391
12.0424	0.11
12.0815	0.034
12.1205	0.147
12.1596	0.403
12.1987	0.549
12.2378	0.647
12.2769	0.702
12.316	0.749
12.3551	0.772
12.3942	0.79
12.4332	0.811
12.4723	0.816
12.5114	0.821
12.5505	0.821
12.5896	0.819
12.6287	0.808
12.6678	0.78
12.7069	0.739
12.746	0.622
12.785	0.534
12.8241	0.533
12.8632	0.648
12.9023	0.733
12.9414	0.788
12.9805	0.808
13.0196	0.816
13.0587	0.821
13.0977	0.8
13.1368	0.788
13.1759	0.79
13.215	0.804
13.2541	0.813
13.2932	0.816
13.3323	0.819
13.3714	0.814
13.4104	0.811
13.4495	0.803
13.4886	0.798
13.5277	0.79
13.5668	0.783
13.6059	0.772
13.645	0.752
13.6841	0.73
13.7231	0.687
13.7622	0.634
13.8013	0.627
13.8404	0.669
13.8795	0.712
13.9186	0.741
13.9577	0.747
13.9968	0.749
14.0358	0.746
14.0749	0.739
14.114	0.733
14.1531	0.73
14.1922	0.726
14.2313	0.723
14.2704	0.717
14.3095	0.71
14.3485	0.705
14.3876	0.7
14.4267	0.695
14.4658	0.687
14.5049	0.681
14.544	0.674
14.5831	0.668
14.6222	0.66
14.6612	0.65
14.7003	0.643
14.7394	0.637
14.7785	0.624
14.8176	0.617
14.8567	0.609
14.8958	0.603
14.9349	0.6
14.974	0.593
15.013	0.585
15.0521	0.573
15.0912	0.559
15.1303	0.551
15.1694	0.541
15.2085	0.53
15.2476	0.521
15.2867	0.513
15.3257	0.507
15.3648	0.504
15.4039	0.5
15.443	0.492
15.4821	0.484
15.5212	0.478
15.5603	0.474
15.5994	0.474
15.6384	0.469
15.6775	0.463
15.7166	0.46
15.7557	0.456
15.7948	0.453
15.8339	0.452
15.873	0.447
15.9121	0.445
