Infrared Spectrum: o-Bromostyrene
Formula: C8 H7 Br
CAS: 2039-88-5
State: SOLUTION (10% CCl4 FOR 3800-1330, 10% CS2 FOR 1330-470 CM^-^1)
Class: COBLENTZ III
Instrument: DOW KBr FOREPRISM-GRATING
Instrument parameters: BLAZED AT 3.5, 12.0, 20.0 MICRON AND CHANGED AT 5.0, 7.5, 14.9 MICRON
Sampling: TRANSMISSION
Path length: 0.010 CM, 0.010 CM
Resolution: 2
Origin: DOW CHEMICAL COMPANY
1/CM	TRANSMITTANCE
3800	0.8949
3791	0.8951
3782	0.8933
3773	0.8947
3764	0.8947
3755	0.895
3746	0.8957
3737	0.8978
3728	0.8985
3719	0.8977
3710	0.8996
3701	0.9007
3692	0.8994
3683	0.8979
3674	0.898
3665	0.8983
3656	0.8989
3647	0.8993
3638	0.8998
3629	0.9001
3620	0.9014
3611	0.9009
3602	0.8994
3593	0.8997
3584	0.8989
3575	0.8971
3566	0.8957
3557	0.8946
3548	0.8954
3539	0.8942
3530	0.8939
3521	0.8917
3512	0.891
3503	0.8903
3494	0.8898
3485	0.8893
3476	0.8887
3467	0.8882
3458	0.8876
3449	0.8871
3440	0.8867
3431	0.8861
3422	0.8856
3413	0.8851
3404	0.8846
3395	0.8841
3386	0.8842
3377	0.8844
3368	0.8846
3359	0.8848
3350	0.8848
3341	0.8849
3332	0.8848
3323	0.8847
3314	0.8838
3305	0.8846
3296	0.8834
3287	0.8835
3278	0.8843
3269	0.8844
3260	0.8842
3251	0.8841
3242	0.8841
3233	0.8834
3224	0.8826
3215	0.8817
3206	0.8793
3197	0.8792
3188	0.8786
3179	0.8771
3170	0.8769
3161	0.8774
3152	0.877
3143	0.8747
3134	0.8738
3125	0.8554
3116	0.8564
3107	0.8441
3098	0.7063
3089	0.7323
3080	0.7512
3071	0.6792
3062	0.6987
3053	0.7723
3044	0.8297
3035	0.836
3026	0.7739
3017	0.8161
3008	0.8337
2999	0.8292
2990	0.8352
2981	0.846
2972	0.8568
2963	0.8663
2954	0.8702
2945	0.8662
2936	0.8668
2927	0.8652
2918	0.8691
2909	0.8753
2900	0.8803
2891	0.8824
2882	0.8827
2873	0.8816
2864	0.8805
2855	0.883
2846	0.8869
2837	0.8898
2828	0.8895
2819	0.89
2810	0.8882
2801	0.8892
2792	0.8886
2783	0.8881
2774	0.889
2765	0.8889
2756	0.8885
2747	0.8881
2738	0.888
2729	0.8884
2720	0.8889
2711	0.8895
2702	0.8904
2693	0.8912
2684	0.8922
2675	0.8928
2666	0.8932
2657	0.8949
2648	0.8951
2639	0.8946
2630	0.8896
2621	0.8907
2612	0.8941
2603	0.8943
2594	0.8889
2585	0.8922
2576	0.8935
2567	0.8904
2558	0.8881
2549	0.89
2540	0.8909
2531	0.8916
2522	0.8924
2513	0.893
2504	0.8936
2495	0.8941
2486	0.8947
2477	0.8964
2468	0.8969
2459	0.8977
2450	0.8985
2441	0.9006
2432	0.9013
2423	0.9012
2414	0.9013
2405	0.9037
2396	0.9044
2387	0.906
2378	0.9102
2369	0.9116
2360	0.913
2351	0.9161
2342	0.9155
2333	0.9142
2324	0.917
2315	0.9147
2306	0.9124
2297	0.9121
2288	0.9131
2279	0.9179
2270	0.9177
2261	0.9161
2252	0.9151
2243	0.9147
2234	0.9157
2225	0.9177
2216	0.9186
2207	0.9218
2198	0.924
2189	0.9235
2180	0.9248
2171	0.9275
2162	0.9272
2153	0.9277
2144	0.9283
2135	0.9285
2126	0.9285
2117	0.9296
2108	0.9297
2099	0.9296
2090	0.9294
2081	0.9284
2072	0.9276
2063	0.9281
2054	0.9306
2045	0.9304
2036	0.9305
2027	0.9284
2018	0.9236
2009	0.9185
2000	0.9149
1991	0.9121
1982	0.9076
1973	0.9023
1964	0.9
1955	0.8968
1946	0.8685
1937	0.8966
1928	0.9003
1919	0.8723
1910	0.8753
1901	0.9013
1892	0.9022
1883	0.8878
1874	0.9023
1865	0.9003
1856	0.8913
1847	0.8479
1838	0.8051
1829	0.8499
1820	0.879
1811	0.8926
1802	0.8669
1793	0.8774
1784	0.8976
1775	0.9042
1766	0.9048
1757	0.9047
1748	0.9004
1739	0.8969
1730	0.8932
1721	0.8902
1712	0.8901
1703	0.8831
1694	0.893
1685	0.9006
1676	0.8946
1667	0.9015
1658	0.9005
1649	0.8971
1640	0.8885
1631	0.5709
1622	0.7778
1613	0.8733
1604	0.8809
1595	0.7554
1586	0.7257
1577	0.8347
1568	0.7924
1559	0.7454
1550	0.8358
1541	0.8774
1532	0.8749
1523	0.8834
1514	0.8921
1505	0.8869
1496	0.8871
1487	0.8814
1478	0.7464
1469	0.2779
1460	0.7759
1451	0.8288
1442	0.6639
1433	0.5716
1424	0.7522
1415	0.4433
1406	0.7933
1397	0.874
1388	0.9124
1379	0.9211
1370	0.9173
1361	0.9142
1352	0.9102
1343	0.9073
1334	0.9065
1325	0.9073
1316	0.9089
1307	0.895
1298	0.8926
1289	0.8899
1280	0.8274
1271	0.8457
1262	0.8926
1253	0.9081
1244	0.9165
1235	0.9246
1226	0.9293
1217	0.9243
1208	0.9019
1199	0.8361
1190	0.9031
1181	0.9035
1172	0.9038
1163	0.8903
1154	0.8871
1145	0.897
1136	0.9091
1127	0.8997
1118	0.7723
1109	0.8993
1100	0.9158
1091	0.922
1082	0.9232
1073	0.9171
1064	0.9084
1055	0.885
1046	0.8745
1037	0.7894
1028	0.0453
1019	0.5362
1010	0.7919
1001	0.8181
992	0.7265
983	0.4809
974	0.7173
965	0.8376
956	0.8564
947	0.8289
938	0.7994
929	0.686
920	0.3452
911	0.5027
902	0.7994
893	0.8594
884	0.8761
875	0.8714
866	0.8502
857	0.8583
848	0.917
839	0.9078
830	0.9072
821	0.9085
812	0.9077
803	0.8996
794	0.865
785	0.8112
776	0.769
767	0.2544
758	0.3704
749	0.7726
740	0.7703
731	0.2936
722	0.8605
713	0.8885
704	0.8947
695	0.9
686	0.8985
677	0.8953
668	0.8701
659	0.4904
650	0.7713
641	0.852
632	0.8899
623	0.8947
614	0.9015
605	0.9038
596	0.9082
587	0.9064
578	0.8758
569	0.842
560	0.8916
551	0.9073
542	0.9104
533	0.9145
524	0.9163
515	0.9157
506	0.9093
497	0.9015
488	0.9024
479	0.9028
470	0.8949
