Infrared Spectrum: m-Bromostyrene
Formula: C 8 H 7 Br
CAS: 2039-86-3
State: gas
Origin: EPA-IR VAPOR PHASE LIBRARY
1/CM	ABSORBANCE
549.8	0.00146
559.445	0.00196
569.09	0.00143
578.734	0.00092
588.379	0.00022
598.024	0.00128
607.669	0.00164
617.313	0.00246
626.958	0.00331
636.603	0.005432
646.248	0.0081
655.893	0.01066
665.537	0.01847
675.182	0.01387
684.827	0.005867
694.472	0.00982
704.116	0.01564
713.761	0.00996
723.406	0.00472
733.051	0.00267
742.695	0.0026
752.34	0.00333
761.985	0.006327
771.63	0.01571
781.275	0.02845
790.919	0.02502
800.564	0.01488
810.209	0.01574
819.854	0.0273
829.498	0.02068
839.143	0.0065483
848.788	0.00462
858.433	0.00509
868.078	0.00813
877.722	0.01164
887.367	0.01088
897.012	0.011
906.657	0.01855
916.301	0.03122
925.946	0.01834
935.591	0.00775
945.236	0.00449
954.88	0.00507
964.525	0.00856
974.17	0.01334
983.815	0.01647
993.46	0.01777
1003.1	0.01156
1012.75	0.0047
1022.39	0.005475
1032.04	0.007296
1041.68	0.0069211
1051.33	0.005644
1060.97	0.01028
1070.62	0.01931
1080.26	0.0155
1089.91	0.00532
1099.55	0.00416
1109.2	0.00278
1118.84	0.0028
1128.49	0.0027
1138.13	0.00228
1147.78	0.00231
1157.42	0.0023
1167.07	0.00207
1176.71	0.00255
1186.36	0.0063366
1196	0.01543
1205.64	0.01349
1215.29	0.005643
1224.93	0.00286
1234.58	0.00252
1244.22	0.00306
1253.87	0.00368
1263.51	0.00419
1273.16	0.00429
1282.8	0.00357
1292.45	0.00342
1302.09	0.00318
1311.74	0.00272
1321.38	0.00245
1331.03	0.00214
1340.67	0.00194
1350.32	0.0023
1359.96	0.00256
1369.61	0.00327
1379.25	0.00495
1388.9	0.0069368
1398.54	0.00919
1408.18	0.01349
1417.83	0.01308
1427.47	0.00650432
1437.12	0.00357
1446.76	0.00331
1456.41	0.005924
1466.05	0.01756
1475.7	0.02742
1485.34	0.01452
1494.99	0.00437
1504.63	0.00276
1514.28	0.00267
1523.92	0.00313
1533.57	0.00507
1543.21	0.01162
1552.86	0.02769
1562.5	0.04174
1572.15	0.03013
1581.79	0.02016
1591.44	0.02296
1601.08	0.01382
1610.73	0.006072
1620.37	0.005835
1630.01	0.006032
1639.66	0.00513
1649.3	0.00304
1658.95	0.00235
1668.59	0.00249
1678.24	0.00356
1687.88	0.00342
1697.53	0.00224
1707.17	0.00171
1716.82	0.00149
1726.46	0.00159
1736.11	0.00195
1745.75	0.00252
1755.4	0.00295
1765.04	0.00291
1774.69	0.00245
1784.33	0.00244
1793.98	0.00245
1803.62	0.00209
1813.27	0.00194
1822.91	0.00341
1832.55	0.006113
1842.2	0.005722
1851.84	0.00374
1861.49	0.00336
1871.13	0.00237
1880.78	0.00149
1890.42	0.00139
1900.07	0.00131
1909.71	0.00154
1919.36	0.00206
1929	0.00242
1938.65	0.00211
1948.29	0.00153
1957.94	0.0013
1967.58	0.00127
1977.23	0.00097
1986.87	0.00102
1996.52	0.00094
2006.16	0.00086
2015.81	0.00085
2025.45	0.00082
2035.1	0.00083
2044.74	0.00075
2054.38	0.00081
2064.03	0.00088
2073.67	0.00081
2083.32	0.0007
2092.96	0.00078
2102.61	0.00077
2112.25	0.00075
2121.9	0.00071
2131.54	0.00073
2141.19	0.00075
2150.83	0.00072
2160.48	0.00073
2170.12	0.0008
2179.77	0.00081
2189.41	0.00078
2199.06	0.00076
2208.7	0.00061
2218.35	0.00075
2227.99	0.00073
2237.64	0.00075
2247.28	0.00073
2256.92	0.00074
2266.57	0.00071
2276.21	0.00083
2285.86	0.00062
2295.5	0.00063
2305.15	0.00071
2314.79	0.00061
2324.44	0.00094
2334.08	0.00097
2343.73	0.00092
2353.37	0.00087
2363.02	0.00093
2372.66	0.00085
2382.31	0.00084
2391.95	0.00068
2401.6	0.00068
2411.24	0.00065
2420.89	0.00066
2430.53	0.00062
2440.18	0.00055
2449.82	0.00069
2459.47	0.00064
2469.11	0.0007
2478.75	0.00062
2488.4	0.00072
2498.04	0.00073
2507.69	0.00071
2517.33	0.00067
2526.98	0.00045
2536.62	0.00048
2546.27	0.00066
2555.91	0.00052
2565.56	0.00058
2575.2	0.00068
2584.85	0.00062
2594.49	0.00057
2604.14	0.00051
2613.78	0.00064
2623.43	0.0006
2633.07	0.00055
2642.72	0.0005
2652.36	0.00043
2662.01	0.0004
2671.65	0.0005
2681.29	0.00049
2690.94	0.00047
2700.58	0.00047
2710.23	0.00053
2719.87	0.00058
2729.52	0.0005
2739.16	0.00048
2748.81	0.00058
2758.45	0.00057
2768.1	0.00058
2777.74	0.00056
2787.39	0.0006
2797.03	0.00061
2806.68	0.00057
2816.32	0.00047
2825.97	0.00059
2835.61	0.00059
2845.26	0.00042
2854.9	0.00051
2864.55	0.00043
2874.19	0.00036
2883.84	0.00061
2893.48	0.00059
2903.12	0.00071
2912.77	0.0008
2922.41	0.001
2932.06	0.00101
2941.7	0.00123
2951.35	0.00115
2960.99	0.0012
2970.64	0.00176
2980.28	0.00296
2989.93	0.00438
2999.57	0.00533
3009.22	0.00845
3018.86	0.01148
3028.51	0.00833
3038.15	0.006018
3047.8	0.0069147
3057.44	0.01093
3067.09	0.01518
3076.73	0.01441
3086.38	0.01405
3096.02	0.01703
3105.67	0.01057
3115.31	0.00275
3124.95	0.00147
3134.6	0.00128
3144.24	0.00105
3153.89	0.00067
3163.53	0.00075
3173.18	0.00061
3182.82	0.00038
3192.47	0.00038
3202.11	0.00053
3211.76	0.00039
3221.4	0.00049
3231.05	0.00067
3240.69	0.00044
3250.34	0.00056
3259.98	0.00062
3269.63	0.00056
3279.27	0.00044
3288.92	0.00057
3298.56	0.00045
3308.21	0.0004
3317.85	0.00029
3327.49	0.00037
3337.14	0.00027
3346.78	0.00032
3356.43	0.00052
3366.07	0.00046
3375.72	0.00028
3385.36	0.00041
3395.01	0.00036
3404.65	0.00018
3414.3	0.00056
3423.94	0.00022
3433.59	0.00044
3443.23	0.00046
3452.88	0.00036
3462.52	0.00034
3472.17	0.00046
3481.81	0.00044
3491.46	0.00032
3501.1	0.00022
3510.75	0.00051
3520.39	0.00032
3530.04	0.00045
3539.68	0.00058
3549.32	0.00046
3558.97	0.00053
3568.61	0.00054
3578.26	0.00054
3587.9	0.00052
3597.55	0.0005
3607.19	0.0006
3616.84	0.00049
3626.48	0.00031
3636.13	0.00041
3645.77	0.00037
3655.42	0.00048
3665.06	0.00037
3674.71	0.00052
3684.35	0.00067
3694	0.00052
3703.64	0.00031
3713.29	0.00054
3722.93	0.00056
3732.58	0.00056
3742.22	0.00047
3751.86	0.00063
3761.51	0.0004
3771.15	0.00046
3780.8	0.00018
3790.44	0.00036
3800.09	0.00063
3809.73	0.0002
3819.38	0.00042
3829.02	0.00037
3838.67	0.00055
3848.31	0.00048
3857.96	8e-05
3867.6	0.00053
3877.25	0.00023
3886.89	0.00073
3896.54	0.00039
3906.18	0.00041
3915.83	0.00044
3925.47	0.00044
3935.12	0.00029
3944.76	0.0004
3954.41	0.00031
3964.05	0.00031
3973.69	0.00025
3983.34	0.00021
3992.98	0.00057
