Infrared Spectrum: 3-Acetylphenanthrene
Formula: C 16 H 12 O
CAS: 2039-76-1
State: gas
Instrument: HP-GC/MS/IRD
Origin: NIST Mass Spectrometry Data Center
1/CM	ABSORBANCE
550	0.0003402
562	0.0014994
574	0.001116
586	0.0010278
598	0.0003654
610	0.0003654
622	0.001179
634	0.0019386
646	0.0012762
658	0.001233
670	0.0004176
682	0.0002808
694	7.74e-05
706	0.0002016
718	0.000432
730	0.0014436
742	0.0052686
754	0.0016578
766	0.0002844
778	0.000234
790	0.0006372
802	0.0009702
814	0.0005274
826	0.0016974
838	0.0055908
850	0.0037008
862	0.0016056
874	0.0010188
886	0.0007866
898	0.00045
910	0.000459
922	0.0002538
934	0.0004284
946	0.0012708
958	0.001692
970	0.0010404
982	0.0003042
994	0.0002052
1006	0.0002844
1018	0.0004482
1030	0.0006732
1042	0.000756
1054	0.0001764
1066	0.0002394
1078	0.0002646
1090	0.0004068
1102	0.0009666
1114	0.0003438
1126	0.0003114
1138	0.0005706
1150	0.0009522
1162	0.0007704
1174	0.0008064
1186	0.001197
1198	0.0018036
1210	0.0028926
1222	0.005661
1234	0.011853
1246	0.0126666
1258	0.0077958
1270	0.0025326
1282	0.0025506
1294	0.0030528
1306	0.00216
1318	0.000981
1330	0.001071
1342	0.0016344
1354	0.0038988
1366	0.003843
1378	0.001368
1390	0.0015606
1402	0.00315
1414	0.0017226
1426	0.0016974
1438	0.0009738
1450	0.0007056
1462	0.0004698
1474	0.0003816
1486	0.0004824
1498	0.0009306
1510	0.0013932
1522	0.0008586
1534	0.0005256
1546	0.0004572
1558	0.0005706
1570	0.0006912
1582	0.0005472
1594	0.0008046
1606	0.0016938
1618	0.0019566
1630	0.0009954
1642	0.0007128
1654	0.001071
1666	0.0017082
1678	0.0021636
1690	0.0071496
1702	0.018
1714	0.005544
1726	0.0018018
1738	0.0016722
1750	0.001179
1762	0.0007038
1774	0.0005256
1786	0.0004716
1798	0.000495
1810	0.0005076
1822	0.0004698
1834	0.000342
1846	0.0002232
1858	0.0002034
1870	0.0002106
1882	0.0002952
1894	0.0004266
1906	0.0004806
1918	0.000513
1930	0.0004122
1942	0.0004824
1954	0.0002664
1966	0.0001422
1978	0.0001296
1990	0.000144
2002	0.0001206
2014	0.0001404
2026	0.0001206
2038	0.000135
2050	0.0001152
2062	0.0001044
2074	9.72e-05
2086	0.0001116
2098	0.000135
2110	0.0001026
2122	9.54e-05
2134	7.92e-05
2146	0.000126
2158	9.36e-05
2170	0.000126
2182	8.46e-05
2194	0.0001386
2206	0.0001188
2218	0.0001044
2230	0.0001008
2242	8.46e-05
2254	0.0001008
2266	0.0001188
2278	0.0001188
2290	0.000144
2302	0.0001476
2314	0.0001368
2326	0.0001404
2338	0.0001386
2350	0.0001278
2362	0.0001206
2374	0.0001224
2386	0.0001008
2398	0.0001188
2410	7.56e-05
2422	9.54e-05
2434	0.0001008
2446	0.0001134
2458	0.0001008
2470	0.0001098
2482	0.000144
2494	0.0001044
2506	8.1e-05
2518	6.48e-05
2530	7.2e-05
2542	8.46e-05
2554	8.28e-05
2566	6.3e-05
2578	6.12e-05
2590	9.18e-05
2602	6.66e-05
2614	8.28e-05
2626	8.46e-05
2638	0.0001152
2650	9.9e-05
2662	7.56e-05
2674	5.94e-05
2686	7.92e-05
2698	6.66e-05
2710	1.62e-05
2722	5.4e-06
2734	4.14e-05
2746	7.2e-06
2758	5.22e-05
2770	5.04e-05
2782	5.04e-05
2794	4.68e-05
2806	3.24e-05
2818	6.66e-05
2830	9.18e-05
2842	8.46e-05
2854	0.0001746
2866	0.0001062
2878	0.0001584
2890	0.000144
2902	0.0001656
2914	0.000207
2926	0.0003384
2938	0.0004896
2950	0.0003996
2962	0.0004122
2974	0.0005598
2986	0.0005076
2998	0.000693
3010	0.001494
3022	0.001899
3034	0.0021474
3046	0.0024588
3058	0.0041454
3070	0.0041814
3082	0.002853
3094	0.0016128
3106	0.0007632
3118	0.0005832
3130	0.0003852
3142	0.0002124
3154	0.0001494
3166	0.0001062
3178	0.0001224
3190	0.0001692
3202	0.0001998
3214	0.0001746
3226	9e-05
3238	0.0001044
3250	0.0001062
3262	0.0001224
3274	8.28e-05
3286	0.0001026
3298	0.0001224
3310	0.0001368
3322	0.0001206
3334	0.0001278
3346	0.0001116
3358	0.0001512
3370	0.0002268
3382	0.000342
3394	0.000342
3406	0.0002664
3418	0.000225
3430	0.0001782
3442	0.0001512
3454	0.00018
3466	0.0001404
3478	0.0002394
3490	0.000207
3502	0.0001638
3514	0.0002574
3526	0.0002322
3538	0.0001764
3550	0.0001332
3562	0.0001566
3574	0.000162
3586	0.0002052
3598	0.0002016
3610	0.0001818
3622	0.0001728
3634	0.0002484
3646	0.000216
3658	0.0002394
3670	0.0002682
3682	0.0001962
3694	0.0001926
3706	0.0001962
3718	0.0002034
3730	0.0001944
3742	0.0002682
3754	0.000207
3766	0.0002106
3778	0.000189
3790	0.0002016
3802	0.0002484
3814	0.0002682
3826	0.0001908
3838	0.0002268
