Infrared Spectrum: 3-Methoxyphenethylamine
Formula: C 9 H 13 N O
CAS: 2039-67-0
State: gas
Origin: EPA-IR VAPOR PHASE LIBRARY
1/CM	ABSORBANCE
549.8	0.00503
559.445	0.00529
569.09	0.00509
578.734	0.00451
588.379	0.0038
598.024	0.00372
607.669	0.00366
617.313	0.00402
626.958	0.00414
636.603	0.00428
646.248	0.00457
655.893	0.005
665.537	0.00584
675.182	0.00826
684.827	0.01593
694.472	0.0245
704.116	0.01853
713.761	0.01482
723.406	0.01576
733.051	0.01889
742.695	0.02138
752.34	0.02404
761.985	0.03317
771.63	0.04469
781.275	0.04414
790.919	0.02999
800.564	0.01769
810.209	0.01122
819.854	0.00876
829.498	0.00809
839.143	0.00886
848.788	0.00997
858.433	0.01063
868.078	0.01087
877.722	0.01
887.367	0.00785
897.012	0.0055
906.657	0.00525
916.301	0.00485
925.946	0.00461
935.591	0.00419
945.236	0.00402
954.88	0.00395
964.525	0.00436
974.17	0.00485
983.815	0.00604
993.46	0.00723
1003.1	0.00742
1012.75	0.00845
1022.39	0.01128
1032.04	0.01938
1041.68	0.03159
1051.33	0.03923
1060.97	0.03357
1070.62	0.02234
1080.26	0.01711
1089.91	0.01199
1099.55	0.00816
1109.2	0.006
1118.84	0.00638
1128.49	0.00882
1138.13	0.01635
1147.78	0.03456
1157.42	0.04388
1167.07	0.02887
1176.71	0.01555
1186.36	0.00958
1196	0.00819
1205.64	0.00694
1215.29	0.0087
1224.93	0.01228
1234.58	0.01966
1244.22	0.0381
1253.87	0.06681
1263.51	0.07322
1273.16	0.04905
1282.8	0.03362
1292.45	0.02964
1302.09	0.02452
1311.74	0.01887
1321.38	0.01489
1331.03	0.0123
1340.67	0.01027
1350.32	0.00865
1359.96	0.00764
1369.61	0.00722
1379.25	0.00759
1388.9	0.0072
1398.54	0.00648
1408.18	0.00726
1417.83	0.01008
1427.47	0.01863
1437.12	0.02772
1446.76	0.02614
1456.41	0.02436
1466.05	0.02754
1475.7	0.03458
1485.34	0.04532
1494.99	0.03595
1504.63	0.01509
1514.28	0.00794
1523.92	0.0066
1533.57	0.00657
1543.21	0.00701
1552.86	0.00863
1562.5	0.01356
1572.15	0.02557
1581.79	0.04373
1591.44	0.05752
1601.08	0.06299
1610.73	0.04782
1620.37	0.02695
1630.01	0.01503
1639.66	0.00884
1649.3	0.00576
1658.95	0.00405
1668.59	0.00315
1678.24	0.00268
1687.88	0.00251
1697.53	0.00236
1707.17	0.00249
1716.82	0.00258
1726.46	0.00264
1736.11	0.00242
1745.75	0.00227
1755.4	0.00202
1765.04	0.00185
1774.69	0.00163
1784.33	0.0015
1793.98	0.00156
1803.62	0.00163
1813.27	0.0017
1822.91	0.00186
1832.55	0.00209
1842.2	0.00205
1851.84	0.00176
1861.49	0.00157
1871.13	0.00143
1880.78	0.00135
1890.42	0.00141
1900.07	0.00162
1909.71	0.002
1919.36	0.00204
1929	0.00154
1938.65	0.00108
1948.29	0.0009656
1957.94	0.00101
1967.58	0.00116
1977.23	0.00119
1986.87	0.00118
1996.52	0.00127
2006.16	0.00119
2015.81	0.00118
2025.45	0.00119
2035.1	0.00122
2044.74	0.00126
2054.38	0.00127
2064.03	0.0013
2073.67	0.0014
2083.32	0.00139
2092.96	0.00141
2102.61	0.0014
2112.25	0.00139
2121.9	0.00105
2131.54	0.0009878
2141.19	0.000943
2150.83	0.0008597
2160.48	0.0008466
2170.12	0.0008824
2179.77	0.0008744
2189.41	0.00101
2199.06	0.0009505
2208.7	0.0009619
2218.35	0.0008132
2227.99	0.0006336
2237.64	0.0005431
2247.28	0.0004932
2256.92	0.0004488
2266.57	0.0004751
2276.21	0.0005135
2285.86	0.0006333
2295.5	0.0006945
2305.15	0.0007291
2314.79	0.0008009
2324.44	0.0008857
2334.08	0.0008564
2343.73	0.0006526
2353.37	0.0006919
2363.02	0.000514
2372.66	0.0006058
2382.31	0.0006256
2391.95	0.000709
2401.6	0.0006312
2411.24	0.0008015
2420.89	0.0008578
2430.53	0.0007152
2440.18	0.000726
2449.82	0.0007218
2459.47	0.0006976
2469.11	0.0007105
2478.75	0.0006793
2488.4	0.0007105
2498.04	0.0007877
2507.69	0.0007532
2517.33	0.0008966
2526.98	0.0009113
2536.62	0.0009487
2546.27	0.00103
2555.91	0.00105
2565.56	0.00107
2575.2	0.00101
2584.85	0.0009819
2594.49	0.00106
2604.14	0.00115
2613.78	0.0009963
2623.43	0.00103
2633.07	0.00106
2642.72	0.00115
2652.36	0.00104
2662.01	0.00115
2671.65	0.00107
2681.29	0.00126
2690.94	0.0013
2700.58	0.0014
2710.23	0.00168
2719.87	0.00166
2729.52	0.00204
2739.16	0.00214
2748.81	0.00219
2758.45	0.00227
2768.1	0.0024
2777.74	0.00256
2787.39	0.00285
2797.03	0.00335
2806.68	0.00421
2816.32	0.00576
2825.97	0.00923
2835.61	0.01678
2845.26	0.02407
2854.9	0.02469
2864.55	0.02196
2874.19	0.01987
2883.84	0.01888
2893.48	0.01878
2903.12	0.02229
2912.77	0.03041
2922.41	0.038
2932.06	0.04336
2941.7	0.0504
2951.35	0.04597
2960.99	0.02996
2970.64	0.01782
2980.28	0.01246
2989.93	0.01259
2999.57	0.01792
3009.22	0.01844
3018.86	0.01282
3028.51	0.01216
3038.15	0.01303
3047.8	0.0133
3057.44	0.01332
3067.09	0.01284
3076.73	0.01174
3086.38	0.0088
3096.02	0.0058
3105.67	0.00392
3115.31	0.00277
3124.95	0.00186
3134.6	0.00119
3144.24	0.00117
3153.89	0.0009654
3163.53	0.0008306
3173.18	0.0008966
3182.82	0.0006344
3192.47	0.0006905
3202.11	0.0005172
3211.76	0.0007677
3221.4	0.0005409
3231.05	0.0006969
3240.69	0.000462
3250.34	0.0004518
3259.98	0.0004167
3269.63	0.0005048
3279.27	0.000478
3288.92	0.0003629
3298.56	0.0003826
3308.21	0.0004314
3317.85	0.0004622
3327.49	0.000452
3337.14	0.0008386
3346.78	0.0008606
3356.43	0.0007502
3366.07	0.0005699
3375.72	0.0005662
3385.36	0.000613
3395.01	0.000684
3404.65	0.0006166
3414.3	0.0009317
3423.94	0.0008072
3433.59	0.0005507
3443.23	0.0005676
3452.88	0.0004854
3462.52	0.000442
3472.17	0.0004916
3481.81	0.0004027
3491.46	0.0004036
3501.1	0.0004611
3510.75	0.0004125
3520.39	0.0004958
3530.04	0.0004989
3539.68	0.0003934
3549.32	0.0004868
3558.97	0.0006622
3568.61	0.0003231
3578.26	0.000252
3587.9	0.0004035
3597.55	0.0004981
3607.19	0.0004419
3616.84	0.0005429
3626.48	0.0003364
3636.13	0.0006082
3645.77	0.0004303
3655.42	0.000289
3665.06	0.0003656
3674.71	0.0003881
3684.35	0.0003452
3694	0.0005691
3703.64	0.0004535
3713.29	0.0004136
3722.93	0.0004734
3732.58	0.0005892
3742.22	0.0005604
3751.86	0.000446
3761.51	0.000559
3771.15	0.0005074
3780.8	0.0005813
3790.44	0.0004058
3800.09	0.0003802
3809.73	0.0005478
3819.38	0.0003322
3829.02	0.0004408
3838.67	0.0001521
3848.31	0.0003342
3857.96	0.0004548
3867.6	0.000582
3877.25	0.0005656
3886.89	0.0003876
3896.54	0.0006841
3906.18	0.0007323
3915.83	0.0007232
3925.47	0.000612
3935.12	0.000592
3944.76	0.0006171
3954.41	0.0004875
3964.05	0.0007556
3973.69	0.0007971
3983.34	0.0006219
3992.98	0.0007172
