Infrared Spectrum: 2,5-Dimethylstyrene
Formula: C 10 H 12
CAS: 2039-89-6
State: gas
Instrument: HP-GC/MS/IRD
Origin: NIST Mass Spectrometry Data Center
1/CM	ABSORBANCE
550	0.0003173
562	0.0004047
574	0.0002299
586	4.18e-05
598	5.32e-05
610	2.66e-05
622	0.0001577
634	0.000399
646	0.0006954
658	0.0007448
670	0.0003952
682	0.000285
694	0.0002736
706	0.0003952
718	0.0002299
730	1.33e-05
742	0.0001235
754	0.0002413
766	0.0003325
778	0.0007657
790	0.0030837
802	0.0086108
814	0.0095456
826	0.0052706
838	0.0019076
850	0.0012236
862	0.0021071
874	0.0032319
886	0.0038798
898	0.0055632
910	0.009937
922	0.0078185
934	0.0044061
946	0.00323
958	0.0032319
970	0.0036347
982	0.0052155
994	0.0051319
1006	0.003458
1018	0.0025935
1030	0.0024073
1042	0.0022686
1054	0.0014288
1066	0.0007923
1078	0.000475
1090	0.0004883
1102	0.0006726
1114	0.0006555
1126	0.0005339
1138	0.0005263
1150	0.0011533
1162	0.001311
1174	0.0005339
1186	0.0001102
1198	0.0002489
1210	0.0004313
1222	0.0005491
1234	0.0007486
1246	0.0007011
1258	0.0005035
1270	0.0006707
1282	0.0010013
1294	0.0010051
1306	0.000627
1318	0.0005491
1330	0.0005852
1342	0.0007258
1354	0.0008664
1366	0.001216
1378	0.0019741
1390	0.0025004
1402	0.0025992
1414	0.0037791
1426	0.0042864
1438	0.0039292
1450	0.0041591
1462	0.0043548
1474	0.0048659
1486	0.00836
1498	0.0110409
1510	0.0062852
1522	0.0028595
1534	0.0021774
1546	0.0021717
1558	0.0023997
1570	0.0024073
1582	0.0021546
1594	0.0027398
1606	0.0050046
1618	0.0066975
1630	0.0054701
1642	0.0025935
1654	0.0010393
1666	0.0006175
1678	0.0005225
1690	0.0004161
1702	0.0002945
1714	0.0002945
1726	0.0004484
1738	0.0006992
1750	0.000779
1762	0.0006289
1774	0.00038
1786	0.0002831
1798	0.0003306
1810	0.0007163
1822	0.0017195
1834	0.0021147
1846	0.0011704
1858	0.0005396
1870	0.0006384
1882	0.0009614
1894	0.0008208
1906	0.0003705
1918	0.0002242
1930	0.000152
1942	0.000152
1954	0.0001767
1966	0.0002204
1978	0.0001672
1990	0.0001083
2002	7.03e-05
2014	4.56e-05
2026	3.04e-05
2038	4.56e-05
2050	3.04e-05
2062	2.66e-05
2074	4.75e-05
2086	5.51e-05
2098	6.65e-05
2110	6.65e-05
2122	6.84e-05
2134	6.27e-05
2146	7.03e-05
2158	1.9e-05
2170	3.04e-05
2182	2.66e-05
2194	7.6e-06
2206	1.14e-05
2218	2.66e-05
2230	1.33e-05
2242	3.23e-05
2254	5.51e-05
2266	7.03e-05
2278	8.74e-05
2290	0.0001197
2302	0.000133
2314	0.0001482
2326	0.0001387
2338	0.0001368
2350	0.0001406
2362	0.0001349
2374	0.0001254
2386	0.0001311
2398	0.0001634
2410	0.0001577
2422	0.000171
2434	0.0001957
2446	0.0001976
2458	0.0001596
2470	0.0001824
2482	0.0002014
2494	0.0001634
2506	0.0001558
2518	0.0001463
2530	0.0001501
2542	0.0001634
2554	0.0001748
2566	9.5e-05
2578	0.0001463
2590	0.0001406
2602	0.0001634
2614	0.0001729
2626	0.0001539
2638	0.0001843
2650	0.0001672
2662	0.0001786
2674	0.0002413
2686	0.0002033
2698	0.0002432
2710	0.0003192
2722	0.0004769
2734	0.0008132
2746	0.0009804
2758	0.0006536
2770	0.0004978
2782	0.0005016
2794	0.0006726
2806	0.0008987
2818	0.0011343
2830	0.001596
2842	0.0023579
2854	0.0041059
2866	0.0072998
2878	0.0095475
2890	0.0089072
2902	0.00855
2914	0.0106913
2926	0.0170677
2938	0.0183331
2950	0.0123975
2962	0.0095874
2974	0.0096235
2986	0.0106761
2998	0.0124868
3010	0.016701
3022	0.0178068
3034	0.0139384
3046	0.011932
3058	0.0101821
3070	0.0079002
3082	0.0079876
3094	0.0091181
3106	0.0050597
3118	0.002489
3130	0.0015105
3142	0.0009253
3154	0.0006327
3166	0.000475
3178	0.0003724
3190	0.0002831
3202	0.0002869
3214	0.000285
3226	0.0002565
3238	0.0002546
3250	0.0002793
3262	0.0002223
3274	0.0001463
3286	0.0001596
3298	0.0001691
3310	0.0001767
3322	0.0001938
3334	0.0001558
3346	0.0001102
3358	0.0001159
3370	0.0001482
3382	8.55e-05
3394	0.0001045
3406	0.0001672
3418	0.0001083
3430	8.36e-05
3442	3.04e-05
3454	6.46e-05
3466	3.42e-05
3478	0.0001026
3490	7.98e-05
3502	6.27e-05
3514	3.23e-05
3526	7.79e-05
3538	5.32e-05
3550	3.8e-06
3562	3.99e-05
3574	0
3586	7.98e-05
3598	7.6e-05
3610	0.0001083
3622	6.27e-05
3634	7.6e-05
3646	0.0001007
3658	2.28e-05
3670	1.71e-05
3682	0.0001121
3694	0.0001064
3706	0.0001786
3718	0.0001216
3730	0.0001748
3742	0.0002033
3754	0.0001729
3766	9.31e-05
3778	0.0001805
3790	0.0001178
3802	0.0001368
3814	0.0001178
3826	0.0001406
3838	0.0001425
