Infrared Spectrum: 2,3,5,6-TETRAMETHYLSTYRENE
Formula: C12 H16
CAS: 2039-91-0
Melting point: 34.1 C
Boiling point: 104 C AT 7.5 mmHg
Class: COBLENTZ
Instrument: PERKIN-ELMER
Sampling: TRANSMISSION
Path length: FILM
Resolution: 4
Origin: UNION CARBIDE CORPORATION (CARBON PRODUCTS DIVISION)
MICROMETERS	TRANSMITTANCE
2.04	0.906
2.07373	0.905
2.10746	0.906
2.1412	0.906
2.17493	0.906
2.20866	0.905
2.24239	0.901
2.27613	0.872
2.30986	0.833
2.34359	0.827
2.37732	0.85
2.41105	0.879
2.44479	0.886
2.47852	0.879
2.51225	0.889
2.54598	0.889
2.57972	0.889
2.61345	0.898
2.64718	0.91
2.68091	0.911
2.71465	0.913
2.74838	0.915
2.78211	0.913
2.81584	0.903
2.84957	0.9
2.88331	0.893
2.91704	0.889
2.95077	0.893
2.9845	0.898
3.01824	0.9
3.05197	0.898
3.0857	0.9
3.11943	0.898
3.15316	0.886
3.1869	0.852
3.22063	0.769
3.25436	0.522
3.28809	0.501
3.32183	0.252
3.35556	0.174
3.38929	0.127
3.42302	0.086
3.45675	0.128
3.49049	0.21
3.52422	0.552
3.55795	0.718
3.59168	0.784
3.62542	0.798
3.65915	0.783
3.69288	0.844
3.72661	0.881
3.76035	0.894
3.79408	0.9
3.82781	0.906
3.86154	0.911
3.89527	0.911
3.92901	0.913
3.96274	0.913
3.99647	0.911
4.0302	0.905
4.06394	0.896
4.09767	0.896
4.1314	0.896
4.16513	0.896
4.19886	0.896
4.2326	0.898
4.26633	0.896
4.30006	0.898
4.33379	0.9
4.36753	0.9
4.40126	0.903
4.43499	0.903
4.46872	0.901
4.50245	0.901
4.53619	0.901
4.56992	0.901
4.60365	0.9
4.63738	0.9
4.67112	0.9
4.70485	0.9
4.73858	0.903
4.77231	0.9
4.80605	0.9
4.83978	0.9
4.87351	0.9
4.90724	0.896
4.94097	0.893
4.97471	0.893
5.00844	0.894
5.04217	0.888
5.0759	0.883
5.10964	0.884
5.14337	0.886
5.1771	0.884
5.21083	0.883
5.24456	0.871
5.2783	0.866
5.31203	0.862
5.34576	0.857
5.37949	0.827
5.41323	0.796
5.44696	0.8
5.48069	0.849
5.51442	0.866
5.54816	0.872
5.58189	0.869
5.61562	0.862
5.64935	0.849
5.68308	0.833
5.71682	0.811
5.75055	0.783
5.78428	0.744
5.81801	0.767
5.85175	0.784
5.88548	0.788
5.91921	0.793
5.95294	0.806
5.98667	0.808
6.02041	0.805
6.05414	0.793
6.08787	0.662
6.1216	0.486
6.15534	0.644
6.18907	0.672
6.2228	0.618
6.25653	0.642
6.29026	0.657
6.324	0.649
6.35773	0.647
6.39146	0.65
6.42519	0.669
6.45893	0.686
6.49266	0.688
6.52639	0.684
6.56012	0.669
6.59386	0.618
6.62759	0.577
6.66132	0.501
6.69505	0.427
6.72878	0.277
6.76252	0.162
6.79625	0.076
6.82998	0.096
6.86371	0.132
6.89745	0.149
6.93118	0.191
6.96491	0.31
6.99864	0.403
7.03237	0.415
7.06611	0.466
7.09984	0.515
7.13357	0.522
7.1673	0.454
7.20104	0.31
7.23477	0.325
7.2685	0.425
7.30223	0.577
7.33596	0.645
7.3697	0.676
7.40343	0.698
7.43716	0.718
7.47089	0.733
7.50463	0.744
7.53836	0.75
7.57209	0.755
7.60582	0.759
7.63956	0.755
7.67329	0.727
7.70702	0.686
7.74075	0.688
7.77448	0.716
7.80822	0.759
7.84195	0.774
7.87568	0.777
7.90941	0.779
7.94315	0.789
7.97688	0.8
8.01061	0.8
8.04434	0.788
8.07807	0.771
8.11181	0.774
8.14554	0.769
8.17927	0.735
8.213	0.744
8.24674	0.764
8.28047	0.777
8.3142	0.788
8.34793	0.793
8.38166	0.793
8.4154	0.793
8.44913	0.791
8.48286	0.786
8.51659	0.784
8.55033	0.779
8.58406	0.777
8.61779	0.783
8.65152	0.789
8.68526	0.791
8.71899	0.796
8.75272	0.796
8.78645	0.796
8.82018	0.796
8.85392	0.794
8.88765	0.794
8.92138	0.791
8.95511	0.788
8.98885	0.784
9.02258	0.777
9.05631	0.767
9.09004	0.75
9.12377	0.742
9.15751	0.735
9.19124	0.716
9.22497	0.701
9.2587	0.686
9.29244	0.659
9.32617	0.63
9.3599	0.623
9.39363	0.64
9.42736	0.664
9.4611	0.679
9.49483	0.681
9.52856	0.677
9.56229	0.654
9.59603	0.62
9.62976	0.574
9.66349	0.549
9.69722	0.525
9.73096	0.501
9.76469	0.471
9.79842	0.406
9.83215	0.354
9.86588	0.281
9.89962	0.25
9.93335	0.24
9.96708	0.232
10.0008	0.228
10.0345	0.227
10.0683	0.23
10.102	0.335
10.1357	0.452
10.1695	0.552
10.2032	0.615
10.2369	0.642
10.2707	0.661
10.3044	0.681
10.3381	0.693
10.3719	0.703
10.4056	0.706
10.4393	0.708
10.4731	0.708
10.5068	0.708
10.5405	0.71
10.5743	0.701
10.608	0.688
10.6417	0.65
10.6755	0.586
10.7092	0.51
10.7429	0.423
10.7767	0.3
10.8104	0.223
10.8441	0.166
10.8779	0.147
10.9116	0.181
10.9453	0.327
10.979	0.45
11.0128	0.527
11.0465	0.562
11.0802	0.601
11.114	0.642
11.1477	0.661
11.1814	0.671
11.2152	0.686
11.2489	0.689
11.2826	0.686
11.3164	0.666
11.3501	0.63
11.3838	0.586
11.4176	0.53
11.4513	0.5
11.485	0.444
11.5188	0.355
11.5525	0.286
11.5862	0.276
11.62	0.349
11.6537	0.472
11.6874	0.606
11.7212	0.677
11.7549	0.716
11.7886	0.744
11.8224	0.761
11.8561	0.772
11.8898	0.776
11.9236	0.777
11.9573	0.777
11.991	0.781
12.0247	0.788
12.0585	0.793
12.0922	0.8
12.1259	0.803
12.1597	0.805
12.1934	0.806
12.2271	0.808
12.2609	0.806
12.2946	0.808
12.3283	0.808
12.3621	0.806
12.3958	0.805
12.4295	0.803
12.4633	0.8
12.497	0.789
12.5307	0.781
12.5645	0.786
12.5982	0.793
12.6319	0.794
12.6657	0.788
12.6994	0.75
12.7331	0.681
12.7669	0.627
12.8006	0.655
12.8343	0.713
12.8681	0.749
12.9018	0.772
12.9355	0.783
12.9693	0.793
13.003	0.8
13.0367	0.8
13.0704	0.803
13.1042	0.805
13.1379	0.805
13.1716	0.803
13.2054	0.801
13.2391	0.798
13.2728	0.786
13.3066	0.776
13.3403	0.761
13.374	0.749
13.4078	0.745
13.4415	0.749
13.4752	0.752
13.509	0.762
13.5427	0.766
13.5764	0.769
13.6102	0.771
13.6439	0.772
13.6776	0.771
13.7114	0.769
13.7451	0.771
13.7788	0.769
13.8126	0.771
13.8463	0.769
13.88	0.767
13.9138	0.761
13.9475	0.749
13.9812	0.725
14.015	0.718
14.0487	0.725
14.0824	0.733
14.1161	0.737
14.1499	0.738
14.1836	0.738
14.2173	0.735
14.2511	0.733
14.2848	0.73
14.3185	0.725
14.3523	0.713
14.386	0.71
14.4197	0.698
14.4535	0.698
14.4872	0.694
14.5209	0.688
14.5547	0.683
14.5884	0.667
14.6221	0.65
14.6559	0.623
14.6896	0.591
14.7233	0.577
14.7571	0.577
14.7908	0.579
14.8245	0.579
14.8583	0.577
14.892	0.567
14.9257	0.552
14.9595	0.544
14.9932	0.516
15.0269	0.476
15.0607	0.466
15.0944	0.457
15.1281	0.461
15.1618	0.471
15.1956	0.496
15.2293	0.513
15.263	0.522
15.2968	0.532
15.3305	0.545
15.3642	0.554
15.398	0.557
15.4317	0.561
