Infrared Spectrum: 3-Chlorostyrene
Formula: C8 H7 Cl
CAS: 2039-85-2
State: SOLUTION (10% CCl4 FOR 3800-1330, 10% CS2 FOR 1330-400 CM^-^1)
Class: COBLENTZ III
Instrument: BECKMAN IR-9 (GRATING)
Instrument parameters: ORDER CHANGES: 670, 1200, 2000 CM^-^1
Sampling: TRANSMISSION
Path length: 0.011 CM, 0.011 CM
Resolution: 2
Origin: DOW CHEMICAL COMPANY
1/CM	TRANSMITTANCE
3800	0.8589
3791	0.8567
3782	0.854
3773	0.8537
3764	0.8544
3755	0.8553
3746	0.855
3737	0.8544
3728	0.8539
3719	0.8547
3710	0.856
3701	0.8565
3692	0.8568
3683	0.857
3674	0.8574
3665	0.8577
3656	0.8581
3647	0.8583
3638	0.8585
3629	0.8587
3620	0.8589
3611	0.8592
3602	0.8594
3593	0.8596
3584	0.8599
3575	0.8601
3566	0.8604
3557	0.8607
3548	0.861
3539	0.8613
3530	0.8617
3521	0.8618
3512	0.8623
3503	0.8625
3494	0.8628
3485	0.8632
3476	0.8635
3467	0.8638
3458	0.8641
3449	0.8644
3440	0.8648
3431	0.8651
3422	0.8655
3413	0.8658
3404	0.8661
3395	0.8664
3386	0.8667
3377	0.8668
3368	0.8671
3359	0.8674
3350	0.8677
3341	0.8678
3332	0.8681
3323	0.8682
3314	0.8684
3305	0.8685
3296	0.8684
3287	0.8681
3278	0.8678
3269	0.8675
3260	0.8671
3251	0.8667
3242	0.8663
3233	0.8655
3224	0.8646
3215	0.8637
3206	0.8631
3197	0.8621
3188	0.8613
3179	0.8605
3170	0.8599
3161	0.8575
3152	0.8552
3143	0.8527
3134	0.8491
3125	0.8455
3116	0.8349
3107	0.806
3098	0.6856
3089	0.5797
3080	0.6992
3071	0.6379
3062	0.6274
3053	0.7328
3044	0.7428
3035	0.7415
3026	0.7326
3017	0.6844
3008	0.6726
2999	0.7522
2990	0.7271
2981	0.776
2972	0.827
2963	0.8378
2954	0.8391
2945	0.8382
2936	0.8364
2927	0.8367
2918	0.8413
2909	0.8481
2900	0.8539
2891	0.8592
2882	0.863
2873	0.8613
2864	0.8588
2855	0.8601
2846	0.8618
2837	0.8632
2828	0.8641
2819	0.8636
2810	0.8617
2801	0.8578
2792	0.8575
2783	0.8586
2774	0.8594
2765	0.8596
2756	0.8599
2747	0.8601
2738	0.8606
2729	0.861
2720	0.8616
2711	0.8618
2702	0.8618
2693	0.8618
2684	0.8618
2675	0.8614
2666	0.8612
2657	0.8607
2648	0.8603
2639	0.8599
2630	0.8594
2621	0.8589
2612	0.8587
2603	0.8589
2594	0.8609
2585	0.863
2576	0.8652
2567	0.8666
2558	0.8677
2549	0.8678
2540	0.8662
2531	0.8644
2522	0.8634
2513	0.8621
2504	0.8613
2495	0.8616
2486	0.8638
2477	0.8656
2468	0.866
2459	0.8656
2450	0.865
2441	0.8636
2432	0.8618
2423	0.8592
2414	0.8567
2405	0.8552
2396	0.8543
2387	0.8536
2378	0.8532
2369	0.8533
2360	0.8499
2351	0.846
2342	0.8447
2333	0.848
2324	0.8494
2315	0.8485
2306	0.8492
2297	0.8505
2288	0.8531
2279	0.8561
2270	0.8595
2261	0.8633
2252	0.867
2243	0.8705
2234	0.8731
2225	0.875
2216	0.8759
2207	0.8764
2198	0.8765
2189	0.8766
2180	0.8768
2171	0.8768
2162	0.877
2153	0.8768
2144	0.8762
2135	0.8756
2126	0.8756
2117	0.8755
2108	0.8753
2099	0.8747
2090	0.8742
2081	0.8738
2072	0.8738
2063	0.8738
2054	0.8724
2045	0.8717
2036	0.8712
2027	0.8709
2018	0.8706
2009	0.8702
2000	0.8684
1991	0.8681
1982	0.8647
1973	0.8541
1964	0.8568
1955	0.8603
1946	0.8542
1937	0.8044
1928	0.8247
1919	0.8633
1910	0.868
1901	0.8659
1892	0.8618
1883	0.8556
1874	0.845
1865	0.7901
1856	0.8255
1847	0.8101
1838	0.7395
1829	0.7422
1820	0.827
1811	0.8411
1802	0.8292
1793	0.8172
1784	0.8349
1775	0.8386
1766	0.8164
1757	0.8196
1748	0.8432
1739	0.8539
1730	0.8531
1721	0.8646
1712	0.8628
1703	0.8324
1694	0.814
1685	0.8065
1676	0.8378
1667	0.8554
1658	0.8507
1649	0.8433
1640	0.8035
1631	0.6297
1622	0.7293
1613	0.7396
1604	0.6318
1595	0.1607
1586	0.4402
1577	0.3842
1568	0.0651
1559	0.2889
1550	0.3816
1541	0.4583
1532	0.5439
1523	0.6016
1514	0.6519
1505	0.696
1496	0.6799
1487	0.5396
1478	0.2755
1469	0.387
1460	0.7761
1451	0.8186
1442	0.8207
1433	0.7454
1424	0.6551
1415	0.4189
1406	0.6578
1397	0.5946
1388	0.7572
1379	0.8221
1370	0.8432
1361	0.8574
1352	0.8674
1343	0.8596
1334	0.8537
1325	0.8484
1316	0.8406
1307	0.7899
1298	0.8114
1289	0.8377
1280	0.7935
1271	0.7699
1262	0.7491
1253	0.836
1244	0.8639
1235	0.8592
1226	0.8471
1217	0.7753
1208	0.5916
1199	0.3672
1190	0.8294
1181	0.8404
1172	0.8211
1163	0.7439
1154	0.8501
1145	0.8544
1136	0.8547
1127	0.8555
1118	0.8373
1109	0.7034
1100	0.6348
1091	0.5773
1082	0.3495
1073	0.705
1064	0.7611
1055	0.8012
1046	0.7169
1037	0.6958
1028	0.7358
1019	0.8046
1010	0.7882
1001	0.6274
992	0.6362
983	0.2332
974	0.7681
965	0.8082
956	0.8313
947	0.821
938	0.7926
929	0.724
920	0.43
911	0.0684
902	0.5438
893	0.6683
884	0.3081
875	0.4733
866	0.6524
857	0.6052
848	0.2577
839	0.392
830	0.6934
821	0.7945
812	0.7992
803	0.7683
794	0.5025
785	0.0339
776	0.7255
767	0.8293
758	0.8537
749	0.8803
740	0.8727
731	0.8661
722	0.8318
713	0.3602
704	0.4922
695	0.7654
686	0.4336
677	0.7671
668	0.7881
659	0.7075
650	0.4854
641	0.7235
632	0.8701
623	0.8903
614	0.8983
605	0.9021
596	0.8999
587	0.894
578	0.8728
569	0.8485
560	0.8431
551	0.8584
542	0.8783
533	0.8794
524	0.8797
515	0.8737
506	0.8627
497	0.8515
488	0.8383
479	0.8161
470	0.79
461	0.7343
452	0.6843
443	0.6338
434	0.4715
425	0.415
416	0.413
407	0.4736
