Infrared Spectrum: BENZENE, 1-CHLORO-2-ETHENYL-
Formula: C8 H7 Cl
CAS: 2039-87-4
State: SOLUTION (10% IN CCl4 FOR 3800-1330 AND 10% IN CS2 FOR 1330-460 CM^-^1)
Class: COBLENTZ III
Instrument: DOW KBr FOREPRISM-GRATING
Instrument parameters: BLAZED AT 3.5, 12.0, 20.0 MICRON, CHANGED AT 5.0, 7.5, 14.9 MICRON
Sampling: TRANSMISSION
Path length: 0.010, 0.011 CM
Resolution: 4
Origin: DOW CHEMICAL COMPANY
1/CM	TRANSMITTANCE
457.36	0.884
466.051	0.891
474.742	0.905
483.433	0.923
492.124	0.94
500.815	0.948
509.506	0.952
518.197	0.957
526.888	0.968
535.579	0.979
544.27	0.982
552.96	0.983
561.651	0.978
570.342	0.956
579.033	0.885
587.724	0.982
596.415	1.001
605.106	1.008
613.797	1.006
622.488	1
631.179	0.989
639.87	0.968
648.561	0.945
657.252	0.946
665.943	0.961
674.634	0.903
683.325	0.234
692.016	0.922
700.707	0.98
709.398	0.983
718.089	0.974
726.78	0.903
735.471	0.092
744.161	0.708
752.852	0.536
761.543	0.01
770.234	0.581
778.925	0.869
787.616	0.833
796.307	0.835
804.998	0.978
813.689	0.998
822.38	0.991
831.071	0.957
839.762	0.955
848.453	0.871
857.144	0.794
865.835	0.841
874.526	0.882
883.217	0.907
891.908	0.914
900.599	0.852
909.29	0.2519
917.981	0.2532
926.672	0.742
935.362	0.851
944.053	0.874
952.744	0.933
961.435	0.92
970.126	0.8459
978.817	0.745
987.508	0.2131
996.199	0.797
1004.89	0.888
1013.58	0.835
1022.27	0.792
1030.96	0.784
1039.65	0.2559
1048.34	0.3701
1057.04	0.767
1065.73	0.851
1074.42	0.933
1083.11	0.945
1091.8	0.934
1100.49	0.976
1109.18	0.976
1117.87	0.956
1126.56	0.5729
1135.25	0.925
1143.95	0.967
1152.64	0.956
1161.33	0.959
1170.02	0.983
1178.71	0.978
1187.4	0.979
1196.09	0.934
1204.78	0.858
1213.47	1.009
1222.16	1.024
1230.85	1.027
1239.55	1.021
1248.24	1.008
1256.93	0.985
1265.62	0.965
1274.31	0.899
1283	0.892
1291.69	0.961
1300.38	0.965
1309.07	0.965
1317.76	0.986
1326.46	0.985
1335.15	0.982
1343.84	0.978
1352.53	0.961
1361.22	0.959
1369.91	0.965
1378.6	0.976
1387.29	0.967
1395.98	0.933
1404.67	0.862
1413.36	0.647
1422.06	0.6211
1430.75	0.7519
1439.44	0.25
1448.13	0.7651
1456.82	0.831
1465.51	0.6029
1474.2	0.268
1482.89	0.6791
1491.58	0.829
1500.27	0.85
1508.97	0.821
1517.66	0.78
1526.35	0.731
1535.04	0.658
1543.73	0.574
1552.42	0.536
1561.11	0.564
1569.8	0.647
1578.49	0.7
1587.18	0.681
1595.87	0.5831
1604.57	0.854
1613.26	0.891
1621.95	0.806
1630.64	0.5963
1639.33	0.953
1648.02	0.985
1656.71	0.987
1665.4	0.99
1674.09	0.982
1682.78	0.985
1691.48	0.987
1700.17	0.971
1708.86	0.968
1717.55	0.978
1726.24	0.97
1734.93	0.983
1743.62	0.987
1752.31	0.987
1761	0.99
1769.69	0.99
1778.39	0.989
1787.08	0.98
1795.77	0.938
1804.46	0.944
1813.15	0.961
1821.84	0.938
1830.53	0.851
1839.22	0.852
1847.91	0.926
1856.6	0.957
1865.29	0.971
1873.99	0.968
1882.68	0.945
1891.37	0.971
1900.06	0.968
1908.75	0.925
1917.44	0.931
1926.13	0.97
1934.82	0.967
1943.51	0.915
1952.2	0.961
1960.9	0.967
1969.59	0.97
1978.28	0.976
1986.97	0.975
1995.66	0.983
2004.35	0.99
2013.04	0.991
2021.73	0.99
2030.42	0.993
2039.11	0.994
2047.8	0.994
2056.5	0.995
2065.19	0.995
2073.88	0.991
2082.57	0.998
2091.26	0.998
2099.95	0.998
2108.64	0.9986
2117.33	0.998
2126.02	0.998
2134.71	0.998
2143.41	0.998
2152.1	0.998
2160.79	0.997
2169.48	0.997
2178.17	0.997
2186.86	0.997
2195.55	0.997
2204.24	0.994
2212.93	0.994
2221.62	0.994
2230.31	0.993
2239.01	0.991
2247.7	0.9896
2256.39	0.9842
2265.08	0.982
2273.77	0.9786
2282.46	0.9716
2291.15	0.968
2299.84	0.9714
2308.53	0.9784
2317.22	0.9794
2325.92	0.986
2334.61	0.991
2343.3	0.995
2351.99	1
2360.68	0.998
2369.37	0.995
2378.06	0.9936
2386.75	0.9906
2395.44	0.99
2404.13	0.989
2412.82	0.989
2421.52	0.9896
2430.21	0.989
2438.9	0.9877
2447.59	0.99
2456.28	0.99
2464.97	0.99
2473.66	0.991
2482.35	0.99
2491.04	0.99
2499.73	0.989
2508.43	0.987
2517.12	0.989
2525.81	0.989
2534.5	0.987
2543.19	0.9867
2551.88	0.985
2560.57	0.9823
2569.26	0.9853
2577.95	0.987
2586.64	0.987
2595.33	0.9867
2604.03	0.9844
2612.72	0.9827
2621.41	0.985
2630.1	0.985
2638.79	0.985
2647.48	0.987
2656.17	0.989
2664.86	0.99
2673.55	0.989
2682.24	0.989
2690.94	0.99
2699.63	0.989
2708.32	0.9893
2717.01	0.989
2725.7	0.9893
2734.39	0.9897
2743.08	0.989
2751.77	0.989
2760.46	0.99
2769.15	0.99
2777.84	0.99
2786.54	0.99
2795.23	0.991
2803.92	0.99
2812.61	0.99
2821.3	0.99
2829.99	0.99
2838.68	0.989
2847.37	0.9868
2856.06	0.985
2864.75	0.979
2873.45	0.9782
2882.14	0.9827
2890.83	0.9843
2899.52	0.9788
2908.21	0.9748
2916.9	0.975
2925.59	0.9748
2934.28	0.967
2942.97	0.968
2951.66	0.9678
2960.35	0.9594
2969.05	0.944
2977.74	0.9306
2986.43	0.9048
2995.12	0.9086
3003.81	0.912
3012.5	0.9019
3021.19	0.8473
3029.88	0.8307
3038.57	0.8932
3047.26	0.8961
3055.96	0.798
3064.65	0.7045
3073.34	0.6881
3082.03	0.799
3090.72	0.7429
3099.41	0.7417
3108.1	0.9246
3116.79	0.9553
3125.48	0.9627
3134.17	0.9641
3142.86	0.9743
3151.56	0.9803
3160.25	0.9833
3168.94	0.986
3177.63	0.9887
3186.32	0.9873
3195.01	0.99
3203.7	0.991
3212.39	0.993
3221.08	0.9912
3229.77	0.9931
3238.47	0.994
3247.16	0.993
3255.85	0.997
3264.54	0.995
3273.23	0.9971
3281.92	0.998
3290.61	0.998
3299.3	0.998
3307.99	1
3316.68	0.998
3325.37	0.9968
3334.07	0.995
3342.76	0.997
3351.45	1
3360.14	0.9998
3368.83	0.9981
3377.52	0.998
3386.21	0.998
3394.9	1
3403.59	1
3412.28	0.998
3420.98	1
3429.67	1
3438.36	1
3447.05	1
3455.74	0.998
3464.43	0.998
3473.12	0.997
3481.81	0.997
3490.5	0.997
3499.19	0.995
3507.88	0.995
3516.58	0.997
3525.27	0.998
3533.96	0.998
3542.65	0.998
3551.34	0.997
3560.03	0.997
3568.72	0.997
3577.41	0.987
3586.1	0.995
3594.79	0.997
3603.49	0.99
3612.18	0.997
3620.87	1
3629.56	0.998
3638.25	0.997
3646.94	0.998
3655.63	1
3664.32	1.001
3673.01	1.001
3681.7	0.9981
3690.39	0.998
3699.09	0.995
3707.78	0.9999
3716.47	1.001
3725.16	1.001
3733.85	1.002
3742.54	1
3751.23	0.997
3759.92	0.995
3768.61	0.995
3777.3	1.001
3786	1.0039
