Infrared Spectrum: 2-Phenyl-1-butene
Formula: C 10 H 12
CAS: 2039-93-2
State: gas
Instrument: HP-GC/MS/IRD
Origin: NIST Mass Spectrometry Data Center
1/CM	ABSORBANCE
550	0.0003252
562	0.000378
574	0.0003912
586	0.0002736
598	0.0002592
610	0.0003288
622	0.0004572
634	0.0005136
646	0.0006096
658	0.0009372
670	0.0018588
682	0.0043548
694	0.0086328
706	0.0088176
718	0.004524
730	0.0021816
742	0.0017112
754	0.0029412
766	0.00543
778	0.004938
790	0.0021372
802	0.0009624
814	0.0005052
826	0.000378
838	0.000342
850	0.0005052
862	0.0009636
874	0.001932
886	0.0044352
898	0.0082092
910	0.0054936
922	0.0018408
934	0.0006672
946	0.0003408
958	0.0003156
970	0.000306
982	0.000342
994	0.0005196
1006	0.00084
1018	0.0015636
1030	0.0017196
1042	0.0008988
1054	0.0010116
1066	0.0012648
1078	0.001308
1090	0.0009
1102	0.0007536
1114	0.000546
1126	0.000288
1138	0.000138
1150	0.000138
1162	4.68e-05
1174	9.12e-05
1186	0.0001236
1198	9.72e-05
1210	3.24e-05
1222	0.0001488
1234	0.000288
1246	0.0003228
1258	0.0005004
1270	0.0007176
1282	0.0010152
1294	0.0013404
1306	0.0010248
1318	0.000636
1330	0.0005376
1342	0.0005196
1354	0.0006312
1366	0.0010056
1378	0.00144
1390	0.0013896
1402	0.0012372
1414	0.001386
1426	0.0017544
1438	0.0022896
1450	0.0027432
1462	0.0029016
1474	0.002646
1486	0.003252
1498	0.0031416
1510	0.0012132
1522	0.0007188
1534	0.0006504
1546	0.0005904
1558	0.000696
1570	0.0010776
1582	0.0014508
1594	0.0021612
1606	0.0022728
1618	0.002508
1630	0.003054
1642	0.0020364
1654	0.0007968
1666	0.0004512
1678	0.0004596
1690	0.0003336
1702	0.0002196
1714	0.0002028
1726	0.0002652
1738	0.000396
1750	0.0004068
1762	0.000306
1774	0.0003456
1786	0.0007992
1798	0.0012168
1810	0.0009588
1822	0.000486
1834	0.00021
1846	0.0002088
1858	0.0002976
1870	0.0004464
1882	0.00054
1894	0.0003396
1906	0.000186
1918	0.0002136
1930	0.0004692
1942	0.000582
1954	0.0005364
1966	0.0002148
1978	0.000102
1990	8.16e-05
2002	7.08e-05
2014	4.68e-05
2026	5.4e-05
2038	2.76e-05
2050	2.28e-05
2062	2.04e-05
2074	3e-05
2086	3.72e-05
2098	1.44e-05
2110	9.6e-06
2122	3e-05
2134	3e-05
2146	1.44e-05
2158	3.12e-05
2170	5.04e-05
2182	7.68e-05
2194	3.24e-05
2206	5.64e-05
2218	4.56e-05
2230	4.92e-05
2242	6.12e-05
2254	4.8e-05
2266	6e-05
2278	7.08e-05
2290	7.08e-05
2302	7.44e-05
2314	0.0001356
2326	0.0001344
2338	0.0001272
2350	0.0001332
2362	0.0001116
2374	9.84e-05
2386	0.0001104
2398	8.64e-05
2410	7.68e-05
2422	7.56e-05
2434	8.88e-05
2446	8.52e-05
2458	7.2e-05
2470	6.96e-05
2482	9.12e-05
2494	9.6e-05
2506	9.96e-05
2518	0.0001068
2530	9e-05
2542	8.4e-05
2554	0.0001236
2566	0.0001008
2578	7.08e-05
2590	0.000126
2602	0.000138
2614	0.0001116
2626	0.0001704
2638	0.0001428
2650	0.0001248
2662	0.0001416
2674	0.0001452
2686	0.0001764
2698	0.0002088
2710	0.0002148
2722	0.0002712
2734	0.0003012
2746	0.0003348
2758	0.0002832
2770	0.0003264
2782	0.0003468
2794	0.000378
2806	0.0004848
2818	0.000654
2830	0.0008496
2842	0.0012132
2854	0.0017304
2866	0.0025296
2878	0.0036144
2890	0.004488
2902	0.0045036
2914	0.0044736
2926	0.005418
2938	0.0075384
2950	0.008058
2962	0.0082164
2974	0.0118284
2986	0.0094608
2998	0.0047196
3010	0.0036456
3022	0.0043548
3034	0.0053172
3046	0.0051432
3058	0.0067776
3070	0.00861
3082	0.0087084
3094	0.0073188
3106	0.0035676
3118	0.0014616
3130	0.000768
3142	0.0006516
3154	0.0004908
3166	0.00039
3178	0.0002772
3190	0.000288
3202	0.0002352
3214	0.000234
3226	0.0002664
3238	0.0001632
3250	0.0001764
3262	0.0001476
3274	0.000162
3286	0.0001536
3298	0.00015
3310	0.0001404
3322	0.0001548
3334	8.28e-05
3346	0.0001764
3358	0.0001752
3370	0.000114
3382	0.0001116
3394	0.000162
3406	0.0001008
3418	0.000186
3430	0.0001392
3442	0.000186
3454	9e-05
3466	0.00018
3478	9e-05
3490	0.000132
3502	6.84e-05
3514	9.36e-05
3526	5.76e-05
3538	9.84e-05
3550	8.88e-05
3562	0.000144
3574	2.52e-05
3586	6.72e-05
3598	0.0001092
3610	0.0001404
3622	0.0001548
3634	0.0001752
3646	0.0001476
3658	0.0001488
3670	0.0001308
3682	0.0001572
3694	0.0002232
3706	0.0001536
3718	0.0001584
3730	0.0001692
3742	0.0001776
3754	0.0001608
3766	0.0001608
3778	0.0002292
3790	0.0001908
3802	0.0002052
3814	0.0001644
3826	0.0001968
3838	0.0001632
