Infrared Spectrum: 4-(Amidinothio)butyric acid, hydrochloride
Formula: C5 H11 Cl N2 O2 S
CAS: 20396-10-5
State: SOLID (SPLIT MULL), FLUOROLUBE FOR 3800-1330 CM^-^1, NUJOL FOR 1330-450 CM^-^1
Class: COBLENTZ III
Instrument: DOW KBr FOREPRISM-GRATING
Instrument parameters: BLAZED AT 3.5, 12.0, 20.0 MICRON AND CHANGED AT 5.0, 7.5, 14.9 MICRON
Sampling: TRANSMISSION
Resolution: 2
Origin: DOW CHEMICAL COMPANY
1/CM	TRANSMITTANCE
3784	0.7039
3775	0.7071
3766	0.7108
3757	0.7144
3748	0.7181
3739	0.7218
3730	0.7255
3721	0.7291
3712	0.7325
3703	0.7358
3694	0.7392
3685	0.7428
3676	0.7465
3667	0.7503
3658	0.754
3649	0.7578
3640	0.7617
3631	0.7656
3622	0.7695
3613	0.7734
3604	0.7768
3595	0.7799
3586	0.7831
3577	0.7861
3568	0.7895
3559	0.7928
3550	0.7962
3541	0.7998
3532	0.8031
3523	0.8062
3514	0.8095
3505	0.811
3496	0.8125
3487	0.814
3478	0.8153
3469	0.8157
3460	0.8154
3451	0.8136
3442	0.8112
3433	0.8065
3424	0.7885
3415	0.7607
3406	0.7105
3397	0.6102
3388	0.4941
3379	0.4531
3370	0.4387
3361	0.3708
3352	0.3399
3343	0.3302
3334	0.3289
3325	0.3326
3316	0.3582
3307	0.4127
3298	0.4442
3289	0.467
3280	0.4875
3271	0.5076
3262	0.5255
3253	0.5425
3244	0.5564
3235	0.5617
3226	0.5637
3217	0.5629
3208	0.5525
3199	0.5279
3190	0.5306
3181	0.5341
3172	0.4962
3163	0.4178
3154	0.3824
3145	0.3787
3136	0.3958
3127	0.4057
3118	0.4079
3109	0.3956
3100	0.3879
3091	0.3836
3082	0.3805
3073	0.3714
3064	0.3571
3055	0.3423
3046	0.3208
3037	0.2889
3028	0.2559
3019	0.2268
3010	0.1984
3001	0.1878
2992	0.1891
2983	0.1937
2974	0.1987
2965	0.2036
2956	0.2075
2947	0.2113
2938	0.2139
2929	0.2146
2920	0.2074
2911	0.2015
2902	0.2109
2893	0.2194
2884	0.2292
2875	0.2447
2866	0.2638
2857	0.2793
2848	0.2963
2839	0.3135
2830	0.3308
2821	0.3495
2812	0.37
2803	0.3898
2794	0.4039
2785	0.415
2776	0.4255
2767	0.4341
2758	0.4398
2749	0.4457
2740	0.4524
2731	0.4604
2722	0.4724
2713	0.4839
2704	0.4945
2695	0.5052
2686	0.516
2677	0.5272
2668	0.5396
2659	0.5526
2650	0.5665
2641	0.5798
2632	0.5944
2623	0.6036
2614	0.6002
2605	0.5962
2596	0.6019
2587	0.6096
2578	0.619
2569	0.633
2560	0.6472
2551	0.6572
2542	0.6644
2533	0.6685
2524	0.6633
2515	0.6553
2506	0.6425
2497	0.6397
2488	0.6534
2479	0.6654
2470	0.6781
2461	0.6869
2452	0.6897
2443	0.6924
2434	0.7033
2425	0.7088
2416	0.7107
2407	0.7106
2398	0.7101
2389	0.7103
2380	0.7178
2371	0.7189
2362	0.7187
2353	0.7422
2344	0.7336
2335	0.7417
2326	0.7403
2317	0.7561
2308	0.7448
2299	0.7458
2290	0.7518
2281	0.7562
2272	0.761
2263	0.7661
2254	0.7715
2245	0.7768
2236	0.7819
2227	0.7872
2218	0.7911
2209	0.7943
2200	0.7969
2191	0.7989
2182	0.8008
2173	0.803
2164	0.8057
2155	0.8085
2146	0.8112
2137	0.8144
2128	0.8172
2119	0.8256
2110	0.837
2101	0.8353
2092	0.8338
2083	0.839
2074	0.8402
2065	0.8318
2056	0.8299
2047	0.8377
2038	0.8475
2029	0.8505
2020	0.8536
2011	0.8578
2002	0.864
1993	0.8759
1984	0.8604
1975	0.8628
1966	0.8647
1957	0.8728
1948	0.8713
1939	0.8735
1930	0.8761
1921	0.8785
1912	0.8809
1903	0.8827
1894	0.8839
1885	0.8871
1876	0.8904
1867	0.8891
1858	0.8882
1849	0.8865
1840	0.8838
1831	0.8843
1822	0.8866
1813	0.8894
1804	0.8921
1795	0.8961
1786	0.8993
1777	0.8994
1768	0.8975
1759	0.8878
1750	0.8613
1741	0.8061
1732	0.6512
1723	0.4684
1714	0.1459
1705	0.2724
1696	0.5035
1687	0.5306
1678	0.6159
1669	0.3805
1660	0.5028
1651	0.3625
1642	0.0922
1633	0.3709
1624	0.5333
1615	0.5953
1606	0.6606
1597	0.7049
1588	0.7408
1579	0.7742
1570	0.7891
1561	0.6524
1552	0.6501
1543	0.7372
1534	0.7758
1525	0.7937
1516	0.8051
1507	0.8153
1498	0.8203
1489	0.8194
1480	0.8171
1471	0.8111
1462	0.8033
1453	0.7492
1444	0.6095
1435	0.6743
1426	0.6656
1417	0.6365
1408	0.411
1399	0.4856
1390	0.5848
1381	0.6494
1372	0.6968
1363	0.7328
1354	0.7337
1345	0.6406
1336	0.6854
1327	0.7058
1318	0.6937
1309	0.663
1300	0.6667
1291	0.6797
1282	0.6669
1273	0.6754
1264	0.6436
1255	0.6974
1246	0.6932
1237	0.6587
1228	0.5821
1219	0.2661
1210	0.1048
1201	0.2673
1192	0.2259
1183	0.4853
1174	0.6221
1165	0.6598
1156	0.673
1147	0.3875
1138	0.6219
1129	0.6906
1120	0.6837
1111	0.6454
1102	0.6969
1093	0.7441
1084	0.7657
1075	0.7768
1066	0.7296
1057	0.7825
1048	0.8119
1039	0.6408
1030	0.7961
1021	0.828
1012	0.8475
1003	0.853
994	0.8383
985	0.7761
976	0.8438
967	0.8481
958	0.853
949	0.858
940	0.8621
931	0.8653
922	0.8677
913	0.8702
904	0.8711
895	0.8599
886	0.5229
877	0.819
868	0.8288
859	0.6428
850	0.5183
841	0.6398
832	0.7745
823	0.8168
814	0.8332
805	0.8436
796	0.8521
787	0.8545
778	0.8513
769	0.8255
760	0.6768
751	0.6767
742	0.5925
733	0.4695
724	0.5873
715	0.6014
706	0.4878
697	0.2043
688	0.3196
679	0.3268
670	0.3805
661	0.4646
652	0.6029
643	0.6658
634	0.6749
625	0.5744
616	0.4794
607	0.4714
598	0.6056
589	0.7
580	0.7125
571	0.6898
562	0.6581
553	0.6356
544	0.6181
535	0.6597
526	0.6949
517	0.7118
508	0.7322
499	0.7625
490	0.7883
481	0.7247
472	0.7357
463	0.7934
454	0.8181
