Infrared Spectrum: BENZENE, 1,2-DICHLORO-4-ETHENYL-
Formula: C8 H6 Cl2
CAS: 2039-83-0
State: LIQUID (NEAT)
Class: COBLENTZ III
Instrument: DOW KBr FOREPRISM-GRATING
Instrument parameters: BLAZED AT 3.5, 12.0, 20.0 MICRON, CHANGED AT 5.0, 7.5, 14.9 MICRON
Sampling: TRANSMISSION
Path length: CAPILLARY
Resolution: 4
Origin: DOW CHEMICAL COMPANY
1/CM	TRANSMITTANCE
451.304	0.814
460	0.804
468.695	0.902
477.391	0.9
486.087	0.884
494.782	0.833
503.478	0.724
512.174	0.701
520.869	0.759
529.565	0.778
538.26	0.796
546.956	0.808
555.652	0.876
564.347	0.924
573.043	0.945
581.739	0.956
590.434	0.963
599.13	0.964
607.826	0.966
616.521	0.968
625.217	0.953
633.913	0.613
642.608	0.725
651.304	0.951
660	0.938
668.695	0.932
677.391	0.765
686.086	0.63
694.782	0.812
703.478	0.89
712.173	0.829
720.869	0.588
729.565	0.894
738.26	0.921
746.956	0.938
755.652	0.937
764.347	0.936
773.043	0.921
781.739	0.915
790.434	0.872
799.13	0.894
807.825	0.797
816.521	0.189
825.217	0.074
833.912	0.594
842.608	0.744
851.304	0.508
859.999	0.198
868.695	0.522
877.391	0.113
886.086	0.309
894.782	0.628
903.478	0.293
912.173	0.07
920.869	0.2589
929.565	0.664
938.26	0.799
946.956	0.75
955.651	0.829
964.347	0.82
973.043	0.678
981.738	0.105
990.434	0.407
999.13	0.778
1007.83	0.811
1016.52	0.706
1025.22	0.206
1033.91	0.261
1042.61	0.53
1051.3	0.812
1060	0.89
1068.69	0.914
1077.39	0.91
1086.09	0.907
1094.78	0.9
1103.48	0.913
1112.17	0.85
1120.87	0.5731
1129.56	0.099
1138.26	0.263
1146.96	0.443
1155.65	0.694
1164.35	0.869
1173.04	0.879
1181.74	0.838
1190.43	0.842
1199.13	0.626
1207.83	0.489
1216.52	0.843
1225.22	0.915
1233.91	0.936
1242.61	0.91
1251.3	0.769
1260	0.698
1268.69	0.766
1277.39	0.732
1286.09	0.915
1294.78	0.918
1303.48	0.796
1312.17	0.911
1320.87	0.915
1329.56	0.917
1338.26	0.922
1346.96	0.918
1355.65	0.896
1364.35	0.767
1373.04	0.298
1381.74	0.381
1390.43	0.17
1399.13	0.704
1407.83	0.811
1416.52	0.776
1425.22	0.822
1433.91	0.856
1442.61	0.8
1451.3	0.679
1460	0.419
1468.69	0.035
1477.39	0.008
1486.09	0.465
1494.78	0.7
1503.48	0.852
1512.17	0.881
1520.87	0.915
1529.56	0.886
1538.26	0.679
1546.96	0.578
1555.65	0.348
1564.35	0.744
1573.04	0.857
1581.74	0.819
1590.43	0.785
1599.13	0.848
1607.82	0.869
1616.52	0.871
1625.22	0.732
1633.91	0.69
1642.61	0.838
1651.3	0.89
1660	0.905
1668.69	0.93
1677.39	0.941
1686.09	0.941
1694.78	0.933
1703.48	0.903
1712.17	0.911
1720.87	0.911
1729.56	0.93
1738.26	0.924
1746.96	0.899
1755.65	0.854
1764.35	0.839
1773.04	0.89
1781.74	0.922
1790.43	0.936
1799.13	0.924
1807.82	0.895
1816.52	0.853
1825.22	0.797
1833.91	0.77
1842.61	0.814
1851.3	0.873
1860	0.919
1868.69	0.934
1877.39	0.925
1886.09	0.888
1894.78	0.846
1903.48	0.89
1912.17	0.933
1920.87	0.948
1929.56	0.951
1938.26	0.952
1946.96	0.948
1955.65	0.938
1964.35	0.938
1973.04	0.948
1981.74	0.955
1990.43	0.959
1999.13	0.962
2007.82	0.968
2016.52	0.959
2025.22	0.9595
2033.91	0.959
2042.61	0.96
2051.3	0.96
2060	0.959
2068.69	0.959
2077.39	0.9595
2086.09	0.96
2094.78	0.96
2103.48	0.9581
2112.17	0.9559
2120.87	0.959
2129.56	0.962
2138.26	0.962
2146.96	0.962
2155.65	0.962
2164.35	0.962
2173.04	0.963
2181.74	0.964
2190.43	0.964
2199.13	0.964
2207.82	0.964
2216.52	0.966
2225.22	0.964
2233.91	0.964
2242.61	0.963
2251.3	0.963
2260	0.964
2268.69	0.9624
2277.39	0.9577
2286.09	0.956
2294.78	0.955
2303.48	0.959
2312.17	0.9637
2320.87	0.97
2329.56	0.9686
2338.26	0.968
2346.95	0.97
2355.65	0.975
2364.35	0.9766
2373.04	0.9719
2381.74	0.9523
2390.43	0.952
2399.13	0.9557
2407.82	0.96
2416.52	0.9627
2425.22	0.966
2433.91	0.966
2442.61	0.967
2451.3	0.967
2460	0.967
2468.69	0.967
2477.39	0.967
2486.09	0.968
2494.78	0.966
2503.48	0.9622
2512.17	0.96
2520.87	0.959
2529.56	0.957
2538.26	0.9562
2546.95	0.955
2555.65	0.9654
2564.35	0.966
2573.04	0.9632
2581.74	0.963
2590.43	0.9622
2599.13	0.962
2607.82	0.9592
2616.52	0.96
2625.22	0.9617
2633.91	0.964
2642.61	0.966
2651.3	0.967
2660	0.967
2668.69	0.966
2677.39	0.966
2686.09	0.966
2694.78	0.967
2703.48	0.9642
2712.17	0.9591
2720.87	0.956
2729.56	0.959
2738.26	0.9639
2746.95	0.966
2755.65	0.967
2764.35	0.966
2773.04	0.9642
2781.74	0.963
2790.43	0.9621
2799.13	0.962
2807.82	0.96
2816.52	0.957
2825.22	0.959
2833.91	0.956
2842.61	0.9471
2851.3	0.941
2860	0.945
2868.69	0.948
2877.39	0.947
2886.08	0.944
2894.78	0.94
2903.48	0.926
2912.17	0.896
2920.87	0.884
2929.56	0.892
2938.26	0.907
2946.95	0.913
2955.65	0.9089
2964.35	0.8919
2973.04	0.8678
2981.74	0.8425
2990.43	0.716
2999.13	0.8163
3007.82	0.7792
3016.52	0.7401
3025.22	0.8221
3033.91	0.8343
3042.61	0.8418
3051.3	0.8058
3060	0.7408
3068.69	0.717
3077.39	0.7885
3086.08	0.722
3094.78	0.6334
3103.48	0.8165
3112.17	0.8989
3120.87	0.9184
3129.56	0.929
3138.26	0.932
3146.95	0.9371
3155.65	0.9431
3164.35	0.947
3173.04	0.9481
3181.74	0.953
3190.43	0.9533
3199.13	0.9562
3207.82	0.957
3216.52	0.959
3225.22	0.9604
3233.91	0.9622
3242.61	0.963
3251.3	0.9622
3260	0.963
3268.69	0.9632
3277.39	0.966
3286.08	0.9662
3294.78	0.967
3303.48	0.967
3312.17	0.9684
3320.87	0.968
3329.56	0.968
3338.26	0.968
3346.95	0.97
3355.65	0.9743
3364.35	0.975
3373.04	0.9747
3381.74	0.975
3390.43	0.975
3399.13	0.975
3407.82	0.975
3416.52	0.975
3425.22	0.975
3433.91	0.974
3442.61	0.974
3451.3	0.974
3460	0.975
3468.69	0.974
3477.39	0.972
3486.08	0.971
3494.78	0.97
3503.48	0.97
3512.17	0.971
3520.87	0.971
3529.56	0.971
3538.26	0.971
3546.95	0.9714
3555.65	0.975
3564.35	0.975
3573.04	0.974
3581.74	0.975
3590.43	0.972
3599.13	0.974
3607.82	0.975
3616.52	0.974
3625.21	0.972
3633.91	0.9728
3642.61	0.9746
3651.3	0.974
3660	0.974
3668.69	0.972
3677.39	0.967
3686.08	0.96
3694.78	0.9649
3703.48	0.968
3712.17	0.9709
3720.87	0.975
3729.56	0.974
3738.26	0.9745
3746.95	0.967
3755.65	0.963
3764.35	0.967
3773.04	0.971
3781.74	0.9745
3790.43	0.975
