Infrared Spectrum: 4-t-Butyl-2,6-dimethylacetophenone
Formula: C 14 H 20 O
CAS: 2040-10-0
State: gas
Origin: EPA-IR VAPOR PHASE LIBRARY
1/CM	ABSORBANCE
549.9	0.01645
559.547	0.00628
569.193	0.00319
578.84	0.0017931
588.486	0.0016533
598.133	0.0017525
607.779	0.0017413
617.426	0.00236
627.072	0.00292
636.719	0.00506
646.365	0.01163
656.012	0.01913
665.658	0.00932
675.305	0.00287
684.951	0.0017805
694.598	0.0015498
704.245	0.0011419
713.891	0.000879
723.538	0.00098
733.184	0.00241
742.831	0.00471
752.477	0.00296
762.124	0.000962
771.77	0.000645
781.417	0.000601
791.063	0.00122662
800.71	0.0017294
810.356	0.000934
820.003	0.000867
829.649	0.000952
839.296	0.00126786
848.943	0.00332
858.589	0.01285
868.236	0.02262
877.882	0.00992
887.529	0.00312
897.175	0.00245
906.822	0.00346
916.468	0.00523
926.115	0.00531
935.761	0.00809
945.408	0.01523
955.054	0.02187
964.701	0.01733
974.347	0.0119
983.994	0.01006
993.64	0.01047
1003.29	0.01009
1012.93	0.0087
1022.58	0.00829
1032.23	0.00943
1041.87	0.01266
1051.52	0.01873
1061.17	0.01699
1070.81	0.00883
1080.46	0.00524
1090.11	0.00408
1099.75	0.00368
1109.4	0.00382
1119.05	0.00543
1128.69	0.01541
1138.34	0.03075
1147.99	0.01435
1157.63	0.00505
1167.28	0.00365
1176.92	0.00418
1186.57	0.00647
1196.22	0.01046
1205.86	0.01051
1215.51	0.01217
1225.16	0.01713
1234.8	0.03003
1244.45	0.08454
1254.1	0.12649
1263.74	0.04215
1273.39	0.0149
1283.04	0.0114
1292.68	0.01157
1302.33	0.00999
1311.98	0.00765
1321.62	0.00811
1331.27	0.01252
1340.92	0.0262
1350.56	0.05803
1360.21	0.05602
1369.86	0.03515
1379.5	0.02409
1389.15	0.02329
1398.79	0.02916
1408.44	0.02602
1418.09	0.02176
1427.73	0.02117
1437.38	0.02186
1447.03	0.02255
1456.67	0.02431
1466.32	0.02499
1475.97	0.02823
1485.61	0.0274
1495.26	0.01648
1504.91	0.01281
1514.55	0.01203
1524.2	0.01167
1533.85	0.01155
1543.49	0.01202
1553.14	0.01334
1562.79	0.01548
1572.43	0.01737
1582.08	0.01828
1591.73	0.02526
1601.37	0.0408
1611.02	0.03309
1620.67	0.01217
1630.31	0.00665
1639.96	0.00651
1649.6	0.00874
1659.25	0.01167
1668.9	0.01283
1678.54	0.01448
1688.19	0.02534
1697.84	0.06212
1707.48	0.1313
1717.13	0.14153
1726.78	0.05763
1736.42	0.02048
1746.07	0.01272
1755.72	0.01044
1765.36	0.00789
1775.01	0.00458
1784.66	0.00287
1794.3	0.00234
1803.95	0.0018413
1813.6	0.0014757
1823.24	0.00117416
1832.89	0.0011204
1842.54	0.0011209
1852.18	0.000946
1861.83	0.000886
1871.47	0.000998
1881.12	0.0010973
1890.77	0.001506
1900.41	0.0019596
1910.06	0.0017888
1919.71	0.00117328
1929.35	0.000907
1939	0.000754
1948.65	0.000673
1958.29	0.000642
1967.94	0.000559
1977.59	0.000537
1987.23	0.00061
1996.88	0.000646
2006.53	0.000696
2016.17	0.000583
2025.82	0.000459
2035.47	0.000376
2045.11	0.00048
2054.76	0.000365
2064.41	0.000348
2074.05	0.00029
2083.7	0.000338
2093.35	0.000359
2102.99	0.000316
2112.64	0.000225
2122.28	0.000214
2131.93	0.000254
2141.58	0.000307
2151.22	0.000317
2160.87	0.000452
2170.52	0.000409
2180.16	0.000314
2189.81	0.000317
2199.46	0.000311
2209.1	0.000257
2218.75	0.00016
2228.4	0.00013
2238.04	0.0001
2247.69	0.000186
2257.34	0.0002
2266.98	0.00034
2276.63	0.000368
2286.28	0.000491
2295.92	0.000584
2305.57	0.000569
2315.22	0.000542
2324.86	0.000427
2334.51	0.000383
2344.16	0.000297
2353.8	0.00029
2363.45	0.000377
2373.09	0.000451
2382.74	0.000656
2392.39	0.000741
2402.03	0.000662
2411.68	0.000559
2421.33	0.000456
2430.97	0.000447
2440.62	0.000403
2450.27	0.000359
2459.91	0.000418
2469.56	0.000439
2479.21	0.000469
2488.85	0.000506
2498.5	0.000495
2508.15	0.000424
2517.79	0.000232
2527.44	0.000197
2537.09	0.000271
2546.73	0.000322
2556.38	0.000317
2566.03	0.000399
2575.67	0.000402
2585.32	0.000422
2594.96	0.000477
2604.61	0.00037
2614.26	0.00035
2623.9	0.000318
2633.55	0.000408
2643.2	0.00062
2652.84	0.000824
2662.49	0.000952
2672.14	0.000882
2681.78	0.000836
2691.43	0.000883
2701.08	0.000883
2710.72	0.0011503
2720.37	0.0016236
2730.02	0.001899
2739.66	0.00249
2749.31	0.00298
2758.96	0.00236
2768.6	0.0018156
2778.25	0.0018699
2787.9	0.00246
2797.54	0.00271
2807.19	0.00341
2816.84	0.00438
2826.48	0.00557
2836.13	0.00754
2845.77	0.01076
2855.42	0.01771
2865.07	0.03151
2874.71	0.04548
2884.36	0.04727
2894.01	0.04494
2903.65	0.05032
2913.3	0.06409
2922.95	0.07196
2932.59	0.07925
2942.24	0.08035
2951.89	0.10207
2961.53	0.16459
2971.18	0.18979
2980.83	0.10254
2990.47	0.05023
3000.12	0.03134
3009.77	0.02286
3019.41	0.01923
3029.06	0.01916
3038.71	0.02018
3048.35	0.02165
3058	0.0225
3067.64	0.01845
3077.29	0.01185
3086.94	0.00801
3096.58	0.0059
3106.23	0.00462
3115.88	0.00375
3125.52	0.00294
3135.17	0.00262
3144.82	0.00238
3154.46	0.0020462
3164.11	0.002037
3173.76	0.0019601
3183.4	0.00224
3193.05	0.0019345
3202.7	0.0020105
3212.34	0.0018418
3221.99	0.0015923
3231.64	0.0015703
3241.28	0.0015126
3250.93	0.0014236
3260.58	0.0013598
3270.22	0.0014667
3279.87	0.001648
3289.52	0.001388
3299.16	0.001056
3308.81	0.001025
3318.45	0.000901
3328.1	0.000669
3337.75	0.0011284
3347.39	0.00125268
3357.04	0.00125119
3366.69	0.0015123
3376.33	0.0017431
3385.98	0.00226
3395.63	0.00294
3405.27	0.00335
3414.92	0.0026
3424.57	0.0019703
3434.21	0.0013657
3443.86	0.00117781
3453.51	0.0011124
3463.15	0.0010943
3472.8	0.000955
3482.45	0.000927
3492.09	0.000807
3501.74	0.000905
3511.39	0.000812
3521.03	0.000834
3530.68	0.001023
3540.33	0.000926
3549.97	0.000675
3559.62	0.000829
3569.26	0.000653
3578.91	0.000737
3588.56	0.000846
3598.2	0.000823
3607.85	0.000854
3617.5	0.000716
3627.14	0.000768
3636.79	0.000683
3646.44	0.000696
3656.08	0.00071
3665.73	0.000618
3675.38	0.000543
3685.02	0.000528
3694.67	0.000598
3704.32	0.00044
3713.96	0.000493
3723.61	0.000454
3733.26	0.000452
3742.9	0.000487
3752.55	0.000598
3762.2	0.000513
3771.84	0.000592
3781.49	0.00056
3791.13	0.000634
3800.78	0.000876
3810.43	0.000642
3820.07	0.00066
3829.72	0.000744
3839.37	0.000839
3849.01	0.000788
3858.66	0.000904
3868.31	0.000973
3877.95	0.001071
3887.6	0.000923
3897.25	0.00123501
3906.89	0.0010827
3916.54	0.000956
3926.19	0.001019
3935.83	0.001073
3945.48	0.00091
3955.13	0.000893
3964.77	0.001065
3974.42	0.001058
3984.07	0.001138
3993.71	0.000964
