Infrared Spectrum: 2,3,4,5,6-Pentamethylacetophenone
Formula: C 13 H 18 O
CAS: 2040-01-9
State: gas
Origin: EPA-IR VAPOR PHASE LIBRARY
1/CM	ABSORBANCE
549.9	0.00418
559.547	0.00691
569.193	0.0048
578.84	0.00601
588.486	0.00891
598.133	0.00386
607.779	0.0016536
617.426	0.0016014
627.072	0.00258
636.719	0.0065
646.365	0.00592
656.012	0.001686
665.658	0.000843
675.305	0.001001
684.951	0.000971
694.598	0.000759
704.245	0.00067
713.891	0.000532
723.538	0.000494
733.184	0.000824
742.831	0.0015849
752.477	0.00287
762.124	0.002146
771.77	0.000858
781.417	0.000593
791.063	0.000795
800.71	0.001011
810.356	0.001368
820.003	0.001302
829.649	0.00094
839.296	0.000938
848.943	0.001014
858.589	0.001052
868.236	0.001137
877.882	0.001328
887.529	0.00150648
897.175	0.0023511
906.822	0.00465
916.468	0.01263
926.115	0.01978
935.761	0.01232
945.408	0.00603
955.054	0.00502
964.701	0.00573
974.347	0.00651
983.994	0.00734
993.64	0.00867
1003.29	0.00827
1012.93	0.00677
1022.58	0.00583
1032.23	0.0055
1041.87	0.00574
1051.52	0.00716
1061.17	0.01087
1070.81	0.01319
1080.46	0.00961
1090.11	0.00633
1099.75	0.0053
1109.4	0.00511
1119.05	0.00539
1128.69	0.00628
1138.34	0.01057
1147.99	0.0263
1157.63	0.05854
1167.28	0.04619
1176.92	0.0119
1186.57	0.0044
1196.22	0.00274
1205.86	0.0023978
1215.51	0.0024477
1225.16	0.00271
1234.8	0.00401
1244.45	0.00917
1254.1	0.01874
1263.74	0.02215
1273.39	0.01292
1283.04	0.01337
1292.68	0.02715
1302.33	0.03026
1311.98	0.01404
1321.62	0.00932
1331.27	0.01251
1340.92	0.02525
1350.56	0.0477
1360.21	0.03666
1369.86	0.01707
1379.5	0.01701
1389.15	0.01946
1398.79	0.01924
1408.44	0.02312
1418.09	0.02718
1427.73	0.02529
1437.38	0.02114
1447.03	0.01901
1456.67	0.01814
1466.32	0.01739
1475.97	0.01619
1485.61	0.01437
1495.26	0.01276
1504.91	0.01144
1514.55	0.01038
1524.2	0.00947
1533.85	0.00892
1543.49	0.00889
1553.14	0.00954
1562.79	0.01037
1572.43	0.01035
1582.08	0.00874
1591.73	0.00714
1601.37	0.00607
1611.02	0.00546
1620.67	0.005
1630.31	0.00506
1639.96	0.00612
1649.6	0.00748
1659.25	0.00844
1668.9	0.0096
1678.54	0.01103
1688.19	0.01697
1697.84	0.04723
1707.48	0.1197
1717.13	0.12386
1726.78	0.05381
1736.42	0.01837
1746.07	0.0104
1755.72	0.00769
1765.36	0.00632
1775.01	0.00509
1784.66	0.00345
1794.3	0.002094
1803.95	0.0014688
1813.6	0.001358
1823.24	0.001334
1832.89	0.00126
1842.54	0.001294
1852.18	0.001265
1861.83	0.001081
1871.47	0.000966
1881.12	0.001024
1890.77	0.00096
1900.41	0.000882
1910.06	0.000869
1919.71	0.000782
1929.35	0.00078
1939	0.000803
1948.65	0.000887
1958.29	0.000964
1967.94	0.000967
1977.59	0.000971
1987.23	0.000978
1996.88	0.00096
2006.53	0.00091
2016.17	0.000844
2025.82	0.000759
2035.47	0.000677
2045.11	0.000665
2054.76	0.000669
2064.41	0.000622
2074.05	0.000706
2083.7	0.000783
2093.35	0.000835
2102.99	0.000772
2112.64	0.00082
2122.28	0.00084
2131.93	0.000782
2141.58	0.000739
2151.22	0.00066
2160.87	0.000616
2170.52	0.000655
2180.16	0.000676
2189.81	0.00067
2199.46	0.000692
2209.1	0.000646
2218.75	0.000606
2228.4	0.000615
2238.04	0.000588
2247.69	0.000633
2257.34	0.000624
2266.98	0.000757
2276.63	0.000858
2286.28	0.000794
2295.92	0.000757
2305.57	0.000751
2315.22	0.000811
2324.86	0.000741
2334.51	0.00077
2344.16	0.000801
2353.8	0.000834
2363.45	0.000742
2373.09	0.000801
2382.74	0.000883
2392.39	0.000969
2402.03	0.001017
2411.68	0.001025
2421.33	0.001067
2430.97	0.001073
2440.62	0.00106
2450.27	0.001141
2459.91	0.001156
2469.56	0.001114
2479.21	0.001114
2488.85	0.001084
2498.5	0.001135
2508.15	0.001139
2517.79	0.00111
2527.44	0.000903
2537.09	0.000906
2546.73	0.000872
2556.38	0.000809
2566.03	0.000811
2575.67	0.00081
2585.32	0.00081
2594.96	0.000848
2604.61	0.000896
2614.26	0.000758
2623.9	0.000941
2633.55	0.00098
2643.2	0.001036
2652.84	0.000951
2662.49	0.000938
2672.14	0.001122
2681.78	0.001192
2691.43	0.001262
2701.08	0.001263
2710.72	0.0016057
2720.37	0.0020392
2730.02	0.00289
2739.66	0.00405
2749.31	0.00393
2758.96	0.00325
2768.6	0.00331
2778.25	0.00342
2787.9	0.00352
2797.54	0.00385
2807.19	0.00452
2816.84	0.00556
2826.48	0.00707
2836.13	0.00914
2845.77	0.01225
2855.42	0.01774
2865.07	0.027
2874.71	0.03786
2884.36	0.04417
2894.01	0.04496
2903.65	0.04665
2913.3	0.05284
2922.95	0.0634
2932.59	0.07405
2942.24	0.0758
2951.89	0.06605
2961.53	0.05226
2971.18	0.04061
2980.83	0.03541
2990.47	0.03614
3000.12	0.03724
3009.77	0.03479
3019.41	0.03153
3029.06	0.02886
3038.71	0.02618
3048.35	0.02291
3058	0.01927
3067.64	0.0157
3077.29	0.01247
3086.94	0.01
3096.58	0.00789
3106.23	0.00602
3115.88	0.00502
3125.52	0.0039
3135.17	0.00303
3144.82	0.00249
3154.46	0.0020434
3164.11	0.0016005
3173.76	0.00151469
3183.4	0.000992
3193.05	0.000829
3202.7	0.000713
3212.34	0.000524
3221.99	0.000579
3231.64	0.00042
3241.28	0.00042
3250.93	0.00032
3260.58	0.00031
3270.22	0.00031
3279.87	0.00029
3289.52	0.00016
3299.16	9e-05
3308.81	0.00021
3318.45	0.00029
3328.1	0.00015
3337.75	4e-05
3347.39	0.00019
3357.04	0.00031
3366.69	0.00048
3376.33	0.000628
3385.98	0.001061
3395.63	0.00156495
3405.27	0.0022758
3414.92	0.0019225
3424.57	0.00102
3434.21	0.000648
3443.86	0.000492
3453.51	0.00029
3463.15	0.00033
3472.8	0.00022
3482.45	0.0002
3492.09	0.00018
3501.74	0.00015
3511.39	0.00016
3521.03	0.00026
3530.68	0.00021
3540.33	0.00028
3549.97	0.00012
3559.62	0.00012
3569.26	0.00022
3578.91	0.00024
3588.56	9e-05
3598.2	0.00021
3607.85	0.00015
3617.5	0.00011
3627.14	0.00017
3636.79	0.00017
3646.44	0.00022
3656.08	0.00026
3665.73	0.00016
3675.38	0.00015
3685.02	0.00028
3694.67	0.00016
3704.32	0.0002
3713.96	0.00025
3723.61	0.00018
3733.26	0.00018
3742.9	0.00027
3752.55	0.0003
3762.2	0.00025
3771.84	0.00021
3781.49	0.00035
3791.13	0.00043
3800.78	0.00035
3810.43	0.00043
3820.07	0.00041
3829.72	0.00049
3839.37	0.000581
3849.01	0.00064
3858.66	0.000656
3868.31	0.000741
3877.95	0.000663
3887.6	0.000752
3897.25	0.000752
3906.89	0.000757
3916.54	0.000858
3926.19	0.000906
3935.83	0.000784
3945.48	0.000775
3955.13	0.000836
3964.77	0.0008
3974.42	0.000791
3984.07	0.000768
3993.71	0.000808
