Infrared Spectrum: 2',6'-Dimethoxyacetophenone
Formula: C 10 H 12 O 3
CAS: 2040-04-2
State: gas
Origin: EPA-IR VAPOR PHASE LIBRARY
1/CM	ABSORBANCE
549.8	0.001731
559.445	0.001901
569.09	0.002571
578.734	0.004891
588.379	0.006051
598.024	0.003501
607.669	0.002171
617.313	0.001771
626.958	0.001611
636.603	0.001771
646.248	0.001361
655.893	0.0010686
665.537	0.0010621
675.182	0.0007438
684.827	0.0007596
694.472	0.0010783
704.116	0.001611
713.761	0.004891
723.406	0.012161
733.051	0.012201
742.695	0.005261
752.34	0.002761
761.985	0.003121
771.63	0.002931
781.275	0.005171
790.919	0.006831
800.564	0.004421
810.209	0.002061
819.854	0.0010151
829.498	0.0007816
839.143	0.0007526
848.788	0.0006961
858.433	0.0010012
868.078	0.000774
877.722	0.001271
887.367	0.0011045
897.012	0.001651
906.657	0.002221
916.301	0.001791
925.946	0.001731
935.591	0.002351
945.236	0.003461
954.88	0.005701
964.525	0.007181
974.17	0.006581
983.815	0.005851
993.46	0.006981
1003.1	0.009171
1012.75	0.010401
1022.39	0.009561
1032.04	0.008811
1041.68	0.008851
1051.33	0.011171
1060.97	0.011981
1070.62	0.013731
1080.26	0.021211
1089.91	0.036491
1099.55	0.057391
1109.2	0.071671
1118.84	0.059481
1128.49	0.031671
1138.13	0.013001
1147.78	0.006091
1157.42	0.004911
1167.07	0.006141
1176.71	0.005811
1186.36	0.004881
1196	0.004761
1205.64	0.005991
1215.29	0.011091
1224.93	0.023971
1234.58	0.052171
1244.22	0.076291
1253.87	0.060951
1263.51	0.033901
1273.16	0.027121
1282.8	0.024781
1292.45	0.017761
1302.09	0.011991
1311.74	0.007931
1321.38	0.005741
1331.03	0.005651
1340.67	0.008471
1350.32	0.015091
1359.96	0.015481
1369.61	0.007901
1379.25	0.004841
1388.9	0.004621
1398.54	0.005421
1408.18	0.007801
1417.83	0.013941
1427.47	0.027081
1437.12	0.032321
1446.76	0.020961
1456.41	0.023141
1466.05	0.053221
1475.7	0.056181
1485.34	0.018861
1494.99	0.007391
1504.63	0.005301
1514.28	0.004681
1523.92	0.004651
1533.57	0.005161
1543.21	0.006521
1552.86	0.009641
1562.5	0.016171
1572.15	0.026821
1581.79	0.042091
1591.44	0.052221
1601.08	0.032011
1610.73	0.012041
1620.37	0.006521
1630.01	0.004711
1639.66	0.003821
1649.3	0.003601
1658.95	0.004191
1668.59	0.005461
1678.24	0.006641
1687.88	0.007291
1697.53	0.009801
1707.17	0.022961
1716.82	0.047671
1726.46	0.044151
1736.11	0.017931
1745.75	0.008031
1755.4	0.006301
1765.04	0.004541
1774.69	0.003041
1784.33	0.002251
1793.98	0.001991
1803.62	0.001781
1813.27	0.001581
1822.91	0.001232
1832.55	0.000925
1842.2	0.0008165
1851.84	0.0007941
1861.49	0.0008491
1871.13	0.0008881
1880.78	0.0011098
1890.42	0.001491
1900.07	0.001801
1909.71	0.001601
1919.36	0.001491
1929	0.001461
1938.65	0.001291
1948.29	0.000923
1957.94	0.0007994
1967.58	0.0007196
1977.23	0.0007619
1986.87	0.0008498
1996.52	0.0010156
2006.16	0.0010461
2015.81	0.0008319
2025.45	0.0007328
2035.1	0.0006501
2044.74	0.0006592
2054.38	0.0005832
2064.03	0.0005429
2073.67	0.0005545
2083.32	0.0005707
2092.96	0.0006817
2102.61	0.0007869
2112.25	0.0009481
2121.9	0.0010639
2131.54	0.0011379
2141.19	0.0011874
2150.83	0.0012118
2160.48	0.001281
2170.12	0.001361
2179.77	0.001551
2189.41	0.001281
2199.06	0.0010749
2208.7	0.0009255
2218.35	0.0007388
2227.99	0.0006295
2237.64	0.0005467
2247.28	0.0004933
2256.92	0.0005569
2266.57	0.0004126
2276.21	0.0004075
2285.86	0.0003917
2295.5	0.0005325
2305.15	0.0005026
2314.79	0.0004957
2324.44	0.0005492
2334.08	0.0005966
2343.73	0.0005916
2353.37	0.0006549
2363.02	0.0007035
2372.66	0.0007554
2382.31	0.0005133
2391.95	0.00054
2401.6	0.00030696
2411.24	0.000415
2420.89	0.00030654
2430.53	0.00030084
2440.18	0.00033757
2449.82	0.0004473
2459.47	0.0005465
2469.11	0.0003765
2478.75	0.0005687
2488.4	0.000668
2498.04	0.0007053
2507.69	0.0008584
2517.33	0.0010296
2526.98	0.0009601
2536.62	0.0009533
2546.27	0.0008291
2555.91	0.0007637
2565.56	0.0007069
2575.2	0.0006445
2584.85	0.0005833
2594.49	0.0006259
2604.14	0.0005017
2613.78	0.0005839
2623.43	0.0004241
2633.07	0.0005602
2642.72	0.0006307
2652.36	0.0005279
2662.01	0.0004236
2671.65	0.0004393
2681.29	0.0006175
2690.94	0.0005936
2700.58	0.0007148
2710.23	0.000563
2719.87	0.0007101
2729.52	0.0007647
2739.16	0.0008283
2748.81	0.0008905
2758.45	0.0009356
2768.1	0.0009892
2777.74	0.0009496
2787.39	0.0010614
2797.03	0.001371
2806.68	0.001701
2816.32	0.002681
2825.97	0.004141
2835.61	0.008491
2845.26	0.013171
2854.9	0.009811
2864.55	0.006041
2874.19	0.005321
2883.84	0.005851
2893.48	0.006881
2903.12	0.008041
2912.77	0.009381
2922.41	0.010691
2932.06	0.013241
2941.7	0.019731
2951.35	0.021681
2960.99	0.016451
2970.64	0.012351
2980.28	0.009441
2989.93	0.009221
2999.57	0.012901
3009.22	0.015891
3018.86	0.011191
3028.51	0.006281
3038.15	0.004761
3047.8	0.004071
3057.44	0.004211
3067.09	0.005001
3076.73	0.005881
3086.38	0.006451
3096.02	0.005171
3105.67	0.002741
3115.31	0.001661
3124.95	0.0011775
3134.6	0.0010522
3144.24	0.0010002
3153.89	0.0006972
3163.53	0.000593
3173.18	0.0006995
3182.82	0.0006087
3192.47	0.0005717
3202.11	0.0003661
3211.76	0.000479
3221.4	0.0003992
3231.05	0.0001756
3240.69	0.00028015
3250.34	0.000262495
3259.98	0.00030135
3269.63	0.00028062
3279.27	0.0002156
3288.92	0.00034725
3298.56	0.000141
3308.21	0.000263556
3317.85	0.0002066
3327.49	0.0001645
3337.14	0.0002477
3346.78	0.000106
3356.43	0.00033254
3366.07	0.0002234
3375.72	0.00028881
3385.36	0.0005158
3395.01	0.0004138
3404.65	0.0007774
3414.3	0.0008935
3423.94	0.0011702
3433.59	0.0009248
3443.23	0.0006564
3452.88	0.00031364
3462.52	0.0004337
3472.17	0.0002322
3481.81	0.0002244
3491.46	0.000153
3501.1	0.0001778
3510.75	0.00028265
3520.39	0.00025107
3530.04	0.00029073
3539.68	0.0002364
3549.32	0.00027692
3558.97	0.00035383
3568.61	0.00029193
3578.26	0.00025182
3587.9	0.00033286
3597.55	0.00030561
3607.19	0.000235
3616.84	9.8e-05
3626.48	0.000126
3636.13	0.00030271
3645.77	0.0003378
3655.42	0.00035814
3665.06	0.00027774
3674.71	0.000262431
3684.35	0.000238
3694	0.000114
3703.64	0.000267467
3713.29	0.000121
3722.93	0.000123
3732.58	0.0004235
3742.22	0.0001806
3751.86	0.000262085
3761.51	0.00027643
3771.15	0.0004131
3780.8	0.0003406
3790.44	0.00028234
3800.09	8.4e-05
3809.73	0.0003868
3819.38	0.00028847
3829.02	0.000414
3838.67	0.0004608
3848.31	0.0001902
3857.96	0.00034048
3867.6	0.0003626
3877.25	0.00030255
3886.89	0.00034619
3896.54	0.00027186
3906.18	0.0001834
3915.83	0.0001715
3925.47	0.00026188
3935.12	0.000459
3944.76	0.0004683
3954.41	0.0005263
3964.05	0.000553
3973.69	0.0004318
3983.34	0.0007402
3992.98	0.000396
