Infrared Spectrum: Propylcyclopentane
Formula: C 8 H 16
CAS: 2040-96-2
State: gas
Instrument: HP-GC/MS/IRD
Origin: NIST Mass Spectrometry Data Center
1/CM	ABSORBANCE
550	0.0002014
562	1.59e-05
574	3.18e-05
586	5.83e-05
598	8.48e-05
610	2.65e-05
622	6.36e-05
634	4.77e-05
646	7.95e-05
658	6.36e-05
670	1.06e-05
682	5.3e-05
694	4.77e-05
706	4.77e-05
718	0.0001166
730	0.0002597
742	0.0003498
754	0.000318
766	0.0002279
778	0.0002226
790	0.0001961
802	0.0001484
814	0.0001696
826	5.3e-05
838	0.0002173
850	0.000212
862	0.0002703
874	0.000477
886	0.0006943
898	0.0006678
910	0.000371
922	0.0003233
934	0.0003922
946	0.0003445
958	0.0002544
970	0.000159
982	0.0001219
994	0.0001272
1006	0.0001431
1018	0.0001484
1030	0.0001802
1042	0.0001484
1054	0.0001219
1066	0.0001378
1078	0.0001325
1090	9.54e-05
1102	0.0001007
1114	0.0001431
1126	0.0002067
1138	0.0001908
1150	0.0001749
1162	0.0002544
1174	0.0003233
1186	0.000318
1198	0.0003339
1210	0.0003339
1222	0.0003975
1234	0.0004293
1246	0.0004558
1258	0.0004452
1270	0.0004876
1282	0.0005406
1294	0.0005777
1306	0.0006042
1318	0.0006413
1330	0.0007685
1342	0.0007844
1354	0.0007526
1366	0.0008215
1378	0.0011342
1390	0.0011713
1402	0.0008003
1414	0.0007473
1426	0.0010441
1438	0.0017861
1450	0.0030528
1462	0.0035192
1474	0.0028408
1486	0.0017967
1498	0.0009063
1510	0.0004452
1522	0.0002915
1534	0.0002491
1546	0.0001749
1558	7.95e-05
1570	0.0001219
1582	0.0001537
1594	0.0001537
1606	0.0001431
1618	0.0001007
1630	9.54e-05
1642	0.0001007
1654	5.3e-06
1666	7.42e-05
1678	8.48e-05
1690	9.01e-05
1702	2.12e-05
1714	4.77e-05
1726	9.01e-05
1738	6.89e-05
1750	3.18e-05
1762	4.77e-05
1774	5.3e-05
1786	7.95e-05
1798	4.24e-05
1810	4.24e-05
1822	6.36e-05
1834	5.83e-05
1846	5.3e-05
1858	5.83e-05
1870	4.77e-05
1882	6.36e-05
1894	5.83e-05
1906	5.3e-05
1918	4.77e-05
1930	3.71e-05
1942	2.12e-05
1954	2.65e-05
1966	1.59e-05
1978	1.06e-05
1990	2.65e-05
2002	3.71e-05
2014	3.71e-05
2026	5.83e-05
2038	5.83e-05
2050	6.89e-05
2062	4.24e-05
2074	4.77e-05
2086	5.3e-05
2098	5.83e-05
2110	3.18e-05
2122	4.24e-05
2134	4.77e-05
2146	5.3e-05
2158	7.95e-05
2170	8.48e-05
2182	0.0001166
2194	9.54e-05
2206	6.89e-05
2218	6.36e-05
2230	7.95e-05
2242	6.89e-05
2254	6.89e-05
2266	9.01e-05
2278	7.95e-05
2290	6.36e-05
2302	7.95e-05
2314	9.01e-05
2326	9.01e-05
2338	7.42e-05
2350	9.54e-05
2362	3.18e-05
2374	3.71e-05
2386	3.71e-05
2398	6.36e-05
2410	3.71e-05
2422	2.65e-05
2434	1.59e-05
2446	2.65e-05
2458	1.06e-05
2470	2.12e-05
2482	4.24e-05
2494	3.18e-05
2506	3.18e-05
2518	6.36e-05
2530	6.89e-05
2542	6.36e-05
2554	8.48e-05
2566	0.0001431
2578	0.0001696
2590	0.0002332
2602	0.0002544
2614	0.0002544
2626	0.000265
2638	0.0002544
2650	0.0002544
2662	0.0002915
2674	0.0003021
2686	0.0003551
2698	0.0003604
2710	0.0003763
2722	0.0004187
2734	0.0005459
2746	0.0006201
2758	0.000636
2770	0.0007314
2782	0.0009434
2794	0.0011395
2806	0.001537
2818	0.002226
2830	0.0036146
2842	0.0065773
2854	0.0115116
2866	0.0178822
2878	0.0231822
2890	0.0223607
2902	0.0222176
2914	0.0280105
2926	0.0344341
2938	0.0409902
2950	0.0485056
2962	0.0518393
2974	0.0353616
2986	0.0155661
2998	0.0070172
3010	0.0040704
3022	0.0026871
3034	0.0019769
3046	0.0014999
3058	0.0011766
3070	0.0009805
3082	0.0008321
3094	0.0006572
3106	0.0005565
3118	0.0004399
3130	0.000424
3142	0.0003816
3154	0.0003074
3166	0.0002491
3178	0.0002279
3190	0.0002332
3202	0.0001643
3214	0.0001378
3226	0.000106
3238	0.000106
3250	9.01e-05
3262	4.77e-05
3274	5.83e-05
3286	5.3e-05
3298	4.77e-05
3310	4.77e-05
3322	3.71e-05
3334	6.36e-05
3346	5.83e-05
3358	1.59e-05
3370	2.65e-05
3382	4.77e-05
3394	4.24e-05
3406	4.77e-05
3418	1.59e-05
3430	1.06e-05
3442	4.77e-05
3454	3.18e-05
3466	2.12e-05
3478	5.3e-05
3490	6.89e-05
3502	6.89e-05
3514	9.54e-05
3526	9.54e-05
3538	9.01e-05
3550	5.3e-05
3562	4.77e-05
3574	7.95e-05
3586	4.77e-05
3598	4.24e-05
3610	6.36e-05
3622	1.06e-05
3634	7.95e-05
3646	4.77e-05
3658	7.95e-05
3670	1.59e-05
3682	5.83e-05
3694	5.3e-05
3706	0.0001007
3718	0.0001272
3730	9.01e-05
3742	5.3e-05
3754	7.42e-05
3766	7.95e-05
3778	0.000106
3790	0.0001272
3802	8.48e-05
3814	0.0001219
3826	0.0001166
3838	0.0001325
