Infrared Spectrum: 2,6-Dichloroacetophenone
Formula: C 8 H 6 Cl 2 O
CAS: 2040-05-3
State: gas
Origin: EPA-IR VAPOR PHASE LIBRARY
1/CM	ABSORBANCE
549.8	0.001315
559.445	0.002731
569.09	0.002671
578.734	0.004211
588.379	0.014091
598.024	0.027851
607.669	0.018371
617.313	0.006091
626.958	0.002501
636.603	0.001871
646.248	0.002051
655.893	0.002451
665.537	0.002231
675.182	0.001801
684.827	0.001731
694.472	0.002331
704.116	0.003061
713.761	0.006851
723.406	0.017301
733.051	0.030361
742.695	0.018071
752.34	0.008851
761.985	0.018401
771.63	0.075321
781.275	0.145831
790.919	0.106161
800.564	0.037251
810.209	0.011031
819.854	0.005091
829.498	0.002741
839.143	0.002021
848.788	0.0011027
858.433	0.001781
868.078	0.002271
877.722	0.002851
887.367	0.003361
897.012	0.002941
906.657	0.002311
916.301	0.001981
925.946	0.002861
935.591	0.003911
945.236	0.008481
954.88	0.015301
964.525	0.015411
974.17	0.010661
983.815	0.007101
993.46	0.005731
1003.1	0.006121
1012.75	0.005991
1022.39	0.005141
1032.04	0.004531
1041.68	0.005291
1051.33	0.003051
1060.97	0.002871
1070.62	0.004181
1080.26	0.006951
1089.91	0.006041
1099.55	0.010371
1109.2	0.031961
1118.84	0.055211
1128.49	0.037781
1138.13	0.011641
1147.78	0.010751
1157.42	0.013911
1167.07	0.010351
1176.71	0.010831
1186.36	0.036441
1196	0.047461
1205.64	0.022611
1215.29	0.028091
1224.93	0.073351
1234.58	0.126281
1244.22	0.093661
1253.87	0.027521
1263.51	0.012771
1273.16	0.010261
1282.8	0.008371
1292.45	0.007851
1302.09	0.006981
1311.74	0.006241
1321.38	0.006891
1331.03	0.010681
1340.67	0.018951
1350.32	0.040801
1359.96	0.061561
1369.61	0.035891
1379.25	0.013881
1388.9	0.009771
1398.54	0.010791
1408.18	0.021151
1417.83	0.066211
1427.47	0.118221
1437.12	0.068711
1446.76	0.020031
1456.41	0.011231
1466.05	0.008611
1475.7	0.007831
1485.34	0.008191
1494.99	0.007821
1504.63	0.007611
1514.28	0.007201
1523.92	0.006341
1533.57	0.007691
1543.21	0.014851
1552.86	0.043601
1562.5	0.077501
1572.15	0.055001
1581.79	0.040381
1591.44	0.022081
1601.08	0.007141
1610.73	0.005891
1620.37	0.006521
1630.01	0.006191
1639.66	0.005221
1649.3	0.005281
1658.95	0.009021
1668.59	0.012251
1678.24	0.012571
1687.88	0.012651
1697.53	0.014651
1707.17	0.025171
1716.82	0.069281
1726.46	0.157151
1736.11	0.159721
1745.75	0.060161
1755.4	0.014401
1765.04	0.009421
1774.69	0.012071
1784.33	0.012751
1793.98	0.008371
1803.62	0.004961
1813.27	0.003111
1822.91	0.002871
1832.55	0.003181
1842.2	0.004021
1851.84	0.004561
1861.49	0.003601
1871.13	0.002401
1880.78	0.001951
1890.42	0.002331
1900.07	0.002851
1909.71	0.003301
1919.36	0.004221
1929	0.004451
1938.65	0.002991
1948.29	0.001781
1957.94	0.001511
1967.58	0.001621
1977.23	0.0013128
1986.87	0.0013776
1996.52	0.0009949
2006.16	0.0011569
2015.81	0.0011066
2025.45	0.0011716
2035.1	0.0011372
2044.74	0.0009466
2054.38	0.0008694
2064.03	0.0008887
2073.67	0.0009833
2083.32	0.0011337
2092.96	0.0013422
2102.61	0.001198
2112.25	0.0007116
2121.9	0.000938
2131.54	0.0006886
2141.19	0.0008409
2150.83	0.0007751
2160.48	0.000943
2170.12	0.0007965
2179.77	0.0009167
2189.41	0.0007899
2199.06	0.0009973
2208.7	0.0009459
2218.35	0.0008896
2227.99	0.0008789
2237.64	0.0007047
2247.28	0.0007002
2256.92	0.0009099
2266.57	0.0010344
2276.21	0.0010653
2285.86	0.0010771
2295.5	0.0013168
2305.15	0.001821
2314.79	0.001961
2324.44	0.0011942
2334.08	0.0009091
2343.73	0.0009385
2353.37	0.0010259
2363.02	0.0008528
2372.66	0.0007494
2382.31	0.0009119
2391.95	0.0010545
2401.6	0.0008862
2411.24	0.0007556
2420.89	0.0009654
2430.53	0.0011375
2440.18	0.0011573
2449.82	0.0014216
2459.47	0.0013581
2469.11	0.0013765
2478.75	0.0009613
2488.4	0.0008353
2498.04	0.0009701
2507.69	0.0010919
2517.33	0.000822
2526.98	0.000318
2536.62	0.0011187
2546.27	0.0005472
2555.91	0.0007347
2565.56	0.0008285
2575.2	0.0007392
2584.85	0.0013515
2594.49	0.0009177
2604.14	0.0012146
2613.78	0.0007233
2623.43	0.0009162
2633.07	0.0011095
2642.72	0.0012979
2652.36	0.001108
2662.01	0.0011862
2671.65	0.001521
2681.29	0.001641
2690.94	0.001561
2700.58	0.0013402
2710.23	0.0009465
2719.87	0.0006576
2729.52	0.00045644
2739.16	0.0005601
2748.81	0.000279
2758.45	0.000256
2768.1	0.00061
2777.74	0.0009741
2787.39	0.0008512
2797.03	0.0008603
2806.68	0.0009392
2816.32	0.0010928
2825.97	0.001471
2835.61	0.0011989
2845.26	0.0010972
2854.9	0.0010798
2864.55	0.0008451
2874.19	0.0011297
2883.84	0.0012382
2893.48	0.0014155
2903.12	0.0012716
2912.77	0.001721
2922.41	0.002371
2932.06	0.003631
2941.7	0.002901
2951.35	0.002161
2960.99	0.003091
2970.64	0.004141
2980.28	0.003431
2989.93	0.003451
2999.57	0.004561
3009.22	0.005991
3018.86	0.005371
3028.51	0.003391
3038.15	0.003611
3047.8	0.004301
3057.44	0.007111
3067.09	0.008641
3076.73	0.008301
3086.38	0.006921
3096.02	0.003831
3105.67	0.002681
3115.31	0.003651
3124.95	0.003291
3134.6	0.002421
3144.24	0.001461
3153.89	0.0011024
3163.53	0.0012734
3173.18	0.0012552
3182.82	0.0007467
3192.47	0.0005827
3202.11	0.0009325
3211.76	0.00042696
3221.4	0.0008711
3231.05	0.00044392
3240.69	0.0005396
3250.34	0.0006513
3259.98	0.00066
3269.63	0.0004165
3279.27	0.0005675
3288.92	0.000433704
3298.56	0.000571
3308.21	0.0005475
3317.85	0.0006879
3327.49	0.0005326
3337.14	0.0009662
3346.78	0.000247
3356.43	0.0007018
3366.07	0.0006212
3375.72	0.0009035
3385.36	0.0009657
3395.01	0.0006853
3404.65	0.0011575
3414.3	0.001691
3423.94	0.002531
3433.59	0.003501
3443.23	0.003821
3452.88	0.003231
3462.52	0.002311
3472.17	0.001671
3481.81	0.0011135
3491.46	0.0010259
3501.1	0.0011316
3510.75	0.0013419
3520.39	0.000192
3530.04	0.0005933
3539.68	0.0008773
3549.32	0.0008361
3558.97	0.0007515
3568.61	0.0010895
3578.26	0.000303
3587.9	0.0005525
3597.55	0.0009322
3607.19	0.0004065
3616.84	0.0004152
3626.48	0.0003706
3636.13	0.0007165
3645.77	0.000377
3655.42	0.0008527
3665.06	0.0005965
3674.71	0.0006817
3684.35	0.0009864
3694	0.0007245
3703.64	0.0006248
3713.29	0.000285
3722.93	0.0009348
3732.58	0.0003348
3742.22	0.00047842
3751.86	0.0003766
3761.51	0.000324
3771.15	0.0009006
3780.8	0.000748
3790.44	0.0008899
3800.09	0.00028
3809.73	0.0006821
3819.38	0.0009088
3829.02	0.0009385
3838.67	0.0006139
3848.31	0.0006197
3857.96	0.0006874
3867.6	0.001691
3877.25	0.0010522
3886.89	0.0003951
3896.54	0.0006979
3906.18	0.0012395
3915.83	0.0006935
3925.47	0.00045983
3935.12	0.000298
3944.76	0.0013449
3954.41	0.0005434
3964.05	0.0005388
3973.69	0.0006622
3983.34	0.00045512
3992.98	0.0007038
