Infrared Spectrum: R-(-)-N,S-Dimethyl-S-phenylsulphoximine
Formula: C 8 H 11 N O S
CAS: 20414-85-1
State: gas
Origin: EPA-IR VAPOR PHASE LIBRARY
1/CM	ABSORBANCE
549.8	0.018711
559.445	0.010561
569.09	0.005561
578.734	0.002821
588.379	0.002051
598.024	0.002481
607.669	0.002231
617.313	0.0013575
626.958	0.002181
636.603	0.002441
646.248	0.003601
655.893	0.006021
665.537	0.009341
675.182	0.015921
684.827	0.028841
694.472	0.029321
704.116	0.017981
713.761	0.020021
723.406	0.043251
733.051	0.069171
742.695	0.058381
752.34	0.028151
761.985	0.030251
771.63	0.039021
781.275	0.024921
790.919	0.008141
800.564	0.004271
810.209	0.003931
819.854	0.004641
829.498	0.008001
839.143	0.017381
848.788	0.024261
858.433	0.017341
868.078	0.008061
877.722	0.004691
887.367	0.004511
897.012	0.004951
906.657	0.005091
916.301	0.006221
925.946	0.008581
935.591	0.014131
945.236	0.023731
954.88	0.027041
964.525	0.030761
974.17	0.042131
983.815	0.031261
993.46	0.012131
1003.1	0.007271
1012.75	0.006481
1022.39	0.007951
1032.04	0.007001
1041.68	0.005941
1051.33	0.009461
1060.97	0.014911
1070.62	0.022291
1080.26	0.037881
1089.91	0.043411
1099.55	0.027771
1109.2	0.025681
1118.84	0.024241
1128.49	0.024311
1138.13	0.036581
1147.78	0.069761
1157.42	0.114021
1167.07	0.137021
1176.71	0.099621
1186.36	0.048231
1196	0.024091
1205.64	0.014561
1215.29	0.011471
1224.93	0.013711
1234.58	0.020121
1244.22	0.040981
1253.87	0.095241
1263.51	0.176781
1273.16	0.206451
1282.8	0.145711
1292.45	0.073451
1302.09	0.043591
1311.74	0.034801
1321.38	0.025851
1331.03	0.015571
1340.67	0.010801
1350.32	0.009411
1359.96	0.008081
1369.61	0.007371
1379.25	0.007551
1388.9	0.007851
1398.54	0.008801
1408.18	0.011201
1417.83	0.012281
1427.47	0.011961
1437.12	0.017441
1446.76	0.021271
1456.41	0.015121
1466.05	0.011571
1475.7	0.012541
1485.34	0.009521
1494.99	0.004821
1504.63	0.003881
1514.28	0.003311
1523.92	0.003351
1533.57	0.003191
1543.21	0.003231
1552.86	0.003091
1562.5	0.003051
1572.15	0.003341
1581.79	0.003491
1591.44	0.002871
1601.08	0.002231
1610.73	0.002021
1620.37	0.001791
1630.01	0.0014063
1639.66	0.0014017
1649.3	0.0013975
1658.95	0.001881
1668.59	0.001911
1678.24	0.001741
1687.88	0.001431
1697.53	0.001481
1707.17	0.0011579
1716.82	0.0009665
1726.46	0.0007804
1736.11	0.0009704
1745.75	0.0010819
1755.4	0.001591
1765.04	0.001921
1774.69	0.002061
1784.33	0.001681
1793.98	0.002041
1803.62	0.002941
1813.27	0.003261
1822.91	0.002611
1832.55	0.001801
1842.2	0.001791
1851.84	0.0013716
1861.49	0.0012186
1871.13	0.0012934
1880.78	0.001901
1890.42	0.002521
1900.07	0.002991
1909.71	0.002901
1919.36	0.002341
1929	0.001921
1938.65	0.002341
1948.29	0.003251
1957.94	0.003841
1967.58	0.003571
1977.23	0.002721
1986.87	0.002291
1996.52	0.002401
2006.16	0.002581
2015.81	0.002581
2025.45	0.002171
2035.1	0.001911
2044.74	0.001621
2054.38	0.001631
2064.03	0.0013624
2073.67	0.0013483
2083.32	0.001481
2092.96	0.001821
2102.61	0.002341
2112.25	0.002511
2121.9	0.002631
2131.54	0.002021
2141.19	0.001441
2150.83	0.0011556
2160.48	0.0012117
2170.12	0.0011685
2179.77	0.001055
2189.41	0.0007826
2199.06	0.000726
2208.7	0.0008626
2218.35	0.0009133
2227.99	0.0009377
2237.64	0.0010889
2247.28	0.0011901
2256.92	0.0011388
2266.57	0.0012298
2276.21	0.0011757
2285.86	0.0009291
2295.5	0.0008561
2305.15	0.0007653
2314.79	0.0012834
2324.44	0.001471
2334.08	0.0013297
2343.73	0.0011017
2353.37	0.001045
2363.02	0.0009989
2372.66	0.0007504
2382.31	0.0008792
2391.95	0.0008936
2401.6	0.0009274
2411.24	0.0009004
2420.89	0.0009828
2430.53	0.0010122
2440.18	0.0007213
2449.82	0.0006864
2459.47	0.0008128
2469.11	0.0005948
2478.75	0.00051368
2488.4	0.00041277
2498.04	0.0006659
2507.69	0.0007826
2517.33	0.0008223
2526.98	0.0009144
2536.62	0.000916
2546.27	0.0010137
2555.91	0.0011803
2565.56	0.0011902
2575.2	0.0012441
2584.85	0.0012843
2594.49	0.0011193
2604.14	0.0011201
2613.78	0.0010563
2623.43	0.0008902
2633.07	0.0006917
2642.72	0.000729
2652.36	0.0008583
2662.01	0.0011231
2671.65	0.0010926
2681.29	0.0009433
2690.94	0.0008504
2700.58	0.0007309
2710.23	0.0007551
2719.87	0.0008946
2729.52	0.001203
2739.16	0.001421
2748.81	0.0013007
2758.45	0.001741
2768.1	0.002291
2777.74	0.003021
2787.39	0.004781
2797.03	0.008701
2806.68	0.017501
2816.32	0.023071
2825.97	0.015851
2835.61	0.009061
2845.26	0.008241
2854.9	0.009631
2864.55	0.013541
2874.19	0.020971
2883.84	0.026411
2893.48	0.026511
2903.12	0.026111
2912.77	0.026351
2922.41	0.026581
2932.06	0.024981
2941.7	0.021731
2951.35	0.019141
2960.99	0.015511
2970.64	0.016081
2980.28	0.017841
2989.93	0.014421
2999.57	0.010901
3009.22	0.010791
3018.86	0.010821
3028.51	0.010061
3038.15	0.008721
3047.8	0.009041
3057.44	0.014971
3067.09	0.028701
3076.73	0.030061
3086.38	0.015951
3096.02	0.007481
3105.67	0.003131
3115.31	0.001901
3124.95	0.001701
3134.6	0.001821
3144.24	0.001561
3153.89	0.001741
3163.53	0.001631
3173.18	0.001421
3182.82	0.0007922
3192.47	0.0008444
3202.11	0.0005271
3211.76	0.0008619
3221.4	0.00051788
3231.05	0.0007956
3240.69	0.0004605
3250.34	0.0006012
3259.98	0.0005692
3269.63	0.0006263
3279.27	0.00050766
3288.92	0.000652
3298.56	0.0003964
3308.21	0.0007112
3317.85	0.0003836
3327.49	0.00046408
3337.14	0.0008018
3346.78	0.000574
3356.43	0.0005223
3366.07	0.0005947
3375.72	0.000268
3385.36	0.0006929
3395.01	0.00047967
3404.65	0.0006963
3414.3	0.000225
3423.94	0.000152
3433.59	0.0007018
3443.23	0.00046229
3452.88	0.0005344
3462.52	0.0005456
3472.17	0.00041195
3481.81	0.0003376
3491.46	0.0003535
3501.1	0.0004082
3510.75	0.000112
3520.39	0.0003215
3530.04	0.0008679
3539.68	0.000235
3549.32	0.00044775
3558.97	0.00049618
3568.61	0.0003807
3578.26	0.0005829
3587.9	0.00050721
3597.55	0.0003943
3607.19	0.0005485
3616.84	0.0006752
3626.48	0.00049419
3636.13	0.0007297
3645.77	0.000832
3655.42	0.0006189
3665.06	0.00051207
3674.71	0.0006536
3684.35	0.0006051
3694	0.0007032
3703.64	0.0007422
3713.29	0.0007691
3722.93	0.0011155
3732.58	0.00043248
3742.22	0.0007082
3751.86	0.0009327
3761.51	0.000617
3771.15	0.0007807
3780.8	0.0007778
3790.44	0.0003799
3800.09	0.0006299
3809.73	0.0005737
3819.38	0.0006581
3829.02	0.000423456
3838.67	0.000534
3848.31	0.00049249
3857.96	0.0006892
3867.6	0.0005714
3877.25	0.000674
3886.89	0.0006205
3896.54	0.0005985
3906.18	0.0008985
3915.83	0.0005872
3925.47	0.0006971
3935.12	0.0009098
3944.76	0.0007629
3954.41	0.0008287
3964.05	0.0009323
3973.69	0.0010401
3983.34	0.001208
3992.98	0.0014069
