Infrared Spectrum: FLUOREN-9-ONE, 3-BROMO-
Formula: C13 H7 Br O
CAS: 2041-19-2
State: SOLID (SPLIT MULL), FLUOROLUBE FOR 3800-1330 CM^-^1, NUJOL FOR 1330-400 CM^-^1
Class: COBLENTZ III
Instrument: BECKMAN IR-9 (GRATING)
Instrument parameters: ORDER CHANGES: 670, 1200, 2000 CM^-^1
Sampling: TRANSMISSION
Resolution: 2
Origin: DOW CHEMICAL COMPANY
1/CM	TRANSMITTANCE
408.309	0.63
417.211	0.662
426.113	0.735
435.015	0.777
443.917	0.778
452.819	0.842
461.722	0.86
470.624	0.871
479.526	0.899
488.428	0.912
497.33	0.923
506.232	0.936
515.134	0.947
524.036	0.957
532.938	0.959
541.84	0.962
550.743	0.965
559.645	0.962
568.547	0.959
577.449	0.951
586.351	0.857
595.253	0.952
604.155	0.961
613.057	0.965
621.959	0.962
630.861	0.962
639.764	0.973
648.666	0.973
657.568	0.95
666.47	0.806
675.372	0.952
684.274	0.954
693.176	0.954
702.078	0.954
710.98	0.947
719.882	0.904
728.785	0.817
737.687	0.4672
746.589	0.91
755.491	0.932
764.393	0.4733
773.295	0.943
782.197	0.947
791.099	0.936
800.001	0.8639
808.903	0.951
817.806	0.958
826.708	0.8268
835.61	0.918
844.512	0.947
853.414	0.95
862.316	0.95
871.218	0.947
880.12	0.94
889.022	0.918
897.924	0.829
906.827	0.896
915.729	0.781
924.631	0.6233
933.533	0.912
942.435	0.926
951.337	0.89
960.239	0.919
969.141	0.919
978.043	0.918
986.945	0.901
995.848	0.923
1004.75	0.917
1013.65	0.899
1022.55	0.912
1031.46	0.878
1040.36	0.853
1049.26	0.875
1058.16	0.484
1067.06	0.876
1075.97	0.897
1084.87	0.8778
1093.77	0.89
1102.67	0.84
1111.57	0.7121
1120.48	0.868
1129.38	0.885
1138.28	0.899
1147.18	0.883
1156.09	0.831
1164.99	0.871
1173.89	0.879
1182.79	0.889
1191.69	0.867
1200.6	0.72
1209.5	0.798
1218.4	0.881
1227.3	0.878
1236.2	0.893
1245.11	0.893
1254.01	0.878
1262.91	0.872
1271.81	0.874
1280.71	0.857
1289.62	0.802
1298.52	0.7329
1307.42	0.6521
1316.32	0.832
1325.23	0.85
1334.13	0.852
1343.03	0.849
1351.93	0.854
1360.83	0.825
1369.74	0.871
1378.64	0.871
1387.54	0.869
1396.44	0.85
1405.34	0.6581
1414.25	0.857
1423.15	0.869
1432.05	0.849
1440.95	0.554
1449.85	0.853
1458.76	0.856
1467.66	0.799
1476.56	0.9
1485.46	0.914
1494.37	0.904
1503.27	0.896
1512.17	0.899
1521.07	0.885
1529.97	0.861
1538.88	0.86
1547.78	0.854
1556.68	0.832
1565.58	0.762
1574.48	0.5799
1583.39	0.723
1592.29	0.492
1601.19	0.484
1610.09	0.3342
1618.99	0.831
1627.9	0.875
1636.8	0.912
1645.7	0.901
1654.6	0.881
1663.5	0.853
1672.41	0.781
1681.31	0.778
1690.21	0.716
1699.11	0.5399
1708.02	0.123
1716.92	0.1991
1725.82	0.821
1734.72	0.95
1743.62	1.006
1752.53	1.006
1761.43	0.995
1770.33	0.979
1779.23	0.958
1788.13	0.947
1797.04	0.937
1805.94	0.944
1814.84	0.939
1823.74	0.929
1832.64	0.9
1841.55	0.899
1850.45	0.923
1859.35	0.923
1868.25	0.915
1877.16	0.915
1886.06	0.914
1894.96	0.896
1903.86	0.901
1912.76	0.908
1921.67	0.905
1930.57	0.893
1939.47	0.896
1948.37	0.901
1957.27	0.896
1966.18	0.883
1975.08	0.893
1983.98	0.893
1992.88	0.892
2001.78	0.878
2010.69	0.874
2019.59	0.868
2028.49	0.8668
2037.39	0.863
2046.3	0.8608
2055.2	0.858
2064.1	0.8568
2073	0.8538
2081.9	0.852
2090.81	0.8484
2099.71	0.8443
2108.61	0.839
2117.51	0.8298
2126.41	0.827
2135.32	0.828
2144.22	0.828
2153.12	0.8275
2162.02	0.8259
2170.92	0.8193
2179.83	0.8164
2188.73	0.8134
2197.63	0.8093
2206.53	0.804
2215.43	0.8
2224.34	0.796
2233.24	0.7922
2242.14	0.7882
2251.04	0.781
2259.95	0.778
2268.85	0.775
2277.75	0.771
2286.65	0.766
2295.55	0.763
2304.46	0.76
2313.36	0.757
2322.26	0.755
2331.16	0.752
2340.06	0.752
2348.97	0.752
2357.87	0.752
2366.77	0.753
2375.67	0.753
2384.57	0.756
2393.48	0.757
2402.38	0.7543
2411.28	0.749
2420.18	0.748
2429.09	0.7471
2437.99	0.745
2446.89	0.7445
2455.79	0.743
2464.69	0.7415
2473.6	0.739
2482.5	0.7384
2491.4	0.7374
2500.3	0.735
2509.2	0.7343
2518.11	0.733
2527.01	0.733
2535.91	0.733
2544.81	0.733
2553.71	0.731
2562.62	0.73
2571.52	0.7282
2580.42	0.727
2589.32	0.726
2598.23	0.723
2607.13	0.721
2616.03	0.719
2624.93	0.717
2633.83	0.7148
2642.74	0.71
2651.64	0.709
2660.54	0.708
2669.44	0.708
2678.34	0.7075
2687.25	0.705
2696.15	0.7034
2705.05	0.701
2713.95	0.6986
2722.85	0.697
2731.76	0.695
2740.66	0.692
2749.56	0.691
2758.46	0.689
2767.37	0.6874
2776.27	0.6848
2785.17	0.6818
2794.07	0.679
2802.97	0.6763
2811.88	0.6733
2820.78	0.672
2829.68	0.669
2838.58	0.666
2847.48	0.6634
2856.39	0.661
2865.29	0.6551
2874.19	0.652
2883.09	0.651
2891.99	0.65
2900.9	0.648
2909.8	0.645
2918.7	0.643
2927.6	0.64
2936.5	0.6358
2945.41	0.633
2954.31	0.632
2963.21	0.632
2972.11	0.6298
2981.02	0.6267
2989.92	0.622
2998.82	0.6187
3007.72	0.6096
3016.62	0.5952
3025.53	0.596
3034.43	0.5951
3043.33	0.5757
3052.23	0.55
3061.13	0.5145
3070.04	0.5454
3078.94	0.5778
3087.84	0.5856
3096.74	0.5967
3105.64	0.6124
3114.55	0.615
3123.45	0.614
3132.35	0.612
3141.25	0.609
3150.16	0.608
3159.06	0.6053
3167.96	0.604
3176.86	0.6012
3185.76	0.6
3194.67	0.598
3203.57	0.596
3212.47	0.594
3221.37	0.591
3230.27	0.5899
3239.18	0.587
3248.08	0.586
3256.98	0.582
3265.88	0.5798
3274.78	0.578
3283.69	0.575
3292.59	0.5727
3301.49	0.571
3310.39	0.568
3319.3	0.5662
3328.2	0.564
3337.1	0.561
3346	0.559
3354.9	0.557
3363.81	0.5535
3372.71	0.5519
3381.61	0.55
3390.51	0.5477
3399.41	0.5453
3408.32	0.5386
3417.22	0.5279
3426.12	0.542
3435.02	0.542
3443.92	0.54
3452.83	0.539
3461.73	0.538
3470.63	0.536
3479.53	0.535
3488.44	0.533
3497.34	0.532
3506.24	0.531
3515.14	0.5309
3524.04	0.5289
3532.95	0.528
3541.85	0.526
3550.75	0.525
3559.65	0.524
3568.55	0.522
3577.46	0.521
3586.36	0.52
3595.26	0.518
3604.16	0.5177
3613.06	0.5162
3621.97	0.515
3630.87	0.514
3639.77	0.513
3648.67	0.511
3657.57	0.51
3666.48	0.508
3675.38	0.507
3684.28	0.506
3693.18	0.5047
3702.09	0.504
3710.99	0.503
3719.89	0.502
3728.79	0.5
3737.69	0.499
3746.6	0.497
3755.5	0.496
3764.4	0.495
3773.3	0.4932
3782.2	0.4921
3791.11	0.492
3800.01	0.491
