Infrared Spectrum: 9H-PURINE, 9-METHYL
Formula: C6 H6 N4
CAS: 20427-22-9
State: SOLID (0.9 mg / 650 mg, KBr DISC)
Class: COBLENTZ III
Instrument: PERKIN-ELMER 21 (GRATING)
Instrument parameters: FILTER CHANGE AT ABOUT 1020 CM^-^1
Sampling: TRANSMISSION
Resolution: 2
Origin: SOUTHERN RESEARCH INSTITUTE
1/CM	TRANSMITTANCE
610.063	0.53
618.799	0.5242
627.536	0.4916
636.272	0.4148
645.008	0.3502
653.745	0.6384
662.481	0.6837
671.217	0.6872
679.954	0.6906
688.69	0.695
697.426	0.698
706.163	0.699
714.899	0.696
723.635	0.6754
732.372	0.6555
741.108	0.767
749.844	0.7606
758.581	0.7376
767.317	0.6989
776.053	0.6391
784.79	0.5724
793.526	0.4042
802.262	0.7948
810.999	0.7955
819.735	0.792
828.472	0.7787
837.208	0.7668
845.944	0.751
854.681	0.7361
863.417	0.7039
872.153	0.5994
880.89	0.7185
889.626	0.6732
898.362	0.6306
907.099	0.6638
915.835	0.6572
924.571	0.6147
933.308	0.6026
942.044	0.7524
950.78	0.769
959.517	0.7612
968.253	0.7465
976.989	0.733
985.726	0.733
994.462	0.7304
1003.2	0.7028
1011.93	0.6811
1020.67	0.6442
1029.41	0.5685
1038.14	0.5574
1046.88	0.5594
1055.62	0.6517
1064.35	0.6382
1073.09	0.6767
1081.83	0.6879
1090.56	0.6271
1099.3	0.5987
1108.03	0.6796
1116.77	0.621
1125.51	0.5463
1134.24	0.4796
1142.98	0.4537
1151.72	0.3989
1160.45	0.5332
1169.19	0.724
1177.93	0.694
1186.66	0.6573
1195.4	0.5883
1204.13	0.5283
1212.87	0.5003
1221.61	0.4252
1230.34	0.2936
1239.08	0.3006
1247.82	0.6341
1256.55	0.657
1265.29	0.6531
1274.02	0.6423
1282.76	0.5861
1291.5	0.5056
1300.23	0.3406
1308.97	0.1882
1317.71	0.3464
1326.44	0.683
1335.18	0.6173
1343.92	0.3966
1352.65	0.3632
1361.39	0.5462
1370.12	0.592
1378.86	0.6398
1387.6	0.6375
1396.33	0.5283
1405.07	0.4017
1413.81	0.5181
1422.54	0.6394
1431.28	0.5803
1440.02	0.6375
1448.75	0.5965
1457.49	0.584
1466.22	0.613
1474.96	0.616
1483.7	0.5317
1492.43	0.5002
1501.17	0.6192
1509.91	0.4429
1518.64	0.4233
1527.38	0.7175
1536.12	0.692
1544.85	0.681
1553.59	0.6287
1562.32	0.5446
1571.06	0.4492
1579.8	0.2248
1588.53	0.2334
1597.27	0.2127
1606.01	0.4608
1614.74	0.4317
1623.48	0.6473
1632.21	0.7703
1640.95	0.8041
1649.69	0.8155
1658.42	0.8219
1667.16	0.8294
1675.9	0.8327
1684.63	0.832
1693.37	0.834
1702.11	0.826
1710.84	0.823
1719.58	0.816
1728.31	0.813
1737.05	0.814
1745.79	0.8131
1754.52	0.8002
1763.26	0.795
1772	0.7923
1780.73	0.7883
1789.47	0.7838
1798.21	0.7739
1806.94	0.755
1815.68	0.7341
1824.41	0.731
1833.15	0.732
1841.89	0.735
1850.62	0.7385
1859.36	0.7538
1868.1	0.769
1876.83	0.7689
1885.57	0.763
1894.31	0.756
1903.04	0.7529
1911.78	0.7606
1920.51	0.7748
1929.25	0.775
1937.99	0.7723
1946.72	0.7684
1955.46	0.766
1964.2	0.768
1972.93	0.771
1981.67	0.772
1990.4	0.772
1999.14	0.771
2007.88	0.769
2016.61	0.7667
2025.35	0.763
2034.09	0.762
2042.82	0.759
2051.56	0.756
2060.3	0.752
2069.03	0.75
2077.77	0.747
2086.5	0.746
2095.24	0.7453
2103.98	0.743
2112.71	0.741
2121.45	0.74
2130.19	0.737
2138.92	0.736
2147.66	0.7307
2156.4	0.727
2165.13	0.727
2173.87	0.726
2182.6	0.724
2191.34	0.7167
2200.08	0.7107
2208.81	0.705
2217.55	0.702
2226.29	0.7007
2235.02	0.699
2243.76	0.699
2252.5	0.698
2261.23	0.695
2269.97	0.694
2278.7	0.6907
2287.44	0.688
2296.18	0.684
2304.91	0.6787
2313.65	0.6747
2322.39	0.673
2331.12	0.672
2339.86	0.673
2348.59	0.674
2357.33	0.6766
2366.07	0.68
2374.8	0.6787
2383.54	0.6747
2392.28	0.672
2401.01	0.6687
2409.75	0.667
2418.49	0.6627
2427.22	0.659
2435.96	0.659
2444.69	0.659
2453.43	0.658
2462.17	0.658
2470.9	0.658
2479.64	0.658
2488.38	0.658
2497.11	0.658
2505.85	0.658
2514.59	0.657
2523.32	0.657
2532.06	0.655
2540.79	0.6547
2549.53	0.654
2558.27	0.654
2567	0.653
2575.74	0.652
2584.48	0.652
2593.21	0.6497
2601.95	0.648
2610.69	0.644
2619.42	0.643
2628.16	0.642
2636.89	0.642
2645.63	0.642
2654.37	0.641
2663.1	0.638
2671.84	0.637
2680.58	0.636
2689.31	0.632
2698.05	0.6267
2706.78	0.6217
2715.52	0.6167
2724.26	0.612
2732.99	0.607
2741.73	0.6017
2750.47	0.5934
2759.2	0.584
2767.94	0.5807
2776.68	0.575
2785.41	0.5737
2794.15	0.573
2802.88	0.571
2811.62	0.571
2820.36	0.571
2829.09	0.569
2837.83	0.5624
2846.57	0.559
2855.3	0.558
2864.04	0.556
2872.78	0.5524
2881.51	0.5464
2890.25	0.5397
2898.98	0.535
2907.72	0.5297
2916.46	0.5237
2925.19	0.5187
2933.93	0.518
2942.67	0.5167
2951.4	0.5127
2960.14	0.509
2968.87	0.4955
2977.61	0.4748
2986.35	0.4564
2995.08	0.4407
3003.82	0.4366
3012.56	0.4416
3021.29	0.445
3030.03	0.446
3038.77	0.4431
3047.5	0.4307
3056.24	0.4197
3064.97	0.4183
3073.71	0.4373
3082.45	0.5199
3091.18	0.5672
3099.92	0.579
3108.66	0.5826
3117.39	0.589
3126.13	0.595
3134.87	0.5934
3143.6	0.5867
3152.34	0.581
3161.07	0.579
3169.81	0.576
3178.55	0.574
3187.28	0.574
3196.02	0.571
3204.76	0.568
3213.49	0.563
3222.23	0.56
3230.97	0.559
3239.7	0.558
3248.44	0.5521
3257.17	0.5464
3265.91	0.548
3274.65	0.547
3283.38	0.545
3292.12	0.543
3300.86	0.5397
3309.59	0.537
3318.33	0.533
3327.06	0.5287
3335.8	0.5217
3344.54	0.5127
3353.27	0.5054
3362.01	0.4967
3370.75	0.4894
3379.48	0.4858
3388.22	0.4697
3396.96	0.4647
3405.69	0.4604
3414.43	0.4547
3423.16	0.451
3431.9	0.451
3440.64	0.45
3449.37	0.45
3458.11	0.452
3466.85	0.452
3475.58	0.45
3484.32	0.451
3493.06	0.4513
3501.79	0.4553
3510.53	0.4603
3519.26	0.4663
3528	0.4729
3536.74	0.4823
3545.47	0.487
3554.21	0.49
3562.95	0.4903
3571.68	0.4963
3580.42	0.5023
3589.16	0.509
3597.89	0.517
3606.63	0.522
3615.36	0.527
3624.1	0.5323
3632.84	0.534
3641.57	0.535
3650.31	0.535
3659.05	0.535
3667.78	0.535
3676.52	0.535
3685.25	0.535
3693.99	0.535
3702.73	0.535
3711.46	0.535
3720.2	0.535
3728.94	0.535
3737.67	0.535
3746.41	0.535
3755.15	0.537
3763.88	0.538
3772.62	0.538
3781.35	0.538
3790.09	0.5383
3798.83	0.5387
3807.56	0.5377
3816.3	0.535
3825.04	0.5337
3833.77	0.53
3842.51	0.5277
3851.25	0.525
3859.98	0.525
3868.72	0.525
3877.45	0.525
3886.19	0.525
3894.93	0.525
3903.66	0.525
3912.4	0.524
3921.14	0.5217
3929.87	0.5187
3938.61	0.514
3947.35	0.513
3956.08	0.511
3964.82	0.509
3973.55	0.5077
3982.29	0.5054
3991.03	0.502
3999.76	0.502
4008.5	0.502
4017.24	0.502
