Infrared Spectrum: 1,1-DI(PHOSPHONIC ACID DIETHYL ESTER)-1-HYDROXY ETHANE
Formula: C10 H24 O7 P2
CAS: 20427-93-4
Class: COBLENTZ
Instrument: Not specified, most likely a prism, grating, or hybrid spectrometer.
Sampling: TRANSMISSION
Path length: SMEAR
Resolution: 4
Origin: TENNESSEE EASTMAN COMPANY, RESEARCH LABORATORIES
MICROMETERS	TRANSMITTANCE
2.046	0.952
2.08494	0.952
2.12388	0.952
2.16282	0.952
2.20175	0.951
2.24069	0.951
2.27963	0.951
2.31857	0.951
2.35751	0.952
2.39645	0.952
2.43539	0.952
2.47433	0.954
2.51326	0.954
2.5522	0.959
2.59114	0.96
2.63008	0.96
2.66902	0.962
2.70796	0.962
2.7469	0.957
2.78584	0.931
2.82477	0.894
2.86371	0.855
2.90265	0.855
2.94159	0.887
2.98053	0.93
3.01947	0.944
3.05841	0.952
3.09735	0.952
3.13628	0.956
3.17522	0.965
3.21416	0.97
3.2531	0.97
3.29204	0.969
3.33098	0.813
3.36992	0.665
3.40886	0.804
3.44779	0.84
3.48673	0.918
3.52567	0.957
3.56461	0.969
3.60355	0.977
3.64249	0.982
3.68143	0.982
3.72036	0.99
3.7593	0.991
3.79824	0.993
3.83718	0.995
3.87612	0.996
3.91506	0.998
3.954	0.998
3.99294	0.998
4.03187	0.998
4.07081	1
4.10975	0.998
4.14869	1
4.18763	1.001
4.22657	1.001
4.26551	1.003
4.30445	1.003
4.34338	1.003
4.38232	1.001
4.42126	1.001
4.4602	1.001
4.49914	1.004
4.53808	1.004
4.57702	1.004
4.61596	1.004
4.65489	1.004
4.69383	1.004
4.73277	1.003
4.77171	1.003
4.81065	1.003
4.84959	1.003
4.88853	1.003
4.92747	1.003
4.9664	1.004
5.00534	1.004
5.04428	1.004
5.08322	1.004
5.12216	1.004
5.1611	1.004
5.20004	1.004
5.23897	1.004
5.27791	1.004
5.31685	1.003
5.35579	1.001
5.39473	0.998
5.43367	0.995
5.47261	0.995
5.51155	0.993
5.55048	0.993
5.58942	0.993
5.62836	0.993
5.6673	0.993
5.70624	0.993
5.74518	0.993
5.78412	0.991
5.82306	0.991
5.86199	0.99
5.90093	0.99
5.93987	0.99
5.97881	0.99
6.01775	0.983
6.05669	0.982
6.09563	0.967
6.13457	0.964
6.1735	0.965
6.21244	0.972
6.25138	0.991
6.29032	0.996
6.32926	0.998
6.3682	1
6.40714	1.001
6.44608	1.001
6.48501	1.001
6.52395	1.001
6.56289	0.996
6.60183	0.993
6.64077	0.988
6.67971	0.98
6.71865	0.923
6.75758	0.899
6.79652	0.908
6.83546	0.91
6.8744	0.853
6.91334	0.822
6.95228	0.869
6.99122	0.931
7.03016	0.944
7.06909	0.944
7.10803	0.93
7.14697	0.843
7.18591	0.796
7.22485	0.845
7.26379	0.861
7.30273	0.829
7.34167	0.858
7.3806	0.934
7.41954	0.952
7.45848	0.954
7.49742	0.951
7.53636	0.936
7.5753	0.915
7.61424	0.902
7.65318	0.84
7.69211	0.734
7.73105	0.614
7.76999	0.564
7.80893	0.523
7.84787	0.486
7.88681	0.46
7.92575	0.439
7.96469	0.439
8.00362	0.45
8.04256	0.458
8.0815	0.526
8.12044	0.647
8.15938	0.744
8.19832	0.814
8.23726	0.852
8.27619	0.884
8.31513	0.9
8.35407	0.905
8.39301	0.907
8.43195	0.904
8.47089	0.879
8.50983	0.803
8.54877	0.707
8.5877	0.686
8.62664	0.712
8.66558	0.762
8.70452	0.788
8.74346	0.8
8.7824	0.801
8.82134	0.8
8.86028	0.772
8.89921	0.733
8.93815	0.708
8.97709	0.7
9.01603	0.668
9.05497	0.609
9.09391	0.582
9.13285	0.572
9.17179	0.552
9.21072	0.513
9.24966	0.494
9.2886	0.469
9.32754	0.414
9.36648	0.377
9.40542	0.344
9.44436	0.321
9.4833	0.291
9.52223	0.248
9.56117	0.211
9.60011	0.19
9.63905	0.172
9.67799	0.164
9.71693	0.162
9.75587	0.162
9.79481	0.162
9.83374	0.164
9.87268	0.172
9.91162	0.234
9.95056	0.317
9.9895	0.396
10.0284	0.468
10.0674	0.468
10.1063	0.437
10.1453	0.398
10.1842	0.367
10.2231	0.349
10.2621	0.347
10.301	0.347
10.3399	0.356
10.3789	0.373
10.4178	0.398
10.4568	0.406
10.4957	0.416
10.5346	0.427
10.5736	0.447
10.6125	0.473
10.6515	0.505
10.6904	0.557
10.7293	0.645
10.7683	0.71
10.8072	0.764
10.8462	0.817
10.8851	0.842
10.924	0.863
10.963	0.881
11.0019	0.899
11.0408	0.908
11.0798	0.915
11.1187	0.92
11.1577	0.921
11.1966	0.925
11.2355	0.928
11.2745	0.928
11.3134	0.928
11.3524	0.93
11.3913	0.93
11.4302	0.93
11.4692	0.93
11.5081	0.93
11.547	0.93
11.586	0.928
11.6249	0.93
11.6639	0.93
11.7028	0.928
11.7417	0.923
11.7807	0.912
11.8196	0.9
11.8586	0.865
11.8975	0.821
11.9364	0.777
11.9754	0.699
12.0143	0.624
12.0533	0.577
12.0922	0.557
12.1311	0.557
12.1701	0.57
12.209	0.588
12.2479	0.603
12.2869	0.616
12.3258	0.626
12.3648	0.63
12.4037	0.637
12.4426	0.639
12.4816	0.639
12.5205	0.643
12.5595	0.652
12.5984	0.673
12.6373	0.699
12.6763	0.721
12.7152	0.739
12.7541	0.752
12.7931	0.757
12.832	0.762
12.871	0.767
12.9099	0.77
12.9488	0.772
12.9878	0.775
13.0267	0.78
13.0657	0.783
13.1046	0.786
13.1435	0.791
13.1825	0.796
13.2214	0.798
13.2604	0.8
13.2993	0.8
13.3382	0.804
13.3772	0.817
13.4161	0.821
13.455	0.822
13.494	0.826
13.5329	0.824
13.5719	0.824
13.6108	0.826
13.6497	0.824
13.6887	0.824
13.7276	0.824
13.7666	0.824
13.8055	0.824
13.8444	0.826
13.8834	0.824
13.9223	0.824
13.9612	0.824
14.0002	0.824
14.0391	0.824
14.0781	0.822
14.117	0.821
14.1559	0.822
14.1949	0.819
14.2338	0.817
14.2728	0.814
14.3117	0.813
14.3506	0.813
14.3896	0.813
14.4285	0.813
14.4675	0.809
14.5064	0.809
14.5453	0.808
14.5843	0.806
14.6232	0.803
14.6621	0.801
14.7011	0.8
14.74	0.798
14.779	0.791
14.8179	0.788
14.8568	0.783
14.8958	0.782
14.9347	0.782
14.9737	0.78
15.0126	0.772
15.0515	0.76
15.0905	0.754
15.1294	0.751
15.1683	0.751
15.2073	0.749
15.2462	0.747
15.2852	0.746
15.3241	0.744
15.363	0.741
15.402	0.736
15.4409	0.733
15.4799	0.731
15.5188	0.73
15.5577	0.725
15.5967	0.72
15.6356	0.717
15.6746	0.715
15.7135	0.713
15.7524	0.71
15.7914	0.708
15.8303	0.705
15.8692	0.705
15.9082	0.705
15.9471	0.705
15.9861	0.702
16.025	0.702
