Infrared Spectrum: .alpha.-Phenyl-trans-cinnamamide
Formula: C 15 H 13 N O
CAS: 20432-29-5
State: gas
Origin: EPA-IR VAPOR PHASE LIBRARY
1/CM	ABSORBANCE
551.7	0.01584
563.274	0.02836
574.848	0.01008
586.421	0.00991
597.995	0.00932
609.569	0.00514
621.143	0.00568
632.717	0.00539
644.291	0.00855
655.864	0.00997
667.438	0.01375
679.012	0.0217
690.586	0.04026
702.16	0.05481
713.734	0.02535
725.307	0.01629
736.881	0.01187
748.455	0.01624
760.029	0.023
771.603	0.02142
783.177	0.01697
794.75	0.01335
806.324	0.01215
817.898	0.01113
829.472	0.01034
841.046	0.00908
852.619	0.00796
864.193	0.00759
875.767	0.00781
887.341	0.00802
898.915	0.00767
910.489	0.0078
922.062	0.00862
933.636	0.00843
945.21	0.00722
956.784	0.00626
968.358	0.00703
979.932	0.01002
991.505	0.00905
1003.08	0.00766
1014.65	0.00552
1026.23	0.00771
1037.8	0.00535
1049.37	0.00385
1060.95	0.00533
1072.52	0.00892
1084.1	0.01155
1095.67	0.00979
1107.24	0.00595
1118.82	0.00391
1130.39	0.00328
1141.97	0.00376
1153.54	0.00407
1165.11	0.00458
1176.69	0.00678
1188.26	0.00748
1199.83	0.01008
1211.41	0.01088
1222.98	0.00669
1234.56	0.00653
1246.13	0.00738
1257.7	0.01011
1269.28	0.01581
1280.85	0.02006
1292.42	0.02487
1304	0.03814
1315.57	0.06893
1327.15	0.08083
1338.72	0.05335
1350.29	0.0263
1361.87	0.01681
1373.44	0.01394
1385.02	0.00894
1396.59	0.00511
1408.16	0.00368
1419.74	0.00348
1431.31	0.00543
1442.88	0.01043
1454.46	0.00694
1466.03	0.00434
1477.61	0.00618
1489.18	0.01537
1500.75	0.01127
1512.33	0.00494
1523.9	0.00458
1535.48	0.00564
1547.05	0.0085
1558.62	0.01686
1570.2	0.04838
1581.77	0.08441
1593.34	0.04439
1604.92	0.02192
1616.49	0.01961
1628.07	0.02354
1639.64	0.01385
1651.21	0.01085
1662.79	0.01245
1674.36	0.01723
1685.93	0.02203
1697.51	0.04256
1709.08	0.13686
1720.66	0.13336
1732.23	0.03374
1743.8	0.01709
1755.38	0.01258
1766.95	0.00824
1778.53	0.00556
1790.1	0.0047
1801.67	0.00507
1813.25	0.00391
1824.82	0.00282
1836.39	0.00208
1847.97	0.00191
1859.54	0.00244
1871.12	0.00344
1882.69	0.0037
1894.26	0.00279
1905.84	0.00188
1917.41	0.00184
1928.99	0.00232
1940.56	0.0036
1952.13	0.00387
1963.71	0.0028
1975.28	0.00144
1986.85	0.00101
1998.43	0.0008303
2010	0.0007772
2021.58	0.000716
2033.15	0.0006138
2044.72	0.0006138
2056.3	0.0006645
2067.87	0.0006322
2079.44	0.0005353
2091.02	0.0004918
2102.59	0.0003941
2114.17	0.0004565
2125.74	0.0004765
2137.31	0.0004475
2148.89	0.0004947
2160.46	0.0005436
2172.04	0.0005112
2183.61	0.0004965
2195.18	0.0004851
2206.76	0.0005353
2218.33	0.0005416
2229.9	0.0005637
2241.48	0.0005784
2253.05	0.0006202
2264.63	0.0005628
2276.2	0.0004987
2287.77	0.0005751
2299.35	0.0005348
2310.92	0.0008813
2322.5	0.0008164
2334.07	0.0007409
2345.64	0.0007882
2357.22	0.000587
2368.79	0.0005186
2380.36	0.0004816
2391.94	0.0005117
2403.51	0.0005927
2415.09	0.0005502
2426.66	0.0004166
2438.23	0.0003873
2449.81	0.0003795
2461.38	0.0004291
2472.96	0.0003691
2484.53	0.0003515
2496.1	0.0003333
2507.68	0.0003716
2519.25	0.0003981
2530.82	0.0003325
2542.4	0.0003669
2553.97	0.0004145
2565.55	0.0004225
2577.12	0.0004433
2588.69	0.0005009
2600.27	0.0005388
2611.84	0.0004598
2623.41	0.0004862
2634.99	0.0003667
2646.56	0.0002922
2658.14	0.0002885
2669.71	0.0002703
2681.28	0.0002973
2692.86	0.0002538
2704.43	0.0002785
2716.01	0.0002822
2727.58	0.0003075
2739.15	0.0003309
2750.73	0.0004067
2762.3	0.0004562
2773.87	0.0005364
2785.45	0.0008658
2797.02	0.0009555
2808.6	0.0007971
2820.17	0.000572
2831.74	0.0005568
2843.32	0.0005901
2854.89	0.0005941
2866.47	0.000674
2878.04	0.0008363
2889.61	0.0008987
2901.19	0.0009879
2912.76	0.000983
2924.33	0.00106
2935.91	0.00118
2947.48	0.00105
2959.06	0.00117
2970.63	0.00147
2982.2	0.00175
2993.78	0.00216
3005.35	0.00375
3016.92	0.0087
3028.5	0.01674
3040.07	0.01455
3051.65	0.01493
3063.22	0.03101
3074.79	0.02999
3086.37	0.01922
3097.94	0.01108
3109.52	0.00605
3121.09	0.00269
3132.66	0.00206
3144.24	0.00203
3155.81	0.00137
3167.38	0.0008122
3178.96	0.0005686
3190.53	0.0004197
3202.11	0.0004865
3213.68	0.0004437
3225.25	0.0004159
3236.83	0.0004177
3248.4	0.0003461
3259.98	0.0003192
3271.55	0.0004449
3283.12	0.0007534
3294.7	0.0007121
3306.27	0.0005477
3317.84	0.0005251
3329.42	0.0007345
3340.99	0.0008127
3352.57	0.0008109
3364.14	0.0008609
3375.71	0.00133
3387.29	0.00217
3398.86	0.00434
3410.43	0.00777
3422.01	0.01169
3433.58	0.01609
3445.16	0.00606
3456.73	0.0021
3468.3	0.00184
3479.88	0.00216
3491.45	0.00307
3503.03	0.00489
3514.6	0.0078
3526.17	0.01068
3537.75	0.01315
3549.32	0.02343
3560.89	0.01298
3572.47	0.0027
3584.04	0.00111
3595.62	0.0007507
3607.19	0.0005934
3618.76	0.000562
3630.34	0.0006063
3641.91	0.0005287
3653.49	0.0005933
3665.06	0.0005471
3676.63	0.0004863
3688.21	0.0005158
3699.78	0.0006129
3711.35	0.0005777
3722.93	0.0005643
3734.5	0.0004584
3746.08	0.0003998
3757.65	0.0005457
3769.22	0.0004049
3780.8	0.0004759
3792.37	0.0005376
3803.94	0.000427
3815.52	0.0004476
3827.09	0.0005787
3838.67	0.000301
3850.24	0.0004158
3861.81	0.0004255
3873.39	0.0004854
3884.96	0.0004145
3896.54	0.0004388
3908.11	0.0004408
3919.68	0.000405
3931.26	0.0004332
3942.83	0.0004314
3954.4	0.0004708
3965.98	0.0005483
3977.55	0.0006731
3989.13	0.000672
4000.7	0.000688
