Infrared Spectrum: Cyclohexylmethanal
Formula: C 7 H 12 O
CAS: 2043-61-0
State: gas
Instrument: HP-GC/MS/IRD
Origin: NIST Mass Spectrometry Data Center
1/CM	ABSORBANCE
550	0.000312
562	0.0002496
574	0.0003627
586	0.0002223
598	0.0001326
610	6.63e-05
622	0.0001131
634	0.000117
646	0.0002886
658	0.0005382
670	0.0007917
682	0.0006318
694	0.0003627
706	0.0002769
718	0.0002652
730	0.0002457
742	0.0003471
754	0.0004485
766	0.0003393
778	0.0001053
790	2.34e-05
802	2.34e-05
814	0.0001404
826	0.0003393
838	0.0003939
850	0.0003042
862	0.0002067
874	0.0002925
886	0.0004329
898	0.0008112
910	0.0012246
922	0.0014625
934	0.001716
946	0.0020826
958	0.0017511
970	0.0009438
982	0.0003978
994	0.0002028
1006	0.0002223
1018	0.0003081
1030	0.0003432
1042	0.000351
1054	0.0004368
1066	0.0006474
1078	0.000819
1090	0.0007683
1102	0.0005382
1114	0.00039
1126	0.0004095
1138	0.0004953
1150	0.0005382
1162	0.0004758
1174	0.000351
1186	0.0003861
1198	0.0003471
1210	0.0002808
1222	0.0003471
1234	0.0003315
1246	0.0003003
1258	0.0003159
1270	0.0004758
1282	0.000624
1294	0.0006864
1306	0.0005538
1318	0.0004134
1330	0.0003861
1342	0.0005382
1354	0.0007176
1366	0.0006084
1378	0.0004485
1390	0.0005109
1402	0.0005031
1414	0.0003861
1426	0.0007098
1438	0.0020514
1450	0.0037167
1462	0.0032994
1474	0.0014118
1486	0.0004173
1498	0.0001287
1510	5.46e-05
1522	5.07e-05
1534	3.51e-05
1546	2.34e-05
1558	2.73e-05
1570	4.68e-05
1582	6.24e-05
1594	7.41e-05
1606	7.41e-05
1618	0.000117
1630	0.0001833
1642	0.0002691
1654	0.0004563
1666	0.00078
1678	0.00117
1690	0.0017433
1702	0.0025194
1714	0.0045864
1726	0.0127608
1738	0.0214656
1750	0.0175812
1762	0.0053157
1774	0.0025272
1786	0.0018096
1798	0.001209
1810	0.0006669
1822	0.0003861
1834	0.0002457
1846	0.0002106
1858	0.0002145
1870	0.0002067
1882	0.0001716
1894	0.0001326
1906	0.0001131
1918	7.02e-05
1930	6.24e-05
1942	7.02e-05
1954	8.19e-05
1966	9.75e-05
1978	8.19e-05
1990	7.8e-05
2002	7.41e-05
2014	6.24e-05
2026	7.8e-05
2038	7.02e-05
2050	3.51e-05
2062	4.68e-05
2074	3.51e-05
2086	3.12e-05
2098	3.9e-05
2110	5.46e-05
2122	3.51e-05
2134	3.9e-05
2146	7.8e-05
2158	7.8e-05
2170	6.63e-05
2182	6.24e-05
2194	7.41e-05
2206	5.85e-05
2218	6.63e-05
2230	9.75e-05
2242	6.63e-05
2254	5.85e-05
2266	5.46e-05
2278	5.85e-05
2290	5.85e-05
2302	6.24e-05
2314	2.34e-05
2326	2.73e-05
2338	5.85e-05
2350	5.07e-05
2362	5.85e-05
2374	4.29e-05
2386	7.02e-05
2398	6.24e-05
2410	5.85e-05
2422	6.24e-05
2434	4.68e-05
2446	3.12e-05
2458	1.95e-05
2470	5.85e-05
2482	8.19e-05
2494	7.8e-05
2506	4.29e-05
2518	7.8e-05
2530	9.36e-05
2542	0.0001521
2554	0.0001482
2566	0.0002379
2578	0.0002613
2590	0.0003042
2602	0.0003939
2614	0.000507
2626	0.0007527
2638	0.0011973
2650	0.0017628
2662	0.0024648
2674	0.0034281
2686	0.0051168
2698	0.0070044
2710	0.0063648
2722	0.0040326
2734	0.0029679
2746	0.0026169
2758	0.0024102
2770	0.0022425
2782	0.0027183
2794	0.0039117
2806	0.0042978
2818	0.0033345
2830	0.0029172
2842	0.0047268
2854	0.0103623
2866	0.013962
2878	0.0103194
2890	0.0063336
2902	0.0070083
2914	0.0131508
2926	0.0259116
2938	0.039
2950	0.0295113
2962	0.0109902
2974	0.0026871
2986	0.000975
2998	0.0006045
3010	0.0004329
3022	0.000351
3034	0.0002691
3046	0.0002886
3058	0.0002262
3070	0.0002184
3082	0.0001989
3094	0.0002067
3106	0.0001716
3118	0.0001599
3130	0.0001482
3142	0.0001365
3154	0.0001794
3166	0.0001521
3178	2.73e-05
3190	7.8e-05
3202	6.24e-05
3214	7.02e-05
3226	4.68e-05
3238	7.8e-05
3250	7.02e-05
3262	7.02e-05
3274	3.51e-05
3286	6.24e-05
3298	0.0001014
3310	5.85e-05
3322	5.07e-05
3334	7.02e-05
3346	8.19e-05
3358	8.19e-05
3370	0.0001443
3382	0.0001053
3394	0.0001092
3406	0.0001209
3418	0.0001209
3430	0.000273
3442	0.0004056
3454	0.0004914
3466	0.0005187
3478	0.0003627
3490	0.0002028
3502	0.0001677
3514	0.000156
3526	0.0001209
3538	8.97e-05
3550	5.07e-05
3562	6.24e-05
3574	7.41e-05
3586	3.51e-05
3598	7.02e-05
3610	6.63e-05
3622	0.000117
3634	0.0001092
3646	6.63e-05
3658	0.0001053
3670	5.07e-05
3682	4.68e-05
3694	0.0001287
3706	4.29e-05
3718	0.0001014
3730	7.41e-05
3742	3.12e-05
3754	6.63e-05
3766	8.97e-05
3778	9.36e-05
3790	0.0001053
3802	0.0001092
3814	7.02e-05
3826	8.97e-05
3838	0.000156
