Infrared Spectrum: 2-Iodobiphenyl
Formula: C 12 H 9 I
CAS: 20442-79-9
State: gas
Instrument: HP-GC/MS/IRD
Origin: NIST Mass Spectrometry Data Center
1/CM	ABSORBANCE
550	0.002057
562	0.0007458
574	0.0004444
586	0.000506
598	0.0002574
610	0.0018326
622	0.0012782
634	0.0007326
646	0.0042328
658	0.003091
670	0.0020944
682	0.0023496
694	0.0122694
706	0.0093192
718	0.0044242
730	0.0086416
742	0.014498
754	0.022
766	0.007821
778	0.0013398
790	0.0005852
802	0.000462
814	0.0005258
826	0.000605
838	0.000528
850	0.0001716
862	0.000231
874	0.0001386
886	8.36e-05
898	6.82e-05
910	0.000374
922	0.0002222
934	0.0004378
946	0.0004026
958	0.0001694
970	0.0002442
982	0.0008866
994	0.0035398
1006	0.0100298
1018	0.0101772
1030	0.0022858
1042	0.0005588
1054	0.0008646
1066	0.0023826
1078	0.0013552
1090	0.0005544
1102	0.0004136
1114	0.0006028
1126	0.00022
1138	0
1150	8.8e-05
1162	0.000132
1174	0.0003476
1186	0.0005544
1198	0.0002002
1210	0.0001672
1222	0.0003586
1234	0.0005192
1246	0.0009218
1258	0.000858
1270	0.000363
1282	0.000517
1294	0.0005588
1306	0.0002904
1318	0.00022
1330	0.000363
1342	0.0002134
1354	0.0001716
1366	0.0002816
1378	0.0005016
1390	0.0008294
1402	0.0019294
1414	0.0026686
1426	0.004818
1438	0.0045408
1450	0.0070114
1462	0.0128722
1474	0.0033352
1486	0.0011572
1498	0.0013772
1510	0.0008162
1522	0.0005148
1534	0.0005984
1546	0.0010164
1558	0.0020702
1570	0.0017798
1582	0.0028732
1594	0.0024024
1606	0.001606
1618	0.0007854
1630	0.0003036
1642	0.00022
1654	0.0004554
1666	0.0004598
1678	0.0005346
1690	0.0005566
1702	0.000418
1714	0.0003718
1726	0.0003454
1738	0.000462
1750	0.0004994
1762	0.0002398
1774	0.0003784
1786	0.0006754
1798	0.0013948
1810	0.0006864
1822	0.0005346
1834	0.0005324
1846	0.00033
1858	0.0003806
1870	0.0008118
1882	0.000924
1894	0.0006534
1906	0.000803
1918	0.0009042
1930	0.0007502
1942	0.0013662
1954	0.0010428
1966	0.0004444
1978	0.0001584
1990	0.000154
2002	0.0001298
2014	0.0001276
2026	0.0001694
2038	0.000154
2050	0.000121
2062	0.0001056
2074	0.000132
2086	6.16e-05
2098	6.82e-05
2110	0.0001188
2122	9.9e-05
2134	7.04e-05
2146	6.38e-05
2158	8.36e-05
2170	7.04e-05
2182	6.82e-05
2194	8.58e-05
2206	0.00011
2218	0.000132
2230	0.0001276
2242	0.0001408
2254	0.0001364
2266	0.000165
2278	0.0001848
2290	0.000165
2302	0.0002024
2314	0.0004422
2326	0.0004356
2338	0.0003894
2350	0.000209
2362	0.0004026
2374	0.0001958
2386	7.04e-05
2398	0.0001232
2410	0.0001496
2422	0.0001606
2434	0.0001298
2446	0.000154
2458	0.00011
2470	0.0001078
2482	0.0001298
2494	0.0001562
2506	0.0001826
2518	0.0001672
2530	0.0001584
2542	0.000154
2554	0.0001672
2566	0.000187
2578	0.0001958
2590	0.000165
2602	0.0001782
2614	0.0001584
2626	0.000132
2638	8.36e-05
2650	8.36e-05
2662	0.0001232
2674	5.72e-05
2686	4.84e-05
2698	7.48e-05
2710	7.92e-05
2722	0.0001056
2734	7.04e-05
2746	6.82e-05
2758	5.5e-05
2770	0.0001122
2782	9.46e-05
2794	0.000132
2806	0.000143
2818	0.0001012
2830	0.0001694
2842	0.0002112
2854	0.0002772
2866	0.0002508
2878	0.0002596
2890	0.0002618
2902	0.0002288
2914	0.0002222
2926	0.0003168
2938	0.0002464
2950	0.0002288
2962	0.000319
2974	0.0004048
2986	0.000572
2998	0.0009064
3010	0.0017248
3022	0.0034254
3034	0.0054516
3046	0.0058014
3058	0.0115896
3070	0.0146256
3082	0.0089738
3094	0.0044814
3106	0.0026488
3118	0.0020174
3130	0.0008734
3142	0.0005038
3154	0.0004444
3166	0.0002904
3178	0.0001672
3190	0.0001672
3202	0.0001364
3214	0.0001804
3226	7.7e-05
3238	0.0001056
3250	9.9e-05
3262	0.0001166
3274	9.46e-05
3286	5.28e-05
3298	7.92e-05
3310	0.0001122
3322	7.7e-05
3334	5.06e-05
3346	0.0001078
3358	2.86e-05
3370	5.72e-05
3382	6.16e-05
3394	0.0001188
3406	9.24e-05
3418	5.5e-05
3430	6.82e-05
3442	0.0001562
3454	0.0001056
3466	7.48e-05
3478	0.0001364
3490	7.48e-05
3502	0.0002002
3514	0.0001408
3526	8.58e-05
3538	5.94e-05
3550	9.46e-05
3562	0.000143
3574	5.72e-05
3586	0.0001518
3598	0.0001232
3610	0.0001628
3622	7.04e-05
3634	0.0001254
3646	0.0001474
3658	0.0001606
3670	0.0002508
3682	0.0001232
3694	0.000165
3706	0.0002156
3718	0.000231
3730	0.0002816
3742	0.0002464
3754	0.0002112
3766	0.0001452
3778	0.0001562
3790	0.0001716
3802	0.0002772
3814	0.000231
3826	0.0002002
3838	0.000176
