Infrared Spectrum: N,N-Dimethylacetoacetamide
Formula: C6 H11 N O2
CAS: 2044-64-6
State: gas
Origin: EPA-IR VAPOR PHASE LIBRARY
1/CM	ABSORBANCE
549.8	0.003449
559.445	0.002479
569.09	0.002279
578.734	0.001929
588.379	0.002409
598.024	0.003229
607.669	0.003279
617.313	0.002289
626.958	0.001589
636.603	0.001789
646.248	0.001979
655.893	0.001969
665.537	0.002129
675.182	0.001599
684.827	0.001699
694.472	0.001749
704.116	0.002049
713.761	0.002299
723.406	0.002169
733.051	0.001729
742.695	0.001749
752.34	0.001679
761.985	0.002139
771.63	0.002639
781.275	0.002219
790.919	0.001529
800.564	0.001419
810.209	0.0011525
819.854	0.0012247
829.498	0.0012216
839.143	0.001223
848.788	0.001579
858.433	0.001639
868.078	0.001629
877.722	0.001819
887.367	0.002419
897.012	0.002609
906.657	0.002609
916.301	0.002869
925.946	0.004089
935.591	0.004549
945.236	0.004129
954.88	0.003529
964.525	0.003519
974.17	0.003399
983.815	0.003799
993.46	0.004169
1003.1	0.004719
1012.75	0.005109
1022.39	0.005269
1032.04	0.004979
1041.68	0.005639
1051.33	0.005459
1060.97	0.005229
1070.62	0.004379
1080.26	0.004099
1089.91	0.004579
1099.55	0.007309
1109.2	0.010689
1118.84	0.013659
1128.49	0.016149
1138.13	0.017709
1147.78	0.021199
1157.42	0.023709
1167.07	0.024639
1176.71	0.021989
1186.36	0.017149
1196	0.015439
1205.64	0.015199
1215.29	0.014749
1224.93	0.013389
1234.58	0.012319
1244.22	0.011229
1253.87	0.012329
1263.51	0.014529
1273.16	0.013729
1282.8	0.010729
1292.45	0.008619
1302.09	0.008109
1311.74	0.007979
1321.38	0.008789
1331.03	0.011909
1340.67	0.018089
1350.32	0.027339
1359.96	0.034339
1369.61	0.036549
1379.25	0.036509
1388.9	0.037179
1398.54	0.031569
1408.18	0.023609
1417.83	0.019549
1427.47	0.018079
1437.12	0.017139
1446.76	0.016989
1456.41	0.018179
1466.05	0.019219
1475.7	0.018629
1485.34	0.017719
1494.99	0.016029
1504.63	0.014099
1514.28	0.012539
1523.92	0.011339
1533.57	0.010499
1543.21	0.009939
1552.86	0.009309
1562.5	0.008579
1572.15	0.008229
1581.79	0.008669
1591.44	0.010839
1601.08	0.014609
1610.73	0.020069
1620.37	0.026929
1630.01	0.035069
1639.66	0.038649
1649.3	0.035959
1658.95	0.043909
1668.59	0.072759
1678.24	0.090069
1687.88	0.074569
1697.53	0.039909
1707.17	0.024969
1716.82	0.024429
1726.46	0.028189
1736.11	0.027649
1745.75	0.019359
1755.4	0.012159
1765.04	0.008019
1774.69	0.005599
1784.33	0.004139
1793.98	0.003229
1803.62	0.002609
1813.27	0.002189
1822.91	0.001829
1832.55	0.001599
1842.2	0.001429
1851.84	0.001339
1861.49	0.0011885
1871.13	0.001158
1880.78	0.0010224
1890.42	0.001009
1900.07	0.0010023
1909.71	0.0009293
1919.36	0.0010119
1929	0.0009966
1938.65	0.0010113
1948.29	0.0009774
1957.94	0.0010511
1967.58	0.0009636
1977.23	0.0009718
1986.87	0.000857
1996.52	0.0008805
2006.16	0.0008752
2015.81	0.0009574
2025.45	0.0009245
2035.1	0.0009982
2044.74	0.0010173
2054.38	0.0010187
2064.03	0.0010027
2073.67	0.0010393
2083.32	0.0011364
2092.96	0.001339
2102.61	0.001879
2112.25	0.003329
2121.9	0.005729
2131.54	0.008289
2141.19	0.008959
2150.83	0.007149
2160.48	0.003929
2170.12	0.001589
2179.77	0.0011586
2189.41	0.0010985
2199.06	0.0010865
2208.7	0.0011043
2218.35	0.0010814
2227.99	0.0011026
2237.64	0.0010811
2247.28	0.0010904
2256.92	0.0011508
2266.57	0.0011418
2276.21	0.0012418
2285.86	0.001459
2295.5	0.001929
2305.15	0.002569
2314.79	0.003179
2324.44	0.003689
2334.08	0.003659
2343.73	0.003339
2353.37	0.003619
2363.02	0.004679
2372.66	0.003959
2382.31	0.002099
2391.95	0.001162
2401.6	0.001161
2411.24	0.001131
2420.89	0.0011159
2430.53	0.0011044
2440.18	0.0010466
2449.82	0.0011207
2459.47	0.0010792
2469.11	0.0011552
2478.75	0.0010825
2488.4	0.0011559
2498.04	0.001259
2507.69	0.0012135
2517.33	0.0012512
2526.98	0.001339
2536.62	0.001329
2546.27	0.001299
2555.91	0.001329
2565.56	0.001289
2575.2	0.0012287
2584.85	0.0011358
2594.49	0.0012449
2604.14	0.0012091
2613.78	0.0012193
2623.43	0.0012379
2633.07	0.0011041
2642.72	0.001289
2652.36	0.001279
2662.01	0.001339
2671.65	0.001359
2681.29	0.001429
2690.94	0.001469
2700.58	0.001479
2710.23	0.001489
2719.87	0.001649
2729.52	0.001829
2739.16	0.001859
2748.81	0.002099
2758.45	0.002469
2768.1	0.002849
2777.74	0.003289
2787.39	0.003809
2797.03	0.004239
2806.68	0.004989
2816.32	0.005539
2825.97	0.006029
2835.61	0.006249
2845.26	0.006899
2854.9	0.007769
2864.55	0.009049
2874.19	0.010149
2883.84	0.010979
2893.48	0.011809
2903.12	0.013069
2912.77	0.015119
2922.41	0.017959
2932.06	0.021069
2941.7	0.021199
2951.35	0.018219
2960.99	0.014159
2970.64	0.010969
2980.28	0.008679
2989.93	0.007659
2999.57	0.007299
3009.22	0.007039
3018.86	0.006799
3028.51	0.006089
3038.15	0.005309
3047.8	0.004749
3057.44	0.004069
3067.09	0.003589
3076.73	0.003419
3086.38	0.002809
3096.02	0.002579
3105.67	0.002249
3115.31	0.002059
3124.95	0.001659
3134.6	0.001639
3144.24	0.0012454
3153.89	0.0011889
3163.53	0.0011352
3173.18	0.0009535
3182.82	0.0008737
3192.47	0.0009501
3202.11	0.0008705
3211.76	0.0009461
3221.4	0.0007913
3231.05	0.0008993
3240.69	0.0007542
3250.34	0.0006444
3259.98	0.0006927
3269.63	0.0006679
3279.27	0.0008176
3288.92	0.0008197
3298.56	0.0006173
3308.21	0.0006671
3317.85	0.0008299
3327.49	0.000937
3337.14	0.001099
3346.78	0.0009734
3356.43	0.0009543
3366.07	0.0008308
3375.72	0.0007069
3385.36	0.0008015
3395.01	0.0007449
3404.65	0.000695
3414.3	0.0005789
3423.94	0.0007852
3433.59	0.0008659
3443.23	0.0009852
3452.88	0.0008839
3462.52	0.0007005
3472.17	0.0007702
3481.81	0.0004935
3491.46	0.0005444
3501.1	0.000405
3510.75	0.00028555
3520.39	0.0004651
3530.04	0.0003775
3539.68	0.00034398
3549.32	0.000267235
3558.97	0.0001612
3568.61	0.00031743
3578.26	0.0002167
3587.9	0.0004118
3597.55	0.00033901
3607.19	0.0001807
3616.84	0.0004182
3626.48	2.9e-05
3636.13	0.00027784
3645.77	0.00029157
3655.42	0.000116
3665.06	0.00030432
3674.71	0.000109
3684.35	0.0003837
3694	0.00031327
3703.64	0.0002425
3713.29	0.0003876
3722.93	0.0002778
3732.58	0.0002391
3742.22	0.00032553
3751.86	0.000266847
3761.51	0.000263501
3771.15	0.00034314
3780.8	0.0002399
3790.44	0.0002086
3800.09	0.0002411
3809.73	0.00034811
3819.38	0.00032641
3829.02	0.00030722
3838.67	0.0001755
3848.31	0.00028293
3857.96	0.00033364
3867.6	0.00034775
3877.25	0.0004446
3886.89	0.0002286
3896.54	0.0005244
3906.18	0.0001938
3915.83	0.0003521
3925.47	0.00028089
3935.12	0.0002399
3944.76	0.000152
3954.41	0.0003943
3964.05	0.0003846
3973.69	0.0003982
3983.34	0.0004856
3992.98	0.0004261
