Infrared Spectrum: THIOPHENE, 2-AMINO-3,5-DINITRO-
Formula: C4 H3 N3 O4 S
CAS: 2045-70-7
State: SOLID (PELLET)
Melting point: 175-176 C
Class: COBLENTZ
Instrument: Not specified, most likely a prism, grating, or hybrid spectrometer.
Sampling: TRANSMISSION
Resolution: 4
Origin: TENNESSEE EASTMAN COMPANY, RESEARCH LABORATORIES
MICROMETERS	TRANSMITTANCE
2.02	0.547
2.05996	0.547
2.09992	0.55
2.13988	0.557
2.17984	0.565
2.2198	0.569
2.25975	0.587
2.29971	0.599
2.33967	0.614
2.37963	0.624
2.41959	0.631
2.45955	0.637
2.49951	0.647
2.53947	0.659
2.57943	0.669
2.61939	0.677
2.65934	0.687
2.6993	0.692
2.73926	0.692
2.77922	0.657
2.81918	0.619
2.85914	0.589
2.8991	0.552
2.93906	0.385
2.97902	0.163
3.01898	0.217
3.05893	0.123
3.09889	0.173
3.13885	0.198
3.17881	0.161
3.21877	0.414
3.25873	0.544
3.29869	0.642
3.33865	0.702
3.37861	0.721
3.41857	0.731
3.45853	0.736
3.49848	0.739
3.53844	0.746
3.5784	0.749
3.61836	0.752
3.65832	0.762
3.69828	0.799
3.73824	0.803
3.7782	0.806
3.81816	0.816
3.85812	0.828
3.89807	0.829
3.93803	0.829
3.97799	0.829
4.01795	0.829
4.05791	0.831
4.09787	0.839
4.13783	0.843
4.17779	0.853
4.21775	0.859
4.25771	0.863
4.29766	0.864
4.33762	0.869
4.37758	0.869
4.41754	0.878
4.4575	0.898
4.49746	0.898
4.53742	0.901
4.57738	0.911
4.61734	0.914
4.6573	0.918
4.69725	0.923
4.73721	0.921
4.77717	0.921
4.81713	0.924
4.85709	0.928
4.89705	0.928
4.93701	0.928
4.97697	0.929
5.01693	0.936
5.05689	0.936
5.09685	0.938
5.1368	0.938
5.17676	0.939
5.21672	0.941
5.25668	0.943
5.29664	0.943
5.3366	0.941
5.37656	0.941
5.41652	0.944
5.45648	0.946
5.49644	0.946
5.53639	0.943
5.57635	0.934
5.61631	0.924
5.65627	0.908
5.69623	0.903
5.73619	0.904
5.77615	0.906
5.81611	0.906
5.85607	0.893
5.89603	0.879
5.93598	0.861
5.97594	0.829
6.0159	0.756
6.05586	0.666
6.09582	0.375
6.13578	0.307
6.17574	0.145
6.2157	0.116
6.25566	0.357
6.29562	0.559
6.33558	0.611
6.37553	0.515
6.41549	0.128
6.45545	0.101
6.49541	0.136
6.53537	0.096
6.57533	0.347
6.61529	0.398
6.65525	0.191
6.69521	0.076
6.73517	0.065
6.77512	0.267
6.81508	0.31
6.85504	0.3
6.895	0.367
6.93496	0.549
6.97492	0.587
7.01488	0.49
7.05484	0.131
7.0948	0.046
7.13476	0.053
7.17471	0.193
7.21467	0.41
7.25463	0.479
7.29459	0.45
7.33455	0.273
7.37451	0.07
7.41447	0.048
7.45443	0.085
7.49439	0.19
7.53435	0.155
7.5743	0.11
7.61426	0.103
7.65422	0.103
7.69418	0.098
7.73414	0.086
7.7741	0.078
7.81406	0.066
7.85402	0.05
7.89398	0.04
7.93394	0.035
7.9739	0.031
8.01385	0.031
8.05381	0.033
8.09377	0.036
8.13373	0.068
8.17369	0.158
8.21365	0.238
8.25361	0.263
8.29357	0.367
8.33353	0.44
8.37349	0.487
8.41344	0.507
8.4534	0.5
8.49336	0.462
8.53332	0.495
8.57328	0.565
8.61324	0.594
8.6532	0.602
8.69316	0.604
8.73312	0.585
8.77308	0.565
8.81303	0.607
8.85299	0.672
8.89295	0.711
8.93291	0.736
8.97287	0.752
9.01283	0.766
9.05279	0.782
9.09275	0.796
9.13271	0.803
9.17267	0.811
9.21263	0.811
9.25258	0.813
9.29254	0.808
9.3325	0.796
9.37246	0.761
9.41242	0.662
9.45238	0.373
9.49234	0.155
9.5323	0.293
9.57226	0.564
9.61222	0.671
9.65217	0.699
9.69213	0.707
9.73209	0.736
9.77205	0.784
9.81201	0.823
9.85197	0.834
9.89193	0.846
9.93189	0.854
9.97185	0.863
10.0118	0.873
10.0518	0.881
10.0917	0.891
10.1317	0.898
10.1716	0.903
10.2116	0.906
10.2516	0.909
10.2915	0.914
10.3315	0.916
10.3714	0.919
10.4114	0.919
10.4514	0.921
10.4913	0.921
10.5313	0.923
10.5712	0.924
10.6112	0.923
10.6512	0.923
10.6911	0.923
10.7311	0.924
10.771	0.928
10.811	0.933
10.8509	0.938
10.8909	0.941
10.9309	0.939
10.9708	0.939
11.0108	0.939
11.0507	0.936
11.0907	0.924
11.1307	0.898
11.1706	0.821
11.2106	0.687
11.2505	0.626
11.2905	0.616
11.3305	0.734
11.3704	0.818
11.4104	0.874
11.4503	0.903
11.4903	0.921
11.5302	0.931
11.5702	0.941
11.6102	0.946
11.6501	0.949
11.6901	0.951
11.73	0.954
11.77	0.956
11.81	0.958
11.8499	0.959
11.8899	0.959
11.9298	0.959
11.9698	0.961
12.0098	0.961
12.0497	0.961
12.0897	0.961
12.1296	0.961
12.1696	0.961
12.2096	0.961
12.2495	0.959
12.2895	0.936
12.3294	0.814
12.3694	0.726
12.4093	0.829
12.4493	0.904
12.4893	0.936
12.5292	0.941
12.5692	0.944
12.6091	0.944
12.6491	0.946
12.6891	0.948
12.729	0.949
12.769	0.951
12.8089	0.951
12.8489	0.951
12.8889	0.951
12.9288	0.951
12.9688	0.951
13.0087	0.949
13.0487	0.926
13.0887	0.762
13.1286	0.671
13.1686	0.709
13.2085	0.601
13.2485	0.48
13.2884	0.557
13.3284	0.692
13.3684	0.766
13.4083	0.813
13.4483	0.843
13.4882	0.849
13.5282	0.811
13.5682	0.627
13.6081	0.36
13.6481	0.31
13.688	0.597
13.728	0.806
13.768	0.883
13.8079	0.921
13.8479	0.933
13.8878	0.939
13.9278	0.939
13.9677	0.939
14.0077	0.941
14.0477	0.941
14.0876	0.941
14.1276	0.941
14.1675	0.938
14.2075	0.934
14.2475	0.931
14.2874	0.929
14.3274	0.923
14.3673	0.914
14.4073	0.899
14.4473	0.874
14.4872	0.853
14.5272	0.826
14.5671	0.782
14.6071	0.719
14.6471	0.622
14.687	0.59
14.727	0.601
14.7669	0.662
14.8069	0.701
14.8468	0.731
14.8868	0.739
14.9268	0.741
14.9667	0.737
15.0067	0.724
15.0466	0.697
15.0866	0.681
15.1266	0.669
15.1665	0.651
15.2065	0.636
15.2464	0.622
15.2864	0.609
15.3264	0.592
15.3663	0.582
15.4063	0.572
15.4462	0.564
15.4862	0.557
15.5262	0.554
15.5661	0.552
15.6061	0.55
15.646	0.55
15.686	0.55
15.7259	0.55
15.7659	0.552
15.8059	0.55
15.8458	0.552
15.8858	0.554
15.9257	0.555
15.9657	0.557
