Infrared Spectrum: 2-(2-Methoxyphenyl)ethylamine
Formula: C 9 H 13 N O
CAS: 2045-79-6
State: gas
Origin: EPA-IR VAPOR PHASE LIBRARY
1/CM	ABSORBANCE
549.8	0.006619
559.445	0.007489
569.09	0.007329
578.735	0.006719
588.38	0.006819
598.025	0.007299
607.67	0.006709
617.315	0.005869
626.96	0.005999
636.605	0.006169
646.251	0.006519
655.896	0.007029
665.541	0.007549
675.186	0.008469
684.831	0.009759
694.476	0.011489
704.121	0.015469
713.766	0.023889
723.411	0.036339
733.056	0.049009
742.701	0.068479
752.346	0.083799
761.991	0.067279
771.636	0.053149
781.281	0.044979
790.926	0.035879
800.571	0.029749
810.216	0.025259
819.861	0.020389
829.507	0.016409
839.152	0.013499
848.797	0.010829
858.442	0.009299
868.087	0.008109
877.732	0.007069
887.377	0.006269
897.022	0.005689
906.667	0.005539
916.312	0.005939
925.957	0.006209
935.602	0.005389
945.247	0.004909
954.892	0.005339
964.537	0.006499
974.182	0.008449
983.827	0.010199
993.472	0.011649
1003.12	0.014629
1012.76	0.021739
1022.41	0.034449
1032.05	0.044789
1041.7	0.049249
1051.34	0.045879
1060.99	0.035819
1070.63	0.024119
1080.28	0.017939
1089.92	0.018879
1099.57	0.026049
1109.21	0.031349
1118.86	0.028469
1128.5	0.023099
1138.15	0.018459
1147.79	0.014339
1157.44	0.014729
1167.08	0.020959
1176.73	0.024879
1186.37	0.020599
1196.02	0.016019
1205.66	0.017089
1215.31	0.027379
1224.95	0.061929
1234.6	0.127249
1244.24	0.147699
1253.89	0.088269
1263.53	0.038409
1273.18	0.027479
1282.82	0.027069
1292.47	0.023659
1302.11	0.016949
1311.76	0.014129
1321.4	0.012969
1331.05	0.011469
1340.69	0.010329
1350.34	0.010129
1359.98	0.010159
1369.63	0.010109
1379.27	0.010229
1388.92	0.009289
1398.56	0.007739
1408.21	0.007219
1417.85	0.008869
1427.5	0.015679
1437.14	0.028769
1446.79	0.033829
1456.43	0.036799
1466.08	0.045079
1475.73	0.054079
1485.37	0.080799
1495.02	0.083989
1504.66	0.044359
1514.31	0.015829
1523.95	0.009259
1533.6	0.007049
1543.24	0.006169
1552.89	0.006869
1562.53	0.009739
1572.18	0.016159
1581.82	0.024729
1591.47	0.030599
1601.11	0.027619
1610.76	0.021169
1620.4	0.015989
1630.05	0.012549
1639.69	0.008479
1649.34	0.005829
1658.98	0.004619
1668.63	0.004189
1678.27	0.003689
1687.92	0.003249
1697.56	0.002799
1707.21	0.002599
1716.85	0.002429
1726.5	0.002389
1736.14	0.002229
1745.79	0.002299
1755.43	0.002699
1765.08	0.002829
1774.72	0.002709
1784.37	0.002439
1794.01	0.002519
1803.66	0.002489
1813.3	0.002249
1822.95	0.002039
1832.59	0.001979
1842.24	0.002229
1851.88	0.002169
1861.53	0.002049
1871.17	0.002399
1880.82	0.003369
1890.46	0.003439
1900.11	0.002549
1909.75	0.002099
1919.4	0.002729
1929.04	0.002619
1938.69	0.001569
1948.33	0.0011792
1957.98	0.0012635
1967.62	0.001416
1977.27	0.001499
1986.91	0.001539
1996.56	0.001629
2006.2	0.001669
2015.85	0.001739
2025.49	0.001989
2035.14	0.002339
2044.78	0.002669
2054.43	0.002789
2064.07	0.002579
2073.72	0.002379
2083.36	0.001989
2093.01	0.001539
2102.65	0.0012161
2112.3	0.0010024
2121.94	0.0009683
2131.59	0.0009867
2141.23	0.0008876
2150.88	0.0008342
2160.52	0.0008027
2170.17	0.000772
2179.81	0.0007154
2189.46	0.0008055
2199.1	0.000943
2208.75	0.0010163
2218.39	0.000987
2228.04	0.0009683
2237.68	0.0009021
2247.33	0.000945
2256.97	0.0008411
2266.62	0.0010011
2276.26	0.0011188
2285.91	0.001058
2295.55	0.0010138
2305.2	0.0008662
2314.84	0.0008762
2324.49	0.0008655
2334.13	0.0007888
2343.78	0.0006154
2353.42	0.0005685
2363.07	0.0005211
2372.72	0.0005672
2382.36	0.0006537
2392.01	0.0007466
2401.65	0.000794
2411.3	0.0008664
2420.94	0.0008641
2430.59	0.0008332
2440.23	0.0008315
2449.88	0.000842
2459.52	0.0012278
2469.17	0.001429
2478.81	0.001519
2488.46	0.001398
2498.1	0.0011241
2507.75	0.0011916
2517.39	0.0014128
2527.04	0.001499
2536.68	0.0014007
2546.33	0.0013119
2555.97	0.0012641
2565.62	0.0012611
2575.26	0.0012151
2584.91	0.0013009
2594.55	0.0012767
2604.2	0.001519
2613.84	0.001499
2623.49	0.001519
2633.13	0.001529
2642.78	0.001599
2652.42	0.001419
2662.07	0.001539
2671.71	0.001589
2681.36	0.001699
2691	0.001929
2700.65	0.001989
2710.29	0.002079
2719.94	0.002309
2729.58	0.002499
2739.23	0.002869
2748.87	0.002919
2758.52	0.003079
2768.16	0.003169
2777.81	0.003439
2787.45	0.004059
2797.1	0.004999
2806.74	0.006579
2816.39	0.008829
2826.03	0.013879
2835.68	0.026119
2845.32	0.035279
2854.97	0.034369
2864.61	0.032389
2874.26	0.032359
2883.9	0.030979
2893.55	0.030059
2903.19	0.034419
2912.84	0.045189
2922.48	0.054859
2932.13	0.062249
2941.77	0.069619
2951.42	0.067579
2961.06	0.052659
2970.71	0.033159
2980.35	0.022369
2990	0.022459
2999.64	0.027429
3009.29	0.025799
3018.93	0.023009
3028.58	0.025009
3038.22	0.021209
3047.87	0.017609
3057.51	0.019989
3067.16	0.025389
3076.8	0.027189
3086.45	0.019399
3096.09	0.010169
3105.74	0.007129
3115.38	0.004899
3125.03	0.002709
3134.67	0.001949
3144.32	0.001659
3153.96	0.001499
3163.61	0.001489
3173.25	0.0013219
3182.9	0.0010673
3192.54	0.0008643
3202.19	0.0006367
3211.83	0.0006556
3221.48	0.000661
3231.12	0.0003469
3240.77	0.000418548
3250.41	0.000309
3260.06	0.000229
3269.7	0.0003675
3279.35	0.000208
3289	0.00042931
3298.64	0.0003387
3308.29	0.0003564
3317.93	0.000305
3327.58	0.0006321
3337.22	0.0011854
3346.87	0.0012444
3356.51	0.0009535
3366.16	0.0006345
3375.8	0.0003331
3385.45	0.00047896
3395.09	0.00043344
3404.74	0.0007773
3414.38	0.000856
3424.03	0.0005434
3433.67	0.00041496
3443.32	0.00041227
3452.96	0.0003435
3462.61	0.00049376
3472.25	0.000265
3481.9	0.000275
3491.54	0.0003308
3501.19	0.000268
3510.83	0.000461
3520.48	0.0003256
3530.12	0.000135
3539.77	0.000118
3549.41	0.000192
3559.06	0.0003319
3568.7	0.000192
3578.35	0.000181
3587.99	0.00023
3597.64	0.000289
3607.28	0.000282
3616.93	0.00028
3626.57	0.000234
3636.22	0.00043518
3645.86	0.0003757
3655.51	0.00045228
3665.15	0.0003929
3674.8	0.0003527
3684.44	0.000279
3694.09	0.00042901
3703.73	0.0003411
3713.38	0.000108
3723.02	0.000234
3732.67	0.000327
3742.31	0.000292
3751.96	0
3761.6	0.0003971
3771.25	0.00032
3780.89	0.0003418
3790.54	0.000297
3800.18	0.0003573
3809.83	0.000426127
3819.47	0.0003423
3829.12	0.000369
3838.76	0.00047606
3848.41	0.0005539
3858.05	0.0005247
3867.7	0.0007821
3877.34	0.0006915
3886.99	0.0007011
3896.63	0.0007005
3906.28	0.0006602
3915.92	0.0004032
3925.57	0.000302
3935.21	0.00043447
3944.86	0.0004079
3954.5	0.0005253
3964.15	0.0007129
3973.79	0.0007127
3983.44	0.0008874
3993.08	0.0004661
