Infrared Spectrum: O-ARSANILIC ACID
Formula: C6 H8 N O3 As
CAS: 2045-00-3
State: SOLID (MINERAL OIL MULL)
Class: COBLENTZ
Instrument: Not specified, most likely a prism, grating, or hybrid spectrometer.
Sampling: TRANSMISSION
Resolution: 4
Origin: WYANDOTTE CHEMICALS CORP., WYANDOTTE, MICHIGAN, USA
MICROMETERS	TRANSMITTANCE
2.02	0.267
2.061	0.282
2.10199	0.289
2.14299	0.301
2.18399	0.308
2.22499	0.315
2.26598	0.333
2.30698	0.349
2.34798	0.362
2.38897	0.373
2.42997	0.393
2.47097	0.419
2.51196	0.441
2.55296	0.444
2.59396	0.47
2.63496	0.494
2.67595	0.524
2.71695	0.54
2.75795	0.563
2.79894	0.604
2.83994	0.618
2.88094	0.645
2.92194	0.621
2.96293	0.431
3.00393	0.541
3.04493	0.35
3.08592	0.507
3.12692	0.451
3.16792	0.449
3.20891	0.4
3.24991	0.344
3.29091	0.274
3.33191	0.201
3.3729	0.032
3.4139	0.03
3.4549	0.015
3.49589	0.027
3.53689	0.034
3.57789	0.126
3.61889	0.163
3.65988	0.177
3.70088	0.172
3.74188	0.178
3.78287	0.194
3.82387	0.201
3.86487	0.214
3.90587	0.216
3.94686	0.24
3.98786	0.26
4.02886	0.281
4.06985	0.304
4.11085	0.327
4.15185	0.335
4.19284	0.337
4.23384	0.337
4.27484	0.323
4.31584	0.32
4.35683	0.318
4.39783	0.275
4.43883	0.221
4.47982	0.228
4.52082	0.255
4.56182	0.286
4.60282	0.316
4.64381	0.349
4.68481	0.393
4.72581	0.419
4.7668	0.449
4.8078	0.475
4.8488	0.488
4.88979	0.511
4.93079	0.522
4.97179	0.54
5.01279	0.557
5.05378	0.574
5.09478	0.58
5.13578	0.589
5.17677	0.599
5.21777	0.596
5.25877	0.601
5.29977	0.613
5.34076	0.599
5.38176	0.62
5.42276	0.613
5.46375	0.62
5.50475	0.606
5.54575	0.62
5.58674	0.616
5.62774	0.613
5.66874	0.606
5.70974	0.608
5.75073	0.614
5.79173	0.621
5.83273	0.642
5.87372	0.63
5.91472	0.638
5.95572	0.659
5.99672	0.657
6.03771	0.609
6.07871	0.466
6.11971	0.165
6.1607	0.31
6.2017	0.4
6.2427	0.328
6.2837	0.483
6.32469	0.483
6.36569	0.379
6.40669	0.536
6.44768	0.594
6.48868	0.655
6.52968	0.662
6.57067	0.678
6.61167	0.592
6.65267	0.594
6.69367	0.374
6.73466	0.074
6.77566	0.107
6.81666	0.09
6.85765	0.064
6.89865	0.119
6.93965	0.301
6.98065	0.511
7.02164	0.589
7.06264	0.63
7.10364	0.649
7.14463	0.65
7.18563	0.592
7.22663	0.42
7.26762	0.303
7.30862	0.529
7.34962	0.642
7.39062	0.676
7.43161	0.715
7.47261	0.751
7.51361	0.756
7.5546	0.574
7.5956	0.482
7.6366	0.296
7.6776	0.453
7.71859	0.65
7.75959	0.713
7.80059	0.749
7.84158	0.749
7.88258	0.722
7.92358	0.526
7.96457	0.606
8.00557	0.652
8.04657	0.657
8.08757	0.679
8.12856	0.679
8.16956	0.657
8.21056	0.623
8.25155	0.599
8.29255	0.586
8.33355	0.599
8.37455	0.618
8.41554	0.623
8.45654	0.597
8.49754	0.58
8.53853	0.442
8.57953	0.519
8.62053	0.441
8.66152	0.55
8.70252	0.596
8.74352	0.596
8.78452	0.655
8.82551	0.712
8.86651	0.752
8.90751	0.77
8.9485	0.785
8.9895	0.8
9.0305	0.814
9.0715	0.822
9.11249	0.819
9.15349	0.793
9.19449	0.705
9.23548	0.642
9.27648	0.737
9.31748	0.795
9.35848	0.831
9.39947	0.853
9.44047	0.873
9.48147	0.877
9.52246	0.879
9.56346	0.896
9.60446	0.899
9.64545	0.899
9.68645	0.899
9.72745	0.851
9.76845	0.805
9.80944	0.838
9.85044	0.865
9.89144	0.885
9.93243	0.904
9.97343	0.919
10.0144	0.933
10.0554	0.94
10.0964	0.938
10.1374	0.938
10.1784	0.93
10.2194	0.896
10.2604	0.873
10.3014	0.879
10.3424	0.873
10.3834	0.858
10.4244	0.838
10.4654	0.822
10.5064	0.802
10.5474	0.739
10.5884	0.688
10.6294	0.722
10.6704	0.7
10.7114	0.678
10.7524	0.655
10.7934	0.645
10.8344	0.628
10.8754	0.611
10.9164	0.597
10.9574	0.587
10.9984	0.575
11.0394	0.56
11.0804	0.529
11.1213	0.502
11.1623	0.48
11.2033	0.449
11.2443	0.398
11.2853	0.356
11.3263	0.325
11.3673	0.281
11.4083	0.247
11.4493	0.206
11.4903	0.187
11.5313	0.183
11.5723	0.178
11.6133	0.17
11.6543	0.17
11.6953	0.163
11.7363	0.166
11.7773	0.165
11.8183	0.158
11.8593	0.166
11.9003	0.192
11.9413	0.224
11.9823	0.255
12.0233	0.267
12.0643	0.296
12.1053	0.344
12.1463	0.386
12.1873	0.429
12.2283	0.466
12.2693	0.488
12.3103	0.502
12.3513	0.511
12.3923	0.5
12.4333	0.48
12.4743	0.451
12.5152	0.4
12.5562	0.345
12.5972	0.289
12.6382	0.243
12.6792	0.192
12.7202	0.17
12.7612	0.19
12.8022	0.24
12.8432	0.303
12.8842	0.354
12.9252	0.362
12.9662	0.31
13.0072	0.247
13.0482	0.143
13.0892	0.109
13.1302	0.098
13.1712	0.095
13.2122	0.093
13.2532	0.095
13.2942	0.156
13.3352	0.201
13.3762	0.214
13.4172	0.189
13.4582	0.16
13.4992	0.153
13.5402	0.183
13.5812	0.202
13.6222	0.212
13.6632	0.218
13.7042	0.228
13.7452	0.24
13.7862	0.245
13.8272	0.258
13.8682	0.267
13.9091	0.279
13.9501	0.287
13.9911	0.293
14.0321	0.296
14.0731	0.33
14.1141	0.362
14.1551	0.4
14.1961	0.419
14.2371	0.441
14.2781	0.463
14.3191	0.473
14.3601	0.488
14.4011	0.502
14.4421	0.509
14.4831	0.517
14.5241	0.521
14.5651	0.531
14.6061	0.533
14.6471	0.534
14.6881	0.538
14.7291	0.541
14.7701	0.54
14.8111	0.54
14.8521	0.54
14.8931	0.543
14.9341	0.545
14.9751	0.543
15.0161	0.504
15.0571	0.488
15.0981	0.495
15.1391	0.533
15.1801	0.543
15.2211	0.541
15.2621	0.536
15.303	0.528
15.344	0.514
15.385	0.504
15.426	0.5
15.467	0.488
15.508	0.49
15.549	0.488
15.59	0.48
15.631	0.475
15.672	0.473
15.713	0.466
15.754	0.454
15.795	0.446
15.836	0.436
15.877	0.432
15.918	0.415
15.959	0.412
16	0.407
