Infrared Spectrum: Phenyl vinyl sulfoxide
Formula: C 8 H 8 O S
CAS: 20451-53-0
State: gas
Instrument: HP-GC/MS/IRD
Origin: NIST Mass Spectrometry Data Center
1/CM	ABSORBANCE
550	0.000605
562	0.0004752
574	0.0006798
586	0.0009284
598	0.0022352
610	0.003916
622	0.003905
634	0.0041228
646	0.0048796
658	0.00363
670	0.003542
682	0.0073194
694	0.0106722
706	0.0058498
718	0.0024156
730	0.0029832
742	0.0067276
754	0.005148
766	0.0013948
778	0.0006006
790	0.0002728
802	0.000121
814	7.48e-05
826	5.28e-05
838	5.28e-05
850	2.42e-05
862	0.000187
874	0.0002948
886	0.0002728
898	0.0003784
910	0.0006908
922	0.001122
934	0.0027544
946	0.0059774
958	0.0088528
970	0.0040876
982	0.0017974
994	0.0017534
1006	0.0019382
1018	0.0024178
1030	0.0020856
1042	0.0023298
1054	0.0053108
1066	0.007447
1078	0.00946
1090	0.018667
1102	0.0202774
1114	0.0080564
1126	0.0022968
1138	0.001001
1150	0.0006864
1162	0.0004796
1174	0.0005368
1186	0.0003322
1198	0.0001034
1210	0.0001386
1222	0.0002574
1234	0.0005456
1246	0.0008228
1258	0.0005632
1270	0.00033
1282	0.0002706
1294	0.0004356
1306	0.000561
1318	0.0004906
1330	0.0004268
1342	0.0002838
1354	0.0006006
1366	0.001441
1378	0.0014212
1390	0.0008888
1402	0.000539
1414	0.0004862
1426	0.0008976
1438	0.0022286
1450	0.0021384
1462	0.0010956
1474	0.0017028
1486	0.001463
1498	0.0003762
1510	0.0001958
1522	0.0001804
1534	0.0002112
1546	0.000264
1558	0.00033
1570	0.0007612
1582	0.0013904
1594	0.0011814
1606	0.0008096
1618	0.0003014
1630	0.0001342
1642	0.0001408
1654	0.0003344
1666	0.0002354
1678	7.7e-05
1690	5.06e-05
1702	5.06e-05
1714	8.14e-05
1726	7.04e-05
1738	0.0001958
1750	0.0002596
1762	0.0002068
1774	0.0001694
1786	0.0002376
1798	0.0004774
1810	0.0003938
1822	0.0001958
1834	0.000165
1846	0.0001804
1858	0.0003806
1870	0.000715
1882	0.0010934
1894	0.0011066
1906	0.0004994
1918	0.0002112
1930	0.0002354
1942	0.0004026
1954	0.0004818
1966	0.0003696
1978	0.000187
1990	5.72e-05
2002	3.96e-05
2014	1.1e-05
2026	1.32e-05
2038	1.54e-05
2050	3.3e-05
2062	3.52e-05
2074	6.16e-05
2086	5.94e-05
2098	7.26e-05
2110	7.92e-05
2122	0.0001166
2134	0.0001584
2146	0.0002354
2158	0.000297
2170	0.0002288
2182	0.0001518
2194	0.0001518
2206	9.02e-05
2218	9.24e-05
2230	7.7e-05
2242	9.02e-05
2254	5.28e-05
2266	5.06e-05
2278	5.94e-05
2290	2.2e-05
2302	5.5e-05
2314	0.0001232
2326	0.0001496
2338	0.0001078
2350	9.46e-05
2362	5.72e-05
2374	5.28e-05
2386	6.6e-05
2398	6.6e-05
2410	3.74e-05
2422	1.98e-05
2434	1.76e-05
2446	3.3e-05
2458	2.86e-05
2470	3.52e-05
2482	2.86e-05
2494	1.98e-05
2506	2.2e-05
2518	3.74e-05
2530	2.86e-05
2542	6.82e-05
2554	6.6e-05
2566	8.36e-05
2578	7.92e-05
2590	9.46e-05
2602	8.14e-05
2614	0.0001188
2626	9.02e-05
2638	9.68e-05
2650	0.0001452
2662	9.24e-05
2674	0.0001144
2686	6.38e-05
2698	4.18e-05
2710	4.84e-05
2722	3.74e-05
2734	5.72e-05
2746	3.3e-05
2758	6.16e-05
2770	3.96e-05
2782	6.82e-05
2794	3.52e-05
2806	3.08e-05
2818	6.82e-05
2830	0.00011
2842	0.00011
2854	9.02e-05
2866	0.0001122
2878	8.36e-05
2890	9.9e-05
2902	7.26e-05
2914	0.0001144
2926	0.0001826
2938	0.0001562
2950	0.000209
2962	0.0002772
2974	0.0002464
2986	0.0003872
2998	0.0009196
3010	0.0019272
3022	0.0020526
3034	0.001463
3046	0.0016874
3058	0.0037532
3070	0.0064284
3082	0.005181
3094	0.0024684
3106	0.0008272
3118	0.0003256
3130	0.0002442
3142	0.000231
3154	0.0002464
3166	0.0002288
3178	0.0001496
3190	0.0001716
3202	6.38e-05
3214	9.46e-05
3226	9.02e-05
3238	7.48e-05
3250	6.38e-05
3262	7.04e-05
3274	2.2e-05
3286	4.18e-05
3298	5.06e-05
3310	2.86e-05
3322	7.7e-05
3334	7.48e-05
3346	5.28e-05
3358	9.9e-05
3370	6.6e-05
3382	6.82e-05
3394	7.26e-05
3406	4.4e-05
3418	7.04e-05
3430	6.38e-05
3442	6.38e-05
3454	5.72e-05
3466	4.18e-05
3478	7.7e-05
3490	4.4e-05
3502	2.64e-05
3514	3.3e-05
3526	0.0001078
3538	0.0001034
3550	0.0001034
3562	2.86e-05
3574	9.68e-05
3586	1.98e-05
3598	5.28e-05
3610	5.28e-05
3622	7.48e-05
3634	0.000154
3646	0.0001386
3658	0.0001122
3670	7.92e-05
3682	0.000143
3694	0.0001496
3706	0.000154
3718	0.0001254
3730	0.0001188
3742	0.0001144
3754	0.000132
3766	0.0001452
3778	9.68e-05
3790	4.62e-05
3802	5.06e-05
3814	3.08e-05
3826	7.7e-05
3838	3.74e-05
