Infrared Spectrum: 2-Carboethoxy-1,3-dithiolane
Formula: C 6 H 10 O 2 S 2
CAS: 20461-99-8
State: gas
Origin: EPA-IR VAPOR PHASE LIBRARY
1/CM	ABSORBANCE
549.9	0.0020083
559.547	0.0020007
569.193	0.0019004
578.84	0.0017988
588.486	0.0018192
598.133	0.0019654
607.779	0.0020162
617.426	0.0020272
627.072	0.0024611
636.719	0.00298
646.365	0.00368
656.012	0.00462
665.658	0.0055
675.305	0.00641
684.951	0.00622
694.598	0.00599
704.245	0.00664
713.891	0.00722
723.538	0.00618
733.184	0.00458
742.831	0.00425
752.477	0.00477
762.124	0.00516
771.77	0.00492
781.417	0.00489
791.063	0.00484
800.71	0.00485
810.356	0.00474
820.003	0.00451
829.649	0.00479
839.296	0.00595
848.943	0.00689
858.589	0.00757
868.236	0.00819
877.882	0.00616
887.529	0.00386
897.175	0.00313
906.822	0.00348
916.468	0.00499
926.115	0.00761
935.761	0.00899
945.408	0.00792
955.054	0.00654
964.701	0.006
974.347	0.00508
983.994	0.00469
993.64	0.00601
1003.29	0.00993
1012.93	0.01936
1022.58	0.03734
1032.23	0.05014
1041.87	0.03802
1051.52	0.0193
1061.17	0.01226
1070.81	0.01071
1080.46	0.01256
1090.11	0.01882
1099.75	0.0251
1109.4	0.02869
1119.05	0.04195
1128.69	0.08312
1138.34	0.13276
1147.99	0.14223
1157.63	0.11443
1167.28	0.07004
1176.92	0.04698
1186.57	0.04109
1196.22	0.04605
1205.86	0.05606
1215.51	0.05692
1225.16	0.0446
1234.8	0.03493
1244.45	0.0442
1254.1	0.0701
1263.74	0.08372
1273.39	0.1019
1283.04	0.10527
1292.68	0.06329
1302.33	0.03262
1311.98	0.02019
1321.62	0.01222
1331.27	0.00829
1340.92	0.00658
1350.56	0.00632
1360.21	0.00943
1369.86	0.01359
1379.5	0.01154
1389.15	0.00928
1398.79	0.00894
1408.44	0.00872
1418.09	0.00926
1427.73	0.01033
1437.38	0.01105
1447.03	0.01047
1456.67	0.00922
1466.32	0.00993
1475.97	0.00927
1485.61	0.00629
1495.26	0.0041
1504.91	0.00298
1514.55	0.0025193
1524.2	0.0022918
1533.85	0.0021501
1543.49	0.0020195
1553.14	0.002008
1562.79	0.0019055
1572.43	0.0019685
1582.08	0.0019621
1591.73	0.0020029
1601.37	0.0021317
1611.02	0.0022104
1620.67	0.0022317
1630.31	0.0022867
1639.96	0.0023761
1649.6	0.0023372
1659.25	0.0024766
1668.9	0.00265
1678.54	0.00322
1688.19	0.00429
1697.84	0.00624
1707.48	0.00894
1717.13	0.01321
1726.78	0.02695
1736.42	0.07012
1746.07	0.12438
1755.72	0.12191
1765.36	0.07242
1775.01	0.03156
1784.66	0.01515
1794.3	0.00899
1803.95	0.00586
1813.6	0.00425
1823.24	0.00322
1832.89	0.00266
1842.54	0.0023851
1852.18	0.0022924
1861.83	0.0021714
1871.47	0.0021804
1881.12	0.0022134
1890.77	0.0022609
1900.41	0.0022115
1910.06	0.0019552
1919.71	0.001606
1929.35	0.001431
1939	0.001378
1948.65	0.001384
1958.29	0.001396
1967.94	0.001372
1977.59	0.001413
1987.23	0.001511
1996.88	0.00171399
2006.53	0.0018083
2016.17	0.0018563
2025.82	0.00166121
2035.47	0.001491
2045.11	0.001435
2054.76	0.001369
2064.41	0.001414
2074.05	0.001416
2083.7	0.001499
2093.35	0.001518
2102.99	0.001476
2112.64	0.001435
2122.28	0.001349
2131.93	0.001353
2141.58	0.001288
2151.22	0.001255
2160.87	0.001214
2170.52	0.00111
2180.16	0.001089
2189.81	0.001157
2199.46	0.001298
2209.1	0.001282
2218.75	0.001405
2228.4	0.001321
2238.04	0.001278
2247.69	0.001312
2257.34	0.001363
2266.98	0.001377
2276.63	0.00141
2286.28	0.001343
2295.92	0.001295
2305.57	0.001174
2315.22	0.001103
2324.86	0.001011
2334.51	0.00093
2344.16	0.000905
2353.8	0.000909
2363.45	0.000913
2373.09	0.001015
2382.74	0.001162
2392.39	0.00117
2402.03	0.001206
2411.68	0.001241
2421.33	0.00123
2430.97	0.001122
2440.62	0.001003
2450.27	0.000899
2459.91	0.000926
2469.56	0.000905
2479.21	0.000872
2488.85	0.000851
2498.5	0.000904
2508.15	0.000818
2517.79	0.000782
2527.44	0.000685
2537.09	0.000679
2546.73	0.000646
2556.38	0.000627
2566.03	0.00057
2575.67	0.00067
2585.32	0.000653
2594.96	0.00065
2604.61	0.000642
2614.26	0.00059
2623.9	0.000629
2633.55	0.00055
2643.2	0.00055
2652.84	0.00059
2662.49	0.000644
2672.14	0.000711
2681.78	0.00073
2691.43	0.000769
2701.08	0.000687
2710.72	0.000718
2720.37	0.000827
2730.02	0.00086
2739.66	0.000882
2749.31	0.000802
2758.96	0.000918
2768.6	0.00099
2778.25	0.001113
2787.9	0.001199
2797.54	0.00127
2807.19	0.001429
2816.84	0.0019295
2826.48	0.002511
2836.13	0.00355
2845.77	0.00484
2855.42	0.00504
2865.07	0.00531
2874.71	0.00666
2884.36	0.00797
2894.01	0.00835
2903.65	0.00974
2913.3	0.0121
2922.95	0.01599
2932.59	0.03186
2942.24	0.05095
2951.89	0.0385
2961.53	0.02345
2971.18	0.02781
2980.83	0.03958
2990.47	0.03946
3000.12	0.02479
3009.77	0.01544
3019.41	0.00924
3029.06	0.00545
3038.71	0.0035
3048.35	0.0024206
3058	0.0017279
3067.64	0.0015369
3077.29	0.001232
3086.94	0.00113
3096.58	0.001019
3106.23	0.000918
3115.88	0.000837
3125.52	0.000786
3135.17	0.000665
3144.82	0.000736
3154.46	0.000651
3164.11	0.00056
3173.76	0.00053
3183.4	0.00047
3193.05	0.00054
3202.7	0.00034
3212.34	0.00045
3221.99	0.00033
3231.64	0.00033
3241.28	0.00028
3250.93	0.00048
3260.58	0.00017
3270.22	0.00015
3279.87	0.00022
3289.52	1e-05
3299.16	6e-05
3308.81	0.00016
3318.45	0.00025
3328.1	0.00023
3337.75	0.00023
3347.39	0.00036
3357.04	0.00042
3366.69	0.0004
3376.33	0.00027
3385.98	0.00038
3395.63	0.00045
3405.27	0.00045
3414.92	0.000655
3424.57	0.000677
3434.21	0.000683
3443.86	0.00081
3453.51	0.000945
3463.15	0.001151
3472.8	0.0015755
3482.45	0.001465
3492.09	0.001305
3501.74	0.001263
3511.39	0.001118
3521.03	0.000808
3530.68	0.000706
3540.33	0.000626
3549.97	0.00058
3559.62	0.00045
3569.26	0.00059
3578.91	0.00051
3588.56	0.00059
3598.2	0.00057
3607.85	0.000762
3617.5	0.000676
3627.14	0.000645
3636.79	0.000689
3646.44	0.00062
3656.08	0.000798
3665.73	0.000667
3675.38	0.000716
3685.02	0.000946
3694.67	0.000784
3704.32	0.000702
3713.96	0.00062
3723.61	0.000715
3733.26	0.000711
3742.9	0.000669
3752.55	0.000743
3762.2	0.000863
3771.84	0.000919
3781.49	0.001025
3791.13	0.000991
3800.78	0.000844
3810.43	0.000876
3820.07	0.00075
3829.72	0.000785
3839.37	0.000907
3849.01	0.000828
3858.66	0.000932
3868.31	0.00076
3877.95	0.000838
3887.6	0.000869
3897.25	0.000883
3906.89	0.000944
3916.54	0.001009
3926.19	0.00105
3935.83	0.000979
3945.48	0.000913
3955.13	0.000965
3964.77	0.000955
3974.42	0.001017
3984.07	0.000897
3993.71	0.000984
