Infrared Spectrum: 2,3,5-Trimethylanisole
Formula: C 10 H 14 O
CAS: 20469-61-8
State: gas
Origin: EPA-IR VAPOR PHASE LIBRARY
1/CM	ABSORBANCE
549.8	0.00221
559.445	0.0015533
569.09	0.0017392
578.734	0.00254
588.379	0.0039
598.024	0.00358
607.669	0.0019262
617.313	0.001062
626.958	0.00085
636.603	0.000908
646.248	0.0015119
655.893	0.001141
665.537	0.0016766
675.182	0.0020767
684.827	0.0014066
694.472	0.001563
704.116	0.0015213
713.761	0.0019659
723.406	0.00123566
733.051	0.0015129
742.695	0.0015336
752.34	0.00118856
761.985	0.000958
771.63	0.001387
781.275	0.0015273
790.919	0.0016472
800.564	0.001908
810.209	0.00256
819.854	0.00537
829.498	0.00653
839.143	0.00616
848.788	0.00387
858.433	0.0021045
868.078	0.0018067
877.722	0.0019399
887.367	0.0018584
897.012	0.0021609
906.657	0.001564
916.301	0.0019613
925.946	0.0011433
935.591	0.00237
945.236	0.0018872
954.88	0.00319
964.525	0.00372
974.17	0.0032
983.815	0.00328
993.46	0.00332
1003.1	0.00395
1012.75	0.00441
1022.39	0.00407
1032.04	0.00461
1041.68	0.00268
1051.33	0.00402
1060.97	0.00405
1070.62	0.00459
1080.26	0.00495
1089.91	0.00837
1099.55	0.01522
1109.2	0.02154
1118.84	0.02206
1128.49	0.01766
1138.13	0.01675
1147.78	0.01763
1157.42	0.01129
1167.07	0.0058
1176.71	0.00499
1186.36	0.00586
1196	0.0071
1205.64	0.0051
1215.29	0.00512
1224.93	0.00466
1234.58	0.00492
1244.22	0.00497
1253.87	0.00558
1263.51	0.00602
1273.16	0.00941
1282.8	0.01298
1292.45	0.01545
1302.09	0.01749
1311.74	0.01595
1321.38	0.01008
1331.03	0.00455
1340.67	0.00305
1350.32	0.00255
1359.96	0.00268
1369.61	0.00286
1379.25	0.00382
1388.9	0.00462
1398.54	0.00614
1408.18	0.00865
1417.83	0.01024
1427.47	0.00951
1437.12	0.00783
1446.76	0.00797
1456.41	0.01042
1466.05	0.01273
1475.7	0.01324
1485.34	0.01285
1494.99	0.01035
1504.63	0.00709
1514.28	0.00601
1523.92	0.00501
1533.57	0.00508
1543.21	0.00601
1552.86	0.00668
1562.5	0.009
1572.15	0.01147
1581.79	0.01265
1591.44	0.01182
1601.08	0.00924
1610.73	0.0095
1620.37	0.00781
1630.01	0.00385
1639.66	0.0028
1649.3	0.00287
1658.95	0.00249
1668.59	0.0021366
1678.24	0.0018124
1687.88	0.0020871
1697.53	0.00242
1707.17	0.0019312
1716.82	0.0019889
1726.46	0.0016085
1736.11	0.0017194
1745.75	0.0017211
1755.4	0.0015214
1765.04	0.0016832
1774.69	0.0014598
1784.33	0.0017052
1793.98	0.001659
1803.62	0.0016701
1813.27	0.0014277
1822.91	0.00125428
1832.55	0.0017174
1842.2	0.001324
1851.84	0.0014618
1861.49	0.0015566
1871.13	0.0016082
1880.78	0.0015769
1890.42	0.0016846
1900.07	0.00153
1909.71	0.0013071
1919.36	0.00127515
1929	0.0013149
1938.65	0.0014047
1948.29	0.0013348
1957.94	0.0015176
1967.58	0.0012575
1977.23	0.0014198
1986.87	0.001609
1996.52	0.0016408
2006.16	0.0015611
2015.81	0.0011446
2025.45	0.0014999
2035.1	0.0015372
2044.74	0.0013154
2054.38	0.0017548
2064.03	0.0014117
2073.67	0.0016436
2083.32	0.0015394
2092.96	0.00121239
2102.61	0.001711
2112.25	0.0013815
2121.9	0.00126858
2131.54	0.0016998
2141.19	0.0013473
2150.83	0.0013944
2160.48	0.0013656
2170.12	0.0017017
2179.77	0.0014177
2189.41	0.0013965
2199.06	0.0014142
2208.7	0.00125356
2218.35	0.00127527
2227.99	0.001249
2237.64	0.0014121
2247.28	0.000993
2256.92	0.001066
2266.57	0.001343
2276.21	0.00124444
2285.86	0.00125457
2295.5	0.0013955
2305.15	0.0013073
2314.79	0.00124174
2324.44	0.0014428
2334.08	0.0015131
2343.73	0.0015014
2353.37	0.000983
2363.02	0.0011188
2372.66	0.0014841
2382.31	0.0015673
2391.95	0.0016388
2401.6	0.0013305
2411.24	0.001036
2420.89	0.0013479
2430.53	0.00102
2440.18	0.00124279
2449.82	0.0017435
2459.47	0.0015204
2469.11	0.0015153
2478.75	0.0013418
2488.4	0.0013098
2498.04	0.001038
2507.69	0.0015423
2517.33	0.0012462
2526.98	0.001012
2536.62	0.001064
2546.27	0.0013608
2555.91	0.0011357
2565.56	0.0014823
2575.2	0.0013881
2584.85	0.0014073
2594.49	0.0016344
2604.14	0.0011649
2613.78	0.0013779
2623.43	0.0014424
2633.07	0.0011598
2642.72	0.00128926
2652.36	0.00126303
2662.01	0.0011169
2671.65	0.0013173
2681.29	0.0013334
2690.94	0.0015762
2700.58	0.001041
2710.23	0.0017429
2719.87	0.0015021
2729.52	0.0018033
2739.16	0.0021343
2748.81	0.0019632
2758.45	0.0021033
2768.1	0.0015043
2777.74	0.0020484
2787.39	0.0021708
2797.03	0.0020321
2806.68	0.00279
2816.32	0.00345
2825.97	0.00419
2835.61	0.00645
2845.26	0.00835
2854.9	0.00819
2864.55	0.00991
2874.19	0.0113
2883.84	0.01102
2893.48	0.00944
2903.12	0.01057
2912.77	0.01407
2922.41	0.0192
2932.06	0.02396
2941.7	0.02329
2951.35	0.019
2960.99	0.01418
2970.64	0.0109
2980.28	0.01008
2989.93	0.01102
2999.57	0.01288
3009.22	0.01215
3018.86	0.00966
3028.51	0.00794
3038.15	0.00699
3047.8	0.00651
3057.44	0.00696
3067.09	0.00565
3076.73	0.00348
3086.38	0.00332
3096.02	0.0021767
3105.67	0.0018548
3115.31	0.0020739
3124.95	0.0019258
3134.6	0.0015712
3144.24	0.0018731
3153.89	0.0020129
3163.53	0.0014707
3173.18	0.0013173
3182.82	0.0019092
3192.47	0.00102
3202.11	0.0015033
3211.76	0.0016932
3221.4	0.00126478
3231.05	0.001012
3240.69	0.0018131
3250.34	0.0011226
3259.98	0.0011268
3269.63	0.000498
3279.27	0.000193
3288.92	0.0013453
3298.56	0.0013658
3308.21	0.0017166
3317.85	0.000912
3327.49	0.000842
3337.14	0.00018
3346.78	0.0012935
3356.43	0.0014588
3366.07	0.0013341
3375.72	0.000655
3385.36	0.0014038
3395.01	0.000805
3404.65	0.0016369
3414.3	0.00101
3423.94	0.0014209
3433.59	0.000787
3443.23	0.000473
3452.88	0.000938
3462.52	0.000985
3472.17	0.00128412
3481.81	0.0017203
3491.46	0.0015945
3501.1	0.0019362
3510.75	0.001027
3520.39	0.001075
3530.04	0.0016119
3539.68	0.000918
3549.32	0.000938
3558.97	0.0010917
3568.61	0.0018514
3578.26	0.0016945
3587.9	0.0013072
3597.55	0.00126542
3607.19	0.00105
3616.84	0.0014769
3626.48	0.0014198
3636.13	0.0012941
3645.77	0.0014865
3655.42	0.0011535
3665.06	0.00126995
3674.71	0.0016294
3684.35	0.0013902
3694	0.00120776
3703.64	0.0018714
3713.29	0.00121806
3722.93	0.001038
3732.58	0.000702
3742.22	9e-05
3751.86	0.001886
3761.51	0.000947
3771.15	0.0013398
3780.8	0.000997
3790.44	0.0016411
3800.09	0.001153
3809.73	0.000244
3819.38	0.0015261
3829.02	0.000872
3838.67	0.000475
3848.31	0.000945
3857.96	0.000782
3867.6	0.0014706
3877.25	0.0013997
3886.89	0.0015064
3896.54	0.000944
3906.18	0.001607
3915.83	0.001048
3925.47	0.0017588
3935.12	0.0011258
3944.76	0.001045
3954.41	0.0013512
3964.05	0.00118933
3973.69	0.00122246
3983.34	0.001926
3992.98	0.001002
