Infrared Spectrum: 2-Carboethoxy-1,3-dithiane
Formula: C 7 H 12 O 2 S 2
CAS: 20462-00-4
State: gas
Origin: EPA-IR VAPOR PHASE LIBRARY
1/CM	ABSORBANCE
549.8	0.0009885
559.445	0.0007223
569.09	0.0008933
578.735	0.0004075
588.38	0.0008388
598.025	0.0007003
607.67	0.0010155
617.315	0.001351
626.96	0.001271
636.605	0.002081
646.251	0.002611
655.896	0.003671
665.541	0.003281
675.186	0.002111
684.831	0.001641
694.476	0.002161
704.121	0.003071
713.766	0.004521
723.411	0.004761
733.056	0.003411
742.701	0.002401
752.346	0.002061
761.991	0.001921
771.636	0.001931
781.281	0.002011
790.926	0.002311
800.571	0.003091
810.216	0.003571
819.861	0.003181
829.507	0.002561
839.152	0.002351
848.797	0.002761
858.442	0.003551
868.087	0.003251
877.732	0.003781
887.377	0.004041
897.022	0.002811
906.667	0.004351
916.312	0.005941
925.957	0.005161
935.602	0.005011
945.247	0.003991
954.892	0.002621
964.537	0.001941
974.182	0.001911
983.827	0.002211
993.472	0.003481
1003.12	0.007061
1012.76	0.012041
1022.41	0.019231
1032.05	0.024691
1041.7	0.018701
1051.34	0.009981
1060.99	0.006791
1070.63	0.006411
1080.28	0.007231
1089.92	0.010021
1099.57	0.013141
1109.21	0.016221
1118.86	0.029271
1128.5	0.072881
1138.15	0.103701
1147.79	0.062731
1157.44	0.031321
1167.08	0.021721
1176.73	0.019141
1186.37	0.019031
1196.02	0.020681
1205.66	0.018031
1215.31	0.015611
1224.95	0.018591
1234.6	0.027971
1244.24	0.036551
1253.89	0.036751
1263.53	0.045521
1273.18	0.064531
1282.82	0.065531
1292.47	0.040391
1302.11	0.020731
1311.76	0.011641
1321.4	0.006781
1331.05	0.004701
1340.69	0.004231
1350.34	0.004101
1359.98	0.005351
1369.63	0.007971
1379.27	0.006051
1388.92	0.004561
1398.56	0.004671
1408.21	0.005731
1417.85	0.008591
1427.5	0.011351
1437.14	0.010091
1446.79	0.006551
1456.43	0.005031
1466.08	0.005281
1475.73	0.005001
1485.37	0.003491
1495.02	0.002281
1504.66	0.001761
1514.31	0.001531
1523.95	0.001201
1533.6	0.0009904
1543.24	0.000946
1552.89	0.0008776
1562.53	0.0008405
1572.18	0.000891
1581.82	0.0009319
1591.47	0.0009982
1601.11	0.0009476
1610.76	0.0010658
1620.4	0.0010191
1630.05	0.0011132
1639.69	0.001341
1649.34	0.001381
1658.98	0.001321
1668.63	0.001331
1678.27	0.001521
1687.92	0.002031
1697.56	0.003191
1707.21	0.005151
1716.85	0.008241
1726.5	0.016991
1736.14	0.045921
1745.79	0.076751
1755.43	0.053141
1765.08	0.021831
1774.72	0.010031
1784.37	0.005021
1794.01	0.002701
1803.66	0.001871
1813.3	0.001441
1822.95	0.001281
1832.59	0.001221
1842.24	0.0010563
1851.88	0.0009597
1861.53	0.0008514
1871.17	0.0009206
1880.82	0.0009715
1890.46	0.0008512
1900.11	0.0008339
1909.75	0.0006755
1919.4	0.000654
1929.04	0.0005416
1938.69	0.0005544
1948.33	0.0005882
1957.98	0.000646
1967.62	0.000595
1977.27	0.0006619
1986.91	0.0009042
1996.56	0.0009601
2006.2	0.0007441
2015.85	0.0006075
2025.49	0.0005723
2035.14	0.0005495
2044.78	0.0005404
2054.43	0.0005196
2064.07	0.0005307
2073.72	0.0006069
2083.36	0.0005236
2093.01	0.0005351
2102.65	0.0004932
2112.3	0.0004859
2121.94	0.0004299
2131.59	0.0004615
2141.23	0.0004771
2150.88	0.0004507
2160.52	0.0004331
2170.17	0.0004186
2179.81	0.00042
2189.46	0.0004702
2199.1	0.0005154
2208.75	0.0004674
2218.39	0.0004427
2228.04	0.0004644
2237.68	0.0004957
2247.33	0.0004337
2256.97	0.0004791
2266.62	0.0005186
2276.26	0.0004693
2285.91	0.0004826
2295.55	0.0003589
2305.2	0.0004042
2314.84	0.0003657
2324.49	0.0003573
2334.13	0.0003929
2343.78	0.0004047
2353.42	0.0003093
2363.07	0.0003092
2372.72	0.000303
2382.36	0.0003829
2392.01	0.0003953
2401.65	0.000457
2411.3	0.0004013
2420.94	0.0004168
2430.59	0.000385
2440.23	0.0003732
2449.88	0.0002591
2459.52	0.0002542
2469.17	0.0003057
2478.81	0.0003105
2488.46	0.0001786
2498.1	0.00022383
2507.75	0.00018304
2517.39	0.000147722
2527.04	7.13e-05
2536.68	8.67e-05
2546.33	0.000141067
2555.97	4.87e-05
2565.62	9.43e-05
2575.26	0.00017361
2584.91	0.00019397
2594.55	0.00018387
2604.2	0.0001042
2613.84	0.0002756
2623.49	0.00019015
2633.13	0.00018269
2642.78	0.0002942
2652.42	0.00018208
2662.07	0.000163
2671.71	0.0003633
2681.36	0.0003027
2691	9.88e-05
2700.65	0.00021157
2710.29	0.0003721
2719.94	0.00021857
2729.58	0.0002923
2739.23	0.0002953
2748.87	0.0002938
2758.52	0.0004739
2768.16	0.0006085
2777.81	0.0006022
2787.45	0.0005993
2797.1	0.0007128
2806.74	0.0010326
2816.39	0.001591
2826.03	0.002951
2835.68	0.004971
2845.32	0.005071
2854.97	0.003581
2864.61	0.003651
2874.26	0.004321
2883.9	0.005611
2893.55	0.010091
2903.19	0.019781
2912.84	0.019271
2922.48	0.016201
2932.13	0.022881
2941.77	0.026081
2951.42	0.019601
2961.06	0.016781
2970.71	0.018031
2980.35	0.018481
2990	0.017561
2999.64	0.011501
3009.29	0.007401
3018.93	0.004641
3028.58	0.002651
3038.22	0.001821
3047.87	0.001321
3057.51	0.0010424
3067.16	0.0007554
3076.8	0.0006649
3086.45	0.0006909
3096.09	0.0006316
3105.74	0.0006555
3115.38	0.0006053
3125.03	0.000539
3134.67	0.0003337
3144.32	0.0005574
3153.96	0.0005081
3163.61	0.0005433
3173.25	0.000514
3182.9	0.0004118
3192.54	0.0003832
3202.19	0.0003949
3211.83	0.0001091
3221.48	0.0003389
3231.12	0.0003545
3240.77	0.0002599
3250.41	0.0003423
3260.06	0.0004202
3269.7	0.0002488
3279.35	0.000283
3289	0.0003257
3298.64	0.0003229
3308.29	0.0002005
3317.93	0.0002683
3327.58	0.0004116
3337.22	0.0002596
3346.87	0.0002852
3356.51	0.0002495
3366.16	0.000149295
3375.8	0.0003508
3385.45	0.0004132
3395.09	0.0003129
3404.74	0.0003624
3414.38	0.000457
3424.03	0.0004586
3433.67	0.0004686
3443.32	0.0005263
3452.96	0.0003921
3462.61	0.0006554
3472.25	0.0009051
3481.9	0.0009469
3491.54	0.0006165
3501.19	0.0006746
3510.83	0.0004299
3520.48	0.0003118
3530.12	0.0003809
3539.77	0.0003261
3549.41	0.00023016
3559.06	0.0003522
3568.7	0.0004028
3578.35	0.0003801
3587.99	0.0003049
3597.64	0.00019159
3607.28	0.0003373
3616.93	0.000473
3626.57	0.0004618
3636.22	0.0003859
3645.86	0.0002496
3655.51	0.0003247
3665.15	0.0004272
3674.8	0.0003
3684.44	0.0003204
3694.09	0.0003106
3703.73	0.000436
3713.38	0.0003698
3723.02	0.0004895
3732.67	0.0003887
3742.31	0.0003956
3751.96	0.0002899
3761.6	0.0005097
3771.25	0.0003788
3780.89	0.0004014
3790.54	0.0003128
3800.18	0.0004309
3809.83	0.0004751
3819.47	0.0004625
3829.12	0.0004258
3838.76	0.0004513
3848.41	0.0005806
3858.05	0.000368
3867.7	0.00021079
3877.34	0.0003438
3886.99	0.000338
3896.63	0.0002818
3906.28	0.0005609
3915.92	0.0004913
3925.57	0.0004865
3935.21	0.0004992
3944.86	0.0005626
3954.5	0.0004372
3964.15	0.0005994
3973.79	0.0003684
3983.44	0.0005391
3993.08	0.0005791
