Infrared Spectrum: Imidazole-4-Carboxamide, 5-(3-Methyl-3-PhenylTriazeno)-
Formula: C11 H12 N6 O
CAS: 20460-79-1
State: SOLID (0.9 mg / 650 mg KBr DISC)
Class: COBLENTZ III
Instrument: PERKIN-ELMER 21 (GRATING)
Instrument parameters: FILTER CHANGE ABOUT 1020 CM^-^1
Sampling: TRANSMISSION
Resolution: 2
Origin: SOUTHERN RESEARCH INSTITUTE
1/CM	TRANSMITTANCE
602	0.3398
611	0.3515
620	0.3677
629	0.387
638	0.4643
647	0.5414
656	0.5411
665	0.5145
674	0.4587
683	0.3831
692	0.2959
701	0.5647
710	0.6069
719	0.6094
728	0.61
737	0.556
746	0.4538
755	0.2769
764	0.4141
773	0.5033
782	0.5572
791	0.6097
800	0.6022
809	0.5687
818	0.5789
827	0.5988
836	0.6017
845	0.5737
854	0.4932
863	0.4662
872	0.5078
881	0.5227
890	0.3751
899	0.4916
908	0.5969
917	0.6214
926	0.619
935	0.6102
944	0.596
953	0.5934
962	0.5602
971	0.5218
980	0.4533
989	0.5049
998	0.5047
1007	0.633
1016	0.6199
1025	0.5004
1034	0.577
1043	0.6452
1052	0.6321
1061	0.6081
1070	0.524
1079	0.4538
1088	0.3112
1097	0.1976
1106	0.172
1115	0.2313
1124	0.4252
1133	0.5559
1142	0.5555
1151	0.5069
1160	0.4861
1169	0.5158
1178	0.5187
1187	0.5186
1196	0.4842
1205	0.3854
1214	0.2922
1223	0.1332
1232	0.147
1241	0.1799
1250	0.2133
1259	0.3962
1268	0.5249
1277	0.5159
1286	0.3143
1295	0.2543
1304	0.2076
1313	0.2099
1322	0.2855
1331	0.1914
1340	0.418
1349	0.3951
1358	0.46
1367	0.4693
1376	0.3781
1385	0.1145
1394	0.0851
1403	0.1458
1412	0.1019
1421	0.0508
1430	0.0338
1439	0.0934
1448	0.1805
1457	0.1799
1466	0.2993
1475	0.3934
1484	0.3272
1493	0.1073
1502	0.3303
1511	0.4947
1520	0.5384
1529	0.5074
1538	0.4415
1547	0.3515
1556	0.3155
1565	0.3069
1574	0.1182
1583	0.0509
1592	0.0691
1601	0.1956
1610	0.3207
1619	0.3127
1628	0.1391
1637	0.0441
1646	0.0223
1655	0.0243
1664	0.0799
1673	0.2667
1682	0.4594
1691	0.6089
1700	0.6151
1709	0.6239
1718	0.6437
1727	0.6579
1736	0.6667
1745	0.6731
1754	0.6745
1763	0.6753
1772	0.6755
1781	0.676
1790	0.687
1799	0.6924
1808	0.6932
1817	0.7004
1826	0.6991
1835	0.7005
1844	0.7013
1853	0.7024
1862	0.7069
1871	0.716
1880	0.7223
1889	0.7241
1898	0.7234
1907	0.7212
1916	0.7177
1925	0.7107
1934	0.7071
1943	0.7066
1952	0.7088
1961	0.7138
1970	0.7152
1979	0.7159
1988	0.7198
1997	0.7215
2006	0.7185
2015	0.7157
2024	0.7133
2033	0.7108
2042	0.7083
2051	0.7055
2060	0.7017
2069	0.6934
2078	0.688
2087	0.6868
2096	0.6857
2105	0.6844
2114	0.6826
2123	0.6798
2132	0.6765
2141	0.6737
2150	0.671
2159	0.6678
2168	0.6646
2177	0.6621
2186	0.6597
2195	0.6569
2204	0.6539
2213	0.6508
2222	0.6474
2231	0.6441
2240	0.641
2249	0.6383
2258	0.6356
2267	0.6336
2276	0.6279
2285	0.6147
2294	0.6058
2303	0.5942
2312	0.5882
2321	0.5868
2330	0.5859
2339	0.5852
2348	0.5849
2357	0.5852
2366	0.5828
2375	0.568
2384	0.5567
2393	0.5539
2402	0.5522
2411	0.5491
2420	0.5424
2429	0.5323
2438	0.5242
2447	0.5207
2456	0.5175
2465	0.5148
2474	0.5072
2483	0.4985
2492	0.4898
2501	0.4829
2510	0.4751
2519	0.4663
2528	0.4552
2537	0.4458
2546	0.4359
2555	0.4237
2564	0.4103
2573	0.3975
2582	0.3877
2591	0.3861
2600	0.3821
2609	0.3758
2618	0.3654
2627	0.3568
2636	0.3499
2645	0.3458
2654	0.3438
2663	0.3434
2672	0.3436
2681	0.3438
2690	0.344
2699	0.3383
2708	0.3286
2717	0.3204
2726	0.314
2735	0.3078
2744	0.302
2753	0.297
2762	0.293
2771	0.2888
2780	0.284
2789	0.2748
2798	0.2692
2807	0.2684
2816	0.269
2825	0.2731
2834	0.2801
2843	0.2884
2852	0.297
2861	0.3033
2870	0.3054
2879	0.3041
2888	0.2997
2897	0.2919
2906	0.2844
2915	0.2773
2924	0.2754
2933	0.2743
2942	0.2744
2951	0.2744
2960	0.2744
2969	0.2737
2978	0.267
2987	0.2496
2996	0.2367
3005	0.226
3014	0.221
3023	0.2197
3032	0.2181
3041	0.2156
3050	0.2133
3059	0.2112
3068	0.2086
3077	0.2052
3086	0.1979
3095	0.1889
3104	0.1809
3113	0.1765
3122	0.1684
3131	0.1586
3140	0.1576
3149	0.1563
3158	0.1639
3167	0.1748
3176	0.1881
3185	0.2022
3194	0.2174
3203	0.2432
3212	0.2701
3221	0.2808
3230	0.2837
3239	0.2876
3248	0.3006
3257	0.3022
3266	0.3004
3275	0.2962
3284	0.2907
3293	0.2844
3302	0.278
3311	0.2739
3320	0.2694
3329	0.2566
3338	0.226
3347	0.1984
3356	0.179
3365	0.1665
3374	0.1713
3383	0.1928
3392	0.2212
3401	0.2655
3410	0.299
3419	0.3075
3428	0.3104
3437	0.3085
3446	0.3036
3455	0.2967
3464	0.2993
3473	0.326
3482	0.3558
3491	0.3868
3500	0.419
3509	0.4274
3518	0.4346
3527	0.4411
3536	0.4468
3545	0.4525
3554	0.4602
3563	0.47
3572	0.4743
3581	0.4788
3590	0.4859
3599	0.4945
3608	0.5018
3617	0.5068
3626	0.5097
3635	0.5087
3644	0.5069
3653	0.5052
3662	0.5036
3671	0.502
3680	0.5008
3689	0.4997
3698	0.4985
3707	0.4975
3716	0.4965
3725	0.4956
3734	0.4948
3743	0.4939
3752	0.4931
3761	0.4923
3770	0.4915
3779	0.4907
3788	0.4894
3797	0.488
3806	0.4862
3815	0.4841
3824	0.4821
3833	0.4807
3842	0.4797
3851	0.478
3860	0.4754
3869	0.4727
3878	0.4701
3887	0.4684
3896	0.4661
3905	0.4632
3914	0.4608
3923	0.4589
3932	0.4573
3941	0.4558
3950	0.4547
3959	0.4535
3968	0.4518
3977	0.4505
3986	0.4493
3995	0.45
