Infrared Spectrum: Gamma-PHENYLBUTYRONITRILE
Formula: C10 H11 N
CAS: 2046-18-6
State: LIQUID
Boiling point: 139-141 C AT 17 mmHg
Class: COBLENTZ
Instrument: Not specified, most likely a prism, grating, or hybrid spectrometer.
Sampling: TRANSMISSION
Path length: 0.003 CM
Resolution: 4
Origin: WYANDOTTE CHEMICALS CORP., WYANDOTTE, MICHIGAN, USA
MICROMETERS	TRANSMITTANCE
2.089	0.97
2.12863	0.971
2.16826	0.965
2.20789	0.95
2.24751	0.953
2.28714	0.955
2.32677	0.958
2.3664	0.945
2.40603	0.933
2.44566	0.948
2.48528	0.96
2.52491	0.965
2.56454	0.975
2.60417	0.966
2.6438	0.981
2.68343	0.963
2.72305	0.929
2.76268	0.933
2.80231	0.9
2.84194	0.886
2.88157	0.917
2.9212	0.945
2.96083	0.953
3.00045	0.96
3.04008	0.952
3.07971	0.95
3.11934	0.94
3.15897	0.924
3.1986	0.902
3.23822	0.658
3.27785	0.526
3.31748	0.691
3.35711	0.509
3.39674	0.272
3.43637	0.551
3.47599	0.615
3.51562	0.669
3.55525	0.874
3.59488	0.917
3.63451	0.938
3.67414	0.935
3.71377	0.952
3.75339	0.933
3.79302	0.937
3.83265	0.933
3.87228	0.943
3.91191	0.955
3.95154	0.955
3.99116	0.955
4.03079	0.953
4.07042	0.952
4.11005	0.952
4.14968	0.952
4.18931	0.948
4.22893	0.95
4.26856	0.971
4.30819	0.983
4.34782	0.975
4.38745	0.957
4.42708	0.93
4.46671	0.891
4.50633	0.635
4.54596	0.773
4.58559	0.952
4.62522	0.953
4.66485	0.957
4.70448	0.965
4.7441	0.965
4.78373	0.97
4.82336	0.968
4.86299	0.968
4.90262	0.968
4.94225	0.968
4.98187	0.968
5.0215	0.962
5.06113	0.938
5.10076	0.914
5.14039	0.884
5.18002	0.881
5.21965	0.948
5.25927	0.945
5.2989	0.9
5.33853	0.881
5.37816	0.917
5.41779	0.937
5.45742	0.943
5.49704	0.899
5.53667	0.884
5.5763	0.925
5.61593	0.933
5.65556	0.912
5.69519	0.899
5.73481	0.912
5.77444	0.925
5.81407	0.933
5.8537	0.943
5.89333	0.952
5.93296	0.938
5.97259	0.919
6.01221	0.922
6.05184	0.919
6.09147	0.899
6.1311	0.839
6.17073	0.546
6.21036	0.823
6.24998	0.782
6.28961	0.91
6.32924	0.914
6.36887	0.904
6.4085	0.892
6.44813	0.896
6.48775	0.902
6.52738	0.9
6.56701	0.858
6.60664	0.537
6.64627	0.287
6.6859	0.768
6.72553	0.755
6.76515	0.608
6.80478	0.363
6.84441	0.193
6.88404	0.531
6.92367	0.569
6.9633	0.389
7.00292	0.58
7.04255	0.77
7.08218	0.826
7.12181	0.833
7.16144	0.844
7.20107	0.856
7.24069	0.848
7.28032	0.808
7.31995	0.742
7.35958	0.706
7.39921	0.792
7.43884	0.782
7.47847	0.76
7.51809	0.768
7.55772	0.801
7.59735	0.805
7.63698	0.81
7.67661	0.825
7.71624	0.833
7.75586	0.834
7.79549	0.816
7.83512	0.795
7.87475	0.818
7.91438	0.849
7.95401	0.839
7.99363	0.816
8.03326	0.841
8.07289	0.861
8.11252	0.854
8.15215	0.818
8.19178	0.801
8.23141	0.818
8.27103	0.833
8.31066	0.841
8.35029	0.851
8.38992	0.826
8.42955	0.803
8.46918	0.841
8.5088	0.853
8.54843	0.831
8.58806	0.811
8.62769	0.805
8.66732	0.889
8.70695	0.915
8.74657	0.925
8.7862	0.929
8.82583	0.919
8.86546	0.905
8.90509	0.896
8.94472	0.881
8.98435	0.894
9.02397	0.884
9.0636	0.886
9.10323	0.838
9.14286	0.702
9.18249	0.577
9.22212	0.729
9.26174	0.806
9.30137	0.83
9.341	0.826
9.38063	0.798
9.42026	0.79
9.45989	0.788
9.49952	0.806
9.53914	0.806
9.57877	0.775
9.6184	0.665
9.65803	0.549
9.69766	0.688
9.73729	0.749
9.77691	0.808
9.81654	0.821
9.85617	0.815
9.8958	0.787
9.93543	0.792
9.97506	0.82
10.0147	0.834
10.0543	0.836
10.0939	0.843
10.1336	0.843
10.1732	0.841
10.2128	0.859
10.2525	0.853
10.2921	0.858
10.3317	0.864
10.3713	0.874
10.411	0.882
10.4506	0.892
10.4902	0.889
10.5299	0.889
10.5695	0.876
10.6091	0.872
10.6487	0.874
10.6884	0.867
10.728	0.863
10.7676	0.858
10.8073	0.843
10.8469	0.805
10.8865	0.75
10.9261	0.727
10.9658	0.727
11.0054	0.762
11.045	0.841
11.0847	0.864
11.1243	0.867
11.1639	0.858
11.2035	0.863
11.2432	0.872
11.2828	0.886
11.3224	0.887
11.3621	0.884
11.4017	0.884
11.4413	0.866
11.4809	0.867
11.5206	0.867
11.5602	0.871
11.5998	0.854
11.6394	0.838
11.6791	0.82
11.7187	0.81
11.7583	0.797
11.798	0.783
11.8376	0.772
11.8772	0.806
11.9168	0.839
11.9565	0.861
11.9961	0.872
12.0357	0.884
12.0754	0.887
12.115	0.881
12.1546	0.876
12.1942	0.861
12.2339	0.843
12.2735	0.83
12.3131	0.801
12.3528	0.78
12.3924	0.724
12.432	0.691
12.4716	0.674
12.5113	0.693
12.5509	0.735
12.5905	0.77
12.6302	0.823
12.6698	0.843
12.7094	0.841
12.749	0.834
12.7887	0.826
12.8283	0.801
12.8679	0.785
12.9076	0.745
12.9472	0.696
12.9868	0.633
13.0264	0.561
13.0661	0.49
13.1057	0.394
13.1453	0.298
13.185	0.219
13.2246	0.158
13.2642	0.117
13.3038	0.095
13.3435	0.092
13.3831	0.099
13.4227	0.118
13.4624	0.141
13.502	0.178
13.5416	0.207
13.5812	0.242
13.6209	0.287
13.6605	0.349
13.7001	0.409
13.7398	0.45
13.7794	0.488
13.819	0.516
13.8586	0.542
13.8983	0.569
13.9379	0.582
13.9775	0.589
14.0172	0.566
14.0568	0.506
14.0964	0.422
14.136	0.305
14.1757	0.221
14.2153	0.145
14.2549	0.11
14.2946	0.102
14.3342	0.11
14.3738	0.155
14.4134	0.267
14.4531	0.43
14.4927	0.572
14.5323	0.66
14.572	0.734
14.6116	0.77
14.6512	0.788
14.6908	0.798
14.7305	0.803
14.7701	0.8
14.8097	0.806
14.8494	0.823
14.889	0.831
14.9286	0.849
14.9682	0.843
15.0079	0.849
15.0475	0.869
15.0871	0.886
15.1268	0.892
15.1664	0.889
15.206	0.881
15.2456	0.877
15.2853	0.884
15.3249	0.876
15.3645	0.871
15.4041	0.864
15.4438	0.866
15.4834	0.877
15.523	0.863
15.5627	0.864
15.6023	0.863
15.6419	0.866
15.6815	0.858
15.7212	0.859
15.7608	0.859
15.8004	0.856
15.8401	0.849
15.8797	0.846
15.9193	0.839
15.9589	0.834
15.9986	0.838
