Infrared Spectrum: 2,4-Dimethoxyiodobenzene
Formula: C 8 H 9 I O 2
CAS: 20469-63-0
State: gas
Origin: EPA-IR VAPOR PHASE LIBRARY
1/CM	ABSORBANCE
549.8	0.001964
559.445	0.002434
569.09	0.003454
578.734	0.006354
588.379	0.010444
598.024	0.009364
607.669	0.007574
617.313	0.006074
626.958	0.004184
636.603	0.003294
646.248	0.002664
655.893	0.002134
665.537	0.001484
675.182	0.001284
684.827	0.001414
694.472	0.001514
704.116	0.001454
713.761	0.001824
723.406	0.001484
733.051	0.001304
742.695	0.0012265
752.34	0.0008806
761.985	0.001604
771.63	0.003294
781.275	0.007034
790.919	0.007854
800.564	0.007294
810.209	0.006794
819.854	0.008794
829.498	0.012784
839.143	0.014274
848.788	0.010314
858.433	0.006124
868.078	0.003234
877.722	0.002194
887.367	0.001944
897.012	0.002304
906.657	0.003714
916.301	0.006094
925.946	0.006584
935.591	0.004574
945.236	0.002914
954.88	0.002424
964.525	0.002844
974.17	0.003434
983.815	0.004714
993.46	0.007634
1003.1	0.016164
1012.75	0.042754
1022.39	0.038964
1032.04	0.040724
1041.68	0.044864
1051.33	0.041374
1060.97	0.032074
1070.62	0.017284
1080.26	0.009374
1089.91	0.007174
1099.55	0.007934
1109.2	0.012894
1118.84	0.021914
1128.49	0.023004
1138.13	0.023494
1147.78	0.037184
1157.42	0.071124
1167.07	0.072944
1176.71	0.040934
1186.36	0.032634
1196	0.049754
1205.64	0.088994
1215.29	0.073804
1224.93	0.032874
1234.58	0.025054
1244.22	0.029744
1253.87	0.035934
1263.51	0.038204
1273.16	0.046724
1282.8	0.065554
1292.45	0.085554
1302.09	0.079824
1311.74	0.044304
1321.38	0.017194
1331.03	0.008654
1340.67	0.005954
1350.32	0.004984
1359.96	0.005214
1369.61	0.007524
1379.25	0.012814
1388.9	0.020624
1398.54	0.027574
1408.18	0.026384
1417.83	0.019264
1427.47	0.020284
1437.12	0.038614
1446.76	0.043374
1456.41	0.051674
1466.05	0.079974
1475.7	0.094604
1485.34	0.062204
1494.99	0.022504
1504.63	0.010384
1514.28	0.007424
1523.92	0.007084
1533.57	0.008654
1543.21	0.012214
1552.86	0.020034
1562.5	0.038934
1572.15	0.070864
1581.79	0.091604
1591.44	0.073164
1601.08	0.035474
1610.73	0.015204
1620.37	0.008014
1630.01	0.005184
1639.66	0.003964
1649.3	0.003234
1658.95	0.002844
1668.59	0.002664
1678.24	0.002464
1687.88	0.002144
1697.53	0.002064
1707.17	0.002164
1716.82	0.002014
1726.46	0.002194
1736.11	0.001914
1745.75	0.001584
1755.4	0.001274
1765.04	0.0011351
1774.69	0.0010839
1784.33	0.0010843
1793.98	0.001199
1803.62	0.001264
1813.27	0.0011333
1822.91	0.0011587
1832.55	0.001344
1842.2	0.001534
1851.84	0.001574
1861.49	0.001654
1871.13	0.001814
1880.78	0.001744
1890.42	0.001424
1900.07	0.0011836
1909.71	0.0011969
1919.36	0.001424
1929	0.001624
1938.65	0.001564
1948.29	0.001364
1957.94	0.001294
1967.58	0.001294
1977.23	0.0012165
1986.87	0.0009764
1996.52	0.0009578
2006.16	0.001089
2015.81	0.001254
2025.45	0.0012212
2035.1	0.001294
2044.74	0.001554
2054.38	0.001814
2064.03	0.002134
2073.67	0.002204
2083.32	0.001884
2092.96	0.001584
2102.61	0.001364
2112.25	0.0012105
2121.9	0.0010464
2131.54	0.0009901
2141.19	0.0008188
2150.83	0.0007961
2160.48	0.0008084
2170.12	0.000926
2179.77	0.0011863
2189.41	0.001264
2199.06	0.001364
2208.7	0.001294
2218.35	0.0011246
2227.99	0.0009007
2237.64	0.0006311
2247.28	0.000498
2256.92	0.0004465
2266.57	0.0004595
2276.21	0.0005827
2285.86	0.0008304
2295.5	0.0009102
2305.15	0.0010157
2314.79	0.0009483
2324.44	0.0008007
2334.08	0.0004635
2343.73	0.0004523
2353.37	0.0005924
2363.02	0.000592
2372.66	0.0007108
2382.31	0.0008119
2391.95	0.0007778
2401.6	0.0007254
2411.24	0.0007905
2420.89	0.0008041
2430.53	0.0007803
2440.18	0.0009572
2449.82	0.0008556
2459.47	0.0008773
2469.11	0.0009306
2478.75	0.0011046
2488.4	0.001294
2498.04	0.001274
2507.69	0.001234
2517.33	0.0009638
2526.98	0.0007679
2536.62	0.0006907
2546.27	0.0006738
2555.91	0.0008585
2565.56	0.001008
2575.2	0.0009057
2584.85	0.0009662
2594.49	0.0009472
2604.14	0.0009103
2613.78	0.0009347
2623.43	0.0010641
2633.07	0.00091
2642.72	0.0009179
2652.36	0.0007943
2662.01	0.0009548
2671.65	0.0008502
2681.29	0.000781
2690.94	0.000757
2700.58	0.0006389
2710.23	0.0006686
2719.87	0.0007083
2729.52	0.0007645
2739.16	0.0009409
2748.81	0.0009912
2758.45	0.0010735
2768.1	0.0012267
2777.74	0.001504
2787.39	0.001804
2797.03	0.002484
2806.68	0.003264
2816.32	0.004854
2825.97	0.007714
2835.61	0.013924
2845.26	0.020234
2854.9	0.016934
2864.55	0.012634
2874.19	0.010994
2883.84	0.010784
2893.48	0.011604
2903.12	0.013074
2912.77	0.016244
2922.41	0.018294
2932.06	0.021634
2941.7	0.034384
2951.35	0.038644
2960.99	0.029644
2970.64	0.020804
2980.28	0.013844
2989.93	0.012514
2999.57	0.018424
3009.22	0.029594
3018.86	0.018434
3028.51	0.007904
3038.15	0.005024
3047.8	0.004144
3057.44	0.003764
3067.09	0.004234
3076.73	0.005954
3086.38	0.006484
3096.02	0.004974
3105.67	0.002984
3115.31	0.002014
3124.95	0.001724
3134.6	0.001424
3144.24	0.001344
3153.89	0.0012002
3163.53	0.0010292
3173.18	0.0008746
3182.82	0.0007068
3192.47	0.0006772
3202.11	0.0004601
3211.76	0.0005482
3221.4	0.00051
3231.05	0.0004063
3240.69	0.00028937
3250.34	0.0002133
3259.98	0.00028335
3269.63	0.00028919
3279.27	0.000126
3288.92	0.0001822
3298.56	0.0003073
3308.21	0.00026267
3317.85	0.00025276
3327.49	0.0001644
3337.14	0.0004174
3346.78	0.00024597
3356.43	0.000148
3366.07	0.0003539
3375.72	0.0001412
3385.36	0.0002744
3395.01	9.8e-05
3404.65	0.0002217
3414.3	0.000118
3423.94	0.0004514
3433.59	0.0001877
3443.23	0.0002158
3452.88	0.00025275
3462.52	0.0001935
3472.17	0.00030405
3481.81	0.000236555
3491.46	0.00026044
3501.1	0.00028571
3510.75	0.0004787
3520.39	0.0002098
3530.04	0.00026285
3539.68	0.0002143
3549.32	0.0002091
3558.97	9.8e-05
3568.61	0.000214
3578.26	0.0004106
3587.9	0.000233975
3597.55	0.00027148
3607.19	8.6e-05
3616.84	0.000181
3626.48	0.0001604
3636.13	0.00026048
3645.77	0.0002164
3655.42	0.0003621
3665.06	0.00027554
3674.71	0.0001574
3684.35	0.0002102
3694	0.00029739
3703.64	3.9e-05
3713.29	0.00031649
3722.93	0.000132
3732.58	0.00030444
3742.22	0.00027054
3751.86	0.0001965
3761.51	0.0004046
3771.15	0.0004051
3780.8	0.0003415
3790.44	9.1e-05
3800.09	0.0001614
3809.73	0.0004459
3819.38	0.0003244
3829.02	0.000127
3838.67	0.00022988
3848.31	0.0002506
3857.96	0.00031668
3867.6	0.0004511
3877.25	0.000493
3886.89	0.0004966
3896.54	0.0003423
3906.18	0.0003376
3915.83	0.0004334
3925.47	0.0005285
3935.12	0.0003373
3944.76	0.0003668
3954.41	0.0005806
3964.05	0.000381
3973.69	0.0005363
3983.34	0.0005004
3992.98	0.0005203
