Infrared Spectrum: ETHANEDIONE, 1,2-BIS(2-METHYLPHENYL)-
Formula: C16 H14 O2
CAS: 2048-07-9
State: SOLID (1 mg / 650 mg KBr DISC)
Class: COBLENTZ III
Instrument: PERKIN-ELMER 521 (GRATING)
Sampling: TRANSMISSION
Resolution: 4
Origin: SOUTHERN RESEARCH INSTITUTE
1/CM	TRANSMITTANCE
253.968	0.212
264.55	0.257
275.132	0.294
285.714	0.362
296.296	0.449
306.878	0.512
317.46	0.528
328.042	0.578
338.624	0.636
349.206	0.675
359.788	0.705
370.37	0.713
380.952	0.745
391.534	0.745
402.116	0.763
412.698	0.771
423.28	0.75
433.862	0.659
444.444	0.804
455.026	0.809
465.608	0.806
476.19	0.802
486.772	0.7759
497.354	0.83
507.936	0.831
518.518	0.829
529.1	0.825
539.682	0.819
550.264	0.813
560.846	0.817
571.428	0.814
582.01	0.809
592.592	0.791
603.174	0.779
613.756	0.762
624.338	0.722
634.92	0.642
645.502	0.4841
656.084	0.842
666.666	0.797
677.248	0.827
687.83	0.743
698.412	0.814
708.994	0.7131
719.576	0.4212
730.158	0.445
740.74	0.6781
751.322	0.7606
761.904	0.927
772.486	0.909
783.068	0.898
793.65	0.9
804.232	0.892
814.814	0.892
825.396	0.888
835.978	0.869
846.56	0.7872
857.142	0.787
867.724	0.681
878.306	0.475
888.888	0.922
899.47	0.923
910.052	0.918
920.634	0.914
931.216	0.894
941.798	0.893
952.38	0.89
962.962	0.88
973.544	0.865
984.126	0.833
994.708	0.863
1005.29	0.851
1015.87	0.838
1026.45	0.775
1037.04	0.848
1047.62	0.837
1058.2	0.848
1068.78	0.839
1079.36	0.83
1089.95	0.826
1100.53	0.802
1111.11	0.7551
1121.69	0.795
1132.27	0.777
1142.86	0.779
1153.44	0.71
1164.02	0.645
1174.6	0.6761
1185.18	0.5121
1195.77	0.4379
1206.35	0.738
1216.93	0.84
1227.51	0.867
1238.09	0.858
1248.68	0.816
1259.26	0.792
1269.84	0.814
1280.42	0.709
1291	0.714
1301.59	0.708
1312.17	0.764
1322.75	0.868
1333.33	0.864
1343.91	0.844
1354.5	0.834
1365.08	0.802
1375.66	0.7629
1386.24	0.833
1396.82	0.812
1407.41	0.78
1417.99	0.741
1428.57	0.726
1439.15	0.7001
1449.73	0.576
1460.32	0.795
1470.9	0.71
1481.48	0.696
1492.06	0.84
1502.64	0.827
1513.23	0.81
1523.81	0.791
1534.39	0.759
1544.97	0.703
1555.55	0.624
1566.14	0.5669
1576.72	0.745
1587.3	0.6012
1597.88	0.713
1608.46	0.7001
1619.05	0.65
1629.63	0.591
1640.21	0.5371
1650.79	0.3941
1661.37	0.262
1671.96	0.312
1682.54	0.558
1693.12	0.7729
1703.7	0.86
1714.28	0.894
1724.87	0.913
1735.45	0.923
1746.03	0.915
1756.61	0.926
1767.19	0.923
1777.78	0.922
1788.36	0.915
1798.94	0.909
1809.52	0.901
1820.1	0.898
1830.69	0.897
1841.27	0.893
1851.85	0.89
1862.43	0.889
1873.01	0.888
1883.6	0.881
1894.18	0.881
1904.76	0.877
1915.34	0.88
1925.92	0.871
1936.51	0.867
1947.09	0.873
1957.67	0.869
1968.25	0.854
1978.83	0.846
1989.42	0.863
2000	0.862
2010.58	0.859
2021.16	0.856
2031.74	0.854
2042.33	0.854
2052.91	0.852
2063.49	0.852
2074.07	0.851
2084.65	0.851
2095.24	0.851
2105.82	0.85
2116.4	0.848
2126.98	0.847
2137.56	0.847
2148.15	0.8461
2158.73	0.844
2169.31	0.844
2179.89	0.8431
2190.47	0.843
2201.06	0.843
2211.64	0.842
2222.22	0.84
2232.8	0.839
2243.38	0.8382
2253.97	0.835
2264.55	0.834
2275.13	0.834
2285.71	0.833
2296.29	0.831
2306.88	0.831
2317.46	0.83
2328.04	0.83
2338.62	0.829
2349.2	0.829
2359.79	0.825
2370.37	0.825
2380.95	0.825
2391.53	0.822
2402.11	0.818
2412.7	0.8204
2423.28	0.822
2433.86	0.822
2444.44	0.817
2455.02	0.8133
2465.61	0.812
2476.19	0.808
2486.77	0.806
2497.35	0.805
2507.93	0.805
2518.52	0.806
2529.1	0.806
2539.68	0.804
2550.26	0.8014
2560.84	0.796
2571.43	0.796
2582.01	0.797
2592.59	0.797
2603.17	0.797
2613.75	0.797
2624.34	0.797
2634.92	0.797
2645.5	0.796
2656.08	0.796
2666.66	0.795
2677.25	0.793
2687.83	0.792
2698.41	0.7925
2708.99	0.793
2719.57	0.787
2730.16	0.784
2740.74	0.787
2751.32	0.787
2761.9	0.786
2772.48	0.785
2783.07	0.7826
2793.65	0.78
2804.23	0.779
2814.81	0.777
2825.39	0.775
2835.98	0.7666
2846.56	0.76
2857.14	0.759
2867.72	0.759
2878.3	0.756
2888.89	0.7506
2899.47	0.7416
2910.05	0.7238
2920.63	0.6982
2931.21	0.7359
2941.8	0.7403
2952.38	0.7164
2962.96	0.6956
2973.54	0.709
2984.12	0.7337
2994.71	0.755
3005.29	0.7467
3015.87	0.7267
3026.45	0.7369
3037.03	0.755
3047.62	0.743
3058.2	0.7201
3068.78	0.7463
3079.36	0.7482
3089.94	0.75
3100.53	0.7571
3111.11	0.766
3121.69	0.764
3132.27	0.7722
3142.85	0.758
3153.44	0.7535
3164.02	0.7498
3174.6	0.749
3185.18	0.749
3195.76	0.745
3206.35	0.742
3216.93	0.739
3227.51	0.734
3238.09	0.729
3248.67	0.722
3259.26	0.718
3269.84	0.713
3280.42	0.708
3291	0.704
3301.58	0.6987
3312.17	0.6843
3322.75	0.67
3333.33	0.6698
3343.91	0.6618
3354.49	0.6499
3365.08	0.6358
3375.66	0.6209
3386.24	0.6108
3396.82	0.5999
3407.4	0.591
3417.99	0.586
3428.57	0.584
3439.15	0.584
3449.73	0.587
3460.31	0.592
3470.9	0.596
3481.48	0.6
3492.06	0.603
3502.64	0.608
3513.22	0.62
3523.81	0.633
3534.39	0.643
3544.97	0.653
3555.55	0.6659
3566.13	0.6739
3576.72	0.685
3587.3	0.6929
3597.88	0.7049
3608.46	0.7157
3619.04	0.7238
3629.63	0.729
3640.21	0.731
3650.79	0.734
3661.37	0.733
3671.95	0.73
3682.54	0.7348
3693.12	0.739
3703.7	0.7419
3714.28	0.742
3724.86	0.742
3735.45	0.741
3746.03	0.739
3756.61	0.739
3767.19	0.739
3777.77	0.738
3788.36	0.738
3798.94	0.738
3809.52	0.737
3820.1	0.737
3830.68	0.733
3841.27	0.733
3851.85	0.731
3862.43	0.731
3873.01	0.731
3883.59	0.7303
3894.18	0.729
3904.76	0.729
3915.34	0.729
3925.92	0.729
3936.5	0.729
3947.09	0.729
3957.67	0.729
3968.25	0.729
3978.83	0.729
3989.41	0.729
