Infrared Spectrum: Urea, (benzyloxy)-
Formula: C8 H10 N2 O2
CAS: 2048-50-2
State: SOLID (SPLIT MULL), FLUOROLUBE FOR 3800-1330 CM^-^1, NUJOL FOR 1330-400 CM^-^1
Melting point: 139 C
Class: COBLENTZ III
Instrument: BECKMAN IR-9 (GRATING)
Instrument parameters: ORDER CHANGES: 670, 1200, 2000 CM^-^1
Sampling: TRANSMISSION
Resolution: 2
Origin: DOW CHEMICAL COMPANY
1/CM	TRANSMITTANCE
403	0.4998
412	0.5071
421	0.5362
430	0.5979
439	0.6726
448	0.6807
457	0.7333
466	0.7571
475	0.7643
484	0.7644
493	0.659
502	0.7522
511	0.8031
520	0.8196
529	0.8259
538	0.8322
547	0.8217
556	0.7814
565	0.6328
574	0.7851
583	0.6967
592	0.5752
601	0.7262
610	0.7031
619	0.4642
628	0.3425
637	0.4203
646	0.3778
655	0.3879
664	0.4675
673	0.4878
682	0.417
691	0.2293
700	0.0868
709	0.2888
718	0.4746
727	0.5601
736	0.5976
745	0.2819
754	0.3624
763	0.721
772	0.7366
781	0.628
790	0.3446
799	0.1913
808	0.3599
817	0.5562
826	0.7329
835	0.806
844	0.8525
853	0.8795
862	0.8974
871	0.9073
880	0.91
889	0.9063
898	0.8786
907	0.5251
916	0.8494
925	0.7968
934	0.5585
943	0.3604
952	0.6975
961	0.7973
970	0.8424
979	0.8595
988	0.8522
997	0.7006
1006	0.7421
1015	0.824
1024	0.8276
1033	0.6593
1042	0.8057
1051	0.7709
1060	0.5522
1069	0.7163
1078	0.723
1087	0.6459
1096	0.6658
1105	0.4024
1114	0.3329
1123	0.5811
1132	0.6468
1141	0.6795
1150	0.6846
1159	0.6374
1168	0.6829
1177	0.6745
1186	0.6652
1195	0.664
1204	0.6537
1213	0.4199
1222	0.6473
1231	0.6586
1240	0.6618
1249	0.6568
1258	0.6391
1267	0.6599
1276	0.6562
1285	0.6598
1294	0.6703
1303	0.6661
1312	0.6528
1321	0.64
1330	0.5695
1339	0.5115
1348	0.4859
1357	0.2538
1366	0.6091
1375	0.6461
1384	0.6417
1393	0.6347
1402	0.6094
1411	0.5537
1420	0.4639
1429	0.5479
1438	0.491
1447	0.3819
1456	0.2503
1465	0.2811
1474	0.4581
1483	0.6077
1492	0.5901
1501	0.6666
1510	0.7048
1519	0.7076
1528	0.6999
1537	0.6797
1546	0.646
1555	0.5908
1564	0.5432
1573	0.4761
1582	0.3934
1591	0.3165
1600	0.1724
1609	0.1408
1618	0.0188
1627	0.0078
1636	0.007
1645	0.0384
1654	0.2394
1663	0.3965
1672	0.4627
1681	0.3987
1690	0.5883
1699	0.7427
1708	0.8096
1717	0.8483
1726	0.8666
1735	0.8871
1744	0.8933
1753	0.9013
1762	0.9138
1771	0.9107
1780	0.9092
1789	0.9125
1798	0.9016
1807	0.9038
1816	0.9142
1825	0.9143
1834	0.9148
1843	0.914
1852	0.9124
1861	0.9061
1870	0.8988
1879	0.9118
1888	0.9064
1897	0.9192
1906	0.9206
1915	0.9187
1924	0.9162
1933	0.9107
1942	0.8977
1951	0.8996
1960	0.9082
1969	0.8969
1978	0.9097
1987	0.8948
1996	0.8761
2005	0.8922
2014	0.8969
2023	0.8972
2032	0.8957
2041	0.8935
2050	0.8915
2059	0.8892
2068	0.8863
2077	0.8838
2086	0.8816
2095	0.8784
2104	0.8751
2113	0.8712
2122	0.8672
2131	0.8631
2140	0.859
2149	0.8547
2158	0.8502
2167	0.8456
2176	0.8407
2185	0.8366
2194	0.8325
2203	0.8278
2212	0.8229
2221	0.8183
2230	0.8137
2239	0.8092
2248	0.8047
2257	0.8012
2266	0.798
2275	0.795
2284	0.7923
2293	0.7892
2302	0.786
2311	0.783
2320	0.7795
2329	0.7783
2338	0.7756
2347	0.7737
2356	0.7733
2365	0.7732
2374	0.7745
2383	0.7761
2392	0.7787
2401	0.781
2410	0.7796
2419	0.7779
2428	0.7765
2437	0.7752
2446	0.7747
2455	0.7781
2464	0.7809
2473	0.7801
2482	0.7785
2491	0.7771
2500	0.7762
2509	0.7754
2518	0.7746
2527	0.7735
2536	0.7723
2545	0.7708
2554	0.7693
2563	0.7672
2572	0.7656
2581	0.7639
2590	0.7622
2599	0.7604
2608	0.7583
2617	0.7556
2626	0.7522
2635	0.7487
2644	0.745
2653	0.741
2662	0.7381
2671	0.7352
2680	0.7324
2689	0.7298
2698	0.7272
2707	0.7246
2716	0.7214
2725	0.7179
2734	0.7142
2743	0.7095
2752	0.7048
2761	0.699
2770	0.693
2779	0.6849
2788	0.6763
2797	0.6659
2806	0.6554
2815	0.6444
2824	0.6287
2833	0.6154
2842	0.6174
2851	0.6214
2860	0.6056
2869	0.5596
2878	0.6096
2887	0.6184
2896	0.6168
2905	0.6094
2914	0.5902
2923	0.5044
2932	0.5138
2941	0.6022
2950	0.5998
2959	0.5713
2968	0.6013
2977	0.6005
2986	0.5933
2995	0.5799
3004	0.5636
3013	0.5388
3022	0.5091
3031	0.3684
3040	0.4552
3049	0.5136
3058	0.4948
3067	0.4423
3076	0.4834
3085	0.4377
3094	0.4431
3103	0.4441
3112	0.4379
3121	0.4304
3130	0.418
3139	0.3934
3148	0.3659
3157	0.3336
3166	0.2709
3175	0.2283
3184	0.2073
3193	0.1906
3202	0.1633
3211	0.1015
3220	0.0831
3229	0.0897
3238	0.1187
3247	0.165
3256	0.2396
3265	0.2744
3274	0.2995
3283	0.305
3292	0.2992
3301	0.2952
3310	0.3422
3319	0.3827
3328	0.4063
3337	0.4109
3346	0.3893
3355	0.3395
3364	0.2863
3373	0.2312
3382	0.1706
3391	0.1378
3400	0.1379
3409	0.2392
3418	0.4919
3427	0.6371
3436	0.6767
3445	0.7061
3454	0.7329
3463	0.7465
3472	0.753
3481	0.7522
3490	0.7511
3499	0.7474
3508	0.7423
3517	0.7363
3526	0.7305
3535	0.7249
3544	0.7197
3553	0.7145
3562	0.7091
3571	0.7036
3580	0.6979
3589	0.6921
3598	0.6881
3607	0.6843
3616	0.6803
3625	0.676
3634	0.6719
3643	0.6676
3652	0.6634
3661	0.6599
3670	0.6565
3679	0.653
3688	0.6501
3697	0.6472
3706	0.6444
3715	0.642
3724	0.6399
3733	0.6378
3742	0.6357
3751	0.6335
3760	0.6313
3769	0.629
3778	0.6268
3787	0.6254
3796	0.6241
