Infrared Spectrum: (3-Methylbutyl)benzene
Formula: C 11 H 16
CAS: 2049-94-7
State: gas
Instrument: HP-GC/MS/IRD
Origin: NIST Mass Spectrometry Data Center
1/CM	ABSORBANCE
550	0.0008792
562	0.0011256
574	0.0018032
586	0.0012152
598	0.0004704
610	3.92e-05
622	2.24e-05
634	0.0003752
646	0.0006888
658	0.0012824
670	0.0024696
682	0.0063952
694	0.0160776
706	0.0132328
718	0.0088312
730	0.0107072
742	0.0111216
754	0.0068712
766	0.0037408
778	0.0019712
790	0.000868
802	0.0005656
814	0.0003304
826	0.0003192
838	0.0002408
850	0.0002744
862	0.0001736
874	0.0003192
886	0.0006384
898	0.0009856
910	0.0010696
922	0.0008624
934	0.0006776
946	0.0004872
958	0.000392
970	0.000336
982	0.0003304
994	0.0004144
1006	0.000504
1018	0.0011424
1030	0.0031808
1042	0.0014
1054	0.0014728
1066	0.0019096
1078	0.00126
1090	0.0008064
1102	0.0008736
1114	0.0009632
1126	0.0007504
1138	0.0006496
1150	0.00098
1162	0.002044
1174	0.0020104
1186	0.0010584
1198	0.0012264
1210	0.0008288
1222	0.0005768
1234	0.000812
1246	0.0007
1258	0.0005376
1270	0.0007
1282	0.0006552
1294	0.000784
1306	0.00112
1318	0.0015736
1330	0.0020384
1342	0.0024024
1354	0.0030296
1366	0.0045416
1378	0.0054432
1390	0.005292
1402	0.002212
1414	0.0014056
1426	0.0016912
1438	0.0035448
1450	0.006804
1462	0.0084616
1474	0.0073528
1486	0.0064064
1498	0.0084504
1510	0.0028056
1522	0.0009576
1534	0.0007224
1546	0.00056
1558	0.0006216
1570	0.0009632
1582	0.00182
1594	0.0035056
1606	0.0047264
1618	0.001764
1630	0.0005824
1642	0.00042
1654	0.0003584
1666	0.0002576
1678	0.0002296
1690	0.0002016
1702	0.0002464
1714	0.0002912
1726	0.0003472
1738	0.0004312
1750	0.0003528
1762	0.0002576
1774	0.0003752
1786	0.0008624
1798	0.0010752
1810	0.0004648
1822	0.000308
1834	0.0003192
1846	0.0004816
1858	0.0005824
1870	0.0007336
1882	0.000532
1894	0.0002576
1906	0.0002352
1918	0.0004312
1930	0.0008344
1942	0.0010304
1954	0.0008512
1966	0.0001904
1978	6.72e-05
1990	7.84e-05
2002	5.6e-06
2014	2.8e-05
2026	5.6e-05
2038	4.48e-05
2050	2.8e-05
2062	1.12e-05
2074	0
2086	1.12e-05
2098	1.68e-05
2110	5.04e-05
2122	1.68e-05
2134	0
2146	4.48e-05
2158	3.36e-05
2170	6.16e-05
2182	3.92e-05
2194	6.16e-05
2206	3.92e-05
2218	7.28e-05
2230	4.48e-05
2242	6.72e-05
2254	7.84e-05
2266	2.24e-05
2278	7.84e-05
2290	0.0001176
2302	0.0002016
2314	0.0003808
2326	0.000644
2338	0.0008288
2350	0.0004592
2362	0.001036
2374	0.000504
2386	0.0001624
2398	0.0001568
2410	0.0001288
2422	0.0001456
2434	0.0001176
2446	0.0001344
2458	0.0001512
2470	0.0001512
2482	0.0001736
2494	0.0001456
2506	0.0001904
2518	0.0001624
2530	0.0002072
2542	0.0002352
2554	0.0002688
2566	0.0003136
2578	0.0003696
2590	0.0004312
2602	0.0005208
2614	0.0005376
2626	0.0005208
2638	0.000588
2650	0.000588
2662	0.0005264
2674	0.0005152
2686	0.0005488
2698	0.000616
2710	0.0007056
2722	0.0008288
2734	0.0009632
2746	0.0008904
2758	0.0009016
2770	0.0010976
2782	0.0012264
2794	0.0014952
2806	0.0016968
2818	0.0021784
2830	0.00294
2842	0.0049224
2854	0.009828
2866	0.015484
2878	0.0206864
2890	0.0190624
2902	0.020104
2914	0.0293216
2926	0.0356496
2938	0.0388192
2950	0.0392224
2962	0.0551712
2974	0.038052
2986	0.0115528
2998	0.0062776
3010	0.0066304
3022	0.0110936
3034	0.0166096
3046	0.0101864
3058	0.0092568
3070	0.0146384
3082	0.0105168
3094	0.0070224
3106	0.0044464
3118	0.0025592
3130	0.0012936
3142	0.0010416
3154	0.0009856
3166	0.0010136
3178	0.000868
3190	0.0007224
3202	0.0006496
3214	0.000504
3226	0.0004144
3238	0.0002744
3250	0.00028
3262	0.0002576
3274	0.0002912
3286	0.0002184
3298	0.0002184
3310	0.000224
3322	0.0002128
3334	0.0002464
3346	0.0003136
3358	0.0002856
3370	0.0002352
3382	0.0002016
3394	0.000168
3406	0.0001736
3418	0.00014
3430	0.0001792
3442	0.0001176
3454	0.0001232
3466	0.0001008
3478	0.0001624
3490	8.96e-05
3502	0.0001344
3514	7.84e-05
3526	8.4e-05
3538	3.36e-05
3550	8.96e-05
3562	0.0001064
3574	5.6e-05
3586	9.52e-05
3598	0.0001064
3610	0.0001288
3622	0.0001008
3634	0.0001624
3646	0.000168
3658	0.0001456
3670	0.0001848
3682	0.000112
3694	0.0001288
3706	0.00014
3718	9.52e-05
3730	0.0001624
3742	0.00014
3754	0.0001456
3766	0.0001456
3778	0.000168
3790	0.0001848
3802	0.0002352
3814	0.0002352
3826	0.0002352
3838	0.000168
