Infrared Spectrum: m-Diethoxybenzene
Formula: C 10 H 14 O 2
CAS: 2049-73-2
State: gas
Origin: EPA-IR VAPOR PHASE LIBRARY
1/CM	ABSORBANCE
501.5	0.000192
513.074	0.00029
524.648	0.0006396
536.222	0.0009984
547.796	0.0011891
559.37	0.0013051
570.944	0.001492
582.518	0.001932
594.092	0.001722
605.666	0.001642
617.24	0.0011799
628.814	0.0008217
640.388	0.0008821
651.962	0.0012368
663.536	0.002372
675.11	0.007692
686.684	0.013502
698.258	0.006832
709.832	0.002682
721.406	0.002672
732.98	0.003682
744.554	0.006822
756.128	0.012312
767.702	0.011822
779.276	0.005602
790.85	0.002472
802.423	0.002692
813.997	0.004162
825.571	0.005742
837.145	0.007842
848.719	0.009132
860.293	0.008492
871.867	0.006392
883.441	0.004882
895.015	0.004642
906.589	0.004832
918.163	0.004422
929.737	0.003752
941.311	0.003982
952.885	0.006452
964.459	0.010522
976.033	0.012272
987.607	0.009562
999.181	0.007552
1010.76	0.008702
1022.33	0.015822
1033.9	0.034752
1045.48	0.051372
1057.05	0.036012
1068.63	0.020402
1080.2	0.018402
1091.77	0.019622
1103.35	0.020302
1114.92	0.025962
1126.49	0.035792
1138.07	0.080662
1149.64	0.115282
1161.22	0.069632
1172.79	0.084932
1184.36	0.096022
1195.94	0.041822
1207.51	0.016472
1219.09	0.011082
1230.66	0.010392
1242.23	0.016222
1253.81	0.035432
1265.38	0.050912
1276.96	0.051982
1288.53	0.045102
1300.1	0.032872
1311.68	0.022622
1323.25	0.016672
1334.83	0.012012
1346.4	0.008072
1357.97	0.009212
1369.55	0.012142
1381.12	0.018272
1392.7	0.029122
1404.27	0.019392
1415.84	0.010462
1427.42	0.010242
1438.99	0.015872
1450.57	0.020812
1462.14	0.027922
1473.71	0.053702
1485.29	0.063892
1496.86	0.042292
1508.44	0.014482
1520.01	0.008702
1531.58	0.008462
1543.16	0.010122
1554.73	0.014282
1566.31	0.024802
1577.88	0.050452
1589.45	0.089562
1601.03	0.094082
1612.6	0.056772
1624.18	0.026372
1635.75	0.012322
1647.32	0.006802
1658.9	0.004382
1670.47	0.003282
1682.05	0.002742
1693.62	0.002372
1705.19	0.002242
1716.77	0.002142
1728.34	0.001932
1739.92	0.001672
1751.49	0.001522
1763.06	0.001402
1774.64	0.001293
1786.21	0.0012763
1797.79	0.0013693
1809.36	0.0013125
1820.93	0.001214
1832.51	0.0010999
1844.08	0.0011688
1855.66	0.001462
1867.23	0.001772
1878.8	0.002202
1890.38	0.002792
1901.95	0.003222
1913.53	0.002822
1925.1	0.002082
1936.67	0.001762
1948.25	0.001622
1959.82	0.001452
1971.4	0.0013431
1982.97	0.0012454
1994.54	0.0011873
2006.12	0.001204
2017.69	0.0012025
2029.27	0.0011848
2040.84	0.0011074
2052.41	0.0009609
2063.99	0.0009647
2075.56	0.0009608
2087.14	0.0009865
2098.71	0.0010759
2110.28	0.0011824
2121.86	0.0013137
2133.43	0.0013134
2145.01	0.0012461
2156.58	0.0012031
2168.15	0.0011108
2179.73	0.0009696
2191.3	0.0008859
2202.88	0.000882
2214.45	0.0008774
2226.02	0.0008775
2237.6	0.0008082
2249.17	0.0008052
2260.74	0.0008121
2272.32	0.0008684
2283.89	0.0009086
2295.47	0.0010185
2307.04	0.0010971
2318.61	0.0010709
2330.19	0.0010753
2341.76	0.0010343
2353.34	0.0009905
2364.91	0.0009713
2376.48	0.0009875
2388.06	0.0011024
2399.63	0.0013547
2411.21	0.001632
2422.78	0.001842
2434.35	0.001972
2445.93	0.001862
2457.5	0.001542
2469.08	0.0012764
2480.65	0.0011008
2492.22	0.0009499
2503.8	0.0008707
2515.37	0.0008962
2526.95	0.0008815
2538.52	0.0009851
2550.09	0.001042
2561.67	0.0011263
2573.24	0.0011565
2584.82	0.0011024
2596.39	0.0010584
2607.96	0.0009399
2619.54	0.000913
2631.11	0.0009013
2642.69	0.000826
2654.26	0.0008027
2665.83	0.0008908
2677.41	0.0008559
2688.98	0.0009655
2700.56	0.0011541
2712.13	0.0013504
2723.7	0.001702
2735.28	0.001982
2746.85	0.002142
2758.43	0.002222
2770	0.002282
2781.57	0.002242
2793.15	0.002242
2804.72	0.002492
2816.3	0.002982
2827.87	0.003602
2839.44	0.004532
2851.02	0.006022
2862.59	0.008652
2874.17	0.013832
2885.74	0.019972
2897.31	0.021402
2908.89	0.023182
2920.46	0.023392
2932.04	0.024422
2943.61	0.028762
2955.18	0.022902
2966.76	0.022432
2978.33	0.034452
2989.91	0.040852
3001.48	0.022522
3013.05	0.011242
3024.63	0.008592
3036.2	0.008342
3047.78	0.007132
3059.35	0.005962
3070.92	0.007152
3082.5	0.008912
3094.07	0.007592
3105.65	0.004342
3117.22	0.002632
3128.79	0.001732
3140.37	0.001292
3151.94	0.0011045
3163.52	0.0010141
3175.09	0.0009387
3186.66	0.0009014
3198.24	0.0009433
3209.81	0.0008911
3221.39	0.0007526
3232.96	0.000652
3244.53	0.0005353
3256.11	0.00042351
3267.68	0.00046687
3279.26	0.00043013
3290.83	0.0003461
3302.4	0.0003467
3313.98	0.0003107
3325.55	0.0003427
3337.13	0.0003595
3348.7	0.0003227
3360.27	0.0003446
3371.85	0.0003546
3383.42	0.000284
3395	0.000314
3406.57	0.0003759
3418.14	0.0003749
3429.72	0.00038787
3441.29	0.0003171
3452.86	0.00024
3464.44	0.000263
3476.01	0.0003149
3487.59	0.0003434
3499.16	0.0003141
3510.73	0.0003121
3522.31	0.000248
3533.88	0.000272
3545.46	0.0002973
3557.03	0.000278
3568.6	0.0003532
3580.18	0.0003538
3591.75	0.0003252
3603.33	0.0003561
3614.9	0.0003597
3626.47	0.0003242
3638.05	0.0003558
3649.62	0.0003507
3661.2	0.0003224
3672.77	0.0003143
3684.34	0.0003336
3695.92	0.0003729
3707.49	0.00042966
3719.07	0.0004074
3730.64	0.000396638
3742.21	0.00047073
3753.79	0.0004793
3765.36	0.00046607
3776.94	0.0004828
3788.51	0.00044929
3800.08	0.00041962
3811.66	0.00048682
3823.23	0.00046938
3834.81	0.0004367
3846.38	0.00043907
3857.95	0.00048507
3869.53	0.0004566
3881.1	0.00045632
3892.68	0.00040921
3904.25	0.00042613
3915.82	0.000396568
3927.4	0.00047211
3938.97	0.00045613
3950.55	0.00048657
3962.12	0.0005485
3973.69	0.0005479
3985.27	0.0006159
3996.84	0.0006299
