Infrared Spectrum: tert-Pentylbenzene
Formula: C 11 H 16
CAS: 2049-95-8
State: gas
Instrument: HP-GC/MS/IRD
Origin: NIST Mass Spectrometry Data Center
1/CM	ABSORBANCE
550	0.003175
562	0.00298
574	0.00101
586	0.00018
598	7.5e-05
610	1e-05
622	4e-05
634	8e-05
646	0.00029
658	0.000905
670	0.002375
682	0.006405
694	0.014445
706	0.011825
718	0.004185
730	0.0022
742	0.00338
754	0.008115
766	0.007135
778	0.003195
790	0.00187
802	0.000785
814	0.000355
826	0.000155
838	0.000125
850	0.000195
862	0.000215
874	0.000235
886	0.0002
898	0.00038
910	0.00043
922	0.00038
934	0.000295
946	0.00019
958	0.00011
970	0.00011
982	0.00033
994	0.00101
1006	0.002325
1018	0.00315
1030	0.00419
1042	0.0026
1054	0.001265
1066	0.00099
1078	0.000995
1090	0.000995
1102	0.00126
1114	0.000955
1126	0.000455
1138	0.00032
1150	0.0005
1162	0.00088
1174	0.00092
1186	0.000855
1198	0.000965
1210	0.000785
1222	0.0014
1234	0.001725
1246	0.00131
1258	0.00079
1270	0.000635
1282	0.00091
1294	0.001935
1306	0.002585
1318	0.001505
1330	0.001175
1342	0.00114
1354	0.00204
1366	0.004625
1378	0.00622
1390	0.005875
1402	0.002805
1414	0.001405
1426	0.001925
1438	0.003735
1450	0.005755
1462	0.007005
1474	0.007245
1486	0.00778
1498	0.007475
1510	0.00254
1522	0.00122
1534	0.000885
1546	0.000595
1558	0.000535
1570	0.000825
1582	0.0017
1594	0.00337
1606	0.003105
1618	0.001025
1630	0.000415
1642	0.00033
1654	0.000385
1666	0.00044
1678	0.000325
1690	0.00024
1702	0.00022
1714	0.000265
1726	0.000405
1738	0.00041
1750	0.000275
1762	0.000225
1774	0.0004
1786	0.000865
1798	0.00088
1810	0.000445
1822	0.000245
1834	0.0002
1846	0.00031
1858	0.000535
1870	0.00068
1882	0.00058
1894	0.000335
1906	0.000235
1918	0.00032
1930	0.000705
1942	0.000895
1954	0.000695
1966	0.000245
1978	0.000105
1990	8.5e-05
2002	2.5e-05
2014	2e-05
2026	2.5e-05
2038	1.5e-05
2050	3.5e-05
2062	5.5e-05
2074	3e-05
2086	4e-05
2098	1e-05
2110	2e-05
2122	0
2134	2e-05
2146	1e-05
2158	2e-05
2170	1.5e-05
2182	1e-05
2194	2.5e-05
2206	2e-05
2218	1e-05
2230	1.5e-05
2242	1.5e-05
2254	3e-05
2266	5e-05
2278	6.5e-05
2290	7e-05
2302	0.0001
2314	0.000115
2326	0.0001
2338	7e-05
2350	0.000125
2362	9.5e-05
2374	0.000105
2386	0.00015
2398	0.000105
2410	0.0001
2422	0.0001
2434	9e-05
2446	0.0001
2458	7.5e-05
2470	6.5e-05
2482	5.5e-05
2494	5.5e-05
2506	7.5e-05
2518	0.0001
2530	8.5e-05
2542	9e-05
2554	0.00011
2566	0.00014
2578	0.00014
2590	0.000155
2602	0.000155
2614	0.0002
2626	0.00025
2638	0.000335
2650	0.00033
2662	0.000285
2674	0.000265
2686	0.000205
2698	0.000245
2710	0.000335
2722	0.00044
2734	0.000585
2746	0.000615
2758	0.000625
2770	0.00069
2782	0.00073
2794	0.000835
2806	0.00096
2818	0.00127
2830	0.001765
2842	0.002505
2854	0.00461
2866	0.00934
2878	0.01338
2890	0.015175
2902	0.014755
2914	0.01816
2926	0.02249
2938	0.023425
2950	0.025755
2962	0.039205
2974	0.04989
2986	0.02672
2998	0.008875
3010	0.005375
3022	0.006565
3034	0.00863
3046	0.008505
3058	0.01053
3070	0.01211
3082	0.008975
3094	0.00752
3106	0.004765
3118	0.0025
3130	0.00129
3142	0.000935
3154	0.0008
3166	0.000705
3178	0.000575
3190	0.00055
3202	0.000555
3214	0.00047
3226	0.00039
3238	0.00033
3250	0.00027
3262	0.00028
3274	0.000225
3286	0.000225
3298	0.000175
3310	0.000155
3322	0.00014
3334	0.00016
3346	0.00016
3358	9.5e-05
3370	0.000125
3382	0.00011
3394	0.000115
3406	0.0001
3418	0.00012
3430	9e-05
3442	7.5e-05
3454	4.5e-05
3466	0.0001
3478	3.5e-05
3490	8.5e-05
3502	5e-05
3514	2e-05
3526	2.5e-05
3538	5e-05
3550	1.5e-05
3562	4e-05
3574	2.5e-05
3586	0
3598	6e-05
3610	5.5e-05
3622	7e-05
3634	6.5e-05
3646	0.000105
3658	0.00011
3670	0.00012
3682	0.00016
3694	0.000125
3706	0.000165
3718	0.000145
3730	0.00011
3742	0.0001
3754	0.00013
3766	0.000125
3778	0.00014
3790	0.00011
3802	8e-05
3814	0.000145
3826	0.000125
3838	7e-05
