Infrared Spectrum: P-TERT. AMYL ANILINE
Formula: C11 H17 N
CAS: 2049-92-5
State: LIQUID
Class: COBLENTZ
Instrument: Not specified, most likely a grating spectrometer.
Sampling: TRANSMISSION
Path length: 0.0032 CM
Resolution: 4
Origin: STANDARD OIL OF OHIO
MICROMETERS	TRANSMITTANCE
2.03	0.967
2.06367	0.981
2.09734	0.988
2.13102	0.989
2.16469	0.984
2.19836	0.973
2.23203	0.976
2.2657	0.966
2.29937	0.937
2.33305	0.917
2.36672	0.935
2.40039	0.939
2.43406	0.93
2.46773	0.91
2.5014	0.917
2.53508	0.934
2.56875	0.937
2.60242	0.951
2.63609	0.961
2.66976	0.962
2.70343	0.952
2.73711	0.927
2.77078	0.91
2.80445	0.9
2.83812	0.838
2.87179	0.473
2.90546	0.296
2.93914	0.288
2.97281	0.178
3.00648	0.369
3.04015	0.531
3.07382	0.51
3.10749	0.445
3.14117	0.605
3.17484	0.752
3.20851	0.74
3.24218	0.672
3.27585	0.46
3.30952	0.352
3.3432	0.138
3.37687	0.026
3.41054	0.026
3.44421	0.074
3.47788	0.102
3.51156	0.543
3.54523	0.789
3.5789	0.839
3.61257	0.873
3.64624	0.898
3.67991	0.898
3.71359	0.903
3.74726	0.917
3.78093	0.917
3.8146	0.919
3.84827	0.935
3.88194	0.944
3.91562	0.94
3.94929	0.952
3.98296	0.957
4.01663	0.969
4.0503	0.969
4.08397	0.961
4.11765	0.951
4.15132	0.956
4.18499	0.954
4.21866	0.951
4.25233	0.961
4.286	0.969
4.31968	0.962
4.35335	0.952
4.38702	0.947
4.42069	0.944
4.45436	0.942
4.48803	0.944
4.52171	0.944
4.55538	0.946
4.58905	0.947
4.62272	0.942
4.65639	0.935
4.69007	0.932
4.72374	0.927
4.75741	0.924
4.79108	0.927
4.82475	0.929
4.85842	0.932
4.8921	0.925
4.92577	0.907
4.95944	0.912
4.99311	0.917
5.02678	0.919
5.06045	0.92
5.09413	0.917
5.1278	0.912
5.16147	0.903
5.19514	0.893
5.22881	0.876
5.26248	0.811
5.29616	0.755
5.32983	0.799
5.3635	0.843
5.39717	0.88
5.43084	0.898
5.46451	0.908
5.49819	0.91
5.53186	0.919
5.56553	0.919
5.5992	0.9
5.63287	0.885
5.66654	0.861
5.70022	0.87
5.73389	0.883
5.76756	0.888
5.80123	0.883
5.8349	0.873
5.86857	0.844
5.90225	0.807
5.93592	0.758
5.96959	0.694
6.00326	0.585
6.03693	0.441
6.07061	0.177
6.10428	0.035
6.13795	0.015
6.17162	0.045
6.20529	0.18
6.23896	0.349
6.27264	0.521
6.30631	0.543
6.33998	0.622
6.37365	0.649
6.40732	0.649
6.44099	0.615
6.47467	0.603
6.50834	0.409
6.54201	0.2
6.57568	0.059
6.60935	0.062
6.64302	0.236
6.6767	0.295
6.71037	0.335
6.74404	0.236
6.77771	0.185
6.81138	0.121
6.84505	0.146
6.87873	0.247
6.9124	0.342
6.94607	0.465
6.97974	0.44
7.01341	0.537
7.04708	0.635
7.08076	0.661
7.11443	0.666
7.1481	0.645
7.18177	0.37
7.21544	0.231
7.24911	0.227
7.28279	0.364
7.31646	0.242
7.35013	0.463
7.3838	0.649
7.41747	0.669
7.45115	0.647
7.48482	0.583
7.51849	0.527
7.55216	0.571
7.58583	0.483
7.6195	0.295
7.65318	0.222
7.68685	0.205
7.72052	0.139
7.75419	0.069
7.78786	0.062
7.82153	0.062
7.85521	0.082
7.88888	0.151
7.92255	0.276
7.95622	0.357
7.98989	0.365
8.02356	0.391
8.05724	0.365
8.09091	0.354
8.12458	0.446
8.15825	0.585
8.19192	0.627
8.22559	0.654
8.25927	0.657
8.29294	0.59
8.32661	0.477
8.36028	0.22
8.39395	0.074
8.42762	0.193
8.4613	0.499
8.49497	0.544
8.52864	0.489
8.56231	0.48
8.59598	0.596
8.62966	0.639
8.66333	0.659
8.697	0.659
8.73067	0.618
8.76434	0.5
8.79801	0.451
8.83169	0.433
8.86536	0.532
8.89903	0.595
8.9327	0.602
8.96637	0.6
9.00004	0.603
9.03372	0.59
9.06739	0.571
9.10106	0.615
9.13473	0.635
9.1684	0.649
9.20207	0.654
9.23575	0.661
9.26942	0.667
9.30309	0.672
9.33676	0.676
9.37043	0.661
9.4041	0.569
9.43778	0.522
9.47145	0.553
9.50512	0.598
9.53879	0.598
9.57246	0.617
9.60613	0.65
9.63981	0.671
9.67348	0.684
9.70715	0.693
9.74082	0.688
9.77449	0.644
9.80816	0.553
9.84184	0.431
9.87551	0.411
9.90918	0.406
9.94285	0.409
9.97652	0.519
10.0102	0.613
10.0439	0.642
10.0775	0.64
10.1112	0.669
10.1449	0.694
10.1786	0.708
10.2122	0.72
10.2459	0.725
10.2796	0.728
10.3132	0.728
10.3469	0.725
10.3806	0.721
10.4143	0.718
10.4479	0.706
10.4816	0.698
10.5153	0.694
10.5489	0.698
10.5826	0.694
10.6163	0.662
10.65	0.632
10.6836	0.622
10.7173	0.634
10.751	0.661
10.7846	0.674
10.8183	0.676
10.852	0.677
10.8857	0.661
10.9193	0.63
10.953	0.591
10.9867	0.591
11.0203	0.623
11.054	0.639
11.0877	0.644
11.1214	0.642
11.155	0.634
11.1887	0.627
11.2224	0.618
11.256	0.607
11.2897	0.6
11.3234	0.583
11.3571	0.569
11.3907	0.553
11.4244	0.543
11.4581	0.526
11.4918	0.509
11.5254	0.494
11.5591	0.467
11.5928	0.45
11.6264	0.421
11.6601	0.386
11.6938	0.354
11.7275	0.323
11.7611	0.274
11.7948	0.246
11.8285	0.214
11.8621	0.183
11.8958	0.145
11.9295	0.107
11.9632	0.062
11.9968	0.025
12.0305	0.013
12.0642	0.011
12.0978	0.01
12.1315	0.011
12.1652	0.023
12.1989	0.065
12.2325	0.109
12.2662	0.155
12.2999	0.224
12.3335	0.286
12.3672	0.349
12.4009	0.389
12.4346	0.423
12.4682	0.433
12.5019	0.435
12.5356	0.423
12.5692	0.409
12.6029	0.404
12.6366	0.404
12.6703	0.397
12.7039	0.377
12.7376	0.333
12.7713	0.284
12.8049	0.244
12.8386	0.212
12.8723	0.214
12.906	0.239
12.9396	0.259
12.9733	0.278
13.007	0.288
13.0406	0.291
13.0743	0.291
13.108	0.284
13.1417	0.276
13.1753	0.264
13.209	0.252
13.2427	0.241
13.2764	0.224
13.31	0.21
13.3437	0.205
13.3774	0.207
13.411	0.212
13.4447	0.217
13.4784	0.222
13.5121	0.232
13.5457	0.237
13.5794	0.246
13.6131	0.251
13.6467	0.266
13.6804	0.286
13.7141	0.313
13.7478	0.322
13.7814	0.32
13.8151	0.306
13.8488	0.3
13.8824	0.291
13.9161	0.278
13.9498	0.271
13.9835	0.268
14.0171	0.261
14.0508	0.256
14.0845	0.251
14.1181	0.249
14.1518	0.244
14.1855	0.239
14.2192	0.234
14.2528	0.229
14.2865	0.225
14.3202	0.227
14.3538	0.225
14.3875	0.225
14.4212	0.222
14.4549	0.22
14.4885	0.222
14.5222	0.224
14.5559	0.225
14.5895	0.229
14.6232	0.232
14.6569	0.234
14.6906	0.234
14.7242	0.234
14.7579	0.236
14.7916	0.237
14.8252	0.241
14.8589	0.241
14.8926	0.242
14.9263	0.246
14.9599	0.247
14.9936	0.249
15.0273	0.244
15.061	0.241
15.0946	0.242
15.1283	0.247
15.162	0.252
15.1956	0.256
15.2293	0.254
15.263	0.241
15.2967	0.219
15.3303	0.2
15.364	0.19
