Infrared Spectrum: Benzo[b]fluoranthene
Formula: C 20 H 12
CAS: 205-99-2
State: gas
Instrument: HP-GC/MS/IRD
Origin: NIST Mass Spectrometry Data Center
1/CM	ABSORBANCE
550	0.0001615
562	0.000104
574	4.15e-05
586	5.95e-05
598	9.25e-05
610	0.000167
622	0.0005195
634	0.000139
646	0.0001565
658	0.000141
670	8.1e-05
682	0.000127
694	0.000188
706	0.0001955
718	0.00038
730	0.002512
742	0.005
754	0.0012225
766	0.0014605
778	0.002175
790	0.000378
802	0.000256
814	0.000181
826	0.000142
838	0.000162
850	0.0002965
862	0.0002355
874	0.0002145
886	0.0007545
898	0.0003445
910	0.0001215
922	0.0001415
934	0.0001955
946	0.0002205
958	0.000145
970	0.0001315
982	0.000113
994	0.0001955
1006	0.000311
1018	0.000181
1030	0.0002785
1042	0.0002115
1054	8.95e-05
1066	4.3e-05
1078	3.75e-05
1090	2.35e-05
1102	0.0001135
1114	6.7e-05
1126	4.25e-05
1138	0.000242
1150	0.000378
1162	0.000158
1174	9.3e-05
1186	0.0001015
1198	0.0001265
1210	0.0001285
1222	0.000194
1234	0.000233
1246	0.0001525
1258	9.95e-05
1270	0.000145
1282	0.0001065
1294	0.000131
1306	0.0001195
1318	0.0001095
1330	0.000126
1342	0.000138
1354	0.0002235
1366	0.0005355
1378	0.000482
1390	0.000224
1402	0.0001675
1414	0.0004085
1426	0.0005655
1438	0.0012895
1450	0.001119
1462	0.000933
1474	0.00043
1486	0.0003505
1498	0.0001905
1510	0.000202
1522	0.0004585
1534	0.0004525
1546	0.00016
1558	0.000123
1570	0.000154
1582	0.000267
1594	0.000736
1606	0.000619
1618	0.000196
1630	0.000159
1642	0.0001485
1654	9e-05
1666	0.0001205
1678	0.000154
1690	0.00017
1702	0.000144
1714	0.000149
1726	0.000154
1738	0.0001455
1750	0.00011
1762	0.000128
1774	0.0002045
1786	0.0002605
1798	0.0001985
1810	0.0001145
1822	0.0001755
1834	0.0001395
1846	0.0001265
1858	0.000179
1870	0.0001375
1882	0.000138
1894	0.000201
1906	0.0002045
1918	0.000244
1930	0.000245
1942	0.0002685
1954	8.8e-05
1966	7.75e-05
1978	5.65e-05
1990	3.75e-05
2002	5.45e-05
2014	5.8e-05
2026	4.5e-05
2038	4.9e-05
2050	5e-05
2062	5.25e-05
2074	3.8e-05
2086	5.65e-05
2098	4.75e-05
2110	5.25e-05
2122	6.4e-05
2134	5.25e-05
2146	5.4e-05
2158	6.1e-05
2170	4.1e-05
2182	5.7e-05
2194	4.75e-05
2206	4.95e-05
2218	6.3e-05
2230	5.6e-05
2242	5.95e-05
2254	5.4e-05
2266	4.7e-05
2278	5.7e-05
2290	6.3e-05
2302	6.75e-05
2314	7.1e-05
2326	4.35e-05
2338	2.9e-05
2350	3.95e-05
2362	2.2e-05
2374	5.65e-05
2386	4.05e-05
2398	5.45e-05
2410	4.7e-05
2422	4.05e-05
2434	6.05e-05
2446	4.4e-05
2458	6.2e-05
2470	5.35e-05
2482	5.6e-05
2494	3.4e-05
2506	3.8e-05
2518	3.35e-05
2530	4.1e-05
2542	4.85e-05
2554	5.1e-05
2566	5.65e-05
2578	5.1e-05
2590	6.25e-05
2602	5.7e-05
2614	6.3e-05
2626	4.65e-05
2638	3.05e-05
2650	5.1e-05
2662	4.75e-05
2674	3.5e-05
2686	1.8e-05
2698	2.7e-05
2710	1.15e-05
2722	3.95e-05
2734	4.75e-05
2746	4.1e-05
2758	5.2e-05
2770	4.05e-05
2782	2.95e-05
2794	3.75e-05
2806	2.35e-05
2818	4.05e-05
2830	1.05e-05
2842	4.95e-05
2854	4.9e-05
2866	7.1e-05
2878	6.5e-05
2890	8.6e-05
2902	8.7e-05
2914	9.05e-05
2926	7.85e-05
2938	9.2e-05
2950	8.65e-05
2962	0.0001245
2974	0.000143
2986	0.0001755
2998	0.00023
3010	0.000453
3022	0.0007595
3034	0.001078
3046	0.001293
3058	0.002042
3070	0.003114
3082	0.0022995
3094	0.0007305
3106	0.0002115
3118	0.000128
3130	0.0001315
3142	0.0001055
3154	8.85e-05
3166	6.45e-05
3178	1.9e-05
3190	7.7e-05
3202	7.4e-05
3214	7.45e-05
3226	5.15e-05
3238	5.05e-05
3250	3.75e-05
3262	6.75e-05
3274	2.55e-05
3286	6.05e-05
3298	2.55e-05
3310	5e-05
3322	6.55e-05
3334	3.45e-05
3346	3.65e-05
3358	3.3e-05
3370	3.6e-05
3382	2.75e-05
3394	3.45e-05
3406	2.7e-05
3418	3.45e-05
3430	6.45e-05
3442	2.3e-05
3454	2.55e-05
3466	2.2e-05
3478	4.95e-05
3490	3.05e-05
3502	4.8e-05
3514	5.05e-05
3526	6.7e-05
3538	3.45e-05
3550	1.4e-05
3562	2.1e-05
3574	5.3e-05
3586	4.05e-05
3598	3.2e-05
3610	5.45e-05
3622	3.1e-05
3634	3.85e-05
3646	3.3e-05
3658	6.55e-05
3670	5.5e-06
3682	4e-05
3694	5.5e-05
3706	3.35e-05
3718	3.4e-05
3730	3.8e-05
3742	1.75e-05
3754	5.35e-05
3766	2.95e-05
3778	1.85e-05
3790	6.1e-05
3802	4.2e-05
3814	1.9e-05
3826	5.2e-05
3838	7e-05
