Infrared Spectrum: BENZO(j)FLUORANTHENE
Formula: C20 H12
CAS: 205-82-3
State: SOLID (KBr DISC)
Melting point: 217 C
Class: COBLENTZ
Instrument: Not specified, most likely a prism, grating, or hybrid spectrometer.
Sampling: TRANSMISSION
Resolution: 4
Origin: UNION CARBIDE CORPORATION (CARBON PRODUCTS DIVISION)
MICROMETERS	TRANSMITTANCE
2.033	0.09
2.06625	0.09
2.09949	0.092
2.13274	0.092
2.16599	0.093
2.19924	0.093
2.23248	0.096
2.26573	0.1
2.29898	0.1
2.33223	0.102
2.36547	0.102
2.39872	0.105
2.43197	0.102
2.46522	0.106
2.49846	0.104
2.53171	0.106
2.56496	0.102
2.59821	0.105
2.63145	0.106
2.6647	0.106
2.69795	0.108
2.7312	0.109
2.76444	0.109
2.79769	0.112
2.83094	0.112
2.86419	0.113
2.89743	0.114
2.93068	0.118
2.96393	0.12
2.99718	0.122
3.03042	0.124
3.06367	0.126
3.09692	0.13
3.13017	0.132
3.16341	0.133
3.19666	0.133
3.22991	0.134
3.26316	0.132
3.2964	0.132
3.32965	0.132
3.3629	0.136
3.39615	0.138
3.42939	0.141
3.46264	0.144
3.49589	0.149
3.52914	0.153
3.56238	0.158
3.59563	0.16
3.62888	0.161
3.66213	0.164
3.69537	0.168
3.72862	0.169
3.76187	0.169
3.79511	0.173
3.82836	0.184
3.86161	0.186
3.89486	0.189
3.9281	0.192
3.96135	0.193
3.9946	0.198
4.02785	0.2
4.06109	0.201
4.09434	0.208
4.12759	0.213
4.16084	0.214
4.19408	0.214
4.22733	0.214
4.26058	0.214
4.29383	0.214
4.32707	0.218
4.36032	0.23
4.39357	0.241
4.42682	0.249
4.46006	0.251
4.49331	0.256
4.52656	0.256
4.55981	0.261
4.59305	0.264
4.6263	0.271
4.65955	0.275
4.6928	0.275
4.72604	0.277
4.75929	0.281
4.79254	0.281
4.82579	0.283
4.85903	0.285
4.89228	0.288
4.92553	0.295
4.95878	0.299
4.99202	0.301
5.02527	0.303
5.05852	0.311
5.09177	0.316
5.12501	0.317
5.15826	0.311
5.19151	0.309
5.22476	0.316
5.258	0.319
5.29125	0.325
5.3245	0.324
5.35775	0.325
5.39099	0.331
5.42424	0.337
5.45749	0.336
5.49073	0.331
5.52398	0.328
5.55723	0.34
5.59048	0.339
5.62372	0.343
5.65697	0.351
5.69022	0.355
5.72347	0.353
5.75671	0.355
5.78996	0.356
5.82321	0.355
5.85646	0.363
5.8897	0.363
5.92295	0.364
5.9562	0.371
5.98945	0.377
6.02269	0.381
6.05594	0.383
6.08919	0.384
6.12244	0.387
6.15568	0.387
6.18893	0.373
6.22218	0.384
6.25543	0.405
6.28867	0.407
6.32192	0.408
6.35517	0.415
6.38842	0.416
6.42166	0.423
6.45491	0.421
6.48816	0.427
6.52141	0.432
6.55465	0.437
6.5879	0.451
6.62115	0.417
6.6544	0.433
6.68764	0.313
6.72089	0.303
6.75414	0.365
6.78739	0.403
6.82063	0.428
6.85388	0.461
6.88713	0.328
6.92038	0.384
6.95362	0.403
6.98687	0.341
7.02012	0.361
7.05337	0.393
7.08661	0.393
7.11986	0.395
7.15311	0.436
7.18635	0.471
7.2196	0.465
7.25285	0.463
7.2861	0.444
7.31934	0.453
7.35259	0.463
7.38584	0.468
7.41909	0.472
7.45233	0.432
7.48558	0.436
7.51883	0.456
7.55208	0.468
7.58532	0.475
7.61857	0.483
7.65182	0.487
7.68507	0.489
7.71831	0.496
7.75156	0.506
7.78481	0.511
7.81806	0.52
7.8513	0.424
7.88455	0.451
7.9178	0.477
7.95105	0.485
7.98429	0.487
8.01754	0.502
8.05079	0.51
8.08404	0.504
8.11728	0.491
8.15053	0.504
8.18378	0.523
8.21703	0.528
8.25027	0.384
8.28352	0.447
8.31677	0.493
8.35002	0.508
8.38326	0.425
8.41651	0.443
8.44976	0.477
8.48301	0.485
8.51625	0.497
8.5495	0.52
8.58275	0.524
8.616	0.532
8.64924	0.531
8.68249	0.522
8.71574	0.492
8.74899	0.522
8.78223	0.531
8.81548	0.54
8.84873	0.542
8.88198	0.55
8.91522	0.558
8.94847	0.562
8.98172	0.571
9.01496	0.574
9.04821	0.575
9.08146	0.568
9.11471	0.532
9.14795	0.542
9.1812	0.56
9.21445	0.564
9.2477	0.567
9.28094	0.568
9.31419	0.575
9.34744	0.583
9.38069	0.584
9.41393	0.596
9.44718	0.602
9.48043	0.602
9.51368	0.604
9.54692	0.611
9.58017	0.614
9.61342	0.614
9.64667	0.619
9.67991	0.631
9.71316	0.636
9.74641	0.607
9.77966	0.578
9.8129	0.612
9.84615	0.618
9.8794	0.622
9.91265	0.623
9.94589	0.619
9.97914	0.619
10.0124	0.626
10.0456	0.632
10.0789	0.643
10.1121	0.646
10.1454	0.647
10.1786	0.651
10.2119	0.655
10.2451	0.647
10.2784	0.571
10.3116	0.603
10.3449	0.62
10.3781	0.647
10.4114	0.658
10.4446	0.606
10.4779	0.368
10.5111	0.497
10.5443	0.602
10.5776	0.635
10.6108	0.578
10.6441	0.634
10.6773	0.663
10.7106	0.68
10.7438	0.692
10.7771	0.696
10.8103	0.707
10.8436	0.714
10.8768	0.72
10.9101	0.724
10.9433	0.692
10.9766	0.655
11.0098	0.683
11.0431	0.688
11.0763	0.716
11.1096	0.732
11.1428	0.731
11.176	0.706
11.2093	0.416
11.2425	0.082
11.2758	0.121
11.309	0.311
11.3423	0.467
11.3755	0.556
11.4088	0.602
11.442	0.604
11.4753	0.606
11.5085	0.648
11.5418	0.663
11.575	0.68
11.6083	0.702
11.6415	0.706
11.6748	0.714
11.708	0.72
11.7413	0.72
11.7745	0.736
11.8078	0.747
11.841	0.755
11.8742	0.767
11.9075	0.774
11.9407	0.787
11.974	0.797
12.0072	0.801
12.0405	0.786
12.0737	0.68
12.107	0.36
12.1402	0.045
12.1735	0.05
12.2067	0.201
12.24	0.323
12.2732	0.472
12.3065	0.554
12.3397	0.6
12.373	0.626
12.4062	0.663
12.4395	0.682
12.4727	0.702
12.5059	0.72
12.5392	0.742
12.5724	0.75
12.6057	0.759
12.6389	0.763
12.6722	0.769
12.7054	0.753
12.7387	0.679
12.7719	0.523
12.8052	0.368
12.8384	0.242
12.8717	0.122
12.9049	0.132
12.9382	0.256
12.9714	0.431
13.0047	0.528
13.0379	0.567
13.0712	0.55
13.1044	0.572
13.1376	0.612
13.1709	0.631
13.2041	0.66
13.2374	0.66
13.2706	0.54
13.3039	0.309
13.3371	0.173
13.3704	0.125
13.4036	0.049
13.4369	0.04
13.4701	0.08
13.5034	0.188
13.5366	0.271
13.5699	0.321
13.6031	0.381
13.6364	0.412
13.6696	0.447
13.7029	0.471
13.7361	0.489
13.7694	0.5
13.8026	0.515
13.8358	0.523
13.8691	0.528
13.9023	0.54
13.9356	0.547
13.9688	0.558
14.0021	0.563
14.0353	0.572
14.0686	0.579
14.1018	0.584
14.1351	0.59
14.1683	0.599
14.2016	0.6
14.2348	0.604
14.2681	0.61
14.3013	0.61
14.3346	0.608
14.3678	0.61
14.4011	0.61
14.4343	0.61
14.4675	0.608
14.5008	0.607
14.534	0.607
14.5673	0.606
14.6005	0.592
14.6338	0.543
14.667	0.53
14.7003	0.551
14.7335	0.563
14.7668	0.572
14.8	0.578
14.8333	0.578
14.8665	0.579
14.8998	0.575
14.933	0.56
14.9663	0.483
14.9995	0.503
15.0328	0.562
15.066	0.571
