Infrared Spectrum: Di-(4-bromophenyl) ether
Formula: C 12 H 8 Br 2 O
CAS: 2050-47-7
State: gas
Instrument: HP-GC/MS/IRD
Origin: NIST Mass Spectrometry Data Center
1/CM	ABSORBANCE
550	0.0012711
562	8.92e-05
574	0.0001784
586	0.0004683
598	0.0006913
610	0.0017171
622	0.0065339
634	0.0085632
646	0.0106148
658	0.0020739
670	0.0005575
682	0.0004014
694	0.0006913
706	0.0008474
718	0.0006244
730	0.0006244
742	0.0006467
754	0.0007359
766	0.0019178
778	0.0039917
790	0.0037687
802	0.0064224
814	0.0195571
826	0.0235042
838	0.0158553
850	0.0155431
862	0.0105033
874	0.0070245
886	0.0016056
898	0.0007582
910	0.0003568
922	0.0002676
934	0.000223
946	0.0002453
958	0.0001784
970	0.0004237
982	0.0009589
994	0.0038802
1006	0.0368842
1018	0.0112615
1030	0.00223
1042	0.0029213
1054	0.0099235
1066	0.0381107
1078	0.0319113
1090	0.010258
1102	0.0069799
1114	0.0049283
1126	0.003345
1138	0.0029213
1150	0.0044823
1162	0.0188881
1174	0.0088977
1186	0.0088754
1198	0.0145396
1210	0.0257119
1222	0.061994
1234	0.160738
1246	0.151462
1258	0.0638895
1270	0.0430167
1282	0.0249537
1294	0.0161452
1306	0.0092322
1318	0.0048168
1330	0.0030105
1342	0.0024307
1354	0.0024753
1366	0.0025199
1378	0.0022746
1390	0.0031443
1402	0.0039694
1414	0.0051513
1426	0.012488
1438	0.0072029
1450	0.0076043
1462	0.0205606
1474	0.120442
1486	0.183105
1498	0.0428606
1510	0.0134915
1522	0.0059987
1534	0.0032112
1546	0.003122
1558	0.0059095
1570	0.0176839
1582	0.0236826
1594	0.0068015
1606	0.0031889
1618	0.0028544
1630	0.0028321
1642	0.0027652
1654	0.0025422
1666	0.0018509
1678	0.0011596
1690	0.000892
1702	0.0008251
1714	0.0011819
1726	0.0012711
1738	0.0015387
1750	0.0021408
1762	0.0012265
1774	0.0006467
1786	0.0005129
1798	0.0004014
1810	0.0004014
1822	0.0004906
1834	0.0007359
1846	0.0010927
1858	0.0017171
1870	0.0029659
1882	0.0034565
1894	0.0018732
1906	0.0007805
1918	0.0004683
1930	0.000446
1942	0.0006244
1954	0.0003345
1966	0.0003345
1978	0.0004906
1990	0.0006913
2002	0.0012711
2014	0.0020962
2026	0.0019847
2038	0.0011596
2050	0.0009812
2062	0.0012711
2074	0.0009812
2086	0.0009143
2098	0.0005575
2110	0.0003345
2122	0.0002453
2134	0.0001784
2146	0.0001561
2158	0.0001115
2170	0.0001338
2182	6.69e-05
2194	0.0001338
2206	0.0001784
2218	6.69e-05
2230	0.0002007
2242	0.0002899
2254	0.0007136
2266	0.0006467
2278	0.0004014
2290	0.0002676
2302	0.0002676
2314	0.0002007
2326	0.0004683
2338	0.000446
2350	0.0007359
2362	0.0007805
2374	0.0006467
2386	0.0009366
2398	0.0014941
2410	0.0014495
2422	0.0016948
2434	0.0018509
2446	0.0012711
2458	0.0009366
2470	0.0007136
2482	0.0005575
2494	0.0004906
2506	0.0003122
2518	0.0002899
2530	0.0002899
2542	0.0003568
2554	0.0004237
2566	0.0002899
2578	0.0002007
2590	0.0001561
2602	8.92e-05
2614	4.46e-05
2626	6.69e-05
2638	0.0002007
2650	0.0003345
2662	0.0001338
2674	0.0002007
2686	0.0002007
2698	0.0001784
2710	0.0001338
2722	0.0001338
2734	0.0001115
2746	8.92e-05
2758	4.46e-05
2770	0.0001561
2782	0.000223
2794	0.0002676
2806	0.000446
2818	0.0007136
2830	0.0008251
2842	0.0006021
2854	0.0003568
2866	0.0002899
2878	0.000223
2890	0.0001115
2902	8.92e-05
2914	4.46e-05
2926	0
2938	2.23e-05
2950	4.46e-05
2962	0.0001561
2974	0.0002007
2986	0.0001784
2998	0.0002007
3010	0.0003122
3022	0.0006913
3034	0.0021408
3046	0.002007
3058	0.001561
3070	0.0022969
3082	0.0027652
3094	0.0035234
3106	0.0016056
3118	0.0003345
3130	0.0001561
3142	6.69e-05
3154	0.0001561
3166	0.0001115
3178	0.0001784
3190	0.0001115
3202	4.46e-05
3214	8.92e-05
3226	8.92e-05
3238	4.46e-05
3250	0.0001561
3262	0.0001561
3274	6.69e-05
3286	0.0001561
3298	6.69e-05
3310	0.0001115
3322	0.0001561
3334	0.0001115
3346	0.0002007
3358	0.0001115
3370	0.0001338
3382	8.92e-05
3394	0.0002007
3406	0.0001338
3418	0.0002007
3430	0.0001338
3442	0.0002007
3454	0.0002453
3466	0.000223
3478	0.0002007
3490	0.0002453
3502	0.000223
3514	0.0002676
3526	0.0001561
3538	0.0002007
3550	0.0002007
3562	0.0002676
3574	0.0002899
3586	0.0002453
3598	0.0001784
3610	0.0002453
3622	0.0002899
3634	0.0002899
3646	0.0003345
3658	0.0004014
3670	0.0003345
3682	0.0003568
3694	0.0003568
3706	0.0004683
3718	0.0004683
3730	0.0003345
3742	0.0003568
3754	0.0003568
3766	0.0003345
3778	0.0003122
3790	0.0002453
3802	0.0003568
3814	0.0002899
3826	0.0002676
3838	0.0003345
