Infrared Spectrum: 1,3-Diethyl-5-methylbenzene
Formula: C 11 H 16
CAS: 2050-24-0
State: gas
Instrument: HP-GC/MS/IRD
Origin: NIST Mass Spectrometry Data Center
1/CM	ABSORBANCE
550	7.4e-05
562	0.0001073
574	0.0001591
586	2.22e-05
598	0.0001406
610	0.000185
622	0.0001628
634	0.0001073
646	0.0002109
658	0.0002775
670	0.0004107
682	0.0012876
694	0.0042032
706	0.0044363
718	0.0014356
730	0.0005069
742	0.0004551
754	0.0004033
766	0.0003663
778	0.0003996
790	0.0004218
802	0.0005624
814	0.0006327
826	0.0008843
838	0.002553
850	0.007659
862	0.0059311
874	0.0032671
886	0.0023347
898	0.0012025
910	0.0015244
922	0.0012432
934	0.0004514
946	0.0003441
958	0.0004144
970	0.0004366
982	0.0004699
994	0.0004366
1006	0.0005106
1018	0.0006068
1030	0.0007622
1042	0.0010027
1054	0.0014541
1066	0.0018315
1078	0.0012691
1090	0.0007363
1102	0.0005254
1114	0.000444
1126	0.0003145
1138	0.0002923
1150	0.0003293
1162	0.0004366
1174	0.0003478
1186	0.0002479
1198	0.0002368
1210	0.000222
1222	0.0003256
1234	0.0003626
1246	0.0005402
1258	0.0006327
1270	0.0006808
1282	0.0007363
1294	0.0010508
1306	0.0018315
1318	0.0026603
1330	0.0022755
1342	0.0014874
1354	0.0012173
1366	0.0014985
1378	0.0024087
1390	0.0021793
1402	0.0017686
1414	0.0019684
1426	0.002405
1438	0.003996
1450	0.006808
1462	0.0080586
1474	0.0056536
1486	0.0037333
1498	0.0029119
1510	0.0022607
1522	0.0018241
1534	0.0017464
1546	0.001554
1558	0.0015355
1570	0.0022977
1582	0.0043512
1594	0.0101454
1606	0.0140896
1618	0.0045917
1630	0.0014319
1642	0.0006956
1654	0.0004699
1666	0.0003959
1678	0.0003145
1690	0.0002886
1702	0.0003589
1714	0.0004329
1726	0.0007992
1738	0.0010027
1750	0.0008177
1762	0.0010175
1774	0.0005957
1786	0.0001406
1798	6.29e-05
1810	9.25e-05
1822	7.03e-05
1834	8.14e-05
1846	8.88e-05
1858	9.62e-05
1870	0.0001036
1882	7.77e-05
1894	0.0001184
1906	0.0001517
1918	0.0001406
1930	0.000111
1942	7.77e-05
1954	7.03e-05
1966	5.18e-05
1978	2.22e-05
1990	1.85e-05
2002	2.96e-05
2014	7.03e-05
2026	9.62e-05
2038	7.77e-05
2050	6.66e-05
2062	3.7e-05
2074	3.33e-05
2086	3.7e-05
2098	0
2110	2.59e-05
2122	1.11e-05
2134	6.66e-05
2146	7.03e-05
2158	6.29e-05
2170	3.33e-05
2182	2.22e-05
2194	1.85e-05
2206	4.07e-05
2218	3.7e-05
2230	7.03e-05
2242	4.81e-05
2254	7.03e-05
2266	5.18e-05
2278	4.81e-05
2290	0.000111
2302	0.0001147
2314	6.66e-05
2326	7.03e-05
2338	9.62e-05
2350	9.99e-05
2362	0.0001147
2374	0.0001147
2386	0.0001221
2398	9.99e-05
2410	0.0001369
2422	0.0001517
2434	0.0001813
2446	0.0001924
2458	0.0001813
2470	0.0001406
2482	0.000111
2494	0.0001258
2506	0.0001221
2518	0.0001332
2530	0.0001554
2542	0.0001258
2554	0.0001147
2566	9.62e-05
2578	0.0001295
2590	0.0001517
2602	0.0001924
2614	0.000185
2626	0.0002516
2638	0.0002664
2650	0.0002516
2662	0.0002553
2674	0.000259
2686	0.0002923
2698	0.0003145
2710	0.0004218
2722	0.0005809
2734	0.0008769
2746	0.0009435
2758	0.0008103
2770	0.0008658
2782	0.0010027
2794	0.0011618
2806	0.0013431
2818	0.0017649
2830	0.0026381
2842	0.0038702
2854	0.0063751
2866	0.0110815
2878	0.0151552
2890	0.0159618
2902	0.0150886
2914	0.0161394
2926	0.0216857
2938	0.0283383
2950	0.0236171
2962	0.0263662
2974	0.037
2986	0.0180005
2998	0.0112628
3010	0.0136345
3022	0.0157028
3034	0.0097939
3046	0.0054538
3058	0.0037481
3070	0.0024457
3082	0.0017279
3094	0.0013949
3106	0.0011655
3118	0.0009879
3130	0.0008806
3142	0.000851
3154	0.0008436
3166	0.0007289
3178	0.0005661
3190	0.0004551
3202	0.0003737
3214	0.0003441
3226	0.0002923
3238	0.0002553
3250	0.0002183
3262	0.0002109
3274	0.0002035
3286	0.0002331
3298	0.0001924
3310	0.0001739
3322	0.0001628
3334	0.0001369
3346	0.0001073
3358	0.0001184
3370	0.0001036
3382	0.0001591
3394	0.0001406
3406	0.0001147
3418	0.000111
3430	0.0001295
3442	6.66e-05
3454	7.03e-05
3466	8.88e-05
3478	9.25e-05
3490	8.51e-05
3502	7.77e-05
3514	7.77e-05
3526	8.14e-05
3538	7.03e-05
3550	8.88e-05
3562	9.62e-05
3574	0.0001295
3586	0.0001258
3598	7.77e-05
3610	7.03e-05
3622	8.51e-05
3634	7.03e-05
3646	9.25e-05
3658	9.25e-05
3670	9.62e-05
3682	0.0001184
3694	0.0001147
3706	0.0001258
3718	0.0001221
3730	0.0001221
3742	0.0001332
3754	0.0001406
3766	0.0001332
3778	0.000111
3790	0.0001517
3802	0.0001147
3814	0.0001739
3826	0.0001406
3838	0.0001406
