Infrared Spectrum: DI-N-AMYL CARBONATE
Formula: C11 H22 O3
CAS: 2050-94-4
State: LIQUID
Boiling point: 130-132 C AT 20 mmHg
Class: COBLENTZ
Instrument: Not specified, most likely a prism, grating, or hybrid spectrometer.
Sampling: TRANSMISSION
Path length: 0.003 CM
Resolution: 4
Origin: WYANDOTTE CHEMICALS CORP., WYANDOTTE, MICHIGAN, USA
MICROMETERS	TRANSMITTANCE
2.021	0.985
2.05943	0.99
2.09787	0.99
2.1363	0.988
2.17473	0.967
2.21317	0.933
2.2516	0.927
2.29003	0.933
2.32846	0.93
2.3669	0.946
2.40533	0.943
2.44376	0.953
2.4822	0.959
2.52063	0.966
2.55906	0.972
2.5975	0.972
2.63593	0.977
2.67436	0.98
2.71279	0.977
2.75123	0.98
2.78966	0.975
2.82809	0.978
2.86653	0.978
2.90496	0.951
2.94339	0.97
2.98183	0.974
3.02026	0.977
3.05869	0.978
3.09712	0.967
3.13556	0.954
3.17399	0.948
3.21242	0.927
3.25086	0.907
3.28929	0.817
3.32772	0.4
3.36616	0.003
3.40459	0.033
3.44302	0.092
3.48145	0.098
3.51989	0.336
3.55832	0.76
3.59675	0.849
3.63519	0.867
3.67362	0.873
3.71205	0.898
3.75049	0.901
3.78892	0.922
3.82735	0.936
3.86578	0.943
3.90422	0.951
3.94265	0.954
3.98108	0.948
4.01952	0.948
4.05795	0.953
4.09638	0.951
4.13482	0.949
4.17325	0.951
4.21168	0.946
4.25011	0.943
4.28855	0.948
4.32698	0.949
4.36541	0.954
4.40385	0.954
4.44228	0.951
4.48071	0.951
4.51915	0.949
4.55758	0.943
4.59601	0.935
4.63444	0.936
4.67288	0.948
4.71131	0.951
4.74974	0.961
4.78818	0.966
4.82661	0.962
4.86504	0.962
4.90348	0.964
4.94191	0.962
4.98034	0.97
5.01877	0.97
5.05721	0.948
5.09564	0.953
5.13407	0.954
5.17251	0.953
5.21094	0.962
5.24937	0.967
5.28781	0.957
5.32624	0.951
5.36467	0.949
5.40311	0.924
5.44154	0.903
5.47997	0.873
5.5184	0.82
5.55684	0.783
5.59527	0.717
5.6337	0.56
5.67214	0.177
5.71057	0.027
5.749	0.056
5.78744	0.355
5.82587	0.57
5.8643	0.599
5.90273	0.728
5.94117	0.783
5.9796	0.814
6.01803	0.854
6.05647	0.861
6.0949	0.875
6.13333	0.882
6.17177	0.877
6.2102	0.843
6.24863	0.815
6.28706	0.859
6.3255	0.885
6.36393	0.898
6.40236	0.89
6.4408	0.877
6.47923	0.867
6.51766	0.859
6.5561	0.833
6.59453	0.809
6.63296	0.765
6.67139	0.655
6.70983	0.403
6.74826	0.2
6.78669	0.087
6.82513	0.148
6.86356	0.292
6.90199	0.442
6.94043	0.495
6.97886	0.597
7.01729	0.528
7.05572	0.289
7.09416	0.084
7.13259	0.148
7.17102	0.337
7.20946	0.222
7.24789	0.302
7.28632	0.415
7.32476	0.453
7.36319	0.502
7.40162	0.478
7.44005	0.492
7.47849	0.365
7.51692	0.221
7.55535	0.198
7.59379	0.182
7.63222	0.122
7.67065	0.061
7.70909	0.038
7.74752	0.027
7.78595	0.024
7.82438	0.022
7.86282	0.025
7.90125	0.024
7.93968	0.022
7.97812	0.024
8.01655	0.022
8.05498	0.029
8.09342	0.033
8.13185	0.103
8.17028	0.163
8.20871	0.245
8.24715	0.35
8.28558	0.486
8.32401	0.584
8.36245	0.642
8.40088	0.678
8.43931	0.701
8.47775	0.673
8.51618	0.625
8.55461	0.66
8.59305	0.672
8.63148	0.68
8.66991	0.71
8.70834	0.747
8.74678	0.754
8.78521	0.735
8.82364	0.709
8.86208	0.651
8.90051	0.644
8.93894	0.652
8.97738	0.665
9.01581	0.691
9.05424	0.697
9.09267	0.663
9.13111	0.652
9.16954	0.651
9.20797	0.592
9.24641	0.489
9.28484	0.431
9.32327	0.447
9.36171	0.504
9.40014	0.521
9.43857	0.453
9.477	0.366
9.51544	0.258
9.55387	0.234
9.5923	0.273
9.63074	0.334
9.66917	0.397
9.7076	0.434
9.74604	0.436
9.78447	0.423
9.8229	0.466
9.86133	0.529
9.89977	0.568
9.9382	0.583
9.97663	0.573
10.0151	0.547
10.0535	0.526
10.0919	0.492
10.1304	0.426
10.1688	0.36
10.2072	0.276
10.2457	0.19
10.2841	0.127
10.3225	0.08
10.361	0.056
10.3994	0.053
10.4378	0.072
10.4763	0.113
10.5147	0.177
10.5531	0.239
10.5916	0.295
10.63	0.371
10.6684	0.436
10.7069	0.505
10.7453	0.568
10.7837	0.623
10.8222	0.654
10.8606	0.68
10.899	0.689
10.9375	0.699
10.9759	0.714
11.0143	0.72
11.0528	0.722
11.0912	0.718
11.1296	0.697
11.1681	0.651
11.2065	0.605
11.2449	0.544
11.2834	0.523
11.3218	0.502
11.3602	0.504
11.3987	0.504
11.4371	0.51
11.4755	0.56
11.514	0.651
11.5524	0.712
11.5908	0.754
11.6293	0.777
11.6677	0.788
11.7061	0.802
11.7446	0.798
11.783	0.801
11.8214	0.796
11.8599	0.801
11.8983	0.806
11.9367	0.804
11.9752	0.812
12.0136	0.815
12.052	0.827
12.0904	0.836
12.1289	0.856
12.1673	0.861
12.2057	0.856
12.2442	0.856
12.2826	0.844
12.321	0.823
12.3595	0.802
12.3979	0.76
12.4363	0.704
12.4748	0.599
12.5132	0.431
12.5516	0.271
12.5901	0.161
12.6285	0.192
12.6669	0.316
12.7054	0.431
12.7438	0.533
12.7822	0.602
12.8207	0.659
12.8591	0.701
12.8975	0.743
12.936	0.765
12.9744	0.791
13.0128	0.823
13.0513	0.841
13.0897	0.861
13.1281	0.873
13.1666	0.875
13.205	0.88
13.2434	0.877
13.2819	0.87
13.3203	0.856
13.3587	0.84
13.3972	0.819
13.4356	0.799
13.474	0.788
13.5125	0.786
13.5509	0.773
13.5893	0.749
13.6278	0.723
13.6662	0.704
13.7046	0.702
13.7431	0.736
13.7815	0.786
13.8199	0.825
13.8584	0.848
13.8968	0.867
13.9352	0.885
13.9737	0.891
14.0121	0.903
14.0505	0.906
14.089	0.906
14.1274	0.907
14.1658	0.912
14.2043	0.914
14.2427	0.922
14.2811	0.93
14.3196	0.935
14.358	0.94
14.3964	0.941
14.4349	0.941
14.4733	0.943
14.5117	0.946
14.5502	0.946
14.5886	0.945
14.627	0.945
14.6655	0.943
14.7039	0.943
14.7423	0.94
14.7808	0.941
14.8192	0.943
14.8576	0.94
14.8961	0.936
14.9345	0.936
14.9729	0.92
15.0114	0.907
15.0498	0.901
15.0882	0.911
15.1267	0.925
15.1651	0.925
15.2035	0.92
15.242	0.911
15.2804	0.906
15.3188	0.904
15.3573	0.899
15.3957	0.89
15.4341	0.893
15.4726	0.885
15.511	0.883
15.5494	0.87
15.5879	0.873
15.6263	0.867
15.6647	0.864
15.7032	0.861
15.7416	0.856
15.78	0.846
15.8185	0.838
15.8569	0.831
15.8953	0.831
15.9338	0.827
15.9722	0.823
