Infrared Spectrum: DICHLORO NAPHTHALENE
Formula: C10 H6 Cl2
CAS: 2050-69-3
State: SOLID
Class: COBLENTZ
Instrument: Not specified, most likely a prism, grating, or hybrid spectrometer.
Sampling: TRANSMISSION
Resolution: 4
Origin: WYANDOTTE CHEMICALS CORP., WYANDOTTE, MICHIGAN, USA
MICROMETERS	TRANSMITTANCE
2.013	0.428
2.05171	0.428
2.09042	0.428
2.12913	0.429
2.16783	0.429
2.20654	0.434
2.24525	0.432
2.28396	0.436
2.32267	0.437
2.36138	0.421
2.40008	0.436
2.43879	0.444
2.4775	0.445
2.51621	0.447
2.55492	0.458
2.59363	0.46
2.63234	0.474
2.67104	0.481
2.70975	0.481
2.74846	0.481
2.78717	0.481
2.82588	0.476
2.86459	0.476
2.90329	0.483
2.942	0.481
2.98071	0.484
3.01942	0.487
3.05813	0.486
3.09684	0.483
3.13555	0.476
3.17425	0.453
3.21296	0.36
3.25167	0.318
3.29038	0.458
3.32909	0.478
3.3678	0.487
3.4065	0.505
3.44521	0.507
3.48392	0.515
3.52263	0.52
3.56134	0.518
3.60005	0.521
3.63876	0.523
3.67746	0.529
3.71617	0.539
3.75488	0.549
3.79359	0.537
3.8323	0.549
3.87101	0.547
3.90971	0.546
3.94842	0.56
3.98713	0.557
4.02584	0.56
4.06455	0.562
4.10326	0.565
4.14196	0.568
4.18067	0.555
4.21938	0.55
4.25809	0.55
4.2968	0.568
4.33551	0.586
4.37422	0.586
4.41292	0.584
4.45163	0.586
4.49034	0.588
4.52905	0.597
4.56776	0.6
4.60647	0.597
4.64517	0.61
4.68388	0.615
4.72259	0.617
4.7613	0.617
4.80001	0.621
4.83872	0.625
4.87743	0.623
4.91613	0.621
4.95484	0.63
4.99355	0.633
5.03226	0.633
5.07097	0.634
5.10968	0.584
5.14838	0.563
5.18709	0.563
5.2258	0.584
5.26451	0.565
5.30322	0.631
5.34193	0.618
5.38064	0.597
5.41934	0.397
5.45805	0.47
5.49676	0.599
5.53547	0.552
5.57418	0.599
5.61289	0.613
5.65159	0.63
5.6903	0.623
5.72901	0.586
5.76772	0.579
5.80643	0.541
5.84514	0.563
5.88385	0.615
5.92255	0.626
5.96126	0.636
5.99997	0.6
6.03868	0.453
6.07739	0.502
6.1161	0.426
6.1548	0.55
6.19351	0.369
6.23222	0.082
6.27093	0.18
6.30964	0.432
6.34835	0.399
6.38706	0.579
6.42576	0.6
6.46447	0.633
6.50318	0.615
6.54189	0.612
6.5806	0.523
6.61931	0.159
6.65801	0.374
6.69672	0.591
6.73543	0.621
6.77414	0.62
6.81285	0.508
6.85156	0.494
6.89027	0.596
6.92897	0.51
6.96768	0.505
7.00639	0.41
7.0451	0.415
7.08381	0.579
7.12252	0.51
7.16122	0.305
7.19993	0.197
7.23864	0.193
7.27735	0.017
7.31606	0.287
7.35477	0.384
7.39347	0.531
7.43218	0.474
7.47089	0.466
7.5096	0.516
7.54831	0.576
7.58702	0.6
7.62573	0.326
7.66443	0.618
7.70314	0.675
7.74185	0.655
7.78056	0.655
7.81927	0.568
7.85798	0.46
7.89668	0.483
7.93539	0.192
7.9741	0.264
8.01281	0.589
8.05152	0.596
8.09023	0.591
8.12894	0.589
8.16764	0.583
8.20635	0.455
8.24506	0.281
8.28377	0.069
8.32248	0.184
8.36119	0.092
8.39989	0.059
8.4386	0.079
8.47731	0.386
8.51602	0.408
8.55473	0.439
8.59344	0.382
8.63215	0.394
8.67085	0.261
8.70956	0.192
8.74827	0.541
8.78698	0.567
8.82569	0.631
8.8644	0.667
8.9031	0.676
8.94181	0.688
8.98052	0.642
9.01923	0.63
9.05794	0.646
9.09665	0.621
9.13536	0.549
9.17406	0.437
9.21277	0.588
9.25148	0.647
9.29019	0.691
9.3289	0.705
9.36761	0.693
9.40631	0.66
9.44502	0.683
9.48373	0.723
9.52244	0.73
9.56115	0.722
9.59986	0.66
9.63857	0.434
9.67727	0.374
9.71598	0.508
9.75469	0.581
9.7934	0.649
9.83211	0.678
9.87082	0.693
9.90952	0.701
9.94823	0.701
9.98694	0.647
10.0256	0.529
10.0644	0.258
10.1031	0.043
10.1418	0.029
10.1805	0.063
10.2192	0.195
10.2579	0.281
10.2966	0.355
10.3353	0.441
10.374	0.486
10.4127	0.486
10.4514	0.402
10.4902	0.316
10.5289	0.473
10.5676	0.594
10.6063	0.625
10.645	0.641
10.6837	0.655
10.7224	0.638
10.7611	0.615
10.7998	0.575
10.8385	0.575
10.8772	0.583
10.9159	0.604
10.9547	0.61
10.9934	0.609
11.0321	0.515
11.0708	0.334
11.1095	0.399
11.1482	0.515
11.1869	0.539
11.2256	0.544
11.2643	0.581
11.303	0.597
11.3417	0.558
11.3804	0.504
11.4192	0.492
11.4579	0.507
11.4966	0.523
11.5353	0.497
11.574	0.453
11.6127	0.458
11.6514	0.481
11.6901	0.489
11.7288	0.499
11.7675	0.455
11.8062	0.437
11.8449	0.437
11.8837	0.441
11.9224	0.45
11.9611	0.439
11.9998	0.403
12.0385	0.31
12.0772	0.187
12.1159	0.077
12.1546	0.033
12.1933	0.032
12.232	0.035
12.2707	0.046
12.3094	0.087
12.3482	0.256
12.3869	0.416
12.4256	0.5
12.4643	0.568
12.503	0.573
12.5417	0.512
12.5804	0.41
12.6191	0.373
12.6578	0.308
12.6965	0.213
12.7352	0.138
12.7739	0.156
12.8127	0.24
12.8514	0.353
12.8901	0.371
12.9288	0.327
12.9675	0.224
13.0062	0.138
13.0449	0.082
13.0836	0.051
13.1223	0.04
13.161	0.035
13.1997	0.03
13.2385	0.035
13.2772	0.045
13.3159	0.08
13.3546	0.116
13.3933	0.129
13.432	0.18
13.4707	0.319
13.5094	0.499
13.5481	0.634
13.5868	0.76
13.6255	0.812
13.6642	0.846
13.703	0.869
13.7417	0.867
13.7804	0.873
13.8191	0.898
13.8578	0.911
13.8965	0.924
13.9352	0.927
13.9739	0.914
14.0126	0.909
14.0513	0.917
14.09	0.938
14.1287	0.949
14.1675	0.957
14.2062	0.961
14.2449	0.967
14.2836	0.964
14.3223	0.964
14.361	0.959
14.3997	0.964
14.4384	0.949
14.4771	0.949
14.5158	0.941
14.5545	0.933
14.5932	0.919
14.632	0.912
14.6707	0.893
14.7094	0.848
14.7481	0.733
14.7868	0.57
14.8255	0.449
14.8642	0.421
14.9029	0.516
14.9416	0.6
14.9803	0.631
15.019	0.646
15.0577	0.672
15.0965	0.71
15.1352	0.733
15.1739	0.749
15.2126	0.765
15.2513	0.768
15.29	0.772
15.3287	0.775
15.3674	0.777
15.4061	0.775
15.4448	0.762
15.4835	0.759
15.5222	0.749
15.561	0.746
15.5997	0.736
15.6384	0.723
15.6771	0.709
15.7158	0.694
15.7545	0.675
15.7932	0.655
15.8319	0.638
15.8706	0.626
15.9093	0.618
15.948	0.618
