Infrared Spectrum: 2',4'-Acetoxylidide
Formula: C 10 H 13 N O
CAS: 2050-43-3
State: gas
Instrument: HP-GC/MS/IRD
Origin: NIST Mass Spectrometry Data Center
1/CM	ABSORBANCE
550	0.000848
562	0.0006848
574	0.000384
586	0.000224
598	0.0005344
610	0.00096
622	0.0018048
634	0.0014976
646	0.0005024
658	0.0002976
670	0.0002176
682	0.0001344
694	0.0001248
706	0.0002528
718	0.0001504
730	0
742	7.36e-05
754	4.48e-05
766	0.0002848
778	0.0006208
790	0.0009568
802	0.0016416
814	0.0028896
826	0.0026336
838	0.0009984
850	0.0004896
862	0.0008
874	0.000944
886	0.0006784
898	0.000512
910	0.0004384
922	0.0005216
934	0.0007264
946	0.0008192
958	0.0008832
970	0.0010912
982	0.0018048
994	0.0021184
1006	0.0017152
1018	0.0012544
1030	0.0010976
1042	0.0011648
1054	0.0010976
1066	0.0009856
1078	0.0007104
1090	0.0005344
1102	0.0004768
1114	0.0008576
1126	0.0012512
1138	0.0006656
1150	0.000688
1162	0.000752
1174	0.0006592
1186	0.0009888
1198	0.0023872
1210	0.0059104
1222	0.0096768
1234	0.0075872
1246	0.0047584
1258	0.0056224
1270	0.0064224
1282	0.0071648
1294	0.0104576
1306	0.0107584
1318	0.006624
1330	0.0028864
1342	0.0021024
1354	0.0037088
1366	0.0075712
1378	0.007728
1390	0.0058176
1402	0.005408
1414	0.0058528
1426	0.0063424
1438	0.0080992
1450	0.0104288
1462	0.0119712
1474	0.0116864
1486	0.0109472
1498	0.0150944
1510	0.019504
1522	0.0120384
1534	0.0058048
1546	0.0035264
1558	0.0026528
1570	0.0021632
1582	0.0023488
1594	0.002704
1606	0.0021248
1618	0.0015648
1630	0.0012224
1642	0.0012288
1654	0.001584
1666	0.0017376
1678	0.0022144
1690	0.00384
1702	0.0105344
1714	0.0279392
1726	0.0285312
1738	0.0140768
1750	0.0058368
1762	0.0028448
1774	0.0016992
1786	0.001168
1798	0.0007872
1810	0.0005568
1822	0.0003904
1834	0.0002848
1846	0.0002464
1858	0.0002432
1870	0.0002816
1882	0.000368
1894	0.000368
1906	0.0003008
1918	0.0001856
1930	0.0001056
1942	8e-05
1954	3.52e-05
1966	1.92e-05
1978	4.48e-05
1990	6.72e-05
2002	5.12e-05
2014	3.2e-05
2026	1.92e-05
2038	1.6e-05
2050	2.24e-05
2062	1.6e-05
2074	3.52e-05
2086	2.56e-05
2098	3.2e-05
2110	2.88e-05
2122	0
2134	3.2e-05
2146	1.28e-05
2158	2.56e-05
2170	4.48e-05
2182	5.12e-05
2194	6.08e-05
2206	7.04e-05
2218	4.8e-05
2230	3.52e-05
2242	1.28e-05
2254	2.88e-05
2266	1.6e-05
2278	3.84e-05
2290	2.56e-05
2302	7.04e-05
2314	8e-05
2326	9.92e-05
2338	8.64e-05
2350	5.44e-05
2362	6.08e-05
2374	6.08e-05
2386	5.76e-05
2398	8.96e-05
2410	0.0001312
2422	0.0001248
2434	9.6e-05
2446	6.72e-05
2458	8.32e-05
2470	4.48e-05
2482	7.68e-05
2494	6.08e-05
2506	4.48e-05
2518	5.12e-05
2530	7.04e-05
2542	5.76e-05
2554	7.04e-05
2566	3.84e-05
2578	6.08e-05
2590	4.8e-05
2602	3.52e-05
2614	4.8e-05
2626	7.68e-05
2638	4.8e-05
2650	8.96e-05
2662	0.000112
2674	0.0001248
2686	0.0001344
2698	0.0001472
2710	0.0001504
2722	0.000176
2734	0.0002656
2746	0.0003744
2758	0.0002112
2770	0.0001952
2782	0.0002016
2794	0.0002528
2806	0.000304
2818	0.0003712
2830	0.0005216
2842	0.0008096
2854	0.0014208
2866	0.0024224
2878	0.0030528
2890	0.002752
2902	0.0027936
2914	0.0036672
2926	0.0056576
2938	0.006016
2950	0.0038912
2962	0.0027552
2974	0.0026688
2986	0.0028896
2998	0.0030624
3010	0.0037568
3022	0.0043808
3034	0.003808
3046	0.0031424
3058	0.0023328
3070	0.0016288
3082	0.0011616
3094	0.0008704
3106	0.0007392
3118	0.0005856
3130	0.0003712
3142	0.000224
3154	0.0001696
3166	8.64e-05
3178	8.32e-05
3190	7.04e-05
3202	5.76e-05
3214	0.0001024
3226	6.4e-05
3238	6.4e-05
3250	9.28e-05
3262	6.72e-05
3274	3.2e-05
3286	4.8e-05
3298	4.8e-05
3310	6.72e-05
3322	6.72e-05
3334	6.4e-05
3346	9.6e-05
3358	0.0001248
3370	0.0001856
3382	0.0002176
3394	0.0004832
3406	0.00088
3418	0.001136
3430	0.0009888
3442	0.0010368
3454	0.0012288
3466	0.0011904
3478	0.0011456
3490	0.0007104
3502	0.000368
3514	0.0001984
3526	0.000128
3538	5.44e-05
3550	8.96e-05
3562	3.2e-05
3574	7.68e-05
3586	0.0001056
3598	8.64e-05
3610	9.6e-05
3622	2.56e-05
3634	0.0001024
3646	6.08e-05
3658	5.12e-05
3670	0
3682	5.44e-05
3694	9.28e-05
3706	4.16e-05
3718	6.72e-05
3730	6.4e-05
3742	6.4e-05
3754	0.0001088
3766	8.64e-05
3778	8.64e-05
3790	7.68e-05
3802	8.32e-05
3814	0.0001152
3826	0.0001152
3838	0.0001344
