Infrared Spectrum: DI-ISO-AMYL CARBONATE
Formula: C11 H22 O3
CAS: 2050-95-5
State: LIQUID
Boiling point: 120-121 C AT 17 mmHg
Class: COBLENTZ
Instrument: Not specified, most likely a prism, grating, or hybrid spectrometer.
Sampling: TRANSMISSION
Path length: 0.003 CM
Resolution: 4
Origin: WYANDOTTE CHEMICALS CORP., WYANDOTTE, MICHIGAN, USA
MICROMETERS	TRANSMITTANCE
2.027	0.95
2.0679	0.958
2.10879	0.969
2.14969	0.969
2.19059	0.953
2.23148	0.94
2.27238	0.931
2.31328	0.952
2.35417	0.953
2.39507	0.95
2.43597	0.952
2.47686	0.969
2.51776	0.969
2.55865	0.962
2.59955	0.974
2.64045	0.977
2.68134	0.977
2.72224	0.974
2.76314	0.94
2.80403	0.902
2.84493	0.914
2.88583	0.899
2.92672	0.919
2.96762	0.926
3.00852	0.936
3.04941	0.94
3.09031	0.931
3.13121	0.904
3.1721	0.88
3.213	0.866
3.2539	0.846
3.29479	0.757
3.33569	0.297
3.37659	0.058
3.41748	0.1
3.45838	0.174
3.49928	0.369
3.54017	0.695
3.58107	0.8
3.62196	0.834
3.66286	0.839
3.70376	0.863
3.74465	0.89
3.78555	0.902
3.82645	0.904
3.86734	0.916
3.90824	0.928
3.94914	0.929
3.99003	0.926
4.03093	0.921
4.07183	0.929
4.11272	0.933
4.15362	0.933
4.19452	0.929
4.23541	0.926
4.27631	0.926
4.31721	0.938
4.3581	0.947
4.399	0.947
4.4399	0.947
4.48079	0.945
4.52169	0.941
4.56259	0.936
4.60348	0.931
4.64438	0.938
4.68527	0.945
4.72617	0.955
4.76707	0.964
4.80796	0.958
4.84886	0.953
4.88976	0.95
4.93065	0.947
4.97155	0.95
5.01245	0.958
5.05334	0.964
5.09424	0.964
5.13514	0.962
5.17603	0.958
5.21693	0.957
5.25783	0.955
5.29872	0.955
5.33962	0.95
5.38052	0.938
5.42141	0.928
5.46231	0.914
5.50321	0.885
5.5441	0.834
5.585	0.803
5.6259	0.69
5.66679	0.394
5.70769	0.037
5.74858	0.064
5.78948	0.357
5.83038	0.61
5.87127	0.659
5.91217	0.755
5.95307	0.794
5.99396	0.815
6.03486	0.839
6.07576	0.852
6.11665	0.864
6.15755	0.859
6.19845	0.817
6.23934	0.803
6.28024	0.829
6.32114	0.859
6.36203	0.868
6.40293	0.871
6.44383	0.864
6.48472	0.849
6.52562	0.842
6.56652	0.818
6.60741	0.776
6.64831	0.688
6.68921	0.524
6.7301	0.307
6.771	0.092
6.81189	0.162
6.85279	0.345
6.89369	0.545
6.93458	0.574
6.97548	0.611
7.01638	0.588
7.05727	0.352
7.09817	0.119
7.13907	0.273
7.17996	0.305
7.22086	0.331
7.26176	0.335
7.30265	0.305
7.34355	0.444
7.38445	0.427
7.42534	0.348
7.46624	0.4
7.50714	0.519
7.54803	0.494
7.58893	0.299
7.62983	0.21
7.67072	0.176
7.71162	0.07
7.75252	0.025
7.79341	0.02
7.83431	0.023
7.8752	0.022
7.9161	0.02
7.957	0.02
7.99789	0.022
8.03879	0.025
8.07969	0.034
8.12058	0.09
8.16148	0.211
8.20238	0.352
8.24327	0.473
8.28417	0.579
8.32507	0.632
8.36596	0.666
8.40686	0.673
8.44776	0.618
8.48865	0.459
8.52955	0.348
8.57045	0.55
8.61134	0.618
8.65224	0.634
8.69314	0.641
8.73403	0.642
8.77493	0.623
8.81583	0.642
8.85672	0.659
8.89762	0.651
8.93851	0.651
8.97941	0.647
9.02031	0.652
9.0612	0.654
9.1021	0.641
9.143	0.637
9.18389	0.659
9.22479	0.666
9.26569	0.656
9.30658	0.598
9.34748	0.499
9.38838	0.406
9.42927	0.345
9.47017	0.328
9.51107	0.282
9.55196	0.295
9.59286	0.338
9.63376	0.369
9.67465	0.425
9.71555	0.524
9.75645	0.608
9.79734	0.635
9.83824	0.625
9.87914	0.596
9.92003	0.576
9.96093	0.603
10.0018	0.639
10.0427	0.642
10.0836	0.632
10.1245	0.629
10.1654	0.617
10.2063	0.577
10.2472	0.509
10.2881	0.435
10.329	0.35
10.3699	0.275
10.4108	0.206
10.4517	0.179
10.4926	0.172
10.5335	0.15
10.5744	0.133
10.6153	0.121
10.6562	0.143
10.6971	0.2
10.738	0.28
10.7789	0.379
10.8198	0.471
10.8607	0.535
10.9015	0.615
10.9424	0.663
10.9833	0.69
11.0242	0.709
11.0651	0.735
11.106	0.772
11.1469	0.808
11.1878	0.817
11.2287	0.829
11.2696	0.841
11.3105	0.849
11.3514	0.863
11.3923	0.868
11.4332	0.871
11.4741	0.873
11.515	0.875
11.5559	0.871
11.5968	0.864
11.6377	0.864
11.6786	0.863
11.7195	0.841
11.7604	0.811
11.8013	0.782
11.8422	0.757
11.8831	0.733
11.924	0.704
11.9649	0.673
12.0058	0.664
12.0467	0.664
12.0875	0.675
12.1284	0.688
12.1693	0.717
12.2102	0.753
12.2511	0.779
12.292	0.791
12.3329	0.789
12.3738	0.781
12.4147	0.743
12.4556	0.69
12.4965	0.565
12.5374	0.435
12.5783	0.304
12.6192	0.273
12.6601	0.362
12.701	0.495
12.7419	0.584
12.7828	0.618
12.8237	0.644
12.8646	0.683
12.9055	0.716
12.9464	0.736
12.9873	0.76
13.0282	0.77
13.0691	0.789
13.11	0.801
13.1509	0.81
13.1918	0.805
13.2327	0.801
13.2735	0.803
13.3144	0.822
13.3553	0.849
13.3962	0.863
13.4371	0.871
13.478	0.875
13.5189	0.882
13.5598	0.885
13.6007	0.885
13.6416	0.887
13.6825	0.888
13.7234	0.885
13.7643	0.882
13.8052	0.883
13.8461	0.882
13.887	0.883
13.9279	0.885
13.9688	0.888
14.0097	0.888
14.0506	0.885
14.0915	0.882
14.1324	0.882
14.1733	0.883
14.2142	0.885
14.2551	0.883
14.296	0.882
14.3369	0.882
14.3778	0.882
14.4187	0.873
14.4595	0.858
14.5004	0.849
14.5413	0.841
14.5822	0.842
14.6231	0.849
14.664	0.854
14.7049	0.854
14.7458	0.851
14.7867	0.849
14.8276	0.842
14.8685	0.841
14.9094	0.841
14.9503	0.837
14.9912	0.815
15.0321	0.794
15.073	0.784
15.1139	0.808
15.1548	0.82
15.1957	0.818
15.2366	0.808
15.2775	0.796
15.3184	0.789
15.3593	0.784
15.4002	0.779
15.4411	0.767
15.482	0.762
15.5229	0.757
15.5638	0.752
15.6047	0.75
15.6455	0.745
15.6864	0.733
15.7273	0.729
15.7682	0.728
15.8091	0.716
15.85	0.711
15.8909	0.709
15.9318	0.704
15.9727	0.69
