Infrared Spectrum: p-TERT-AMYLANISOLE
Formula: C12 H18 O
CAS: 2050-03-5
State: LIQUID
Boiling point: 113-114 C AT 13 mmHg
Class: COBLENTZ
Instrument: Not specified, most likely a prism, grating, or hybrid spectrometer.
Sampling: TRANSMISSION
Path length: 0.003 CM
Resolution: 4
Origin: WYANDOTTE CHEMICALS CORP., WYANDOTTE, MICHIGAN, USA
MICROMETERS	TRANSMITTANCE
1.993	0.984
2.03388	0.976
2.07475	0.957
2.11563	0.948
2.1565	0.928
2.19738	0.909
2.23826	0.918
2.27913	0.918
2.32001	0.911
2.36088	0.904
2.40176	0.916
2.44264	0.925
2.48351	0.926
2.52439	0.931
2.56527	0.938
2.60614	0.942
2.64702	0.938
2.68789	0.933
2.72877	0.909
2.76965	0.88
2.81052	0.86
2.8514	0.833
2.89227	0.807
2.93315	0.8
2.97403	0.797
3.0149	0.792
3.05578	0.787
3.09665	0.778
3.13753	0.775
3.17841	0.754
3.21928	0.649
3.26016	0.48
3.30104	0.291
3.34191	0.091
3.38279	0.071
3.42366	0.105
3.46454	0.185
3.50542	0.344
3.54629	0.698
3.58717	0.778
3.62804	0.802
3.66892	0.826
3.7098	0.843
3.75067	0.841
3.79155	0.848
3.83242	0.851
3.8733	0.862
3.91418	0.839
3.95505	0.858
3.99593	0.86
4.0368	0.856
4.07768	0.87
4.11856	0.851
4.15943	0.86
4.20031	0.87
4.24119	0.882
4.28206	0.908
4.32294	0.921
4.36381	0.899
4.40469	0.88
4.44557	0.892
4.48644	0.902
4.52732	0.906
4.56819	0.911
4.60907	0.918
4.64995	0.919
4.69082	0.918
4.7317	0.916
4.77257	0.918
4.81345	0.873
4.85433	0.839
4.8952	0.833
4.93608	0.85
4.97696	0.865
5.01783	0.899
5.05871	0.911
5.09958	0.911
5.14046	0.911
5.18134	0.914
5.22221	0.911
5.26309	0.885
5.30396	0.824
5.34484	0.819
5.38572	0.853
5.42659	0.884
5.46747	0.889
5.50834	0.897
5.54922	0.902
5.5901	0.902
5.63097	0.897
5.67185	0.862
5.71272	0.87
5.7536	0.872
5.79448	0.872
5.83535	0.862
5.87623	0.851
5.91711	0.844
5.95798	0.814
5.99886	0.773
6.03973	0.715
6.08061	0.649
6.12149	0.356
6.16236	0.109
6.20324	0.35
6.24411	0.436
6.28499	0.475
6.32587	0.683
6.36674	0.7
6.40762	0.7
6.44849	0.647
6.48937	0.446
6.53025	0.197
6.57112	0.057
6.612	0.163
6.65288	0.257
6.69375	0.289
6.73463	0.18
6.7755	0.093
6.81638	0.081
6.85726	0.168
6.89813	0.197
6.93901	0.494
6.97988	0.577
7.02076	0.591
7.06164	0.541
7.10251	0.638
7.14339	0.626
7.18426	0.359
7.22514	0.311
7.26602	0.413
7.30689	0.291
7.34777	0.574
7.38864	0.695
7.42952	0.703
7.4704	0.633
7.51127	0.57
7.55215	0.565
7.59303	0.318
7.6339	0.131
7.67478	0.1
7.71565	0.105
7.75653	0.141
7.79741	0.207
7.83828	0.349
7.87916	0.286
7.92003	0.117
7.96091	0.056
8.00179	0.057
8.04266	0.059
8.08354	0.081
8.12441	0.155
8.16529	0.359
8.20617	0.478
8.24704	0.528
8.28792	0.512
8.3288	0.442
8.36967	0.333
8.41055	0.132
8.45142	0.066
8.4923	0.143
8.53318	0.357
8.57405	0.509
8.61493	0.63
8.6558	0.649
8.69668	0.662
8.73756	0.696
8.77843	0.718
8.81931	0.718
8.86018	0.676
8.90106	0.522
8.94194	0.339
8.98281	0.494
9.02369	0.599
9.06456	0.635
9.10544	0.666
9.14632	0.674
9.18719	0.678
9.22807	0.672
9.26895	0.667
9.30982	0.659
9.3507	0.64
9.39157	0.586
9.43245	0.459
9.47333	0.405
9.5142	0.243
9.55508	0.109
9.59595	0.073
9.63683	0.063
9.67771	0.093
9.71858	0.247
9.75946	0.412
9.80033	0.494
9.84121	0.492
9.88209	0.398
9.92296	0.388
9.96384	0.482
10.0047	0.594
10.0456	0.65
10.0865	0.654
10.1273	0.695
10.1682	0.729
10.2091	0.742
10.25	0.749
10.2908	0.758
10.3317	0.77
10.3726	0.776
10.4135	0.768
10.4544	0.754
10.4952	0.751
10.5361	0.749
10.577	0.759
10.6179	0.759
10.6587	0.746
10.6996	0.71
10.7405	0.725
10.7814	0.746
10.8222	0.759
10.8631	0.781
10.904	0.776
10.9449	0.761
10.9857	0.729
11.0266	0.746
11.0675	0.78
11.1084	0.798
11.1492	0.798
11.1901	0.8
11.231	0.802
11.2719	0.805
11.3128	0.798
11.3536	0.802
11.3945	0.8
11.4354	0.797
11.4763	0.795
11.5171	0.788
11.558	0.793
11.5989	0.79
11.6398	0.781
11.6806	0.78
11.7215	0.764
11.7624	0.739
11.8033	0.701
11.8441	0.643
11.885	0.531
11.9259	0.378
11.9668	0.252
12.0076	0.153
12.0485	0.09
12.0894	0.076
12.1303	0.066
12.1711	0.076
12.212	0.166
12.2529	0.31
12.2938	0.41
12.3347	0.449
12.3755	0.415
12.4164	0.366
12.4573	0.374
12.4982	0.466
12.539	0.538
12.5799	0.538
12.6208	0.56
12.6617	0.64
12.7025	0.669
12.7434	0.638
12.7843	0.557
12.8252	0.425
12.866	0.337
12.9069	0.262
12.9478	0.34
12.9887	0.516
13.0295	0.669
13.0704	0.73
13.1113	0.761
13.1522	0.775
13.1931	0.78
13.2339	0.77
13.2748	0.763
13.3157	0.763
13.3566	0.776
13.3974	0.79
13.4383	0.79
13.4792	0.807
13.5201	0.817
13.5609	0.824
13.6018	0.821
13.6427	0.798
13.6836	0.744
13.7244	0.691
13.7653	0.727
13.8062	0.797
13.8471	0.826
13.8879	0.829
13.9288	0.836
13.9697	0.838
14.0106	0.843
14.0514	0.851
14.0923	0.85
14.1332	0.844
14.1741	0.838
14.215	0.836
14.2558	0.836
14.2967	0.829
14.3376	0.831
14.3785	0.827
14.4193	0.831
14.4602	0.827
14.5011	0.827
14.542	0.827
14.5828	0.816
14.6237	0.833
14.6646	0.816
14.7055	0.814
14.7463	0.821
14.7872	0.81
14.8281	0.805
14.869	0.797
14.9098	0.785
14.9507	0.781
14.9916	0.77
15.0325	0.744
15.0734	0.681
15.1142	0.64
15.1551	0.635
15.196	0.647
15.2369	0.693
15.2777	0.705
15.3186	0.701
15.3595	0.689
15.4004	0.655
15.4412	0.632
15.4821	0.604
15.523	0.601
15.5639	0.63
15.6047	0.662
15.6456	0.688
15.6865	0.696
15.7274	0.695
15.7682	0.686
15.8091	0.688
15.85	0.691
15.8909	0.698
15.9317	0.708
