Infrared Spectrum: 2,4-DIBROMO-1-NAPHTHOL
Formula: C10 H6 Br2 O
CAS: 2050-49-9
State: SOLID (MINERAL OIL MULL)
Melting point: 108-109 C
Class: COBLENTZ
Instrument: Not specified, most likely a prism, grating, or hybrid spectrometer.
Sampling: TRANSMISSION
Resolution: 4
Origin: WYANDOTTE CHEMICALS CORP., WYANDOTTE, MICHIGAN, USA
MICROMETERS	TRANSMITTANCE
2.006	0.307
2.04315	0.31
2.0803	0.321
2.11746	0.324
2.15461	0.319
2.19176	0.302
2.22891	0.296
2.26607	0.304
2.30322	0.299
2.34037	0.296
2.37752	0.296
2.41467	0.304
2.45183	0.31
2.48898	0.315
2.52613	0.319
2.56328	0.335
2.60044	0.318
2.63759	0.352
2.67474	0.343
2.71189	0.343
2.74904	0.346
2.7862	0.336
2.82335	0.313
2.8605	0.335
2.89765	0.295
2.93481	0.215
2.97196	0.183
3.00911	0.177
3.04626	0.211
3.08341	0.239
3.12057	0.251
3.15772	0.259
3.19487	0.265
3.23202	0.248
3.26918	0.212
3.30633	0.145
3.34348	0.027
3.38063	0.023
3.41778	0.026
3.45494	0.023
3.49209	0.024
3.52924	0.116
3.56639	0.293
3.60355	0.35
3.6407	0.355
3.67785	0.346
3.715	0.368
3.75215	0.369
3.78931	0.366
3.82646	0.383
3.86361	0.4
3.90076	0.416
3.93792	0.427
3.97507	0.442
4.01222	0.44
4.04937	0.44
4.08652	0.45
4.12368	0.445
4.16083	0.448
4.19798	0.445
4.23513	0.428
4.27228	0.423
4.30944	0.451
4.34659	0.49
4.38374	0.506
4.42089	0.482
4.45805	0.493
4.4952	0.493
4.53235	0.506
4.5695	0.51
4.60665	0.503
4.64381	0.524
4.68096	0.517
4.71811	0.534
4.75526	0.534
4.79242	0.543
4.82957	0.54
4.86672	0.56
4.90387	0.559
4.94102	0.56
4.97818	0.565
5.01533	0.572
5.05248	0.583
5.08963	0.585
5.12679	0.577
5.16394	0.569
5.20109	0.572
5.23824	0.591
5.27539	0.582
5.31255	0.6
5.3497	0.596
5.38685	0.624
5.424	0.6
5.46116	0.602
5.49831	0.621
5.53546	0.607
5.57261	0.616
5.60976	0.631
5.64692	0.641
5.68407	0.644
5.72122	0.633
5.75837	0.658
5.79553	0.563
5.83268	0.58
5.86983	0.658
5.90698	0.631
5.94413	0.652
5.98129	0.663
6.01844	0.65
6.05559	0.673
6.09274	0.681
6.1299	0.597
6.16705	0.703
6.2042	0.562
6.24135	0.189
6.2785	0.253
6.31566	0.451
6.35281	0.5
6.38996	0.552
6.42711	0.517
6.46427	0.607
6.50142	0.596
6.53857	0.636
6.57572	0.582
6.61287	0.394
6.65003	0.489
6.68718	0.447
6.72433	0.284
6.76148	0.066
6.79864	0.049
6.83579	0.063
6.87294	0.08
6.91009	0.208
6.94724	0.47
6.9844	0.557
7.02155	0.656
7.0587	0.645
7.09585	0.625
7.13301	0.597
7.17016	0.377
7.20731	0.082
7.24446	0.049
7.28161	0.113
7.31877	0.312
7.35592	0.406
7.39307	0.422
7.43022	0.341
7.46738	0.271
7.50453	0.175
7.54168	0.305
7.57883	0.391
7.61598	0.473
7.65314	0.541
7.69029	0.563
7.72744	0.559
7.76459	0.572
7.80175	0.597
7.8389	0.569
7.87605	0.517
7.9132	0.369
7.95035	0.296
7.98751	0.329
8.02466	0.248
8.06181	0.186
8.09896	0.167
8.13612	0.153
8.17327	0.228
8.21042	0.259
8.24757	0.211
8.28472	0.29
8.32188	0.281
8.35903	0.312
8.39618	0.392
8.43333	0.433
8.47048	0.439
8.50764	0.453
8.54479	0.498
8.58194	0.51
8.61909	0.534
8.65625	0.532
8.6934	0.447
8.73055	0.273
8.7677	0.389
8.80485	0.486
8.84201	0.524
8.87916	0.552
8.91631	0.582
8.95346	0.61
8.99062	0.624
9.02777	0.644
9.06492	0.656
9.10207	0.663
9.13922	0.667
9.17638	0.664
9.21353	0.675
9.25068	0.664
9.28783	0.591
9.32499	0.417
9.36214	0.389
9.39929	0.302
9.43644	0.24
9.47359	0.346
9.51075	0.45
9.5479	0.509
9.58505	0.538
9.6222	0.571
9.65936	0.562
9.69651	0.501
9.73366	0.582
9.77081	0.605
9.80796	0.616
9.84512	0.641
9.88227	0.645
9.91942	0.645
9.95657	0.658
9.99373	0.666
10.0309	0.672
10.068	0.684
10.1052	0.681
10.1423	0.686
10.1795	0.669
10.2166	0.664
10.2538	0.656
10.2909	0.656
10.3281	0.67
10.3652	0.678
10.4024	0.687
10.4396	0.656
10.4767	0.596
10.5139	0.677
10.551	0.709
10.5882	0.725
10.6253	0.728
10.6625	0.729
10.6996	0.743
10.7368	0.739
10.7739	0.677
10.8111	0.586
10.8482	0.652
10.8854	0.706
10.9225	0.751
10.9597	0.785
10.9968	0.796
11.034	0.813
11.0711	0.815
11.1083	0.819
11.1454	0.821
11.1826	0.819
11.2197	0.819
11.2569	0.826
11.2941	0.846
11.3312	0.843
11.3684	0.85
11.4055	0.84
11.4427	0.809
11.4798	0.681
11.517	0.459
11.5541	0.228
11.5913	0.35
11.6284	0.647
11.6656	0.706
11.7027	0.571
11.7399	0.537
11.777	0.723
11.8142	0.757
11.8513	0.773
11.8885	0.771
11.9256	0.737
11.9628	0.616
11.9999	0.4
12.0371	0.242
12.0742	0.282
12.1114	0.484
12.1486	0.633
12.1857	0.711
12.2229	0.774
12.26	0.815
12.2972	0.84
12.3343	0.861
12.3715	0.881
12.4086	0.886
12.4458	0.909
12.4829	0.92
12.5201	0.917
12.5572	0.917
12.5944	0.93
12.6315	0.939
12.6687	0.937
12.7058	0.923
12.743	0.902
12.7801	0.864
12.8173	0.807
12.8544	0.773
12.8916	0.723
12.9288	0.622
12.9659	0.456
13.0031	0.277
13.0402	0.33
13.0774	0.493
13.1145	0.357
13.1517	0.197
13.1888	0.104
13.226	0.074
13.2631	0.104
13.3003	0.214
13.3374	0.341
13.3746	0.45
13.4117	0.521
13.4489	0.568
13.486	0.596
13.5232	0.61
13.5603	0.63
13.5975	0.644
13.6346	0.659
13.6718	0.658
13.7089	0.652
13.7461	0.644
13.7833	0.627
13.8204	0.616
13.8576	0.6
13.8947	0.622
13.9319	0.628
13.969	0.6
14.0062	0.563
14.0433	0.6
14.0805	0.653
14.1176	0.714
14.1548	0.75
14.1919	0.77
14.2291	0.782
14.2662	0.801
14.3034	0.809
14.3405	0.815
14.3777	0.824
14.4148	0.833
14.452	0.832
14.4891	0.838
14.5263	0.844
14.5634	0.83
14.6006	0.835
14.6378	0.835
14.6749	0.832
14.7121	0.81
14.7492	0.796
14.7864	0.771
14.8235	0.714
14.8607	0.642
14.8978	0.52
14.935	0.431
14.9721	0.346
15.0093	0.31
15.0464	0.329
15.0836	0.381
15.1207	0.436
15.1579	0.501
15.195	0.551
15.2322	0.59
15.2693	0.614
15.3065	0.619
15.3436	0.622
15.3808	0.613
15.4179	0.58
15.4551	0.532
15.4923	0.45
15.5294	0.391
15.5666	0.35
15.6037	0.35
15.6409	0.38
15.678	0.417
15.7152	0.431
15.7523	0.454
15.7895	0.454
15.8266	0.458
15.8638	0.459
15.9009	0.468
15.9381	0.467
15.9752	0.464
