Infrared Spectrum: DI-n-BUTYLCYANAMIDE
Formula: C9 H18 N2
CAS: 2050-54-6
State: LIQUID
Boiling point: 128-130 C AT 20 mmHg
Class: COBLENTZ
Instrument: Not specified, most likely a prism, grating, or hybrid spectrometer.
Sampling: TRANSMISSION
Path length: 0.003 CM
Resolution: 4
Origin: WYANDOTTE CHEMICALS CORP., WYANDOTTE, MICHIGAN, USA
MICROMETERS	TRANSMITTANCE
2.033	0.985
2.07275	0.985
2.11251	0.981
2.15226	0.965
2.19202	0.92
2.23177	0.936
2.27153	0.946
2.31128	0.948
2.35103	0.945
2.39079	0.958
2.43054	0.966
2.4703	0.975
2.51005	0.976
2.54981	0.976
2.58956	0.98
2.62931	0.98
2.66907	0.963
2.70882	0.955
2.74858	0.941
2.78833	0.938
2.82809	0.928
2.86784	0.94
2.90759	0.935
2.94735	0.91
2.9871	0.897
3.02686	0.915
3.06661	0.933
3.10637	0.923
3.14612	0.925
3.18587	0.923
3.22563	0.905
3.26538	0.857
3.30514	0.671
3.34489	0.019
3.38465	0.064
3.4244	0.202
3.46415	0.094
3.50391	0.561
3.54366	0.762
3.58342	0.857
3.62317	0.883
3.66293	0.887
3.70268	0.913
3.74243	0.933
3.78219	0.951
3.82194	0.961
3.8617	0.966
3.90145	0.97
3.9412	0.976
3.98096	0.983
4.02071	0.98
4.06047	0.975
4.10022	0.975
4.13998	0.971
4.17973	0.966
4.21948	0.963
4.25924	0.963
4.29899	0.955
4.33875	0.946
4.3785	0.926
4.41826	0.887
4.45801	0.855
4.49776	0.774
4.53752	0.531
4.57727	0.028
4.61703	0.068
4.65678	0.559
4.69654	0.81
4.73629	0.915
4.77604	0.976
4.8158	0.988
4.85555	0.99
4.89531	0.993
4.93506	1
4.97482	1
5.01457	0.998
5.05432	0.995
5.09408	0.998
5.13383	1
5.17359	0.998
5.21334	0.991
5.2531	0.996
5.29285	0.993
5.3326	0.991
5.37236	0.991
5.41211	0.991
5.45187	0.991
5.49162	0.991
5.53138	0.991
5.57113	0.991
5.61088	0.988
5.65064	0.988
5.69039	0.981
5.73015	0.981
5.7699	0.975
5.80966	0.968
5.84941	0.96
5.88916	0.935
5.92892	0.888
5.96867	0.769
6.00843	0.847
6.04818	0.867
6.08794	0.888
6.12769	0.898
6.16744	0.906
6.2072	0.91
6.24695	0.921
6.28671	0.93
6.32646	0.918
6.36622	0.906
6.40597	0.882
6.44572	0.865
6.48548	0.837
6.52523	0.85
6.56499	0.86
6.60474	0.857
6.6445	0.825
6.68425	0.749
6.724	0.579
6.76376	0.395
6.80351	0.192
6.84327	0.308
6.88302	0.426
6.92278	0.506
6.96253	0.666
7.00228	0.729
7.04204	0.745
7.08179	0.719
7.12155	0.662
7.1613	0.593
7.20106	0.486
7.24081	0.342
7.28056	0.397
7.32032	0.48
7.36007	0.563
7.39983	0.589
7.43958	0.589
7.47933	0.563
7.51909	0.574
7.55884	0.614
7.5986	0.612
7.63835	0.636
7.67811	0.676
7.71786	0.684
7.75761	0.662
7.79737	0.654
7.83712	0.671
7.87688	0.684
7.91663	0.672
7.95639	0.652
7.99614	0.634
8.03589	0.636
8.07565	0.659
8.1154	0.714
8.15516	0.765
8.19491	0.782
8.23467	0.757
8.27442	0.694
8.31417	0.573
8.35393	0.43
8.39368	0.425
8.43344	0.501
8.47319	0.529
8.51295	0.483
8.5527	0.431
8.59245	0.426
8.63221	0.485
8.67196	0.581
8.71172	0.666
8.75147	0.712
8.79123	0.72
8.83098	0.697
8.87073	0.661
8.91049	0.598
8.95024	0.495
8.99	0.416
9.02975	0.332
9.06951	0.245
9.10926	0.2
9.14901	0.259
9.18877	0.397
9.22852	0.564
9.26828	0.677
9.30803	0.747
9.34779	0.775
9.38754	0.797
9.42729	0.807
9.46705	0.812
9.5068	0.815
9.54656	0.818
9.58631	0.832
9.62607	0.853
9.66582	0.88
9.70557	0.888
9.74533	0.897
9.78508	0.898
9.82484	0.895
9.86459	0.885
9.90435	0.878
9.9441	0.872
9.98385	0.872
10.0236	0.88
10.0634	0.89
10.1031	0.89
10.1429	0.888
10.1826	0.877
10.2224	0.873
10.2621	0.863
10.3019	0.857
10.3416	0.857
10.3814	0.857
10.4212	0.853
10.4609	0.845
10.5007	0.818
10.5404	0.784
10.5802	0.737
10.6199	0.709
10.6597	0.717
10.6994	0.749
10.7392	0.762
10.7789	0.812
10.8187	0.863
10.8584	0.888
10.8982	0.901
10.938	0.905
10.9777	0.903
11.0175	0.892
11.0572	0.875
11.097	0.853
11.1367	0.875
11.1765	0.895
11.2162	0.903
11.256	0.905
11.2957	0.897
11.3355	0.888
11.3753	0.885
11.415	0.885
11.4548	0.898
11.4945	0.906
11.5343	0.915
11.574	0.915
11.6138	0.926
11.6535	0.925
11.6933	0.928
11.733	0.931
11.7728	0.933
11.8126	0.933
11.8523	0.933
11.8921	0.933
11.9318	0.931
11.9716	0.931
12.0113	0.926
12.0511	0.92
12.0908	0.918
12.1306	0.913
12.1703	0.903
12.2101	0.898
12.2498	0.893
12.2896	0.892
12.3294	0.882
12.3691	0.872
12.4089	0.858
12.4486	0.848
12.4884	0.842
12.5281	0.852
12.5679	0.853
12.6076	0.852
12.6474	0.852
12.6871	0.845
12.7269	0.845
12.7667	0.847
12.8064	0.842
12.8462	0.835
12.8859	0.825
12.9257	0.813
12.9654	0.8
13.0052	0.79
13.0449	0.779
13.0847	0.772
13.1244	0.775
13.1642	0.79
13.2039	0.797
13.2437	0.799
13.2835	0.784
13.3232	0.769
13.363	0.749
13.4027	0.732
13.4425	0.722
13.4822	0.722
13.522	0.719
13.5617	0.702
13.6015	0.682
13.6412	0.679
13.681	0.702
13.7208	0.742
13.7605	0.782
13.8003	0.813
13.84	0.84
13.8798	0.85
13.9195	0.865
13.9593	0.878
13.999	0.888
14.0388	0.897
14.0785	0.9
14.1183	0.901
14.1581	0.9
14.1978	0.898
14.2376	0.898
14.2773	0.897
14.3171	0.892
14.3568	0.89
14.3966	0.888
14.4363	0.885
14.4761	0.888
14.5158	0.887
14.5556	0.888
14.5953	0.892
14.6351	0.89
14.6749	0.89
14.7146	0.89
14.7544	0.887
14.7941	0.888
14.8339	0.885
14.8736	0.888
14.9134	0.885
14.9531	0.883
14.9929	0.875
15.0326	0.853
15.0724	0.84
15.1122	0.843
15.1519	0.862
15.1917	0.86
15.2314	0.855
15.2712	0.847
15.3109	0.842
15.3507	0.83
15.3904	0.827
15.4302	0.827
15.4699	0.82
15.5097	0.817
15.5495	0.813
15.5892	0.81
15.629	0.81
15.6687	0.812
15.7085	0.808
15.7482	0.8
15.788	0.799
15.8277	0.8
15.8675	0.797
15.9072	0.789
15.947	0.789
15.9867	0.784
