Infrared Spectrum: m-Chlorobiphenyl
Formula: C 12 H 9 Cl
CAS: 2051-61-8
State: gas
Instrument: HP-GC/MS/IRD
Origin: NIST Mass Spectrometry Data Center
1/CM	ABSORBANCE
550	0.000874
562	0.000703
574	0.001501
586	0.0013946
598	0.0004978
610	0.003743
622	0.002698
634	0.000456
646	0.0007106
658	0.0022078
670	0.0062662
682	0.022439
694	0.0332082
706	0.0212192
718	0.0073948
730	0.0061902
742	0.0177498
754	0.038
766	0.0186732
778	0.0136914
790	0.0207404
802	0.0159106
814	0.0042522
826	0.0014326
838	0.0010488
850	0.0005016
862	0.001311
874	0.0045334
886	0.0055138
898	0.0017214
910	0.0005548
922	0.0003496
934	4.18e-05
946	3.8e-06
958	0.0003648
970	0.0006612
982	0.0004864
994	0.0013946
1006	0.0022952
1018	0.002964
1030	0.0033402
1042	0.00703
1054	0.0051718
1066	0.0048374
1078	0.0087362
1090	0.0126046
1102	0.0119624
1114	0.0048184
1126	0.0011096
1138	0.0004674
1150	0.0002052
1162	0.00019
1174	0.0005244
1186	0.0009766
1198	0.0004104
1210	0.0003952
1222	0.0006574
1234	0.0009348
1246	0.002242
1258	0.0023712
1270	0.0032186
1282	0.0038988
1294	0.0011894
1306	0.0008132
1318	0.0007904
1330	0.0009272
1342	0.000912
1354	0.000665
1366	0.0007714
1378	0.0013908
1390	0.0035682
1402	0.0075506
1414	0.0063042
1426	0.0032452
1438	0.0033022
1450	0.010127
1462	0.018164
1474	0.023978
1486	0.0090972
1498	0.0046892
1510	0.0027778
1522	0.0022686
1534	0.0035378
1546	0.006954
1558	0.0151392
1570	0.0191938
1582	0.0213066
1594	0.0296248
1606	0.0081966
1618	0.0028462
1630	0.001102
1642	0.0006916
1654	0.000988
1666	0.0013642
1678	0.0017594
1690	0.0008816
1702	0.0005092
1714	0.0004408
1726	0.0005206
1738	0.0009576
1750	0.0015124
1762	0.0015884
1774	0.001368
1786	0.0019266
1798	0.0022572
1810	0.0010488
1822	0.0006422
1834	0.0005054
1846	0.000931
1858	0.0018202
1870	0.0016454
1882	0.0013718
1894	0.0011324
1906	0.0006004
1918	0.000969
1930	0.0017556
1942	0.001881
1954	0.0015124
1966	0.0007752
1978	0.0002508
1990	0.000171
2002	0.000133
2014	8.36e-05
2026	0.0001102
2038	9.88e-05
2050	0.0001254
2062	0.0001064
2074	8.74e-05
2086	2.66e-05
2098	1.14e-05
2110	2.28e-05
2122	0
2134	1.9e-05
2146	4.56e-05
2158	0.0001026
2170	0.0001064
2182	0.0001178
2194	7.98e-05
2206	5.7e-05
2218	4.56e-05
2230	6.84e-05
2242	0.0001292
2254	0.000152
2266	0.0001368
2278	0.0001292
2290	9.88e-05
2302	7.6e-05
2314	0.000285
2326	0.0001862
2338	0.0002622
2350	0.0001596
2362	0.0001216
2374	0.000133
2386	0.000171
2398	0.000133
2410	0.0001216
2422	0.0001102
2434	8.74e-05
2446	6.84e-05
2458	7.6e-05
2470	7.98e-05
2482	9.12e-05
2494	0.0001064
2506	9.5e-05
2518	6.08e-05
2530	6.46e-05
2542	2.66e-05
2554	7.98e-05
2566	0.000114
2578	0.0001558
2590	0.0001558
2602	0.00019
2614	0.00019
2626	0.0002052
2638	0.0001786
2650	0.0001102
2662	8.74e-05
2674	6.46e-05
2686	6.08e-05
2698	4.94e-05
2710	4.18e-05
2722	3.04e-05
2734	2.28e-05
2746	0
2758	3.04e-05
2770	7.22e-05
2782	8.74e-05
2794	0.0001026
2806	9.5e-05
2818	0.0001634
2830	0.000133
2842	0.0002014
2854	0.000342
2866	0.0004408
2878	0.0003914
2890	0.000361
2902	0.0003344
2914	0.000361
2926	0.000437
2938	0.0004598
2950	0.0004978
2962	0.0005282
2974	0.0005966
2986	0.0007942
2998	0.0012426
3010	0.0024244
3022	0.0058748
3034	0.011723
3046	0.0104538
3058	0.012293
3070	0.0232028
3082	0.0167276
3094	0.0102068
3106	0.005396
3118	0.0024814
3130	0.0011666
3142	0.0007638
3154	0.0006156
3166	0.0003952
3178	0.0002964
3190	0.0002698
3202	0.000152
3214	0.000152
3226	6.46e-05
3238	0.0001102
3250	7.22e-05
3262	0.0001064
3274	0.0001064
3286	0
3298	5.7e-05
3310	5.32e-05
3322	5.7e-05
3334	9.12e-05
3346	7.98e-05
3358	7.22e-05
3370	5.32e-05
3382	9.5e-05
3394	6.84e-05
3406	3.42e-05
3418	6.08e-05
3430	6.84e-05
3442	0.0001178
3454	9.5e-05
3466	6.08e-05
3478	8.74e-05
3490	7.98e-05
3502	0.0001406
3514	4.94e-05
3526	0.0001254
3538	2.66e-05
3550	8.74e-05
3562	8.36e-05
3574	0
3586	0.0001026
3598	8.36e-05
3610	0.0001406
3622	0.0001026
3634	0.0001368
3646	0.0002394
3658	0.0002014
3670	0.0002888
3682	0.0002318
3694	0.000323
3706	0.0002736
3718	0.0002622
3730	0.0002128
3742	0.0003002
3754	0.0002774
3766	0.0002622
3778	0.0002356
3790	0.000133
3802	0.0002394
3814	0.0002166
3826	0.0001672
3838	0.000247
