Infrared Spectrum: BIPHENYL, 2-CHLORO-
Formula: C12 H9 Cl
CAS: 2051-60-7
State: SOLUTION (10% IN CCl4 FOR 3800-1333 AND 10% IN CS2 FOR 1333-450 CM^-^1)
Class: COBLENTZ III
Instrument: DOW KBr FOREPRISM-GRATING
Instrument parameters: BLAZED AT 3.5, 12.0, 20.0 MICRON, CHANGED AT 5.0, 7.5, 14.9 MICRON
Sampling: TRANSMISSION
Path length: 0.011, 0.011 CM
Resolution: 4
Origin: DOW CHEMICAL COMPANY
1/CM	TRANSMITTANCE
451.249	0.812
459.935	0.747
468.621	0.917
477.308	0.955
485.994	0.966
494.68	0.967
503.366	0.971
512.053	0.972
520.739	0.959
529.425	0.89
538.111	0.793
546.797	0.905
555.484	0.7309
564.17	0.96
572.856	0.987
581.542	0.998
590.229	1.002
598.915	1.001
607.601	0.989
616.287	0.865
624.974	0.979
633.66	0.981
642.346	0.957
651.032	0.933
659.718	0.933
668.405	0.909
677.091	0.617
685.777	0.795
694.463	0.225
703.15	0.477
711.836	0.857
720.522	0.78
729.208	0.852
737.894	0.655
746.581	0.004
755.267	0.416
763.953	0.468
772.639	0.7121
781.326	0.93
790.012	0.953
798.698	0.962
807.384	0.967
816.07	0.971
824.757	0.96
833.443	0.926
842.129	0.864
850.815	0.801
859.502	0.793
868.188	0.849
876.874	0.891
885.56	0.941
894.247	0.97
902.933	0.955
911.619	0.797
920.305	0.964
928.991	0.971
937.678	0.906
946.364	0.968
955.05	0.975
963.736	0.964
972.423	0.966
981.109	0.96
989.795	0.963
998.481	0.941
1007.17	0.3352
1015.85	0.953
1024.54	0.879
1033.23	0.3019
1041.91	0.831
1050.6	0.955
1059.28	0.913
1067.97	0.772
1076.66	0.588
1085.34	0.938
1094.03	0.976
1102.72	0.976
1111.4	0.967
1120.09	0.944
1128.77	0.7341
1137.46	0.964
1146.15	0.955
1154.83	0.907
1163.52	0.943
1172.21	0.949
1180.89	0.918
1189.58	0.972
1198.26	0.998
1206.95	1.004
1215.64	1.004
1224.32	0.987
1233.01	0.99
1241.7	0.93
1250.38	0.933
1259.07	0.898
1267.75	0.921
1276.44	0.956
1285.13	0.956
1293.81	0.948
1302.5	0.968
1311.19	0.972
1319.87	0.976
1328.56	0.962
1337.24	0.976
1345.93	0.985
1354.62	1.001
1363.3	0.995
1371.99	0.978
1380.68	0.959
1389.36	0.947
1398.05	0.933
1406.73	0.925
1415.42	0.833
1424.11	0.3939
1432.79	0.725
1441.48	0.74
1450.16	0.5981
1458.85	0.805
1467.54	0.1829
1476.22	0.6791
1484.91	0.858
1493.6	0.83
1502.28	0.74
1510.97	0.732
1519.65	0.708
1528.34	0.677
1537.03	0.591
1545.71	0.5
1554.4	0.507
1563.09	0.535
1571.77	0.632
1580.46	0.587
1589.14	0.654
1597.83	0.74
1606.52	0.804
1615.2	0.85
1623.89	0.932
1632.58	0.938
1641.26	0.955
1649.95	0.963
1658.63	0.96
1667.32	0.962
1676.01	0.953
1684.69	0.929
1693.38	0.937
1702.07	0.959
1710.75	0.962
1719.44	0.96
1728.12	0.955
1736.81	0.962
1745.5	0.949
1754.18	0.921
1762.87	0.955
1771.56	0.953
1780.24	0.959
1788.93	0.956
1797.61	0.899
1806.3	0.8531
1814.99	0.943
1823.67	0.936
1832.36	0.921
1841.05	0.944
1849.73	0.955
1858.42	0.952
1867.1	0.941
1875.79	0.89
1884.48	0.911
1893.16	0.906
1901.85	0.945
1910.53	0.895
1919.22	0.895
1927.91	0.948
1936.59	0.924
1945.28	0.848
1953.97	0.918
1962.65	0.918
1971.34	0.956
1980.02	0.957
1988.71	0.955
1997.4	0.955
2006.08	0.967
2014.77	0.968
2023.46	0.97
2032.14	0.975
2040.83	0.972
2049.51	0.972
2058.2	0.9729
2066.89	0.975
2075.57	0.976
2084.26	0.978
2092.95	0.979
2101.63	0.979
2110.32	0.978
2119	0.982
2127.69	0.9802
2136.38	0.9824
2145.06	0.9786
2153.75	0.9768
2162.44	0.981
2171.12	0.978
2179.81	0.981
2188.49	0.982
2197.18	0.982
2205.87	0.982
2214.55	0.982
2223.24	0.9816
2231.93	0.978
2240.61	0.9773
2249.3	0.9773
2257.98	0.964
2266.67	0.97
2275.36	0.962
2284.04	0.9544
2292.73	0.9523
2301.42	0.9579
2310.1	0.9611
2318.79	0.949
2327.47	0.9584
2336.16	0.9686
2344.85	0.975
2353.53	0.9916
2362.22	0.9907
2370.9	0.9897
2379.59	0.9845
2388.28	0.982
2396.96	0.981
2405.65	0.982
2414.34	0.9835
2423.02	0.986
2431.71	0.987
2440.39	0.987
2449.08	0.987
2457.77	0.9862
2466.45	0.987
2475.14	0.987
2483.83	0.987
2492.51	0.987
2501.2	0.986
2509.88	0.9858
2518.57	0.978
2527.26	0.9887
2535.94	0.9807
2544.63	0.9743
2553.32	0.9819
2562	0.9851
2570.69	0.9856
2579.37	0.983
2588.06	0.9789
2596.75	0.978
2605.43	0.9751
2614.12	0.9832
2622.81	0.9817
2631.49	0.983
2640.18	0.9856
2648.86	0.9832
2657.55	0.9851
2666.24	0.99
2674.92	0.989
2683.61	0.9848
2692.3	0.9939
2700.98	0.989
2709.67	0.987
2718.35	0.987
2727.04	0.9871
2735.73	0.991
2744.41	0.986
2753.1	0.987
2761.79	0.989
2770.47	0.986
2779.16	0.989
2787.84	0.986
2796.53	0.991
2805.22	0.99
2813.9	0.989
2822.59	0.989
2831.27	0.9787
2839.96	0.985
2848.65	0.983
2857.33	0.983
2866.02	0.983
2874.71	0.978
2883.39	0.9779
2892.08	0.979
2900.76	0.9849
2909.45	0.982
2918.14	0.9811
2926.82	0.978
2935.51	0.9778
2944.2	0.979
2952.88	0.9781
2961.57	0.976
2970.25	0.9702
2978.94	0.964
2987.63	0.9551
2996.31	0.944
3005	0.9103
3013.69	0.8451
3022.37	0.745
3031.06	0.682
3039.74	0.6734
3048.43	0.7723
3057.12	0.6037
3065.8	0.5566
3074.49	0.6597
3083.18	0.7305
3091.86	0.7979
3100.55	0.8969
3109.23	0.9276
3117.92	0.9428
3126.61	0.955
3135.29	0.9678
3143.98	0.97
3152.67	0.976
3161.35	0.978
3170.04	0.983
3178.72	0.9868
3187.41	0.987
3196.1	0.987
3204.78	0.986
3213.47	0.9897
3222.15	0.991
3230.84	0.9903
3239.53	0.993
3248.21	0.993
3256.9	0.993
3265.59	0.9977
3274.27	0.99
3282.96	0.9903
3291.64	0.9994
3300.33	0.991
3309.02	0.9973
3317.7	0.9903
3326.39	0.998
3335.08	0.994
3343.76	0.9957
3352.45	0.995
3361.13	0.995
3369.82	0.991
3378.51	0.9923
3387.19	0.993
3395.88	0.994
3404.57	0.9918
3413.25	0.991
3421.94	0.994
3430.62	0.991
3439.31	0.991
3448	0.991
3456.68	0.9904
3465.37	0.9894
3474.06	0.991
3482.74	0.9879
3491.43	0.987
3500.11	0.99
3508.8	0.987
3517.49	0.991
3526.17	0.9905
3534.86	0.989
3543.55	0.99
3552.23	0.9916
3560.92	0.992
3569.6	0.989
3578.29	0.9895
3586.98	0.9895
3595.66	0.989
3604.35	0.993
3613.04	0.986
3621.72	0.9881
3630.41	0.9785
3639.09	0.9865
3647.78	0.982
3656.47	0.9834
3665.15	0.9882
3673.84	0.9808
3682.52	0.9772
3691.21	0.9749
3699.9	0.9839
3708.58	0.986
3717.27	0.9913
3725.96	0.9907
3734.64	0.9992
3743.33	0.9856
3752.01	0.985
3760.7	0.983
3769.39	0.985
3778.07	0.986
3786.76	0.991
