Infrared Spectrum: DECAHYDROQUINOLINE
Formula: C9 H17 N
CAS: 2051-28-7
State: LIQUID
Boiling point: 70-73 C AT 10 mmHg
Class: COBLENTZ
Instrument: Not specified, most likely a prism, grating, or hybrid spectrometer.
Sampling: TRANSMISSION
Path length: 0.005 CM
Resolution: 4
Origin: WYANDOTTE CHEMICALS CORP., WYANDOTTE, MICHIGAN, USA
MICROMETERS	TRANSMITTANCE
2.048	0.953
2.08687	0.979
2.12575	0.979
2.16462	0.92
2.2035	0.817
2.24237	0.791
2.28125	0.812
2.32012	0.806
2.359	0.806
2.39787	0.84
2.43674	0.856
2.47562	0.858
2.51449	0.872
2.55337	0.872
2.59224	0.87
2.63112	0.877
2.66999	0.846
2.70887	0.841
2.74774	0.769
2.78661	0.632
2.82549	0.509
2.86436	0.42
2.90324	0.369
2.94211	0.338
2.98099	0.306
3.01986	0.198
3.05874	0.148
3.09761	0.246
3.13648	0.327
3.17536	0.398
3.21423	0.458
3.25311	0.466
3.29198	0.404
3.33086	0.088
3.36973	0.019
3.40861	0.014
3.44748	0.016
3.48635	0.02
3.52523	0.022
3.5641	0.024
3.60298	0.037
3.64185	0.05
3.68073	0.064
3.7196	0.182
3.75847	0.232
3.79735	0.354
3.83622	0.351
3.8751	0.506
3.91397	0.658
3.95285	0.672
3.99172	0.732
4.0306	0.764
4.06947	0.769
4.10834	0.808
4.14722	0.811
4.18609	0.829
4.22497	0.829
4.26384	0.84
4.30272	0.837
4.34159	0.832
4.38047	0.833
4.41934	0.83
4.45821	0.833
4.49709	0.827
4.53596	0.824
4.57484	0.814
4.61371	0.816
4.65259	0.825
4.69146	0.841
4.73034	0.859
4.76921	0.875
4.80808	0.879
4.84696	0.879
4.88583	0.872
4.92471	0.874
4.96358	0.879
5.00246	0.88
5.04133	0.864
5.08021	0.875
5.11908	0.87
5.15795	0.882
5.19683	0.885
5.2357	0.875
5.27458	0.879
5.31345	0.885
5.35233	0.887
5.3912	0.887
5.43008	0.885
5.46895	0.882
5.50782	0.875
5.5467	0.875
5.58557	0.88
5.62445	0.883
5.66332	0.867
5.7022	0.859
5.74107	0.846
5.77995	0.838
5.81882	0.812
5.85769	0.788
5.89657	0.759
5.93544	0.704
5.97432	0.667
6.01319	0.648
6.05207	0.619
6.09094	0.64
6.12982	0.693
6.16869	0.714
6.20756	0.719
6.24644	0.685
6.28531	0.658
6.32419	0.738
6.36306	0.756
6.40194	0.775
6.44081	0.769
6.47969	0.766
6.51856	0.75
6.55743	0.706
6.59631	0.624
6.63518	0.566
6.67406	0.451
6.71293	0.333
6.75181	0.096
6.79068	0.032
6.82956	0.029
6.86843	0.027
6.9073	0.032
6.94618	0.062
6.98505	0.245
7.02393	0.42
7.0628	0.488
7.10168	0.514
7.14055	0.509
7.17942	0.369
7.2183	0.28
7.25717	0.269
7.29605	0.137
7.33492	0.145
7.3738	0.166
7.41267	0.116
7.45155	0.058
7.49042	0.296
7.52929	0.317
7.56817	0.185
7.60704	0.048
7.64592	0.053
7.68479	0.259
7.72367	0.32
7.76254	0.401
7.80142	0.477
7.84029	0.491
7.87916	0.43
7.91804	0.303
7.95691	0.332
7.99579	0.309
8.03466	0.14
8.07354	0.225
8.11241	0.353
8.15129	0.533
8.19016	0.559
8.22903	0.601
8.26791	0.616
8.30678	0.585
8.34566	0.454
8.38453	0.285
8.42341	0.246
8.46228	0.125
8.50116	0.27
8.54003	0.304
8.5789	0.335
8.61778	0.329
8.65665	0.217
8.69553	0.062
8.7344	0.038
8.77328	0.05
8.81215	0.037
8.85103	0.04
8.8899	0.045
8.92877	0.048
8.96765	0.04
9.00652	0.153
9.0454	0.227
9.08427	0.282
9.12315	0.193
9.16202	0.272
9.2009	0.341
9.23977	0.312
9.27864	0.138
9.31752	0.088
9.35639	0.262
9.39527	0.383
9.43414	0.272
9.47302	0.364
9.51189	0.37
9.55077	0.319
9.58964	0.372
9.62851	0.49
9.66739	0.532
9.70626	0.512
9.74514	0.538
9.78401	0.57
9.82289	0.443
9.86176	0.464
9.90064	0.469
9.93951	0.354
9.97838	0.29
10.0173	0.209
10.0561	0.117
10.095	0.108
10.1339	0.135
10.1728	0.235
10.2116	0.303
10.2505	0.272
10.2894	0.193
10.3283	0.333
10.3671	0.475
10.406	0.52
10.4449	0.514
10.4838	0.44
10.5226	0.35
10.5615	0.364
10.6004	0.454
10.6392	0.432
10.6781	0.39
10.717	0.358
10.7559	0.327
10.7947	0.288
10.8336	0.195
10.8725	0.125
10.9114	0.216
10.9502	0.309
10.9891	0.295
11.028	0.13
11.0669	0.122
11.1057	0.246
11.1446	0.224
11.1835	0.258
11.2224	0.329
11.2612	0.277
11.3001	0.319
11.339	0.356
11.3779	0.387
11.4167	0.372
11.4556	0.358
11.4945	0.391
11.5334	0.341
11.5722	0.279
11.6111	0.198
11.65	0.169
11.6889	0.146
11.7277	0.119
11.7666	0.095
11.8055	0.054
11.8444	0.046
11.8832	0.075
11.9221	0.103
11.961	0.127
11.9999	0.087
12.0387	0.104
12.0776	0.216
12.1165	0.24
12.1554	0.237
12.1942	0.212
12.2331	0.195
12.272	0.179
12.3108	0.167
12.3497	0.154
12.3886	0.153
12.4275	0.158
12.4663	0.153
12.5052	0.138
12.5441	0.114
12.583	0.09
12.6218	0.07
12.6607	0.054
12.6996	0.043
12.7385	0.04
12.7773	0.037
12.8162	0.035
12.8551	0.043
12.894	0.048
12.9328	0.051
12.9717	0.048
13.0106	0.048
13.0495	0.051
13.0883	0.067
13.1272	0.072
13.1661	0.069
13.205	0.064
13.2438	0.053
13.2827	0.046
13.3216	0.04
13.3605	0.038
13.3993	0.033
13.4382	0.037
13.4771	0.038
13.516	0.04
13.5548	0.048
13.5937	0.059
13.6326	0.07
13.6715	0.08
13.7103	0.096
13.7492	0.093
13.7881	0.109
13.827	0.125
13.8658	0.137
13.9047	0.166
13.9436	0.182
13.9825	0.2
14.0213	0.232
14.0602	0.262
14.0991	0.283
14.1379	0.312
14.1768	0.338
14.2157	0.379
14.2546	0.403
14.2934	0.435
14.3323	0.456
14.3712	0.485
14.4101	0.498
14.4489	0.517
14.4878	0.527
14.5267	0.533
14.5656	0.543
14.6044	0.554
14.6433	0.566
14.6822	0.577
14.7211	0.58
14.7599	0.582
14.7988	0.583
14.8377	0.588
14.8766	0.59
14.9154	0.6
14.9543	0.6
14.9932	0.596
15.0321	0.587
15.0709	0.588
15.1098	0.6
15.1487	0.598
15.1876	0.595
15.2264	0.59
15.2653	0.587
15.3042	0.577
15.3431	0.572
15.3819	0.566
15.4208	0.551
15.4597	0.533
15.4986	0.52
15.5374	0.498
15.5763	0.485
15.6152	0.472
15.6541	0.461
15.6929	0.45
15.7318	0.433
15.7707	0.425
15.8095	0.432
15.8484	0.432
15.8873	0.433
15.9262	0.454
15.965	0.483
16.0039	0.5
