Infrared Spectrum: 2,6-Dimethyloctane
Formula: C 10 H 22
CAS: 2051-30-1
State: gas
Instrument: HP-GC/MS/IRD
Origin: NIST Mass Spectrometry Data Center
1/CM	ABSORBANCE
550	0.0001269
562	0.0001809
574	9.18e-05
586	5.4e-06
598	6.75e-05
610	9.99e-05
622	9.45e-05
634	1.35e-05
646	9.45e-05
658	8.37e-05
670	0.0002214
682	0.0001107
694	0.0001296
706	0.0001701
718	0.0002241
730	0.0002808
742	0.0002403
754	0.0002349
766	0.0003186
778	0.0003294
790	0.0002889
802	0.0002673
814	0.0002079
826	0.0002565
838	0.0001809
850	0.0002079
862	0.0001728
874	0.0001431
886	0.0002025
898	0.0001836
910	0.0002592
922	0.0002862
934	0.0002511
946	0.0003159
958	0.0003699
970	0.0004671
982	0.0004104
994	0.0003159
1006	0.0003672
1018	0.0003483
1030	0.0003105
1042	0.0002241
1054	0.0002052
1066	0.0001836
1078	0.0001782
1090	0.0001998
1102	0.000189
1114	0.0002457
1126	0.0003402
1138	0.000432
1150	0.000594
1162	0.0007317
1174	0.0006372
1186	0.000324
1198	0.000324
1210	0.0003375
1222	0.0003024
1234	0.0003321
1246	0.0003402
1258	0.0003537
1270	0.0004293
1282	0.0004455
1294	0.0004995
1306	0.0005589
1318	0.0006129
1330	0.0007479
1342	0.0008748
1354	0.0011637
1366	0.0018009
1378	0.0026055
1390	0.0024057
1402	0.0009801
1414	0.0006237
1426	0.0006561
1438	0.0010989
1450	0.0021303
1462	0.0034371
1474	0.0029052
1486	0.0013824
1498	0.0006696
1510	0.000378
1522	0.00027
1534	0.0002079
1546	0.0001917
1558	0.0001809
1570	0.0001917
1582	0.0001836
1594	0.0001593
1606	0.0001512
1618	0.0001377
1630	0.0001485
1642	0.0001458
1654	0.0001134
1666	0.0001485
1678	0.0001107
1690	0.000135
1702	9.18e-05
1714	6.75e-05
1726	9.99e-05
1738	7.02e-05
1750	7.02e-05
1762	6.48e-05
1774	8.1e-05
1786	8.1e-05
1798	4.86e-05
1810	6.48e-05
1822	5.94e-05
1834	6.21e-05
1846	2.16e-05
1858	4.59e-05
1870	6.75e-05
1882	4.59e-05
1894	3.78e-05
1906	3.78e-05
1918	2.97e-05
1930	2.16e-05
1942	4.59e-05
1954	1.62e-05
1966	2.7e-05
1978	4.59e-05
1990	3.78e-05
2002	2.97e-05
2014	2.7e-05
2026	4.59e-05
2038	4.32e-05
2050	3.24e-05
2062	4.05e-05
2074	4.05e-05
2086	2.97e-05
2098	1.62e-05
2110	1.62e-05
2122	5.4e-06
2134	4.05e-05
2146	1.08e-05
2158	2.7e-05
2170	8.1e-06
2182	2.43e-05
2194	1.35e-05
2206	2.43e-05
2218	2.43e-05
2230	5.4e-06
2242	1.62e-05
2254	2.7e-05
2266	3.51e-05
2278	4.05e-05
2290	4.05e-05
2302	2.97e-05
2314	3.51e-05
2326	1.89e-05
2338	2.16e-05
2350	3.78e-05
2362	3.78e-05
2374	4.59e-05
2386	4.32e-05
2398	5.13e-05
2410	5.4e-05
2422	5.4e-05
2434	4.05e-05
2446	4.32e-05
2458	5.67e-05
2470	6.21e-05
2482	5.67e-05
2494	7.02e-05
2506	5.67e-05
2518	7.29e-05
2530	0.0001053
2542	8.91e-05
2554	8.1e-05
2566	0.0001323
2578	0.0001647
2590	0.000189
2602	0.000216
2614	0.0002241
2626	0.0002241
2638	0.000243
2650	0.0002511
2662	0.0002484
2674	0.0002619
2686	0.0002808
2698	0.000297
2710	0.0003537
2722	0.0004482
2734	0.0005157
2746	0.0005265
2758	0.0005184
2770	0.00054
2782	0.0006291
2794	0.0007776
2806	0.0009909
2818	0.0012987
2830	0.0018495
2842	0.0031968
2854	0.0059373
2866	0.0088452
2878	0.0117153
2890	0.0117558
2902	0.0127035
2914	0.0164943
2926	0.0201096
2938	0.0207711
2950	0.0193131
2962	0.0262629
2974	0.0202365
2986	0.0069741
2998	0.0029889
3010	0.0017523
3022	0.0011988
3034	0.0009666
3046	0.0008127
3058	0.000729
3070	0.0006723
3082	0.0006183
3094	0.0005319
3106	0.0004617
3118	0.0004185
3130	0.0004428
3142	0.0003645
3154	0.0003915
3166	0.0003645
3178	0.000351
3190	0.0003348
3202	0.0002592
3214	0.0001566
3226	0.0001593
3238	0.0001161
3250	0.0001053
3262	0.0001188
3274	9.99e-05
3286	7.29e-05
3298	0.0001188
3310	9.18e-05
3322	0.0001242
3334	0.0001161
3346	0.0001431
3358	0.0001242
3370	9.99e-05
3382	8.1e-05
3394	9.72e-05
3406	8.1e-05
3418	6.48e-05
3430	9.72e-05
3442	7.56e-05
3454	5.67e-05
3466	2.7e-06
3478	4.86e-05
3490	2.16e-05
3502	4.32e-05
3514	6.48e-05
3526	6.48e-05
3538	4.59e-05
3550	8.1e-05
3562	6.48e-05
3574	7.02e-05
3586	4.32e-05
3598	9.45e-05
3610	3.78e-05
3622	8.64e-05
3634	7.56e-05
3646	8.1e-05
3658	1.62e-05
3670	5.4e-05
3682	0.000108
3694	8.64e-05
3706	9.72e-05
3718	9.99e-05
3730	7.83e-05
3742	6.48e-05
3754	7.83e-05
3766	0.0001026
3778	9.18e-05
3790	8.64e-05
3802	0.0001107
3814	7.29e-05
3826	0.0001188
3838	0.0001323
