Infrared Spectrum: RESORCINOL, 4-(PHENYLAZO)-
Formula: C12 H10 N2 O2
CAS: 2051-85-6
State: SOLID (OIL MULL)
Melting point: 166.5 C (DECOMPOSES)
Class: COBLENTZ III
Instrument: BAIRD (PRISM)
Instrument parameters: NaCl PRISM
Sampling: TRANSMISSION
Resolution: 2
Origin: WYANDOTTE CHEMICALS CORP.
MICROMETERS	TRANSMITTANCE
2.009	0.568
2.04807	0.57
2.08714	0.579
2.12621	0.586
2.16528	0.599
2.20436	0.599
2.24343	0.595
2.2825	0.602
2.32157	0.611
2.36064	0.62
2.39971	0.622
2.43878	0.631
2.47785	0.646
2.51692	0.647
2.55599	0.657
2.59507	0.667
2.63414	0.668
2.67321	0.678
2.71228	0.684
2.75135	0.681
2.79042	0.679
2.82949	0.668
2.86856	0.649
2.90763	0.641
2.9467	0.628
2.98578	0.622
3.02485	0.617
3.06392	0.617
3.10299	0.621
3.14206	0.621
3.18113	0.626
3.2202	0.626
3.25927	0.612
3.29834	0.585
3.33741	0.468
3.37649	0.128
3.41556	0.077
3.45463	0.177
3.4937	0.204
3.53277	0.364
3.57184	0.622
3.61091	0.648
3.64998	0.655
3.68905	0.655
3.72812	0.662
3.7672	0.669
3.80627	0.681
3.84534	0.692
3.88441	0.7
3.92348	0.71
3.96255	0.711
4.00162	0.717
4.04069	0.727
4.07976	0.731
4.11883	0.739
4.15791	0.743
4.19698	0.747
4.23605	0.753
4.27512	0.759
4.31419	0.785
4.35326	0.797
4.39233	0.803
4.4314	0.806
4.47047	0.808
4.50954	0.812
4.54862	0.816
4.58769	0.829
4.62676	0.831
4.66583	0.833
4.7049	0.843
4.74397	0.849
4.78304	0.853
4.82211	0.855
4.86118	0.86
4.90025	0.863
4.93933	0.868
4.9784	0.869
5.01747	0.87
5.05654	0.874
5.09561	0.877
5.13468	0.885
5.17375	0.884
5.21282	0.886
5.25189	0.886
5.29096	0.893
5.33004	0.9
5.36911	0.9
5.40818	0.902
5.44725	0.902
5.48632	0.901
5.52539	0.907
5.56446	0.902
5.60353	0.908
5.6426	0.909
5.68167	0.916
5.72075	0.913
5.75982	0.916
5.79889	0.911
5.83796	0.914
5.87703	0.909
5.9161	0.907
5.95517	0.905
5.99424	0.901
6.03331	0.875
6.07238	0.806
6.11146	0.691
6.15053	0.7
6.1896	0.712
6.22867	0.678
6.26774	0.692
6.30681	0.766
6.34588	0.813
6.38495	0.811
6.42402	0.784
6.46309	0.743
6.50217	0.695
6.54124	0.702
6.58031	0.75
6.61938	0.701
6.65845	0.647
6.69752	0.653
6.73659	0.649
6.77566	0.491
6.81473	0.4
6.8538	0.409
6.89288	0.532
6.93195	0.621
6.97102	0.716
7.01009	0.753
7.04916	0.771
7.08823	0.774
7.1273	0.766
7.16637	0.743
7.20544	0.681
7.24451	0.6
7.28359	0.657
7.32266	0.723
7.36173	0.782
7.4008	0.806
7.43987	0.803
7.47894	0.81
7.51801	0.801
7.55708	0.779
7.59615	0.75
7.63522	0.681
7.6743	0.686
7.71337	0.732
7.75244	0.755
7.79151	0.758
7.83058	0.726
7.86965	0.649
7.90872	0.564
7.94779	0.524
7.98686	0.514
8.02593	0.559
8.06501	0.62
8.10408	0.636
8.14315	0.66
8.18222	0.692
8.22129	0.733
8.26036	0.753
8.29943	0.769
8.3385	0.782
8.37757	0.758
8.41664	0.755
8.45572	0.77
8.49479	0.784
8.53386	0.802
8.57293	0.816
8.612	0.779
8.65107	0.705
8.69014	0.759
8.72921	0.813
8.76828	0.839
8.80735	0.85
8.84643	0.842
8.8855	0.808
8.92457	0.796
8.96364	0.801
9.00271	0.792
9.04178	0.786
9.08085	0.853
9.11992	0.88
9.15899	0.893
9.19806	0.898
9.23714	0.896
9.27621	0.884
9.31528	0.858
9.35435	0.856
9.39342	0.868
9.43249	0.882
9.47156	0.889
9.51063	0.891
9.5497	0.893
9.58877	0.895
9.62785	0.896
9.66692	0.901
9.70599	0.907
9.74506	0.906
9.78413	0.906
9.8232	0.916
9.86227	0.921
9.90134	0.923
9.94041	0.935
9.97948	0.942
10.0186	0.932
10.0576	0.933
10.0967	0.942
10.1358	0.944
10.1748	0.935
10.2139	0.921
10.253	0.917
10.2921	0.926
10.3311	0.929
10.3702	0.932
10.4093	0.937
10.4483	0.942
10.4874	0.946
10.5265	0.95
10.5655	0.946
10.6046	0.946
10.6437	0.95
10.6828	0.949
10.7218	0.944
10.7609	0.95
10.8	0.95
10.839	0.946
10.8781	0.946
10.9172	0.95
10.9563	0.946
10.9953	0.95
11.0344	0.953
11.0735	0.949
11.1125	0.946
11.1516	0.938
11.1907	0.934
11.2298	0.938
11.2688	0.946
11.3079	0.95
11.347	0.955
11.386	0.956
11.4251	0.951
11.4642	0.958
11.5033	0.953
11.5423	0.951
11.5814	0.932
11.6205	0.928
11.6595	0.921
11.6986	0.918
11.7377	0.919
11.7768	0.922
11.8158	0.93
11.8549	0.937
11.894	0.945
11.933	0.944
11.9721	0.949
12.0112	0.949
12.0502	0.94
12.0893	0.928
12.1284	0.901
12.1675	0.886
12.2065	0.887
12.2456	0.885
12.2847	0.879
12.3237	0.876
12.3628	0.863
12.4019	0.837
12.441	0.828
12.48	0.849
12.5191	0.892
12.5582	0.9
12.5972	0.919
12.6363	0.927
12.6754	0.94
12.7145	0.95
12.7535	0.955
12.7926	0.963
12.8317	0.963
12.8707	0.965
12.9098	0.965
12.9489	0.959
12.988	0.953
13.027	0.94
13.0661	0.913
13.1052	0.901
13.1442	0.889
13.1833	0.869
13.2224	0.86
13.2614	0.887
13.3005	0.907
13.3396	0.917
13.3787	0.928
13.4177	0.933
13.4568	0.933
13.4959	0.935
13.5349	0.932
13.574	0.929
13.6131	0.929
13.6522	0.927
13.6912	0.924
13.7303	0.926
13.7694	0.927
13.8084	0.923
13.8475	0.924
13.8866	0.924
13.9257	0.928
13.9647	0.948
14.0038	0.95
14.0429	0.959
14.0819	0.966
14.121	0.967
14.1601	0.972
14.1992	0.974
14.2382	0.975
14.2773	0.976
14.3164	0.977
14.3554	0.976
14.3945	0.976
14.4336	0.975
14.4727	0.972
14.5117	0.97
14.5508	0.967
14.5899	0.956
14.6289	0.939
14.668	0.918
14.7071	0.9
14.7461	0.885
14.7852	0.88
14.8243	0.881
14.8634	0.9
14.9024	0.912
14.9415	0.922
14.9806	0.918
15.0196	0.892
15.0587	0.871
15.0978	0.86
15.1369	0.869
15.1759	0.869
15.215	0.87
15.2541	0.864
15.2931	0.858
15.3322	0.853
15.3713	0.843
15.4104	0.834
15.4494	0.823
15.4885	0.812
15.5276	0.803
15.5666	0.787
15.6057	0.781
15.6448	0.775
15.6839	0.76
15.7229	0.752
15.762	0.748
15.8011	0.729
15.8401	0.72
15.8792	0.709
15.9183	0.692
15.9573	0.681
