Infrared Spectrum: N-BENZYLPYRROLE
Formula: C11 H11 N
CAS: 2051-97-0
State: LIQUID
Boiling point: 146-148 C AT 30 mmHg
Class: COBLENTZ
Instrument: Not specified, most likely a prism, grating, or hybrid spectrometer.
Sampling: TRANSMISSION
Path length: 0.003 CM
Resolution: 4
Origin: WYANDOTTE CHEMICALS CORP., WYANDOTTE, MICHIGAN, USA
MICROMETERS	TRANSMITTANCE
2.062	0.998
2.09912	0.996
2.13623	1
2.17335	1.001
2.21047	0.998
2.24759	0.996
2.2847	0.996
2.32182	0.995
2.35894	0.99
2.39606	0.973
2.43317	0.964
2.47029	0.967
2.50741	0.965
2.54453	0.976
2.58164	0.978
2.61876	0.981
2.65588	0.981
2.693	0.975
2.73011	0.97
2.76723	0.978
2.80435	0.972
2.84147	0.975
2.87858	0.964
2.9157	0.931
2.95282	0.919
2.98994	0.911
3.02705	0.936
3.06417	0.944
3.10129	0.937
3.13841	0.925
3.17552	0.894
3.21264	0.707
3.24976	0.654
3.28688	0.583
3.32399	0.813
3.36111	0.808
3.39823	0.642
3.43535	0.721
3.47246	0.762
3.50958	0.782
3.5467	0.87
3.58382	0.864
3.62093	0.898
3.65805	0.934
3.69517	0.937
3.73228	0.936
3.7694	0.94
3.80652	0.937
3.84364	0.933
3.88075	0.912
3.91787	0.923
3.95499	0.942
3.99211	0.94
4.02922	0.939
4.06634	0.93
4.10346	0.926
4.14058	0.934
4.17769	0.94
4.21481	0.931
4.25193	0.922
4.28905	0.934
4.32616	0.939
4.36328	0.944
4.4004	0.937
4.43752	0.939
4.47463	0.936
4.51175	0.926
4.54887	0.934
4.58599	0.937
4.6231	0.939
4.66022	0.939
4.69734	0.937
4.73446	0.939
4.77157	0.942
4.80869	0.948
4.84581	0.95
4.88293	0.948
4.92004	0.945
4.95716	0.945
4.99428	0.939
5.0314	0.94
5.06851	0.931
5.10563	0.916
5.14275	0.888
5.17987	0.861
5.21698	0.898
5.2541	0.923
5.29122	0.92
5.32834	0.905
5.36545	0.884
5.40257	0.897
5.43969	0.916
5.4768	0.917
5.51392	0.905
5.55104	0.855
5.58816	0.881
5.62527	0.912
5.66239	0.912
5.69951	0.903
5.73663	0.891
5.77374	0.856
5.81086	0.828
5.84798	0.816
5.8851	0.807
5.92221	0.779
5.95933	0.78
5.99645	0.828
6.03357	0.856
6.07068	0.874
6.1078	0.869
6.14492	0.83
6.18204	0.67
6.21915	0.76
6.25627	0.751
6.29339	0.757
6.33051	0.688
6.36762	0.642
6.40474	0.603
6.44186	0.615
6.47898	0.642
6.51609	0.654
6.55321	0.651
6.59033	0.517
6.62745	0.132
6.66456	0.219
6.70168	0.665
6.7388	0.741
6.77592	0.737
6.81303	0.552
6.85015	0.178
6.88727	0.346
6.92439	0.314
6.9615	0.525
6.99862	0.611
7.03574	0.66
7.07285	0.668
7.10997	0.628
7.14709	0.589
7.18421	0.615
7.22132	0.671
7.25844	0.724
7.29556	0.651
7.33268	0.444
7.36979	0.34
7.40691	0.578
7.44403	0.692
7.48115	0.699
7.51826	0.678
7.55538	0.73
7.5925	0.665
7.62962	0.53
7.66673	0.426
7.70385	0.426
7.74097	0.199
7.77809	0.135
7.8152	0.153
7.85232	0.261
7.88944	0.435
7.92656	0.632
7.96367	0.72
8.00079	0.771
8.03791	0.8
8.07503	0.822
8.11214	0.813
8.14926	0.822
8.18638	0.828
8.2235	0.813
8.26061	0.776
8.29773	0.748
8.33485	0.763
8.37197	0.777
8.40908	0.79
8.4462	0.796
8.48332	0.8
8.52044	0.816
8.55755	0.827
8.59467	0.833
8.63179	0.813
8.6689	0.828
8.70602	0.855
8.74314	0.88
8.78026	0.883
8.81737	0.878
8.85449	0.861
8.89161	0.835
8.92873	0.8
8.96584	0.751
9.00296	0.718
9.04008	0.656
9.0772	0.548
9.11431	0.323
9.15143	0.093
9.18855	0.135
9.22567	0.265
9.26278	0.259
9.2999	0.276
9.33702	0.211
9.37414	0.261
9.41125	0.365
9.44837	0.402
9.48549	0.639
9.52261	0.724
9.55972	0.772
9.59684	0.793
9.63396	0.783
9.67108	0.653
9.70819	0.424
9.74531	0.628
9.78243	0.74
9.81955	0.783
9.85666	0.808
9.89378	0.819
9.9309	0.818
9.96802	0.791
10.0051	0.81
10.0423	0.822
10.0794	0.818
10.1165	0.813
10.1536	0.805
10.1907	0.794
10.2278	0.755
10.265	0.656
10.3021	0.497
10.3392	0.384
10.3763	0.463
10.4134	0.629
10.4505	0.693
10.4877	0.743
10.5248	0.771
10.5619	0.796
10.599	0.813
10.6361	0.819
10.6732	0.821
10.7104	0.827
10.7475	0.83
10.7846	0.833
10.8217	0.828
10.8588	0.832
10.896	0.824
10.9331	0.813
10.9702	0.805
11.0073	0.799
11.0444	0.794
11.0815	0.797
11.1187	0.808
11.1558	0.814
11.1929	0.825
11.23	0.835
11.2671	0.847
11.3042	0.849
11.3414	0.847
11.3785	0.852
11.4156	0.849
11.4527	0.83
11.4898	0.835
11.5269	0.841
11.5641	0.844
11.6012	0.838
11.6383	0.835
11.6754	0.836
11.7125	0.835
11.7497	0.827
11.7868	0.824
11.8239	0.816
11.861	0.808
11.8981	0.813
11.9352	0.813
11.9724	0.816
12.0095	0.813
12.0466	0.802
12.0837	0.779
12.1208	0.755
12.1579	0.74
12.1951	0.727
12.2322	0.721
12.2693	0.701
12.3064	0.682
12.3435	0.69
12.3806	0.704
12.4178	0.72
12.4549	0.726
12.492	0.73
12.5291	0.726
12.5662	0.723
12.6034	0.726
12.6405	0.73
12.6776	0.751
12.7147	0.754
12.7518	0.748
12.7889	0.729
12.8261	0.701
12.8632	0.667
12.9003	0.628
12.9374	0.608
12.9745	0.6
13.0116	0.603
13.0488	0.601
13.0859	0.595
13.123	0.586
13.1601	0.566
13.1972	0.539
13.2344	0.502
13.2715	0.466
13.3086	0.435
13.3457	0.396
13.3828	0.354
13.4199	0.312
13.4571	0.259
13.4942	0.206
13.5313	0.152
13.5684	0.107
13.6055	0.077
13.6426	0.063
13.6798	0.054
13.7169	0.052
13.754	0.051
13.7911	0.049
13.8282	0.051
13.8653	0.052
13.9025	0.055
13.9396	0.062
13.9767	0.062
14.0138	0.06
14.0509	0.066
14.0881	0.069
14.1252	0.073
14.1623	0.074
14.1994	0.083
14.2365	0.088
14.2736	0.097
14.3108	0.105
14.3479	0.125
14.385	0.138
14.4221	0.153
14.4592	0.178
14.4963	0.205
14.5335	0.27
14.5706	0.345
14.6077	0.426
14.6448	0.513
14.6819	0.572
14.719	0.612
14.7562	0.646
14.7933	0.671
14.8304	0.687
14.8675	0.699
14.9046	0.71
14.9418	0.723
14.9789	0.73
15.016	0.74
15.0531	0.749
15.0902	0.772
15.1273	0.783
15.1645	0.788
15.2016	0.791
15.2387	0.794
15.2758	0.796
15.3129	0.797
15.35	0.802
15.3872	0.802
15.4243	0.802
15.4614	0.8
15.4985	0.799
15.5356	0.796
15.5727	0.793
15.6099	0.796
15.647	0.791
15.6841	0.783
15.7212	0.774
15.7583	0.774
15.7955	0.762
15.8326	0.749
15.8697	0.729
15.9068	0.706
15.9439	0.69
15.981	0.673
