Infrared Spectrum: SEC-OCTYL ACETATE
Formula: C10 H20 O2
CAS: 2051-50-5
State: SOLUTION (10% CCl4 FOR 2.5-7.5, 10% CS2 FOR 7.5-15 MICRON)
Class: COBLENTZ
Instrument: Not specified, most likely a prism, grating, or hybrid spectrometer.
Sampling: TRANSMISSION
Path length: 0.01 CM, 0.01 CM
Resolution: 4
Origin: DOW CHEMICAL COMPANY
MICROMETERS	TRANSMITTANCE
2.07	0.97
2.10904	0.97
2.14807	0.969
2.18711	0.965
2.22615	0.954
2.26518	0.935
2.30422	0.928
2.34326	0.928
2.38229	0.93
2.42133	0.93
2.46036	0.928
2.4994	0.931
2.53844	0.935
2.57747	0.94
2.61651	0.944
2.65555	0.948
2.69458	0.951
2.73362	0.952
2.77266	0.946
2.81169	0.936
2.85073	0.927
2.88977	0.915
2.9288	0.914
2.96784	0.92
3.00687	0.925
3.04591	0.928
3.08495	0.923
3.12398	0.918
3.16302	0.914
3.20206	0.907
3.24109	0.894
3.28013	0.849
3.31917	0.706
3.3582	0.353
3.39724	0.094
3.43628	0.152
3.47531	0.257
3.51435	0.575
3.55338	0.79
3.59242	0.846
3.63146	0.878
3.67049	0.883
3.70953	0.889
3.74857	0.899
3.7876	0.905
3.82664	0.914
3.86568	0.922
3.90471	0.93
3.94375	0.938
3.98279	0.941
4.02182	0.94
4.06086	0.941
4.09989	0.946
4.13893	0.944
4.17797	0.943
4.217	0.951
4.25604	0.952
4.29508	0.951
4.33411	0.949
4.37315	0.944
4.41219	0.941
4.45122	0.941
4.49026	0.943
4.5293	0.941
4.56833	0.938
4.60737	0.936
4.6464	0.94
4.68544	0.941
4.72448	0.94
4.76351	0.938
4.80255	0.936
4.84159	0.933
4.88062	0.933
4.91966	0.936
4.9587	0.936
4.99773	0.936
5.03677	0.936
5.07581	0.938
5.11484	0.935
5.15388	0.931
5.19291	0.928
5.23195	0.925
5.27099	0.92
5.31002	0.915
5.34906	0.915
5.3881	0.909
5.42713	0.902
5.46617	0.897
5.50521	0.876
5.54424	0.852
5.58328	0.808
5.62232	0.74
5.66135	0.615
5.70039	0.354
5.73942	0.085
5.77846	0.061
5.8175	0.173
5.85653	0.46
5.89557	0.606
5.93461	0.703
5.97364	0.74
6.01268	0.76
6.05172	0.786
6.09075	0.816
6.12979	0.846
6.16883	0.865
6.20786	0.878
6.2469	0.889
6.28593	0.891
6.32497	0.893
6.36401	0.897
6.40304	0.904
6.44208	0.907
6.48112	0.904
6.52015	0.893
6.55919	0.886
6.59823	0.876
6.63726	0.849
6.6763	0.831
6.71534	0.789
6.75437	0.664
6.79341	0.356
6.83244	0.34
6.87148	0.405
6.91052	0.486
6.94955	0.539
6.98859	0.589
7.02763	0.636
7.06666	0.661
7.1057	0.687
7.14474	0.664
7.18377	0.581
7.22281	0.303
7.26185	0.142
7.30088	0.162
7.33992	0.439
7.37895	0.526
7.41799	0.646
7.45703	0.724
7.49606	0.753
7.5351	0.764
7.57414	0.758
7.61317	0.724
7.65221	0.7
7.69125	0.672
7.73028	0.635
7.76932	0.568
7.80836	0.471
7.84739	0.388
7.88643	0.277
7.92546	0.124
7.9645	0.059
8.00354	0.04
8.04257	0.032
8.08161	0.037
8.12065	0.108
8.15968	0.218
8.19872	0.363
8.23776	0.507
8.27679	0.564
8.31583	0.586
8.35487	0.615
8.3939	0.675
8.43294	0.722
8.47197	0.756
8.51101	0.758
8.55005	0.722
8.58908	0.696
8.62812	0.675
8.66716	0.628
8.70619	0.585
8.74523	0.573
8.78427	0.555
8.8233	0.476
8.86234	0.361
8.90138	0.325
8.94041	0.332
8.97945	0.486
9.01848	0.601
9.05752	0.69
9.09656	0.719
9.13559	0.722
9.17463	0.669
9.21367	0.604
9.2527	0.559
9.29174	0.549
9.33078	0.541
9.36981	0.513
9.40885	0.481
9.44789	0.45
9.48692	0.413
9.52596	0.38
9.56499	0.361
9.60403	0.343
9.64307	0.338
9.6821	0.335
9.72114	0.337
9.76018	0.337
9.79921	0.327
9.83825	0.327
9.87729	0.377
9.91632	0.465
9.95536	0.565
9.9944	0.651
10.0334	0.705
10.0725	0.732
10.1115	0.768
10.1505	0.789
10.1896	0.794
10.2286	0.771
10.2677	0.739
10.3067	0.732
10.3457	0.739
10.3848	0.739
10.4238	0.717
10.4628	0.62
10.5019	0.546
10.5409	0.508
10.5799	0.534
10.619	0.69
10.658	0.766
10.6971	0.82
10.7361	0.852
10.7751	0.87
10.8142	0.876
10.8532	0.88
10.8922	0.878
10.9313	0.878
10.9703	0.875
11.0093	0.871
11.0484	0.875
11.0874	0.88
11.1265	0.881
11.1655	0.881
11.2045	0.881
11.2436	0.881
11.2826	0.875
11.3216	0.871
11.3607	0.871
11.3997	0.873
11.4387	0.876
11.4778	0.883
11.5168	0.891
11.5559	0.899
11.5949	0.904
11.6339	0.904
11.673	0.904
11.712	0.904
11.751	0.901
11.7901	0.891
11.8291	0.867
11.8681	0.847
11.9072	0.841
11.9462	0.834
11.9853	0.824
12.0243	0.826
12.0633	0.841
12.1024	0.867
12.1414	0.896
12.1804	0.922
12.2195	0.94
12.2585	0.952
12.2975	0.964
12.3366	0.97
12.3756	0.974
12.4147	0.972
12.4537	0.97
12.4927	0.965
12.5318	0.962
12.5708	0.957
12.6098	0.954
12.6489	0.956
12.6879	0.961
12.7269	0.962
12.766	0.965
12.805	0.969
12.8441	0.974
12.8831	0.975
12.9221	0.977
12.9612	0.977
13.0002	0.98
13.0392	0.98
13.0783	0.978
13.1173	0.978
13.1563	0.974
13.1954	0.97
13.2344	0.964
13.2735	0.961
13.3125	0.957
13.3515	0.957
13.3906	0.957
13.4296	0.957
13.4686	0.954
13.5077	0.951
13.5467	0.946
13.5857	0.938
13.6248	0.922
13.6638	0.897
13.7029	0.868
13.7419	0.836
13.7809	0.813
13.82	0.803
13.859	0.81
13.898	0.836
13.9371	0.87
13.9761	0.897
14.0151	0.912
14.0542	0.925
14.0932	0.936
14.1323	0.946
14.1713	0.952
14.2103	0.954
14.2494	0.956
14.2884	0.957
14.3274	0.959
14.3665	0.961
14.4055	0.962
14.4445	0.962
14.4836	0.964
14.5226	0.967
14.5617	0.967
14.6007	0.969
14.6397	0.97
14.6788	0.97
14.7178	0.972
14.7568	0.972
14.7959	0.972
14.8349	0.969
14.8739	0.967
14.913	0.964
14.952	0.962
14.9911	0.961
15.0301	0.959
15.0691	0.954
15.1082	0.949
15.1472	0.946
15.1862	0.94
15.2253	0.933
15.2643	0.927
15.3034	0.923
15.3424	0.918
15.3814	0.914
15.4205	0.912
15.4595	0.912
15.4985	0.909
15.5376	0.907
15.5766	0.905
15.6156	0.904
15.6547	0.902
15.6937	0.902
15.7328	0.902
15.7718	0.902
15.8108	0.904
15.8499	0.905
15.8889	0.907
15.9279	0.909
15.967	0.91
