Infrared Spectrum: 2,5-Dimethyl-2,4-hexadienedioic acid
Formula: C 8 H 10 O 4
CAS: 20514-41-4
State: gas
Origin: EPA-IR VAPOR PHASE LIBRARY
1/CM	ABSORBANCE
549.8	0.003919
559.445	0.004099
569.09	0.004959
578.734	0.005789
588.379	0.006759
598.024	0.006509
607.669	0.006759
617.313	0.008519
626.958	0.007399
636.603	0.004339
646.248	0.002299
655.893	0.001369
665.537	0.0012324
675.182	0.000551
684.827	0.000693
694.472	0.0008128
704.116	0.0009857
713.761	0.0011153
723.406	0.0010231
733.051	0.001699
742.695	0.001919
752.34	0.002479
761.985	0.002389
771.63	0.002799
781.275	0.002609
790.919	0.002149
800.564	0.001499
810.209	0.0013323
819.854	0.001419
829.498	0.00134
839.143	0.001749
848.788	0.002719
858.433	0.003349
868.078	0.002279
877.722	0.0012488
887.367	0.001539
897.012	0.001769
906.657	0.001689
916.301	0.001899
925.946	0.001389
935.591	0.001539
945.236	0.001859
954.88	0.003199
964.525	0.004899
974.17	0.005929
983.815	0.005379
993.46	0.005249
1003.1	0.005489
1012.75	0.007449
1022.39	0.012309
1032.04	0.018329
1041.68	0.019449
1051.33	0.018489
1060.97	0.018269
1070.62	0.017839
1080.26	0.015669
1089.91	0.013749
1099.55	0.013359
1109.2	0.014869
1118.84	0.015909
1128.49	0.013069
1138.13	0.013219
1147.78	0.013479
1157.42	0.011199
1167.07	0.008799
1176.71	0.006579
1186.36	0.004869
1196	0.004129
1205.64	0.004219
1215.29	0.002529
1224.93	0.001509
1234.58	0.001989
1244.22	0.002149
1253.87	0.002839
1263.51	0.002529
1273.16	0.003419
1282.8	0.003599
1292.45	0.004289
1302.09	0.004739
1311.74	0.004859
1321.38	0.005009
1331.03	0.005119
1340.67	0.005219
1350.32	0.004889
1359.96	0.004389
1369.61	0.004189
1379.25	0.004169
1388.9	0.004269
1398.54	0.003379
1408.18	0.002279
1417.83	0.001679
1427.47	0.001559
1437.12	0.001899
1446.76	0.002589
1456.41	0.003539
1466.05	0.003369
1475.7	0.002079
1485.34	0.0012193
1494.99	0.0010712
1504.63	0.0009106
1514.28	0.0009409
1523.92	0.0009651
1533.57	0.0009067
1543.21	0.0009847
1552.86	0.0009631
1562.5	0.0008709
1572.15	0.0008221
1581.79	0.0007803
1591.44	0.0007317
1601.08	0.0006969
1610.73	0.000738
1620.37	0.000803
1630.01	0.0007407
1639.66	0.0007885
1649.3	0.0011844
1658.95	0.001719
1668.59	0.001809
1678.24	0.001409
1687.88	0.0012976
1697.53	0.001529
1707.17	0.001879
1716.82	0.002619
1726.46	0.003829
1736.11	0.006249
1745.75	0.010319
1755.4	0.017029
1765.04	0.028229
1774.69	0.037389
1784.33	0.053569
1793.98	0.086999
1803.62	0.062549
1813.27	0.017639
1822.91	0.007889
1832.55	0.004719
1842.2	0.003329
1851.84	0.002669
1861.49	0.002129
1871.13	0.001779
1880.78	0.001479
1890.42	0.0012368
1900.07	0.0010311
1909.71	0.0009785
1919.36	0.0008109
1929	0.0007497
1938.65	0.0006584
1948.29	0.0006015
1957.94	0.0005453
1967.58	0.0005541
1977.23	0.0005858
1986.87	0.0006092
1996.52	0.000571
2006.16	0.0005655
2015.81	0.0005459
2025.45	0.000521
2035.1	0.0005236
2044.74	0.000647
2054.38	0.0006369
2064.03	0.0006562
2073.67	0.0006225
2083.32	0.0006055
2092.96	0.0005643
2102.61	0.0006381
2112.25	0.0006338
2121.9	0.0006429
2131.54	0.0006013
2141.19	0.0006187
2150.83	0.0006148
2160.48	0.0005535
2170.12	0.0005775
2179.77	0.0004711
2189.41	0.0004858
2199.06	0.0004642
2208.7	0.00043572
2218.35	0.00037779
2227.99	0.00040735
2237.64	0.0005333
2247.28	0.0005045
2256.92	0.00044128
2266.57	0.0004556
2276.21	0.0005348
2285.86	0.0005467
2295.5	0.0006138
2305.15	0.0005717
2314.79	0.0007439
2324.44	0.0006877
2334.08	0.0007666
2343.73	0.0008086
2353.37	0.0006911
2363.02	0.0008681
2372.66	0.0006967
2382.31	0.000541
2391.95	0.0005124
2401.6	0.0005175
2411.24	0.0005772
2420.89	0.0005321
2430.53	0.00044553
2440.18	0.0004609
2449.82	0.00044671
2459.47	0.0004523
2469.11	0.0004062
2478.75	0.00037259
2488.4	0.00042978
2498.04	0.0004582
2507.69	0.0004299
2517.33	0.0004622
2526.98	0.00037342
2536.62	0.00038886
2546.27	0.00041023
2555.91	0.000358992
2565.56	0.0004837
2575.2	0.0005067
2584.85	0.0004498
2594.49	0.00036934
2604.14	0.000472
2613.78	0.00040577
2623.43	0.00034219
2633.07	0.00038449
2642.72	0.00034036
2652.36	0.00037971
2662.01	0.00043678
2671.65	0.000322
2681.29	0.0002891
2690.94	0.00037379
2700.58	0.0002687
2710.23	0.000353723
2719.87	0.00041507
2729.52	0.00037333
2739.16	0.00039585
2748.81	0.0004613
2758.45	0.0003343
2768.1	0.0003353
2777.74	0.00034035
2787.39	0.0004675
2797.03	0.000353473
2806.68	0.00036935
2816.32	0.00040705
2825.97	0.0004849
2835.61	0.0005646
2845.26	0.0006803
2854.9	0.0007808
2864.55	0.0009985
2874.19	0.001328
2883.84	0.001809
2893.48	0.002589
2903.12	0.002599
2912.77	0.002459
2922.41	0.002689
2932.06	0.003709
2941.7	0.004099
2951.35	0.003579
2960.99	0.002759
2970.64	0.002339
2980.28	0.002909
2989.93	0.004389
2999.57	0.003949
3009.22	0.002239
3018.86	0.0010155
3028.51	0.0006881
3038.15	0.0007196
3047.8	0.0006924
3057.44	0.00071
3067.09	0.0006525
3076.73	0.0007974
3086.38	0.000678
3096.02	0.0005964
3105.67	0.00044338
3115.31	0.0005025
3124.95	0.0004813
3134.6	0.000235
3144.24	0.000218
3153.89	0.00044319
3163.53	0.000352421
3173.18	0.0004295
3182.82	0.00038634
3192.47	0.0002888
3202.11	0.00043483
3211.76	0.0003207
3221.4	0.00042859
3231.05	0.00022
3240.69	0.0002588
3250.34	0.000203
3259.98	0.0002689
3269.63	0.000163
3279.27	0.00041918
3288.92	0.000194
3298.56	0.0002969
3308.21	0.0002858
3317.85	5.8e-05
3327.49	0.000182
3337.14	0.0002524
3346.78	0.000194
3356.43	0.000126
3366.07	7.1e-05
3375.72	0.000231
3385.36	0.0002512
3395.01	0.000356713
3404.65	0.0002816
3414.3	0.000221
3423.94	0.0002593
3433.59	0.000193
3443.23	0.000185
3452.88	0.00036894
3462.52	7.1e-05
3472.17	0.00040497
3481.81	0.0002492
3491.46	0.0002759
3501.1	0.0002559
3510.75	0.0005546
3520.39	0.0007826
3530.04	0.0009173
3539.68	0.0008664
3549.32	0.001639
3558.97	0.005859
3568.61	0.014159
3578.26	0.010689
3587.9	0.002869
3597.55	0.0012216
3607.19	0.000785
3616.84	0.00039869
3626.48	0.0005647
3636.13	0.000222
3645.77	0.00039631
3655.42	0.0002773
3665.06	0.00038905
3674.71	0.00037654
3684.35	0.0002757
3694	0.0003135
3703.64	0.0003824
3713.29	0.000217
3722.93	0.000267
3732.58	0.000114
3742.22	0.000173
3751.86	0.00034531
3761.51	0.0002711
3771.15	0.00036878
3780.8	0.000154
3790.44	6.7e-05
3800.09	0.0003244
3809.73	0.000353186
3819.38	0.000166
3829.02	0.00036613
3838.67	0.000236
3848.31	0.00023
3857.96	0.0003101
3867.6	0.000198
3877.25	0.00041561
3886.89	0.0002806
3896.54	9.4e-05
3906.18	0.000243
3915.83	0.000227
3925.47	0.000139
3935.12	0.0003008
3944.76	0.000118
3954.41	0.000161
3964.05	0.0003343
3973.69	0.0002525
3983.34	8.3e-05
3992.98	1e-06
