Infrared Spectrum: ANILINE, N-ISOPENTYL-
Formula: C11 H17 N
CAS: 2051-84-5
State: LIQUID (NEAT)
Boiling point: 130-132 C AT 18 mmHg
Class: COBLENTZ III
Instrument: BAIRD (GRATING)
Instrument parameters: NaCl PRISM
Sampling: TRANSMISSION
Path length: 0.003 CM
Resolution: 2
Origin: WYANDOTTE CHEMICALS CORP.
1/CM	TRANSMITTANCE
4000	0.8949
3991	0.8955
3982	0.8962
3973	0.8965
3964	0.8967
3955	0.897
3946	0.8971
3937	0.8974
3928	0.8974
3919	0.8974
3910	0.8973
3901	0.8971
3892	0.897
3883	0.8968
3874	0.8974
3865	0.8981
3856	0.8994
3847	0.9007
3838	0.9021
3829	0.9035
3820	0.9049
3811	0.9062
3802	0.9071
3793	0.908
3784	0.9088
3775	0.9097
3766	0.9101
3757	0.9103
3748	0.9106
3739	0.9108
3730	0.9109
3721	0.9108
3712	0.9107
3703	0.9105
3694	0.9102
3685	0.9099
3676	0.9094
3667	0.9091
3658	0.9087
3649	0.9083
3640	0.9078
3631	0.9075
3622	0.9071
3613	0.9067
3604	0.9057
3595	0.9043
3586	0.9027
3577	0.9008
3568	0.8987
3559	0.8956
3550	0.891
3541	0.883
3532	0.8715
3523	0.854
3514	0.823
3505	0.7915
3496	0.7717
3487	0.7461
3478	0.7084
3469	0.6706
3460	0.6325
3451	0.5943
3442	0.5558
3433	0.5356
3424	0.5344
3415	0.5348
3406	0.5422
3397	0.5593
3388	0.5834
3379	0.6078
3370	0.6322
3361	0.6568
3352	0.6815
3343	0.7065
3334	0.7314
3325	0.7565
3316	0.7724
3307	0.7839
3298	0.7953
3289	0.8076
3280	0.8206
3271	0.835
3262	0.8505
3253	0.8578
3244	0.8589
3235	0.8598
3226	0.8637
3217	0.8689
3208	0.8709
3199	0.8717
3190	0.8724
3181	0.8721
3172	0.8715
3163	0.8695
3154	0.8621
3145	0.8381
3136	0.8021
3127	0.7661
3118	0.7301
3109	0.6936
3100	0.6569
3091	0.6201
3082	0.5887
3073	0.586
3064	0.5855
3055	0.5859
3046	0.5878
3037	0.5915
3028	0.5919
3019	0.5581
3010	0.4865
3001	0.4144
2992	0.3418
2983	0.2691
2974	0.1957
2965	0.1384
2956	0.1348
2947	0.1341
2938	0.1374
2929	0.1577
2920	0.1894
2911	0.2006
2902	0.2041
2893	0.2077
2884	0.2127
2875	0.2456
2866	0.3391
2857	0.4191
2848	0.4996
2839	0.5807
2830	0.6621
2821	0.7434
2812	0.7862
2803	0.8128
2794	0.8315
2785	0.8404
2776	0.8468
2767	0.8515
2758	0.8561
2749	0.8607
2740	0.8652
2731	0.8697
2722	0.8741
2713	0.8786
2704	0.8832
2695	0.8878
2686	0.8925
2677	0.8973
2668	0.9021
2659	0.9065
2650	0.9078
2641	0.9075
2632	0.9053
2623	0.9028
2614	0.9011
2605	0.9006
2596	0.9021
2587	0.9041
2578	0.908
2569	0.912
2560	0.9159
2551	0.9199
2542	0.9235
2533	0.927
2524	0.9305
2515	0.9335
2506	0.9359
2497	0.9384
2488	0.9407
2479	0.9427
2470	0.9448
2461	0.9463
2452	0.9478
2443	0.9492
2434	0.9505
2425	0.9516
2416	0.9521
2407	0.9523
2398	0.9525
2389	0.9525
2380	0.9523
2371	0.9521
2362	0.952
2353	0.952
2344	0.952
2335	0.9527
2326	0.9536
2317	0.9548
2308	0.9571
2299	0.9602
2290	0.9634
2281	0.9661
2272	0.967
2263	0.9675
2254	0.9682
2245	0.9687
2236	0.969
2227	0.9693
2218	0.9697
2209	0.9701
2200	0.9705
2191	0.9708
2182	0.9709
2173	0.9716
2164	0.9765
2155	0.978
2146	0.9768
2137	0.9756
2128	0.9741
2119	0.9727
2110	0.9725
2101	0.9745
2092	0.9778
2083	0.9792
2074	0.9801
2065	0.9801
2056	0.9801
2047	0.9802
2038	0.9792
2029	0.977
2020	0.975
2011	0.9743
2002	0.9758
1993	0.9767
1984	0.9775
1975	0.978
1966	0.9782
1957	0.9754
1948	0.9692
1939	0.9701
1930	0.9618
1921	0.9478
1912	0.9295
1903	0.9268
1894	0.9366
1885	0.9451
1876	0.9531
1867	0.9588
1858	0.9599
1849	0.9604
1840	0.9564
1831	0.9461
1822	0.9392
1813	0.9404
1804	0.9482
1795	0.9525
1786	0.9512
1777	0.949
1768	0.9449
1759	0.9399
1750	0.9349
1741	0.9294
1732	0.926
1723	0.9285
1714	0.9278
1705	0.9212
1696	0.9064
1687	0.8877
1678	0.8861
1669	0.8886
1660	0.8767
1651	0.8302
1642	0.6071
1633	0.3712
1624	0.1328
1615	0.0443
1606	0.2863
1597	0.5816
1588	0.6939
1579	0.7258
1570	0.7464
1561	0.7528
1552	0.7365
1543	0.6893
1534	0.5653
1525	0.3392
1516	0.2116
1507	0.2082
1498	0.2959
1489	0.2821
1480	0.2689
1471	0.3148
1462	0.5107
1453	0.6094
1444	0.513
1435	0.5588
1426	0.7399
1417	0.7997
1408	0.8076
1399	0.6886
1390	0.5716
1381	0.5466
1372	0.531
1363	0.7024
1354	0.673
1345	0.5026
1336	0.3088
1327	0.199
1318	0.2493
1309	0.4218
1300	0.5037
1291	0.5245
1282	0.497
1273	0.4132
1264	0.3698
1255	0.3496
1246	0.5757
1237	0.6991
1228	0.684
1219	0.7287
1210	0.7993
1201	0.8136
1192	0.7569
1183	0.4503
1174	0.5585
1165	0.6468
1156	0.5022
1147	0.5924
1138	0.7282
1129	0.8005
1120	0.8501
1111	0.8502
1102	0.7803
1093	0.6545
1084	0.7395
1075	0.7253
1066	0.7871
1057	0.8461
1048	0.8618
1039	0.8501
1030	0.7958
1021	0.8432
1012	0.8618
1003	0.8307
994	0.6975
985	0.8259
976	0.8897
967	0.9092
958	0.9228
949	0.9125
940	0.9074
931	0.9257
922	0.9109
913	0.9118
904	0.9231
895	0.9301
886	0.924
877	0.8575
868	0.6575
859	0.7551
850	0.8436
841	0.8774
832	0.8877
823	0.8766
814	0.8477
805	0.8439
796	0.8535
787	0.8486
778	0.8011
769	0.7258
760	0.4654
751	0.1249
742	0.2226
733	0.6542
724	0.7706
715	0.7908
706	0.7708
697	0.5914
688	0.2593
679	0.6368
670	0.7471
661	0.7781
652	0.7844
643	0.7937
634	0.7997
