Infrared Spectrum: 2-AMINO-5-DIETHYLAMINO-TOLUENE MONOHYDROCHLORIDE
Formula: C11 H18 N2  * H Cl
CAS: 2051-79-8
State: SOLID (MINERAL OIL MULL)
Class: COBLENTZ
Instrument: Not specified, most likely a prism, grating, or hybrid spectrometer.
Sampling: TRANSMISSION
Resolution: 4
Origin: WYANDOTTE CHEMICALS CORP., WYANDOTTE, MICHIGAN, USA
MICROMETERS	TRANSMITTANCE
2.025	0.529
2.0622	0.532
2.0994	0.532
2.1366	0.532
2.1738	0.517
2.211	0.484
2.2482	0.489
2.2854	0.506
2.3226	0.526
2.3598	0.529
2.397	0.543
2.4342	0.543
2.4714	0.571
2.5086	0.574
2.5458	0.6
2.583	0.633
2.6202	0.635
2.6574	0.649
2.6946	0.663
2.7318	0.658
2.769	0.663
2.8062	0.681
2.8434	0.689
2.8806	0.661
2.9178	0.599
2.955	0.296
2.9922	0.136
3.0294	0.091
3.0666	0.158
3.1038	0.071
3.141	0.225
3.1782	0.333
3.2154	0.358
3.2526	0.321
3.2898	0.198
3.327	0.035
3.3642	0.018
3.4014	0.018
3.4386	0.021
3.4758	0.029
3.513	0.055
3.5502	0.273
3.5874	0.271
3.6246	0.299
3.6618	0.259
3.699	0.172
3.7362	0.172
3.7734	0.104
3.8106	0.04
3.8478	0.035
3.885	0.031
3.9222	0.037
3.9594	0.035
3.9966	0.049
4.0338	0.079
4.071	0.069
4.1082	0.1
4.1454	0.141
4.1826	0.203
4.2198	0.248
4.257	0.274
4.2942	0.327
4.3314	0.383
4.3686	0.482
4.4058	0.509
4.443	0.535
4.4802	0.559
4.5174	0.574
4.5546	0.594
4.5918	0.605
4.629	0.633
4.6662	0.659
4.7034	0.664
4.7406	0.687
4.7778	0.703
4.815	0.72
4.8522	0.726
4.8894	0.743
4.9266	0.765
4.9638	0.774
5.001	0.782
5.0382	0.796
5.0754	0.801
5.1126	0.805
5.1498	0.802
5.187	0.812
5.2242	0.819
5.2614	0.801
5.2986	0.767
5.3358	0.84
5.373	0.854
5.4102	0.854
5.4474	0.832
5.4846	0.849
5.5218	0.83
5.559	0.827
5.5962	0.791
5.6334	0.809
5.6706	0.899
5.7078	0.906
5.745	0.925
5.7822	0.939
5.8194	0.93
5.8566	0.9
5.8938	0.919
5.931	0.866
5.9682	0.773
6.0054	0.647
6.0426	0.271
6.0798	0.051
6.117	0.173
6.1542	0.273
6.1914	0.341
6.2286	0.56
6.2658	0.675
6.303	0.74
6.3402	0.703
6.3774	0.731
6.4146	0.663
6.4518	0.659
6.489	0.479
6.5262	0.214
6.5634	0.029
6.6006	0.029
6.6378	0.049
6.675	0.138
6.7122	0.164
6.7494	0.062
6.7866	0.026
6.8238	0.027
6.861	0.038
6.8982	0.108
6.9354	0.276
6.9726	0.304
7.0098	0.25
7.047	0.284
7.0842	0.319
7.1214	0.322
7.1586	0.209
7.1958	0.021
7.233	0.043
7.2702	0.124
7.3074	0.268
7.3446	0.44
7.3818	0.445
7.419	0.433
7.4562	0.27
7.4934	0.321
7.5306	0.333
7.5678	0.114
7.605	0.102
7.6422	0.138
7.6794	0.2
7.7166	0.304
7.7538	0.346
7.791	0.36
7.8282	0.45
7.8654	0.476
7.9026	0.545
7.9398	0.586
7.977	0.611
8.0142	0.625
8.0514	0.638
8.0886	0.641
8.1258	0.59
8.163	0.611
8.2002	0.618
8.2374	0.621
8.2746	0.635
8.3118	0.647
8.349	0.656
8.3862	0.669
8.4234	0.675
8.4606	0.563
8.4978	0.45
8.535	0.245
8.5722	0.167
8.6094	0.11
8.6466	0.181
8.6838	0.392
8.721	0.504
8.7582	0.538
8.7954	0.535
8.8326	0.436
8.8698	0.386
8.907	0.493
8.9442	0.498
8.9814	0.42
9.0186	0.509
9.0558	0.599
9.093	0.638
9.1302	0.653
9.1674	0.659
9.2046	0.677
9.2418	0.667
9.279	0.647
9.3162	0.61
9.3534	0.599
9.3906	0.518
9.4278	0.569
9.465	0.607
9.5022	0.569
9.5394	0.411
9.5766	0.349
9.6138	0.391
9.651	0.371
9.6882	0.318
9.7254	0.254
9.7626	0.181
9.7998	0.159
9.837	0.186
9.8742	0.2
9.9114	0.324
9.9486	0.439
9.9858	0.496
10.023	0.546
10.0602	0.572
10.0974	0.588
10.1346	0.59
10.1718	0.597
10.209	0.593
10.2462	0.58
10.2834	0.593
10.3206	0.602
10.3578	0.607
10.395	0.6
10.4322	0.616
10.4694	0.616
10.5066	0.616
10.5438	0.627
10.581	0.638
10.6182	0.61
10.6554	0.605
10.6926	0.614
10.7298	0.604
10.767	0.495
10.8042	0.341
10.8414	0.344
10.8786	0.454
10.9158	0.559
10.953	0.624
10.9902	0.663
11.0274	0.69
11.0646	0.706
11.1018	0.701
11.139	0.678
11.1762	0.68
11.2134	0.704
11.2506	0.729
11.2878	0.745
11.325	0.762
11.3622	0.774
11.3994	0.788
11.4366	0.777
11.4738	0.729
11.511	0.655
11.5482	0.619
11.5854	0.631
11.6226	0.663
11.6598	0.68
11.697	0.686
11.7342	0.663
11.7714	0.639
11.8086	0.58
11.8458	0.509
11.883	0.321
11.9202	0.099
11.9574	0.032
11.9946	0.034
12.0318	0.085
12.069	0.222
12.1062	0.378
12.1434	0.461
12.1806	0.509
12.2178	0.604
12.255	0.678
12.2922	0.739
12.3294	0.773
12.3666	0.798
12.4038	0.819
12.441	0.824
12.4782	0.838
12.5154	0.821
12.5526	0.771
12.5898	0.677
12.627	0.642
12.6642	0.697
12.7014	0.773
12.7386	0.815
12.7758	0.843
12.813	0.854
12.8502	0.85
12.8874	0.81
12.9246	0.745
12.9618	0.722
12.999	0.746
13.0362	0.781
13.0734	0.784
13.1106	0.801
13.1478	0.805
13.185	0.807
13.2222	0.81
13.2594	0.809
13.2966	0.799
13.3338	0.796
13.371	0.777
13.4082	0.76
13.4454	0.748
13.4826	0.743
13.5198	0.718
13.557	0.704
13.5942	0.69
13.6314	0.669
13.6686	0.619
13.7058	0.588
13.743	0.605
13.7802	0.652
13.8174	0.659
13.8546	0.661
13.8918	0.667
13.929	0.692
13.9662	0.701
14.0034	0.722
14.0406	0.725
14.0778	0.734
14.115	0.729
14.1522	0.734
14.1894	0.734
14.2266	0.734
14.2638	0.739
14.301	0.723
14.3382	0.728
14.3754	0.714
14.4126	0.708
14.4498	0.704
14.487	0.708
14.5242	0.701
14.5614	0.697
14.5986	0.695
14.6358	0.683
14.673	0.669
14.7102	0.658
14.7474	0.649
14.7846	0.639
14.8218	0.631
14.859	0.624
14.8962	0.614
14.9334	0.605
14.9706	0.599
15.0078	0.588
15.045	0.579
15.0822	0.568
15.1194	0.557
15.1566	0.545
15.1938	0.54
15.231	0.535
15.2682	0.532
15.3054	0.529
15.3426	0.524
15.3798	0.523
15.417	0.521
15.4542	0.518
15.4914	0.515
15.5286	0.512
15.5658	0.509
15.603	0.506
15.6402	0.501
15.6774	0.498
15.7146	0.498
15.7518	0.493
15.789	0.49
15.8262	0.487
15.8634	0.484
15.9006	0.482
15.9378	0.479
15.975	0.478
