Infrared Spectrum: n-Caproic anhydride
Formula: C 12 H 22 O 3
CAS: 2051-49-2
State: gas
Instrument: HP-GC/MS/IRD
Origin: NIST Mass Spectrometry Data Center
1/CM	ABSORBANCE
550	0.003472
562	0.0035371
574	0.003038
586	0.002387
598	0.0015624
610	0.0009331
622	0.0005859
634	0.0003906
646	0.000217
658	0.0001953
670	0.0003689
682	0.0005208
694	0.0009765
706	0.0015841
718	0.0027125
730	0.0043834
742	0.0054033
754	0.0058807
766	0.0066185
778	0.0074865
790	0.0078771
802	0.0085064
814	0.0095263
826	0.0107198
838	0.0125209
850	0.014756
862	0.0165788
874	0.0174251
886	0.0187922
898	0.0204631
910	0.0239568
922	0.0282534
934	0.0347417
946	0.0408611
958	0.0329406
970	0.0271901
982	0.0325066
994	0.0458087
1006	0.0744744
1018	0.12497
1030	0.180609
1042	0.217
1054	0.149144
1066	0.0910966
1078	0.0670964
1090	0.0546623
1102	0.0509516
1114	0.052731
1126	0.0535339
1138	0.0453964
1150	0.0361305
1162	0.0278194
1174	0.0218085
1186	0.0198772
1198	0.0231105
1210	0.0249767
1222	0.0233275
1234	0.0192045
1246	0.0153419
1258	0.0125426
1270	0.0127379
1282	0.0135842
1294	0.014756
1306	0.0148211
1318	0.0143003
1330	0.0150164
1342	0.0191394
1354	0.0203546
1366	0.0178591
1378	0.0139097
1390	0.0107632
1402	0.0081809
1414	0.0100037
1426	0.0127596
1438	0.0133889
1450	0.0153419
1462	0.0180978
1474	0.0131068
1486	0.0062496
1498	0.0032333
1510	0.0019747
1522	0.0013671
1534	0.0010199
1546	0.0007812
1558	0.000651
1570	0.0006293
1582	0.000651
1594	0.0006727
1606	0.0007595
1618	0.0008029
1630	0.000868
1642	0.0009765
1654	0.0011501
1666	0.0014322
1678	0.0018011
1690	0.0025172
1702	0.003689
1714	0.006076
1726	0.0106547
1738	0.0207018
1750	0.0465682
1762	0.0818741
1774	0.0651651
1786	0.0429443
1798	0.0438991
1810	0.0701127
1822	0.101296
1834	0.0769699
1846	0.0346983
1858	0.0156023
1870	0.008246
1882	0.0049259
1894	0.0031465
1906	0.0020832
1918	0.0014105
1930	0.0009982
1942	0.0007378
1954	0.0005425
1966	0.0004123
1978	0.0003472
1990	0.0003038
2002	0.0003038
2014	0.0003689
2026	0.000434
2038	0.0005642
2050	0.0006293
2062	0.0007595
2074	0.0010416
2086	0.0016275
2098	0.0030597
2110	0.0062713
2122	0.008897
2134	0.006944
2146	0.002604
2158	0.0010199
2170	0.0005425
2182	0.0003255
2194	0.0001736
2206	0.0001302
2218	6.51e-05
2230	8.68e-05
2242	0
2254	6.51e-05
2266	4.34e-05
2278	2.17e-05
2290	2.17e-05
2302	2.17e-05
2314	6.51e-05
2326	8.68e-05
2338	0.0001302
2350	8.68e-05
2362	0.0001085
2374	0.0001519
2386	0.0001302
2398	0.0001519
2410	0.0001953
2422	0.0001519
2434	0.0001953
2446	0.0001302
2458	0.0001736
2470	0.0001302
2482	0.0001302
2494	0.0001519
2506	0.0001736
2518	0.0002387
2530	0.0002604
2542	0.0003038
2554	0.0003472
2566	0.0004557
2578	0.0004991
2590	0.0004991
2602	0.0005425
2614	0.0005642
2626	0.0006944
2638	0.0007812
2650	0.0009331
2662	0.001085
2674	0.0012586
2686	0.0013671
2698	0.0012803
2710	0.0012586
2722	0.0014105
2734	0.0016926
2746	0.0021049
2758	0.0021266
2770	0.0022785
2782	0.0027125
2794	0.0034937
2806	0.0045136
2818	0.0059892
2830	0.0084196
2842	0.0126945
2854	0.0223727
2866	0.039928
2878	0.049693
2890	0.0452879
2902	0.0409696
2914	0.054467
2926	0.0810495
2938	0.108326
2950	0.105787
2962	0.0999936
2974	0.0932015
2986	0.0454181
2998	0.0218302
3010	0.0122822
3022	0.0081158
3034	0.0058807
3046	0.0044485
3058	0.0034286
3070	0.0028861
3082	0.0024738
3094	0.00217
3106	0.0019096
3118	0.0016275
3130	0.0014322
3142	0.0013454
3154	0.0012152
3166	0.0011501
3178	0.0010199
3190	0.0009548
3202	0.0008029
3214	0.0006727
3226	0.0004991
3238	0.000434
3250	0.0003906
3262	0.0003255
3274	0.0002821
3286	0.0003038
3298	0.0002604
3310	0.0001736
3322	0.0002604
3334	0.0002387
3346	0.0002604
3358	0.0001736
3370	0.0003038
3382	0.0002821
3394	0.0002604
3406	0.0002604
3418	0.0002387
3430	0.0002821
3442	0.0003689
3454	0.0003038
3466	0.0003906
3478	0.0005208
3490	0.0007378
3502	0.0009982
3514	0.0011718
3526	0.001085
3538	0.0009982
3550	0.0009982
3562	0.0014756
3574	0.0024304
3586	0.0019747
3598	0.0012803
3610	0.0011718
3622	0.0012369
3634	0.0011935
3646	0.0011284
3658	0.0009765
3670	0.0008029
3682	0.0006293
3694	0.0005642
3706	0.0005208
3718	0.0004774
3730	0.0004557
3742	0.0003689
3754	0.0004123
3766	0.0004774
3778	0.000434
3790	0.0004557
3802	0.0004774
3814	0.0004123
3826	0.0004774
3838	0.000434
