Infrared Spectrum: 2-Bromobiphenyl
Formula: C 12 H 9 Br
CAS: 2052-07-5
State: gas
Instrument: HP-GC/MS/IRD
Origin: NIST Mass Spectrometry Data Center
1/CM	ABSORBANCE
550	0.0010185
562	0.000318
574	0.00012
586	4.2e-05
598	0.0002085
610	0.0010515
622	0.0006015
634	7.8e-05
646	0.000546
658	0.0029835
670	0.002709
682	0.0014835
694	0.0075315
706	0.005757
718	0.0022635
730	0.0050415
742	0.0118365
754	0.0135375
766	0.0052305
778	0.000879
790	0.000333
802	0.000186
814	0.000444
826	0.000462
838	0.000381
850	0.000147
862	5.7e-05
874	1.2e-05
886	0.000174
898	0.0002505
910	0.0003825
922	0.0002925
934	0.0003675
946	0.000444
958	0.0003435
970	0.0001425
982	0.0002265
994	0.0011925
1006	0.0039945
1018	0.003954
1030	0.0055935
1042	0.0018705
1054	0.000966
1066	0.002586
1078	0.0015915
1090	0.0005655
1102	0.0004695
1114	0.0007845
1126	0.0006825
1138	0.0002235
1150	0.000135
1162	0.000135
1174	0.0002745
1186	0.0004575
1198	0.0002115
1210	0.0002265
1222	0.0002265
1234	0.0003765
1246	0.0006225
1258	0.0005805
1270	0.0003255
1282	0.000303
1294	0.0003255
1306	0.0001035
1318	0.000183
1330	0.000231
1342	0.000249
1354	0.0001335
1366	0.0001635
1378	0.0003
1390	0.000564
1402	0.001236
1414	0.002106
1426	0.0029985
1438	0.0036
1450	0.003066
1462	0.008058
1474	0.0046005
1486	0.001284
1498	0.0011235
1510	0.000699
1522	0.0004425
1534	0.0003585
1546	0.000411
1558	0.001092
1570	0.00105
1582	0.001473
1594	0.001611
1606	0.001173
1618	0.0005445
1630	0.000237
1642	0.000189
1654	0.0002685
1666	0.000204
1678	0.0003765
1690	0.0002955
1702	0.0002385
1714	0.00027
1726	0.000264
1738	0.000306
1750	0.000366
1762	0.0001965
1774	0.0002745
1786	0.000471
1798	0.0008955
1810	0.000468
1822	0.0004155
1834	0.0003465
1846	0.000216
1858	0.000279
1870	0.0005325
1882	0.000624
1894	0.000471
1906	0.0005415
1918	0.000615
1930	0.0004965
1942	0.000897
1954	0.000684
1966	0.0003015
1978	0.0001425
1990	9.6e-05
2002	0.0001245
2014	0.000132
2026	0.000141
2038	0.0001005
2050	0.000108
2062	9.3e-05
2074	8.4e-05
2086	0.0001455
2098	0.0001035
2110	0.000135
2122	0.0001095
2134	9.6e-05
2146	5.1e-05
2158	0.0001215
2170	9e-05
2182	0.0001125
2194	0.00012
2206	0.00015
2218	0.000162
2230	0.0001095
2242	0.000159
2254	0.0001635
2266	0.000111
2278	0.000177
2290	0.000114
2302	0.0001275
2314	0.0001935
2326	0.0001755
2338	0.0001095
2350	9.9e-05
2362	4.8e-05
2374	7.05e-05
2386	9e-05
2398	0.0001095
2410	0.000123
2422	0.0001185
2434	0.000135
2446	0.000114
2458	0.000114
2470	0.000102
2482	0.0001185
2494	0.0001125
2506	0.0001425
2518	0.000147
2530	0.000192
2542	0.0001545
2554	0.000111
2566	8.55e-05
2578	0.0001365
2590	0.0001305
2602	0.0001215
2614	0.000144
2626	0.00012
2638	0.00012
2650	9.9e-05
2662	0.0001545
2674	7.8e-05
2686	8.25e-05
2698	0.0001035
2710	3.75e-05
2722	0.0001095
2734	7.65e-05
2746	8.85e-05
2758	0.0001215
2770	9.75e-05
2782	0.000168
2794	0.0001875
2806	0.000123
2818	0.0001635
2830	0.0001575
2842	0.00018
2854	0.00024
2866	0.0002055
2878	0.000234
2890	0.0002505
2902	0.0002325
2914	0.0002565
2926	0.000345
2938	0.00024
2950	0.0002415
2962	0.0003645
2974	0.0002745
2986	0.0004275
2998	0.0005595
3010	0.001065
3022	0.002301
3034	0.003504
3046	0.003372
3058	0.006651
3070	0.009273
3082	0.0058275
3094	0.0032475
3106	0.001635
3118	0.001191
3130	0.000738
3142	0.000456
3154	0.000375
3166	0.000282
3178	0.0001455
3190	0.00015
3202	0.0001935
3214	0.0002295
3226	0.000201
3238	0.0001485
3250	0.0001545
3262	0.000168
3274	0.000165
3286	7.5e-05
3298	8.4e-05
3310	0.0001005
3322	0.000147
3334	0.0001425
3346	0.000174
3358	0.0001455
3370	0.000132
3382	0.000105
3394	8.25e-05
3406	0.0001095
3418	9e-05
3430	9.6e-05
3442	0.000102
3454	7.05e-05
3466	0.0001095
3478	0.0001695
3490	0.0001305
3502	0.0001815
3514	0.000105
3526	0.0001185
3538	0.0001395
3550	0.000105
3562	0.0001335
3574	2.55e-05
3586	0.000159
3598	0.000168
3610	0.000117
3622	0.0001275
3634	0.0001065
3646	0.000195
3658	8.7e-05
3670	0.00021
3682	0.000222
3694	0.000183
3706	0.0001425
3718	0.0001665
3730	0.000129
3742	0.000201
3754	0.00018
3766	0.0001605
3778	9.15e-05
3790	0.000213
3802	0.0002085
3814	0.0002895
3826	0.0002625
3838	0.000156
