Infrared Spectrum: Methyl acetopyruvate
Formula: C 6 H 8 O 4
CAS: 20577-61-1
State: gas
Origin: EPA-IR VAPOR PHASE LIBRARY
1/CM	ABSORBANCE
549.8	0.00958
559.445	0.01241
569.09	0.01515
578.734	0.0133
588.379	0.00889
598.024	0.00607
607.669	0.00496
617.313	0.00423
626.958	0.00442
636.603	0.00382
646.248	0.00348
655.893	0.0032
665.537	0.00317
675.182	0.00324
684.827	0.00333
694.472	0.00346
704.116	0.00379
713.761	0.00455
723.406	0.00529
733.051	0.00706
742.695	0.01095
752.34	0.01899
761.985	0.03011
771.63	0.03533
781.275	0.02782
790.919	0.01765
800.564	0.01261
810.209	0.01165
819.854	0.01204
829.498	0.01138
839.143	0.0118
848.788	0.01346
858.433	0.01594
868.078	0.01731
877.722	0.01656
887.367	0.01573
897.012	0.01449
906.657	0.01331
916.301	0.01193
925.946	0.00998
935.591	0.00936
945.236	0.01043
954.88	0.01322
964.525	0.01971
974.17	0.02775
983.815	0.02748
993.46	0.01976
1003.1	0.01542
1012.75	0.01421
1022.39	0.01454
1032.04	0.01552
1041.68	0.01616
1051.33	0.02077
1060.97	0.0275
1070.62	0.033
1080.26	0.03941
1089.91	0.05042
1099.55	0.06608
1109.2	0.08724
1118.84	0.08928
1128.49	0.06317
1138.13	0.0431
1147.78	0.03767
1157.42	0.03768
1167.07	0.04071
1176.71	0.04771
1186.36	0.0616
1196	0.0785
1205.64	0.08551
1215.29	0.08105
1224.93	0.08021
1234.58	0.09329
1244.22	0.12151
1253.87	0.16731
1263.51	0.21675
1273.16	0.24049
1282.8	0.19585
1292.45	0.11811
1302.09	0.07627
1311.74	0.05805
1321.38	0.04813
1331.03	0.04112
1340.67	0.03814
1350.32	0.0408
1359.96	0.04807
1369.61	0.05008
1379.25	0.0422
1388.9	0.03674
1398.54	0.03669
1408.18	0.0386
1417.83	0.04123
1427.47	0.0468
1437.12	0.05733
1446.76	0.05056
1456.41	0.03391
1466.05	0.02813
1475.7	0.02447
1485.34	0.02163
1494.99	0.01998
1504.63	0.01935
1514.28	0.01954
1523.92	0.02088
1533.57	0.02328
1543.21	0.02712
1552.86	0.03266
1562.5	0.04122
1572.15	0.05466
1581.79	0.07558
1591.44	0.10261
1601.08	0.12419
1610.73	0.124
1620.37	0.10565
1630.01	0.08887
1639.66	0.08169
1649.3	0.07807
1658.95	0.07016
1668.59	0.05642
1678.24	0.04281
1687.88	0.03499
1697.53	0.03405
1707.17	0.04003
1716.82	0.05599
1726.46	0.08139
1736.11	0.11706
1745.75	0.1465
1755.4	0.13507
1765.04	0.10378
1774.69	0.08261
1784.33	0.06426
1793.98	0.03397
1803.62	0.01762
1813.27	0.01073
1822.91	0.00765
1832.55	0.00609
1842.2	0.00532
1851.84	0.00488
1861.49	0.00456
1871.13	0.00449
1880.78	0.00437
1890.42	0.00425
1900.07	0.00401
1909.71	0.00395
1919.36	0.00376
1929	0.00377
1938.65	0.0039
1948.29	0.00398
1957.94	0.00412
1967.58	0.00391
1977.23	0.00372
1986.87	0.00362
1996.52	0.00334
2006.16	0.00312
2015.81	0.003
2025.45	0.0029
2035.1	0.00296
2044.74	0.00304
2054.38	0.00316
2064.03	0.00332
2073.67	0.00325
2083.32	0.00316
2092.96	0.00336
2102.61	0.00367
2112.25	0.00423
2121.9	0.00507
2131.54	0.00585
2141.19	0.00577
2150.83	0.00499
2160.48	0.00383
2170.12	0.00295
2179.77	0.00288
2189.41	0.0028
2199.06	0.00269
2208.7	0.00262
2218.35	0.00254
2227.99	0.0026
2237.64	0.00261
2247.28	0.00264
2256.92	0.00261
2266.57	0.00255
2276.21	0.00266
2285.86	0.00279
2295.5	0.00299
2305.15	0.00334
2314.79	0.00352
2324.44	0.00376
2334.08	0.00369
2343.73	0.00358
2353.37	0.00371
2363.02	0.00415
2372.66	0.00394
2382.31	0.00323
2391.95	0.00293
2401.6	0.00288
2411.24	0.00307
2420.89	0.00304
2430.53	0.00309
2440.18	0.00304
2449.82	0.00309
2459.47	0.00316
2469.11	0.00333
2478.75	0.00334
2488.4	0.00354
2498.04	0.00363
2507.69	0.0038
2517.33	0.00381
2526.98	0.00389
2536.62	0.0038
2546.27	0.00378
2555.91	0.00362
2565.56	0.00361
2575.2	0.00342
2584.85	0.00339
2594.49	0.00339
2604.14	0.00343
2613.78	0.00336
2623.43	0.00342
2633.07	0.00339
2642.72	0.00348
2652.36	0.00359
2662.01	0.00371
2671.65	0.00384
2681.29	0.00397
2690.94	0.00409
2700.58	0.00424
2710.23	0.00426
2719.87	0.00434
2729.52	0.0044
2739.16	0.00441
2748.81	0.0044
2758.45	0.00446
2768.1	0.00466
2777.74	0.0049
2787.39	0.0049
2797.03	0.00503
2806.68	0.00527
2816.32	0.00555
2825.97	0.00617
2835.61	0.00693
2845.26	0.00916
2854.9	0.01012
2864.55	0.00859
2874.19	0.00768
2883.84	0.00768
2893.48	0.00852
2903.12	0.00977
2912.77	0.01028
2922.41	0.01068
2932.06	0.01151
2941.7	0.0134
2951.35	0.02119
2960.99	0.03714
2970.64	0.03171
2980.28	0.0148
2989.93	0.0127
2999.57	0.01353
3009.22	0.01467
3018.86	0.01419
3028.51	0.01328
3038.15	0.0124
3047.8	0.01088
3057.44	0.00918
3067.09	0.00831
3076.73	0.00776
3086.38	0.00749
3096.02	0.00725
3105.67	0.00698
3115.31	0.00634
3124.95	0.00591
3134.6	0.00518
3144.24	0.00474
3153.89	0.00456
3163.53	0.00441
3173.18	0.00424
3182.82	0.00418
3192.47	0.00407
3202.11	0.00403
3211.76	0.00388
3221.4	0.00379
3231.05	0.00357
3240.69	0.00362
3250.34	0.00349
3259.98	0.00341
3269.63	0.00342
3279.27	0.00314
3288.92	0.00304
3298.56	0.00281
3308.21	0.00269
3317.85	0.00261
3327.49	0.00228
3337.14	0.00228
3346.78	0.00203
3356.43	0.00197
3366.07	0.00184
3375.72	0.00182
3385.36	0.00167
3395.01	0.00175
3404.65	0.00173
3414.3	0.00168
3423.94	0.00181
3433.59	0.00194
3443.23	0.00231
3452.88	0.00245
3462.52	0.00287
3472.17	0.00309
3481.81	0.00327
3491.46	0.00298
3501.1	0.00234
3510.75	0.00184
3520.39	0.00178
3530.04	0.00168
3539.68	0.00148
3549.32	0.00105
3558.97	0.0008171
3568.61	0.0006611
3578.26	0.000742
3587.9	0.0007486
3597.55	0.0006878
3607.19	0.0007072
3616.84	0.0004924
3626.48	0.0003337
3636.13	0.0005044
3645.77	0.0003622
3655.42	0.0003176
3665.06	0.0001528
3674.71	0.0002882
3684.35	0.0004108
3694	0.0005706
3703.64	0.00033
3713.29	0.0003188
3722.93	0.0003265
3732.58	0.0003522
3742.22	0.0003263
3751.86	0.0001697
3761.51	0.0002993
3771.15	0.0003563
3780.8	0.0003509
3790.44	0.000333
3800.09	0.0003293
3809.73	0.0002239
3819.38	0.0003358
3829.02	0.0003901
3838.67	8.187e-05
3848.31	0.0002254
3857.96	0.0002269
3867.6	0.000326
3877.25	0.0002929
3886.89	0.0002414
3896.54	0.0003461
3906.18	0.0003394
3915.83	0.0004626
3925.47	0.0004048
3935.12	0.0003339
3944.76	0.000442
3954.41	0.0003907
3964.05	0.0005287
3973.69	0.0005468
3983.34	0.0005089
3992.98	0.0005322
