Infrared Spectrum: N-PENTANAL, 2,4-DINITROPHENYLHYDRAZONE
Formula: C11 H14 N4 O4
CAS: 2057-84-3
State: SOLID (MINERAL OIL MULL)
Class: COBLENTZ
Instrument: PERKIN-ELMER
Sampling: TRANSMISSION
Resolution: 4
Origin: STANDARD OIL OF OHIO
MICROMETERS	TRANSMITTANCE
2.027	0.224
2.06064	0.234
2.09429	0.25
2.12793	0.261
2.16157	0.272
2.19522	0.284
2.22886	0.297
2.2625	0.299
2.29615	0.295
2.32979	0.301
2.36343	0.311
2.39708	0.323
2.43072	0.338
2.46436	0.358
2.49801	0.377
2.53165	0.392
2.56529	0.406
2.59893	0.416
2.63258	0.43
2.66622	0.442
2.69986	0.452
2.73351	0.464
2.76715	0.476
2.80079	0.481
2.83444	0.484
2.86808	0.494
2.90172	0.494
2.93537	0.482
2.96901	0.465
3.00265	0.301
3.0363	0.219
3.06994	0.384
3.10358	0.433
3.13723	0.45
3.17087	0.472
3.20451	0.418
3.23816	0.399
3.2718	0.418
3.30544	0.318
3.33909	0.205
3.37273	0.023
3.40637	0.008
3.44002	0.005
3.47366	0.008
3.5073	0.085
3.54094	0.397
3.57459	0.525
3.60823	0.588
3.64187	0.6
3.67552	0.596
3.70916	0.607
3.7428	0.612
3.77645	0.624
3.81009	0.629
3.84373	0.658
3.87738	0.685
3.91102	0.704
3.94466	0.717
3.97831	0.734
4.01195	0.75
4.04559	0.751
4.07924	0.746
4.11288	0.743
4.14652	0.753
4.18017	0.753
4.21381	0.763
4.24745	0.768
4.2811	0.777
4.31474	0.789
4.34838	0.801
4.38203	0.806
4.41567	0.807
4.44931	0.811
4.48295	0.823
4.5166	0.829
4.55024	0.831
4.58388	0.835
4.61753	0.846
4.65117	0.841
4.68481	0.838
4.71846	0.853
4.7521	0.863
4.78574	0.872
4.81939	0.872
4.85303	0.87
4.88667	0.877
4.92032	0.889
4.95396	0.897
4.9876	0.899
5.02125	0.901
5.05489	0.903
5.08853	0.908
5.12218	0.908
5.15582	0.913
5.18946	0.923
5.22311	0.925
5.25675	0.93
5.29039	0.935
5.32404	0.933
5.35768	0.933
5.39132	0.935
5.42496	0.947
5.45861	0.952
5.49225	0.96
5.52589	0.954
5.55954	0.952
5.59318	0.965
5.62682	0.976
5.66047	0.979
5.69411	0.981
5.72775	0.981
5.7614	0.979
5.79504	0.979
5.82868	0.976
5.86233	0.976
5.89597	0.965
5.92961	0.945
5.96326	0.904
5.9969	0.829
6.03054	0.753
6.06419	0.496
6.09783	0.134
6.13147	0.037
6.16512	0.018
6.19876	0.057
6.2324	0.13
6.26605	0.066
6.29969	0.185
6.33333	0.426
6.36697	0.602
6.40062	0.656
6.43426	0.663
6.4679	0.544
6.50155	0.386
6.53519	0.187
6.56883	0.074
6.60248	0.064
6.63612	0.161
6.66976	0.341
6.70341	0.403
6.73705	0.404
6.77069	0.134
6.80434	0.066
6.83798	0.052
6.87162	0.081
6.90527	0.168
6.93891	0.222
6.97255	0.214
7.0062	0.127
7.03984	0.248
7.07348	0.445
7.10713	0.627
7.14077	0.659
7.17441	0.596
7.20806	0.287
7.2417	0.149
7.27534	0.238
7.30898	0.328
7.34263	0.338
7.37627	0.246
7.40991	0.085
7.44356	0.017
7.4772	0.005
7.51084	0.006
7.54449	0.017
7.57813	0.027
7.61177	0.025
7.64542	0.034
7.67906	0.085
7.7127	0.153
7.74635	0.168
7.77999	0.146
7.81363	0.13
7.84728	0.132
7.88092	0.153
7.91456	0.248
7.94821	0.314
7.98185	0.384
8.01549	0.515
8.04914	0.561
8.08278	0.588
8.11642	0.501
8.15007	0.396
8.18371	0.26
8.21735	0.425
8.25099	0.544
8.28464	0.613
8.31828	0.639
8.35192	0.661
8.38557	0.676
8.41921	0.688
8.45285	0.702
8.4865	0.714
8.52014	0.724
8.55378	0.727
8.58743	0.741
8.62107	0.734
8.65471	0.695
8.68836	0.6
8.722	0.428
8.75564	0.215
8.78929	0.1
8.82293	0.171
8.85657	0.248
8.89022	0.311
8.92386	0.365
8.9575	0.43
8.99115	0.477
9.02479	0.522
9.05843	0.549
9.09208	0.571
9.12572	0.574
9.15936	0.534
9.19301	0.392
9.22665	0.273
9.26029	0.229
9.29393	0.229
9.32758	0.299
9.36122	0.416
9.39486	0.545
9.42851	0.552
9.46215	0.528
9.49579	0.528
9.52944	0.54
9.56308	0.562
9.59672	0.581
9.63037	0.607
9.66401	0.641
9.69765	0.661
9.7313	0.68
9.76494	0.702
9.79858	0.714
9.83223	0.743
9.86587	0.767
9.89951	0.775
9.93316	0.782
9.9668	0.787
10.0004	0.795
10.0341	0.799
10.0677	0.794
10.1014	0.782
10.135	0.761
10.1687	0.751
10.2023	0.738
10.2359	0.681
10.2696	0.676
10.3032	0.71
10.3369	0.717
10.3705	0.705
10.4042	0.675
10.4378	0.659
10.4714	0.636
10.5051	0.617
10.5387	0.649
10.5724	0.692
10.606	0.736
10.6397	0.755
10.6733	0.751
10.7069	0.702
10.7406	0.612
10.7742	0.523
10.8079	0.556
10.8415	0.61
10.8752	0.656
10.9088	0.704
10.9425	0.773
10.9761	0.801
11.0097	0.811
11.0434	0.812
11.077	0.804
11.1107	0.794
11.1443	0.768
11.178	0.729
11.2116	0.709
11.2452	0.746
11.2789	0.809
11.3125	0.852
11.3462	0.87
11.3798	0.882
11.4135	0.891
11.4471	0.897
11.4807	0.901
11.5144	0.904
11.548	0.906
11.5817	0.909
11.6153	0.918
11.649	0.923
11.6826	0.918
11.7162	0.909
11.7499	0.896
11.7835	0.877
11.8172	0.858
11.8508	0.833
11.8845	0.801
11.9181	0.729
11.9517	0.413
11.9854	0.386
12.019	0.35
12.0527	0.265
12.0863	0.647
12.12	0.782
12.1536	0.841
12.1873	0.884
12.2209	0.911
12.2545	0.918
12.2882	0.926
12.3218	0.931
12.3555	0.935
12.3891	0.937
12.4228	0.938
12.4564	0.943
12.49	0.947
12.5237	0.948
12.5573	0.948
12.591	0.948
12.6246	0.945
12.6583	0.938
12.6919	0.938
12.7255	0.938
12.7592	0.931
12.7928	0.93
12.8265	0.921
12.8601	0.92
12.8938	0.909
12.9274	0.901
12.961	0.897
12.9947	0.891
13.0283	0.86
13.062	0.738
13.0956	0.71
13.1293	0.816
13.1629	0.86
13.1965	0.862
13.2302	0.858
13.2638	0.836
13.2975	0.775
13.3311	0.7
13.3648	0.428
13.3984	0.301
13.4321	0.251
13.4657	0.295
13.4993	0.486
13.533	0.613
13.5666	0.671
13.6003	0.685
13.6339	0.681
13.6676	0.642
13.7012	0.545
13.7348	0.455
13.7685	0.404
13.8021	0.397
13.8358	0.425
13.8694	0.474
13.9031	0.554
13.9367	0.634
13.9703	0.698
14.004	0.76
14.0376	0.785
14.0713	0.809
14.1049	0.828
14.1386	0.843
14.1722	0.853
14.2058	0.863
14.2395	0.869
14.2731	0.872
14.3068	0.874
14.3404	0.874
14.3741	0.863
14.4077	0.852
14.4413	0.828
14.475	0.802
14.5086	0.76
14.5423	0.709
14.5759	0.687
14.6096	0.707
14.6432	0.741
14.6768	0.772
14.7105	0.792
14.7441	0.807
14.7778	0.811
14.8114	0.812
14.8451	0.807
14.8787	0.801
14.9124	0.795
14.946	0.789
14.9796	0.787
15.0133	0.778
15.0469	0.772
15.0806	0.77
15.1142	0.767
15.1479	0.763
15.1815	0.753
15.2151	0.739
15.2488	0.715
15.2824	0.7
15.3161	0.693
15.3497	0.702
15.3834	0.712
15.417	0.714
