Infrared Spectrum: PHOSPHOROUS ACID, CYCLIC o-PHENYLENE-, METHYL ESTER
Formula: C7 H7 O3 P
CAS: 20570-25-6
State: LIQUID
Class: COBLENTZ
Instrument: PERKIN-ELMER
Sampling: TRANSMISSION
Path length: 0.0015 CM
Resolution: 4
Origin: STANDARD OIL OF OHIO
MICROMETERS	TRANSMITTANCE
2.027	0.949
2.06075	0.949
2.0945	0.947
2.12825	0.947
2.162	0.94
2.19574	0.94
2.22949	0.938
2.26324	0.92
2.29699	0.925
2.33074	0.935
2.36449	0.935
2.39824	0.93
2.43199	0.93
2.46574	0.933
2.49948	0.932
2.53323	0.93
2.56698	0.93
2.60073	0.93
2.63448	0.932
2.66823	0.937
2.70198	0.942
2.73573	0.94
2.76947	0.942
2.80322	0.938
2.83697	0.93
2.87072	0.925
2.90447	0.925
2.93822	0.925
2.97197	0.921
3.00572	0.918
3.03947	0.908
3.07321	0.898
3.10696	0.884
3.14071	0.879
3.17446	0.87
3.20821	0.838
3.24196	0.743
3.27571	0.692
3.30946	0.619
3.34321	0.631
3.37695	0.572
3.4107	0.657
3.44445	0.779
3.4782	0.84
3.51195	0.792
3.5457	0.838
3.57945	0.899
3.6132	0.91
3.64695	0.91
3.68069	0.91
3.71444	0.906
3.74819	0.903
3.78194	0.906
3.81569	0.906
3.84944	0.906
3.88319	0.893
3.91694	0.86
3.95069	0.899
3.98443	0.908
4.01818	0.906
4.05193	0.896
4.08568	0.857
4.11943	0.86
4.15318	0.889
4.18693	0.903
4.22068	0.911
4.25442	0.915
4.28817	0.911
4.32192	0.879
4.35567	0.869
4.38942	0.893
4.42317	0.901
4.45692	0.903
4.49067	0.906
4.52442	0.91
4.55816	0.91
4.59191	0.904
4.62566	0.908
4.65941	0.911
4.69316	0.908
4.72691	0.91
4.76066	0.908
4.79441	0.898
4.82816	0.869
4.8619	0.864
4.89565	0.865
4.9294	0.848
4.96315	0.845
4.9969	0.87
5.03065	0.886
5.0644	0.896
5.09815	0.887
5.1319	0.87
5.16564	0.864
5.19939	0.853
5.23314	0.869
5.26689	0.87
5.30064	0.833
5.33439	0.85
5.36814	0.876
5.40189	0.886
5.43564	0.887
5.46938	0.889
5.50313	0.887
5.53688	0.87
5.57063	0.855
5.60438	0.814
5.63813	0.748
5.67188	0.733
5.70563	0.796
5.73937	0.852
5.77312	0.869
5.80687	0.864
5.84062	0.845
5.87437	0.848
5.90812	0.859
5.94187	0.87
5.97562	0.874
6.00937	0.876
6.04311	0.879
6.07686	0.881
6.11061	0.884
6.14436	0.867
6.17811	0.628
6.21186	0.757
6.24561	0.721
6.27936	0.64
6.31311	0.726
6.34685	0.784
6.3806	0.813
6.41435	0.825
6.4481	0.828
6.48185	0.83
6.5156	0.794
6.54935	0.753
6.5831	0.714
6.61685	0.687
6.65059	0.56
6.68434	0.32
6.71809	0.03
6.75184	0.003
6.78559	0.005
6.81934	0.018
6.85309	0.049
6.88684	0.271
6.92059	0.504
6.95433	0.546
6.98808	0.631
7.02183	0.709
7.05558	0.677
7.08933	0.619
7.12308	0.674
7.15683	0.723
7.19058	0.777
7.22432	0.799
7.25807	0.806
7.29182	0.797
7.32557	0.779
7.35932	0.736
7.39307	0.707
7.42682	0.592
7.46057	0.269
7.49432	0.146
7.52806	0.371
7.56181	0.68
7.59556	0.782
7.62931	0.804
7.66306	0.801
7.69681	0.748
7.73056	0.684
7.76431	0.651
7.79806	0.599
7.8318	0.517
7.86555	0.453
7.8993	0.415
7.93305	0.376
7.9668	0.353
8.00055	0.281
8.0343	0.079
8.06805	0.008
8.1018	0.003
8.13554	0.003
8.16929	0.011
8.20304	0.123
8.23679	0.295
8.27054	0.466
8.30429	0.55
8.33804	0.572
8.37179	0.573
8.40554	0.538
8.43928	0.473
8.47303	0.415
8.50678	0.327
8.54053	0.286
8.57428	0.404
8.60803	0.48
8.64178	0.509
8.67553	0.482
8.70927	0.517
8.74302	0.64
8.77677	0.692
8.81052	0.713
8.84427	0.709
8.87802	0.689
8.91177	0.701
8.94552	0.719
8.97927	0.723
9.01301	0.713
9.04676	0.682
9.08051	0.578
9.11426	0.336
9.14801	0.273
9.18176	0.499
9.21551	0.536
9.24926	0.543
9.28301	0.541
9.31675	0.536
9.3505	0.519
9.38425	0.473
9.418	0.421
9.45175	0.353
9.4855	0.283
9.51925	0.208
9.553	0.142
9.58675	0.069
9.62049	0.015
9.65424	0.006
9.68799	0.003
9.72174	0.003
9.75549	0.003
9.78924	0.003
9.82299	0.003
9.85674	0.003
9.89049	0.005
9.92423	0.02
9.95798	0.132
9.99173	0.21
10.0255	0.32
10.0592	0.368
10.093	0.404
10.1267	0.421
10.1605	0.424
10.1942	0.421
10.228	0.422
10.2617	0.439
10.2955	0.463
10.3292	0.522
10.363	0.59
10.3967	0.629
10.4305	0.667
10.4642	0.687
10.498	0.697
10.5317	0.701
10.5655	0.701
10.5992	0.701
10.633	0.701
10.6667	0.702
10.7005	0.706
10.7342	0.697
10.768	0.665
10.8017	0.597
10.8355	0.505
10.8692	0.451
10.903	0.465
10.9367	0.556
10.9704	0.623
11.0042	0.682
11.0379	0.718
11.0717	0.738
11.1054	0.752
11.1392	0.758
11.1729	0.758
11.2067	0.753
11.2404	0.736
11.2742	0.704
11.3079	0.662
11.3417	0.601
11.3754	0.548
11.4092	0.5
11.4429	0.461
11.4767	0.434
11.5104	0.4
11.5442	0.314
11.5779	0.234
11.6117	0.154
11.6454	0.105
11.6792	0.054
11.7129	0.023
11.7467	0.01
11.7804	0.006
11.8142	0.005
11.8479	0.003
11.8817	0.003
11.9154	0.003
11.9492	0.003
11.9829	0.003
12.0167	0.003
12.0504	0.003
12.0842	0.003
12.1179	0.001
12.1517	0.003
12.1854	0.013
12.2192	0.079
12.2529	0.173
12.2867	0.263
12.3204	0.358
12.3542	0.41
12.3879	0.465
12.4216	0.507
12.4554	0.533
12.4891	0.553
12.5229	0.561
12.5566	0.561
12.5904	0.551
12.6241	0.55
12.6579	0.544
12.6916	0.538
12.7254	0.514
12.7591	0.473
12.7929	0.434
12.8266	0.359
12.8604	0.288
12.8941	0.222
12.9279	0.169
12.9616	0.118
12.9954	0.088
13.0291	0.056
13.0629	0.025
13.0966	0.013
13.1304	0.01
13.1641	0.006
13.1979	0.003
13.2316	0.001
13.2654	0
13.2991	0.001
13.3329	0.003
13.3666	0.003
13.4004	0.003
13.4341	0.001
13.4679	0.001
13.5016	0.001
13.5354	0.001
13.5691	0.001
13.6029	0.003
13.6366	0.003
13.6704	0.005
13.7041	0.022
13.7379	0.076
13.7716	0.161
13.8054	0.213
13.8391	0.268
13.8729	0.312
13.9066	0.332
13.9403	0.341
13.9741	0.322
14.0078	0.273
14.0416	0.22
14.0753	0.183
14.1091	0.142
14.1428	0.105
14.1766	0.073
14.2103	0.033
14.2441	0.016
14.2778	0.013
14.3116	0.016
14.3453	0.033
14.3791	0.101
14.4128	0.173
14.4466	0.276
14.4803	0.354
14.5141	0.455
14.5478	0.522
14.5816	0.568
14.6153	0.604
14.6491	0.629
14.6828	0.653
14.7166	0.674
14.7503	0.689
14.7841	0.702
14.8178	0.711
14.8516	0.718
14.8853	0.723
14.9191	0.726
14.9528	0.73
14.9866	0.733
15.0203	0.738
15.0541	0.738
15.0878	0.741
15.1216	0.741
15.1553	0.741
15.1891	0.74
15.2228	0.74
15.2566	0.738
15.2903	0.738
15.3241	0.736
15.3578	0.73
