Infrared Spectrum: 1,1,1,5,5,6,6,7,7,7-Decafluoro-2,4-heptanedione
Formula: C 7 H 2 F 10 O 2
CAS: 20583-66-8
State: gas
Origin: EPA-IR VAPOR PHASE LIBRARY
1/CM	ABSORBANCE
549.8	0.018976
559.445	0.021746
569.09	0.039196
578.734	0.051686
588.379	0.037286
598.024	0.031416
607.669	0.032396
617.313	0.039506
626.958	0.046506
636.603	0.051826
646.248	0.043906
655.893	0.047076
665.537	0.062226
675.182	0.047346
684.827	0.028936
694.472	0.026366
704.116	0.028426
713.761	0.033516
723.406	0.034326
733.051	0.038196
742.695	0.080896
752.34	0.097416
761.985	0.030556
771.63	0.021686
781.275	0.032536
790.919	0.034246
800.564	0.038386
810.209	0.073076
819.854	0.080516
829.498	0.036836
839.143	0.025496
848.788	0.021276
858.433	0.021086
868.078	0.025496
877.722	0.042326
887.367	0.072946
897.012	0.058436
906.657	0.044786
916.301	0.037036
925.946	0.059516
935.591	0.095396
945.236	0.088106
954.88	0.110316
964.525	0.093446
974.17	0.041346
983.815	0.024956
993.46	0.022426
1003.1	0.028546
1012.75	0.044746
1022.39	0.052926
1032.04	0.059136
1041.68	0.078876
1051.33	0.114306
1060.97	0.136376
1070.62	0.135756
1080.26	0.157016
1089.91	0.150306
1099.55	0.154576
1109.2	0.146406
1118.84	0.183066
1128.49	0.298316
1138.13	0.250496
1147.78	0.188886
1157.42	0.237916
1167.07	0.359706
1176.71	0.514346
1186.36	0.567986
1196	0.511616
1205.64	0.567926
1215.29	0.775016
1224.93	0.884466
1234.58	0.985786
1244.22	0.823226
1253.87	0.441866
1263.51	0.356696
1273.16	0.333366
1282.8	0.300306
1292.45	0.246426
1302.09	0.196666
1311.74	0.174196
1321.38	0.174006
1331.03	0.181046
1340.67	0.164066
1350.32	0.119176
1359.96	0.072286
1369.61	0.050566
1379.25	0.041806
1388.9	0.038176
1398.54	0.038336
1408.18	0.041436
1417.83	0.047036
1427.47	0.056046
1437.12	0.061876
1446.76	0.054446
1456.41	0.041596
1466.05	0.032506
1475.7	0.027416
1485.34	0.024956
1494.99	0.023926
1504.63	0.023956
1514.28	0.024566
1523.92	0.025746
1533.57	0.026936
1543.21	0.027686
1552.86	0.028326
1562.5	0.032656
1572.15	0.040556
1581.79	0.053716
1591.44	0.077616
1601.08	0.116566
1610.73	0.174866
1620.37	0.212596
1630.01	0.176976
1639.66	0.114656
1649.3	0.076146
1658.95	0.065536
1668.59	0.076526
1678.24	0.100276
1687.88	0.103656
1697.53	0.075966
1707.17	0.045746
1716.82	0.029126
1726.46	0.021826
1736.11	0.019166
1745.75	0.020526
1755.4	0.028736
1765.04	0.034536
1774.69	0.030066
1784.33	0.036046
1793.98	0.026546
1803.62	0.013936
1813.27	0.009606
1822.91	0.008146
1832.55	0.007146
1842.2	0.006966
1851.84	0.006856
1861.49	0.006346
1871.13	0.005996
1880.78	0.005526
1890.42	0.004936
1900.07	0.004506
1909.71	0.004506
1919.36	0.004186
1929	0.003946
1938.65	0.004006
1948.29	0.004076
1957.94	0.004366
1967.58	0.004776
1977.23	0.004816
1986.87	0.004596
1996.52	0.004296
2006.16	0.003936
2015.81	0.003566
2025.45	0.003606
2035.1	0.003256
2044.74	0.003016
2054.38	0.002986
2064.03	0.003356
2073.67	0.003106
2083.32	0.003376
2092.96	0.003236
2102.61	0.003096
2112.25	0.003286
2121.9	0.003246
2131.54	0.003356
2141.19	0.003136
2150.83	0.003146
2160.48	0.003036
2170.12	0.003246
2179.77	0.003026
2189.41	0.003066
2199.06	0.003256
2208.7	0.003386
2218.35	0.003346
2227.99	0.003536
2237.64	0.003516
2247.28	0.003506
2256.92	0.003966
2266.57	0.003866
2276.21	0.004286
2285.86	0.004816
2295.5	0.005056
2305.15	0.005236
2314.79	0.005436
2324.44	0.006086
2334.08	0.005816
2343.73	0.005836
2353.37	0.006156
2363.02	0.006686
2372.66	0.006616
2382.31	0.007016
2391.95	0.007286
2401.6	0.007146
2411.24	0.006976
2420.89	0.006736
2430.53	0.006756
2440.18	0.006576
2449.82	0.006716
2459.47	0.006286
2469.11	0.006436
2478.75	0.006376
2488.4	0.006016
2498.04	0.005996
2507.69	0.006126
2517.33	0.006556
2526.98	0.006746
2536.62	0.006726
2546.27	0.006446
2555.91	0.006356
2565.56	0.006476
2575.2	0.005916
2584.85	0.005556
2594.49	0.005276
2604.14	0.005046
2613.78	0.004996
2623.43	0.005106
2633.07	0.004916
2642.72	0.004796
2652.36	0.005156
2662.01	0.005466
2671.65	0.005486
2681.29	0.005646
2690.94	0.005776
2700.58	0.005976
2710.23	0.006166
2719.87	0.006026
2729.52	0.006036
2739.16	0.006186
2748.81	0.006056
2758.45	0.006076
2768.1	0.005826
2777.74	0.006236
2787.39	0.006216
2797.03	0.006866
2806.68	0.006956
2816.32	0.006486
2825.97	0.006566
2835.61	0.007076
2845.26	0.007206
2854.9	0.007536
2864.55	0.007586
2874.19	0.007596
2883.84	0.007796
2893.48	0.007656
2903.12	0.007416
2912.77	0.007486
2922.41	0.007896
2932.06	0.007906
2941.7	0.008556
2951.35	0.008216
2960.99	0.008036
2970.64	0.008786
2980.28	0.008406
2989.93	0.008646
2999.57	0.008376
3009.22	0.008246
3018.86	0.008606
3028.51	0.008786
3038.15	0.008186
3047.8	0.008396
3057.44	0.008436
3067.09	0.008436
3076.73	0.008256
3086.38	0.008646
3096.02	0.009156
3105.67	0.009556
3115.31	0.011006
3124.95	0.012646
3134.6	0.015026
3144.24	0.012756
3153.89	0.010226
3163.53	0.009756
3173.18	0.008806
3182.82	0.008646
3192.47	0.008406
3202.11	0.008226
3211.76	0.007836
3221.4	0.008126
3231.05	0.007976
3240.69	0.008096
3250.34	0.008326
3259.98	0.007956
3269.63	0.008046
3279.27	0.007426
3288.92	0.007216
3298.56	0.007596
3308.21	0.007136
3317.85	0.007056
3327.49	0.007266
3337.14	0.006646
3346.78	0.006956
3356.43	0.006616
3366.07	0.006006
3375.72	0.005386
3385.36	0.004996
3395.01	0.004716
3404.65	0.004586
3414.3	0.004286
3423.94	0.003516
3433.59	0.003446
3443.23	0.003206
3452.88	0.003406
3462.52	0.002796
3472.17	0.002256
3481.81	0.002706
3491.46	0.002676
3501.1	0.002686
3510.75	0.002496
3520.39	0.003146
3530.04	0.002666
3539.68	0.002676
3549.32	0.0017316
3558.97	0.001707
3568.61	0.0016603
3578.26	0.002026
3587.9	0.0016684
3597.55	0.00099624
3607.19	0.000758
3616.84	0.0013991
3626.48	0.001321
3636.13	0.0012902
3645.77	0.00101987
3655.42	0.000325
3665.06	0.0017512
3674.71	0.0012266
3684.35	0.000645
3694	0.0009259
3703.64	0.000567
3713.29	0.001318
3722.93	0.000401
3732.58	0.000639
3742.22	0.0012977
3751.86	0.0011332
3761.51	0.0012399
3771.15	0.0009285
3780.8	0.000312
3790.44	0.000572
3800.09	0.000676
3809.73	0.000326
3819.38	0.00106459
3829.02	0.000787
3838.67	0.000731
3848.31	0.000639
3857.96	0.0008807
3867.6	0.0011802
3877.25	0.000454
3886.89	0.000783
3896.54	0.0008946
3906.18	0.0017531
3915.83	0.000503
3925.47	0.001021
3935.12	0.00101238
3944.76	0.000565
3954.41	0.0013545
3964.05	0.0009345
3973.69	0.0011257
3983.34	0.000695
3992.98	0.000319
