Infrared Spectrum: DIETHYLENE GLYCOL MONOBENZOATE
Formula: C11 H14 O4
CAS: 20587-61-5
State: SOLUTION (10% CCl4 FOR 5000-1330, 10% CS2 FOR 1330-625 CM^-^1)
Class: COBLENTZ
Instrument: Not specified, most likely a prism, grating, or hybrid spectrometer.
Sampling: TRANSMISSION
Path length: 0.0126 CM, 0.0126 CM
Resolution: 4
Origin: DOW CHEMICAL COMPANY
MICROMETERS	TRANSMITTANCE
2.027	0.897
2.06804	0.893
2.10908	0.895
2.15011	0.9
2.19115	0.893
2.23219	0.883
2.27323	0.888
2.31426	0.893
2.3553	0.89
2.39634	0.878
2.43738	0.883
2.47842	0.89
2.51945	0.893
2.56049	0.895
2.60153	0.895
2.64257	0.881
2.6836	0.857
2.72464	0.785
2.76568	0.636
2.80672	0.556
2.84775	0.52
2.88879	0.577
2.92983	0.684
2.97087	0.76
3.01191	0.816
3.05294	0.847
3.09398	0.869
3.13502	0.873
3.17606	0.84
3.21709	0.761
3.25813	0.765
3.29917	0.772
3.34021	0.563
3.38125	0.332
3.42228	0.352
3.46332	0.397
3.50436	0.722
3.5454	0.792
3.58643	0.828
3.62747	0.837
3.66851	0.873
3.70955	0.89
3.75059	0.893
3.79162	0.893
3.83266	0.892
3.8737	0.892
3.91474	0.897
3.95577	0.902
3.99681	0.905
4.03785	0.905
4.07889	0.904
4.11993	0.9
4.16096	0.898
4.202	0.893
4.24304	0.888
4.28408	0.886
4.32511	0.888
4.36615	0.893
4.40719	0.9
4.44823	0.907
4.48926	0.909
4.5303	0.907
4.57134	0.907
4.61238	0.905
4.65342	0.902
4.69445	0.897
4.73549	0.897
4.77653	0.904
4.81757	0.907
4.8586	0.909
4.89964	0.907
4.94068	0.9
4.98172	0.881
5.02276	0.863
5.06379	0.847
5.10483	0.878
5.14587	0.868
5.18691	0.861
5.22794	0.881
5.26898	0.9
5.31002	0.902
5.35106	0.898
5.3921	0.892
5.43313	0.866
5.47417	0.851
5.51521	0.864
5.55625	0.818
5.59728	0.799
5.63832	0.782
5.67936	0.702
5.7204	0.446
5.76143	0.135
5.80247	0.053
5.84351	0.176
5.88455	0.625
5.92559	0.736
5.96662	0.806
6.00766	0.818
6.0487	0.811
6.08974	0.828
6.13077	0.789
6.17181	0.698
6.21285	0.525
6.25389	0.578
6.29493	0.51
6.33596	0.561
6.377	0.52
6.41804	0.458
6.45908	0.482
6.50011	0.565
6.54115	0.602
6.58219	0.648
6.62323	0.707
6.66427	0.671
6.7053	0.708
6.74634	0.655
6.78738	0.59
6.82842	0.438
6.86945	0.34
6.91049	0.578
6.95153	0.659
6.99257	0.652
7.03361	0.625
7.07464	0.571
7.11568	0.53
7.15672	0.503
7.19776	0.501
7.23879	0.462
7.27983	0.494
7.32087	0.46
7.36191	0.457
7.40294	0.587
7.44398	0.573
7.48502	0.587
7.52606	0.522
7.5671	0.321
7.60813	0.405
7.64917	0.407
7.69021	0.28
7.73125	0.157
7.77228	0.053
7.81332	0.022
7.85436	0.02
7.8954	0.044
7.93644	0.113
7.97747	0.133
8.01851	0.239
8.05955	0.448
8.10059	0.537
8.14162	0.563
8.18266	0.568
8.2237	0.577
8.26474	0.604
8.30578	0.643
8.34681	0.654
8.38785	0.611
8.42889	0.51
8.46993	0.333
8.51096	0.424
8.552	0.527
8.59304	0.469
8.63408	0.404
8.67512	0.291
8.71615	0.172
8.75719	0.099
8.79823	0.071
8.83927	0.07
8.8803	0.068
8.92134	0.063
8.96238	0.046
9.00342	0.029
9.04445	0.025
9.08549	0.047
9.12653	0.059
9.16757	0.114
9.20861	0.178
9.24964	0.179
9.29068	0.131
9.33172	0.066
9.37276	0.046
9.41379	0.087
9.45483	0.145
9.49587	0.241
9.53691	0.318
9.57795	0.325
9.61898	0.291
9.66002	0.255
9.70106	0.2
9.7421	0.243
9.78313	0.453
9.82417	0.527
9.86521	0.57
9.90625	0.602
9.94729	0.611
9.98832	0.631
10.0294	0.666
10.0704	0.669
10.1114	0.671
10.1525	0.671
10.1935	0.671
10.2345	0.669
10.2756	0.688
10.3166	0.707
10.3577	0.719
10.3987	0.727
10.4397	0.727
10.4808	0.717
10.5218	0.693
10.5629	0.654
10.6039	0.607
10.6449	0.534
10.686	0.484
10.727	0.489
10.768	0.537
10.8091	0.571
10.8501	0.595
10.8912	0.623
10.9322	0.65
10.9732	0.66
11.0143	0.645
11.0553	0.614
11.0963	0.566
11.1374	0.523
11.1784	0.493
11.2195	0.472
11.2605	0.486
11.3015	0.508
11.3426	0.522
11.3836	0.532
11.4246	0.542
11.4657	0.553
11.5067	0.565
11.5478	0.573
11.5888	0.577
11.6298	0.571
11.6709	0.565
11.7119	0.553
11.7529	0.542
11.794	0.539
11.835	0.561
11.8761	0.609
11.9171	0.664
11.9581	0.7
11.9992	0.72
12.0402	0.727
12.0812	0.731
12.1223	0.729
12.1633	0.727
12.2044	0.731
12.2454	0.736
12.2864	0.731
12.3275	0.72
12.3685	0.705
12.4095	0.688
12.4506	0.686
12.4916	0.705
12.5327	0.724
12.5737	0.743
12.6147	0.753
12.6558	0.761
12.6968	0.768
12.7379	0.777
12.7789	0.784
12.8199	0.791
12.861	0.796
12.902	0.799
12.943	0.801
12.9841	0.799
13.0251	0.797
13.0662	0.791
13.1072	0.784
13.1482	0.777
13.1893	0.768
13.2303	0.765
13.2713	0.76
13.3124	0.756
13.3534	0.75
13.3945	0.744
13.4355	0.736
13.4765	0.726
13.5176	0.715
13.5586	0.702
13.5996	0.691
13.6407	0.676
13.6817	0.65
13.7228	0.625
13.7638	0.583
13.8048	0.532
13.8459	0.457
13.8869	0.344
13.9279	0.21
13.969	0.102
14.01	0.025
14.0511	0
14.0921	0.008
14.1331	0.051
14.1742	0.157
14.2152	0.318
14.2562	0.404
14.2973	0.464
14.3383	0.493
14.3794	0.501
14.4204	0.488
14.4614	0.453
14.5025	0.414
14.5435	0.381
14.5846	0.385
14.6256	0.431
14.6666	0.464
14.7077	0.455
14.7487	0.436
14.7897	0.426
14.8308	0.434
14.8718	0.458
14.9129	0.477
14.9539	0.496
14.9949	0.508
15.036	0.506
15.077	0.501
15.118	0.498
15.1591	0.488
15.2001	0.479
15.2412	0.469
15.2822	0.46
15.3232	0.457
15.3643	0.455
15.4053	0.452
15.4463	0.446
15.4874	0.44
15.5284	0.434
15.5695	0.429
15.6105	0.424
15.6515	0.419
15.6926	0.414
15.7336	0.41
15.7746	0.404
15.8157	0.398
15.8567	0.393
