Infrared Spectrum: 4-(Methylthio)butanol
Formula: C 5 H 12 O S
CAS: 20582-85-8
State: gas
Origin: EPA-IR VAPOR PHASE LIBRARY
1/CM	ABSORBANCE
549.8	0.0016443
559.445	0.0014404
569.09	0.0020404
578.734	0.001384
588.379	0.000946
598.024	0.0011948
607.669	0.0011694
617.313	0.0014398
626.958	0.000526
636.603	0.000963
646.248	0.0014492
655.893	0.00213
665.537	0.0012824
675.182	0.0014249
684.827	0.0014314
694.472	0.0017876
704.116	0.0019069
713.761	0.00212
723.406	0.001259
733.051	0.0017185
742.695	0.00239
752.34	0.00253
761.985	0.00212
771.63	0.00222
781.275	0.001476
790.919	0.00234
800.564	0.00217
810.209	0.0020457
819.854	0.00223
829.498	0.00251
839.143	0.0020398
848.788	0.00258
858.433	0.0024
868.078	0.00275
877.722	0.00292
887.367	0.00349
897.012	0.00419
906.657	0.00507
916.301	0.00605
925.946	0.00625
935.591	0.00599
945.236	0.00698
954.88	0.00715
964.525	0.0078
974.17	0.00771
983.815	0.00749
993.46	0.00806
1003.1	0.00871
1012.75	0.01321
1022.39	0.01867
1032.04	0.02396
1041.68	0.02647
1051.33	0.02922
1060.97	0.02868
1070.62	0.02184
1080.26	0.01476
1089.91	0.00938
1099.55	0.00656
1109.2	0.00566
1118.84	0.00649
1128.49	0.00432
1138.13	0.00476
1147.78	0.00333
1157.42	0.00421
1167.07	0.00381
1176.71	0.00376
1186.36	0.00518
1196	0.00566
1205.64	0.00373
1215.29	0.00587
1224.93	0.006
1234.58	0.00733
1244.22	0.00768
1253.87	0.00855
1263.51	0.00867
1273.16	0.0094
1282.8	0.00984
1292.45	0.00972
1302.09	0.00862
1311.74	0.00765
1321.38	0.00617
1331.03	0.00599
1340.67	0.00604
1350.32	0.00629
1359.96	0.00635
1369.61	0.00702
1379.25	0.00788
1388.9	0.00854
1398.54	0.00774
1408.18	0.00685
1417.83	0.00718
1427.47	0.0094
1437.12	0.01153
1446.76	0.01133
1456.41	0.00879
1466.05	0.00641
1475.7	0.00518
1485.34	0.00414
1494.99	0.00285
1504.63	0.00238
1514.28	0.0020747
1523.92	0.00213
1533.57	0.0018521
1543.21	0.001894
1552.86	0.0016664
1562.5	0.0013846
1572.15	0.0016303
1581.79	0.0015539
1591.44	0.0014172
1601.08	0.00117944
1610.73	0.00107737
1620.37	0.00116108
1630.01	0.0013675
1639.66	0.0010151
1649.3	0.0013316
1658.95	0.0014241
1668.59	0.000965
1678.24	0.0012363
1687.88	0.000971
1697.53	0.000838
1707.17	0.0009964
1716.82	0.000919
1726.46	0.000803
1736.11	0.00110991
1745.75	0.0009976
1755.4	0.00109089
1765.04	0.0012011
1774.69	0.000937
1784.33	0.00117708
1793.98	0.00114058
1803.62	0.001045
1813.27	0.0012078
1822.91	0.0010269
1832.55	0.000967
1842.2	0.00109371
1851.84	0.0012641
1861.49	0.0012909
1871.13	0.0010276
1880.78	0.0013654
1890.42	0.0012542
1900.07	0.00112568
1909.71	0.0011893
1919.36	0.0012272
1929	0.0011993
1938.65	0.0013124
1948.29	0.00116617
1957.94	0.0014465
1967.58	0.0012974
1977.23	0.0012507
1986.87	0.0010134
1996.52	0.00112869
2006.16	0.0012377
2015.81	0.0013916
2025.45	0.0013742
2035.1	0.0012703
2044.74	0.0013565
2054.38	0.0013715
2064.03	0.0014897
2073.67	0.0013323
2083.32	0.0012263
2092.96	0.0012776
2102.61	0.00134
2112.25	0.0014716
2121.9	0.0013178
2131.54	0.0015208
2141.19	0.0014848
2150.83	0.0013878
2160.48	0.0012927
2170.12	0.0014073
2179.77	0.0013627
2189.41	0.0014091
2199.06	0.0014789
2208.7	0.0012516
2218.35	0.0013406
2227.99	0.00117198
2237.64	0.0015765
2247.28	0.0013614
2256.92	0.0013766
2266.57	0.0013792
2276.21	0.0014695
2285.86	0.0014181
2295.5	0.0013797
2305.15	0.0014988
2314.79	0.0016509
2324.44	0.0015278
2334.08	0.0017914
2343.73	0.0013392
2353.37	0.0013965
2363.02	0.0015979
2372.66	0.0013827
2382.31	0.0015853
2391.95	0.00167
2401.6	0.0015405
2411.24	0.0015591
2420.89	0.0014596
2430.53	0.0012923
2440.18	0.0013474
2449.82	0.0013072
2459.47	0.001271
2469.11	0.0014714
2478.75	0.0009833
2488.4	0.0014939
2498.04	0.0015338
2507.69	0.0013871
2517.33	0.0013486
2526.98	0.0013774
2536.62	0.0017414
2546.27	0.0015288
2555.91	0.0014603
2565.56	0.001657
2575.2	0.0012733
2584.85	0.0016425
2594.49	0.0013802
2604.14	0.001548
2613.78	0.0018316
2623.43	0.0019065
2633.07	0.0017265
2642.72	0.0018707
2652.36	0.0016538
2662.01	0.00217
2671.65	0.0020393
2681.29	0.0019738
2690.94	0.00217
2700.58	0.00237
2710.23	0.00268
2719.87	0.00229
2729.52	0.00311
2739.16	0.00285
2748.81	0.00303
2758.45	0.00277
2768.1	0.00306
2777.74	0.00344
2787.39	0.00355
2797.03	0.00475
2806.68	0.00465
2816.32	0.00592
2825.97	0.00758
2835.61	0.01033
2845.26	0.01515
2854.9	0.01904
2864.55	0.02215
2874.19	0.02516
2883.84	0.02635
2893.48	0.02734
2903.12	0.0313
2912.77	0.04223
2922.41	0.05624
2932.06	0.0614
2941.7	0.05815
2951.35	0.0482
2960.99	0.03521
2970.64	0.02341
2980.28	0.01611
2989.93	0.01218
2999.57	0.00897
3009.22	0.0059
3018.86	0.0046
3028.51	0.00364
3038.15	0.0034
3047.8	0.00276
3057.44	0.00256
3067.09	0.00289
3076.73	0.0020662
3086.38	0.0020728
3096.02	0.00256
3105.67	0.00225
3115.31	0.00234
3124.95	0.00223
3134.6	0.0018017
3144.24	0.001737
3153.89	0.0017416
3163.53	0.0014603
3173.18	0.0012438
3182.82	0.0017943
3192.47	0.0015468
3202.11	0.0010384
3211.76	0.00117735
3221.4	0.0015792
3231.05	0.0012955
3240.69	0.0016071
3250.34	0.0012525
3259.98	0.0017677
3269.63	0.0013867
3279.27	0.0017555
3288.92	0.00111342
3298.56	0.0014446
3308.21	0.0013344
3317.85	0.0017156
3327.49	0.0014903
3337.14	0.0012808
3346.78	0.0013203
3356.43	0.00116027
3366.07	0.0014908
3375.72	0.0017519
3385.36	0.000476
3395.01	0.00117537
3404.65	0.0017602
3414.3	0.0013917
3423.94	0.0014638
3433.59	0.00108925
3443.23	0.0019816
3452.88	0.00212
3462.52	0.0019613
3472.17	0.00214
3481.81	0.00257
3491.46	0.0017324
3501.1	0.0012265
3510.75	0.0019454
3520.39	0.00263
3530.04	0.0023
3539.68	0.0017818
3549.32	0.00233
3558.97	0.0020244
3568.61	0.0015919
3578.26	0.00249
3587.9	0.0020757
3597.55	0.0015007
3607.19	0.001776
3616.84	0.00238
3626.48	0.0025
3636.13	0.00278
3645.77	0.00483
3655.42	0.00657
3665.06	0.009
3674.71	0.0085
3684.35	0.00563
3694	0.00286
3703.64	0.00231
3713.29	0.00213
3722.93	0.00238
3732.58	0.00239
3742.22	0.0012783
3751.86	0.0014137
3761.51	0.00254
3771.15	0.0017758
3780.8	0.0014339
3790.44	0.00209
3800.09	0.0012797
3809.73	0.0016189
3819.38	0.0015024
3829.02	0.00236
3838.67	0.001938
3848.31	0.00213
3857.96	0.0021
3867.6	0.0016762
3877.25	0.00213
3886.89	0.0014938
3896.54	0.00112977
3906.18	0.00226
3915.83	0.00211
3925.47	0.00247
3935.12	0.0015811
3944.76	0.0015692
3954.41	0.0014218
3964.05	0.0017416
3973.69	0.000595
3983.34	0.00222
3992.98	0.0012597
