Infrared Spectrum: Fluoranthene
Formula: C 16 H 10
CAS: 206-44-0
State: gas
Instrument: HP-GC/MS/IRD
Origin: NIST Mass Spectrometry Data Center
1/CM	ABSORBANCE
550	0.0006479
562	0.0005491
574	0.0004161
586	0.0003192
598	0.0003933
610	0.0017651
622	0.0018468
634	0.000532
646	0.0004047
658	0.0003667
670	0.0005833
682	3.8e-06
694	8.55e-05
706	0.0005035
718	0.0006859
730	0.0023123
742	0.0056962
754	0.003857
766	0.0132886
778	0.0148143
790	0.0031445
802	0.0011058
814	0.001216
826	0.00247
838	0.0009348
850	0.0003401
862	0.0002964
874	0.0002964
886	0.0004085
898	0.0004465
910	0.0003515
922	0.0005168
934	0.0006422
946	0.0003021
958	0.0002622
970	0.0004009
982	0.0005206
994	0.0004237
1006	0.0004997
1018	0.0007999
1030	0.0008759
1042	0.0005016
1054	0.0002432
1066	0.0003629
1078	0.0004161
1090	0.0004579
1102	0.0005681
1114	0.000513
1126	0.0008892
1138	0.0014098
1150	0.0005776
1162	0.0004123
1174	0.0004047
1186	0.0006517
1198	0.0004218
1210	0.0005035
1222	0.000589
1234	0.0003496
1246	0.0001406
1258	7.79e-05
1270	6.46e-05
1282	0.0001824
1294	0.000171
1306	5.7e-06
1318	7.6e-05
1330	0
1342	0.0002451
1354	0.0002698
1366	0.0005244
1378	0.0005586
1390	0.000703
1402	0.0007296
1414	0.0019684
1426	0.0038513
1438	0.0034599
1450	0.0065531
1462	0.0057228
1474	0.0017518
1486	0.0012065
1498	0.0008835
1510	0.0011932
1522	0.0008816
1534	0.0004731
1546	0.0006517
1558	0.0010545
1570	0.0004142
1582	0.0003401
1594	0.0006745
1606	0.0015143
1618	0.0011951
1630	0.0004161
1642	0.0003952
1654	0.0007486
1666	0.0005833
1678	0.000684
1690	0.000437
1702	0.000741
1714	0.0006327
1726	0.0005149
1738	0.0006156
1750	0.0006004
1762	0.0003705
1774	0.0004712
1786	0.0007923
1798	0.001102
1810	0.0004332
1822	0.0003344
1834	0.0003078
1846	0.0004845
1858	0.0006289
1870	0.0006023
1882	0.0002356
1894	0.0004807
1906	0.0006289
1918	0.0009728
1930	0.0008759
1942	0.0004484
1954	0.0001159
1966	0.0001102
1978	4.37e-05
1990	9.31e-05
2002	5.51e-05
2014	0.0001083
2026	7.6e-05
2038	0.0001102
2050	9.5e-05
2062	8.55e-05
2074	5.7e-05
2086	6.84e-05
2098	9.88e-05
2110	5.7e-05
2122	1.33e-05
2134	6.27e-05
2146	0.0001007
2158	8.93e-05
2170	7.79e-05
2182	9.88e-05
2194	0.000114
2206	0.0001463
2218	0.0001748
2230	0.000114
2242	0.0001425
2254	0.0001007
2266	6.46e-05
2278	0.0001178
2290	0.000133
2302	0.0001729
2314	0.0003192
2326	0.0003781
2338	0.0003762
2350	0.0002641
2362	0.0005358
2374	0.0003192
2386	9.31e-05
2398	0.000133
2410	9.88e-05
2422	0.0001539
2434	8.74e-05
2446	0.0001349
2458	0.0001596
2470	0.0001387
2482	0.0001273
2494	0.0001064
2506	0.0001121
2518	5.7e-05
2530	9.88e-05
2542	4.18e-05
2554	9.69e-05
2566	8.74e-05
2578	0.0001444
2590	8.74e-05
2602	9.5e-05
2614	0.0001159
2626	0.0001083
2638	7.6e-05
2650	8.36e-05
2662	0.0001121
2674	0.0001539
2686	0.0001653
2698	9.5e-05
2710	0.0001064
2722	8.93e-05
2734	0.0001102
2746	0.0001406
2758	0.0001216
2770	0.0001273
2782	0.0001045
2794	0.0002071
2806	0.0001919
2818	0.0001938
2830	0.0002033
2842	0.0002033
2854	0.0002755
2866	0.0002907
2878	0.0003078
2890	0.0002451
2902	0.0002223
2914	0.0003211
2926	0.0003002
2938	0.0003572
2950	0.0004218
2962	0.0004826
2974	0.0004902
2986	0.0005529
2998	0.0007828
3010	0.001121
3022	0.0016872
3034	0.0034751
3046	0.0068837
3058	0.0098306
3070	0.0113259
3082	0.0049533
3094	0.0019361
3106	0.0007866
3118	0.0004389
3130	0.0003078
3142	0.0002831
3154	0.0003211
3166	0.0002698
3178	0.0001444
3190	0.0001843
3202	0.0002565
3214	0.000228
3226	0.0001672
3238	0.0001577
3250	0.0001083
3262	8.74e-05
3274	0.0001672
3286	0.0001539
3298	9.88e-05
3310	8.55e-05
3322	3.8e-06
3334	0.0001083
3346	7.6e-05
3358	0.0001805
3370	0.000114
3382	8.36e-05
3394	0.000152
3406	5.51e-05
3418	0.0001292
3430	6.46e-05
3442	6.46e-05
3454	3.8e-05
3466	7.22e-05
3478	0.0001026
3490	0.0001026
3502	0.0001767
3514	0.0001425
3526	0.0001539
3538	1.33e-05
3550	0.0001577
3562	0.000133
3574	0.0001007
3586	0.0003496
3598	0.0001026
3610	0.0003306
3622	0.0002356
3634	0.0001938
3646	0.0002983
3658	0.00019
3670	0.0003363
3682	0.0001463
3694	0.0001444
3706	0.0001748
3718	0.0001596
3730	0.000342
3742	0.0005282
3754	0.0003876
3766	0.0001615
3778	0.0001653
3790	0.0001064
3802	0.0003838
3814	0.0002451
3826	0.0002489
3838	0.0004674
