Infrared Spectrum: 1,2-Bis(trimethylsilyl)benzene
Formula: C 12 H 22 Si 2
CAS: 2060-89-1
State: gas
Origin: EPA-IR VAPOR PHASE LIBRARY
1/CM	ABSORBANCE
501.5	6.51e-05
513.074	0.00018844
524.648	0.0001025
536.222	0.000139
547.796	0.0002728
559.37	0.0002938
570.944	0.0004083
582.518	0.0004801
594.092	0.0006722
605.666	0.002555
617.24	0.007625
628.814	0.002485
640.388	0.0010743
651.962	0.001265
663.536	0.001645
675.11	0.003135
686.684	0.006525
698.258	0.007955
709.832	0.006515
721.406	0.005625
732.98	0.007135
744.554	0.013075
756.128	0.015735
767.702	0.009675
779.276	0.005875
790.85	0.004855
802.423	0.005725
813.997	0.010575
825.571	0.024795
837.145	0.048025
848.719	0.058635
860.293	0.062285
871.867	0.035325
883.441	0.017475
895.015	0.010545
906.589	0.006655
918.163	0.004105
929.737	0.002545
941.311	0.001535
952.885	0.001031
964.459	0.0006434
976.033	0.0004656
987.607	0.0004775
999.181	0.0005847
1010.76	0.0005008
1022.33	0.0004793
1033.9	0.0006802
1045.48	0.0005572
1057.05	0.0004322
1068.63	0.000602
1080.2	0.0009819
1091.77	0.002605
1103.35	0.009085
1114.92	0.007415
1126.49	0.002555
1138.07	0.002725
1149.64	0.002155
1161.22	0.001335
1172.79	0.001655
1184.36	0.001885
1195.94	0.0009316
1207.51	0.001165
1219.09	0.001935
1230.66	0.004625
1242.23	0.012355
1253.81	0.020925
1265.38	0.018375
1276.96	0.005915
1288.53	0.002625
1300.1	0.002425
1311.68	0.002535
1323.25	0.001895
1334.83	0.001425
1346.4	0.002255
1357.97	0.004835
1369.55	0.003865
1381.12	0.001755
1392.7	0.001795
1404.27	0.002055
1415.84	0.001935
1427.42	0.001555
1438.99	0.001305
1450.57	0.001285
1462.14	0.001175
1473.71	0.000797
1485.29	0.000531
1496.86	0.000512
1508.44	0.0005158
1520.01	0.0005545
1531.58	0.0005646
1543.16	0.0005522
1554.73	0.0005769
1566.31	0.0008058
1577.88	0.0009273
1589.45	0.0004494
1601.03	0.000394
1612.6	0.0003831
1624.18	0.0003535
1635.75	0.0003245
1647.32	0.0003263
1658.9	0.0003852
1670.47	0.0003953
1682.05	0.0004343
1693.62	0.0005011
1705.19	0.0004984
1716.77	0.0002934
1728.34	0.0002735
1739.92	0.00025358
1751.49	0.0002426
1763.06	0.00024281
1774.64	0.0002735
1786.21	0.0003472
1797.79	0.0004346
1809.36	0.0004189
1820.93	0.0003905
1832.51	0.0004204
1844.08	0.0004219
1855.66	0.0005101
1867.23	0.0006838
1878.8	0.0009125
1890.38	0.0008218
1901.95	0.000485
1913.53	0.0004177
1925.1	0.0005049
1936.67	0.0006918
1948.25	0.0007528
1959.82	0.0005388
1971.4	0.0003958
1982.97	0.0003527
1994.54	0.0003475
2006.12	0.0003704
2017.69	0.0003627
2029.27	0.0003051
2040.84	0.00025975
2052.41	0.0002658
2063.99	0.00024975
2075.56	0.0002894
2087.14	0.0003352
2098.71	0.0003733
2110.28	0.0003394
2121.86	0.0003209
2133.43	0.0002771
2145.01	0.0002836
2156.58	0.00022723
2168.15	0.00020801
2179.73	0.00025052
2191.3	0.00022711
2202.88	0.00021892
2214.45	0.00022274
2226.02	0.00023877
2237.6	0.0002252
2249.17	0.0002394
2260.74	0.00024211
2272.32	0.00024329
2283.89	0.00019866
2295.47	0.00021855
2307.04	0.00019008
2318.61	0.0002181
2330.19	0.00022421
2341.76	0.00019914
2353.34	0.0002324
2364.91	0.00021815
2376.48	0.000165529
2388.06	0.000169017
2399.63	0.0001593
2411.21	0.00018559
2422.78	0.0001352
2434.35	0.000146
2445.93	0.00019025
2457.5	0.0001546
2469.08	0.00015807
2480.65	0.00019412
2492.22	0.00024175
2503.8	0.00020903
2515.37	0.00015894
2526.95	0.00017616
2538.52	0.000172754
2550.09	0.000217
2561.67	0.00019468
2573.24	0.00020891
2584.82	0.00015997
2596.39	0.0001498
2607.96	0.00019873
2619.54	0.0001787
2631.11	0.00021634
2642.69	0.00020378
2654.26	0.0002604
2665.83	0.00023331
2677.41	0.00023618
2688.98	0.00025371
2700.56	0.0002888
2712.13	0.0002838
2723.7	0.00025848
2735.28	0.0002714
2746.85	0.0003314
2758.43	0.0004042
2770	0.0005346
2781.57	0.0007635
2793.15	0.0010307
2804.72	0.0011586
2816.3	0.001245
2827.87	0.001385
2839.44	0.001495
2851.02	0.001695
2862.59	0.001905
2874.17	0.002325
2885.74	0.003415
2897.31	0.005465
2908.89	0.005915
2920.46	0.003945
2932.04	0.003465
2943.61	0.006675
2955.18	0.018825
2966.76	0.019235
2978.33	0.007915
2989.91	0.004125
3001.48	0.003185
3013.05	0.003805
3024.63	0.004545
3036.2	0.005565
3047.78	0.005205
3059.35	0.004475
3070.92	0.004475
3082.5	0.002915
3094.07	0.001735
3105.65	0.001435
3117.22	0.001345
3128.79	0.001175
3140.37	0.0009334
3151.94	0.0007246
3163.52	0.0005866
3175.09	0.0004671
3186.66	0.0003894
3198.24	0.0003
3209.81	0.0002863
3221.39	0.000318
3232.96	0.0002987
3244.53	0.000167874
3256.11	0.00025824
3267.68	0.00015855
3279.26	0.00019842
3290.83	0.00021604
3302.4	0.0001353
3313.98	0.00018329
3325.55	0.00019745
3337.13	0.00021003
3348.7	9.74e-05
3360.27	9.87e-05
3371.85	8.82e-05
3383.42	0.00018695
3395	0.000102
3406.57	0.0001482
3418.14	0.0001035
3429.72	0.0001038
3441.29	0.0001328
3452.86	0.00015794
3464.44	0.000167374
3476.01	0.00015501
3487.59	0.000167689
3499.16	0.00017898
3510.73	0.00019124
3522.31	0.00018907
3533.88	0.00022112
3545.46	0.00018512
3557.03	0.00020107
3568.6	0.0002685
3580.18	0.0002893
3591.75	0.0003045
3603.33	0.0002733
3614.9	0.0003072
3626.47	0.0003675
3638.05	0.0003907
3649.62	0.0004403
3661.2	0.0004484
3672.77	0.0003486
3684.34	0.0003153
3695.92	0.000344
3707.49	0.0003651
3719.07	0.0003686
3730.64	0.0004262
3742.21	0.0004935
3753.79	0.0003922
3765.36	0.0003095
3776.94	0.0003072
3788.51	0.0003421
3800.08	0.0003298
3811.66	0.0003332
3823.23	0.0001866
3834.81	0.00019946
3846.38	0.00018925
3857.95	0.0001069
3869.53	0.00019782
3881.1	0.000127
3892.68	0.000134
3904.25	0.0001415
3915.82	0.0001191
3927.4	0.0001263
3938.97	0.0001156
3950.55	8.63e-05
3962.12	7.24e-05
3973.69	0.0001191
3985.27	0.00023649
3996.84	0.0001117
