Infrared Spectrum: N-(.beta.-Hydroxyethyl)hexamethyleneimine
Formula: C 8 H 17 N O
CAS: 20603-00-3
State: gas
Origin: EPA-IR VAPOR PHASE LIBRARY
1/CM	ABSORBANCE
549.9	0.0003927
559.547	0.0004229
569.193	0.0004591
578.84	0.0004546
588.486	0.0004876
598.133	0.0004136
607.779	0.0003956
617.426	0.000357
627.072	0.0003371
636.719	0.0003204
646.365	0.0003336
656.012	0.0003413
665.658	0.0003711
675.305	0.0002905
684.951	0.0004017
694.598	0.0002936
704.245	0.0004114
713.891	0.0004192
723.538	0.0004525
733.184	0.0004407
742.831	0.0004103
752.477	0.0004127
762.124	0.000331
771.77	0.0004428
781.417	0.0004463
791.063	0.0004037
800.71	0.0003997
810.356	0.0003924
820.003	0.0003775
829.649	0.0004292
839.296	0.0004483
848.943	0.0005308
858.589	0.0005754
868.236	0.0007115
877.882	0.0007189
887.529	0.0008217
897.175	0.0008989
906.822	0.0008579
916.468	0.0007918
926.115	0.0006866
935.761	0.0006948
945.408	0.0006534
955.054	0.0007937
964.701	0.0008592
974.347	0.0008829
983.994	0.0008483
993.64	0.0009083
1003.29	0.001201
1012.93	0.001501
1022.58	0.001711
1032.23	0.002031
1041.87	0.002181
1051.52	0.002341
1061.17	0.002671
1070.81	0.002471
1080.46	0.002051
1090.11	0.001791
1099.75	0.001571
1109.4	0.001251
1119.05	0.001291
1128.69	0.001681
1138.34	0.001731
1147.99	0.001281
1157.63	0.0010997
1167.28	0.0011398
1176.92	0.0010522
1186.57	0.0011571
1196.22	0.0011206
1205.86	0.001391
1215.51	0.001351
1225.16	0.001371
1234.8	0.001211
1244.45	0.0011123
1254.1	0.00099
1263.74	0.0008545
1273.39	0.0009704
1283.04	0.0011044
1292.68	0.001068
1302.33	0.0011325
1311.98	0.0011101
1321.62	0.001251
1331.27	0.001261
1340.92	0.001491
1350.56	0.001731
1360.21	0.001721
1369.86	0.001441
1379.5	0.001251
1389.15	0.001341
1398.79	0.001371
1408.44	0.001221
1418.09	0.0009629
1427.73	0.0008779
1437.38	0.0010836
1447.03	0.001461
1456.67	0.001571
1466.32	0.001471
1475.97	0.0010825
1485.61	0.0007342
1495.26	0.0005337
1504.91	0.000425
1514.55	0.0003713
1524.2	0.0003835
1533.85	0.000337
1543.49	0.0003571
1553.14	0.0003067
1562.79	0.0002971
1572.43	0.000286
1582.08	0.0003208
1591.73	0.0002991
1601.37	0.000285
1611.02	0.0003098
1620.67	0.0003083
1630.31	0.0002983
1639.96	0.0002819
1649.6	0.00026444
1659.25	0.0003145
1668.9	0.0002906
1678.54	0.00027657
1688.19	0.0003247
1697.84	0.00026534
1707.48	0.0003122
1717.13	0.0002873
1726.78	0.0003166
1736.42	0.000335
1746.07	0.0003096
1755.72	0.00026538
1765.36	0.0002815
1775.01	0.00025363
1784.66	0.0002853
1794.3	0.00027017
1803.95	0.0002794
1813.6	0.000319
1823.24	0.00025394
1832.89	0.00026533
1842.54	0.00026302
1852.18	0.0003171
1861.83	0.00027055
1871.47	0.00024832
1881.12	0.00024563
1890.77	0.0002856
1900.41	0.00027155
1910.06	0.00026207
1919.71	0.00024895
1929.35	0.00023158
1939	0.00022395
1948.65	0.00023767
1958.29	0.00026047
1967.94	0.00026413
1977.59	0.00024277
1987.23	0.00022593
1996.88	0.00026503
2006.53	0.00022606
2016.17	0.0002515
2025.82	0.00025398
2035.47	0.00022971
2045.11	0.00025017
2054.76	0.00021946
2064.41	0.0002504
2074.05	0.00023325
2083.7	0.00019047
2093.35	0.00019989
2102.99	0.000188568
2112.64	0.00025648
2122.28	0.00021674
2131.93	0.00026868
2141.58	0.00023968
2151.22	0.00025179
2160.87	0.00021367
2170.52	0.00022807
2180.16	0.00022326
2189.81	0.00024167
2199.46	0.00017771
2209.1	0.00019787
2218.75	0.00020988
2228.4	0.000188619
2238.04	0.00020639
2247.69	0.00020844
2257.34	0.00017851
2266.98	0.00017949
2276.63	0.00017542
2286.28	0.00021935
2295.92	0.00020726
2305.57	0.00022288
2315.22	0.00024096
2324.86	0.00025118
2334.51	0.00025731
2344.16	0.00021017
2353.8	0.00021646
2363.45	0.00023702
2373.09	0.00025237
2382.74	0.0001944
2392.39	0.000209
2402.03	0.0002231
2411.68	0.00022269
2421.33	0.0001384
2430.97	0.000214
2440.62	0.00022335
2450.27	0.00019733
2459.91	0.00019625
2469.56	0.000186092
2479.21	0.0001605
2488.85	0.00021797
2498.5	0.0001605
2508.15	0.0001824
2517.79	0.00024773
2527.44	0.00021471
2537.09	0.000190145
2546.73	0.0001705
2556.38	0.00020977
2566.03	0.00026021
2575.67	0.00020615
2585.32	0.0002298
2594.96	0.00026358
2604.61	0.00026959
2614.26	0.0003353
2623.9	0.0003001
2633.55	0.0003071
2643.2	0.0004008
2652.84	0.000364
2662.49	0.0005033
2672.14	0.0005686
2681.78	0.0005798
2691.43	0.0006989
2701.08	0.0007621
2710.72	0.0007848
2720.37	0.000782
2730.02	0.0008299
2739.66	0.0009826
2749.31	0.0011217
2758.96	0.001241
2768.6	0.001441
2778.25	0.001601
2787.9	0.001871
2797.54	0.002531
2807.19	0.003081
2816.84	0.003331
2826.48	0.003201
2836.13	0.002811
2845.77	0.002731
2855.42	0.003291
2865.07	0.004001
2874.71	0.004031
2884.36	0.003561
2894.01	0.003491
2903.65	0.004141
2913.3	0.005961
2922.95	0.009571
2932.59	0.012571
2942.24	0.010861
2951.89	0.006911
2961.53	0.004051
2971.18	0.002211
2980.83	0.0011549
2990.47	0.0007777
3000.12	0.0005757
3009.77	0.0003333
3019.41	0.00019948
3029.06	0.00024708
3038.71	0.00027621
3048.35	0.00027728
3058	0.00020412
3067.64	0.00024399
3077.29	0.00022402
3086.94	0.0001232
3096.58	0.00021143
3106.23	0.0001446
3115.88	0.000180656
3125.52	0.000188909
3135.17	0.00021693
3144.82	0.0001572
3154.46	0.000182478
3164.11	0.0001505
3173.76	0.0003635
3183.4	0.0002546
3193.05	0.00021593
3202.7	0
3212.34	0.0002184
3221.99	0.00023082
3231.64	0.000303
3241.28	0.0001208
3250.93	0.00025211
3260.58	0.00021155
3270.22	0.0002938
3279.87	0.0002162
3289.52	0.0002914
3299.16	0.00019739
3308.81	0.0003512
3318.45	0.000383
3328.1	0.0003504
3337.75	0.0003158
3347.39	0.0003531
3357.04	0.00039
3366.69	0.000357
3376.33	0.00024835
3385.98	0.0004306
3395.63	0.00026157
3405.27	0.0003285
3414.92	0.0003755
3424.57	0.00027981
3434.21	0.0003385
3443.86	0.000477
3453.51	0.0003924
3463.15	0.0003705
3472.8	0.0003843
3482.45	0.0003736
3492.09	0.0004837
3501.74	0.0003796
3511.39	0.0005258
3521.03	0.0006714
3530.68	0.0007369
3540.33	0.000819
3549.97	0.0005258
3559.62	0.0005518
3569.26	0.000546
3578.91	0.0003456
3588.56	0.0004416
3598.2	0.0003446
3607.85	0.0003102
3617.5	0.0003472
3627.14	0.0003352
3636.79	0.0003924
3646.44	0.000362
3656.08	0.0003932
3665.73	0.0004481
3675.38	0.0004707
3685.02	0.0004154
3694.67	0.0003055
3704.32	0.0002978
3713.96	0.00021812
3723.61	0.00026534
3733.26	0.00024098
3742.9	0.00026673
3752.55	0.0002882
3762.2	0.0001247
3771.84	0.0003009
3781.49	0.00017655
3791.13	0.00023439
3800.78	0.00017245
3810.43	0.00027795
3820.07	0.00026385
3829.72	0.0002876
3839.37	0.00026095
3849.01	0.00021925
3858.66	0.0002998
3868.31	0.00025077
3877.95	0.00021589
3887.6	0.00022362
3897.25	0.0001455
3906.89	0.00027131
3916.54	0.0001453
3926.19	0.00026091
3935.83	0.00022172
3945.48	0.00021437
3955.13	0.00022369
3964.77	0.0001414
3974.42	0.00020654
3984.07	0.00024177
3993.71	0.0001355
