Infrared Spectrum: 1-(3-Chlorophenyl)-3-methyl-5-pyrazolone
Formula: C 10 H 9 Cl N 2 O
CAS: 20629-90-7
State: gas
Origin: EPA-IR VAPOR PHASE LIBRARY
1/CM	ABSORBANCE
549.9	0.0013945
559.547	0.002175
569.193	0.001805
578.84	0.001825
588.486	0.001765
598.133	0.001453
607.779	0.0008912
617.426	0.0006548
627.072	0.0006404
636.719	0.000675307
646.365	0.0008302
656.012	0.0010369
665.658	0.0013299
675.305	0.002665
684.951	0.002535
694.598	0.0013061
704.245	0.001008
713.891	0.0014896
723.538	0.004565
733.184	0.006635
742.831	0.005295
752.477	0.002025
762.124	0.002405
771.77	0.005415
781.417	0.005025
791.063	0.001955
800.71	0.0013755
810.356	0.0012934
820.003	0.0009011
829.649	0.00073087
839.296	0.00067961
848.943	0.00073578
858.589	0.0011156
868.236	0.002475
877.882	0.003325
887.529	0.002385
897.175	0.001895
906.822	0.0014383
916.468	0.0009436
926.115	0.0007688
935.761	0.0007867
945.408	0.00071862
955.054	0.0008454
964.701	0.0012522
974.347	0.002215
983.994	0.002295
993.64	0.003015
1003.29	0.002645
1012.93	0.0014198
1022.58	0.0013751
1032.23	0.0014167
1041.87	0.0013138
1051.52	0.0013495
1061.17	0.001735
1070.81	0.003105
1080.46	0.005765
1090.11	0.007225
1099.75	0.005365
1109.4	0.004425
1119.05	0.002475
1128.69	0.001755
1138.34	0.0012843
1147.99	0.001715
1157.63	0.003385
1167.28	0.005245
1176.92	0.005615
1186.57	0.004605
1196.22	0.001735
1205.86	0.0008001
1215.51	0.0006296
1225.16	0.00068366
1234.8	0.0008398
1244.45	0.0013125
1254.1	0.001875
1263.74	0.002485
1273.39	0.002485
1283.04	0.003745
1292.68	0.005625
1302.33	0.010285
1311.98	0.013885
1321.62	0.006935
1331.27	0.003615
1340.92	0.004915
1350.56	0.012045
1360.21	0.012975
1369.86	0.005605
1379.5	0.003315
1389.15	0.004565
1398.79	0.003355
1408.44	0.002595
1418.09	0.002545
1427.73	0.003965
1437.38	0.005365
1447.03	0.005065
1456.67	0.005915
1466.32	0.007085
1475.97	0.013895
1485.61	0.018555
1495.26	0.006635
1504.91	0.003235
1514.55	0.002655
1524.2	0.001975
1533.85	0.001695
1543.49	0.001905
1553.14	0.002565
1562.79	0.003555
1572.43	0.005985
1582.08	0.010935
1591.73	0.021065
1601.37	0.015655
1611.02	0.003955
1620.67	0.002855
1630.31	0.001945
1639.96	0.0013581
1649.6	0.0013019
1659.25	0.0013399
1668.9	0.0012704
1678.54	0.0013885
1688.19	0.001592
1697.84	0.002095
1707.48	0.003115
1717.13	0.004725
1726.78	0.008365
1736.42	0.019325
1746.07	0.033045
1755.72	0.024045
1765.36	0.010615
1775.01	0.005565
1784.66	0.002885
1794.3	0.0016644
1803.95	0.0011093
1813.6	0.0009394
1823.24	0.0008995
1832.89	0.0008939
1842.54	0.000951
1852.18	0.0010533
1861.83	0.0009026
1871.47	0.0008533
1881.12	0.0008273
1890.77	0.00074874
1900.41	0.000678448
1910.06	0.00069465
1919.71	0.0008406
1929.35	0.0008885
1939	0.00073449
1948.65	0.000698
1958.29	0.00066535
1967.94	0.0006367
1977.59	0.0006425
1987.23	0.0006248
1996.88	0.0006202
2006.53	0.0005856
2016.17	0.0005836
2025.82	0.0005975
2035.47	0.0006062
2045.11	0.0006378
2054.76	0.000651
2064.41	0.0006166
2074.05	0.0006257
2083.7	0.0006181
2093.35	0.00066522
2102.99	0.0006098
2112.64	0.000627
2122.28	0.0006546
2131.93	0.000662
2141.58	0.000678182
2151.22	0.00071985
2160.87	0.00071224
2170.52	0.00070363
2180.16	0.00071949
2189.81	0.00072917
2199.46	0.000682893
2209.1	0.0006592
2218.75	0.0006399
2228.4	0.00067079
2238.04	0.0006506
2247.69	0.0006641
2257.34	0.0006971
2266.98	0.00066639
2276.63	0.00071474
2286.28	0.0006626
2295.92	0.00066936
2305.57	0.00067144
2315.22	0.00069526
2324.86	0.000677662
2334.51	0.00069288
2344.16	0.00072002
2353.8	0.00066925
2363.45	0.00070988
2373.09	0.0006538
2382.74	0.0006116
2392.39	0.0005768
2402.03	0.0005921
2411.68	0.0005889
2421.33	0.0006286
2430.97	0.0006108
2440.62	0.0006159
2450.27	0.0006584
2459.91	0.0006467
2469.56	0.000647
2479.21	0.0006463
2488.85	0.0006395
2498.5	0.0005823
2508.15	0.000568
2517.79	0.00056
2527.44	0.0006285
2537.09	0.0006034
2546.73	0.0006035
2556.38	0.00066842
2566.03	0.0006232
2575.67	0.0005834
2585.32	0.000537
2594.96	0.00055
2604.61	0.000548
2614.26	0.000556
2623.9	0.000555
2633.55	0.00055
2643.2	0.0005775
2652.84	0.0006149
2662.49	0.000593
2672.14	0.000546
2681.78	0.000553
2691.43	0.000523
2701.08	0.000573
2710.72	0.000492
2720.37	0.000527
2730.02	0.000534
2739.66	0.000496
2749.31	0.000467
2758.96	0.000551
2768.6	0.00055
2778.25	0.00067388
2787.9	0.000502
2797.54	0.000574
2807.19	0.000522
2816.84	0.000564
2826.48	0.000535
2836.13	0.00067062
2845.77	0.0006499
2855.42	0.0008186
2865.07	0.0011158
2874.71	0.000949
2884.36	0.000723
2894.01	0.00066786
2903.65	0.0006065
2913.3	0.00077126
2922.95	0.0015633
2932.59	0.002815
2942.24	0.001745
2951.89	0.0012342
2961.53	0.001437
2971.18	0.0009477
2980.83	0.0006563
2990.47	0.00075575
3000.12	0.0008118
3009.77	0.0007757
3019.41	0.0007758
3029.06	0.0008343
3038.71	0.0008203
3048.35	0.0007803
3058	0.0007914
3067.64	0.0010186
3077.29	0.0015527
3086.94	0.0016424
3096.58	0.0009776
3106.23	0.0005967
3115.88	0.000615
3125.52	0.000335
3135.17	0.000204
3144.82	0.000211
3154.46	0.00025
3164.11	0.000251
3173.76	0.000123
3183.4	0.000295
3193.05	0.000269
3202.7	0.000233
3212.34	0.000227
3221.99	0.000288
3231.64	0.000183
3241.28	0.000225
3250.93	0.000204
3260.58	0.000261
3270.22	0.000101
3279.87	0.000161
3289.52	4.3e-05
3299.16	4.1e-05
3308.81	0.000169
3318.45	0.000143
3328.1	0.000172
3337.75	0.0001
3347.39	0.000144
3357.04	0.000172
3366.69	8.2e-05
3376.33	0.00011
3385.98	0.000109
3395.63	0.000136
3405.27	0.000108
3414.92	0.000215
3424.57	0.00025
3434.21	0.000123
3443.86	0.000209
3453.51	0.000264
3463.15	0.000354
3472.8	0.000492
3482.45	0.000501
3492.09	0.000391
3501.74	0.000391
3511.39	0.000295
3521.03	0.00029
3530.68	0.000186
3540.33	0.000268
3549.97	0.000313
3559.62	0.000208
3569.26	0.000404
3578.91	0.000355
3588.56	0.000449
3598.2	0.000201
3607.85	0.000232
3617.5	0.000327
3627.14	0.000239
3636.79	0.000271
3646.44	0.000235
3656.08	0.000433
3665.73	0.000432
3675.38	0.000189
3685.02	0.000252
3694.67	0.000275
3704.32	0.000228
3713.96	0.000317
3723.61	0.000308
3733.26	0.000296
3742.9	0.000403
3752.55	0.000352
3762.2	0.000364
3771.84	0.000271
3781.49	0.000296
3791.13	0.000377
3800.78	0.000383
3810.43	0.000407
3820.07	0.000315
3829.72	0.000342
3839.37	0.000334
3849.01	0.000361
3858.66	0.000377
3868.31	0.000352
3877.95	0.00031
3887.6	0.000408
3897.25	0.000387
3906.89	0.000346
3916.54	0.000419
3926.19	0.000357
3935.83	0.000322
3945.48	0.0004
3955.13	0.00039
3964.77	0.00042
3974.42	0.00036
3984.07	0.000329
3993.71	0.000363
