Infrared Spectrum: ETHYL 2-CYANO-3-PHENYL PENTANOATE
Formula: C14 H17 N O2
CAS: 20621-70-9
State: LIQUID
Class: COBLENTZ
Instrument: Not specified, most likely a prism, grating, or hybrid spectrometer.
Sampling: TRANSMISSION
Path length: 0.00125 CM
Resolution: 4
MICROMETERS	TRANSMITTANCE
1.818	0.9
1.85846	0.9
1.89891	0.9
1.93937	0.902
1.97982	0.903
2.02028	0.905
2.06073	0.905
2.10119	0.905
2.14164	0.903
2.1821	0.903
2.22256	0.898
2.26301	0.902
2.30347	0.888
2.34392	0.872
2.38438	0.875
2.42483	0.878
2.46529	0.875
2.50574	0.864
2.5462	0.875
2.58666	0.893
2.62711	0.902
2.66757	0.9
2.70802	0.903
2.74848	0.898
2.78893	0.89
2.82939	0.877
2.86985	0.872
2.9103	0.84
2.95076	0.837
2.99121	0.855
3.03167	0.862
3.07212	0.865
3.11258	0.864
3.15303	0.86
3.19349	0.857
3.23395	0.847
3.2744	0.764
3.31486	0.626
3.35531	0.519
3.39577	0.174
3.43622	0.235
3.47668	0.378
3.51713	0.426
3.55759	0.666
3.59805	0.797
3.6385	0.842
3.67896	0.86
3.71941	0.86
3.75987	0.872
3.80032	0.877
3.84078	0.88
3.88123	0.877
3.92169	0.878
3.96215	0.878
4.0026	0.877
4.04306	0.878
4.08351	0.873
4.12397	0.875
4.16442	0.877
4.20488	0.875
4.24533	0.87
4.28579	0.883
4.32625	0.888
4.3667	0.89
4.40716	0.88
4.44761	0.872
4.48807	0.729
4.52852	0.761
4.56898	0.87
4.60943	0.877
4.64989	0.887
4.69035	0.888
4.7308	0.888
4.77126	0.887
4.81171	0.875
4.85217	0.878
4.89262	0.875
4.93308	0.875
4.97354	0.878
5.01399	0.878
5.05445	0.875
5.0949	0.86
5.13536	0.845
5.17581	0.817
5.21627	0.844
5.25672	0.864
5.29718	0.855
5.33764	0.825
5.37809	0.809
5.41855	0.82
5.459	0.839
5.49946	0.834
5.53991	0.797
5.58037	0.756
5.62082	0.746
5.66128	0.674
5.70174	0.52
5.74219	0.227
5.78265	0.018
5.8231	0.046
5.86356	0.253
5.90401	0.482
5.94447	0.555
5.98492	0.676
6.02538	0.724
6.06584	0.764
6.10629	0.794
6.14675	0.805
6.1872	0.804
6.22766	0.797
6.26811	0.706
6.30857	0.681
6.34902	0.766
6.38948	0.767
6.42994	0.815
6.47039	0.825
6.51085	0.815
6.5513	0.822
6.59176	0.82
6.63221	0.829
6.67267	0.8
6.71312	0.723
6.75358	0.368
6.79404	0.524
6.83449	0.454
6.87495	0.325
6.9154	0.213
6.95586	0.149
6.99631	0.361
7.03677	0.573
7.07723	0.691
7.11768	0.708
7.15814	0.701
7.19859	0.618
7.23905	0.475
7.2795	0.412
7.31996	0.401
7.36041	0.222
7.40087	0.336
7.44133	0.548
7.48178	0.552
7.52224	0.525
7.56269	0.394
7.60315	0.24
7.6436	0.2
7.68406	0.194
7.72451	0.202
7.76497	0.184
7.80543	0.189
7.84588	0.197
7.88634	0.137
7.92679	0.092
7.96725	0.084
8.0077	0.048
8.04816	0.019
8.08861	0.018
8.12907	0.021
8.16953	0.044
8.20998	0.091
8.25044	0.131
8.29089	0.149
8.33135	0.155
8.3718	0.112
8.41226	0.079
8.45271	0.101
8.49317	0.139
8.53363	0.137
8.57408	0.127
8.61454	0.154
8.65499	0.182
8.69545	0.199
8.7359	0.288
8.77636	0.434
8.81681	0.57
8.85727	0.635
8.89773	0.65
8.93818	0.592
8.97864	0.402
9.01909	0.373
9.05955	0.353
9.1	0.346
9.14046	0.318
9.18092	0.291
9.22137	0.346
9.26183	0.442
9.30228	0.529
9.34274	0.562
9.38319	0.555
9.42365	0.58
9.4641	0.626
9.50456	0.618
9.54502	0.577
9.58547	0.497
9.62593	0.416
9.66638	0.323
9.70684	0.208
9.74729	0.132
9.78775	0.122
9.8282	0.149
9.86866	0.253
9.90912	0.328
9.94957	0.427
9.99003	0.522
10.0305	0.558
10.0709	0.61
10.1114	0.646
10.1518	0.674
10.1923	0.704
10.2328	0.726
10.2732	0.741
10.3137	0.746
10.3541	0.746
10.3946	0.749
10.435	0.769
10.4755	0.791
10.5159	0.804
10.5564	0.817
10.5969	0.82
10.6373	0.827
10.6778	0.815
10.7182	0.796
10.7587	0.759
10.7991	0.746
10.8396	0.744
10.88	0.756
10.9205	0.771
10.961	0.759
11.0014	0.713
11.0419	0.684
11.0823	0.694
11.1228	0.716
11.1632	0.724
11.2037	0.731
11.2441	0.737
11.2846	0.754
11.3251	0.786
11.3655	0.804
11.406	0.815
11.4464	0.8
11.4869	0.767
11.5273	0.699
11.5678	0.661
11.6082	0.643
11.6487	0.6
11.6892	0.558
11.7296	0.5
11.7701	0.479
11.8105	0.527
11.851	0.58
11.8914	0.633
11.9319	0.674
11.9723	0.719
12.0128	0.761
12.0533	0.786
12.0937	0.787
12.1342	0.797
12.1746	0.794
12.2151	0.781
12.2555	0.761
12.296	0.749
12.3365	0.736
12.3769	0.734
12.4174	0.733
12.4578	0.731
12.4983	0.724
12.5387	0.701
12.5792	0.693
12.6196	0.676
12.6601	0.656
12.7006	0.646
12.741	0.62
12.7815	0.597
12.8219	0.562
12.8624	0.507
12.9028	0.456
12.9433	0.439
12.9837	0.417
13.0242	0.394
13.0647	0.339
13.1051	0.285
13.1456	0.258
13.186	0.276
13.2265	0.308
13.2669	0.341
13.3074	0.361
13.3478	0.399
13.3883	0.459
13.4288	0.504
13.4692	0.545
13.5097	0.568
13.5501	0.595
13.5906	0.603
13.631	0.603
13.6715	0.605
13.7119	0.615
13.7524	0.621
13.7929	0.601
13.8333	0.57
13.8738	0.522
13.9142	0.464
13.9547	0.401
13.9951	0.349
14.0356	0.293
14.076	0.22
14.1165	0.164
14.157	0.126
14.1974	0.092
14.2379	0.056
14.2783	0.018
14.3188	0.024
14.3592	0.111
14.3997	0.265
14.4401	0.393
14.4806	0.51
14.5211	0.568
14.5615	0.592
14.602	0.608
14.6424	0.618
14.6829	0.631
14.7233	0.641
14.7638	0.643
14.8042	0.645
14.8447	0.641
14.8852	0.64
14.9256	0.638
14.9661	0.633
15.0065	0.631
15.047	0.63
15.0874	0.628
15.1279	0.626
15.1683	0.626
15.2088	0.626
15.2493	0.62
15.2897	0.616
15.3302	0.606
15.3706	0.605
15.4111	0.603
15.4515	0.603
