Infrared Spectrum: 4-Trifluoromethylcinnamic acid
Formula: C 10 H 7 F 3 O 2
CAS: 2062-26-2
State: gas
Origin: EPA-IR VAPOR PHASE LIBRARY
1/CM	ABSORBANCE
549.8	0.003083
559.445	0.002533
569.09	0.002623
578.734	0.002083
588.379	0.002943
598.024	0.004323
607.669	0.002123
617.313	0.0009913
626.958	0.0012245
636.603	0.0012649
646.248	0.0009411
655.893	0.001653
665.537	0.002723
675.182	0.002093
684.827	0.0015601
694.472	0.00066863
704.116	0.0007832
713.761	0.000646878
723.406	0.000533
733.051	0.0006554
742.695	0.0008919
752.34	0.0012056
761.985	0.0011298
771.63	0.00063397
781.275	0.0007603
790.919	0.000415
800.564	0.0008774
810.209	0.001053
819.854	0.002023
829.498	0.002553
839.143	0.003113
848.788	0.001501
858.433	0.000511
868.078	0.000456
877.722	0.00071758
887.367	0.0015317
897.012	0.0008655
906.657	0.0014703
916.301	0.0008704
925.946	0.0007557
935.591	0.0011577
945.236	0.001663
954.88	0.0014686
964.525	0.0012929
974.17	0.002423
983.815	0.002033
993.46	0.0013092
1003.1	0.0013578
1012.75	0.002233
1022.39	0.003213
1032.04	0.001713
1041.68	0.0012646
1051.33	0.00072259
1060.97	0.004493
1070.62	0.012753
1080.26	0.002003
1089.91	0.003303
1099.55	0.004713
1109.2	0.008683
1118.84	0.014403
1128.49	0.010823
1138.13	0.009663
1147.78	0.016353
1157.42	0.016603
1167.07	0.011953
1176.71	0.010843
1186.36	0.006263
1196	0.004533
1205.64	0.003233
1215.29	0.001923
1224.93	0.001663
1234.58	0.002483
1244.22	0.0013589
1253.87	0.002993
1263.51	0.002713
1273.16	0.002943
1282.8	0.003153
1292.45	0.003473
1302.09	0.004973
1311.74	0.009933
1321.38	0.027013
1331.03	0.016793
1340.67	0.004383
1350.32	0.004683
1359.96	0.005343
1369.61	0.003253
1379.25	0.001753
1388.9	0.001488
1398.54	0.0014254
1408.18	0.001773
1417.83	0.001763
1427.47	0.0011736
1437.12	0.0012095
1446.76	0.0008616
1456.41	0.000919
1466.05	0.000927
1475.7	0.0008325
1485.34	0.000643964
1494.99	0.0008858
1504.63	0.0009873
1514.28	0.0007659
1523.92	0.00072028
1533.57	0.0008577
1543.21	0.0007494
1552.86	0.00069987
1562.5	0.0008048
1572.15	0.0013272
1581.79	0.0012367
1591.44	0.0009596
1601.08	0.0009939
1610.73	0.00121
1620.37	0.001783
1630.01	0.001713
1639.66	0.003653
1649.3	0.003263
1658.95	0.0013968
1668.59	0.0013644
1678.24	0.001024
1687.88	0.0011436
1697.53	0.0011606
1707.17	0.0014833
1716.82	0.001913
1726.46	0.002333
1736.11	0.004003
1745.75	0.008163
1755.4	0.013983
1765.04	0.011593
1774.69	0.005053
1784.33	0.003263
1793.98	0.002663
1803.62	0.001793
1813.27	0.00144
1822.91	0.0010773
1832.55	0.0010353
1842.2	0.0010151
1851.84	0.0007507
1861.49	0.0007444
1871.13	0.0008076
1880.78	0.00071755
1890.42	0.0008406
1900.07	0.0007613
1909.71	0.0006196
1919.36	0.00091
1929	0.0008947
1938.65	0.0008031
1948.29	0.00072687
1957.94	0.0008685
1967.58	0.00067343
1977.23	0.0007894
1986.87	0.000837
1996.52	0.000397
2006.16	0.00073152
2015.81	0.0006229
2025.45	0.000486
2035.1	0.0007607
2044.74	0.00072848
2054.38	0.0008493
2064.03	0.0008564
2073.67	0.0009698
2083.32	0.00067707
2092.96	0.0008291
2102.61	0.0006103
2112.25	0.000498
2121.9	0.00066329
2131.54	0.0008777
2141.19	0.00069095
2150.83	0.0005745
2160.48	0.00065985
2170.12	0.00072649
2179.77	0.00063504
2189.41	0.0007611
2199.06	0.0005626
2208.7	0.00065479
2218.35	0.000507
2227.99	0.0007522
2237.64	0.00063436
2247.28	0.00070788
2256.92	0.000477
2266.57	0.00071215
2276.21	0.00073373
2285.86	0.0008489
2295.5	0.00071081
2305.15	0.00105
2314.79	0.0008694
2324.44	0.0007464
2334.08	0.0005941
2343.73	0.0008338
2353.37	0.00063458
2363.02	0.0007569
2372.66	0.00073541
2382.31	0.00068928
2391.95	0.000498
2401.6	0.0006021
2411.24	0.00066439
2420.89	0.000444
2430.53	0.00065417
2440.18	0.0005649
2449.82	0.000721
2459.47	0.0005998
2469.11	0.00071658
2478.75	0.0005451
2488.4	0.0008458
2498.04	0.00074083
2507.69	0.0006303
2517.33	0.00043
2526.98	0.0005833
2536.62	0.000379
2546.27	0.0008634
2555.91	0.000469
2565.56	0.0006189
2575.2	0.0008104
2584.85	0.000423
2594.49	0.000384
2604.14	0.0006063
2613.78	0.0005508
2623.43	0.0008343
2633.07	0.0009277
2642.72	0.000541
2652.36	0.00065696
2662.01	0.000646765
2671.65	0.00069002
2681.29	0.0007851
2690.94	0.000453
2700.58	0.00063355
2710.23	0.0006258
2719.87	0.00071287
2729.52	0.0008087
2739.16	0.00057
2748.81	0.00054
2758.45	0.00068657
2768.1	0.0008045
2777.74	0.00069666
2787.39	0.0008686
2797.03	0.000642038
2806.68	0.000412
2816.32	0.0006033
2825.97	0.00063611
2835.61	0.00037
2845.26	0.0007687
2854.9	0.00072274
2864.55	0.00069089
2874.19	0.0007932
2883.84	0.00073524
2893.48	0.0006041
2903.12	0.0006074
2912.77	0.00067967
2922.41	0.000491
2932.06	0.0009705
2941.7	0.0008198
2951.35	0.0011736
2960.99	0.00068929
2970.64	0.000501
2980.28	0.0008774
2989.93	0.0007639
2999.57	0.000869
3009.22	0.0007017
3018.86	0.0006007
3028.51	0.00068569
3038.15	0.0008925
3047.8	0.0009496
3057.44	0.0009147
3067.09	0.0008645
3076.73	0.0012717
3086.38	0.000878
3096.02	0.000406
3105.67	0.0008189
3115.31	0.0008861
3124.95	0.00066587
3134.6	0.0007976
3144.24	0.00068237
3153.89	0.0007517
3163.53	0.000538
3173.18	0.0008021
3182.82	0.0009
3192.47	0.000149
3202.11	0.0006672
3211.76	0.00085
3221.4	0.00068926
3231.05	0.0005482
3240.69	0.000458
3250.34	0.0009207
3259.98	0.00072433
3269.63	0.0007475
3279.27	0.00070242
3288.92	0.000505
3298.56	0.000418
3308.21	0.0007928
3317.85	0.0011949
3327.49	0.0008251
3337.14	0.000297
3346.78	0.0011064
3356.43	0.000361
3366.07	0.000526
3375.72	0.0009911
3385.36	0.0005651
3395.01	0.00041
3404.65	0.000485
3414.3	0.00069477
3423.94	0.00044
3433.59	0.000498
3443.23	0
3452.88	0.000256
3462.52	0.000645439
3472.17	0.0008906
3481.81	0.000539
3491.46	0.000534
3501.1	0.0008474
3510.75	0.000437
3520.39	0.000807
3530.04	0.0008387
3539.68	0.0009825
3549.32	0.0009901
3558.97	0.0008106
3568.61	0.001733
3578.26	0.006423
3587.9	0.004963
3597.55	0.0013016
3607.19	0.0008684
3616.84	0.0005761
3626.48	0.0005812
3636.13	0.000538
3645.77	0.0007988
3655.42	0.000651319
3665.06	0.000502
3674.71	0.0009086
3684.35	0.00069471
3694	0.0008484
3703.64	0.0008038
3713.29	0.000518
3722.93	0.000441
3732.58	0.00073397
3742.22	0.0005706
3751.86	0.00070132
3761.51	0.0009583
3771.15	0.0005905
3780.8	0.0008303
3790.44	0.000504
3800.09	0.0009387
3809.73	0.000524
3819.38	0.00073455
3829.02	0.0009999
3838.67	0.000644589
3848.31	0.0005871
3857.96	0.0010594
3867.6	0.00063662
3877.25	0.000356
3886.89	0.000509
3896.54	0.000311
3906.18	0.0005746
3915.83	0.000222
3925.47	0.0007924
3935.12	0.0008071
3944.76	0.00066636
3954.41	0.0009249
3964.05	0.0005962
3973.69	0.000382
3983.34	0.0006281
3992.98	0.000501
