Infrared Spectrum: 2-(Alpha-Methylphenethylamino)ethanethiol
Formula: C11 H17 N S
CAS: 20640-10-2
State: LIQUID (NEAT)
Boiling point: 146 C AT 12 mmHg
Class: COBLENTZ II
Instrument: DOW KBr FOREPRISM-GRATING
Instrument parameters: BLAZED AT 3.5, 12.0, 20.0 MICRON AND CHANGED AT 5.0, 7.5, 14.9 MICRON
Sampling: TRANSMISSION
Path length: CAPILLARY
Resolution: 2
Origin: DOW CHEMICAL COMPANY
1/CM	TRANSMITTANCE
3800	0.8632
3791	0.8712
3782	0.8671
3773	0.865
3764	0.8651
3755	0.8656
3746	0.8678
3737	0.8743
3728	0.8794
3719	0.8744
3710	0.8706
3701	0.8675
3692	0.8638
3683	0.8614
3674	0.8628
3665	0.8539
3656	0.8421
3647	0.8358
3638	0.8323
3629	0.839
3620	0.8409
3611	0.8385
3602	0.8416
3593	0.843
3584	0.843
3575	0.8393
3566	0.8392
3557	0.8407
3548	0.834
3539	0.8325
3530	0.8298
3521	0.8267
3512	0.8236
3503	0.8203
3494	0.8168
3485	0.8135
3476	0.8094
3467	0.8051
3458	0.8011
3449	0.7974
3440	0.7936
3431	0.7908
3422	0.7875
3413	0.7846
3404	0.7812
3395	0.7782
3386	0.7746
3377	0.7703
3368	0.7649
3359	0.7592
3350	0.7534
3341	0.7475
3332	0.741
3323	0.7321
3314	0.7206
3305	0.7158
3296	0.7342
3287	0.7492
3278	0.7601
3269	0.7704
3260	0.7791
3251	0.7858
3242	0.7903
3233	0.7918
3224	0.7922
3215	0.7921
3206	0.7921
3197	0.7928
3188	0.7936
3179	0.7945
3170	0.7961
3161	0.7989
3152	0.8022
3143	0.8055
3134	0.8071
3125	0.8043
3116	0.7904
3107	0.7739
3098	0.7701
3089	0.6488
3080	0.7011
3071	0.6004
3062	0.6165
3053	0.6836
3044	0.6226
3035	0.4118
3026	0.5403
3017	0.7046
3008	0.6811
2999	0.6719
2990	0.5162
2981	0.348
2972	0.2321
2963	0.2688
2954	0.3902
2945	0.335
2936	0.2366
2927	0.2416
2918	0.3044
2909	0.38
2900	0.451
2891	0.4879
2882	0.5044
2873	0.502
2864	0.4965
2855	0.4438
2846	0.4282
2837	0.4323
2828	0.456
2819	0.4891
2810	0.5407
2801	0.5874
2792	0.6438
2783	0.6838
2774	0.7698
2765	0.7911
2756	0.8026
2747	0.8065
2738	0.8039
2729	0.8018
2720	0.8058
2711	0.8118
2702	0.8148
2693	0.8148
2684	0.8161
2675	0.8193
2666	0.822
2657	0.8246
2648	0.8268
2639	0.8292
2630	0.832
2621	0.8293
2612	0.8268
2603	0.8344
2594	0.8412
2585	0.8351
2576	0.8088
2567	0.7968
2558	0.8003
2549	0.8093
2540	0.8193
2531	0.8285
2522	0.8357
2513	0.842
2504	0.8445
2495	0.8465
2486	0.8485
2477	0.8508
2468	0.8534
2459	0.8559
2450	0.8582
2441	0.8601
2432	0.8621
2423	0.8634
2414	0.8646
2405	0.8658
2396	0.8673
2387	0.8688
2378	0.8711
2369	0.8735
2360	0.876
2351	0.8777
2342	0.8797
2333	0.8816
2324	0.8814
2315	0.8788
2306	0.8824
2297	0.8825
2288	0.8818
2279	0.881
2270	0.8811
2261	0.8813
2252	0.8816
2243	0.8818
2234	0.8821
2225	0.8828
2216	0.8835
2207	0.884
2198	0.8841
2189	0.884
2180	0.884
2171	0.884
2162	0.8841
2153	0.8841
2144	0.8844
2135	0.8846
2126	0.8849
2117	0.885
2108	0.8849
2099	0.8849
2090	0.885
2081	0.8852
2072	0.8854
2063	0.8854
2054	0.8856
2045	0.8864
2036	0.8873
2027	0.8865
2018	0.8856
2009	0.8843
2000	0.8788
1991	0.8621
1982	0.8593
1973	0.8511
1964	0.8377
1955	0.8233
1946	0.8157
1937	0.8415
1928	0.8551
1919	0.86
1910	0.8528
1901	0.8463
1892	0.8368
1883	0.8293
1874	0.8339
1865	0.8478
1856	0.8535
1847	0.8548
1838	0.8528
1829	0.8447
1820	0.8362
1811	0.8285
1802	0.8371
1793	0.8525
1784	0.8565
1775	0.8561
1766	0.8497
1757	0.847
1748	0.8501
1739	0.8538
1730	0.8532
1721	0.8273
1712	0.8254
1703	0.8475
1694	0.8559
1685	0.8495
1676	0.8434
1667	0.8347
1658	0.829
1649	0.8255
1640	0.8231
1631	0.8225
1622	0.8249
1613	0.7761
1604	0.6575
1595	0.7805
1586	0.7665
1577	0.8261
1568	0.8381
1559	0.8333
1550	0.8286
1541	0.8321
1532	0.8339
1523	0.8225
1514	0.7895
1505	0.615
1496	0.4178
1487	0.5779
1478	0.4008
1469	0.3723
1460	0.275
1451	0.3629
1442	0.5288
1433	0.6021
1424	0.6725
1415	0.7482
1406	0.7761
1397	0.7746
1388	0.6578
1379	0.4365
1370	0.6138
1361	0.6376
1352	0.5712
1343	0.5951
1334	0.6226
1325	0.6742
1316	0.728
1307	0.7218
1298	0.6248
1289	0.5888
1280	0.6683
1271	0.7441
1262	0.7732
1253	0.7626
1244	0.718
1235	0.7148
1226	0.71
1217	0.6905
1208	0.6978
1199	0.6993
1190	0.6948
1181	0.6631
1172	0.7274
1163	0.6251
1154	0.423
1145	0.3566
1136	0.3857
1127	0.483
1118	0.5094
1109	0.5939
1100	0.5977
1091	0.5464
1082	0.6154
1073	0.6621
1064	0.686
1055	0.6974
1046	0.7351
1037	0.7108
1028	0.7133
1019	0.7701
1010	0.7889
1001	0.7825
992	0.8038
983	0.779
974	0.7528
965	0.7498
956	0.7686
947	0.7851
938	0.7898
929	0.7847
920	0.7661
911	0.7399
902	0.7706
893	0.7569
884	0.7564
875	0.7501
866	0.733
857	0.7092
848	0.69
839	0.7155
830	0.6976
821	0.6865
812	0.6751
803	0.6698
794	0.6538
785	0.6483
776	0.6356
767	0.595
758	0.4559
749	0.2133
740	0.2497
731	0.4079
722	0.4694
713	0.449
704	0.1109
695	0.4747
686	0.5749
677	0.6306
668	0.6193
659	0.6362
650	0.6881
641	0.7018
632	0.7004
623	0.7208
614	0.7328
605	0.6324
596	0.6915
587	0.7474
578	0.7532
569	0.7542
560	0.748
551	0.7304
542	0.7008
533	0.6482
524	0.6608
515	0.6738
506	0.6392
497	0.636
488	0.64
479	0.6501
470	0.654
