Infrared Spectrum: 5Alpha-Pregnan-20-one, 16Alpha, 17Alpha-epoxy-3Beta-hydroxy-, acetate
Formula: C23 H34 O4
CAS: 2066-51-5
State: SOLUTION 7% (CHCl3 FOR 2-12.4 microns)
Melting point: 183-184 C
Class: COBLENTZ
Instrument: PERKIN-ELMER 21 (GRATING)
Instrument parameters: FILTER AT ABOUT 10 MICRONS
Path length: 0.01 CM
Resolution: 2
Origin: ABBOTT LABORATORIES
1/CM	TRANSMITTANCE
801	1.001
809	0.9836
817	0.9651
825	0.8991
833	0.8754
841	0.7506
849	0.6914
857	0.7854
865	0.8458
873	0.8752
881	0.7646
889	0.8237
897	0.744
905	0.6188
913	0.8098
921	0.8521
929	0.8579
937	0.7723
945	0.789
953	0.7869
961	0.7459
969	0.6495
977	0.7785
985	0.7332
993	0.7352
1001	0.6779
1009	0.6136
1017	0.4923
1025	0.3905
1033	0.5606
1041	0.6781
1049	0.5777
1057	0.7672
1065	0.8273
1073	0.8035
1081	0.8034
1089	0.8302
1097	0.9289
1105	0.9145
1113	0.8697
1121	0.8791
1129	0.7397
1137	0.8393
1145	0.7311
1153	0.8302
1161	0.9117
1169	0.9173
1177	0.894
1185	0.8351
1193	0.6829
1201	0.5315
1209	0.4545
1217	0.3783
1225	0.3032
1233	0.2291
1241	0.1682
1249	0.137
1257	0.1535
1265	0.3712
1273	0.5859
1281	0.6652
1289	0.626
1297	0.6996
1305	0.7626
1313	0.8099
1321	0.7859
1329	0.7812
1337	0.7665
1345	0.5805
1353	0.408
1361	0.3747
1369	0.3844
1377	0.4232
1385	0.6524
1393	0.7651
1401	0.7638
1409	0.7501
1417	0.7397
1425	0.728
1433	0.6347
1441	0.6086
1449	0.7075
1457	0.7209
1465	0.7479
1473	0.8752
1481	0.8923
1489	0.9009
1497	0.9182
1505	0.9387
1513	0.9502
1521	0.9492
1529	0.9429
1537	0.9324
1545	0.9218
1553	0.9184
1561	0.9169
1569	0.9057
1577	0.9022
1585	0.9038
1593	0.9069
1601	0.8992
1609	0.89
1617	0.8846
1625	0.88
1633	0.8748
1641	0.8652
1649	0.8408
1657	0.835
1665	0.8231
1673	0.7776
1681	0.5701
1689	0.4314
1697	0.1711
1705	0.1531
1713	0.1533
1721	0.1473
1729	0.3664
1737	0.6162
1745	0.7764
1753	0.815
1761	0.851
1769	0.8837
1777	0.89
1785	0.8947
1793	0.9014
1801	0.9127
1809	0.9165
1817	0.9209
1825	0.9289
1833	0.9271
1841	0.9295
1849	0.9291
1857	0.9264
1865	0.9314
1873	0.9351
1881	0.9358
1889	0.9354
1897	0.9344
1905	0.9336
1913	0.9328
1921	0.9331
1929	0.9345
1937	0.9384
1945	0.9413
1953	0.9432
1961	0.9451
1969	0.9458
1977	0.9448
1985	0.9427
1993	0.9399
2001	0.9375
2009	0.937
2017	0.9396
2025	0.9425
2033	0.9461
2041	0.9483
2049	0.9484
2057	0.9484
2065	0.9484
2073	0.9482
2081	0.9483
2089	0.9496
2097	0.9509
2105	0.9523
2113	0.9537
2121	0.9536
2129	0.9522
2137	0.9525
2145	0.9538
2153	0.955
2161	0.9542
2169	0.9517
2177	0.9492
2185	0.9463
2193	0.9427
2201	0.9392
2209	0.9391
2217	0.9405
2225	0.9421
2233	0.9425
2241	0.9426
2249	0.9428
2257	0.9423
2265	0.9417
2273	0.941
2281	0.9404
2289	0.94
2297	0.9426
2305	0.9456
2313	0.949
2321	0.9527
2329	0.9568
2337	0.9613
2345	0.9674
2353	0.9715
2361	0.972
2369	0.9668
2377	0.9495
2385	0.9414
2393	0.9383
2401	0.9372
2409	0.9372
2417	0.938
2425	0.9388
2433	0.9386
2441	0.9355
2449	0.933
2457	0.9313
2465	0.9297
2473	0.9299
2481	0.9303
2489	0.9311
2497	0.9318
2505	0.9313
2513	0.9306
2521	0.9301
2529	0.93
2537	0.9299
2545	0.9299
2553	0.9303
2561	0.9307
2569	0.931
2577	0.931
2585	0.931
2593	0.9307
2601	0.9295
2609	0.9284
2617	0.927
2625	0.9234
2633	0.9219
2641	0.9228
2649	0.924
2657	0.9245
2665	0.9219
2673	0.9186
2681	0.9148
2689	0.9106
2697	0.9072
2705	0.9048
2713	0.9026
2721	0.8987
2729	0.8941
2737	0.8888
2745	0.8808
2753	0.8711
2761	0.8601
2769	0.8478
2777	0.8341
2785	0.8149
2793	0.7933
2801	0.7466
2809	0.6759
2817	0.6056
2825	0.5681
2833	0.5578
2841	0.5484
2849	0.5414
2857	0.5364
2865	0.525
2873	0.4973
2881	0.4691
2889	0.4411
2897	0.4178
2905	0.4183
2913	0.4216
2921	0.4316
2929	0.5256
2937	0.6478
2945	0.6727
2953	0.6887
2961	0.7076
2969	0.7469
2977	0.7899
2985	0.8326
2993	0.8663
3001	0.8917
3009	0.9045
3017	0.9121
3025	0.9165
3033	0.9256
3041	0.929
3049	0.9303
3057	0.9312
3065	0.931
3073	0.9307
3081	0.9304
3089	0.9299
3097	0.93
3105	0.9314
3113	0.9338
3121	0.9369
3129	0.9406
3137	0.9435
3145	0.9448
3153	0.9456
3161	0.946
3169	0.9464
3177	0.9468
3185	0.9472
3193	0.9471
3201	0.947
3209	0.947
3217	0.9468
3225	0.9464
3233	0.946
3241	0.9456
3249	0.9451
3257	0.9447
3265	0.944
3273	0.9433
3281	0.944
3289	0.9454
3297	0.9468
3305	0.9488
3313	0.9509
3321	0.9527
3329	0.9539
3337	0.9549
3345	0.9555
3353	0.9561
3361	0.9564
3369	0.9566
3377	0.9562
3385	0.9557
3393	0.9551
3401	0.9546
3409	0.9537
3417	0.953
3425	0.9521
3433	0.9514
3441	0.951
3449	0.9506
3457	0.9502
3465	0.95
3473	0.95
3481	0.95
3489	0.95
3497	0.9501
3505	0.9505
3513	0.9508
3521	0.9512
3529	0.9516
3537	0.952
3545	0.9527
3553	0.9533
3561	0.9538
3569	0.9542
3577	0.9545
3585	0.9547
3593	0.9549
3601	0.9551
3609	0.9554
3617	0.9555
3625	0.9555
3633	0.9555
3641	0.9555
3649	0.9555
3657	0.9554
3665	0.9552
3673	0.955
3681	0.9549
3689	0.9547
3697	0.9546
3705	0.9544
3713	0.9543
3721	0.9541
3729	0.954
3737	0.9538
3745	0.9537
3753	0.9536
3761	0.9534
3769	0.9533
3777	0.9531
3785	0.9529
3793	0.9528
3801	0.9526
3809	0.9524
3817	0.952
3825	0.9518
3833	0.9514
3841	0.9511
3849	0.9507
3857	0.95
3865	0.9495
3873	0.9488
3881	0.9482
3889	0.9477
3897	0.947
3905	0.9463
3913	0.9456
3921	0.9448
3929	0.9441
3937	0.9434
3945	0.9424
3953	0.9414
3961	0.9405
3969	0.9399
3977	0.9393
3985	0.9386
3993	0.938
