Infrared Spectrum: PHOSPHORODICHLORIDOTHIOAMIDE, N-METHYL-
Formula: C H4 Cl2 N P S
CAS: 20665-23-0
State: SOLUTION (10% IN CCl4 FOR 3800-1340, 10% IN CS2 FOR 1340-460 CM^-^1)
Class: COBLENTZ III
Instrument: DOW KBr FOREPRISM-GRATING
Instrument parameters: BLAZED AT 3.5, 12.0, 20.0 MICRON, CHANGED AT 5.0, 7.5, 14.9 MICRON
Sampling: TRANSMISSION
Path length: 0.011, 0.010 CM
Resolution: 4
Origin: DOW CHEMICAL COMPANY
1/CM	TRANSMITTANCE
461.471	0.523
470.228	0.506
478.984	0.48
487.741	0.431
496.497	0.299
505.254	0.06
514.011	0.006
522.767	0.042
531.524	0.176
540.28	0.381
549.037	0.558
557.793	0.653
566.55	0.695
575.307	0.722
584.063	0.74
592.82	0.754
601.576	0.762
610.333	0.767
619.09	0.77
627.846	0.766
636.603	0.748
645.359	0.722
654.116	0.715
662.872	0.714
671.629	0.681
680.386	0.525
689.142	0.153
697.899	0.405
706.655	0.301
715.412	0.106
724.169	0
732.925	0.04
741.682	0.569
750.438	0.741
759.195	0.806
767.951	0.834
776.708	0.844
785.465	0.84
794.221	0.831
802.978	0.808
811.734	0.775
820.491	0.698
829.248	0.465
838.004	0.262
846.761	0.286
855.517	0.356
864.274	0.517
873.031	0.724
881.787	0.816
890.544	0.87
899.3	0.893
908.057	0.912
916.813	0.928
925.57	0.933
934.327	0.937
943.083	0.935
951.84	0.934
960.596	0.934
969.353	0.941
978.11	0.942
986.866	0.939
995.623	0.938
1004.38	0.934
1013.14	0.92
1021.89	0.907
1030.65	0.9
1039.41	0.89
1048.16	0.864
1056.92	0.825
1065.68	0.75
1074.43	0.61
1083.19	0.314
1091.95	0.08
1100.7	0.116
1109.46	0.297
1118.21	0.372
1126.97	0.625
1135.73	0.763
1144.48	0.822
1153.24	0.856
1162	0.874
1170.75	0.883
1179.51	0.905
1188.27	0.913
1197.02	0.922
1205.78	0.927
1214.54	0.933
1223.29	0.934
1232.05	0.93
1240.81	0.924
1249.56	0.919
1258.32	0.909
1267.08	0.911
1275.83	0.913
1284.59	0.909
1293.35	0.903
1302.1	0.892
1310.86	0.877
1319.62	0.857
1328.37	0.822
1337.13	0.759
1345.89	0.689
1354.64	0.547
1363.4	0.351
1372.16	0.281
1380.91	0.3981
1389.67	0.566
1398.43	0.678
1407.18	0.739
1415.94	0.762
1424.7	0.734
1433.45	0.724
1442.21	0.711
1450.97	0.658
1459.72	0.632
1468.48	0.629
1477.23	0.678
1485.99	0.724
1494.75	0.729
1503.5	0.709
1512.26	0.678
1521.02	0.648
1529.77	0.616
1538.53	0.539
1547.29	0.467
1556.04	0.475
1564.8	0.549
1573.56	0.616
1582.31	0.642
1591.07	0.68
1599.83	0.76
1608.58	0.823
1617.34	0.86
1626.1	0.879
1634.85	0.89
1643.61	0.894
1652.37	0.9
1661.12	0.904
1669.88	0.907
1678.64	0.908
1687.39	0.911
1696.15	0.911
1704.91	0.909
1713.66	0.911
1722.42	0.912
1731.18	0.912
1739.93	0.912
1748.69	0.915
1757.45	0.916
1766.2	0.916
1774.96	0.919
1783.72	0.919
1792.47	0.92
1801.23	0.919
1809.99	0.919
1818.74	0.918
1827.5	0.919
1836.25	0.923
1845.01	0.923
1853.77	0.922
1862.52	0.924
1871.28	0.927
1880.04	0.928
1888.79	0.928
1897.55	0.93
1906.31	0.928
1915.06	0.927
1923.82	0.923
1932.58	0.916
1941.33	0.916
1950.09	0.922
1958.85	0.933
1967.6	0.93
1976.36	0.933
1985.12	0.934
1993.87	0.934
2002.63	0.936
2011.39	0.935
2020.14	0.935
2028.9	0.937
2037.66	0.942
2046.41	0.939
2055.17	0.939
2063.93	0.939
2072.68	0.939
2081.44	0.941
2090.2	0.942
2098.95	0.942
2107.71	0.942
2116.47	0.941
2125.22	0.941
2133.98	0.941
2142.74	0.941
2151.49	0.939
2160.25	0.938
2169.01	0.938
2177.76	0.9358
2186.52	0.934
2195.27	0.931
2204.03	0.93
2212.79	0.9247
2221.54	0.922
2230.3	0.924
2239.06	0.927
2247.81	0.927
2256.57	0.9273
2265.33	0.9233
2274.08	0.9206
2282.84	0.919
2291.6	0.919
2300.35	0.92
2309.11	0.9237
2317.87	0.9307
2326.62	0.9364
2335.38	0.9417
2344.14	0.945
2352.89	0.945
2361.65	0.946
2370.41	0.948
2379.16	0.946
2387.92	0.946
2396.68	0.9475
2405.43	0.952
2414.19	0.953
2422.95	0.954
2431.7	0.953
2440.46	0.9504
2449.22	0.9482
2457.97	0.948
2466.73	0.946
2475.49	0.9452
2484.24	0.943
2493	0.943
2501.76	0.945
2510.51	0.9477
2519.27	0.9528
2528.03	0.956
2536.78	0.957
2545.54	0.957
2554.29	0.96
2563.05	0.9591
2571.81	0.957
2580.56	0.959
2589.32	0.959
2598.08	0.9628
2606.83	0.9631
2615.59	0.964
2624.35	0.963
2633.1	0.963
2641.86	0.963
2650.62	0.963
2659.37	0.963
2668.13	0.961
2676.89	0.961
2685.64	0.96
2694.4	0.957
2703.16	0.9521
2711.91	0.948
2720.67	0.943
2729.43	0.937
2738.18	0.933
2746.94	0.93
2755.7	0.93
2764.45	0.934
2773.21	0.939
2781.97	0.943
2790.72	0.943
2799.48	0.941
2808.24	0.934
2816.99	0.913
2825.75	0.835
2834.51	0.8114
2843.26	0.9204
2852.02	0.9309
2860.78	0.9239
2869.53	0.9178
2878.29	0.9037
2887.05	0.8766
2895.8	0.8147
2904.56	0.81
2913.31	0.8079
2922.07	0.8023
2930.83	0.7849
2939.58	0.7224
2948.34	0.6166
2957.1	0.6954
2965.85	0.7991
2974.61	0.7929
2983.37	0.8036
2992.12	0.8306
3000.88	0.8463
3009.64	0.8535
3018.39	0.8729
3027.15	0.8985
3035.91	0.9122
3044.66	0.9204
3053.42	0.926
3062.18	0.9284
3070.93	0.931
3079.69	0.933
3088.45	0.9357
3097.2	0.939
3105.96	0.939
3114.72	0.938
3123.47	0.935
3132.23	0.934
3140.99	0.933
3149.74	0.931
3158.5	0.926
3167.26	0.9197
3176.01	0.9117
3184.77	0.9024
3193.53	0.8897
3202.28	0.8775
3211.04	0.8641
3219.8	0.8421
3228.55	0.8181
3237.31	0.7901
3246.07	0.752
3254.82	0.7117
3263.58	0.6763
3272.33	0.6372
3281.09	0.6032
3289.85	0.5823
3298.6	0.5743
3307.36	0.5754
3316.12	0.587
3324.87	0.6038
3333.63	0.6186
3342.39	0.632
3351.14	0.64
3359.9	0.6408
3368.66	0.6303
3377.41	0.5911
3386.17	0.4906
3394.93	0.3044
3403.68	0.1077
3412.44	0.1905
3421.2	0.4628
3429.95	0.7674
3438.71	0.88
3447.47	0.9168
3456.22	0.9354
3464.98	0.9495
3473.74	0.955
3482.49	0.962
3491.25	0.966
3500.01	0.97
3508.76	0.972
3517.52	0.975
3526.28	0.975
3535.03	0.978
3543.79	0.979
3552.55	0.98
3561.3	0.982
3570.06	0.983
3578.82	0.984
3587.57	0.989
3596.33	0.99
3605.09	0.989
3613.84	0.987
3622.6	0.989
3631.35	0.9864
3640.11	0.986
3648.87	0.986
3657.62	0.986
3666.38	0.986
3675.14	0.986
3683.89	0.986
3692.65	0.986
3701.41	0.987
3710.16	0.987
3718.92	0.987
3727.68	0.986
3736.43	0.9867
3745.19	0.9883
3753.95	0.989
3762.7	0.991
3771.46	0.993
3780.22	0.993
3788.97	0.994
3797.73	0.994
