Infrared Spectrum: N-METHYL-N-NITRO AMINO ACETONITRILE
Formula: C3 H5 N3 O2
CAS: 20661-61-4
Class: COBLENTZ
Instrument: Not specified, most likely a grating spectrometer.
Sampling: TRANSMISSION
Path length: CAPILLARY FILM
Resolution: 4
Origin: STANDARD OIL OF OHIO
1/CM	TRANSMITTANCE
212.162	0.701
221.621	0.689
231.081	0.703
240.54	0.722
250	0.732
259.459	0.74
268.919	0.781
278.378	0.823
287.838	0.83
297.297	0.832
306.757	0.833
316.216	0.7911
325.676	0.728
335.135	0.838
344.595	0.859
354.054	0.844
363.514	0.852
372.973	0.883
382.432	0.874
391.892	0.844
401.351	0.777
410.811	0.75
420.27	0.8179
429.73	0.881
439.189	0.916
448.649	0.922
458.108	0.922
467.568	0.915
477.027	0.901
486.487	0.881
495.946	0.879
505.406	0.896
514.865	0.91
524.325	0.911
533.784	0.913
543.244	0.911
552.703	0.91
562.162	0.908
571.622	0.898
581.081	0.883
590.541	0.857
600	0.7721
609.46	0.5491
618.919	0.632
628.379	0.788
637.838	0.811
647.298	0.774
656.757	0.75
666.217	0.6162
675.676	0.511
685.136	0.735
694.595	0.862
704.055	0.901
713.514	0.908
722.973	0.911
732.433	0.91
741.892	0.901
751.352	0.862
760.811	0.5067
770.271	0.5569
779.73	0.901
789.19	0.937
798.649	0.94
808.109	0.94
817.568	0.938
827.028	0.937
836.487	0.911
845.947	0.8521
855.406	0.852
864.866	0.903
874.325	0.893
883.784	0.861
893.244	0.7521
902.703	0.61
912.163	0.6539
921.622	0.667
931.082	0.501
940.541	0.6537
950.001	0.832
959.46	0.862
968.92	0.857
978.379	0.832
987.839	0.766
997.298	0.655
1006.76	0.4741
1016.22	0.357
1025.68	0.384
1035.14	0.5519
1044.6	0.7609
1054.05	0.861
1063.51	0.884
1072.97	0.884
1082.43	0.872
1091.89	0.845
1101.35	0.8051
1110.81	0.716
1120.27	0.701
1129.73	0.745
1139.19	0.764
1148.65	0.769
1158.11	0.801
1167.57	0.838
1177.03	0.84
1186.49	0.827
1195.95	0.806
1205.41	0.788
1214.87	0.755
1224.33	0.715
1233.78	0.652
1243.24	0.506
1252.7	0.342
1262.16	0.2031
1271.62	0.0841
1281.08	0.027
1290.54	0.023
1300	0.038
1309.46	0.089
1318.92	0.159
1328.38	0.2839
1337.84	0.444
1347.3	0.422
1356.76	0.388
1366.22	0.462
1375.68	0.62
1385.14	0.671
1394.6	0.5441
1404.06	0.218
1413.51	0.3788
1422.97	0.501
1432.43	0.357
1441.89	0.169
1451.35	0.2109
1460.81	0.267
1470.27	0.303
1479.73	0.438
1489.19	0.496
1498.65	0.427
1508.11	0.211
1517.57	0.037
1527.03	0.022
1536.49	0.023
1545.95	0.028
1555.41	0.091
1564.87	0.289
1574.33	0.5159
1583.79	0.627
1593.24	0.703
1602.7	0.718
1612.16	0.722
1621.62	0.738
1631.08	0.772
1640.54	0.808
1650	0.83
1659.46	0.85
1668.92	0.864
1678.38	0.874
1687.84	0.883
1697.3	0.889
1706.76	0.896
1716.22	0.898
1725.68	0.893
1735.14	0.883
1744.6	0.906
1754.06	0.911
1763.52	0.908
1772.97	0.908
1782.43	0.915
1791.89	0.92
1801.35	0.92
1810.81	0.922
1820.27	0.922
1829.73	0.922
1839.19	0.922
1848.65	0.922
1858.11	0.918
1867.57	0.918
1877.03	0.918
1886.49	0.92
1895.95	0.923
1905.41	0.925
1914.87	0.93
1924.33	0.932
1933.79	0.932
1943.25	0.932
1952.7	0.932
1962.16	0.933
1971.62	0.937
1981.08	0.937
1990.54	0.937
2000	0.94
2009.46	0.94
2018.92	0.94
2028.38	0.938
2037.84	0.937
2047.3	0.937
2056.76	0.938
2066.22	0.94
2075.68	0.94
2085.14	0.939
2094.6	0.937
2104.06	0.935
2113.52	0.933
2122.98	0.933
2132.43	0.933
2141.89	0.933
2151.35	0.933
2160.81	0.933
2170.27	0.933
2179.73	0.933
2189.19	0.933
2198.65	0.933
2208.11	0.932
2217.57	0.931
2227.03	0.927
2236.49	0.921
2245.95	0.906
2255.41	0.904
2264.87	0.9159
2274.33	0.92
2283.79	0.918
2293.25	0.917
2302.71	0.915
2312.16	0.913
2321.62	0.911
2331.08	0.911
2340.54	0.913
2350	0.915
2359.46	0.915
2368.92	0.913
2378.38	0.913
2387.84	0.914
2397.3	0.916
2406.76	0.916
2416.22	0.916
2425.68	0.915
2435.14	0.913
2444.6	0.911
2454.06	0.91
2463.52	0.91
2472.98	0.91
2482.44	0.908
2491.89	0.911
2501.35	0.911
2510.81	0.91
2520.27	0.909
2529.73	0.908
2539.19	0.906
2548.65	0.905
2558.11	0.9055
2567.57	0.908
2577.03	0.91
2586.49	0.911
2595.95	0.911
2605.41	0.911
2614.87	0.912
2624.33	0.913
2633.79	0.913
2643.25	0.911
2652.71	0.911
2662.17	0.911
2671.62	0.911
2681.08	0.908
2690.54	0.908
2700	0.908
2709.46	0.908
2718.92	0.906
2728.38	0.9055
2737.84	0.903
2747.3	0.901
2756.76	0.898
2766.22	0.8945
2775.68	0.886
2785.14	0.8725
2794.6	0.861
2804.06	0.852
2813.52	0.852
2822.98	0.852
2832.44	0.852
2841.9	0.852
2851.35	0.852
2860.81	0.852
2870.27	0.85
2879.73	0.8495
2889.19	0.844
2898.65	0.8335
2908.11	0.813
2917.57	0.7951
2927.03	0.769
2936.49	0.7451
2945.95	0.7
2955.41	0.676
2964.87	0.683
2974.33	0.693
2983.79	0.6741
2993.25	0.6092
3002.71	0.545
3012.17	0.6099
3021.63	0.7108
3031.08	0.778
3040.54	0.803
3050	0.8214
3059.46	0.837
3068.92	0.8515
3078.38	0.862
3087.84	0.87
3097.3	0.877
3106.76	0.8835
3116.22	0.886
3125.68	0.89
3135.14	0.893
3144.6	0.891
3154.06	0.891
3163.52	0.893
3172.98	0.894
3182.44	0.894
3191.9	0.896
3201.36	0.898
3210.81	0.9
3220.27	0.9
3229.73	0.9
3239.19	0.9005
3248.65	0.901
3258.11	0.901
3267.57	0.901
3277.03	0.901
3286.49	0.901
3295.95	0.9005
3305.41	0.9
3314.87	0.9
3324.33	0.9
3333.79	0.9
3343.25	0.9
3352.71	0.9
3362.17	0.9
3371.63	0.9
3381.09	0.9
3390.54	0.9
3400	0.9
3409.46	0.9
3418.92	0.9
3428.38	0.899
3437.84	0.898
3447.3	0.898
3456.76	0.898
3466.22	0.895
3475.68	0.893
3485.14	0.891
3494.6	0.891
3504.06	0.886
3513.52	0.883
3522.98	0.879
3532.44	0.874
3541.9	0.872
3551.36	0.871
3560.81	0.871
3570.27	0.871
3579.73	0.871
3589.19	0.872
3598.65	0.87
3608.11	0.864
3617.57	0.8615
3627.03	0.854
3636.49	0.85
3645.95	0.849
3655.41	0.8495
3664.87	0.861
3674.33	0.884
3683.79	0.901
3693.25	0.9055
3702.71	0.908
3712.17	0.908
3721.63	0.908
3731.09	0.908
3740.54	0.908
3750	0.908
3759.46	0.906
3768.92	0.906
3778.38	0.905
3787.84	0.903
3797.3	0.901
3806.76	0.899
3816.22	0.898
3825.68	0.9
3835.14	0.901
3844.6	0.902
3854.06	0.903
3863.52	0.903
3872.98	0.903
3882.44	0.903
3891.9	0.901
3901.36	0.9
