Infrared Spectrum: PYRIDO(2,3-b)PYRAZINE-2,3-DIOL
Formula: C7 H5 N3 O2
CAS: 2067-84-7
State: SOLID (SPLIT MULL), FLUOROLUBE FOR 3800-1330 CM^-^1, NUJOL FOR 1330-460 CM^-^1
Class: COBLENTZ III
Instrument: DOW KBr FOREPRISM-GRATING
Instrument parameters: BLAZED AT 3.5, 12.0, 20.0 MICRON AND CHANGED AT 5.0, 7.5, 14.9 MICRON
Sampling: TRANSMISSION
Resolution: 2
Origin: DOW CHEMICAL COMPANY
1/CM	TRANSMITTANCE
457.52	0.862
466.324	0.855
475.128	0.853
483.932	0.849
492.736	0.966
501.541	0.954
510.345	0.962
519.149	0.962
527.953	0.951
536.757	0.893
545.561	0.945
554.365	0.944
563.169	0.933
571.973	0.896
580.778	0.84
589.582	0.724
598.386	0.753
607.19	0.778
615.994	0.81
624.798	0.86
633.602	0.865
642.406	0.768
651.21	0.54
660.014	0.847
668.819	0.883
677.623	0.909
686.427	0.909
695.231	0.891
704.035	0.801
712.839	0.718
721.643	0.662
730.447	0.483
739.251	0.722
748.056	0.869
756.86	0.8
765.664	0.692
774.468	0.674
783.272	0.702
792.076	0.779
800.88	0.587
809.684	0.54
818.488	0.746
827.293	0.831
836.097	0.921
844.901	0.944
853.705	0.945
862.509	0.945
871.313	0.941
880.117	0.933
888.921	0.89
897.725	0.706
906.529	0.9
915.334	0.88
924.138	0.843
932.942	0.743
941.746	0.757
950.55	0.735
959.354	0.855
968.158	0.914
976.962	0.912
985.766	0.905
994.571	0.89
1003.37	0.89
1012.18	0.932
1020.98	0.948
1029.79	0.951
1038.59	0.941
1047.4	0.915
1056.2	0.837
1065	0.878
1073.81	0.944
1082.61	0.965
1091.42	0.97
1100.22	0.973
1109.02	0.97
1117.83	0.943
1126.63	0.849
1135.44	0.933
1144.24	0.927
1153.04	0.932
1161.85	0.936
1170.65	0.894
1179.46	0.832
1188.26	0.781
1197.07	0.854
1205.87	0.832
1214.67	0.759
1223.48	0.778
1232.28	0.795
1241.09	0.777
1249.89	0.713
1258.69	0.549
1267.5	0.677
1276.3	0.686
1285.11	0.728
1293.91	0.691
1302.71	0.578
1311.52	0.662
1320.32	0.759
1329.13	0.759
1337.93	0.4
1346.73	0.361
1355.54	0.343
1364.34	0.308
1373.15	0.22
1381.95	0.232
1390.76	0.476
1399.56	0.645
1408.36	0.559
1417.17	0.637
1425.97	0.637
1434.78	0.634
1443.58	0.599
1452.38	0.527
1461.19	0.383
1469.99	0.486
1478.8	0.595
1487.6	0.576
1496.4	0.506
1505.21	0.427
1514.01	0.358
1522.82	0.382
1531.62	0.537
1540.43	0.594
1549.23	0.565
1558.03	0.513
1566.84	0.434
1575.64	0.415
1584.45	0.409
1593.25	0.331
1602.05	0.265
1610.86	0.292
1619.66	0.324
1628.47	0.319
1637.27	0.38
1646.07	0.326
1654.88	0.272
1663.68	0.209
1672.49	0.155
1681.29	0.146
1690.1	0.121
1698.9	0.126
1707.7	0.156
1716.51	0.213
1725.31	0.303
1734.12	0.448
1742.92	0.519
1751.72	0.714
1760.53	0.857
1769.33	0.939
1778.14	0.977
1786.94	0.975
1795.74	0.965
1804.55	0.941
1813.35	0.915
1822.16	0.891
1830.96	0.865
1839.76	0.857
1848.57	0.872
1857.37	0.882
1866.18	0.878
1874.98	0.872
1883.79	0.867
1892.59	0.86
1901.39	0.851
1910.2	0.844
1919	0.84
1927.81	0.831
1936.61	0.826
1945.41	0.825
1954.22	0.819
1963.02	0.808
1971.83	0.807
1980.63	0.807
1989.43	0.807
1998.24	0.807
2007.04	0.807
2015.85	0.807
2024.65	0.807
2033.46	0.807
2042.26	0.807
2051.06	0.8035
2059.87	0.799
2068.67	0.7934
2077.48	0.7882
2086.28	0.7795
2095.08	0.7726
2103.89	0.7656
2112.69	0.758
2121.5	0.7507
2130.3	0.743
2139.1	0.7384
2147.91	0.7323
2156.71	0.7245
2165.52	0.7165
2174.32	0.7095
2183.13	0.6966
2191.93	0.695
2200.73	0.6902
2209.54	0.6812
2218.34	0.6712
2227.15	0.6613
2235.95	0.6471
2244.75	0.6377
2253.56	0.6307
2262.36	0.6225
2271.17	0.6156
2279.97	0.6058
2288.77	0.5985
2297.58	0.5876
2306.38	0.5798
2315.19	0.5719
2323.99	0.566
2332.79	0.56
2341.6	0.554
2350.4	0.551
2359.21	0.549
2368.01	0.5452
2376.82	0.541
2385.62	0.5371
2394.42	0.5292
2403.23	0.5204
2412.03	0.518
2420.84	0.516
2429.64	0.515
2438.44	0.513
2447.25	0.506
2456.05	0.5003
2464.86	0.493
2473.66	0.4888
2482.46	0.486
2491.27	0.4819
2500.07	0.4779
2508.88	0.475
2517.68	0.471
2526.49	0.468
2535.29	0.4626
2544.09	0.457
2552.9	0.452
2561.7	0.4506
2570.51	0.4463
2579.31	0.4437
2588.11	0.4424
2596.92	0.441
2605.72	0.4398
2614.53	0.4356
2623.33	0.4316
2632.13	0.4247
2640.94	0.4157
2649.74	0.4089
2658.55	0.4081
2667.35	0.414
2676.16	0.414
2684.96	0.414
2693.76	0.412
2702.57	0.411
2711.37	0.411
2720.18	0.411
2728.98	0.4119
2737.78	0.4158
2746.59	0.4245
2755.39	0.4354
2764.2	0.4511
2773	0.458
2781.8	0.4548
2790.61	0.447
2799.41	0.452
2808.22	0.462
2817.02	0.4595
2825.82	0.4482
2834.63	0.445
2843.43	0.445
2852.24	0.449
2861.04	0.4585
2869.85	0.4669
2878.65	0.472
2887.45	0.472
2896.26	0.4712
2905.06	0.4673
2913.87	0.4537
2922.67	0.4435
2931.47	0.4216
2940.28	0.4047
2949.08	0.4042
2957.89	0.4274
2966.69	0.4695
2975.49	0.475
2984.3	0.4655
2993.1	0.4497
3001.91	0.4399
3010.71	0.4339
3019.52	0.4247
3028.32	0.398
3037.12	0.394
3045.93	0.4244
3054.73	0.4141
3063.54	0.4358
3072.34	0.4361
3081.14	0.4213
3089.95	0.4164
3098.75	0.4206
3107.56	0.419
3116.36	0.416
3125.16	0.415
3133.97	0.4083
3142.77	0.4033
3151.58	0.4
3160.38	0.401
3169.19	0.401
3177.99	0.3918
3186.79	0.3744
3195.6	0.3645
3204.4	0.364
3213.21	0.3719
3222.01	0.3867
3230.81	0.398
3239.62	0.398
3248.42	0.398
3257.23	0.4433
3266.03	0.5398
3274.83	0.5788
3283.64	0.583
3292.44	0.581
3301.25	0.5756
3310.05	0.5646
3318.85	0.5506
3327.66	0.5339
3336.46	0.5129
3345.27	0.493
3354.07	0.495
3362.88	0.508
3371.68	0.54
3380.48	0.563
3389.29	0.5759
3398.09	0.578
3406.9	0.5761
3415.7	0.574
3424.5	0.572
3433.31	0.569
3442.11	0.565
3450.92	0.5605
3459.72	0.558
3468.52	0.555
3477.33	0.5513
3486.13	0.5473
3494.94	0.545
3503.74	0.542
3512.55	0.5404
3521.35	0.538
3530.15	0.537
3538.96	0.535
3547.76	0.533
3556.57	0.53
3565.37	0.527
3574.17	0.527
3582.98	0.527
3591.78	0.527
3600.59	0.527
3609.39	0.526
3618.19	0.5237
3627	0.522
3635.8	0.519
3644.61	0.5176
3653.41	0.515
3662.22	0.512
3671.02	0.5089
3679.82	0.505
3688.63	0.5019
3697.43	0.4999
3706.24	0.497
3715.04	0.495
3723.84	0.493
3732.65	0.49
3741.45	0.487
3750.26	0.484
3759.06	0.481
3767.86	0.4792
3776.67	0.4762
3785.47	0.473
3794.28	0.472
