Infrared Spectrum: VALERIC ACID, 5-BROMO
Formula: C5 H9 Br O2
CAS: 2067-33-6
State: SOLID (NUJOL MULL)
Class: COBLENTZ
Instrument: Not specified, most likely a prism, grating, or hybrid spectrometer.
Sampling: TRANSMISSION
Resolution: 4
Origin: TENNESSEE EASTMAN COMPANY, RESEARCH LABORATORIES
MICROMETERS	TRANSMITTANCE
2.088	0.765
2.12792	0.767
2.16784	0.77
2.20776	0.77
2.24769	0.77
2.28761	0.76
2.32753	0.757
2.36745	0.757
2.40737	0.759
2.44729	0.765
2.48722	0.772
2.52714	0.782
2.56706	0.792
2.60698	0.795
2.6469	0.799
2.68682	0.817
2.72675	0.822
2.76667	0.825
2.80659	0.83
2.84651	0.83
2.88643	0.83
2.92635	0.83
2.96628	0.832
3.0062	0.825
3.04612	0.803
3.08604	0.78
3.12596	0.74
3.16588	0.691
3.20581	0.637
3.24573	0.589
3.28565	0.543
3.32557	0.438
3.36549	0.151
3.40541	0.053
3.44534	0.071
3.48526	0.091
3.52518	0.382
3.5651	0.536
3.60502	0.601
3.64494	0.607
3.68486	0.609
3.72479	0.609
3.76471	0.609
3.80463	0.609
3.84455	0.609
3.88447	0.609
3.92439	0.629
3.96432	0.636
4.00424	0.646
4.04416	0.661
4.08408	0.674
4.124	0.681
4.16392	0.7
4.20385	0.712
4.24377	0.734
4.28369	0.74
4.32361	0.744
4.36353	0.749
4.40345	0.752
4.44338	0.759
4.4833	0.769
4.52322	0.78
4.56314	0.785
4.60306	0.785
4.64298	0.79
4.68291	0.792
4.72283	0.8
4.76275	0.803
4.80267	0.81
4.84259	0.815
4.88251	0.818
4.92244	0.822
4.96236	0.823
5.00228	0.83
5.0422	0.83
5.08212	0.83
5.12204	0.83
5.16196	0.828
5.20189	0.827
5.24181	0.825
5.28173	0.823
5.32165	0.823
5.36157	0.81
5.40149	0.8
5.44142	0.79
5.48134	0.777
5.52126	0.752
5.56118	0.719
5.6011	0.687
5.64102	0.629
5.68095	0.539
5.72087	0.481
5.76079	0.4
5.80071	0.299
5.84063	0.22
5.88055	0.2
5.92048	0.194
5.9604	0.254
6.00032	0.34
6.04024	0.403
6.08016	0.485
6.12008	0.534
6.16001	0.596
6.19993	0.649
6.23985	0.684
6.27977	0.709
6.31969	0.732
6.35961	0.74
6.39954	0.76
6.43946	0.782
6.47938	0.795
6.5193	0.807
6.55922	0.813
6.59914	0.817
6.63907	0.817
6.67899	0.81
6.71891	0.767
6.75883	0.647
6.79875	0.28
6.83867	0.214
6.87859	0.29
6.91852	0.383
6.95844	0.342
6.99836	0.418
7.03828	0.465
7.0782	0.313
7.11812	0.322
7.15805	0.48
7.19797	0.503
7.23789	0.45
7.27781	0.481
7.31773	0.566
7.35765	0.636
7.39758	0.661
7.4375	0.644
7.47742	0.601
7.51734	0.702
7.55726	0.734
7.59718	0.714
7.63711	0.617
7.67703	0.491
7.71695	0.413
7.75687	0.308
7.79679	0.29
7.83671	0.368
7.87664	0.475
7.91656	0.526
7.95648	0.578
7.9964	0.614
8.03632	0.611
8.07624	0.473
8.11617	0.315
8.15609	0.292
8.19601	0.405
8.23593	0.518
8.27585	0.576
8.31577	0.516
8.35569	0.362
8.39562	0.406
8.43554	0.5
8.47546	0.538
8.51538	0.573
8.5553	0.604
8.59522	0.627
8.63515	0.642
8.67507	0.657
8.71499	0.674
8.75491	0.684
8.79483	0.682
8.83475	0.644
8.87468	0.662
8.9146	0.7
8.95452	0.719
8.99444	0.729
9.03436	0.737
9.07428	0.74
9.11421	0.742
9.15413	0.744
9.19405	0.744
9.23397	0.694
9.27389	0.639
9.31381	0.699
9.35374	0.722
9.39366	0.735
9.43358	0.74
9.4735	0.742
9.51342	0.742
9.55334	0.732
9.59327	0.681
9.63319	0.573
9.67311	0.584
9.71303	0.589
9.75295	0.642
9.79287	0.664
9.83279	0.672
9.87272	0.677
9.91264	0.682
9.95256	0.682
9.99248	0.682
10.0324	0.684
10.0723	0.684
10.1122	0.677
10.1522	0.661
10.1921	0.646
10.232	0.634
10.2719	0.631
10.3119	0.626
10.3518	0.617
10.3917	0.604
10.4316	0.589
10.4715	0.544
10.5115	0.509
10.5514	0.49
10.5913	0.455
10.6312	0.433
10.6711	0.421
10.7111	0.421
10.751	0.421
10.7909	0.438
10.8308	0.475
10.8708	0.509
10.9107	0.553
10.9506	0.601
10.9905	0.629
11.0304	0.634
11.0704	0.622
11.1103	0.642
11.1502	0.669
11.1901	0.682
11.2301	0.669
11.27	0.644
11.3099	0.691
11.3498	0.732
11.3897	0.749
11.4297	0.764
11.4696	0.767
11.5095	0.774
11.5494	0.777
11.5893	0.78
11.6293	0.784
11.6692	0.787
11.7091	0.79
11.749	0.795
11.789	0.8
11.8289	0.805
11.8688	0.817
11.9087	0.825
11.9486	0.832
11.9886	0.833
12.0285	0.835
12.0684	0.838
12.1083	0.84
12.1482	0.842
12.1882	0.843
12.2281	0.843
12.268	0.843
12.3079	0.847
12.3479	0.85
12.3878	0.85
12.4277	0.85
12.4676	0.853
12.5075	0.853
12.5475	0.853
12.5874	0.855
12.6273	0.857
12.6672	0.858
12.7072	0.855
12.7471	0.843
12.787	0.83
12.8269	0.828
12.8668	0.833
12.9068	0.84
12.9467	0.847
12.9866	0.847
13.0265	0.847
13.0664	0.847
13.1064	0.847
13.1463	0.845
13.1862	0.843
13.2261	0.838
13.2661	0.832
13.306	0.822
13.3459	0.802
13.3858	0.772
13.4257	0.742
13.4657	0.692
13.5056	0.626
13.5455	0.559
13.5854	0.528
13.6253	0.551
13.6653	0.631
13.7052	0.682
13.7451	0.725
13.785	0.745
13.825	0.762
13.8649	0.772
13.9048	0.782
13.9447	0.79
13.9846	0.797
14.0246	0.8
14.0645	0.802
14.1044	0.803
14.1443	0.803
14.1843	0.803
14.2242	0.803
14.2641	0.802
14.304	0.8
14.3439	0.79
14.3839	0.784
14.4238	0.772
14.4637	0.76
14.5036	0.742
14.5435	0.714
14.5835	0.682
14.6234	0.657
14.6633	0.634
14.7032	0.617
14.7432	0.611
14.7831	0.609
14.823	0.611
14.8629	0.611
14.9028	0.622
14.9428	0.636
14.9827	0.651
15.0226	0.664
15.0625	0.671
15.1024	0.672
15.1424	0.664
15.1823	0.649
15.2222	0.629
15.2621	0.607
15.3021	0.586
15.342	0.576
15.3819	0.573
15.4218	0.573
15.4617	0.574
15.5017	0.578
15.5416	0.583
15.5815	0.593
15.6214	0.601
15.6614	0.611
15.7013	0.617
15.7412	0.622
15.7811	0.631
15.821	0.639
15.861	0.644
15.9009	0.649
15.9408	0.652
15.9807	0.707
16.0206	0.651
