Infrared Spectrum: Benzo[k]phenanthrene
Formula: C 20 H 12
CAS: 207-08-9
State: gas
Instrument: HP-GC/MS/IRD
Origin: NIST Mass Spectrometry Data Center
1/CM	ABSORBANCE
550	0.000648
562	0.000452
574	0.000107
586	0.000218
598	0.000918
610	0.000385
622	0.000301
634	0.000148
646	8.1e-05
658	1.1e-05
670	0.000142
682	0.000238
694	0.000126
706	0.000142
718	0.000377
730	0.002369
742	0.006689
754	0.002018
766	0.004511
778	0.003584
790	0.000584
802	0.000593
814	0.003131
826	0.004638
838	0.000463
850	0.000316
862	0.000382
874	0.002432
886	0.002679
898	0.000408
910	0.000149
922	0.000136
934	0.000351
946	0.000635
958	0.000395
970	0.000244
982	0.000306
994	0.000361
1006	0.000283
1018	0.000584
1030	0.000455
1042	0.000244
1054	1.2e-05
1066	0.00015
1078	7e-05
1090	0.000382
1102	0.000271
1114	0.000109
1126	5.8e-05
1138	0.0002
1150	0.000196
1162	6.1e-05
1174	5.6e-05
1186	0.00016
1198	0.000493
1210	0.000383
1222	0.000314
1234	0.000208
1246	0.000131
1258	0.000404
1270	0.000249
1282	4.9e-05
1294	4e-06
1306	3.9e-05
1318	0.000104
1330	0.000324
1342	0.000251
1354	0.000206
1366	0.00017
1378	0.00014
1390	0.000325
1402	0.000809
1414	0.000925
1426	0.002658
1438	0.002334
1450	0.003626
1462	0.000843
1474	0.000863
1486	0.001431
1498	0.001163
1510	0.000338
1522	0.000221
1534	0.000203
1546	0.000196
1558	0.000144
1570	0.000241
1582	0.000455
1594	0.0005
1606	0.001265
1618	0.001173
1630	0.000261
1642	0.000179
1654	0.000256
1666	0.000295
1678	0.000436
1690	0.000334
1702	0.000231
1714	0.000334
1726	0.000379
1738	0.000171
1750	0.000168
1762	0.000405
1774	0.000475
1786	0.000616
1798	0.000622
1810	0.000339
1822	0.000151
1834	0.00018
1846	0.000273
1858	0.000325
1870	0.000173
1882	0.000161
1894	0.000311
1906	0.000408
1918	0.000745
1930	0.000565
1942	0.000365
1954	9.4e-05
1966	5.9e-05
1978	5.7e-05
1990	7.4e-05
2002	9e-06
2014	4.8e-05
2026	6.3e-05
2038	4.4e-05
2050	4.6e-05
2062	3e-05
2074	5.5e-05
2086	4.7e-05
2098	5.4e-05
2110	1.6e-05
2122	3.4e-05
2134	7.9e-05
2146	4.5e-05
2158	7.7e-05
2170	8.5e-05
2182	8e-05
2194	6.3e-05
2206	6e-05
2218	7.1e-05
2230	8.7e-05
2242	6.4e-05
2254	4.1e-05
2266	7.2e-05
2278	8e-05
2290	0.000101
2302	4.7e-05
2314	4.9e-05
2326	6.5e-05
2338	9.8e-05
2350	0.000104
2362	7.9e-05
2374	7.4e-05
2386	6e-05
2398	5.8e-05
2410	6.9e-05
2422	2.8e-05
2434	5e-05
2446	5.8e-05
2458	7.6e-05
2470	7.9e-05
2482	0.000119
2494	0.00012
2506	7.4e-05
2518	4.3e-05
2530	8.1e-05
2542	3.8e-05
2554	3.7e-05
2566	3.9e-05
2578	4.7e-05
2590	3.2e-05
2602	2.1e-05
2614	3.3e-05
2626	1.2e-05
2638	6.5e-05
2650	3.9e-05
2662	5e-05
2674	7.4e-05
2686	7.2e-05
2698	8.4e-05
2710	9e-05
2722	5e-05
2734	5.1e-05
2746	9.6e-05
2758	5.7e-05
2770	6.5e-05
2782	7.6e-05
2794	0.000101
2806	7.4e-05
2818	7.5e-05
2830	9.1e-05
2842	0.000136
2854	8.3e-05
2866	8.1e-05
2878	0.000131
2890	0.000169
2902	0.00014
2914	0.000145
2926	0.000212
2938	0.000319
2950	0.000309
2962	0.000315
2974	0.00035
2986	0.000498
2998	0.000913
3010	0.001207
3022	0.001707
3034	0.002606
3046	0.004825
3058	0.008617
3070	0.008065
3082	0.002908
3094	0.001743
3106	0.000646
3118	0.000215
3130	0.000169
3142	0.000144
3154	7.5e-05
3166	8.5e-05
3178	6.6e-05
3190	6.7e-05
3202	0.000101
3214	6.9e-05
3226	6.8e-05
3238	6.4e-05
3250	7.6e-05
3262	0.000107
3274	3.3e-05
3286	0.000112
3298	6.3e-05
3310	4.2e-05
3322	9.9e-05
3334	6.3e-05
3346	1e-05
3358	0.000104
3370	6.5e-05
3382	2.1e-05
3394	0.000105
3406	3.6e-05
3418	5.1e-05
3430	4e-05
3442	0.000118
3454	5.1e-05
3466	0.000109
3478	7.9e-05
3490	9.7e-05
3502	5.4e-05
3514	6.3e-05
3526	9.3e-05
3538	0.000117
3550	7.4e-05
3562	0
3574	5.4e-05
3586	0.000103
3598	5.6e-05
3610	0.000118
3622	0.000109
3634	0.000139
3646	0.000127
3658	0.000118
3670	0.000121
3682	0.000122
3694	0.000122
3706	9.2e-05
3718	0.000138
3730	0.000114
3742	9.8e-05
3754	0.000152
3766	0.000144
3778	9.9e-05
3790	0.000138
3802	0.000161
3814	0.000177
3826	0.000158
3838	0.000129
