Infrared Spectrum: SALICYLIC ACID, 2,2,2-TRICHLOROETHYL CARBONATE
Formula: C10 H7 Cl3 O5
CAS: 20704-99-8
State: SOLID (OIL MULL)
Class: COBLENTZ III
Instrument: PERKIN-ELMER 21 (GRATING)
Instrument parameters: NaCl PRISM
Sampling: TRANSMISSION
Resolution: 2
Origin: SMITH KLINE & FRENCH LABS.
MICROMETERS	TRANSMITTANCE
1.981	0.887
2.01529	0.887
2.04957	0.9
2.08386	0.9
2.11815	0.903
2.15243	0.908
2.18672	0.909
2.22101	0.912
2.25529	0.912
2.28958	0.911
2.32387	0.906
2.35815	0.906
2.39244	0.911
2.42673	0.909
2.46101	0.915
2.4953	0.92
2.52959	0.929
2.56387	0.931
2.59816	0.94
2.63245	0.942
2.66673	0.941
2.70102	0.945
2.73531	0.951
2.76959	0.951
2.80388	0.95
2.83817	0.948
2.87245	0.95
2.90674	0.951
2.94103	0.95
2.97531	0.947
3.0096	0.941
3.04389	0.907
3.07817	0.887
3.11246	0.847
3.14675	0.781
3.18104	0.757
3.21532	0.712
3.24961	0.661
3.2839	0.628
3.31818	0.611
3.35247	0.561
3.38676	0.348
3.42104	0.164
3.45533	0.101
3.48962	0.174
3.5239	0.203
3.55819	0.392
3.59248	0.627
3.62676	0.708
3.66105	0.75
3.69534	0.752
3.72962	0.757
3.76391	0.722
3.7982	0.717
3.83248	0.751
3.86677	0.768
3.90106	0.767
3.93534	0.772
3.96963	0.751
4.00392	0.78
4.0382	0.807
4.07249	0.834
4.10678	0.862
4.14106	0.88
4.17535	0.881
4.20964	0.898
4.24392	0.902
4.27821	0.9
4.3125	0.901
4.34678	0.911
4.38107	0.909
4.41536	0.912
4.44964	0.917
4.48393	0.919
4.51822	0.918
4.5525	0.918
4.58679	0.918
4.62108	0.93
4.65536	0.933
4.68965	0.933
4.72394	0.933
4.75822	0.933
4.79251	0.924
4.8268	0.919
4.86108	0.917
4.89537	0.912
4.92966	0.912
4.96394	0.919
4.99823	0.922
5.03252	0.92
5.0668	0.915
5.10109	0.917
5.13538	0.912
5.16966	0.911
5.20395	0.913
5.23824	0.913
5.27252	0.909
5.30681	0.903
5.3411	0.9
5.37539	0.892
5.40967	0.88
5.44396	0.87
5.47825	0.851
5.51253	0.819
5.54682	0.712
5.58111	0.422
5.61539	0.208
5.64968	0.222
5.68397	0.387
5.71825	0.629
5.75254	0.716
5.78683	0.741
5.82111	0.682
5.8554	0.4
5.88969	0.253
5.92397	0.365
5.95826	0.54
5.99255	0.677
6.02683	0.75
6.06112	0.773
6.09541	0.792
6.12969	0.802
6.16398	0.812
6.19827	0.646
6.23255	0.49
6.26684	0.774
6.30113	0.813
6.33541	0.727
6.3697	0.738
6.40399	0.801
6.43827	0.814
6.47256	0.831
6.50685	0.833
6.54113	0.833
6.57542	0.842
6.60971	0.82
6.64399	0.812
6.67828	0.802
6.71257	0.701
6.74685	0.7
6.78114	0.728
6.81543	0.538
6.84971	0.429
6.884	0.412
6.91829	0.433
6.95257	0.589
6.98686	0.645
7.02115	0.552
7.05543	0.373
7.08972	0.322
7.12401	0.475
7.15829	0.602
7.19258	0.671
7.22687	0.612
7.26115	0.475
7.29544	0.482
7.32973	0.644
7.36401	0.71
7.3983	0.74
7.43259	0.744
7.46687	0.745
7.50116	0.738
7.53545	0.719
7.56973	0.671
7.60402	0.622
7.63831	0.523
7.6726	0.384
7.70688	0.38
7.74117	0.401
7.77546	0.309
7.80974	0.247
7.84403	0.241
7.87832	0.269
7.9126	0.187
7.94689	0.25
7.98118	0.333
8.01546	0.305
8.04975	0.298
8.08404	0.35
8.11832	0.429
8.15261	0.529
8.1869	0.552
8.22118	0.543
8.25547	0.55
8.28976	0.601
8.32404	0.641
8.35833	0.611
8.39262	0.598
8.4269	0.672
8.46119	0.702
8.49548	0.73
8.52976	0.746
8.56405	0.75
8.59834	0.734
8.63262	0.702
8.66691	0.757
8.7012	0.769
8.73548	0.761
8.76977	0.708
8.80406	0.763
8.83834	0.777
8.87263	0.779
8.90692	0.771
8.9412	0.735
8.97549	0.694
9.00978	0.714
9.04406	0.713
9.07835	0.63
9.11264	0.573
9.14692	0.64
9.18121	0.665
9.2155	0.621
9.24978	0.68
9.28407	0.751
9.31836	0.764
9.35264	0.751
9.38693	0.719
9.42122	0.714
9.4555	0.683
9.48979	0.64
9.52408	0.618
9.55836	0.64
9.59265	0.677
9.62694	0.71
9.66122	0.751
9.69551	0.764
9.7298	0.766
9.76408	0.768
9.79837	0.775
9.83266	0.783
9.86694	0.784
9.90123	0.783
9.93552	0.784
9.96981	0.781
10.0041	0.777
10.0384	0.771
10.0727	0.753
10.107	0.752
10.1412	0.756
10.1755	0.76
10.2098	0.764
10.2441	0.755
10.2784	0.733
10.3127	0.684
10.347	0.674
10.3812	0.701
10.4155	0.721
10.4498	0.721
10.4841	0.694
10.5184	0.702
10.5527	0.711
10.587	0.712
10.6213	0.724
10.6555	0.724
10.6898	0.729
10.7241	0.724
10.7584	0.719
10.7927	0.704
10.827	0.693
10.8613	0.674
10.8955	0.655
10.9298	0.641
10.9641	0.633
10.9984	0.626
11.0327	0.624
11.067	0.624
11.1013	0.624
11.1356	0.63
11.1698	0.641
11.2041	0.641
11.2384	0.634
11.2727	0.629
11.307	0.639
11.3413	0.671
11.3756	0.7
11.4098	0.713
11.4441	0.734
11.4784	0.74
11.5127	0.744
11.547	0.75
11.5813	0.749
11.6156	0.733
11.6499	0.683
11.6841	0.649
11.7184	0.666
11.7527	0.711
11.787	0.734
11.8213	0.744
11.8556	0.751
11.8899	0.751
11.9241	0.741
11.9584	0.733
11.9927	0.696
12.027	0.63
12.0613	0.561
12.0956	0.494
12.1299	0.451
12.1642	0.451
12.1984	0.503
12.2327	0.573
12.267	0.619
12.3013	0.65
12.3356	0.669
12.3699	0.693
12.4042	0.71
12.4384	0.719
12.4727	0.672
12.507	0.626
12.5413	0.618
12.5756	0.633
12.6099	0.638
12.6442	0.624
12.6785	0.601
12.7127	0.587
12.747	0.611
12.7813	0.65
12.8156	0.677
12.8499	0.701
12.8842	0.721
12.9185	0.734
12.9527	0.712
12.987	0.693
13.0213	0.682
13.0556	0.686
13.0899	0.684
13.1242	0.643
13.1585	0.576
13.1928	0.523
13.227	0.461
13.2613	0.453
13.2956	0.5
13.3299	0.56
13.3642	0.604
13.3985	0.643
13.4328	0.652
13.4671	0.646
13.5013	0.622
13.5356	0.561
13.5699	0.501
13.6042	0.44
13.6385	0.401
13.6728	0.37
13.7071	0.353
13.7413	0.344
13.7756	0.342
13.8099	0.349
13.8442	0.369
13.8785	0.397
13.9128	0.433
13.9471	0.481
13.9814	0.528
14.0156	0.571
14.0499	0.593
14.0842	0.611
14.1185	0.633
14.1528	0.646
14.1871	0.646
14.2214	0.643
14.2556	0.669
14.2899	0.691
14.3242	0.705
14.3585	0.722
14.3928	0.724
14.4271	0.733
14.4614	0.735
14.4957	0.735
14.5299	0.736
14.5642	0.74
14.5985	0.736
14.6328	0.734
14.6671	0.721
14.7014	0.712
14.7357	0.702
14.7699	0.69
14.8042	0.68
14.8385	0.684
14.8728	0.697
