Infrared Spectrum: trans-3-Methyl-2-hexene
Formula: C 7 H 14
CAS: 20710-38-7
State: gas
Instrument: HP-GC/MS/IRD
Origin: NIST Mass Spectrometry Data Center
1/CM	ABSORBANCE
550	0.0003476
562	0.0004576
574	4.07e-05
586	0.0002915
598	0.0001056
610	9.24e-05
622	0.0002816
634	0.0001188
646	0.0002585
658	5.61e-05
670	0.0002255
682	0.0001452
694	0.0002618
706	0.0001155
718	0.0001485
730	0.0001892
742	0.0004059
754	0.0004576
766	0.0005335
778	0.0006435
790	0.0009163
802	0.0007667
814	0.000946
826	0.0010516
838	0.0005984
850	0.0004279
862	0.000473
874	0.0003982
886	0.0003883
898	0.0002849
910	0.0002662
922	0.0003465
934	0.000352
946	0.0005478
958	0.0003828
970	0.000429
982	0.0005203
994	0.0005379
1006	0.0004741
1018	0.0004037
1030	0.0004609
1042	0.0003707
1054	0.0003663
1066	0.0002926
1078	0.0003762
1090	0.0004873
1102	0.0005434
1114	0.0007117
1126	0.0005599
1138	0.0003663
1150	0.0001738
1162	0.0002079
1174	0.0002486
1186	0.0003553
1198	0.0005456
1210	0.0005203
1222	0.0003828
1234	0.0002937
1246	0.000253
1258	0.0002761
1270	0.0002882
1282	0.0002915
1294	0.0003707
1306	0.0003498
1318	0.0003773
1330	0.0004829
1342	0.0006655
1354	0.0007139
1366	0.0009328
1378	0.0013992
1390	0.0015752
1402	0.0011
1414	0.0008371
1426	0.000858
1438	0.0011902
1450	0.0015147
1462	0.0015554
1474	0.001276
1486	0.000946
1498	0.0006259
1510	0.0005555
1522	0.0005269
1534	0.0005357
1546	0.0004906
1558	0.000418
1570	0.0003179
1582	0.0003421
1594	0.0002552
1606	0.0002772
1618	0.0002607
1630	0.0002035
1642	0.0002717
1654	0.000275
1666	0.0003113
1678	0.000242
1690	0.0001661
1702	0.0001683
1714	0.0001155
1726	0.0001155
1738	0.0001122
1750	0.0001122
1762	9.46e-05
1774	0.0001012
1786	9.9e-05
1798	0.0001243
1810	0.0001408
1822	0.0001562
1834	0.0001562
1846	0.0001859
1858	0.0001199
1870	0.000132
1882	0.000121
1894	0.0001034
1906	0.0001309
1918	0.0001067
1930	7.48e-05
1942	4.84e-05
1954	3.74e-05
1966	6.93e-05
1978	6.27e-05
1990	7.59e-05
2002	4.62e-05
2014	5.72e-05
2026	8.36e-05
2038	0.0001089
2050	7.37e-05
2062	7.15e-05
2074	6.16e-05
2086	4.18e-05
2098	7.15e-05
2110	7.04e-05
2122	6.82e-05
2134	6.49e-05
2146	2.75e-05
2158	8.25e-05
2170	7.26e-05
2182	6.82e-05
2194	1.54e-05
2206	4.95e-05
2218	6.49e-05
2230	5.61e-05
2242	5.28e-05
2254	2.86e-05
2266	5.61e-05
2278	2.75e-05
2290	4.95e-05
2302	8.03e-05
2314	4.95e-05
2326	6.71e-05
2338	4.73e-05
2350	5.39e-05
2362	6.27e-05
2374	7.7e-05
2386	7.92e-05
2398	3.52e-05
2410	5.83e-05
2422	3.41e-05
2434	6.71e-05
2446	7.7e-05
2458	8.8e-05
2470	5.61e-05
2482	5.39e-05
2494	8.47e-05
2506	5.28e-05
2518	7.15e-05
2530	5.61e-05
2542	7.81e-05
2554	7.48e-05
2566	5.06e-05
2578	0.0001331
2590	8.8e-05
2602	7.7e-05
2614	0.0001331
2626	0.0001331
2638	0.0001485
2650	0.0001012
2662	0.0001474
2674	0.0002057
2686	0.0001848
2698	0.0001837
2710	0.0002332
2722	0.0003102
2734	0.0003839
2746	0.0003905
2758	0.0004081
2770	0.0004356
2782	0.0004741
2794	0.0005577
2806	0.0006765
2818	0.0009922
2830	0.0015433
2842	0.0025344
2854	0.0036707
2866	0.0052943
2878	0.006809
2890	0.0068805
2902	0.006831
2914	0.0081158
2926	0.0103499
2938	0.0108207
2950	0.0093874
2962	0.0093599
2974	0.0087879
2986	0.0059873
2998	0.0041184
3010	0.003322
3022	0.0030019
3034	0.0025993
3046	0.0019855
3058	0.0013904
3070	0.0010065
3082	0.0007018
3094	0.0004862
3106	0.0004906
3118	0.0003828
3130	0.0002981
3142	0.0002387
3154	0.0002354
3166	0.0002024
3178	0.0001419
3190	0.0002013
3202	0.0001628
3214	6.93e-05
3226	0.0001562
3238	0.0001397
3250	6.71e-05
3262	0.0001012
3274	9.68e-05
3286	0.0001177
3298	8.14e-05
3310	0.0001221
3322	9.24e-05
3334	0.0001243
3346	9.13e-05
3358	0.00011
3370	0.0001243
3382	0
3394	4.62e-05
3406	7.48e-05
3418	6.49e-05
3430	0.000121
3442	6.05e-05
3454	9.02e-05
3466	4.62e-05
3478	3.19e-05
3490	7.15e-05
3502	9.24e-05
3514	0.0001287
3526	4.95e-05
3538	7.48e-05
3550	0.0001782
3562	4.73e-05
3574	0.0001056
3586	0.0001584
3598	0.0001166
3610	6.71e-05
3622	4.4e-05
3634	5.94e-05
3646	7.48e-05
3658	0.0001133
3670	0.0001067
3682	3.3e-05
3694	6.71e-05
3706	0.0001287
3718	5.17e-05
3730	8.25e-05
3742	0.0001628
3754	0.0001166
3766	0.00011
3778	6.82e-05
3790	0.0001056
3802	0.000121
3814	0.0001254
3826	0.0002057
3838	0.0001958
