Infrared Spectrum: Fluoren-9-one, 2-ethylamino-
Formula: C15 H13 N O
CAS: 207291-46-1
State: SOLID (SPLIT MULL), FLUOROLUBE FOR 3800-1330 CM^-^1, NUJOL FOR 1330-400 CM^-^1
Class: COBLENTZ III
Instrument: BECKMAN IR-9 (GRATING)
Instrument parameters: ORDER CHANGES: 670, 1200, 2000 CM^-^1
Sampling: TRANSMISSION
Resolution: 2
Origin: DOW CHEMICAL COMPANY
1/CM	TRANSMITTANCE
3800	0.5791
3791	0.5804
3782	0.5818
3773	0.5833
3764	0.5862
3755	0.5862
3746	0.5875
3737	0.5884
3728	0.5894
3719	0.5903
3710	0.5914
3701	0.5925
3692	0.5937
3683	0.5949
3674	0.5962
3665	0.5977
3656	0.5999
3647	0.602
3638	0.6038
3629	0.6048
3620	0.6058
3611	0.6058
3602	0.6056
3593	0.6055
3584	0.6062
3575	0.6071
3566	0.6079
3557	0.6088
3548	0.6098
3539	0.6107
3530	0.6118
3521	0.613
3512	0.6143
3503	0.6151
3494	0.6158
3485	0.6166
3476	0.6187
3467	0.6217
3458	0.626
3449	0.6318
3440	0.6356
3431	0.6373
3422	0.6388
3413	0.6396
3404	0.6351
3395	0.3968
3386	0.0643
3377	0.259
3368	0.4571
3359	0.5177
3350	0.5446
3341	0.5624
3332	0.5769
3323	0.5893
3314	0.5993
3305	0.6079
3296	0.615
3287	0.6212
3278	0.6254
3269	0.6303
3260	0.635
3251	0.6401
3242	0.6375
3233	0.6433
3224	0.6437
3215	0.6447
3206	0.6465
3197	0.6495
3188	0.6526
3179	0.6558
3170	0.6593
3161	0.6618
3152	0.6645
3143	0.6671
3134	0.6697
3125	0.6718
3116	0.6738
3107	0.6754
3098	0.676
3089	0.6741
3080	0.6593
3071	0.6431
3062	0.6386
3053	0.6297
3044	0.6475
3035	0.6681
3026	0.6693
3017	0.6753
3008	0.6828
2999	0.6904
2990	0.6936
2981	0.6867
2972	0.5733
2963	0.5133
2954	0.6422
2945	0.6703
2936	0.6608
2927	0.6393
2918	0.6753
2909	0.6826
2900	0.6867
2891	0.6878
2882	0.6717
2873	0.5567
2864	0.569
2855	0.5728
2846	0.6097
2837	0.6418
2828	0.659
2819	0.6764
2810	0.6882
2801	0.6962
2792	0.7018
2783	0.7061
2774	0.7064
2765	0.704
2756	0.7051
2747	0.71
2738	0.7134
2729	0.7165
2720	0.719
2711	0.7212
2702	0.7237
2693	0.726
2684	0.7284
2675	0.7307
2666	0.7328
2657	0.7349
2648	0.7368
2639	0.7389
2630	0.7419
2621	0.7428
2612	0.736
2603	0.7365
2594	0.7425
2585	0.7455
2576	0.7475
2567	0.7492
2558	0.7512
2549	0.7536
2540	0.7556
2531	0.7568
2522	0.758
2513	0.759
2504	0.7594
2495	0.7596
2486	0.76
2477	0.7603
2468	0.7607
2459	0.7611
2450	0.7618
2441	0.7624
2432	0.7638
2423	0.7651
2414	0.7665
2405	0.7675
2396	0.7684
2387	0.7691
2378	0.7692
2369	0.7693
2360	0.7694
2351	0.7695
2342	0.7697
2333	0.7699
2324	0.7711
2315	0.7725
2306	0.774
2297	0.7756
2288	0.7772
2279	0.779
2270	0.7815
2261	0.7844
2252	0.7874
2243	0.7903
2234	0.7932
2225	0.7961
2216	0.799
2207	0.8017
2198	0.8038
2189	0.8058
2180	0.8081
2171	0.8096
2162	0.8111
2153	0.8125
2144	0.8142
2135	0.8164
2126	0.8188
2117	0.8202
2108	0.8213
2099	0.8232
2090	0.8253
2081	0.8264
2072	0.8278
2063	0.8301
2054	0.8321
2045	0.834
2036	0.8357
2027	0.8377
2018	0.8392
2009	0.8411
2000	0.8304
1991	0.8385
1982	0.847
1973	0.8503
1964	0.8503
1955	0.8424
1946	0.8457
1937	0.8523
1928	0.8501
1919	0.8461
1910	0.8524
1901	0.8547
1892	0.8509
1883	0.8528
1874	0.8358
1865	0.8475
1856	0.8564
1847	0.8594
1838	0.8574
1829	0.8551
1820	0.8568
1811	0.8645
1802	0.8684
1793	0.8708
1784	0.8721
1775	0.8727
1766	0.87
1757	0.8625
1748	0.863
1739	0.8674
1730	0.8566
1721	0.4443
1712	0.1885
1703	0.1442
1694	0.68
1685	0.7585
1676	0.7903
1667	0.8075
1658	0.8321
1649	0.8371
1640	0.8252
1631	0.8194
1622	0.6857
1613	0.6528
1604	0.232
1595	0.3895
1586	0.575
1577	0.7455
1568	0.7903
1559	0.7944
1550	0.7592
1541	0.5854
1532	0.3103
1523	0.6583
1514	0.7528
1505	0.7871
1496	0.7986
1487	0.799
1478	0.7815
1469	0.7205
1460	0.2542
1451	0.5445
1442	0.7222
1433	0.7175
1424	0.7919
1415	0.8076
1406	0.8104
1397	0.7994
1388	0.5327
1379	0.756
1370	0.7056
1361	0.7048
1352	0.6575
1343	0.7115
1334	0.7058
1325	0.4566
1316	0.7306
1307	0.7762
1298	0.7606
1289	0.6528
1280	0.7788
1271	0.7947
1262	0.8168
1253	0.8171
1244	0.6692
1235	0.8192
1226	0.8258
1217	0.8202
1208	0.7783
1199	0.813
1190	0.7912
1181	0.8071
1172	0.811
1163	0.7848
1154	0.7558
1145	0.715
1136	0.8082
1127	0.8308
1118	0.8312
1109	0.8075
1100	0.8001
1091	0.7881
1082	0.7682
1073	0.7869
1064	0.8114
1055	0.8187
1046	0.8249
1037	0.8245
1028	0.8145
1019	0.8261
1010	0.8278
1001	0.8215
992	0.8311
983	0.8242
974	0.7712
965	0.7915
956	0.8095
947	0.7935
938	0.7758
929	0.7848
920	0.7914
911	0.832
902	0.8385
893	0.8334
884	0.6961
875	0.8057
866	0.8549
857	0.8448
848	0.8026
839	0.8354
830	0.7755
821	0.8346
812	0.5693
803	0.6919
794	0.848
785	0.8542
776	0.8482
767	0.811
758	0.7107
749	0.8225
740	0.7895
731	0.2452
722	0.7534
713	0.8185
704	0.857
695	0.8656
686	0.8593
677	0.863
668	0.8832
659	0.8754
650	0.8267
641	0.8795
632	0.8828
623	0.885
614	0.8694
605	0.8656
596	0.8383
587	0.8453
578	0.8171
569	0.8442
560	0.8464
551	0.8407
542	0.8333
533	0.8168
524	0.8049
515	0.7774
506	0.7375
497	0.583
488	0.7725
479	0.7337
470	0.7226
461	0.7241
452	0.7201
443	0.7097
434	0.6746
425	0.6268
416	0.608
407	0.603
