Infrared Spectrum: 2-Octyn-1-ol
Formula: C 8 H 14 O
CAS: 20739-58-6
State: gas
Instrument: HP-GC/MS/IRD
Origin: NIST Mass Spectrometry Data Center
1/CM	ABSORBANCE
550	0.0006868
562	0.0003876
574	0.000255
586	0.0001972
598	9.52e-05
610	6.46e-05
622	0.0001224
634	0.0001394
646	9.86e-05
658	6.46e-05
670	9.18e-05
682	0.0002618
694	0.0005032
706	0.0006596
718	0.0008194
730	0.000663
742	0.0005372
754	0.0003876
766	0.0003774
778	0.000408
790	0.0002924
802	0.000306
814	0.0002176
826	0.0002312
838	0.000238
850	0.000289
862	0.0002992
874	0.000391
886	0.0005372
898	0.0006902
910	0.0008262
922	0.001054
934	0.0014008
946	0.0020162
958	0.0031688
970	0.0051952
982	0.0080954
994	0.0117368
1006	0.0152116
1018	0.0142562
1030	0.009146
1042	0.0050524
1054	0.0031654
1066	0.0023018
1078	0.0016728
1090	0.0015198
1102	0.0017442
1114	0.001853
1126	0.0028458
1138	0.0042024
1150	0.0023902
1162	0.0012444
1174	0.0009826
1186	0.0009894
1198	0.0011254
1210	0.0012988
1222	0.0014824
1234	0.0016864
1246	0.0018598
1258	0.0019924
1270	0.00221
1282	0.0025568
1294	0.0025432
1306	0.0025228
1318	0.0031416
1330	0.00425
1342	0.0045152
1354	0.0053924
1366	0.0070244
1378	0.0089216
1390	0.0096118
1402	0.0072828
1414	0.0044132
1426	0.0031688
1438	0.0033626
1450	0.0034476
1462	0.003485
1474	0.0025738
1486	0.0013804
1498	0.0007616
1510	0.0005508
1522	0.0003944
1534	0.0003264
1546	0.0002516
1558	0.000221
1570	0.0001734
1582	0.0001496
1594	0.0001258
1606	0.000102
1618	7.82e-05
1630	7.14e-05
1642	6.46e-05
1654	5.1e-05
1666	4.42e-05
1678	3.74e-05
1690	8.16e-05
1702	5.1e-05
1714	3.74e-05
1726	3.06e-05
1738	2.72e-05
1750	1.36e-05
1762	1.36e-05
1774	0
1786	1.02e-05
1798	0
1810	1.02e-05
1822	1.02e-05
1834	1.02e-05
1846	2.38e-05
1858	4.08e-05
1870	4.08e-05
1882	2.04e-05
1894	1.7e-05
1906	4.76e-05
1918	4.42e-05
1930	8.16e-05
1942	0.000119
1954	0.0001224
1966	0.000136
1978	0.0001598
1990	0.0002074
2002	0.0002346
2014	0.000221
2026	0.0001836
2038	0.0001462
2050	0.000119
2062	7.48e-05
2074	8.16e-05
2086	5.78e-05
2098	4.42e-05
2110	7.14e-05
2122	4.76e-05
2134	7.14e-05
2146	0.0001088
2158	0.0001224
2170	0.0001734
2182	0.0003298
2194	0.0005916
2206	0.001037
2218	0.0015164
2230	0.001241
2242	0.000697
2254	0.0005542
2266	0.000612
2278	0.0009146
2290	0.0009588
2302	0.0004352
2314	0.00017
2326	0.000102
2338	0.0001088
2350	0.0001054
2362	9.18e-05
2374	0.0001054
2386	0.0001088
2398	0.000119
2410	0.0001122
2422	0.0001088
2434	8.16e-05
2446	6.46e-05
2458	8.84e-05
2470	5.1e-05
2482	4.42e-05
2494	3.4e-05
2506	4.08e-05
2518	4.08e-05
2530	8.5e-05
2542	0.0001054
2554	0.000119
2566	0.0001496
2578	0.0001598
2590	0.0001496
2602	0.0001734
2614	0.0001904
2626	0.0002142
2638	0.0002856
2650	0.0003128
2662	0.000374
2674	0.000391
2686	0.0003842
2698	0.0003502
2710	0.0003876
2722	0.000442
2734	0.0005372
2746	0.000612
2758	0.0006528
2770	0.0007446
2782	0.0008296
2794	0.0010642
2806	0.00136
2818	0.0018394
2830	0.0026792
2842	0.0045186
2854	0.0078438
2866	0.0122128
2878	0.0143786
2890	0.0134436
2902	0.0128078
2914	0.0166532
2926	0.0250104
2938	0.0336872
2950	0.0291958
2962	0.022423
2974	0.017544
2986	0.0081464
2998	0.0039508
3010	0.0023936
3022	0.0016558
3034	0.001224
3046	0.000918
3058	0.0007208
3070	0.000612
3082	0.0005032
3094	0.0004352
3106	0.0004046
3118	0.0003774
3130	0.0002754
3142	0.0002516
3154	0.0002142
3166	0.0002074
3178	0.0001768
3190	0.0001666
3202	0.0001462
3214	8.84e-05
3226	7.14e-05
3238	3.74e-05
3250	4.76e-05
3262	6.46e-05
3274	6.12e-05
3286	6.12e-05
3298	4.42e-05
3310	4.42e-05
3322	5.1e-05
3334	4.76e-05
3346	2.72e-05
3358	3.4e-05
3370	7.48e-05
3382	8.84e-05
3394	5.1e-05
3406	8.16e-05
3418	0.000102
3430	0.0001258
3442	9.86e-05
3454	5.1e-05
3466	7.14e-05
3478	0.0001156
3490	0.0001088
3502	0.000136
3514	0.0001224
3526	0.0001326
3538	0.0001666
3550	0.000153
3562	0.0001734
3574	0.00017
3586	0.0001836
3598	0.0003026
3610	0.0005134
3622	0.0008126
3634	0.001326
3646	0.0017068
3658	0.0020978
3670	0.0019686
3682	0.0015096
3694	0.0008704
3706	0.0005134
3718	0.0002618
3730	0.0002244
3742	0.0002108
3754	0.0002074
3766	0.0001666
3778	0.0002244
3790	0.0001734
3802	0.000238
3814	0.00017
3826	0.0001904
3838	0.0001428
