Infrared Spectrum: N-Phenyl-N'-propionylhydrazine
Formula: C 9 H 12 N 2 O
CAS: 20730-02-3
State: gas
Origin: EPA-IR VAPOR PHASE LIBRARY
1/CM	ABSORBANCE
549.8	0.002989
559.445	0.003049
569.09	0.002989
578.734	0.002629
588.379	0.002559
598.024	0.002519
607.669	0.002389
617.313	0.002489
626.958	0.002359
636.603	0.002509
646.248	0.002829
655.893	0.003069
665.537	0.003819
675.182	0.005379
684.827	0.007189
694.472	0.007119
704.116	0.005309
713.761	0.004579
723.406	0.004249
733.051	0.005309
742.695	0.007979
752.34	0.009589
761.985	0.007199
771.63	0.004049
781.275	0.003049
790.919	0.002709
800.564	0.002559
810.209	0.002449
819.854	0.002259
829.498	0.002069
839.143	0.002039
848.788	0.001739
858.433	0.001939
868.078	0.001919
877.722	0.002109
887.367	0.001729
897.012	0.001529
906.657	0.001399
916.301	0.001539
925.946	0.002149
935.591	0.002249
945.236	0.001989
954.88	0.001849
964.525	0.001909
974.17	0.001919
983.815	0.002159
993.46	0.002109
1003.1	0.002049
1012.75	0.002039
1022.39	0.003209
1032.04	0.003889
1041.68	0.003669
1051.33	0.002849
1060.97	0.002809
1070.62	0.002679
1080.26	0.001979
1089.91	0.002469
1099.55	0.002399
1109.2	0.001909
1118.84	0.001929
1128.49	0.002839
1138.13	0.002809
1147.78	0.002939
1157.42	0.002689
1167.07	0.003029
1176.71	0.003889
1186.36	0.005439
1196	0.008609
1205.64	0.009729
1215.29	0.007809
1224.93	0.007469
1234.58	0.006889
1244.22	0.005589
1253.87	0.004579
1263.51	0.003759
1273.16	0.003549
1282.8	0.003329
1292.45	0.003229
1302.09	0.003449
1311.74	0.002739
1321.38	0.002219
1331.03	0.002499
1340.67	0.002869
1350.32	0.003639
1359.96	0.004429
1369.61	0.005129
1379.25	0.005129
1388.9	0.004179
1398.54	0.003699
1408.18	0.004799
1417.83	0.007079
1427.47	0.010009
1437.12	0.010729
1446.76	0.010059
1456.41	0.011189
1466.05	0.010559
1475.7	0.008429
1485.34	0.009649
1494.99	0.015379
1504.63	0.010609
1514.28	0.004479
1523.92	0.002629
1533.57	0.002019
1543.21	0.001819
1552.86	0.001779
1562.5	0.002049
1572.15	0.002399
1581.79	0.003589
1591.44	0.007659
1601.08	0.013369
1610.73	0.009159
1620.37	0.003419
1630.01	0.002059
1639.66	0.001729
1649.3	0.001799
1658.95	0.002089
1668.59	0.002799
1678.24	0.003629
1687.88	0.004609
1697.53	0.006809
1707.17	0.013159
1716.82	0.025099
1726.46	0.030629
1736.11	0.017309
1745.75	0.006829
1755.4	0.004199
1765.04	0.003539
1774.69	0.002669
1784.33	0.001869
1793.98	0.001409
1803.62	0.0010877
1813.27	0.0009392
1822.91	0.0008198
1832.55	0.0009478
1842.2	0.0009361
1851.84	0.0008547
1861.49	0.0006617
1871.13	0.0006158
1880.78	0.0005381
1890.42	0.0006069
1900.07	0.0007509
1909.71	0.0007907
1919.36	0.000932
1929	0.0009285
1938.65	0.0008616
1948.29	0.0006947
1957.94	0.0005934
1967.58	0.0005325
1977.23	0.000446
1986.87	0.0005072
1996.52	0.0005005
2006.16	0.0004402
2015.81	0.000476
2025.45	0.0004092
2035.1	0.0004024
2044.74	0.0004392
2054.38	0.000428
2064.03	0.0004203
2073.67	0.0003884
2083.32	0.0004181
2092.96	0.00034679
2102.61	0.00033256
2112.25	0.0004084
2121.9	0.0004093
2131.54	0.0004286
2141.19	0.00033982
2150.83	0.0004005
2160.48	0.00032107
2170.12	0.00034024
2179.77	0.00028414
2189.41	0.0003696
2199.06	0.00033325
2208.7	0.00027126
2218.35	0.00031322
2227.99	0.0003745
2237.64	0.0004007
2247.28	0.0003915
2256.92	0.00029656
2266.57	0.0003585
2276.21	0.00026064
2285.86	0.0003609
2295.5	0.00032928
2305.15	0.0003338
2314.79	0.000383
2324.44	0.0005028
2334.08	0.0003605
2343.73	0.0003787
2353.37	0.0004193
2363.02	0.0002952
2372.66	0.00029964
2382.31	0.0004024
2391.95	0.0003555
2401.6	0.0003347
2411.24	0.00033837
2420.89	0.0004283
2430.53	0.00034536
2440.18	0.0003775
2449.82	0.0004276
2459.47	0.0004293
2469.11	0.0003605
2478.75	0.00029505
2488.4	0.00034189
2498.04	0.0004034
2507.69	0.0003875
2517.33	0.0003548
2526.98	0.0003632
2536.62	0.0003708
2546.27	0.0004487
2555.91	0.00029928
2565.56	0.0004372
2575.2	0.00029276
2584.85	0.000274
2594.49	0.00025952
2604.14	0.00030598
2613.78	0.00032367
2623.43	0.00032833
2633.07	0.0003502
2642.72	0.0003547
2652.36	0.0003752
2662.01	0.0001972
2671.65	0.0003635
2681.29	0.00032532
2690.94	0.00032004
2700.58	0.0003558
2710.23	0.0004009
2719.87	0.00026806
2729.52	0.00024642
2739.16	0.0004432
2748.81	0.0005255
2758.45	0.0004476
2768.1	0.0004776
2777.74	0.000421
2787.39	0.0004651
2797.03	0.0004501
2806.68	0.0005631
2816.32	0.0006349
2825.97	0.0005721
2835.61	0.0007381
2845.26	0.000831
2854.9	0.0009242
2864.55	0.0011065
2874.19	0.001279
2883.84	0.001789
2893.48	0.002249
2903.12	0.002289
2912.77	0.002409
2922.41	0.002969
2932.06	0.003199
2941.7	0.003809
2951.35	0.004349
2960.99	0.003809
2970.64	0.003689
2980.28	0.004989
2989.93	0.005229
2999.57	0.003729
3009.22	0.002859
3018.86	0.003079
3028.51	0.003419
3038.15	0.003499
3047.8	0.003689
3057.44	0.004339
3067.09	0.004639
3076.73	0.004069
3086.38	0.003039
3096.02	0.002499
3105.67	0.002129
3115.31	0.001399
3124.95	0.0008525
3134.6	0.0006094
3144.24	0.00058
3153.89	0.0005825
3163.53	0.0005839
3173.18	0.0005442
3182.82	0.00034297
3192.47	0.0004265
3202.11	0.00033491
3211.76	0.00025028
3221.4	0.0002027
3231.05	0.0002308
3240.69	0.0004689
3250.34	0.0004065
3259.98	0.00032974
3269.63	0.0004818
3279.27	0.0004527
3288.92	0.0005164
3298.56	0.0008047
3308.21	0.0007037
3317.85	0.0011349
3327.49	0.001599
3337.14	0.002089
3346.78	0.002519
3356.43	0.001999
3366.07	0.001539
3375.72	0.0011843
3385.36	0.0011599
3395.01	0.001289
3404.65	0.001249
3414.3	0.001429
3423.94	0.001549
3433.59	0.002069
3443.23	0.002619
3452.88	0.002249
3462.52	0.001719
3472.17	0.0009964
3481.81	0.0007456
3491.46	0.0006576
3501.1	0.0003836
3510.75	0.0004231
3520.39	0.0003974
3530.04	0.0004547
3539.68	0.00047
3549.32	0.0004316
3558.97	0.0002011
3568.61	0.0002326
3578.26	0.0004001
3587.9	0.0003753
3597.55	0.00030149
3607.19	0.000114
3616.84	0.0002789
3626.48	0.0004278
3636.13	0.00027235
3645.77	0.0002272
3655.42	0.0002112
3665.06	0.0004662
3674.71	0.0004551
3684.35	0.00031006
3694	0.0004432
3703.64	0.00030184
3713.29	0.00030312
3722.93	0.00033292
3732.58	0.0002271
3742.22	0.00033229
3751.86	0.0002006
3761.51	0.00032923
3771.15	0.000135
3780.8	0.000465
3790.44	0.000195
3800.09	0.0002637
3809.73	0.00027889
3819.38	0.0001874
3829.02	0.0002193
3838.67	0.0003503
3848.31	0.0003521
3857.96	0.0002284
3867.6	0.000255899
3877.25	0.00033166
3886.89	0.0004545
3896.54	0.0004762
3906.18	0.0005445
3915.83	0.000367
3925.47	0.0004617
3935.12	0.00029046
3944.76	0.0002279
3954.41	0.0004485
3964.05	0.000213
3973.69	0.00034133
3983.34	0.0004208
3992.98	8.4e-05
