Infrared Spectrum: 3-Bromo-4-hydroxy-5-methoxyphenylacetic acid
Formula: C 9 H 9 Br O 4
CAS: 20731-48-0
State: gas
Origin: EPA-IR VAPOR PHASE LIBRARY
1/CM	ABSORBANCE
549.8	0.002045
559.445	0.002835
569.09	0.005085
578.734	0.007285
588.379	0.005975
598.024	0.004265
607.669	0.003735
617.313	0.003535
626.958	0.003895
636.603	0.003715
646.248	0.002975
655.893	0.002375
665.537	0.002005
675.182	0.001705
684.827	0.001695
694.472	0.0013472
704.116	0.0013393
713.761	0.0012703
723.406	0.0015185
733.051	0.0015565
742.695	0.0010896
752.34	0.0009864
761.985	0.0010699
771.63	0.0009504
781.275	0.0012255
790.919	0.001805
800.564	0.003035
810.209	0.002475
819.854	0.004005
829.498	0.004145
839.143	0.002825
848.788	0.001915
858.433	0.001715
868.078	0.0011128
877.722	0.0010483
887.367	0.0015233
897.012	0.001595
906.657	0.0013123
916.301	0.0011522
925.946	0.001181
935.591	0.0014309
945.236	0.001585
954.88	0.001935
964.525	0.0014682
974.17	0.0012772
983.815	0.0010035
993.46	0.0011571
1003.1	0.001625
1012.75	0.0013533
1022.39	0.001955
1032.04	0.004125
1041.68	0.007585
1051.33	0.008355
1060.97	0.005935
1070.62	0.004055
1080.26	0.003905
1089.91	0.006085
1099.55	0.009045
1109.2	0.014655
1118.84	0.013785
1128.49	0.009965
1138.13	0.009085
1147.78	0.006595
1157.42	0.004505
1167.07	0.005195
1176.71	0.007415
1186.36	0.007955
1196	0.006135
1205.64	0.004765
1215.29	0.004685
1224.93	0.005385
1234.58	0.008545
1244.22	0.008525
1253.87	0.008215
1263.51	0.007445
1273.16	0.010455
1282.8	0.012455
1292.45	0.008965
1302.09	0.006205
1311.74	0.004265
1321.38	0.003985
1331.03	0.005145
1340.67	0.005205
1350.32	0.005355
1359.96	0.005065
1369.61	0.004105
1379.25	0.002935
1388.9	0.002235
1398.54	0.002355
1408.18	0.003475
1417.83	0.006345
1427.47	0.007355
1437.12	0.004405
1446.76	0.003405
1456.41	0.004045
1466.05	0.005065
1475.7	0.006215
1485.34	0.010275
1494.99	0.015005
1504.63	0.009155
1514.28	0.002985
1523.92	0.001825
1533.57	0.0014051
1543.21	0.0013296
1552.86	0.0014158
1562.5	0.001745
1572.15	0.002885
1581.79	0.004345
1591.44	0.004525
1601.08	0.003515
1610.73	0.002315
1620.37	0.0014048
1630.01	0.0011562
1639.66	0.0009682
1649.3	0.0009825
1658.95	0.0010231
1668.59	0.0009893
1678.24	0.0010734
1687.88	0.0011691
1697.53	0.0011072
1707.17	0.0013612
1716.82	0.001569
1726.46	0.002105
1736.11	0.002965
1745.75	0.004585
1755.4	0.007035
1765.04	0.009955
1774.69	0.013345
1784.33	0.012875
1793.98	0.010045
1803.62	0.006805
1813.27	0.003715
1822.91	0.002155
1832.55	0.0015608
1842.2	0.0011604
1851.84	0.0010461
1861.49	0.001059
1871.13	0.000901
1880.78	0.0008512
1890.42	0.0008438
1900.07	0.0008735
1909.71	0.0008347
1919.36	0.0008066
1929	0.0007956
1938.65	0.000883
1948.29	0.0008157
1957.94	0.0008521
1967.58	0.0008144
1977.23	0.0008327
1986.87	0.000916
1996.52	0.0008912
2006.16	0.0009968
2015.81	0.0008563
2025.45	0.0008229
2035.1	0.0009222
2044.74	0.0008718
2054.38	0.0008279
2064.03	0.0007631
2073.67	0.0008512
2083.32	0.0008665
2092.96	0.0008906
2102.61	0.0008774
2112.25	0.0007725
2121.9	0.0007623
2131.54	0.000789
2141.19	0.000734
2150.83	0.0008087
2160.48	0.0008455
2170.12	0.0007443
2179.77	0.0008263
2189.41	0.0008962
2199.06	0.0008302
2208.7	0.000858
2218.35	0.0007774
2227.99	0.0008318
2237.64	0.00089
2247.28	0.0008359
2256.92	0.0008331
2266.57	0.0007871
2276.21	0.0007912
2285.86	0.0008605
2295.5	0.0008889
2305.15	0.0009041
2314.79	0.0008697
2324.44	0.0009214
2334.08	0.0008822
2343.73	0.0008498
2353.37	0.0008343
2363.02	0.0008635
2372.66	0.0009577
2382.31	0.0007834
2391.95	0.0008834
2401.6	0.0008006
2411.24	0.0007967
2420.89	0.0008807
2430.53	0.0007569
2440.18	0.0007667
2449.82	0.0008109
2459.47	0.0009172
2469.11	0.0008599
2478.75	0.0008438
2488.4	0.0008029
2498.04	0.0008739
2507.69	0.0008776
2517.33	0.0008537
2526.98	0.0007749
2536.62	0.0008401
2546.27	0.0007878
2555.91	0.0008573
2565.56	0.0008722
2575.2	0.0007103
2584.85	0.0007482
2594.49	0.0008615
2604.14	0.000857
2613.78	0.0007847
2623.43	0.0008286
2633.07	0.0008846
2642.72	0.0008243
2652.36	0.000775
2662.01	0.0008634
2671.65	0.00067052
2681.29	0.0007542
2690.94	0.0007312
2700.58	0.0008642
2710.23	0.0009684
2719.87	0.0008606
2729.52	0.00063543
2739.16	0.0007531
2748.81	0.0007778
2758.45	0.0007238
2768.1	0.0008173
2777.74	0.0007749
2787.39	0.0007444
2797.03	0.0008851
2806.68	0.0008364
2816.32	0.0009657
2825.97	0.0010681
2835.61	0.0012726
2845.26	0.001825
2854.9	0.001765
2864.55	0.001655
2874.19	0.0014788
2883.84	0.0013833
2893.48	0.0013062
2903.12	0.0014732
2912.77	0.001615
2922.41	0.001975
2932.06	0.002225
2941.7	0.002865
2951.35	0.003425
2960.99	0.002955
2970.64	0.002445
2980.28	0.002095
2989.93	0.001805
2999.57	0.001775
3009.22	0.002245
3018.86	0.002085
3028.51	0.0012894
3038.15	0.0011808
3047.8	0.0008187
3057.44	0.0011335
3067.09	0.0007718
3076.73	0.0011914
3086.38	0.0008467
3096.02	0.0007455
3105.67	0.00057265
3115.31	0.0006996
3124.95	0.0008483
3134.6	0.00064108
3144.24	0.00059057
3153.89	0.0005516
3163.53	0.0006875
3173.18	0.0007304
3182.82	0.0008147
3192.47	0.0004838
3202.11	0.00065373
3211.76	0.00066706
3221.4	0.0004908
3231.05	0.000583032
3240.69	0.0006929
3250.34	0.0004994
3259.98	0.0005056
3269.63	0.00064354
3279.27	0.000574372
3288.92	0.000441
3298.56	0.000385
3308.21	0.00060862
3317.85	0.000582959
3327.49	0.000252
3337.14	0.0005356
3346.78	0.000394
3356.43	0.0004871
3366.07	0.000401
3375.72	0.000274
3385.36	0.000582274
3395.01	0.000451
3404.65	0.000413
3414.3	0.000385
3423.94	0.00058409
3433.59	0.000314
3443.23	0.0005293
3452.88	0.000357
3462.52	0.000363
3472.17	0.000331
3481.81	0.000583233
3491.46	0.000417
3501.1	0.00058707
3510.75	0.000439
3520.39	0.0010031
3530.04	0.0009059
3539.68	0.002115
3549.32	0.004595
3558.97	0.005305
3568.61	0.011115
3578.26	0.012085
3587.9	0.004535
3597.55	0.001715
3607.19	0.000806
3616.84	0.0005308
3626.48	0.000389
3636.13	0.00059102
3645.77	0.000379
3655.42	0.000452
3665.06	0.000389
3674.71	0.000469
3684.35	0.000321
3694	0.000211
3703.64	0.000441
3713.29	0.00039
3722.93	0.000241
3732.58	0.000252
3742.22	0.000333
3751.86	0.000229
3761.51	0.000235
3771.15	0.000331
3780.8	0.000183
3790.44	0.000224
3800.09	0.000111
3809.73	0.000418
3819.38	9.3e-05
3829.02	0.000377
3838.67	0.000336
3848.31	0.000249
3857.96	0.00025
3867.6	0.000371
3877.25	0.0005338
3886.89	0.000263
3896.54	0.0004766
3906.18	0.00059653
3915.83	0.000431
3925.47	0.0005499
3935.12	0.000266
3944.76	0.000273
3954.41	9.4e-05
3964.05	0.000436
3973.69	0.00033
3983.34	0.000272
3992.98	0.000114
