Infrared Spectrum: 3-Di-n-propylaminopropionitrile
Formula: C 9 H 18 N 2
CAS: 20732-22-3
State: gas
Origin: EPA-IR VAPOR PHASE LIBRARY
1/CM	ABSORBANCE
549.8	0.00370748
559.445	0.00341748
569.09	0.00419748
578.734	0.00354748
588.379	0.00251748
598.024	0.00240748
607.669	0.00125748
617.313	0.00141748
626.958	0.00059378
636.603	0.00100708
646.248	0.00075448
655.893	0.00129748
665.537	0.00122748
675.182	0.00133748
684.827	0.00198748
694.472	0.00263748
704.116	0.00377748
713.761	0.00406748
723.406	0.00525748
733.051	0.00686748
742.695	0.00757748
752.34	0.00802748
761.985	0.00644748
771.63	0.00553748
781.275	0.00520748
790.919	0.00472748
800.564	0.00528748
810.209	0.00613748
819.854	0.00701748
829.498	0.00755748
839.143	0.00862748
848.788	0.00833748
858.433	0.00798748
868.078	0.00873748
877.722	0.0110875
887.367	0.0122475
897.012	0.0107075
906.657	0.00812748
916.301	0.00687748
925.946	0.00803748
935.591	0.0105975
945.236	0.0111375
954.88	0.0111475
964.525	0.0131375
974.17	0.0168975
983.815	0.0247075
993.46	0.0315275
1003.1	0.0309275
1012.75	0.0242675
1022.39	0.0219375
1032.04	0.0245975
1041.68	0.0265175
1051.33	0.0266675
1060.97	0.0367575
1070.62	0.0638175
1080.26	0.0833675
1089.91	0.0750975
1099.55	0.0541075
1109.2	0.0356975
1118.84	0.0255475
1128.49	0.0198075
1138.13	0.0169075
1147.78	0.0247875
1157.42	0.0329575
1167.07	0.0291175
1176.71	0.0266375
1186.36	0.0364975
1196	0.0349375
1205.64	0.0220075
1215.29	0.0176875
1224.93	0.0184875
1234.58	0.0170375
1244.22	0.0158675
1253.87	0.0180775
1263.51	0.0218875
1273.16	0.0243875
1282.8	0.0260375
1292.45	0.0274275
1302.09	0.0274875
1311.74	0.0263775
1321.38	0.0276075
1331.03	0.0335375
1340.67	0.0421975
1350.32	0.0491775
1359.96	0.0556675
1369.61	0.0566475
1379.25	0.0539475
1388.9	0.0454875
1398.54	0.0271175
1408.18	0.0185975
1417.83	0.0205275
1427.47	0.0272075
1437.12	0.0287475
1446.76	0.0332975
1456.41	0.0501475
1466.05	0.0615075
1475.7	0.0470375
1485.34	0.0229675
1494.99	0.0120475
1504.63	0.00879748
1514.28	0.00703748
1523.92	0.00594748
1533.57	0.00495748
1543.21	0.00428748
1552.86	0.00348748
1562.5	0.00307748
1572.15	0.00303748
1581.79	0.00264748
1591.44	0.00247748
1601.08	0.00251748
1610.73	0.00229748
1620.37	0.00223748
1630.01	0.00230748
1639.66	0.00207748
1649.3	0.00207748
1658.95	0.00177748
1668.59	0.00157748
1678.24	0.00170748
1687.88	0.00167748
1697.53	0.00143748
1707.17	0.00122748
1716.82	0.00107748
1726.46	0.00133748
1736.11	0.00115748
1745.75	0.00097538
1755.4	0.00109748
1765.04	0.00106748
1774.69	0.00108748
1784.33	0.00111748
1793.98	0.00120748
1803.62	0.00130748
1813.27	0.00132748
1822.91	0.00136748
1832.55	0.00137748
1842.2	0.00138748
1851.84	0.00138748
1861.49	0.00135748
1871.13	0.00157748
1880.78	0.00157748
1890.42	0.00155748
1900.07	0.00147748
1909.71	0.00135748
1919.36	0.00131748
1929	0.00129748
1938.65	0.00114748
1948.29	0.00117748
1957.94	0.00111748
1967.58	0.00135748
1977.23	0.00140748
1986.87	0.00145748
1996.52	0.00150748
2006.16	0.00141748
2015.81	0.00145748
2025.45	0.00148748
2035.1	0.00148748
2044.74	0.00139748
2054.38	0.00135748
2064.03	0.00127748
2073.67	0.00138748
2083.32	0.00133748
2092.96	0.00138748
2102.61	0.00136748
2112.25	0.00134748
2121.9	0.00142748
2131.54	0.00122748
2141.19	0.00141748
2150.83	0.00145748
2160.48	0.00157748
2170.12	0.00171748
2179.77	0.00164748
2189.41	0.00193748
2199.06	0.00203748
2208.7	0.00212748
2218.35	0.00239748
2227.99	0.00283748
2237.64	0.00525748
2247.28	0.00935748
2256.92	0.00820748
2266.57	0.00338748
2276.21	0.00234748
2285.86	0.00200748
2295.5	0.00172748
2305.15	0.00188748
2314.79	0.00193748
2324.44	0.00178748
2334.08	0.00185748
2343.73	0.00202748
2353.37	0.00199748
2363.02	0.00190748
2372.66	0.00234748
2382.31	0.00232748
2391.95	0.00237748
2401.6	0.00222748
2411.24	0.00212748
2420.89	0.00189748
2430.53	0.00218748
2440.18	0.00203748
2449.82	0.00189748
2459.47	0.00182748
2469.11	0.00180748
2478.75	0.00191748
2488.4	0.00189748
2498.04	0.00195748
2507.69	0.00194748
2517.33	0.00228748
2526.98	0.00241748
2536.62	0.00276748
2546.27	0.00323748
2555.91	0.00319748
2565.56	0.00363748
2575.2	0.00386748
2584.85	0.00450748
2594.49	0.00491748
2604.14	0.00556748
2613.78	0.00583748
2623.43	0.00655748
2633.07	0.00690748
2642.72	0.00765748
2652.36	0.00845748
2662.01	0.00970748
2671.65	0.0107975
2681.29	0.0117375
2690.94	0.0129575
2700.58	0.0150575
2710.23	0.0180275
2719.87	0.0215675
2729.52	0.0254675
2739.16	0.0284675
2748.81	0.0303975
2758.45	0.0327675
2768.1	0.0374075
2777.74	0.0442075
2787.39	0.0545575
2797.03	0.0760075
2806.68	0.107477
2816.32	0.127767
2825.97	0.121097
2835.61	0.102317
2845.26	0.0847775
2854.9	0.0755075
2864.55	0.0831075
2874.19	0.112347
2883.84	0.137547
2893.48	0.123087
2903.12	0.112167
2912.77	0.122827
2922.41	0.146377
2932.06	0.194647
2941.7	0.241407
2951.35	0.232097
2960.99	0.262597
2970.64	0.307647
2980.28	0.208727
2989.93	0.0948975
2999.57	0.0476575
3009.22	0.0316875
3018.86	0.0244975
3028.51	0.0198775
3038.15	0.0159975
3047.8	0.0127075
3057.44	0.0106275
3067.09	0.00924748
3076.73	0.00846748
3086.38	0.00729748
3096.02	0.00687748
3105.67	0.00641748
3115.31	0.00596748
3124.95	0.00546748
3134.6	0.00467748
3144.24	0.00476748
3153.89	0.00408748
3163.53	0.00399748
3173.18	0.00397748
3182.82	0.00372748
3192.47	0.00354748
3202.11	0.00293748
3211.76	0.00240748
3221.4	0.00221748
3231.05	0.00224748
3240.69	0.00195748
3250.34	0.00161748
3259.98	0.00132748
3269.63	0.00122748
3279.27	0.00127748
3288.92	0.00086618
3298.56	0.00109748
3308.21	0.00087028
3317.85	0.00085248
3327.49	0.00059118
3337.14	0.00108748
3346.78	0.00067898
3356.43	0.00060228
3366.07	0.00062078
3375.72	0.00057508
3385.36	0.00022838
3395.01	0.00076738
3404.65	0.00034118
3414.3	0.00017838
3423.94	0.00028118
3433.59	0.00043168
3443.23	0.00033988
3452.88	0.00046268
3462.52	0.00024008
3472.17	0.00052028
3481.81	3.073e-05
3491.46	0.00012748
3501.1	0.00052718
3510.75	0.00036428
3520.39	0.00029068
3530.04	0.00028828
3539.68	0.00023728
3549.32	0.00020558
3558.97	0.00044918
3568.61	0.00028658
3578.26	0.00059358
3587.9	0.00050038
3597.55	0.00037118
3607.19	0.00020488
3616.84	0.00017358
3626.48	0.00074728
3636.13	0.00037268
3645.77	0.00042158
3655.42	0.00036738
3665.06	0.00069728
3674.71	0.00022478
3684.35	0.00047998
3694	0.00076108
3703.64	0.00067728
3713.29	0.00049848
3722.93	0.00061508
3732.58	0.00060648
3742.22	0.00043088
3751.86	0.00069688
3761.51	0.00102748
3771.15	0.00077198
3780.8	0.00068658
3790.44	0.00092728
3800.09	0.00102748
3809.73	0.00104748
3819.38	0.00107748
3829.02	0.00090938
3838.67	0.00077658
3848.31	0.00102748
3857.96	0.00054708
3867.6	0.00076308
3877.25	0.00100598
3886.89	0.00076638
3896.54	0.00091578
3906.18	0.00098378
3915.83	0.00109748
3925.47	0.00097578
3935.12	0.00109748
3944.76	0.00140748
3954.41	0.00156748
3964.05	0.00135748
3973.69	0.00168748
3983.34	0.00163748
3992.98	0.00179748
