Infrared Spectrum: 2,4-DIMETHYLPYRIDINE HYDROCHLORIDE
Formula: C7 H10 Cl N
CAS: 20736-88-3
State: SOLID (KBr DISC, 0.9% WT.)
Class: COBLENTZ III
Instrument: PERKIN-ELMER 157
Sampling: TRANSMISSION
Resolution: 2
Origin: BRITISH PETROLEUM CO. LTD., ENGLAND
1/CM	TRANSMITTANCE
668	0.9413
677	0.9181
686	0.8937
695	0.8731
704	0.8238
713	0.7654
722	0.8038
731	0.7792
740	0.7077
749	0.5932
758	0.75
767	0.7111
776	0.6693
785	0.6535
794	0.5848
803	0.4803
812	0.2637
821	0.011
830	0.0889
839	0.4291
848	0.5522
857	0.5835
866	0.5997
875	0.593
884	0.5786
893	0.566
902	0.5156
911	0.325
920	0.4946
929	0.3457
938	0.446
947	0.2028
956	0.2736
965	0.442
974	0.4393
983	0.3551
992	0.3033
1001	0.332
1010	0.2505
1019	0.3446
1028	0.3785
1037	0.2726
1046	0.1781
1055	0.2492
1064	0.3724
1073	0.4253
1082	0.4492
1091	0.4565
1100	0.4668
1109	0.4381
1118	0.4305
1127	0.4451
1136	0.4356
1145	0.4106
1154	0.3703
1163	0.3543
1172	0.2943
1181	0.3129
1190	0.4026
1199	0.4049
1208	0.3908
1217	0.3373
1226	0.1769
1235	0.1673
1244	0.359
1253	0.3714
1262	0.3049
1271	0.2674
1280	0.1866
1289	0.049
1298	0.3034
1307	0.3465
1316	0.3418
1325	0.3315
1334	0.312
1343	0.2949
1352	0.2709
1361	0.1791
1370	0.1773
1379	0.0968
1388	0.1167
1397	0.098
1406	0.155
1415	0.1324
1424	0.1284
1433	0.1387
1442	0.1359
1451	0.1199
1460	0.102
1469	0.0716
1478	0.0494
1487	0.0844
1496	0.0991
1505	0.0986
1514	0.0926
1523	0.0929
1532	0.1305
1541	0.1415
1550	0.1418
1559	0.1444
1568	0.1457
1577	0.1409
1586	0.129
1595	0.0862
1604	0.0314
1613	0.0248
1622	0.0536
1631	0.025
1640	0.0584
1649	0.1989
1658	0.2211
1667	0.3571
1676	0.3847
1685	0.3877
1694	0.3872
1703	0.3861
1712	0.3753
1721	0.3663
1730	0.3524
1739	0.3234
1748	0.2861
1757	0.2666
1766	0.1996
1775	0.2218
1784	0.2948
1793	0.3062
1802	0.3021
1811	0.2846
1820	0.2457
1829	0.2086
1838	0.2046
1847	0.2055
1856	0.2012
1865	0.1766
1874	0.1522
1883	0.1054
1892	0.0804
1901	0.1038
1910	0.157
1919	0.1557
1928	0.144
1937	0.1025
1946	0.0495
1955	0.0572
1964	0.1116
1973	0.1387
1982	0.1402
1991	0.1236
2000	0.105
2009	0.0829
2018	0.0709
2027	0.0843
2036	0.1547
2045	0.1583
2054	0.1548
2063	0.1622
2072	0.18
2081	0.1876
2090	0.1906
2099	0.1911
2108	0.1905
2117	0.1876
2126	0.1789
2135	0.176
2144	0.1746
2153	0.1735
2162	0.1722
2171	0.1683
2180	0.1612
2189	0.1576
2198	0.1548
2207	0.1501
2216	0.1395
2225	0.1339
2234	0.1277
2243	0.1216
2252	0.116
2261	0.1126
2270	0.1093
2279	0.0998
2288	0.0911
2297	0.0845
2306	0.077
2315	0.069
2324	0.0606
2333	0.0532
2342	0.0469
2351	0.0438
2360	0.0413
2369	0.0384
2378	0.0355
2387	0.0308
2396	0.0258
2405	0.019
2414	0.0136
2423	0.0098
2432	0.0077
2441	0.0072
2450	0.0067
2459	0.0066
2468	0.0066
2477	0.0066
2486	0.0066
2495	0.0066
2504	0.0066
2513	0.0066
2522	0.0067
2531	0.0067
2540	0.0067
2549	0.0068
2558	0.0069
2567	0.007
2576	0.0071
2585	0.0072
2594	0.0073
2603	0.0074
2612	0.0076
2621	0.0079
2630	0.008
2639	0.0082
2648	0.0084
2657	0.0087
2666	0.0089
2675	0.0094
2684	0.0098
2693	0.0103
2702	0.0107
2711	0.0111
2720	0.0116
2729	0.0121
2738	0.0126
2747	0.0131
2756	0.014
2765	0.0155
2774	0.0191
2783	0.0219
2792	0.0248
2801	0.027
2810	0.0286
2819	0.0295
2828	0.0306
2837	0.0322
2846	0.0348
2855	0.0366
2864	0.0381
2873	0.039
2882	0.0399
2891	0.0441
2900	0.0519
2909	0.0533
2918	0.0522
2927	0.0492
2936	0.0452
2945	0.0412
2954	0.0376
2963	0.0347
2972	0.032
2981	0.0295
2990	0.028
2999	0.0275
3008	0.0369
3017	0.0498
3026	0.0625
3035	0.0758
3044	0.0897
3053	0.0988
3062	0.1275
3071	0.144
3080	0.1544
3089	0.1595
3098	0.1635
3107	0.1662
3116	0.1689
3125	0.1715
3134	0.1731
3143	0.1744
3152	0.1755
3161	0.1752
3170	0.1721
3179	0.1665
3188	0.1595
3197	0.1549
3206	0.1544
3215	0.1556
3224	0.1609
3233	0.1677
3242	0.173
3251	0.1737
3260	0.1737
3269	0.1717
3278	0.1691
3287	0.1645
3296	0.1597
3305	0.1553
3314	0.1508
3323	0.1456
3332	0.1405
3341	0.1394
3350	0.1386
3359	0.1378
3368	0.1372
3377	0.1367
3386	0.1363
3395	0.1359
3404	0.1358
3413	0.1357
3422	0.1355
3431	0.1354
3440	0.1354
3449	0.1356
3458	0.1358
3467	0.1359
3476	0.1361
3485	0.1363
3494	0.1366
3503	0.137
3512	0.1375
3521	0.1378
3530	0.1382
3539	0.1385
3548	0.1388
3557	0.1392
3566	0.1395
3575	0.1397
3584	0.1399
3593	0.14
3602	0.14
3611	0.1401
3620	0.14
3629	0.1399
3638	0.1398
3647	0.1397
3656	0.1395
3665	0.1393
3674	0.139
3683	0.1388
3692	0.1386
3701	0.1383
3710	0.138
3719	0.1378
3728	0.1375
3737	0.1371
3746	0.1367
3755	0.1364
3764	0.1361
3773	0.1352
3782	0.1341
3791	0.1323
3800	0.1296
3809	0.1263
3818	0.1228
3827	0.1191
3836	0.1177
3845	0.1166
3854	0.1156
3863	0.1147
3872	0.114
3881	0.1132
3890	0.1126
3899	0.112
3908	0.1113
3917	0.1107
3926	0.1097
3935	0.1088
3944	0.1077
3953	0.1061
3962	0.1041
3971	0.1027
3980	0.1015
3989	0.1003
3998	0.0993
