Infrared Spectrum: HEPTALDEHYDE, 2,4-DINITROPHENYL HYDRAZONE
Formula: C13 H18 N4 O4
CAS: 2074-05-7
State: SOLID (KBr PELLET)
Melting point: 108 C
Class: COBLENTZ
Instrument: Not specified, most likely a grating spectrometer.
Sampling: TRANSMISSION
Resolution: 4
Origin: CITRUS EXPERIMENT STATION, UNIVERSITY OF FLORIDA (G. EDWARDS)
MICROMETERS	TRANSMITTANCE
2.04	0.771
2.07335	0.774
2.1067	0.775
2.14005	0.775
2.1734	0.777
2.20675	0.778
2.2401	0.775
2.27345	0.778
2.3068	0.778
2.34015	0.778
2.3735	0.781
2.40685	0.779
2.4402	0.785
2.47356	0.781
2.50691	0.782
2.54026	0.786
2.57361	0.787
2.60696	0.782
2.64031	0.781
2.67366	0.775
2.70701	0.766
2.74036	0.747
2.77371	0.73
2.80706	0.72
2.84041	0.702
2.87376	0.684
2.90711	0.681
2.94046	0.685
2.97381	0.704
3.00716	0.677
3.04051	0.402
3.07386	0.75
3.10721	0.79
3.14056	0.804
3.17391	0.829
3.20726	0.802
3.24061	0.742
3.27397	0.79
3.30732	0.79
3.34067	0.759
3.37402	0.566
3.40737	0.397
3.44072	0.601
3.47407	0.553
3.50742	0.66
3.54077	0.74
3.57412	0.765
3.60747	0.766
3.64082	0.769
3.67417	0.77
3.70752	0.77
3.74087	0.773
3.77422	0.769
3.80757	0.779
3.84092	0.781
3.87427	0.781
3.90762	0.782
3.94097	0.782
3.97432	0.785
4.00767	0.781
4.04102	0.778
4.07438	0.778
4.10773	0.781
4.14108	0.785
4.17443	0.782
4.20778	0.789
4.24113	0.791
4.27448	0.791
4.30783	0.793
4.34118	0.794
4.37453	0.79
4.40788	0.785
4.44123	0.79
4.47458	0.791
4.50793	0.791
4.54128	0.791
4.57463	0.791
4.60798	0.793
4.64133	0.791
4.67468	0.793
4.70803	0.793
4.74138	0.793
4.77473	0.791
4.80808	0.791
4.84143	0.789
4.87479	0.789
4.90814	0.793
4.94149	0.793
4.97484	0.79
5.00819	0.791
5.04154	0.79
5.07489	0.79
5.10824	0.787
5.14159	0.786
5.17494	0.79
5.20829	0.793
5.24164	0.793
5.27499	0.791
5.30834	0.79
5.34169	0.782
5.37504	0.786
5.40839	0.787
5.44174	0.789
5.47509	0.791
5.50844	0.786
5.54179	0.773
5.57514	0.781
5.60849	0.782
5.64184	0.782
5.67519	0.779
5.70855	0.774
5.7419	0.773
5.77525	0.771
5.8086	0.763
5.84195	0.761
5.8753	0.748
5.90865	0.736
5.942	0.722
5.97535	0.702
6.0087	0.68
6.04205	0.63
6.0754	0.571
6.10875	0.465
6.1421	0.179
6.17545	0.063
6.2088	0.126
6.24215	0.302
6.2755	0.21
6.30885	0.31
6.3422	0.493
6.37555	0.661
6.4089	0.684
6.44225	0.672
6.4756	0.559
6.50896	0.518
6.54231	0.367
6.57566	0.218
6.60901	0.324
6.64236	0.401
6.67571	0.577
6.70906	0.668
6.74241	0.68
6.77576	0.659
6.80911	0.621
6.84246	0.624
6.87581	0.633
6.90916	0.629
6.94251	0.581
6.97586	0.48
7.00921	0.353
7.04256	0.452
7.07591	0.672
7.10926	0.761
7.14261	0.766
7.17596	0.75
7.20931	0.704
7.24266	0.632
7.27601	0.632
7.30937	0.621
7.34272	0.6
7.37607	0.539
7.40942	0.386
7.44277	0.171
7.47612	0.042
7.50947	0.028
7.54282	0.022
7.57617	0.092
7.60952	0.089
7.64287	0.21
7.67622	0.251
7.70957	0.357
7.74292	0.357
7.77627	0.319
7.80962	0.354
7.84297	0.402
7.87632	0.43
7.90967	0.52
7.94302	0.57
7.97637	0.597
8.00972	0.641
8.04307	0.667
8.07642	0.673
8.10977	0.66
8.14313	0.583
8.17648	0.465
8.20983	0.551
8.24318	0.652
8.27653	0.681
8.30988	0.689
8.34323	0.685
8.37658	0.685
8.40993	0.685
8.44328	0.691
8.47663	0.693
8.50998	0.702
8.54333	0.704
8.57668	0.712
8.61003	0.714
8.64338	0.714
8.67673	0.706
8.71008	0.68
8.74343	0.605
8.77678	0.472
8.81013	0.221
8.84348	0.23
8.87683	0.362
8.91018	0.441
8.94354	0.475
8.97689	0.542
9.01024	0.581
9.04359	0.612
9.07694	0.632
9.11029	0.644
9.14364	0.641
9.17699	0.626
9.21034	0.59
9.24369	0.516
9.27704	0.437
9.31039	0.316
9.34374	0.363
9.37709	0.546
9.41044	0.62
9.44379	0.636
9.47714	0.601
9.51049	0.59
9.54384	0.625
9.57719	0.657
9.61054	0.68
9.64389	0.689
9.67724	0.696
9.71059	0.702
9.74395	0.71
9.7773	0.714
9.81065	0.718
9.844	0.722
9.87735	0.726
9.9107	0.723
9.94405	0.727
9.9774	0.727
10.0107	0.726
10.0441	0.723
10.0774	0.723
10.1108	0.719
10.1442	0.718
10.1775	0.719
10.2109	0.719
10.2442	0.719
10.2776	0.71
10.3109	0.679
10.3443	0.714
10.3776	0.714
10.411	0.71
10.4443	0.704
10.4777	0.692
10.511	0.671
10.5444	0.657
10.5777	0.664
10.6111	0.68
10.6444	0.675
10.6778	0.651
10.7111	0.602
10.7445	0.581
10.7778	0.553
10.8112	0.543
10.8445	0.601
10.8779	0.667
10.9112	0.693
10.9446	0.711
10.9779	0.72
11.0113	0.722
11.0446	0.724
11.078	0.726
11.1113	0.724
11.1447	0.724
11.178	0.722
11.2114	0.718
11.2447	0.716
11.2781	0.72
11.3114	0.726
11.3448	0.724
11.3781	0.722
11.4115	0.727
11.4448	0.726
11.4782	0.72
11.5115	0.722
11.5449	0.716
11.5782	0.711
11.6116	0.71
11.6449	0.712
11.6783	0.716
11.7116	0.715
11.745	0.715
11.7783	0.714
11.8117	0.71
11.845	0.702
11.8784	0.689
11.9117	0.676
11.9451	0.671
11.9784	0.638
12.0118	0.542
12.0451	0.523
12.0785	0.475
12.1118	0.373
12.1452	0.55
12.1785	0.667
12.2119	0.702
12.2452	0.71
12.2786	0.711
12.3119	0.715
12.3453	0.715
12.3786	0.715
12.412	0.711
12.4453	0.714
12.4787	0.712
12.512	0.711
12.5454	0.707
12.5787	0.703
12.6121	0.7
12.6454	0.699
12.6788	0.692
12.7121	0.689
12.7455	0.685
12.7788	0.684
12.8122	0.677
12.8455	0.667
12.8789	0.664
12.9122	0.665
12.9456	0.679
12.9789	0.681
13.0123	0.685
13.0456	0.681
13.079	0.669
13.1123	0.63
13.1457	0.612
13.179	0.653
13.2124	0.672
13.2457	0.672
13.2791	0.669
13.3124	0.659
13.3458	0.64
13.3791	0.579
13.4125	0.491
13.4458	0.402
13.4792	0.389
13.5125	0.459
13.5459	0.561
13.5792	0.616
13.6126	0.63
13.6459	0.626
13.6793	0.613
13.7126	0.581
13.746	0.524
13.7793	0.487
13.8127	0.48
13.846	0.52
13.8794	0.553
13.9127	0.563
13.9461	0.563
13.9794	0.566
14.0128	0.578
14.0461	0.6
14.0795	0.62
14.1128	0.625
14.1462	0.626
14.1795	0.625
14.2129	0.625
14.2463	0.624
14.2796	0.62
14.313	0.614
14.3463	0.612
14.3797	0.609
14.413	0.602
14.4464	0.6
14.4797	0.589
14.5131	0.578
14.5464	0.554
14.5798	0.542
14.6131	0.543
14.6465	0.555
14.6798	0.566
14.7132	0.579
14.7465	0.582
14.7799	0.582
14.8132	0.581
14.8466	0.578
14.8799	0.571
14.9133	0.559
14.9466	0.544
14.98	0.538
