Infrared Spectrum: 2-HEPTANONE, (2,4-DINITROPHENYL)HYDRAZONE
Formula: C13 H18 N4 O4
CAS: 2074-03-5
State: SOLUTION (CS2) VS. SOLVENT
Class: COBLENTZ III
Instrument: PERKIN-ELMER 21 (GRATING)
Instrument parameters: NaCl PRISM
Sampling: TRANSMISSION
Path length: 0.10 CM
Resolution: 4
Origin: E. REGION RESEARCH LAB.
1/CM	TRANSMITTANCE
598.537	0.649
607.697	0.622
616.857	0.643
626.017	0.705
635.177	0.745
644.337	0.732
653.497	0.509
662.656	0.742
671.816	0.769
680.976	0.6121
690.136	0.709
699.296	0.771
708.456	0.674
717.616	0.342
726.776	0.239
735.936	0.476
745.096	0.018
754.256	0.692
763.416	0.433
772.575	0.807
781.735	0.853
790.895	0.864
800.055	0.842
809.215	0.823
818.375	0.754
827.535	0.4431
836.695	0.028
845.855	0.732
855.015	0.792
864.175	0.749
873.335	0.808
882.494	0.823
891.654	0.807
900.814	0.752
909.974	0.632
919.134	0.1351
928.294	0.3038
937.454	0.708
946.614	0.75
955.774	0.736
964.934	0.715
974.094	0.69
983.254	0.702
992.414	0.674
1001.57	0.591
1010.73	0.577
1019.89	0.585
1029.05	0.584
1038.21	0.509
1047.37	0.335
1056.53	0.169
1065.69	0.202
1074.85	0.043
1084.01	0.032
1093.17	0.088
1102.33	0.147
1111.49	0.1
1120.65	0.029
1129.81	0.028
1138.97	0.011
1148.13	0.2071
1157.29	0.676
1166.45	0.76
1175.61	0.725
1184.77	0.659
1193.93	0.601
1203.09	0.528
1212.25	0.422
1221.41	0.223
1230.57	0.115
1239.73	0.38
1248.89	0.243
1258.05	0.188
1267.21	0.064
1276.37	0.009
1285.53	0.001
1294.69	0.005
1303.85	0.004
1313.01	0
1322.17	0.004
1331.33	0
1340.49	0
1349.65	0.002
1358.81	0.005
1367.97	0.018
1377.13	0.105
1386.29	0.226
1395.45	0.323
1404.61	0.294
1413.77	0.449
1422.93	0.711
1432.09	0.725
1441.25	0.742
1450.41	0.749
1459.57	0.753
1468.73	0.757
1477.89	0.761
1487.05	0.774
1496.21	0.79
1505.37	0.795
1514.53	0.801
1523.69	0.807
1532.85	0.795
1542.01	0.787
1551.17	0.753
1560.33	0.739
1569.49	0.723
1578.65	0.666
1587.81	0.594
1596.97	0.461
1606.13	0.297
1615.29	0.126
1624.45	0.081
1633.61	0.092
1642.77	0.257
1651.93	0.436
1661.09	0.487
1670.25	0.5611
1679.41	0.692
1688.57	0.75
1697.73	0.797
1706.89	0.814
1716.05	0.832
1725.21	0.846
1734.37	0.825
1743.53	0.825
1752.69	0.84
1761.85	0.873
1771.01	0.891
1780.17	0.892
1789.33	0.881
1798.49	0.847
1807.65	0.887
1816.81	0.895
1825.97	0.849
1835.13	0.811
1844.29	0.86
1853.45	0.883
1862.61	0.902
1871.77	0.915
1880.93	0.926
1890.09	0.926
1899.25	0.93
1908.41	0.93
1917.57	0.926
1926.73	0.919
1935.89	0.902
1945.05	0.856
1954.21	0.873
1963.36	0.905
1972.52	0.905
1981.68	0.907
1990.84	0.907
2000	0.915
2009.16	0.9195
2018.32	0.9225
2027.48	0.926
2036.64	0.9231
2045.8	0.9157
2054.96	0.9086
2064.12	0.9086
2073.28	0.9154
2082.44	0.9363
2091.6	0.9502
2100.76	0.9835
2109.92	1.0066
2119.08	1.009
2128.24	1.0105
2137.4	1.0061
2146.56	1.0003
2155.72	0.9951
2164.88	0.9908
2174.04	0.9862
2183.2	0.9787
2192.36	0.9731
2201.52	0.9667
2210.68	0.9603
2219.84	0.9543
2229	0.9476
2238.16	0.9419
2247.32	0.938
2256.48	0.934
2265.64	0.9305
2274.8	0.928
2283.96	0.9228
2293.12	0.9186
2302.28	0.915
2311.44	0.9111
2320.6	0.9049
2329.76	0.9007
2338.92	0.8958
2348.08	0.8912
2357.24	0.885
2366.4	0.88
2375.56	0.8775
2384.72	0.876
2393.88	0.8731
2403.04	0.8634
2412.2	0.8552
2421.36	0.841
2430.52	0.8351
2439.68	0.836
2448.84	0.8411
2458	0.8466
2467.16	0.8525
2476.32	0.8713
2485.48	0.8915
2494.64	0.9031
2503.8	0.9078
2512.96	0.908
2522.12	0.8959
2531.28	0.8773
2540.44	0.8605
2549.6	0.8539
2558.76	0.8665
2567.92	0.8756
2577.08	0.8846
2586.24	0.8944
2595.4	0.8992
2604.56	0.8701
2613.72	0.8484
2622.88	0.8302
2632.04	0.815
2641.2	0.8063
2650.36	0.7991
2659.52	0.7797
2668.68	0.7779
2677.84	0.8084
2687	0.832
2696.16	0.8468
2705.32	0.8461
2714.48	0.8317
2723.64	0.8207
2732.8	0.8103
2741.96	0.808
2751.12	0.8069
2760.28	0.8035
2769.44	0.7985
2778.6	0.7856
2787.76	0.7475
2796.92	0.6833
2806.08	0.6142
2815.24	0.5804
2824.4	0.5204
2833.56	0.3995
2842.72	0.2517
2851.88	0.1598
2861.04	0.1683
2870.2	0.2224
2879.36	0.2377
2888.52	0.2103
2897.68	0.1492
2906.84	0.0951
2916	0.0686
2925.16	0.0694
2934.32	0.073
2943.48	0.0779
2952.64	0.0872
2961.8	0.2578
2970.96	0.4264
2980.12	0.5268
2989.28	0.6062
2998.44	0.6469
3007.6	0.7026
3016.76	0.7304
3025.92	0.761
3035.08	0.7877
3044.24	0.8045
3053.4	0.7938
3062.56	0.771
3071.72	0.7198
3080.88	0.6175
3090.03	0.4887
3099.19	0.4934
3108.35	0.6315
3117.51	0.749
3126.67	0.8054
3135.83	0.8507
3144.99	0.8671
3154.15	0.8745
3163.31	0.879
3172.47	0.8786
3181.63	0.878
3190.79	0.8845
3199.95	0.891
3209.11	0.8804
3218.27	0.8708
3227.43	0.8599
3236.59	0.8627
3245.75	0.8736
3254.91	0.873
3264.07	0.8559
3273.23	0.8309
3282.39	0.7955
3291.55	0.723
3300.71	0.5301
3309.87	0.3277
3319.03	0.2522
3328.19	0.4116
3337.35	0.628
3346.51	0.7597
3355.67	0.8151
3364.83	0.8572
3373.99	0.8863
3383.15	0.9042
3392.31	0.9143
3401.47	0.9195
3410.63	0.9282
3419.79	0.935
3428.95	0.9382
3438.11	0.94
3447.27	0.942
3456.43	0.943
3465.59	0.9433
3474.75	0.945
3483.91	0.946
3493.07	0.9468
3502.23	0.947
3511.39	0.946
3520.55	0.946
3529.71	0.946
3538.87	0.946
3548.03	0.9458
3557.19	0.9441
3566.35	0.943
3575.51	0.942
3584.67	0.942
3593.83	0.9438
3602.99	0.9456
3612.15	0.947
3621.31	0.95
3630.47	0.9523
3639.63	0.9565
3648.79	0.957
3657.95	0.956
3667.11	0.953
3676.27	0.9495
3685.43	0.947
3694.59	0.9518
3703.75	0.9574
3712.91	0.963
3722.07	0.964
3731.23	0.9613
3740.39	0.959
3749.55	0.957
3758.71	0.956
3767.87	0.9598
3777.03	0.963
3786.19	0.966
3795.35	0.967
3804.51	0.967
3813.67	0.966
3822.83	0.963
3831.99	0.961
3841.15	0.96
3850.31	0.9572
3859.47	0.956
3868.63	0.9537
3877.79	0.953
3886.95	0.953
3896.11	0.9519
3905.27	0.95
3914.43	0.95
3923.59	0.952
3932.75	0.952
3941.91	0.952
3951.07	0.952
3960.23	0.952
3969.39	0.952
3978.55	0.953
3987.71	0.9534
3996.87	0.956
