Infrared Spectrum: 4-Chlorobenzeneseleninic anhydride
Formula: C 12 H 8 Cl 2 O 3 Se 2
CAS: 20753-53-1
State: gas
Origin: EPA-IR VAPOR PHASE LIBRARY
1/CM	ABSORBANCE
549.8	0.00053874
559.445	0.0014006
569.09	0.00056469
578.734	0.0014543
588.379	0.001528
598.024	0.0014804
607.669	0.0013428
617.313	0.0011433
626.958	0.0009173
636.603	0.00059704
646.248	0.0012826
655.893	0.0009385
665.537	0.0008009
675.182	0.0007663
684.827	0.0010894
694.472	0.0013246
704.116	0.0012325
713.761	0.002308
723.406	0.014618
733.051	0.015448
742.695	0.003058
752.34	0.002478
761.985	0.002588
771.63	0.003508
781.275	0.004958
790.919	0.010898
800.564	0.021478
810.209	0.047718
819.854	0.045678
829.498	0.015428
839.143	0.006608
848.788	0.003168
858.433	0.001678
868.078	0.001718
877.722	0.001588
887.367	0.0010748
897.012	0.0010525
906.657	0.0010649
916.301	0.0005702
925.946	0.000959
935.591	0.0013044
945.236	0.0014006
954.88	0.001538
964.525	0.001658
974.17	0.001718
983.815	0.002548
993.46	0.003478
1003.1	0.026888
1012.75	0.098308
1022.39	0.008868
1032.04	0.003208
1041.68	0.002878
1051.33	0.003218
1060.97	0.005138
1070.62	0.009188
1080.26	0.036408
1089.91	0.152918
1099.55	0.060598
1109.2	0.015248
1118.84	0.006128
1128.49	0.003268
1138.13	0.002208
1147.78	0.001548
1157.42	0.001319
1167.07	0.001848
1176.71	0.006018
1186.36	0.001698
1196	0.002168
1205.64	0.002918
1215.29	0.006678
1224.93	0.004298
1234.58	0.002518
1244.22	0.002058
1253.87	0.002298
1263.51	0.001768
1273.16	0.000839
1282.8	0.001608
1292.45	0.002948
1302.09	0.002438
1311.74	0.002128
1321.38	0.001738
1331.03	0.002038
1340.67	0.002318
1350.32	0.002408
1359.96	0.003278
1369.61	0.005698
1379.25	0.010158
1388.9	0.012378
1398.54	0.007468
1408.18	0.005808
1417.83	0.007928
1427.47	0.005878
1437.12	0.004218
1446.76	0.005728
1456.41	0.012338
1466.05	0.057718
1475.7	0.103978
1485.34	0.012758
1494.99	0.004708
1504.63	0.003188
1514.28	0.002528
1523.92	0.002548
1533.57	0.003538
1543.21	0.006398
1552.86	0.008138
1562.5	0.009648
1572.15	0.010888
1581.79	0.010358
1591.44	0.006858
1601.08	0.003448
1610.73	0.003158
1620.37	0.003658
1630.01	0.004948
1639.66	0.003408
1649.3	0.001568
1658.95	0.0011112
1668.59	0.0010152
1678.24	0.0008593
1687.88	0.0008388
1697.53	0.0008595
1707.17	0.0008274
1716.82	0.0008944
1726.46	0.0010153
1736.11	0.0011553
1745.75	0.001588
1755.4	0.001838
1765.04	0.002998
1774.69	0.002308
1784.33	0.0009167
1793.98	0.0009837
1803.62	0.0010326
1813.27	0.001538
1822.91	0.0013926
1832.55	0.0008951
1842.2	0.0008551
1851.84	0.0009868
1861.49	0.001508
1871.13	0.002208
1880.78	0.003308
1890.42	0.004368
1900.07	0.003068
1909.71	0.001538
1919.36	0.0008965
1929	0.0007573
1938.65	0.000736
1948.29	0.0009077
1957.94	0.0007565
1967.58	0.0007182
1977.23	0.0007092
1986.87	0.0006715
1996.52	0.00055829
2006.16	0.0007392
2015.81	0.0006536
2025.45	0.00059655
2035.1	0.00055049
2044.74	0.0006807
2054.38	0.000675
2064.03	0.0006922
2073.67	0.0009323
2083.32	0.0006111
2092.96	0.00057299
2102.61	0.00054856
2112.25	0.0006463
2121.9	0.0007352
2131.54	0.0007636
2141.19	0.0007043
2150.83	0.0004768
2160.48	0.00055669
2170.12	0.00054974
2179.77	0.0005429
2189.41	0.0006207
2199.06	0.0007084
2208.7	0.00056183
2218.35	0.00055619
2227.99	0.0006145
2237.64	0.0005763
2247.28	0.0006967
2256.92	0.0008252
2266.57	0.0010543
2276.21	0.0012474
2285.86	0.0011982
2295.5	0.0010795
2305.15	0.0009746
2314.79	0.0007231
2324.44	0.0006855
2334.08	0.00057112
2343.73	0.0006818
2353.37	0.0007652
2363.02	0.0009116
2372.66	0.0007782
2382.31	0.0007681
2391.95	0.0006983
2401.6	0.0007238
2411.24	0.0005618
2420.89	0.0004753
2430.53	0.0006801
2440.18	0.0006309
2449.82	0.0006645
2459.47	0.0007303
2469.11	0.0007407
2478.75	0.000714
2488.4	0.0008242
2498.04	0.0007836
2507.69	0.0008937
2517.33	0.0008301
2526.98	0.0010149
2536.62	0.000919
2546.27	0.0010067
2555.91	0.0010155
2565.56	0.0011343
2575.2	0.0010965
2584.85	0.0009201
2594.49	0.0007338
2604.14	0.0006765
2613.78	0.0007091
2623.43	0.0007639
2633.07	0.0008976
2642.72	0.0010841
2652.36	0.0010438
2662.01	0.0008917
2671.65	0.0007658
2681.29	0.0007651
2690.94	0.0006506
2700.58	0.0006263
2710.23	0.00054626
2719.87	0.0007095
2729.52	0.0006703
2739.16	0.0006936
2748.81	0.0007418
2758.45	0.0009961
2768.1	0.0007007
2777.74	0.0007989
2787.39	0.0007537
2797.03	0.0009605
2806.68	0.0011226
2816.32	0.0006063
2825.97	0.0007326
2835.61	0.000819
2845.26	0.00054596
2854.9	0.0004613
2864.55	0.0006454
2874.19	0.000369
2883.84	0.000357
2893.48	0.0005406
2903.12	0.0004793
2912.77	0.0004035
2922.41	0.00055823
2932.06	0.000503483
2941.7	0.00057051
2951.35	0.000284
2960.99	0.0006325
2970.64	0.00050889
2980.28	0.0007729
2989.93	0.000783
2999.57	0.0009146
3009.22	0.0014889
3018.86	0.001668
3028.51	0.001648
3038.15	0.001508
3047.8	0.001718
3057.44	0.003178
3067.09	0.004738
3076.73	0.007188
3086.38	0.006978
3096.02	0.002758
3105.67	0.001528
3115.31	0.0011233
3124.95	0.000851
3134.6	0.0005999
3144.24	0.0006059
3153.89	0.0007949
3163.53	0.00058064
3173.18	0.00056341
3182.82	0.000499452
3192.47	0.00048856
3202.11	0.0006857
3211.76	0.000414
3221.4	0.0007189
3231.05	0.000299
3240.69	0.0005141
3250.34	0.0004525
3259.98	0.00056689
3269.63	0.0006145
3279.27	0.000506455
3288.92	0.000501233
3298.56	0.00053367
3308.21	0.0006915
3317.85	0.00058418
3327.49	0.00051886
3337.14	0.000337
3346.78	0.0004186
3356.43	0.00058063
3366.07	0.00054487
3375.72	0.0005966
3385.36	0.0004053
3395.01	0.000263
3404.65	0.000395
3414.3	0.000396
3423.94	0.00032
3433.59	0.0004167
3443.23	0.00056671
3452.88	0.000398
3462.52	0.00024
3472.17	0.0007613
3481.81	0.0004184
3491.46	0.0004741
3501.1	0.0004187
3510.75	0.0005758
3520.39	0.000608
3530.04	0.000368
3539.68	0.00052705
3549.32	0.00053435
3558.97	0.0004336
3568.61	0.0006539
3578.26	0.0006237
3587.9	0.0006007
3597.55	0.0007367
3607.19	0.0006909
3616.84	0.0004576
3626.48	0.00056535
3636.13	0.0005649
3645.77	0.0006214
3655.42	0.000329
3665.06	0.000376
3674.71	0.0006179
3684.35	8.1e-05
3694	0.0008077
3703.64	0.0007226
3713.29	0.000501421
3722.93	0.0007307
3732.58	0.000445
3742.22	0.0006734
3751.86	0.0004305
3761.51	0.00059182
3771.15	0.0006888
3780.8	0.0006031
3790.44	0.0007308
3800.09	0.0007052
3809.73	0.0008905
3819.38	0.0006311
3829.02	0.00058512
3838.67	0.000302
3848.31	0.0006376
3857.96	0.00054876
3867.6	0.00056973
3877.25	0.000245
3886.89	0.0004335
3896.54	0.0007234
3906.18	0.000259
3915.83	0.000383
3925.47	0.000217
3935.12	0.00049289
3944.76	0.0004084
3954.41	0.0004778
3964.05	0.0008557
3973.69	0.00050863
3983.34	0.0007001
3992.98	0.000171
