Infrared Spectrum: 3-Methyl-4-octanone
Formula: C 9 H 18 O
CAS: 20754-04-5
State: gas
Instrument: HP-GC/MS/IRD
Origin: NIST Mass Spectrometry Data Center
1/CM	ABSORBANCE
550	0.0002343
562	7.92e-05
574	0.0001353
586	5.94e-05
598	0.0001353
610	0.0001518
622	0.0001419
634	8.25e-05
646	2.97e-05
658	6.6e-05
670	7.92e-05
682	0.0001023
694	0.0001485
706	0.0001815
718	0.0002508
730	0.0003432
742	0.0005214
754	0.0008778
766	0.001089
778	0.0010164
790	0.0007524
802	0.0005016
814	0.0003498
826	0.0002508
838	0.0002607
850	0.0002409
862	0.000231
874	0.0003102
886	0.0003498
898	0.0004092
910	0.0004257
922	0.000561
934	0.0008085
946	0.0011682
958	0.0015081
970	0.0018612
982	0.0022902
994	0.0024222
1006	0.0030261
1018	0.0035871
1030	0.0041976
1042	0.0047355
1054	0.0035046
1066	0.002442
1078	0.002046
1090	0.0021021
1102	0.0024024
1114	0.0029469
1126	0.002673
1138	0.0019371
1150	0.0017028
1162	0.0022737
1174	0.0024024
1186	0.001782
1198	0.0013563
1210	0.0012573
1222	0.0011352
1234	0.001353
1246	0.0017457
1258	0.002046
1270	0.0018579
1282	0.0017424
1294	0.0019206
1306	0.001947
1318	0.00198
1330	0.0024156
1342	0.0032901
1354	0.0043527
1366	0.0045144
1378	0.0044979
1390	0.004059
1402	0.0025608
1414	0.002343
1426	0.0023298
1438	0.0028974
1450	0.0046827
1462	0.006501
1474	0.0047916
1486	0.0021813
1498	0.0011352
1510	0.0007953
1522	0.0006006
1534	0.0004752
1546	0.000429
1558	0.0004917
1570	0.0003366
1582	0.0003003
1594	0.0002607
1606	0.0003036
1618	0.0003729
1630	0.0004125
1642	0.0005049
1654	0.0007524
1666	0.0009603
1678	0.001617
1690	0.0030756
1702	0.0075042
1714	0.0159885
1726	0.0176649
1738	0.0078969
1750	0.0024387
1762	0.0010593
1774	0.0006237
1786	0.0003762
1798	0.0002838
1810	0.0002046
1822	0.0001716
1834	0.0001419
1846	0.000132
1858	7.59e-05
1870	9.57e-05
1882	4.62e-05
1894	6.27e-05
1906	3.96e-05
1918	4.62e-05
1930	3.3e-05
1942	2.64e-05
1954	2.64e-05
1966	3.3e-05
1978	2.31e-05
1990	2.31e-05
2002	2.64e-05
2014	1.98e-05
2026	2.64e-05
2038	2.64e-05
2050	2.97e-05
2062	3.96e-05
2074	1.98e-05
2086	9.9e-06
2098	3.3e-06
2110	1.98e-05
2122	3.63e-05
2134	3.3e-05
2146	1.98e-05
2158	1.65e-05
2170	9.9e-06
2182	2.31e-05
2194	1.65e-05
2206	3.63e-05
2218	2.97e-05
2230	3.3e-05
2242	3.3e-05
2254	2.97e-05
2266	2.64e-05
2278	2.64e-05
2290	3.63e-05
2302	4.62e-05
2314	6.93e-05
2326	6.93e-05
2338	9.57e-05
2350	7.92e-05
2362	0.0001023
2374	7.26e-05
2386	9.24e-05
2398	8.91e-05
2410	7.26e-05
2422	7.59e-05
2434	6.27e-05
2446	5.28e-05
2458	5.94e-05
2470	3.63e-05
2482	3.63e-05
2494	5.94e-05
2506	6.27e-05
2518	2.97e-05
2530	4.95e-05
2542	7.26e-05
2554	7.92e-05
2566	8.91e-05
2578	9.9e-05
2590	0.0001353
2602	0.0001155
2614	0.0001386
2626	0.0001518
2638	0.0001683
2650	0.0002112
2662	0.0002508
2674	0.0002871
2686	0.0002739
2698	0.0003003
2710	0.0003168
2722	0.0003795
2734	0.0005313
2746	0.0006303
2758	0.0006402
2770	0.00066
2782	0.0007854
2794	0.0009471
2806	0.0012144
2818	0.0015675
2830	0.0020856
2842	0.0029634
2854	0.0048873
2866	0.0088605
2878	0.0134805
2890	0.0150975
2902	0.0134937
2914	0.0148698
2926	0.0197538
2938	0.0248688
2950	0.0248193
2962	0.02838
2974	0.0320727
2986	0.0176715
2998	0.0073227
3010	0.0036399
3022	0.0022836
3034	0.0016896
3046	0.0013794
3058	0.0011781
3070	0.0010626
3082	0.0009504
3094	0.0008481
3106	0.0007227
3118	0.0006303
3130	0.0005808
3142	0.0005478
3154	0.0004917
3166	0.0004752
3178	0.0004224
3190	0.0003663
3202	0.0003168
3214	0.0002211
3226	0.0001782
3238	0.0001287
3250	0.0001056
3262	9.24e-05
3274	9.9e-05
3286	8.91e-05
3298	0.0001056
3310	9.24e-05
3322	5.94e-05
3334	5.61e-05
3346	6.93e-05
3358	8.25e-05
3370	0.0001122
3382	0.0001848
3394	0.0002013
3406	0.0002706
3418	0.0003762
3430	0.0003696
3442	0.0002508
3454	0.0001584
3466	0.0001056
3478	9.9e-05
3490	6.93e-05
3502	9.24e-05
3514	6.6e-05
3526	1.32e-05
3538	2.97e-05
3550	5.94e-05
3562	7.26e-05
3574	4.95e-05
3586	6.93e-05
3598	4.62e-05
3610	8.58e-05
3622	6.93e-05
3634	9.57e-05
3646	0.0001188
3658	9.57e-05
3670	0.0001584
3682	8.91e-05
3694	5.94e-05
3706	7.59e-05
3718	0.0001089
3730	0.0001254
3742	0.0001947
3754	0.000198
3766	8.58e-05
3778	5.94e-05
3790	7.92e-05
3802	0.0001188
3814	0.0001584
3826	9.9e-05
3838	0.0001485
