Infrared Spectrum: ACETAMIDE, N,N'-(p-CYCLOHEXYLENE)BIS-, TRANS-
Formula: C10 H18 N2 O2
CAS: 2077-92-1
State: SOLID (1 mg / 650 mg KBr DISC)
Class: COBLENTZ III
Instrument: PERKIN-ELMER 221 (GRATING)
Instrument parameters: FILTER CHANGES AT 2490, 980 CM^-^1, GRATING FOR 4000-1428 CM^-^1, NaCl PRISM FOR 1428-650 CM^-^1
Sampling: TRANSMISSION
Resolution: 4
Origin: SOUTHERN RESEARCH INST.
1/CM	TRANSMITTANCE
603.2	0.892
612.677	0.8948
622.154	0.9008
631.63	0.902
641.107	0.8758
650.584	0.8527
660.061	0.908
669.538	0.9001
679.014	0.8896
688.491	0.8692
697.968	0.8347
707.445	0.7918
716.921	0.7413
726.398	0.6841
735.875	0.6401
745.352	0.6705
754.829	0.7269
764.305	0.8239
773.782	0.8616
783.259	0.8971
792.736	0.9065
802.213	0.9164
811.689	0.9223
821.166	0.9252
830.643	0.926
840.12	0.926
849.597	0.925
859.073	0.923
868.55	0.9152
878.027	0.8599
887.504	0.8969
896.98	0.8529
906.457	0.7781
915.934	0.8789
925.411	0.8969
934.888	0.8857
944.364	0.8617
953.841	0.819
963.318	0.7606
972.795	0.732
982.272	0.7289
991.748	0.7994
1001.23	0.867
1010.7	0.8303
1020.18	0.8539
1029.66	0.8649
1039.13	0.798
1048.61	0.7687
1058.09	0.8412
1067.56	0.852
1077.04	0.8383
1086.52	0.8116
1095.99	0.797
1105.47	0.7335
1114.95	0.5257
1124.42	0.5382
1133.9	0.7198
1143.38	0.8434
1152.85	0.864
1162.33	0.8661
1171.81	0.8583
1181.28	0.8441
1190.76	0.8241
1200.24	0.7954
1209.71	0.7472
1219.19	0.769
1228.67	0.6746
1238.14	0.656
1247.62	0.7985
1257.1	0.7626
1266.58	0.7268
1276.05	0.6746
1285.53	0.6005
1295.01	0.5656
1304.48	0.5271
1313.96	0.5673
1323.44	0.6829
1332.91	0.7029
1342.39	0.6381
1351.87	0.4795
1361.34	0.4932
1370.82	0.5236
1380.3	0.6247
1389.77	0.67
1399.25	0.6579
1408.73	0.5866
1418.2	0.5769
1427.68	0.5375
1437.16	0.516
1446.63	0.5277
1456.11	0.5748
1465.59	0.6149
1475.06	0.6276
1484.54	0.6312
1494.02	0.6045
1503.49	0.5729
1512.97	0.5378
1522.45	0.4842
1531.93	0.3988
1541.4	0.3369
1550.88	0.295
1560.36	0.3366
1569.83	0.4251
1579.31	0.5062
1588.79	0.545
1598.26	0.5353
1607.74	0.4934
1617.22	0.4665
1626.69	0.3261
1636.17	0.2206
1645.65	0.2633
1655.12	0.3219
1664.6	0.3745
1674.08	0.434
1683.55	0.4839
1693.03	0.537
1702.51	0.5712
1711.98	0.6109
1721.46	0.6376
1730.94	0.6873
1740.41	0.7213
1749.89	0.7461
1759.37	0.7738
1768.85	0.7931
1778.32	0.8094
1787.8	0.8251
1797.28	0.8373
1806.75	0.842
1816.23	0.8534
1825.71	0.8661
1835.18	0.882
1844.66	0.8918
1854.14	0.896
1863.61	0.899
1873.09	0.9087
1882.57	0.911
1892.04	0.913
1901.52	0.915
1911	0.9184
1920.47	0.9223
1929.95	0.9252
1939.43	0.926
1948.9	0.926
1958.38	0.926
1967.86	0.9358
1977.33	0.9398
1986.81	0.942
1996.29	0.944
2005.76	0.945
2015.24	0.946
2024.72	0.947
2034.2	0.947
2043.67	0.948
2053.15	0.948
2062.63	0.948
2072.1	0.948
2081.58	0.949
2091.06	0.949
2100.53	0.949
2110.01	0.9484
2119.49	0.947
2128.96	0.945
2138.44	0.9466
2147.92	0.948
2157.39	0.948
2166.87	0.948
2176.35	0.948
2185.82	0.948
2195.3	0.948
2204.78	0.948
2214.25	0.948
2223.73	0.948
2233.21	0.948
2242.68	0.948
2252.16	0.948
2261.64	0.948
2271.11	0.949
2280.59	0.95
2290.07	0.9454
2299.55	0.9344
2309.02	0.932
2318.5	0.9314
2327.98	0.9304
2337.45	0.93
2346.93	0.93
2356.41	0.93
2365.88	0.93
2375.36	0.93
2384.84	0.93
2394.31	0.93
2403.79	0.931
2413.27	0.932
2422.74	0.933
2432.22	0.933
2441.7	0.931
2451.17	0.93
2460.65	0.929
2470.13	0.93
2479.6	0.93
2489.08	0.9274
2498.56	0.924
2508.03	0.923
2517.51	0.923
2526.99	0.923
2536.46	0.923
2545.94	0.9224
2555.42	0.9174
2564.9	0.9144
2574.37	0.91
2583.85	0.908
2593.33	0.906
2602.8	0.9086
2612.28	0.915
2621.76	0.914
2631.23	0.91
2640.71	0.908
2650.19	0.907
2659.66	0.908
2669.14	0.905
2678.62	0.906
2688.09	0.906
2697.57	0.906
2707.05	0.904
2716.52	0.902
2726	0.901
2735.48	0.898
2744.95	0.896
2754.43	0.8934
2763.91	0.8894
2773.38	0.882
2782.86	0.8602
2792.34	0.8257
2801.82	0.821
2811.29	0.8174
2820.77	0.8117
2830.25	0.7958
2839.72	0.7681
2849.2	0.6951
2858.68	0.566
2868.15	0.7114
2877.63	0.7416
2887.11	0.763
2896.58	0.7196
2906.06	0.6648
2915.54	0.6119
2925.01	0.5174
2934.49	0.4326
2943.97	0.4958
2953.44	0.6324
2962.92	0.7491
2972.4	0.7836
2981.87	0.7821
2991.35	0.7716
3000.83	0.7966
3010.3	0.8136
3019.78	0.8186
3029.26	0.818
3038.73	0.813
3048.21	0.7908
3057.69	0.7594
3067.17	0.7151
3076.64	0.6695
3086.12	0.6317
3095.6	0.6684
3105.07	0.6951
3114.55	0.7246
3124.03	0.7699
3133.5	0.7776
3142.98	0.7806
3152.46	0.7681
3161.93	0.7547
3171.41	0.7454
3180.89	0.7171
3190.36	0.6835
3199.84	0.6564
3209.32	0.6407
3218.79	0.6304
3228.27	0.6197
3237.75	0.5948
3247.22	0.5465
3256.7	0.4946
3266.18	0.4152
3275.65	0.3625
3285.13	0.2968
3294.61	0.2955
3304.08	0.3611
3313.56	0.4142
3323.04	0.4608
3332.52	0.5042
3341.99	0.5392
3351.47	0.5805
3360.95	0.6162
3370.42	0.6365
3379.9	0.6586
3389.38	0.6709
3398.85	0.6846
3408.33	0.6924
3417.81	0.7066
3427.28	0.714
3436.76	0.7216
3446.24	0.726
3455.71	0.728
3465.19	0.7383
3474.67	0.745
3484.14	0.747
3493.62	0.7526
3503.1	0.7663
3512.57	0.7756
3522.05	0.778
3531.53	0.7806
3541	0.7876
3550.48	0.7963
3559.96	0.8016
3569.44	0.8063
3578.91	0.811
3588.39	0.8156
3597.87	0.8297
3607.34	0.8334
3616.82	0.8386
3626.3	0.8506
3635.77	0.85
3645.25	0.838
3654.73	0.8559
3664.2	0.8471
3673.68	0.8399
3683.16	0.86
3692.63	0.864
3702.11	0.8504
3711.59	0.8549
3721.06	0.864
3730.54	0.8604
3740.02	0.8447
3749.49	0.8463
3758.97	0.8636
3768.45	0.8676
3777.92	0.871
3787.4	0.8667
3796.88	0.862
3806.35	0.859
3815.83	0.857
3825.31	0.8554
3834.79	0.8534
3844.26	0.853
3853.74	0.853
3863.22	0.855
3872.69	0.857
3882.17	0.859
3891.65	0.86
3901.12	0.861
3910.6	0.8626
3920.08	0.864
3929.55	0.864
3939.03	0.865
3948.51	0.866
3957.98	0.867
3967.46	0.868
3976.94	0.868
3986.41	0.868
3995.89	0.8686
