Infrared Spectrum: 2,6-Dimethoxybenzylamine
Formula: C 9 H 13 N O 2
CAS: 20781-22-0
State: gas
Origin: EPA-IR VAPOR PHASE LIBRARY
1/CM	ABSORBANCE
549.8	0.007762
559.445	0.009372
569.09	0.012112
578.734	0.012302
588.379	0.011052
598.024	0.009522
607.669	0.008132
617.313	0.009092
626.958	0.008442
636.603	0.009522
646.248	0.010472
655.893	0.011482
665.537	0.013762
675.182	0.017572
684.827	0.020232
694.472	0.019412
704.116	0.021762
713.761	0.038242
723.406	0.062102
733.051	0.047792
742.695	0.028132
752.34	0.023552
761.985	0.030852
771.63	0.045682
781.275	0.062022
790.919	0.060102
800.564	0.045132
810.209	0.034592
819.854	0.031122
829.498	0.030302
839.143	0.035952
848.788	0.048002
858.433	0.056312
868.078	0.051762
877.722	0.035902
887.367	0.025022
897.012	0.017782
906.657	0.014222
916.301	0.012372
925.946	0.011272
935.591	0.011012
945.236	0.009502
954.88	0.010622
964.525	0.011992
974.17	0.013972
983.815	0.016352
993.46	0.019032
1003.1	0.023292
1012.75	0.027062
1022.39	0.029532
1032.04	0.030592
1041.68	0.031702
1051.33	0.041062
1060.97	0.050702
1070.62	0.072892
1080.26	0.115602
1089.91	0.155622
1099.55	0.163232
1109.2	0.130692
1118.84	0.093932
1128.49	0.082092
1138.13	0.102222
1147.78	0.155502
1157.42	0.156462
1167.07	0.114332
1176.71	0.101372
1186.36	0.082372
1196	0.058872
1205.64	0.042352
1215.29	0.038832
1224.93	0.049582
1234.58	0.087982
1244.22	0.155662
1253.87	0.182072
1263.51	0.121592
1273.16	0.069782
1282.8	0.042832
1292.45	0.027522
1302.09	0.028532
1311.74	0.031752
1321.38	0.028132
1331.03	0.024472
1340.67	0.023612
1350.32	0.023502
1359.96	0.021952
1369.61	0.019672
1379.25	0.019062
1388.9	0.019562
1398.54	0.018652
1408.18	0.019092
1417.83	0.025562
1427.47	0.046492
1437.12	0.080942
1446.76	0.079632
1456.41	0.086282
1466.05	0.189042
1475.7	0.212882
1485.34	0.080742
1494.99	0.028702
1504.63	0.018462
1514.28	0.016012
1523.92	0.015042
1533.57	0.017162
1543.21	0.021612
1552.86	0.029332
1562.5	0.045922
1572.15	0.078492
1581.79	0.136722
1591.44	0.185582
1601.08	0.115602
1610.73	0.047542
1620.37	0.029392
1630.01	0.022102
1639.66	0.016572
1649.3	0.012562
1658.95	0.010992
1668.59	0.009062
1678.24	0.007972
1687.88	0.006592
1697.53	0.005782
1707.17	0.005252
1716.82	0.004492
1726.46	0.003762
1736.11	0.003952
1745.75	0.003572
1755.4	0.003352
1765.04	0.003942
1774.69	0.004582
1784.33	0.005132
1793.98	0.005172
1803.62	0.005082
1813.27	0.004412
1822.91	0.004362
1832.55	0.004112
1842.2	0.004042
1851.84	0.003892
1861.49	0.003772
1871.13	0.004392
1880.78	0.005862
1890.42	0.006712
1900.07	0.005382
1909.71	0.004402
1919.36	0.004082
1929	0.004322
1938.65	0.004602
1948.29	0.004752
1957.94	0.004542
1967.58	0.004242
1977.23	0.003832
1986.87	0.003272
1996.52	0.002932
2006.16	0.002842
2015.81	0.002742
2025.45	0.002782
2035.1	0.003142
2044.74	0.002672
2054.38	0.002472
2064.03	0.002802
2073.67	0.002672
2083.32	0.003062
2092.96	0.003722
2102.61	0.004192
2112.25	0.005172
2121.9	0.005382
2131.54	0.005662
2141.19	0.005572
2150.83	0.005232
2160.48	0.004842
2170.12	0.004282
2179.77	0.004142
2189.41	0.004362
2199.06	0.004122
2208.7	0.003532
2218.35	0.002852
2227.99	0.002742
2237.64	0.002742
2247.28	0.002572
2256.92	0.002642
2266.57	0.002922
2276.21	0.002362
2285.86	0.002802
2295.5	0.002482
2305.15	0.002252
2314.79	0.002342
2324.44	0.002212
2334.08	0.002222
2343.73	0.002382
2353.37	0.002442
2363.02	0.002242
2372.66	0.002562
2382.31	0.002282
2391.95	0.002892
2401.6	0.002282
2411.24	0.002442
2420.89	0.002442
2430.53	0.002492
2440.18	0.002392
2449.82	0.002292
2459.47	0.002272
2469.11	0.002022
2478.75	0.002322
2488.4	0.002602
2498.04	0.003112
2507.69	0.003852
2517.33	0.004392
2526.98	0.004362
2536.62	0.003682
2546.27	0.002912
2555.91	0.002872
2565.56	0.002342
2575.2	0.002802
2584.85	0.002692
2594.49	0.002882
2604.14	0.003072
2613.78	0.002992
2623.43	0.002992
2633.07	0.003232
2642.72	0.003182
2652.36	0.002772
2662.01	0.002982
2671.65	0.002862
2681.29	0.002692
2690.94	0.002362
2700.58	0.002782
2710.23	0.002842
2719.87	0.003172
2729.52	0.003512
2739.16	0.004022
2748.81	0.004402
2758.45	0.004662
2768.1	0.005592
2777.74	0.005662
2787.39	0.006122
2797.03	0.007772
2806.68	0.010282
2816.32	0.013972
2825.97	0.021472
2835.61	0.044162
2845.26	0.060892
2854.9	0.044372
2864.55	0.031152
2874.19	0.032152
2883.84	0.035142
2893.48	0.038832
2903.12	0.043122
2912.77	0.047422
2922.41	0.050392
2932.06	0.060392
2941.7	0.089482
2951.35	0.100612
2960.99	0.082032
2970.64	0.058312
2980.28	0.045312
2989.93	0.046962
2999.57	0.062482
3009.22	0.054922
3018.86	0.030702
3028.51	0.021072
3038.15	0.017552
3047.8	0.015652
3057.44	0.015522
3067.09	0.018532
3076.73	0.023672
3086.38	0.026222
3096.02	0.020742
3105.67	0.011402
3115.31	0.006282
3124.95	0.004452
3134.6	0.003932
3144.24	0.003552
3153.89	0.003212
3163.53	0.003062
3173.18	0.003202
3182.82	0.003312
3192.47	0.002572
3202.11	0.002002
3211.76	0.001692
3221.4	0.002062
3231.05	0.001722
3240.69	0.001812
3250.34	0.001992
3259.98	0.0015117
3269.63	0.002012
3279.27	0.0014844
3288.92	0.0014447
3298.56	0.0014989
3308.21	0.001752
3317.85	0.0013334
3327.49	0.002282
3337.14	0.003892
3346.78	0.002802
3356.43	0.002702
3366.07	0.001992
3375.72	0.002462
3385.36	0.0013868
3395.01	0.002522
3404.65	0.002132
3414.3	0.003082
3423.94	0.002322
3433.59	0.002492
3443.23	0.001852
3452.88	0.001942
3462.52	0.0009726
3472.17	0.0015978
3481.81	0.0014319
3491.46	0.0014188
3501.1	0.0009815
3510.75	0.0013567
3520.39	0.0008615
3530.04	0.0016051
3539.68	0.0013364
3549.32	0.0010078
3558.97	0.0016219
3568.61	0.0008804
3578.26	0.0008527
3587.9	0.0015434
3597.55	0.0011971
3607.19	0.0009808
3616.84	0.0006193
3626.48	0.0010434
3636.13	0.0013449
3645.77	0.0007524
3655.42	0.0009277
3665.06	0.0009886
3674.71	0.0014284
3684.35	0.0016265
3694	0.0005838
3703.64	0.001702
3713.29	0.0010684
3722.93	0.001802
3732.58	0.00069352
3742.22	0.001007
3751.86	0.0012302
3761.51	0.0015516
3771.15	0.0011673
3780.8	0.0007858
3790.44	0.0016177
3800.09	0.001456
3809.73	0.001702
3819.38	0.00071552
3829.02	0.0009756
3838.67	0.0009957
3848.31	0.0012769
3857.96	0.001792
3867.6	0.001822
3877.25	0.001912
3886.89	0.002112
3896.54	0.001902
3906.18	0.0015272
3915.83	0.0014544
3925.47	0.0015995
3935.12	0.0008941
3944.76	0.0014407
3954.41	0.001662
3964.05	0.0010431
3973.69	0.002482
3983.34	0.001682
3992.98	0.001882
