Infrared Spectrum: N-Tritylformamide
Formula: C 20 H 17 N O
CAS: 20799-66-0
State: gas
Origin: EPA-IR VAPOR PHASE LIBRARY
1/CM	ABSORBANCE
551.7	0.0030441
563.274	0.0026041
574.848	0.0024141
586.421	0.0020841
597.995	0.0019541
609.569	0.0021741
621.143	0.0030641
632.717	0.0056041
644.291	0.0042641
655.864	0.0037041
667.438	0.0053741
679.012	0.0059441
690.586	0.0122041
702.16	0.0223441
713.734	0.0099441
725.307	0.0100641
736.881	0.0076241
748.455	0.0098841
760.029	0.0077441
771.603	0.0029941
783.177	0.0020741
794.75	0.0015241
806.324	0.0010105
817.898	0.0005808
829.472	0.0006862
841.046	0.0007064
852.619	0.0006936
864.193	0.0008354
875.767	0.0009828
887.341	0.0015141
898.915	0.0023041
910.489	0.0013341
922.062	0.0011441
933.636	0.0011841
945.21	0.0008883
956.784	0.0008337
968.358	0.0009995
979.932	0.0010541
991.505	0.0013041
1003.08	0.0021041
1014.65	0.0017141
1026.23	0.0031741
1037.8	0.0036941
1049.37	0.0020341
1060.95	0.0019341
1072.52	0.0016041
1084.1	0.0014841
1095.67	0.0015241
1107.24	0.0012441
1118.82	0.0011841
1130.39	0.0018641
1141.97	0.0019441
1153.54	0.0034341
1165.11	0.0052641
1176.69	0.0067341
1188.26	0.0088441
1199.83	0.0084641
1211.41	0.0078541
1222.98	0.0072341
1234.56	0.0093941
1246.13	0.0124241
1257.7	0.0115441
1269.28	0.0064841
1280.85	0.0039441
1292.42	0.0023841
1304	0.0018741
1315.57	0.0018941
1327.15	0.0018441
1338.72	0.0018441
1350.29	0.0026841
1361.87	0.0034541
1373.44	0.0018841
1385.02	0.0013841
1396.59	0.0014141
1408.16	0.0018141
1419.74	0.0032141
1431.31	0.0051641
1442.88	0.0084641
1454.46	0.0077941
1466.03	0.0093741
1477.61	0.0117141
1489.18	0.0102741
1500.75	0.0068341
1512.33	0.0024241
1523.9	0.0012341
1535.48	0.0010941
1547.05	0.0009813
1558.62	0.0008895
1570.2	0.0011641
1581.77	0.0019241
1593.34	0.0035041
1604.92	0.0028741
1616.49	0.0015041
1628.07	0.0013341
1639.64	0.0014241
1651.21	0.0016641
1662.79	0.0021441
1674.36	0.0034141
1685.93	0.0050241
1697.51	0.0110341
1709.08	0.0493841
1720.66	0.0677041
1732.23	0.0235041
1743.8	0.0104541
1755.38	0.0042041
1766.95	0.0025641
1778.53	0.0019041
1790.1	0.0017541
1801.67	0.0020241
1813.25	0.0016141
1824.82	0.0010169
1836.39	0.0006828
1847.97	0.0006186
1859.54	0.0007163
1871.12	0.000898
1882.69	0.0009135
1894.26	0.0008284
1905.84	0.0007763
1917.41	0.0006081
1928.99	0.0005833
1940.56	0.0010941
1952.13	0.0013241
1963.71	0.0010067
1975.28	0.0004216
1986.85	0.0002821
1998.43	0.0002076
2010	0.00012575
2021.58	0.0002067
2033.15	0.0001693
2044.72	0.0002415
2056.3	0.0002149
2067.87	0.0001378
2079.44	0.0001704
2091.02	0.000141
2102.59	0.00012326
2114.17	0.0001482
2125.74	0.00011426
2137.31	0.0001455
2148.89	0.00011883
2160.46	0.000156
2172.04	0.0001373
2183.61	0.0001705
2195.18	9.193e-05
2206.76	0.0001586
2218.33	0.00012939
2229.9	0.0001567
2241.48	0.0001513
2253.05	9.974e-05
2264.63	0.00011645
2276.2	0.00010387
2287.77	0.00011562
2299.35	0.00012591
2310.92	0.0001487
2322.5	0.0002716
2334.07	0.0001813
2345.64	0.0002897
2357.22	0.0002614
2368.79	0.000228
2380.36	0.0002089
2391.94	0.0001953
2403.51	0.0001812
2415.09	0.00013142
2426.66	0.0001767
2438.23	0.0001386
2449.81	0.0002324
2461.38	0.0002382
2472.96	0.0001742
2484.53	0.000225
2496.1	0.0001698
2507.68	0.0001432
2519.25	0.0001976
2530.82	0.0001808
2542.4	0.0001368
2553.97	0.0001379
2565.55	0.0001876
2577.12	0.0001723
2588.69	0.0001433
2600.27	0.00011272
2611.84	0.00012961
2623.41	0.00012943
2634.99	0.0001629
2646.56	0.000183
2658.14	0.0001733
2669.71	0.0001791
2681.28	0.0002228
2692.86	0.0002747
2704.43	0.0003262
2716.01	0.0004057
2727.58	0.000526
2739.15	0.0015541
2750.73	0.0021741
2762.3	0.0009303
2773.87	0.0007433
2785.45	0.0006287
2797.02	0.0004738
2808.6	0.0006036
2820.17	0.0012241
2831.74	0.0037341
2843.32	0.0026041
2854.89	0.0013441
2866.47	0.0014341
2878.04	0.0023941
2889.61	0.0030741
2901.19	0.0015541
2912.76	0.0008226
2924.33	0.0005548
2935.91	0.000477
2947.48	0.000421
2959.06	0.0003997
2970.63	0.0003943
2982.2	0.0005205
2993.78	0.0006632
3005.35	0.0011441
3016.92	0.0024541
3028.5	0.0052841
3040.07	0.0062941
3051.65	0.0053641
3063.22	0.0112441
3074.79	0.0132241
3086.37	0.0066941
3097.94	0.0048141
3109.52	0.0023641
3121.09	0.0012841
3132.66	0.0007249
3144.24	0.000571
3155.81	0.0005038
3167.38	0.0004241
3178.96	0.0002464
3190.53	0.0001886
3202.11	0.0001812
3213.68	0.0001557
3225.25	0.00010436
3236.83	0.0001686
3248.4	1.51e-05
3259.98	0.0001839
3271.55	9.797e-05
3283.12	0.0001824
3294.7	0.000148
3306.27	0.0001959
3317.84	5.54e-05
3329.42	0.0001579
3340.99	0.00012884
3352.57	0.0001696
3364.14	0.0002053
3375.71	0.0002806
3387.29	0.0004171
3398.86	0.0008579
3410.43	0.0020141
3422.01	0.0028541
3433.58	0.0020441
3445.16	0.0020641
3456.73	0.0010641
3468.3	0.0004556
3479.88	0.0002231
3491.45	0.0002684
3503.03	0.0002079
3514.6	0.0001509
3526.17	7.164e-05
3537.75	0.00010084
3549.32	6.82e-05
3560.89	0.0001836
3572.47	0.0002116
3584.04	8.887e-05
3595.62	0.00012427
3607.19	0.00011748
3618.76	0.0001479
3630.34	9.166e-05
3641.91	0.0001579
3653.49	9.304e-05
3665.06	0.000269
3676.63	0.0001973
3688.21	0.00011298
3699.78	0.0002869
3711.35	0.0001591
3722.93	0.0001417
3734.5	0.0002015
3746.08	0.0002148
3757.65	0.0002152
3769.22	9.272e-05
3780.8	0.0001665
3792.37	0.0001431
3803.94	0.00011512
3815.52	3.3319e-05
3827.09	0.0001656
3838.67	0.0001589
3850.24	0.0001632
3861.81	3.8663e-05
3873.39	7.829e-05
3884.96	0.00010314
3896.54	0.000239
3908.11	0.00012087
3919.68	0.0001749
3931.26	6.844e-05
3942.83	0.0001567
3954.4	0.00010136
3965.98	0.000211
3977.55	0.0002615
3989.13	0.0002402
4000.7	0.0001887
