Infrared Spectrum: Acenaphthylene
Formula: C 12 H 8
CAS: 208-96-8
State: gas
Instrument: HP-GC/MS/IRD
Origin: NIST Mass Spectrometry Data Center
1/CM	ABSORBANCE
550	0.0008721
562	0.0002907
574	0.000152
586	0.0001235
598	0.0002394
610	1.14e-05
622	4.94e-05
634	0.0001691
646	0.0002261
658	0.0002394
670	0.0002831
682	0.0003762
694	0.0005187
706	0.003572
718	0.0111036
730	0.0089395
742	0.0030818
754	0.0049875
766	0.0143735
778	0.0092929
790	0.0027436
802	0.0012901
814	0.0042085
826	0.0110276
838	0.0067089
850	0.0022952
862	0.0018563
874	0.0008702
886	0.0004028
898	0.0006935
910	0.0010184
922	0.0005339
934	0.0004275
946	0.0004693
958	0.0005643
970	0.0004636
982	0.0003268
994	0.000456
1006	0.0006935
1018	0.0009405
1030	0.0008436
1042	0.0004408
1054	0.0002451
1066	0.0009082
1078	0.0028329
1090	0.0024092
1102	0.0008987
1114	0.0006346
1126	0.0004655
1138	0.0010146
1150	0.0014117
1162	0.0006688
1174	0.0009481
1186	0.0009595
1198	0.0012065
1210	0.0011077
1222	0.0010583
1234	0.0004503
1246	0.0001045
1258	6.27e-05
1270	3.42e-05
1282	4.18e-05
1294	2.66e-05
1306	0.0001311
1318	0.0002223
1330	0.0002166
1342	0.000285
1354	0.0005035
1366	0.0006612
1378	0.0014725
1390	0.0018183
1402	0.0016435
1414	0.0060268
1426	0.0074328
1438	0.0029526
1450	0.0032338
1462	0.003705
1474	0.003458
1486	0.0043377
1498	0.0036803
1510	0.0013832
1522	0.0004864
1534	0.0003021
1546	0.0003496
1558	0.0003743
1570	0.0003325
1582	0.0003496
1594	0.0005016
1606	0.001216
1618	0.0019475
1630	0.0015884
1642	0.0008493
1654	0.0006517
1666	0.0006327
1678	0.0004408
1690	0.0002869
1702	0.0003268
1714	0.000418
1726	0.000551
1738	0.0006859
1750	0.0003857
1762	0.0002128
1774	0.000247
1786	0.0006517
1798	0.0014231
1810	0.0013775
1822	0.000741
1834	0.0002831
1846	0.0004161
1858	0.0008322
1870	0.0007581
1882	0.000304
1894	0.0002109
1906	0.0006745
1918	0.001254
1930	0.0008531
1942	0.0002242
1954	0.0001235
1966	8.74e-05
1978	8.93e-05
1990	8.55e-05
2002	8.93e-05
2014	6.08e-05
2026	7.79e-05
2038	0.0001007
2050	9.5e-05
2062	0.0001197
2074	0.0001007
2086	8.74e-05
2098	9.31e-05
2110	9.5e-05
2122	6.46e-05
2134	7.98e-05
2146	0.0001102
2158	0.000247
2170	0.000247
2182	0.0001045
2194	0.0001349
2206	0.000152
2218	0.0001292
2230	0.0001767
2242	0.0001349
2254	0.0001045
2266	0.0001007
2278	0.0001368
2290	0.0001121
2302	7.6e-05
2314	7.03e-05
2326	0.0001387
2338	0.0001064
2350	0.0001026
2362	0.0001254
2374	0.000114
2386	0.0001273
2398	0.0001102
2410	8.93e-05
2422	0.0001102
2434	0.0001311
2446	0.0001368
2458	9.31e-05
2470	6.46e-05
2482	8.36e-05
2494	7.98e-05
2506	6.65e-05
2518	3.61e-05
2530	6.46e-05
2542	8.74e-05
2554	8.74e-05
2566	9.69e-05
2578	6.84e-05
2590	3.23e-05
2602	3.8e-05
2614	3.42e-05
2626	6.46e-05
2638	5.7e-05
2650	3.99e-05
2662	2.09e-05
2674	4.75e-05
2686	3.61e-05
2698	2.09e-05
2710	3.61e-05
2722	2.66e-05
2734	3.8e-05
2746	5.51e-05
2758	6.27e-05
2770	6.84e-05
2782	8.93e-05
2794	5.51e-05
2806	9.5e-05
2818	9.5e-05
2830	0.0001368
2842	0.0001273
2854	0.0001083
2866	0.0001083
2878	0.000152
2890	0.0001957
2902	0.0002489
2914	0.000247
2926	0.0001406
2938	0.0002128
2950	0.0002926
2962	0.0004503
2974	0.0007201
2986	0.0007828
2998	0.0009747
3010	0.0012369
3022	0.0024871
3034	0.0056107
3046	0.009481
3058	0.0144134
3070	0.0138947
3082	0.0070167
3094	0.0048887
3106	0.0045239
3118	0.0021432
3130	0.0005054
3142	0.0002052
3154	8.93e-05
3166	0.0001273
3178	0.0001539
3190	0.0001083
3202	0.0001444
3214	0.000133
3226	0.0001501
3238	6.84e-05
3250	6.46e-05
3262	7.22e-05
3274	8.74e-05
3286	7.98e-05
3298	0
3310	6.27e-05
3322	9.5e-05
3334	5.89e-05
3346	4.75e-05
3358	6.46e-05
3370	6.65e-05
3382	3.61e-05
3394	5.32e-05
3406	7.22e-05
3418	2.47e-05
3430	9.69e-05
3442	2.28e-05
3454	7.6e-06
3466	3.42e-05
3478	3.99e-05
3490	3.99e-05
3502	1.9e-05
3514	5.32e-05
3526	4.37e-05
3538	6.08e-05
3550	8.55e-05
3562	0.0001083
3574	0.0001311
3586	5.7e-05
3598	0.0001083
3610	9.88e-05
3622	3.23e-05
3634	8.93e-05
3646	0.000114
3658	8.17e-05
3670	7.6e-05
3682	9.12e-05
3694	8.93e-05
3706	8.74e-05
3718	0.0001083
3730	0.0001178
3742	0.0001482
3754	0.0001235
3766	0.0001672
3778	9.31e-05
3790	6.84e-05
3802	0.0001235
3814	0.0001064
3826	0.0001919
3838	0.0002318
