Infrared Spectrum: STIGMASTA-4,22-DIEN-3-ONE
Formula: C29 H46 O
CAS: 20817-72-5
State: SOLID (SPLIT MULL), FLUOROLUBE FOR 3800-1330 CM^-^1, NUJOL FOR 1330-400 CM^-^1
Class: COBLENTZ III
Instrument: DOW KBr FOREPRISM-GRATING
Instrument parameters: BLAZED AT 3.5, 12.0, 20.0 MICRON AND CHANGED AT 5.0, 7.5, 14.9 MICRON
Sampling: TRANSMISSION
Resolution: 2
Origin: DOW CHEMICAL COMPANY
1/CM	TRANSMITTANCE
383.566	0.238
392.37	0.25
401.174	0.3
409.978	0.486
418.783	0.732
427.587	0.804
436.391	0.836
445.195	0.871
453.999	0.882
462.803	0.88
471.607	0.915
480.411	0.928
489.216	0.936
498.02	0.939
506.824	0.917
515.628	0.915
524.432	0.95
533.236	0.952
542.04	0.964
550.845	0.969
559.649	0.964
568.453	0.957
577.257	0.969
586.061	0.978
594.865	0.979
603.669	0.979
612.474	0.969
621.278	0.964
630.082	0.96
638.886	0.931
647.69	0.91
656.494	0.898
665.298	0.946
674.102	0.946
682.907	0.853
691.711	0.963
700.515	0.964
709.319	0.967
718.123	0.963
726.927	0.972
735.731	0.975
744.536	0.969
753.34	0.98
762.144	0.98
770.948	0.961
779.752	0.878
788.556	0.963
797.36	0.969
806.165	0.965
814.969	0.963
823.773	0.956
832.577	0.936
841.381	0.884
850.185	0.816
858.989	0.752
867.793	0.589
876.598	0.849
885.402	0.891
894.206	0.934
903.01	0.949
911.814	0.935
920.618	0.928
929.422	0.912
938.227	0.934
947.031	0.871
955.835	0.858
964.639	0.839
973.443	0.636
982.247	0.891
991.051	0.895
999.856	0.93
1008.66	0.931
1017.46	0.913
1026.27	0.913
1035.07	0.934
1043.88	0.943
1052.68	0.936
1061.48	0.939
1070.29	0.938
1079.09	0.934
1087.9	0.943
1096.7	0.945
1105.51	0.934
1114.31	0.919
1123.11	0.91
1131.92	0.92
1140.72	0.928
1149.53	0.919
1158.33	0.908
1167.13	0.906
1175.94	0.873
1184.74	0.801
1193.55	0.82
1202.35	0.89
1211.15	0.893
1219.96	0.856
1228.76	0.7239
1237.57	0.827
1246.37	0.841
1255.18	0.873
1263.98	0.839
1272.78	0.6861
1281.59	0.875
1290.39	0.872
1299.2	0.883
1308	0.88
1316.8	0.88
1325.61	0.853
1334.41	0.901
1343.22	0.926
1352.02	0.868
1360.83	0.913
1369.63	0.809
1378.43	0.789
1387.24	0.8201
1396.04	0.983
1404.85	0.989
1413.65	0.969
1422.45	0.872
1431.26	0.92
1440.06	0.823
1448.87	0.75
1457.67	0.698
1466.47	0.691
1475.28	0.8201
1484.08	0.952
1492.89	0.934
1501.69	0.897
1510.5	0.843
1519.3	0.784
1528.1	0.727
1536.91	0.653
1545.71	0.543
1554.52	0.523
1563.32	0.606
1572.12	0.694
1580.93	0.715
1589.73	0.749
1598.54	0.832
1607.34	0.867
1616.15	0.764
1624.95	0.7781
1633.75	0.917
1642.56	0.9
1651.36	0.875
1660.17	0.7489
1668.97	0.5089
1677.77	0.2169
1686.58	0.2282
1695.38	0.6862
1704.19	0.875
1712.99	0.936
1721.79	0.95
1730.6	0.954
1739.4	0.983
1748.21	1.004
1757.01	1.013
1765.82	1.017
1774.62	1.02
1783.42	1.023
1792.23	1.024
1801.03	1.024
1809.84	1.021
1818.64	1.024
1827.44	1.026
1836.25	1.026
1845.05	1.024
1853.86	1.026
1862.66	1.028
1871.47	1.03
1880.27	1.031
1889.07	1.03
1897.88	1.03
1906.68	1.03
1915.49	1.031
1924.29	1.031
1933.09	1.031
1941.9	1.031
1950.7	1.031
1959.51	1.027
1968.31	1.024
1977.11	1.023
1985.92	1.023
1994.72	1.021
2003.53	1.02
2012.33	1.019
2021.14	1.019
2029.94	1.019
2038.74	1.017
2047.55	1.017
2056.35	1.017
2065.16	1.016
2073.96	1.016
2082.76	1.016
2091.57	1.016
2100.37	1.015
2109.18	1.015
2117.98	1.015
2126.78	1.013
2135.59	1.013
2144.39	1.012
2153.2	1.012
2162	1.012
2170.81	1.012
2179.61	1.01
2188.41	1.01
2197.22	1.01
2206.02	1.009
2214.83	1.009
2223.63	1.009
2232.43	1.008
2241.24	1.005
2250.04	1.002
2258.85	0.998
2267.65	0.994
2276.46	0.989
2285.26	0.982
2294.06	0.979
2302.87	0.98
2311.67	0.984
2320.48	0.9801
2329.28	0.9909
2338.08	0.9931
2346.89	0.987
2355.69	0.997
2364.5	1
2373.3	1
2382.1	1
2390.91	1
2399.71	1
2408.52	1
2417.32	1
2426.13	1
2434.93	1
2443.73	0.998
2452.54	0.995
2461.34	0.995
2470.15	0.995
2478.95	0.994
2487.75	0.994
2496.56	0.993
2505.36	0.991
2514.17	0.99
2522.97	0.989
2531.78	0.987
2540.58	0.9841
2549.38	0.983
2558.19	0.983
2566.99	0.98
2575.8	0.979
2584.6	0.978
2593.4	0.979
2602.21	0.9761
2611.01	0.975
2619.82	0.973
2628.62	0.972
2637.42	0.971
2646.23	0.969
2655.03	0.968
2663.84	0.968
2672.64	0.968
2681.45	0.968
2690.25	0.965
2699.05	0.964
2707.86	0.96
2716.66	0.957
2725.47	0.956
2734.27	0.956
2743.07	0.958
2751.88	0.957
2760.68	0.957
2769.49	0.956
2778.29	0.952
2787.1	0.949
2795.9	0.941
2804.7	0.9321
2813.51	0.9173
2822.31	0.8955
2831.12	0.8684
2839.92	0.7944
2848.72	0.7064
2857.53	0.5908
2866.33	0.4871
2875.14	0.3997
2883.94	0.3567
2892.74	0.5087
2901.55	0.519
2910.35	0.5012
2919.16	0.4164
2927.96	0.39
2936.77	0.3077
2945.57	0.2181
2954.37	0.2151
2963.18	0.1765
2971.98	0.1598
2980.79	0.2198
2989.59	0.3813
2998.39	0.6645
3007.2	0.8259
3016	0.8714
3024.81	0.8839
3033.61	0.8889
3042.42	0.8978
3051.22	0.9265
3060.02	0.9389
3068.83	0.943
3077.63	0.945
3086.44	0.9469
3095.24	0.947
3104.04	0.947
3112.85	0.9451
3121.65	0.945
3130.46	0.945
3139.26	0.945
3148.06	0.945
3156.87	0.945
3165.67	0.946
3174.48	0.9469
3183.28	0.947
3192.09	0.949
3200.89	0.95
3209.69	0.952
3218.5	0.953
3227.3	0.9539
3236.11	0.954
3244.91	0.956
3253.71	0.956
3262.52	0.956
3271.32	0.956
3280.13	0.956
3288.93	0.954
3297.74	0.954
3306.54	0.953
3315.34	0.953
3324.15	0.952
3332.95	0.95
3341.76	0.949
3350.56	0.9499
3359.36	0.953
3368.17	0.954
3376.97	0.954
3385.78	0.954
3394.58	0.954
3403.38	0.953
3412.19	0.953
3420.99	0.952
3429.8	0.95
3438.6	0.95
3447.41	0.949
3456.21	0.95
3465.01	0.952
3473.82	0.95
3482.62	0.95
3491.43	0.952
3500.23	0.952
3509.03	0.953
3517.84	0.953
3526.64	0.953
3535.45	0.953
3544.25	0.9558
3553.06	0.957
3561.86	0.9579
3570.66	0.9582
3579.47	0.96
3588.27	0.96
3597.08	0.96
3605.88	0.96
3614.68	0.96
3623.49	0.96
3632.29	0.961
3641.1	0.961
3649.9	0.961
3658.7	0.96
3667.51	0.958
3676.31	0.9571
3685.12	0.956
3693.92	0.9542
3702.73	0.9558
3711.53	0.957
3720.33	0.957
3729.14	0.958
3737.94	0.958
3746.75	0.956
3755.55	0.9579
3764.35	0.96
3773.16	0.96
3781.96	0.96
3790.77	0.9571
