Infrared Spectrum: PROPIONIC ACID, 2-DIETHYLPHOSPHONO-2-HYDROXY-, ETHYL ESTER
Formula: C9 H19 O6 P
CAS: 20824-52-6
Class: COBLENTZ
Instrument: Not specified, most likely a prism, grating, or hybrid spectrometer.
Sampling: TRANSMISSION
Path length: SMEAR
Resolution: 4
Origin: TENNESSEE EASTMAN COMPANY, RESEARCH LABORATORIES
MICROMETERS	TRANSMITTANCE
2.085	0.988
2.12507	0.986
2.16513	0.984
2.2052	0.983
2.24527	0.979
2.28534	0.973
2.3254	0.973
2.36547	0.969
2.40554	0.971
2.44561	0.969
2.48567	0.968
2.52574	0.968
2.56581	0.968
2.60588	0.966
2.64594	0.968
2.68601	0.968
2.72608	0.968
2.76615	0.966
2.80621	0.954
2.84628	0.932
2.88635	0.882
2.92642	0.85
2.96648	0.84
3.00655	0.819
3.04662	0.802
3.08669	0.804
3.12675	0.82
3.16682	0.872
3.20689	0.902
3.24696	0.912
3.28702	0.912
3.32709	0.797
3.36716	0.571
3.40723	0.686
3.44729	0.743
3.48736	0.835
3.52743	0.902
3.5675	0.916
3.60756	0.927
3.64763	0.936
3.6877	0.943
3.72776	0.948
3.76783	0.953
3.8079	0.956
3.84797	0.958
3.88803	0.959
3.9281	0.959
3.96817	0.959
4.00824	0.959
4.0483	0.959
4.08837	0.959
4.12844	0.959
4.16851	0.959
4.20857	0.961
4.24864	0.963
4.28871	0.963
4.32878	0.963
4.36884	0.963
4.40891	0.963
4.44898	0.963
4.48905	0.963
4.52911	0.963
4.56918	0.963
4.60925	0.963
4.64932	0.963
4.68938	0.961
4.72945	0.963
4.76952	0.963
4.80959	0.963
4.84965	0.963
4.88972	0.961
4.92979	0.961
4.96986	0.964
5.00992	0.963
5.04999	0.963
5.09006	0.961
5.13013	0.958
5.17019	0.954
5.21026	0.954
5.25033	0.953
5.29039	0.949
5.33046	0.943
5.37053	0.934
5.4106	0.931
5.45066	0.922
5.49073	0.902
5.5308	0.894
5.57087	0.884
5.61093	0.849
5.651	0.698
5.69107	0.422
5.73114	0.396
5.7712	0.403
5.81127	0.597
5.85134	0.738
5.89141	0.8
5.93147	0.84
5.97154	0.871
6.01161	0.886
6.05168	0.901
6.09174	0.901
6.13181	0.902
6.17188	0.902
6.21195	0.904
6.25201	0.912
6.29208	0.921
6.33215	0.926
6.37222	0.927
6.41228	0.924
6.45235	0.926
6.49242	0.924
6.53249	0.924
6.57255	0.921
6.61262	0.917
6.65269	0.902
6.69276	0.862
6.73282	0.767
6.77289	0.757
6.81296	0.728
6.85302	0.701
6.89309	0.641
6.93316	0.686
6.97323	0.793
7.01329	0.82
7.05336	0.822
7.09343	0.812
7.1335	0.74
7.17356	0.675
7.21363	0.67
7.2537	0.664
7.29377	0.643
7.33383	0.663
7.3739	0.755
7.41397	0.773
7.45404	0.777
7.4941	0.778
7.53417	0.772
7.57424	0.733
7.61431	0.661
7.65437	0.599
7.69444	0.547
7.73451	0.484
7.77458	0.432
7.81464	0.375
7.85471	0.335
7.89478	0.294
7.93485	0.284
7.97491	0.301
8.01498	0.34
8.05505	0.371
8.09512	0.415
8.13518	0.47
8.17525	0.497
8.21532	0.502
8.25539	0.502
8.29545	0.509
8.33552	0.546
8.37559	0.609
8.41565	0.646
8.45572	0.651
8.49579	0.599
8.53586	0.534
8.57592	0.499
8.61599	0.482
8.65606	0.455
8.69613	0.452
8.73619	0.482
8.77626	0.487
8.81633	0.463
8.8564	0.43
8.89646	0.42
8.93653	0.433
8.9766	0.442
9.01667	0.44
9.05673	0.435
9.0968	0.427
9.13687	0.437
9.17694	0.452
9.217	0.453
9.25707	0.438
9.29714	0.398
9.33721	0.343
9.37727	0.309
9.41734	0.274
9.45741	0.231
9.49748	0.199
9.53754	0.182
9.57761	0.179
9.61768	0.174
9.65775	0.172
9.69781	0.169
9.73788	0.17
9.77795	0.177
9.81801	0.229
9.85808	0.294
9.89815	0.341
9.93822	0.355
9.97828	0.358
10.0184	0.358
10.0584	0.358
10.0985	0.356
10.1386	0.355
10.1786	0.351
10.2187	0.353
10.2588	0.36
10.2988	0.388
10.3389	0.412
10.379	0.448
10.419	0.472
10.4591	0.494
10.4992	0.519
10.5392	0.542
10.5793	0.556
10.6194	0.601
10.6594	0.629
10.6995	0.678
10.7396	0.726
10.7796	0.765
10.8197	0.787
10.8598	0.804
10.8998	0.815
10.9399	0.819
10.98	0.819
11.02	0.8
11.0601	0.782
11.1002	0.765
11.1402	0.765
11.1803	0.77
11.2204	0.785
11.2604	0.805
11.3005	0.822
11.3406	0.832
11.3806	0.835
11.4207	0.835
11.4608	0.829
11.5008	0.798
11.5409	0.755
11.581	0.74
11.621	0.743
11.6611	0.775
11.7012	0.798
11.7413	0.805
11.7813	0.805
11.8214	0.792
11.8615	0.763
11.9015	0.737
11.9416	0.706
11.9817	0.681
12.0217	0.651
12.0618	0.641
12.1019	0.643
12.1419	0.646
12.182	0.651
12.2221	0.661
12.2621	0.666
12.3022	0.671
12.3423	0.676
12.3823	0.675
12.4224	0.676
12.4625	0.675
12.5025	0.675
12.5426	0.683
12.5827	0.705
12.6227	0.728
12.6628	0.753
12.7029	0.765
12.7429	0.767
12.783	0.768
12.8231	0.768
12.8631	0.767
12.9032	0.763
12.9433	0.758
12.9833	0.752
13.0234	0.747
13.0635	0.745
13.1035	0.745
13.1436	0.745
13.1837	0.747
13.2237	0.747
13.2638	0.748
13.3039	0.748
13.3439	0.75
13.384	0.755
13.4241	0.762
13.4642	0.763
13.5042	0.765
13.5443	0.767
13.5844	0.77
13.6244	0.772
13.6645	0.775
13.7046	0.78
13.7446	0.783
13.7847	0.783
13.8248	0.783
13.8648	0.782
13.9049	0.783
13.945	0.782
13.985	0.783
14.0251	0.782
14.0652	0.78
14.1052	0.78
14.1453	0.772
14.1854	0.77
14.2254	0.767
14.2655	0.767
14.3056	0.765
14.3456	0.762
14.3857	0.76
14.4258	0.753
14.4658	0.747
14.5059	0.742
14.546	0.74
14.586	0.731
14.6261	0.723
14.6662	0.721
14.7062	0.716
14.7463	0.713
14.7864	0.71
14.8264	0.705
14.8665	0.7
14.9066	0.693
14.9466	0.686
14.9867	0.686
15.0268	0.685
15.0668	0.678
15.1069	0.671
15.147	0.67
15.1871	0.668
15.2271	0.664
15.2672	0.661
15.3073	0.659
15.3473	0.658
15.3874	0.658
15.4275	0.656
15.4675	0.653
15.5076	0.653
15.5477	0.651
15.5877	0.649
15.6278	0.649
15.6679	0.648
15.7079	0.648
15.748	0.648
15.7881	0.646
15.8281	0.648
15.8682	0.646
15.9083	0.648
15.9483	0.648
15.9884	0.648
