Infrared Spectrum: 1,4-Butylene dimethacrylate
Formula: C 12 H 18 O 4
CAS: 2082-81-7
State: gas
Instrument: HP-GC/MS/IRD
Origin: NIST Mass Spectrometry Data Center
1/CM	ABSORBANCE
550	0.0009063
562	0.000477
574	0.001431
586	0.0035775
598	0.0046269
610	0.0022896
622	0.0012879
634	0.0026235
646	0.0053424
658	0.0055332
670	0.0032436
682	0.0010494
694	0.0002385
706	0
718	0.0001431
730	0.0005247
742	0.0013356
754	0.0017172
766	0.0017649
778	0.0025758
790	0.0061056
802	0.0150732
814	0.0202725
826	0.0111141
838	0.006201
850	0.0049131
862	0.0043884
874	0.0042453
886	0.0048654
898	0.0067734
910	0.0126882
922	0.0291447
934	0.0508005
946	0.0418329
958	0.0265689
970	0.0227052
982	0.0228483
994	0.0251379
1006	0.0334377
1018	0.0403542
1030	0.0326745
1042	0.0236592
1054	0.0153594
1066	0.014787
1078	0.0153594
1090	0.0182691
1102	0.0242316
1114	0.0374922
1126	0.0725517
1138	0.185171
1150	0.43221
1162	0.415992
1174	0.236592
1186	0.119966
1198	0.0657783
1210	0.0432162
1222	0.0317205
1234	0.0236115
1246	0.0213219
1258	0.0223713
1270	0.033867
1282	0.078705
1294	0.144197
1306	0.117676
1318	0.118773
1330	0.0652536
1342	0.0265212
1354	0.0180306
1366	0.016218
1378	0.0192708
1390	0.0237069
1402	0.0336285
1414	0.0318159
1426	0.0224667
1438	0.0257103
1450	0.035298
1462	0.0402111
1474	0.0294309
1486	0.0149301
1498	0.0080136
1510	0.0054855
1522	0.0044361
1534	0.0039114
1546	0.0035775
1558	0.0036729
1570	0.0043407
1582	0.0053424
1594	0.0067257
1606	0.00954
1618	0.0147393
1630	0.0220374
1642	0.024804
1654	0.012879
1666	0.0091584
1678	0.0112572
1690	0.0168381
1702	0.0272367
1714	0.0604836
1726	0.1628
1738	0.274609
1750	0.148729
1762	0.0484632
1774	0.020034
1786	0.0140238
1798	0.0100647
1810	0.0058671
1822	0.0036252
1834	0.0027666
1846	0.0026235
1858	0.003339
1870	0.0046746
1882	0.0050085
1894	0.0034821
1906	0.0023373
1918	0.001908
1930	0.0015741
1942	0.0015264
1954	0.0016218
1966	0.0017172
1978	0.0018603
1990	0.0018603
2002	0.0016695
2014	0.0013356
2026	0.000954
2038	0.0007632
2050	0.0007155
2062	0.0007155
2074	0.0008586
2086	0.0010971
2098	0.0011448
2110	0.000954
2122	0.0007632
2134	0.0006201
2146	0.000477
2158	0.0003816
2170	0.0002385
2182	0.0001431
2194	0
2206	4.77e-05
2218	0.0001431
2230	0.0002862
2242	0.0002385
2254	0.0001908
2266	0.0001908
2278	0.0002862
2290	0.0005247
2302	0.0007632
2314	0.0009063
2326	0.0008586
2338	0.0005247
2350	0.0002385
2362	4.77e-05
2374	0
2386	4.77e-05
2398	9.54e-05
2410	9.54e-05
2422	0.0001431
2434	0.0001431
2446	0.0002862
2458	0.0003339
2470	0.0002385
2482	0.0001431
2494	4.77e-05
2506	0
2518	4.77e-05
2530	0.0001431
2542	0.0002385
2554	0.0002385
2566	0.0002385
2578	0.0002385
2590	0.0001908
2602	9.54e-05
2614	4.77e-05
2626	4.77e-05
2638	4.77e-05
2650	9.54e-05
2662	0.0002385
2674	0.0003816
2686	0.0005247
2698	0.0006678
2710	0.0005724
2722	0.0007155
2734	0.000954
2746	0.0013833
2758	0.0014787
2770	0.0013833
2782	0.0013833
2794	0.0016218
2806	0.001908
2818	0.002385
2830	0.0033867
2842	0.0050562
2854	0.0089676
2866	0.0126882
2878	0.0139284
2890	0.017172
2902	0.0223236
2914	0.0269028
2926	0.0358227
2938	0.0493695
2950	0.055332
2962	0.065826
2974	0.061056
2986	0.050562
2998	0.0302895
3010	0.0174582
3022	0.0115434
3034	0.0079182
3046	0.006678
3058	0.005247
3070	0.0036729
3082	0.0035775
3094	0.0048177
3106	0.0085383
3118	0.0049608
3130	0.0018126
3142	0.0010971
3154	0.0008586
3166	0.0005724
3178	0.0003816
3190	0.0002862
3202	0.0002385
3214	0.0002385
3226	0.0001431
3238	0.0001908
3250	0.0001908
3262	0.0001431
3274	0.0001908
3286	0.0001908
3298	9.54e-05
3310	9.54e-05
3322	0.0001908
3334	0.0001908
3346	0.0002385
3358	0.0003816
3370	0.0004293
3382	0.0003816
3394	0.0004293
3406	0.0004293
3418	0.0006201
3430	0.0011448
3442	0.0020034
3454	0.0030528
3466	0.0026235
3478	0.0015264
3490	0.0008586
3502	0.0005247
3514	0.0003816
3526	0.0001908
3538	0.0001431
3550	0.0001431
3562	4.77e-05
3574	4.77e-05
3586	9.54e-05
3598	4.77e-05
3610	9.54e-05
3622	0.0001431
3634	9.54e-05
3646	9.54e-05
3658	0.0001431
3670	0.0001908
3682	9.54e-05
3694	0.0001431
3706	0.0001908
3718	9.54e-05
3730	0.0001908
3742	9.54e-05
3754	0.0001431
3766	0.0002385
3778	0.0001908
3790	0.0002385
3802	0.0002385
3814	0.0001431
3826	0.0002385
3838	0.0002862
