Infrared Spectrum: Trimethyl aconitate
Formula: C9 H12 O6
CAS: 20820-77-3
State: SOLUTION (10% CCl4 FOR 2.7-7.5, 10% CS2 FOR 7.5-26 MICRON) VS SOLVENT
Class: COBLENTZ III
Instrument: DOW KBr FOREPRISM-GRATING
Instrument parameters: BLAZED AT 3.5, 12.0, 20.0 MICRON AND CHANGED AT 5.0, 7.5, 14.9 MICRON
Sampling: TRANSMISSION
Path length: 0.011 CM, 0.011 CM
Resolution: 2
Origin: DOW CHEMICAL COMPANY
1/CM	TRANSMITTANCE
3800	0.861
3791	0.8609
3782	0.8609
3773	0.8612
3764	0.8617
3755	0.8618
3746	0.8617
3737	0.8623
3728	0.8639
3719	0.8652
3710	0.8656
3701	0.8657
3692	0.8643
3683	0.8618
3674	0.8589
3665	0.8571
3656	0.8585
3647	0.8607
3638	0.8618
3629	0.8627
3620	0.8637
3611	0.8647
3602	0.8653
3593	0.8658
3584	0.8665
3575	0.8674
3566	0.8683
3557	0.8682
3548	0.8681
3539	0.8682
3530	0.8697
3521	0.8712
3512	0.8723
3503	0.8732
3494	0.8738
3485	0.8737
3476	0.8702
3467	0.8598
3458	0.8513
3449	0.849
3440	0.8438
3431	0.8186
3422	0.8192
3413	0.8475
3404	0.8668
3395	0.8788
3386	0.8818
3377	0.8834
3368	0.8824
3359	0.8833
3350	0.8852
3341	0.887
3332	0.8884
3323	0.8893
3314	0.8903
3305	0.8909
3296	0.8916
3287	0.8921
3278	0.8928
3269	0.8934
3260	0.894
3251	0.8945
3242	0.8949
3233	0.8949
3224	0.8951
3215	0.895
3206	0.8947
3197	0.8943
3188	0.8925
3179	0.8889
3170	0.8855
3161	0.8833
3152	0.8815
3143	0.8818
3134	0.8818
3125	0.879
3116	0.8734
3107	0.8686
3098	0.8618
3089	0.8513
3080	0.8411
3071	0.8328
3062	0.8275
3053	0.8231
3044	0.8042
3035	0.7415
3026	0.5976
3017	0.5738
3008	0.5786
2999	0.4231
2990	0.5143
2981	0.6062
2972	0.6542
2963	0.6538
2954	0.1264
2945	0.3678
2936	0.644
2927	0.7239
2918	0.7574
2909	0.7711
2900	0.7465
2891	0.7335
2882	0.7486
2873	0.7874
2864	0.8285
2855	0.8341
2846	0.8057
2837	0.6821
2828	0.8156
2819	0.8447
2810	0.8577
2801	0.8649
2792	0.8705
2783	0.8725
2774	0.8732
2765	0.8738
2756	0.8747
2747	0.8756
2738	0.8762
2729	0.8766
2720	0.8768
2711	0.8765
2702	0.8762
2693	0.8763
2684	0.8763
2675	0.8762
2666	0.8758
2657	0.8744
2648	0.8698
2639	0.8607
2630	0.8578
2621	0.8601
2612	0.8625
2603	0.8633
2594	0.862
2585	0.8606
2576	0.8611
2567	0.8621
2558	0.8633
2549	0.8646
2540	0.8664
2531	0.8675
2522	0.8682
2513	0.8684
2504	0.8687
2495	0.8687
2486	0.8687
2477	0.8696
2468	0.8712
2459	0.8717
2450	0.8718
2441	0.8709
2432	0.8699
2423	0.8681
2414	0.8649
2405	0.8608
2396	0.8589
2387	0.858
2378	0.8584
2369	0.8588
2360	0.8596
2351	0.8605
2342	0.8614
2333	0.8621
2324	0.8628
2315	0.8634
2306	0.864
2297	0.8649
2288	0.8659
2279	0.8668
2270	0.8688
2261	0.8704
2252	0.8717
2243	0.8716
2234	0.87
2225	0.8687
2216	0.8689
2207	0.8695
2198	0.8706
2189	0.8714
2180	0.8717
2171	0.8775
2162	0.8762
2153	0.8702
2144	0.8614
2135	0.8512
2126	0.8398
2117	0.8375
2108	0.8368
2099	0.8363
2090	0.8359
2081	0.8337
2072	0.832
2063	0.8324
2054	0.8402
2045	0.8428
2036	0.8437
2027	0.8438
2018	0.8439
2009	0.8439
2000	0.8436
1991	0.8437
1982	0.844
1973	0.85
1964	0.8514
1955	0.851
1946	0.8491
1937	0.8441
1928	0.8421
1919	0.8449
1910	0.8501
1901	0.8556
1892	0.8594
1883	0.8609
1874	0.8607
1865	0.8603
1856	0.8594
1847	0.8453
1838	0.8371
1829	0.8264
1820	0.813
1811	0.7933
1802	0.7668
1793	0.7346
1784	0.6906
1775	0.6462
1766	0.5585
1757	0.282
1748	0.0419
1739	0.0029
1730	0.0009
1721	0.001
1712	0.0197
1703	0.3035
1694	0.4114
1685	0.454
1676	0.5317
1667	0.5703
1658	0.4099
1649	0.2584
1640	0.5318
1631	0.6836
1622	0.723
1613	0.75
1604	0.7678
1595	0.7756
1586	0.7771
1577	0.7756
1568	0.7741
1559	0.7734
1550	0.7754
1541	0.7815
1532	0.7867
1523	0.7867
1514	0.7758
1505	0.7653
1496	0.7518
1487	0.7344
1478	0.7101
1469	0.5582
1460	0.3584
1451	0.3347
1442	0.1944
1433	0.0389
1424	0.5296
1415	0.3787
1406	0.4623
1397	0.6268
1388	0.6431
1379	0.383
1370	0.3743
1361	0.4292
1352	0.4842
1343	0.4425
1334	0.2224
1325	0.0378
1316	0.0887
1307	0.2743
1298	0.2259
1289	0.0605
1280	0.0056
1271	0.0011
1262	0.0367
1253	0.0745
1244	0.0691
1235	0.0797
1226	0.0632
1217	0.0594
1208	0.0519
1199	0.0144
1190	0.0062
1181	0.0121
1172	0.008
1163	0.0032
1154	0.0484
1145	0.2456
1136	0.4147
1127	0.5188
1118	0.5664
1109	0.5628
1100	0.2934
1091	0.1101
1082	0.3328
1073	0.6144
1064	0.6958
1055	0.7188
1046	0.7215
1037	0.6801
1028	0.2749
1019	0.0789
1010	0.2626
1001	0.2873
992	0.6153
983	0.6845
974	0.6824
965	0.7405
956	0.7631
947	0.7542
938	0.6154
929	0.5527
920	0.6878
911	0.3694
902	0.3627
893	0.521
884	0.7114
875	0.7633
866	0.758
857	0.6574
848	0.6392
839	0.4405
830	0.5755
821	0.7545
812	0.7712
803	0.7582
794	0.5454
785	0.1563
776	0.5625
767	0.6725
758	0.6928
749	0.7147
740	0.7489
731	0.7591
722	0.7793
713	0.7921
704	0.7996
695	0.8058
686	0.809
677	0.8
668	0.7656
659	0.7608
650	0.7617
641	0.7765
632	0.7947
623	0.8046
614	0.8008
605	0.7942
596	0.7818
587	0.7625
578	0.7439
569	0.7297
560	0.7285
551	0.7284
542	0.7292
533	0.7319
524	0.7418
515	0.7601
506	0.7753
497	0.7857
488	0.7904
479	0.7875
470	0.7828
461	0.7808
452	0.7762
443	0.7742
434	0.7725
425	0.7711
416	0.7669
407	0.7643
398	0.7656
389	0.7671
