Infrared Spectrum: 1,1,1,5,5,6,6,6-Octafluoro-2,4-hexanedione
Formula: C 6 H 2 F 8 O 2
CAS: 20825-07-4
State: gas
Origin: EPA-IR VAPOR PHASE LIBRARY
1/CM	ABSORBANCE
549.8	0.024096
559.445	0.022186
569.09	0.026326
578.734	0.046496
588.379	0.043436
598.024	0.031676
607.669	0.035026
617.313	0.043196
626.958	0.055936
636.603	0.067676
646.248	0.095536
655.893	0.146406
665.537	0.085466
675.182	0.045256
684.827	0.036256
694.472	0.036686
704.116	0.040076
713.761	0.048986
723.406	0.046506
733.051	0.047746
742.695	0.079966
752.34	0.084536
761.985	0.037796
771.63	0.021546
781.275	0.024436
790.919	0.039946
800.564	0.055796
810.209	0.101096
819.854	0.109686
829.498	0.056996
839.143	0.032726
848.788	0.026296
858.433	0.021076
868.078	0.019666
877.722	0.021996
887.367	0.026686
897.012	0.040576
906.657	0.053476
916.301	0.037586
925.946	0.025576
935.591	0.024996
945.236	0.030486
954.88	0.043136
964.525	0.066446
974.17	0.094086
983.815	0.112046
993.46	0.133736
1003.1	0.187076
1012.75	0.190936
1022.39	0.138326
1032.04	0.096166
1041.68	0.081386
1051.33	0.081726
1060.97	0.089786
1070.62	0.124076
1080.26	0.213496
1089.91	0.324226
1099.55	0.305986
1109.2	0.275626
1118.84	0.324416
1128.49	0.328326
1138.13	0.270196
1147.78	0.277636
1157.42	0.377186
1167.07	0.562876
1176.71	0.755996
1186.36	0.793226
1196	0.822936
1205.64	1.08991
1215.29	1.28122
1224.93	1.15514
1234.58	0.848076
1244.22	0.530436
1253.87	0.355286
1263.51	0.305416
1273.16	0.361156
1282.8	0.392116
1292.45	0.343106
1302.09	0.296996
1311.74	0.284736
1321.38	0.290696
1331.03	0.264726
1340.67	0.195586
1350.32	0.148996
1359.96	0.119856
1369.61	0.089916
1379.25	0.067896
1388.9	0.058656
1398.54	0.058516
1408.18	0.064076
1417.83	0.073266
1427.47	0.085896
1437.12	0.092916
1446.76	0.083696
1456.41	0.063936
1466.05	0.048996
1475.7	0.040626
1485.34	0.036806
1494.99	0.035196
1504.63	0.035916
1514.28	0.037276
1523.92	0.038996
1533.57	0.040226
1543.21	0.040206
1552.86	0.042426
1562.5	0.047646
1572.15	0.057436
1581.79	0.076616
1591.44	0.109716
1601.08	0.165136
1610.73	0.248936
1620.37	0.313086
1630.01	0.269436
1639.66	0.173436
1649.3	0.116176
1658.95	0.101906
1668.59	0.118966
1678.24	0.151166
1687.88	0.157256
1697.53	0.117606
1707.17	0.070616
1716.82	0.044806
1726.46	0.034506
1736.11	0.033216
1745.75	0.037476
1755.4	0.048446
1765.04	0.053266
1774.69	0.047136
1784.33	0.053096
1793.98	0.038276
1803.62	0.020216
1813.27	0.013436
1822.91	0.011136
1832.55	0.010346
1842.2	0.009526
1851.84	0.009346
1861.49	0.008806
1871.13	0.008596
1880.78	0.007646
1890.42	0.007186
1900.07	0.006996
1909.71	0.006526
1919.36	0.006446
1929	0.006186
1938.65	0.005916
1948.29	0.005886
1957.94	0.006796
1967.58	0.007066
1977.23	0.006736
1986.87	0.006516
1996.52	0.005966
2006.16	0.006176
2015.81	0.005416
2025.45	0.005266
2035.1	0.004826
2044.74	0.004486
2054.38	0.004306
2064.03	0.004596
2073.67	0.004156
2083.32	0.004566
2092.96	0.004566
2102.61	0.004766
2112.25	0.005016
2121.9	0.004736
2131.54	0.004596
2141.19	0.004086
2150.83	0.004286
2160.48	0.004076
2170.12	0.004206
2179.77	0.004426
2189.41	0.004656
2199.06	0.004806
2208.7	0.004946
2218.35	0.005256
2227.99	0.005726
2237.64	0.005886
2247.28	0.005736
2256.92	0.005636
2266.57	0.005946
2276.21	0.006346
2285.86	0.006576
2295.5	0.007076
2305.15	0.007316
2314.79	0.007586
2324.44	0.007686
2334.08	0.008276
2343.73	0.008846
2353.37	0.009056
2363.02	0.009276
2372.66	0.009356
2382.31	0.008786
2391.95	0.008976
2401.6	0.008966
2411.24	0.008936
2420.89	0.008906
2430.53	0.008906
2440.18	0.009446
2449.82	0.008966
2459.47	0.008936
2469.11	0.008856
2478.75	0.008666
2488.4	0.008716
2498.04	0.008766
2507.69	0.008796
2517.33	0.009416
2526.98	0.009646
2536.62	0.009876
2546.27	0.010006
2555.91	0.008846
2565.56	0.008476
2575.2	0.007856
2584.85	0.007676
2594.49	0.007376
2604.14	0.007416
2613.78	0.007556
2623.43	0.007496
2633.07	0.007546
2642.72	0.007576
2652.36	0.008036
2662.01	0.007946
2671.65	0.007806
2681.29	0.008166
2690.94	0.008266
2700.58	0.008526
2710.23	0.009176
2719.87	0.009156
2729.52	0.009276
2739.16	0.008516
2748.81	0.009156
2758.45	0.008906
2768.1	0.009106
2777.74	0.009476
2787.39	0.009796
2797.03	0.009886
2806.68	0.010126
2816.32	0.010336
2825.97	0.010606
2835.61	0.010966
2845.26	0.010886
2854.9	0.011536
2864.55	0.011656
2874.19	0.011656
2883.84	0.011806
2893.48	0.011816
2903.12	0.011426
2912.77	0.012326
2922.41	0.011326
2932.06	0.011366
2941.7	0.012356
2951.35	0.012386
2960.99	0.011716
2970.64	0.012166
2980.28	0.012206
2989.93	0.012476
2999.57	0.012716
3009.22	0.012976
3018.86	0.012626
3028.51	0.012426
3038.15	0.012446
3047.8	0.011116
3057.44	0.012286
3067.09	0.011456
3076.73	0.011786
3086.38	0.012276
3096.02	0.013746
3105.67	0.014716
3115.31	0.016766
3124.95	0.020176
3134.6	0.021976
3144.24	0.019226
3153.89	0.014876
3163.53	0.013536
3173.18	0.013056
3182.82	0.012866
3192.47	0.012626
3202.11	0.012476
3211.76	0.012406
3221.4	0.012646
3231.05	0.012266
3240.69	0.012386
3250.34	0.012556
3259.98	0.012346
3269.63	0.011926
3279.27	0.011546
3288.92	0.011036
3298.56	0.011256
3308.21	0.010846
3317.85	0.010686
3327.49	0.009546
3337.14	0.010436
3346.78	0.010196
3356.43	0.009156
3366.07	0.009506
3375.72	0.008156
3385.36	0.007526
3395.01	0.007276
3404.65	0.006846
3414.3	0.006046
3423.94	0.006066
3433.59	0.005586
3443.23	0.004686
3452.88	0.004256
3462.52	0.004366
3472.17	0.004706
3481.81	0.003686
3491.46	0.003766
3501.1	0.003466
3510.75	0.004246
3520.39	0.003916
3530.04	0.004026
3539.68	0.003436
3549.32	0.003036
3558.97	0.002316
3568.61	0.001976
3578.26	0.002066
3587.9	0.001826
3597.55	0.001966
3607.19	0.0017688
3616.84	0.002846
3626.48	0.002166
3636.13	0.0015736
3645.77	0.001806
3655.42	0.0015776
3665.06	0.000696
3674.71	0.000682
3684.35	0.0017571
3694	0.0009827
3703.64	0.0010301
3713.29	0.0012166
3722.93	0.0013513
3732.58	0.0014964
3742.22	0.0012195
3751.86	0.000466
3761.51	0.0009461
3771.15	0.00087077
3780.8	0.0010043
3790.44	0.0013499
3800.09	0.0009738
3809.73	0.000474
3819.38	0.0010088
3829.02	0.0013181
3838.67	0.00086938
3848.31	0.0011258
3857.96	0.00080334
3867.6	0.000625
3877.25	0.00089178
3886.89	0.00151
3896.54	0.0011352
3906.18	0.0005
3915.83	0.0010799
3925.47	0.00080494
3935.12	0.000685
3944.76	0.0007489
3954.41	0.00062
3964.05	0.000583
3973.69	0.0010989
3983.34	0.0014014
3992.98	0.0011599
