Infrared Spectrum: 2-BROMO-4,6-DI-t-BUTYLPHENOL
Formula: C14 H21 Br O
CAS: 20834-61-1
State: SOLUTION (10% CCl4 FOR 5000-1330, 10% CS2 FOR 1330-625 CM^-^1)
Class: COBLENTZ
Instrument: Not specified, most likely a prism, grating, or hybrid spectrometer.
Sampling: TRANSMISSION
Path length: 0.0121 CM, 0.0121 CM
Resolution: 4
Origin: DOW CHEMICAL COMPANY
MICROMETERS	TRANSMITTANCE
2.021	0.87
2.06203	0.871
2.10307	0.871
2.1441	0.875
2.18514	0.87
2.22617	0.861
2.26721	0.863
2.30824	0.87
2.34928	0.866
2.39031	0.87
2.43135	0.876
2.47238	0.878
2.51342	0.871
2.55445	0.871
2.59549	0.875
2.63652	0.878
2.67755	0.878
2.71859	0.873
2.75962	0.861
2.80066	0.688
2.84169	0.606
2.88273	0.875
2.92376	0.878
2.9648	0.876
3.00583	0.875
3.04687	0.871
3.0879	0.871
3.12894	0.87
3.16997	0.866
3.21101	0.861
3.25204	0.837
3.29307	0.755
3.33411	0.464
3.37514	0.126
3.41618	0.37
3.45721	0.54
3.49825	0.841
3.53928	0.868
3.58032	0.875
3.62135	0.875
3.66239	0.878
3.70342	0.88
3.74446	0.885
3.78549	0.894
3.82653	0.89
3.86756	0.89
3.90859	0.897
3.94963	0.89
3.99066	0.894
4.0317	0.899
4.07273	0.897
4.11377	0.888
4.1548	0.885
4.19584	0.888
4.23687	0.888
4.27791	0.875
4.31894	0.875
4.35998	0.887
4.40101	0.895
4.44205	0.9
4.48308	0.902
4.52411	0.897
4.56515	0.897
4.60618	0.905
4.64722	0.904
4.68825	0.907
4.72929	0.899
4.77032	0.899
4.81136	0.895
4.85239	0.895
4.89343	0.899
4.93446	0.894
4.9755	0.885
5.01653	0.892
5.05757	0.897
5.0986	0.895
5.13963	0.9
5.18067	0.899
5.2217	0.895
5.26274	0.899
5.30377	0.902
5.34481	0.897
5.38584	0.895
5.42688	0.895
5.46791	0.895
5.50895	0.894
5.54998	0.883
5.59102	0.875
5.63205	0.88
5.67309	0.878
5.71412	0.873
5.75515	0.868
5.79619	0.885
5.83722	0.888
5.87826	0.888
5.91929	0.89
5.96033	0.887
6.00136	0.883
6.0424	0.878
6.08343	0.876
6.12447	0.864
6.1655	0.827
6.20654	0.755
6.24757	0.663
6.28861	0.591
6.32964	0.495
6.37067	0.41
6.41171	0.427
6.45274	0.447
6.49378	0.514
6.53481	0.588
6.57585	0.63
6.61688	0.678
6.65792	0.652
6.69895	0.507
6.73999	0.189
6.78102	0.259
6.82206	0.338
6.86309	0.348
6.90413	0.463
6.94516	0.675
6.98619	0.692
7.02723	0.654
7.06826	0.543
7.1093	0.369
7.15033	0.449
7.19137	0.695
7.2324	0.729
7.27344	0.564
7.31447	0.321
7.35551	0.776
7.39654	0.75
7.43758	0.574
7.47861	0.35
7.51965	0.74
7.56068	0.805
7.60171	0.811
7.64275	0.753
7.68378	0.666
7.72482	0.488
7.76585	0.223
7.80689	0.288
7.84792	0.524
7.88896	0.567
7.92999	0.48
7.97103	0.237
8.01206	0.382
8.0531	0.709
8.09413	0.758
8.13517	0.747
8.1762	0.675
8.21723	0.509
8.25827	0.413
8.2993	0.41
8.34034	0.582
8.38137	0.558
8.42241	0.405
8.46344	0.206
8.50448	0.203
8.54551	0.547
8.58655	0.673
8.62758	0.741
8.66862	0.769
8.70965	0.786
8.75069	0.762
8.79172	0.741
8.83275	0.806
8.87379	0.849
8.91482	0.87
8.95586	0.876
8.99689	0.88
9.03793	0.887
9.07896	0.861
9.12	0.774
9.16103	0.652
9.20207	0.704
9.2431	0.852
9.28414	0.899
9.32517	0.916
9.36621	0.926
9.40724	0.933
9.44827	0.936
9.48931	0.936
9.53034	0.931
9.57138	0.929
9.61241	0.924
9.65345	0.917
9.69448	0.899
9.73552	0.883
9.77655	0.895
9.81759	0.914
9.85862	0.928
9.89966	0.936
9.94069	0.941
9.98173	0.945
10.0228	0.947
10.0638	0.948
10.1048	0.95
10.1459	0.952
10.1869	0.95
10.2279	0.948
10.269	0.945
10.31	0.947
10.351	0.941
10.3921	0.938
10.4331	0.931
10.4741	0.929
10.5152	0.924
10.5562	0.923
10.5972	0.914
10.6383	0.89
10.6793	0.839
10.7203	0.808
10.7614	0.842
10.8024	0.863
10.8435	0.88
10.8845	0.897
10.9255	0.904
10.9666	0.89
11.0076	0.902
11.0486	0.909
11.0897	0.897
11.1307	0.858
11.1717	0.793
11.2128	0.784
11.2538	0.842
11.2948	0.847
11.3359	0.82
11.3769	0.793
11.4179	0.729
11.459	0.598
11.5	0.413
11.541	0.348
11.5821	0.558
11.6231	0.683
11.6641	0.702
11.7052	0.716
11.7462	0.729
11.7873	0.735
11.8283	0.697
11.8693	0.598
11.9104	0.505
11.9514	0.627
11.9924	0.774
12.0335	0.823
12.0745	0.813
12.1155	0.752
12.1566	0.642
12.1976	0.56
12.2386	0.663
12.2797	0.801
12.3207	0.852
12.3617	0.871
12.4028	0.878
12.4438	0.878
12.4848	0.876
12.5259	0.876
12.5669	0.873
12.6079	0.871
12.649	0.866
12.69	0.866
12.731	0.861
12.7721	0.859
12.8131	0.854
12.8542	0.849
12.8952	0.842
12.9362	0.83
12.9773	0.823
13.0183	0.815
13.0593	0.806
13.1004	0.794
13.1414	0.779
13.1824	0.758
13.2235	0.729
13.2645	0.678
13.3055	0.606
13.3466	0.521
13.3876	0.464
13.4286	0.401
13.4697	0.442
13.5107	0.661
13.5517	0.729
13.5928	0.747
13.6338	0.755
13.6748	0.758
13.7159	0.753
13.7569	0.74
13.7979	0.724
13.839	0.682
13.88	0.627
13.9211	0.533
13.9621	0.418
14.0031	0.348
14.0442	0.398
14.0852	0.512
14.1262	0.606
14.1673	0.652
14.2083	0.671
14.2493	0.68
14.2904	0.685
14.3314	0.685
14.3724	0.683
14.4135	0.68
14.4545	0.676
14.4955	0.675
14.5366	0.67
14.5776	0.663
14.6186	0.651
14.6597	0.646
14.7007	0.637
14.7417	0.63
14.7828	0.62
14.8238	0.611
14.8649	0.603
14.9059	0.594
14.9469	0.584
14.988	0.581
15.029	0.57
15.07	0.558
15.1111	0.55
15.1521	0.538
15.1931	0.528
15.2342	0.514
15.2752	0.504
15.3162	0.49
15.3573	0.48
15.3983	0.468
15.4393	0.446
15.4804	0.415
15.5214	0.377
15.5624	0.369
15.6035	0.379
15.6445	0.394
15.6855	0.403
15.7266	0.408
15.7676	0.41
15.8086	0.41
15.8497	0.406
