Infrared Spectrum: DIMETHYLAMINO(TRIMETHYL)SILANE
Formula: C5 H15 N Si
CAS: 2083-91-2
State: SOLUTION (6% IN CCl4 FOR 3800-1300, 2% IN CS2 FOR 1300-650, AND 6% IN CCl4 FOR 650-250 CM^-^1)
Class: COBLENTZ III
Instrument: PERKIN-ELMER 521 (GRATING)
Instrument parameters: FILTERS AT 3150, 2500, 2000, 1150, 700, 410. GRATING CHANGES: 2000, 630 CM^-^1
Sampling: TRANSMISSION
Path length: 0.011 CM, 0.011 CM, AND 0.020 CM
Resolution: 2
Origin: DOW CORNING CORP.
1/CM	TRANSMITTANCE
239.437	0.718
248.827	0.715
258.216	0.712
267.606	0.712
276.996	0.681
286.385	0.639
295.775	0.558
305.165	0.49
314.555	0.502
323.944	0.515
333.334	0.486
342.724	0.632
352.113	0.727
361.503	0.732
370.893	0.708
380.282	0.711
389.672	0.736
399.062	0.763
408.451	0.791
417.841	0.805
427.231	0.817
436.62	0.826
446.01	0.837
455.4	0.831
464.79	0.813
474.179	0.748
483.569	0.841
492.959	0.861
502.348	0.865
511.738	0.865
521.128	0.866
530.517	0.87
539.907	0.893
549.297	0.893
558.686	0.9
568.076	0.897
577.466	0.887
586.856	0.859
596.245	0.888
605.635	0.893
615.025	0.887
624.414	0.85
633.804	0.741
643.194	0.751
652.583	0.751
661.973	0.751
671.363	0.643
680.752	0.659
690.142	0.754
699.532	0.808
708.922	0.832
718.311	0.826
727.701	0.806
737.091	0.731
746.48	0.611
755.87	0.629
765.26	0.761
774.649	0.817
784.039	0.826
793.429	0.816
802.818	0.777
812.208	0.71
821.598	0.555
830.987	0.2
840.377	0.152
849.767	0.203
859.157	0.231
868.546	0.595
877.936	0.754
887.326	0.819
896.715	0.862
906.105	0.884
915.495	0.904
924.884	0.92
934.274	0.916
943.664	0.913
953.053	0.887
962.443	0.838
971.833	0.682
981.223	0.311
990.612	0.2302
1000	0.6341
1009.39	0.808
1018.78	0.838
1028.17	0.846
1037.56	0.844
1046.95	0.808
1056.34	0.755
1065.73	0.732
1075.12	0.759
1084.51	0.85
1093.9	0.87
1103.29	0.882
1112.68	0.882
1122.07	0.879
1131.46	0.868
1140.85	0.829
1150.24	0.806
1159.63	0.7239
1169.02	0.575
1178.41	0.58
1187.8	0.7561
1197.19	0.876
1206.58	0.902
1215.96	0.893
1225.35	0.873
1234.74	0.759
1244.13	0.504
1253.52	0.483
1262.91	0.584
1272.3	0.594
1281.69	0.477
1291.08	0.656
1300.47	0.753
1309.86	0.763
1319.25	0.763
1328.64	0.763
1338.03	0.762
1347.42	0.752
1356.81	0.754
1366.2	0.758
1375.59	0.752
1384.98	0.738
1394.37	0.676
1403.76	0.654
1413.15	0.672
1422.54	0.689
1431.93	0.633
1441.32	0.537
1450.71	0.495
1460.1	0.563
1469.49	0.583
1478.88	0.61
1488.27	0.715
1497.66	0.784
1507.05	0.802
1516.43	0.851
1525.82	0.853
1535.21	0.85
1544.6	0.847
1553.99	0.843
1563.38	0.831
1572.77	0.826
1582.16	0.838
1591.55	0.855
1600.94	0.855
1610.33	0.86
1619.72	0.856
1629.11	0.855
1638.5	0.852
1647.89	0.829
1657.28	0.812
1666.67	0.829
1676.06	0.844
1685.45	0.854
1694.84	0.865
1704.23	0.868
1713.62	0.868
1723.01	0.868
1732.4	0.867
1741.79	0.853
1751.18	0.855
1760.57	0.872
1769.96	0.876
1779.35	0.879
1788.74	0.888
1798.13	0.887
1807.52	0.882
1816.9	0.881
1826.29	0.874
1835.68	0.873
1845.07	0.874
1854.46	0.875
1863.85	0.868
1873.24	0.87
1882.63	0.881
1892.02	0.882
1901.41	0.882
1910.8	0.874
1920.19	0.869
1929.58	0.863
1938.97	0.858
1948.36	0.865
1957.75	0.87
1967.14	0.877
1976.53	0.882
1985.92	0.884
1995.31	0.882
2004.7	0.8625
2014.09	0.859
2023.48	0.8613
2032.87	0.862
2042.26	0.86
2051.65	0.863
2061.04	0.862
2070.43	0.858
2079.82	0.853
2089.21	0.851
2098.6	0.853
2107.99	0.855
2117.38	0.855
2126.76	0.854
2136.15	0.853
2145.54	0.8535
2154.93	0.8571
2164.32	0.86
2173.71	0.861
2183.1	0.8658
2192.49	0.868
2201.88	0.867
2211.27	0.865
2220.66	0.862
2230.05	0.859
2239.44	0.8616
2248.83	0.866
2258.22	0.867
2267.61	0.8713
2277	0.8686
2286.39	0.874
2295.78	0.874
2305.17	0.8724
2314.56	0.869
2323.95	0.8697
2333.34	0.873
2342.73	0.873
2352.12	0.8739
2361.51	0.874
2370.9	0.874
2380.29	0.872
2389.68	0.872
2399.07	0.874
2408.46	0.874
2417.85	0.8686
2427.23	0.868
2436.62	0.864
2446.01	0.858
2455.4	0.858
2464.79	0.859
2474.18	0.859
2483.57	0.856
2492.96	0.854
2502.35	0.853
2511.74	0.858
2521.13	0.8609
2530.52	0.8601
2539.91	0.8598
2549.3	0.856
2558.69	0.8537
2568.08	0.8534
2577.47	0.855
2586.86	0.8571
2596.25	0.859
2605.64	0.855
2615.03	0.854
2624.42	0.853
2633.81	0.8511
2643.2	0.85
2652.59	0.847
2661.98	0.846
2671.37	0.8449
2680.76	0.8357
2690.15	0.8318
2699.54	0.8237
2708.93	0.8039
2718.32	0.7768
2727.7	0.7575
2737.09	0.7211
2746.48	0.683
2755.87	0.631
2765.26	0.535
2774.65	0.3838
2784.04	0.1494
2793.43	0.1943
2802.82	0.4211
2812.21	0.4661
2821.6	0.3934
2830.99	0.2841
2840.38	0.2064
2849.77	0.229
2859.16	0.209
2868.55	0.233
2877.94	0.2693
2887.33	0.2143
2896.72	0.2096
2906.11	0.317
2915.5	0.3967
2924.89	0.4181
2934.28	0.3707
2943.67	0.2811
2953.06	0.1293
2962.45	0.0958
2971.84	0.2026
2981.23	0.4382
2990.62	0.6067
3000.01	0.7057
3009.4	0.7434
3018.79	0.7615
3028.18	0.7801
3037.56	0.7866
3046.95	0.7924
3056.34	0.7978
3065.73	0.8028
3075.12	0.8099
3084.51	0.813
3093.9	0.82
3103.29	0.8269
3112.68	0.832
3122.07	0.8266
3131.46	0.8482
3140.85	0.8513
3150.24	0.853
3159.63	0.8569
3169.02	0.8605
3178.41	0.862
3187.8	0.8657
3197.19	0.8697
3206.58	0.873
3215.97	0.8749
3225.36	0.876
3234.75	0.879
3244.14	0.8811
3253.53	0.882
3262.92	0.882
3272.31	0.882
3281.7	0.8823
3291.09	0.8834
3300.48	0.8849
3309.87	0.8865
3319.26	0.889
3328.65	0.889
3338.03	0.889
3347.42	0.889
3356.81	0.889
3366.2	0.889
3375.59	0.891
3384.98	0.893
3394.37	0.894
3403.76	0.894
3413.15	0.894
3422.54	0.894
3431.93	0.894
3441.32	0.894
3450.71	0.895
3460.1	0.895
3469.49	0.895
3478.88	0.895
3488.27	0.894
3497.66	0.893
3507.05	0.893
3516.44	0.893
3525.83	0.893
3535.22	0.8929
3544.61	0.8909
3554	0.89
3563.39	0.889
3572.78	0.886
3582.17	0.887
3591.56	0.889
3600.95	0.8895
3610.34	0.8864
3619.73	0.883
3629.12	0.88
3638.5	0.8762
3647.89	0.875
3657.28	0.876
3666.67	0.88
3676.06	0.881
3685.45	0.879
3694.84	0.877
3704.23	0.876
3713.62	0.8747
3723.01	0.873
3732.4	0.873
3741.79	0.873
3751.18	0.874
3760.57	0.875
3769.96	0.877
3779.35	0.877
3788.74	0.877
