Infrared Spectrum: 3,4-Methylenedioxybenzyl chloride
Formula: C 8 H 7 Cl O 2
CAS: 20850-43-5
State: gas
Origin: EPA-IR VAPOR PHASE LIBRARY
1/CM	ABSORBANCE
549.8	0.000932
559.445	0.0008085
569.09	0.001899
578.734	0.003949
588.379	0.007259
598.024	0.004709
607.669	0.003479
617.313	0.003999
626.958	0.003799
636.603	0.002879
646.248	0.002439
655.893	0.002479
665.537	0.003689
675.182	0.005389
684.827	0.010239
694.472	0.019189
704.116	0.027719
713.761	0.028869
723.406	0.027869
733.051	0.025629
742.695	0.014979
752.34	0.008549
761.985	0.013729
771.63	0.016949
781.275	0.010449
790.919	0.010819
800.564	0.018169
810.209	0.022029
819.854	0.013919
829.498	0.007589
839.143	0.007169
848.788	0.008209
858.433	0.009349
868.078	0.007139
877.722	0.005089
887.367	0.004379
897.012	0.004689
906.657	0.007509
916.301	0.015399
925.946	0.029119
935.591	0.036389
945.236	0.032559
954.88	0.022889
964.525	0.011399
974.17	0.005869
983.815	0.004459
993.46	0.004469
1003.1	0.006389
1012.75	0.010839
1022.39	0.019579
1032.04	0.037699
1041.68	0.063779
1051.33	0.071719
1060.97	0.052169
1070.62	0.026369
1080.26	0.016299
1089.91	0.018719
1099.55	0.020649
1109.2	0.018839
1118.84	0.016949
1128.49	0.011919
1138.13	0.007109
1147.78	0.005449
1157.42	0.004769
1167.07	0.004789
1176.71	0.008749
1186.36	0.025739
1196	0.037239
1205.64	0.026489
1215.29	0.027459
1224.93	0.039459
1234.58	0.076279
1244.22	0.170769
1253.87	0.189179
1263.51	0.084919
1273.16	0.050579
1282.8	0.033039
1292.45	0.016399
1302.09	0.010739
1311.74	0.008679
1321.38	0.009499
1331.03	0.011609
1340.67	0.014929
1350.32	0.025769
1359.96	0.028569
1369.61	0.011389
1379.25	0.005479
1388.9	0.005679
1398.54	0.007209
1408.18	0.008709
1417.83	0.012679
1427.47	0.026109
1437.12	0.064699
1446.76	0.091039
1456.41	0.042819
1466.05	0.023569
1475.7	0.040489
1485.34	0.119079
1494.99	0.145109
1504.63	0.070309
1514.28	0.038059
1523.92	0.014189
1533.57	0.009539
1543.21	0.005849
1552.86	0.003729
1562.5	0.003229
1572.15	0.003359
1581.79	0.003869
1591.44	0.004339
1601.08	0.005609
1610.73	0.006149
1620.37	0.005529
1630.01	0.004469
1639.66	0.002759
1649.3	0.001789
1658.95	0.001459
1668.59	0.0013831
1678.24	0.001519
1687.88	0.001789
1697.53	0.002109
1707.17	0.002799
1716.82	0.003179
1726.46	0.002879
1736.11	0.002449
1745.75	0.002329
1755.4	0.002369
1765.04	0.002209
1774.69	0.001889
1784.33	0.001479
1793.98	0.0012677
1803.62	0.001509
1813.27	0.001849
1822.91	0.002689
1832.55	0.003559
1842.2	0.003619
1851.84	0.003189
1861.49	0.003319
1871.13	0.003589
1880.78	0.003319
1890.42	0.002419
1900.07	0.001699
1909.71	0.0013218
1919.36	0.0010498
1929	0.0010664
1938.65	0.0011779
1948.29	0.0012223
1957.94	0.0011663
1967.58	0.0012304
1977.23	0.0012348
1986.87	0.0012641
1996.52	0.001609
2006.16	0.001769
2015.81	0.001779
2025.45	0.001819
2035.1	0.002169
2044.74	0.002399
2054.38	0.002469
2064.03	0.002039
2073.67	0.001699
2083.32	0.001519
2092.96	0.001349
2102.61	0.0010326
2112.25	0.0009354
2121.9	0.0008827
2131.54	0.0007924
2141.19	0.0007868
2150.83	0.0007603
2160.48	0.0008473
2170.12	0.0008134
2179.77	0.000923
2189.41	0.0010931
2199.06	0.0012066
2208.7	0.0012509
2218.35	0.0011968
2227.99	0.001039
2237.64	0.0009433
2247.28	0.0010786
2256.92	0.0010154
2266.57	0.0010225
2276.21	0.0009391
2285.86	0.0010043
2295.5	0.0012155
2305.15	0.0013253
2314.79	0.0012371
2324.44	0.0012063
2334.08	0.0010847
2343.73	0.0010459
2353.37	0.0010187
2363.02	0.0010834
2372.66	0.0011891
2382.31	0.0011002
2391.95	0.0009654
2401.6	0.0007745
2411.24	0.0006515
2420.89	0.0006275
2430.53	0.0007477
2440.18	0.0007761
2449.82	0.0008554
2459.47	0.000733
2469.11	0.000836
2478.75	0.0007511
2488.4	0.0008467
2498.04	0.0009571
2507.69	0.0010609
2517.33	0.0008381
2526.98	0.0011813
2536.62	0.001419
2546.27	0.001559
2555.91	0.001519
2565.56	0.001489
2575.2	0.001469
2584.85	0.001469
2594.49	0.001719
2604.14	0.002099
2613.78	0.001999
2623.43	0.0013245
2633.07	0.0009718
2642.72	0.0009981
2652.36	0.0009995
2662.01	0.0011149
2671.65	0.001519
2681.29	0.001919
2690.94	0.002159
2700.58	0.002139
2710.23	0.002129
2719.87	0.001989
2729.52	0.001909
2739.16	0.002109
2748.81	0.002479
2758.45	0.003549
2768.1	0.006819
2777.74	0.009049
2787.39	0.005149
2797.03	0.003279
2806.68	0.003449
2816.32	0.003859
2825.97	0.004789
2835.61	0.006479
2845.26	0.008509
2854.9	0.010989
2864.55	0.016549
2874.19	0.023749
2883.84	0.026749
2893.48	0.023689
2903.12	0.022389
2912.77	0.023379
2922.41	0.023369
2932.06	0.021049
2941.7	0.019879
2951.35	0.020119
2960.99	0.020029
2970.64	0.018079
2980.28	0.013139
2989.93	0.010329
2999.57	0.010649
3009.22	0.012149
3018.86	0.013419
3028.51	0.011009
3038.15	0.009109
3047.8	0.007869
3057.44	0.005739
3067.09	0.005379
3076.73	0.005599
3086.38	0.004579
3096.02	0.002829
3105.67	0.002169
3115.31	0.001569
3124.95	0.0010658
3134.6	0.0007495
3144.24	0.0005377
3153.89	0.0004125
3163.53	0.00028
3173.18	0.0003465
3182.82	0.00042689
3192.47	0.00038796
3202.11	0.00045096
3211.76	0.00045739
3221.4	0.00045646
3231.05	0.00045021
3240.69	0.000149
3250.34	0.0006486
3259.98	0.00047932
3269.63	0.000198
3279.27	0.000271
3288.92	0.000346
3298.56	0.0003169
3308.21	0.0003134
3317.85	0.000222
3327.49	0.00012
3337.14	0.0003028
3346.78	0.000278
3356.43	0.000238
3366.07	0.000228
3375.72	0.0003604
3385.36	0
3395.01	0.000226
3404.65	0.0002893
3414.3	0.000284
3423.94	0.000234
3433.59	0.000263
3443.23	0.000244
3452.88	0.0003265
3462.52	0.000197
3472.17	0.0003554
3481.81	0.00041527
3491.46	0.0003609
3501.1	0.0003434
3510.75	0.000216
3520.39	0.000222
3530.04	0.000145
3539.68	0.00043047
3549.32	0.0003198
3558.97	0.000202
3568.61	0.00025
3578.26	0.000251
3587.9	8.4e-05
3597.55	0.0003582
3607.19	0.0003475
3616.84	0.0003113
3626.48	0.0003088
3636.13	0.000187
3645.77	0.000178
3655.42	0.0004965
3665.06	0.0005683
3674.71	0.0003658
3684.35	0.00043519
3694	0.0003198
3703.64	0.0003176
3713.29	0.0005256
3722.93	0.0003069
3732.58	0.00038558
3742.22	0.00047238
3751.86	0.00045644
3761.51	0.0003243
3771.15	0.000267
3780.8	0.00018
3790.44	0.000313
3800.09	0.000252
3809.73	0.0003647
3819.38	0.000396027
3829.02	0.0005414
3838.67	0.00044854
3848.31	0.0004908
3857.96	0.0007218
3867.6	0.00038499
3877.25	0.00044122
3886.89	0.0004055
3896.54	0.00048384
3906.18	0.0003356
3915.83	0.0005791
3925.47	0.0004993
3935.12	0.0004556
3944.76	0.0005006
3954.41	0.0007665
3964.05	0.00043809
3973.69	0.0005444
3983.34	0.0005045
3992.98	0.00046716
