Infrared Spectrum: 3-Methoxyphenoxyacetic acid
Formula: C 9 H 10 O 4
CAS: 2088-24-6
State: gas
Origin: EPA-IR VAPOR PHASE LIBRARY
1/CM	ABSORBANCE
549.8	0.006652
559.445	0.006902
569.09	0.007352
578.735	0.007552
588.38	0.007482
598.025	0.007822
607.67	0.008742
617.315	0.009172
626.96	0.008742
636.605	0.007802
646.251	0.007192
655.896	0.006562
665.541	0.006742
675.186	0.008522
684.831	0.009892
694.476	0.006312
704.121	0.003412
713.766	0.002512
723.411	0.002662
733.056	0.003082
742.701	0.003882
752.346	0.006172
761.991	0.007702
771.636	0.006122
781.281	0.003102
790.926	0.001592
800.571	0.0013654
810.216	0.001752
819.861	0.002782
829.507	0.004352
839.152	0.005842
848.797	0.006132
858.442	0.005592
868.087	0.004512
877.732	0.003132
887.377	0.002692
897.022	0.003302
906.667	0.004712
916.312	0.006282
925.957	0.005882
935.602	0.004042
945.247	0.002812
954.892	0.002132
964.537	0.001982
974.182	0.002312
983.827	0.002822
993.472	0.003562
1003.12	0.003962
1012.76	0.004622
1022.41	0.007062
1032.05	0.012152
1041.7	0.019142
1051.34	0.022602
1060.99	0.020752
1070.63	0.020492
1080.28	0.022182
1089.92	0.018152
1099.57	0.013802
1109.21	0.020412
1118.86	0.031702
1128.5	0.031942
1138.15	0.038322
1147.79	0.058222
1157.44	0.054182
1167.08	0.039812
1176.73	0.030942
1186.37	0.028762
1196.02	0.032892
1205.66	0.023022
1215.31	0.012202
1224.95	0.008692
1234.6	0.008812
1244.24	0.011922
1253.89	0.018312
1263.53	0.023992
1273.18	0.026142
1282.82	0.027972
1292.47	0.024312
1302.11	0.017622
1311.76	0.014412
1321.4	0.015162
1331.05	0.017052
1340.69	0.016782
1350.34	0.013632
1359.98	0.011032
1369.63	0.008462
1379.27	0.006312
1388.92	0.005482
1398.56	0.005202
1408.21	0.004922
1417.85	0.005222
1427.5	0.007362
1437.14	0.011762
1446.79	0.015262
1456.43	0.015092
1466.08	0.014902
1475.73	0.018682
1485.37	0.032662
1495.02	0.031102
1504.66	0.010942
1514.31	0.004712
1523.95	0.003612
1533.6	0.003632
1543.24	0.003982
1552.89	0.004822
1562.53	0.006712
1572.18	0.011642
1581.82	0.024622
1591.47	0.044382
1601.11	0.047852
1610.76	0.032142
1620.4	0.018642
1630.05	0.008682
1639.69	0.004452
1649.34	0.002742
1658.98	0.002092
1668.63	0.001742
1678.27	0.001722
1687.92	0.001712
1697.56	0.001812
1707.21	0.002112
1716.85	0.002392
1726.5	0.003132
1736.14	0.004382
1745.79	0.006362
1755.43	0.008932
1765.08	0.013782
1774.72	0.025522
1784.37	0.029872
1794.01	0.026522
1803.66	0.035902
1813.3	0.035552
1822.95	0.018922
1832.59	0.008712
1842.24	0.005172
1851.88	0.003342
1861.53	0.002302
1871.17	0.001822
1880.82	0.0015158
1890.46	0.0013368
1900.11	0.0013367
1909.75	0.0012767
1919.4	0.0010295
1929.04	0.0007767
1938.69	0.0006732
1948.33	0.00062632
1957.98	0.00058091
1967.62	0.00059588
1977.27	0.00057707
1986.91	0.00055222
1996.56	0.00058202
2006.2	0.00057439
2015.85	0.00054418
2025.49	0.00059888
2035.14	0.00059302
2044.78	0.000551643
2054.43	0.00062427
2064.07	0.000551671
2073.72	0.0006664
2083.36	0.00061551
2093.01	0.00058946
2102.65	0.0004869
2112.3	0.000487
2121.94	0.0004676
2131.59	0.0005013
2141.23	0.0005289
2150.88	0.00056101
2160.52	0.00060854
2170.17	0.0006797
2179.81	0.0007128
2189.46	0.0008003
2199.1	0.0006849
2208.75	0.0006716
2218.39	0.00060778
2228.04	0.000557035
2237.68	0.00054911
2247.33	0.0004666
2256.97	0.00038
2266.62	0.000326
2276.26	0.000332
2285.91	0.000334
2295.55	0.000403
2305.2	0.000488
2314.84	0.00062961
2324.49	0.0007527
2334.13	0.0007194
2343.78	0.0006644
2353.42	0.0007128
2363.07	0.0007903
2372.72	0.0007517
2382.36	0.00057425
2392.01	0.0004715
2401.65	0.000389
2411.3	0.000423
2420.94	0.000451
2430.59	0.0004598
2440.23	0.000459
2449.88	0.000402
2459.52	0.000423
2469.17	0.000428
2478.81	0.0004567
2488.46	0.0004538
2498.1	0.000376
2507.75	0.000356
2517.39	0.000371
2527.04	0.000318
2536.68	0.000319
2546.33	0.00032
2555.97	0.000312
2565.62	0.000349
2575.26	0.000299
2584.91	0.000291
2594.55	0.000294
2604.2	0.000263
2613.84	0.000262
2623.49	0.000253
2633.13	0.000232
2642.78	0.000213
2652.42	0.000167
2662.07	0.000205
2671.71	0.000186
2681.36	0.000181
2691	0.000194
2700.65	0.000204
2710.29	0.000277
2719.94	0.000267
2729.58	0.000258
2739.23	0.000266
2748.87	0.000247
2758.52	0.000296
2768.16	0.00043
2777.81	0.0005142
2787.45	0.0005995
2797.1	0.00062727
2806.74	0.0006839
2816.39	0.0010367
2826.03	0.001652
2835.68	0.003202
2845.32	0.004782
2854.97	0.003572
2864.61	0.002562
2874.26	0.002402
2883.9	0.002412
2893.55	0.003052
2903.19	0.003792
2912.84	0.004892
2922.48	0.006152
2932.13	0.007272
2941.77	0.009232
2951.42	0.010032
2961.06	0.008262
2970.71	0.005892
2980.35	0.004032
2990	0.003632
2999.64	0.004852
3009.29	0.006162
3018.93	0.004142
3028.58	0.002612
3038.22	0.002532
3047.87	0.002412
3057.51	0.002102
3067.16	0.002302
3076.8	0.002762
3086.45	0.003042
3096.09	0.002552
3105.74	0.001612
3115.38	0.0008466
3125.03	0.00058016
3134.67	0.000397
3144.32	0.000246
3153.96	0.000257
3163.61	0.0003
3173.25	0.000108
3182.9	7.8e-05
3192.54	8.4e-05
3202.19	0.000126
3211.83	0.000146
3221.48	8.8e-05
3231.12	6.5e-05
3240.77	0.000124
3250.41	0.000143
3260.06	0.000187
3269.7	6.2e-05
3279.35	6.7e-05
3289	0.000121
3298.64	5.9e-05
3308.29	0.000153
3317.93	0.000141
3327.58	8.8e-05
3337.22	6.2e-05
3346.87	7.2e-05
3356.51	0.000164
3366.16	0.000113
3375.8	0.000162
3385.45	5.7e-05
3395.09	0.000115
3404.74	0.000193
3414.38	0.000275
3424.03	0.000299
3433.67	0.000313
3443.32	0.000254
3452.96	0.000377
3462.61	0.000334
3472.25	0.0004634
3481.9	0.0007325
3491.54	0.0010899
3501.19	0.001932
3510.83	0.003322
3520.48	0.006022
3530.12	0.006472
3539.77	0.004472
3549.41	0.003522
3559.06	0.004612
3568.7	0.011502
3578.35	0.015672
3587.99	0.006772
3597.64	0.002382
3607.28	0.0012294
3616.93	0.0008007
3626.57	0.00064369
3636.22	0.00043
3645.86	0.000402
3655.51	0.000295
3665.15	0.000318
3674.8	0.000125
3684.44	0.000282
3694.09	0.000215
3703.73	0.000232
3713.38	0.000262
3723.02	0.000164
3732.67	0.000248
3742.31	0.000295
3751.96	0.000244
3761.6	0.000316
3771.25	0.000209
3780.89	0.000335
3790.54	0.000222
3800.18	0.00021
3809.83	0.000295
3819.47	0.000127
3829.12	0.0003
3838.76	0.000284
3848.41	0.000152
3858.05	0.000227
3867.7	0.000236
3877.34	0.000192
3886.99	0.000127
3896.63	0.000263
3906.28	0.00026
3915.92	0.000185
3925.57	0.000219
3935.21	0.000247
3944.86	0.000276
3954.5	0.0002
3964.15	0.000273
3973.79	7.2e-05
3983.44	0.00029
3993.08	0.000333
