Infrared Spectrum: 1-(2-Naphthyl)-3-(2-thienyl)-prop-2-en-1-one
Formula: C 17 H 12 O S
CAS: 20894-63-7
State: gas
Origin: EPA-IR VAPOR PHASE LIBRARY
1/CM	ABSORBANCE
549.8	0.001701
559.445	0.006581
569.09	0.006711
578.734	0.004121
588.379	0.001351
598.024	0.0009318
607.669	0.001301
617.313	0.0010746
626.958	0.0004738
636.603	0.0010094
646.248	0.0009563
655.893	0.0007149
665.537	0.001751
675.182	0.004771
684.827	0.005731
694.472	0.016881
704.116	0.015051
713.761	0.006821
723.406	0.004111
733.051	0.003821
742.695	0.010351
752.34	0.006961
761.985	0.003111
771.63	0.002221
781.275	0.002181
790.919	0.003351
800.564	0.007041
810.209	0.014591
819.854	0.010881
829.498	0.004571
839.143	0.003921
848.788	0.007081
858.433	0.008221
868.078	0.003241
877.722	0.002371
887.367	0.002071
897.012	0.002491
906.657	0.002131
916.301	0.001911
925.946	0.001851
935.591	0.003221
945.236	0.007581
954.88	0.007151
964.525	0.008281
974.17	0.006281
983.815	0.004281
993.46	0.003961
1003.1	0.007071
1012.75	0.010041
1022.39	0.007471
1032.04	0.006721
1041.68	0.011291
1051.33	0.004251
1060.97	0.003441
1070.62	0.003031
1080.26	0.002411
1089.91	0.001286
1099.55	0.001541
1109.2	0.002631
1118.84	0.007121
1128.49	0.019071
1138.13	0.005201
1147.78	0.004251
1157.42	0.007191
1167.07	0.014641
1176.71	0.022961
1186.36	0.015201
1196	0.011611
1205.64	0.012211
1215.29	0.010751
1224.93	0.011181
1234.58	0.007741
1244.22	0.006181
1253.87	0.005451
1263.51	0.008591
1273.16	0.014321
1282.8	0.031031
1292.45	0.021491
1302.09	0.016311
1311.74	0.015091
1321.38	0.005721
1331.03	0.003331
1340.67	0.003601
1350.32	0.007221
1359.96	0.011581
1369.61	0.010281
1379.25	0.005741
1388.9	0.004481
1398.54	0.003301
1408.18	0.002561
1417.83	0.003421
1427.47	0.003471
1437.12	0.003161
1446.76	0.002091
1456.41	0.002761
1466.05	0.005161
1475.7	0.003291
1485.34	0.001841
1494.99	0.002131
1504.63	0.003221
1514.28	0.004801
1523.92	0.002711
1533.57	0.001961
1543.21	0.002031
1552.86	0.002341
1562.5	0.003471
1572.15	0.005781
1581.79	0.009691
1591.44	0.021051
1601.08	0.052161
1610.73	0.038361
1620.37	0.015141
1630.01	0.011941
1639.66	0.006931
1649.3	0.006881
1658.95	0.013411
1668.59	0.028401
1678.24	0.031431
1687.88	0.012141
1697.53	0.005091
1707.17	0.003371
1716.82	0.002411
1726.46	0.001631
1736.11	0.001331
1745.75	0.001351
1755.4	0.001441
1765.04	0.001411
1774.69	0.001551
1784.33	0.002101
1793.98	0.002341
1803.62	0.001591
1813.27	0.001591
1822.91	0.001491
1832.55	0.001421
1842.2	0.0010184
1851.84	0.0007349
1861.49	0.0009575
1871.13	0.0009993
1880.78	0.000898
1890.42	0.0010406
1900.07	0.0011595
1909.71	0.0012597
1919.36	0.0011959
1929	0.0010768
1938.65	0.0011826
1948.29	0.001321
1957.94	0.0005763
1967.58	0.0005036
1977.23	0.0005739
1986.87	0.00062
1996.52	0.0007253
2006.16	0.0005962
2015.81	0.0005499
2025.45	0.0005304
2035.1	0.0005679
2044.74	0.0004632
2054.38	0.0004865
2064.03	0.0005207
2073.67	0.0005551
2083.32	0.0005138
2092.96	0.0005831
2102.61	0.0006044
2112.25	0.0006268
2121.9	0.0005828
2131.54	0.0006288
2141.19	0.0005337
2150.83	0.0005349
2160.48	0.0005937
2170.12	0.0005317
2179.77	0.0005852
2189.41	0.0004641
2199.06	0.0004984
2208.7	0.00034493
2218.35	0.0003939
2227.99	0.0004697
2237.64	0.0006433
2247.28	0.0005209
2256.92	0.0005114
2266.57	0.0005223
2276.21	0.0007648
2285.86	0.0007807
2295.5	0.0007547
2305.15	0.0007019
2314.79	0.0006405
2324.44	0.0005382
2334.08	0.0006041
2343.73	0.0005846
2353.37	0.0006301
2363.02	0.000803
2372.66	0.0004771
2382.31	0.0005274
2391.95	0.0005172
2401.6	0.0005984
2411.24	0.0005126
2420.89	0.0006036
2430.53	0.0005926
2440.18	0.0006042
2449.82	0.0006335
2459.47	0.0006888
2469.11	0.0006681
2478.75	0.0005613
2488.4	0.0004864
2498.04	0.00031278
2507.69	0.0005257
2517.33	0.00037239
2526.98	0.0004826
2536.62	0.0004412
2546.27	0.0005345
2555.91	0.0006493
2565.56	0.0005754
2575.2	0.00036703
2584.85	0.0006905
2594.49	0.00039698
2604.14	0.0006803
2613.78	0.000672
2623.43	0.0006874
2633.07	0.0005485
2642.72	0.0005819
2652.36	0.0005066
2662.01	0.0004985
2671.65	0.0007778
2681.29	0.0007094
2690.94	0.000406
2700.58	0.0006092
2710.23	0.0004376
2719.87	0.0004475
2729.52	0.000546
2739.16	0.0004646
2748.81	0.0004957
2758.45	0.000619
2768.1	0.0005801
2777.74	0.0005765
2787.39	0.000588
2797.03	0.0005198
2806.68	0.000685
2816.32	0.000617
2825.97	0.0005576
2835.61	0.0005631
2845.26	0.0006992
2854.9	0.0006643
2864.55	0.0005186
2874.19	0.0007959
2883.84	0.0004558
2893.48	0.0006985
2903.12	0.0007545
2912.77	0.0006191
2922.41	0.0007031
2932.06	0.000847
2941.7	0.0006663
2951.35	0.0008493
2960.99	0.0007778
2970.64	0.0011385
2980.28	0.0009834
2989.93	0.0010004
2999.57	0.0012618
3009.22	0.001481
3018.86	0.002171
3028.51	0.003021
3038.15	0.003511
3047.8	0.004211
3057.44	0.008461
3067.09	0.012111
3076.73	0.008241
3086.38	0.005251
3096.02	0.003281
3105.67	0.001391
3115.31	0.0010938
3124.95	0.0006297
3134.6	0.0005526
3144.24	0.00035389
3153.89	0.00033002
3163.53	0.0005714
3173.18	0.0005758
3182.82	0.00039801
3192.47	0.0004948
3202.11	0.000489
3211.76	0.0004613
3221.4	0.0005884
3231.05	0.000775
3240.69	0.0004993
3250.34	0.0002119
3259.98	0.0004544
3269.63	0.0004469
3279.27	0.0004462
3288.92	0.0007174
3298.56	0.0006299
3308.21	0.00034036
3317.85	0.0005343
3327.49	0.0009602
3337.14	0.0006566
3346.78	0.0005541
3356.43	0.0004414
3366.07	0.0007177
3375.72	0.000195
3385.36	0.0006078
3395.01	0.0004892
3404.65	0.0002739
3414.3	0.00031818
3423.94	0.000447
3433.59	0.0006151
3443.23	0.00029187
3452.88	0.00036093
3462.52	0.00032955
3472.17	0.000102
3481.81	0.000407
3491.46	0.00027
3501.1	0.0004092
3510.75	0.000107
3520.39	0.000128
3530.04	0.000138
3539.68	0.000117
3549.32	6.7e-05
3558.97	0.00034794
3568.61	0.00035131
3578.26	0.0002154
3587.9	0.00032558
3597.55	0.00038868
3607.19	0.00034358
3616.84	0.0002671
3626.48	0.0002615
3636.13	0.0002848
3645.77	0.00039445
3655.42	0.0004196
3665.06	0.0006997
3674.71	0.00038278
3684.35	0.0004276
3694	0.0004994
3703.64	0.0006469
3713.29	0.0002864
3722.93	0.00035601
3732.58	0.00033198
3742.22	8.4e-05
3751.86	0.0005853
3761.51	0.000115
3771.15	0.0004025
3780.8	0.0002623
3790.44	0.00033999
3800.09	0.00034825
3809.73	0.0006514
3819.38	0.0004723
3829.02	0.0005275
3838.67	0.0006953
3848.31	0.000608
3857.96	0.00031308
3867.6	0.0002138
3877.25	0.000386
3886.89	0.00012
3896.54	0.0006705
3906.18	0.0004769
3915.83	0.00054
3925.47	0.0004294
3935.12	0.0005119
3944.76	0.0005818
3954.41	0.0004562
3964.05	0.0004627
3973.69	0.0006403
3983.34	0.0007188
3992.98	0.0005322
