Infrared Spectrum: 1,6-Naphthalenedicarboxylic acid
Formula: C12 H8 O4
CAS: 2089-87-4
State: SOLID (SPLIT MULL), FLUOROLUBE FOR 3800-1330 CM^-^1, NUJOL FOR 1330-450 CM^-^1
Melting point: 300 C
Class: COBLENTZ III
Instrument: DOW KBr FOREPRISM-GRATING
Instrument parameters: BLAZED AT 3.5, 12.0, 20.0 MICRON AND CHANGED AT 5.0, 7.5, 14.9 MICRON
Sampling: TRANSMISSION
Resolution: 2
Origin: DOW CHEMICAL COMPANY
1/CM	TRANSMITTANCE
3800	0.7967
3791	0.7978
3782	0.7993
3773	0.8008
3764	0.8024
3755	0.8046
3746	0.8072
3737	0.8087
3728	0.8103
3719	0.8118
3710	0.8138
3701	0.8157
3692	0.8176
3683	0.8195
3674	0.821
3665	0.8208
3656	0.8158
3647	0.814
3638	0.813
3629	0.8125
3620	0.8122
3611	0.8122
3602	0.8128
3593	0.8137
3584	0.8126
3575	0.809
3566	0.8132
3557	0.8161
3548	0.8149
3539	0.8145
3530	0.8143
3521	0.8141
3512	0.8131
3503	0.8119
3494	0.8108
3485	0.8098
3476	0.8087
3467	0.8075
3458	0.8065
3449	0.8051
3440	0.8039
3431	0.8025
3422	0.8011
3413	0.7994
3404	0.7978
3395	0.7961
3386	0.7938
3377	0.7912
3368	0.7876
3359	0.7826
3350	0.7768
3341	0.77
3332	0.7622
3323	0.7534
3314	0.7415
3305	0.7288
3296	0.7161
3287	0.7038
3278	0.6922
3269	0.6811
3260	0.6701
3251	0.6568
3242	0.6392
3233	0.6186
3224	0.5962
3215	0.5746
3206	0.5559
3197	0.5412
3188	0.5279
3179	0.5144
3170	0.4955
3161	0.4781
3152	0.46
3143	0.441
3134	0.4215
3125	0.4022
3116	0.3823
3107	0.3597
3098	0.3393
3089	0.3205
3080	0.3029
3071	0.2904
3062	0.2817
3053	0.2808
3044	0.282
3035	0.2789
3026	0.2679
3017	0.2613
3008	0.2592
2999	0.2584
2990	0.2589
2981	0.2591
2972	0.2595
2963	0.2603
2954	0.2624
2945	0.2672
2936	0.271
2927	0.2731
2918	0.2735
2909	0.2738
2900	0.2738
2891	0.2737
2882	0.274
2873	0.2746
2864	0.2766
2855	0.2801
2846	0.2859
2837	0.2923
2828	0.2991
2819	0.3096
2810	0.3212
2801	0.3344
2792	0.348
2783	0.3637
2774	0.3816
2765	0.3975
2756	0.4097
2747	0.4206
2738	0.4308
2729	0.4392
2720	0.4362
2711	0.4286
2702	0.4209
2693	0.4125
2684	0.4045
2675	0.3968
2666	0.3912
2657	0.3871
2648	0.3848
2639	0.3845
2630	0.388
2621	0.3947
2612	0.4022
2603	0.4107
2594	0.4185
2585	0.4232
2576	0.4233
2567	0.4199
2558	0.4191
2549	0.4221
2540	0.4345
2531	0.4497
2522	0.4675
2513	0.481
2504	0.4951
2495	0.5106
2486	0.5276
2477	0.5496
2468	0.566
2459	0.5826
2450	0.599
2441	0.6154
2432	0.6339
2423	0.6491
2414	0.6617
2405	0.6744
2396	0.6875
2387	0.7006
2378	0.7098
2369	0.7143
2360	0.7178
2351	0.7237
2342	0.7312
2333	0.7401
2324	0.7508
2315	0.7653
2306	0.7735
2297	0.7799
2288	0.7865
2279	0.793
2270	0.7996
2261	0.8062
2252	0.8134
2243	0.8202
2234	0.827
2225	0.8336
2216	0.8395
2207	0.8438
2198	0.8448
2189	0.8458
2180	0.8514
2171	0.8609
2162	0.8688
2153	0.8753
2144	0.8808
2135	0.8855
2126	0.8905
2117	0.8955
2108	0.8999
2099	0.903
2090	0.9061
2081	0.909
2072	0.912
2063	0.9117
2054	0.9081
2045	0.9063
2036	0.9074
2027	0.9084
2018	0.9089
2009	0.9091
2000	0.9094
1991	0.8856
1982	0.8793
1973	0.8734
1964	0.8668
1955	0.8641
1946	0.8684
1937	0.8718
1928	0.8658
1919	0.8621
1910	0.8627
1901	0.8602
1892	0.8555
1883	0.8482
1874	0.8459
1865	0.8402
1856	0.832
1847	0.8309
1838	0.8345
1829	0.835
1820	0.8387
1811	0.8478
1802	0.8478
1793	0.8504
1784	0.8568
1775	0.8615
1766	0.8621
1757	0.8583
1748	0.8441
1739	0.7844
1730	0.6828
1721	0.3638
1712	0.0918
1703	0.0129
1694	0.0065
1685	0.015
1676	0.0842
1667	0.2557
1658	0.3743
1649	0.5442
1640	0.591
1631	0.544
1622	0.5586
1613	0.684
1604	0.69
1595	0.6414
1586	0.7394
1577	0.5744
1568	0.7945
1559	0.8318
1550	0.85
1541	0.8608
1532	0.8604
1523	0.8368
1514	0.5679
1505	0.7771
1496	0.8386
1487	0.8349
1478	0.7389
1469	0.4918
1460	0.5809
1451	0.6076
1442	0.3071
1433	0.3847
1424	0.5299
1415	0.5174
1406	0.5014
1397	0.6554
1388	0.7095
1379	0.703
1370	0.6322
1361	0.6106
1352	0.5546
1343	0.5555
1334	0.5205
1325	0.3051
1316	0.1292
1307	0.0926
1298	0.1265
1289	0.1894
1280	0.1894
1271	0.239
1262	0.1902
1253	0.1242
1244	0.3023
1235	0.523
1226	0.609
1217	0.5409
1208	0.4551
1199	0.5024
1190	0.6375
1181	0.6833
1172	0.7075
1163	0.5719
1154	0.6635
1145	0.7264
1136	0.771
1127	0.7921
1118	0.6678
1109	0.7595
1100	0.8011
1091	0.8022
1082	0.7793
1073	0.8093
1064	0.8282
1055	0.83
1046	0.8249
1037	0.7932
1028	0.8084
1019	0.8039
1010	0.7311
1001	0.7437
992	0.7798
983	0.7696
974	0.7489
965	0.7199
956	0.6932
947	0.6468
938	0.5798
929	0.4853
920	0.409
911	0.449
902	0.4593
893	0.5498
884	0.6136
875	0.6681
866	0.6676
857	0.6656
848	0.6942
839	0.693
830	0.7487
821	0.7603
812	0.6741
803	0.6822
794	0.7337
785	0.475
776	0.2494
767	0.6578
758	0.5139
749	0.6614
740	0.6551
731	0.7518
722	0.7482
713	0.8309
704	0.8521
695	0.8521
686	0.7482
677	0.736
668	0.8231
659	0.7764
650	0.8415
641	0.8454
632	0.765
623	0.5796
614	0.7851
605	0.8019
596	0.7876
587	0.8017
578	0.7412
569	0.7322
560	0.7368
551	0.7375
542	0.7571
533	0.808
524	0.8003
515	0.7255
506	0.6738
497	0.7633
488	0.7762
479	0.7622
470	0.7344
461	0.7288
