Infrared Spectrum: 1-[3-(Dimethylamino)propyl]indole
Formula: C13 H18 N2
CAS: 20892-46-0
State: SOLUTION (10% CCl4 FOR 3800-1330, 10% CS2 FOR 1330-450 CM^-^1)
Class: COBLENTZ III
Instrument: DOW KBr FOREPRISM-GRATING
Instrument parameters: BLAZED AT 3.5, 12.0, 20.0 MICRON AND CHANGED AT 5.0, 7.5, 14.9 MICRON
Sampling: TRANSMISSION
Path length: 0.011 CM, 0.010 CM
Resolution: 2
Origin: DOW CHEMICAL COMPANY
1/CM	TRANSMITTANCE
3800	0.9737
3791	0.9758
3782	0.9741
3773	0.9764
3764	0.977
3755	0.9774
3746	0.9787
3737	0.9817
3728	0.9825
3719	0.9806
3710	0.9828
3701	0.9827
3692	0.9747
3683	0.9678
3674	0.9658
3665	0.964
3656	0.9662
3647	0.9737
3638	0.9754
3629	0.9752
3620	0.9753
3611	0.9729
3602	0.969
3593	0.9677
3584	0.9673
3575	0.9451
3566	0.9613
3557	0.9631
3548	0.9653
3539	0.964
3530	0.9636
3521	0.9606
3512	0.9589
3503	0.9563
3494	0.9069
3485	0.8512
3476	0.9125
3467	0.9247
3458	0.9321
3449	0.9324
3440	0.9225
3431	0.9025
3422	0.8944
3413	0.9127
3404	0.9228
3395	0.9281
3386	0.932
3377	0.934
3368	0.9345
3359	0.9347
3350	0.9345
3341	0.9336
3332	0.9322
3323	0.9315
3314	0.931
3305	0.932
3296	0.9296
3287	0.9285
3278	0.9287
3269	0.9276
3260	0.9261
3251	0.9246
3242	0.9229
3233	0.9168
3224	0.907
3215	0.9043
3206	0.905
3197	0.9078
3188	0.9086
3179	0.902
3170	0.8994
3161	0.8987
3152	0.8971
3143	0.8909
3134	0.8775
3125	0.8476
3116	0.8555
3107	0.8234
3098	0.8116
3089	0.7406
3080	0.7507
3071	0.7077
3062	0.5997
3053	0.55
3044	0.6376
3035	0.6569
3026	0.6887
3017	0.7495
3008	0.7814
2999	0.7627
2990	0.5971
2981	0.292
2972	0.1952
2963	0.2617
2954	0.1795
2945	0.1021
2936	0.1933
2927	0.2794
2918	0.3947
2909	0.4465
2900	0.4746
2891	0.4905
2882	0.489
2873	0.4165
2864	0.3272
2855	0.3555
2846	0.5689
2837	0.5523
2828	0.4333
2819	0.1023
2810	0.2866
2801	0.3066
2792	0.2135
2783	0.2298
2774	0.1392
2765	0.1199
2756	0.4617
2747	0.5779
2738	0.6433
2729	0.6274
2720	0.6148
2711	0.6724
2702	0.7637
2693	0.8224
2684	0.8377
2675	0.8444
2666	0.8586
2657	0.8895
2648	0.8971
2639	0.8927
2630	0.8944
2621	0.9052
2612	0.9082
2603	0.9127
2594	0.918
2585	0.9233
2576	0.9286
2567	0.9304
2558	0.928
2549	0.9218
2540	0.9143
2531	0.9087
2522	0.9066
2513	0.9126
2504	0.9169
2495	0.8974
2486	0.9115
2477	0.9244
2468	0.9302
2459	0.9334
2450	0.9353
2441	0.9398
2432	0.9367
2423	0.9347
2414	0.9325
2405	0.9323
2396	0.933
2387	0.9403
2378	0.9484
2369	0.9489
2360	0.9455
2351	0.9458
2342	0.9425
2333	0.9379
2324	0.9402
2315	0.9386
2306	0.9375
2297	0.9368
2288	0.9333
2279	0.9347
2270	0.934
2261	0.9336
2252	0.9313
2243	0.9255
2234	0.9245
2225	0.9259
2216	0.9281
2207	0.9331
2198	0.9367
2189	0.9346
2180	0.9328
2171	0.9329
2162	0.9307
2153	0.9331
2144	0.9344
2135	0.9303
2126	0.9278
2117	0.9262
2108	0.9249
2099	0.9242
2090	0.9232
2081	0.9219
2072	0.9205
2063	0.9192
2054	0.9202
2045	0.9174
2036	0.9167
2027	0.9205
2018	0.9187
2009	0.9153
2000	0.9125
1991	0.9157
1982	0.9152
1973	0.915
1964	0.9147
1955	0.9156
1946	0.9116
1937	0.9104
1928	0.9074
1919	0.8682
1910	0.8659
1901	0.8983
1892	0.8898
1883	0.849
1874	0.8552
1865	0.8938
1856	0.9043
1847	0.8948
1838	0.8956
1829	0.9065
1820	0.9065
1811	0.9008
1802	0.8762
1793	0.8797
1784	0.8962
1775	0.8903
1766	0.8732
1757	0.8484
1748	0.8765
1739	0.8834
1730	0.878
1721	0.8577
1712	0.8556
1703	0.8475
1694	0.8072
1685	0.7623
1676	0.8149
1667	0.8436
1658	0.8501
1649	0.8693
1640	0.8739
1631	0.8678
1622	0.8318
1613	0.5876
1604	0.7938
1595	0.8316
1586	0.7852
1577	0.7418
1568	0.754
1559	0.6948
1550	0.7656
1541	0.8296
1532	0.8269
1523	0.7547
1514	0.0976
1505	0.73
1496	0.7245
1487	0.2803
1478	0.3946
1469	0.0277
1460	0.0704
1451	0.2132
1442	0.3081
1433	0.6178
1424	0.7488
1415	0.7383
1406	0.6038
1397	0.6699
1388	0.6107
1379	0.574
1370	0.5947
1361	0.5396
1352	0.331
1343	0.4746
1334	0.3729
1325	0.4676
1316	0.0499
1307	0.3823
1298	0.6555
1289	0.7495
1280	0.7212
1271	0.4777
1262	0.4047
1253	0.667
1244	0.3067
1235	0.7621
1226	0.783
1217	0.5257
1208	0.5969
1199	0.4577
1190	0.494
1181	0.6997
1172	0.5776
1163	0.5677
1154	0.5325
1145	0.7635
1136	0.8972
1127	0.89
1118	0.8674
1109	0.8856
1100	0.6001
1091	0.734
1082	0.7314
1073	0.6027
1064	0.5791
1055	0.7296
1046	0.5313
1037	0.5304
1028	0.604
1019	0.4651
1010	0.5802
1001	0.8839
992	0.9149
983	0.9138
974	0.86
965	0.7474
956	0.8743
947	0.928
938	0.9329
929	0.8985
920	0.7748
911	0.9213
902	0.9151
893	0.8974
884	0.7224
875	0.7685
866	0.8424
857	0.8311
848	0.7503
839	0.7497
830	0.7887
821	0.8845
812	0.9019
803	0.903
794	0.8729
785	0.8407
776	0.6607
767	0.3892
758	0.4692
749	0.3749
740	-0.0036
731	0.538
722	0.4095
713	0.3616
704	0.8595
695	0.8664
686	0.908
677	0.949
668	0.9731
659	0.9222
650	0.9257
641	0.9399
632	0.945
623	0.9342
614	0.9039
605	0.8993
596	0.9328
587	0.8645
578	0.9112
569	0.8779
560	0.9151
551	0.9028
542	0.9076
533	0.9025
524	0.886
515	0.8568
506	0.8381
497	0.8644
488	0.8721
479	0.85
470	0.7745
461	0.7116
