Infrared Spectrum: Butethamine
Formula: C 13 H 20 N 2 O 2
CAS: 2090-89-3
State: gas
Instrument: HP-GC/MS/IRD
Origin: NIST Mass Spectrometry Data Center
1/CM	ABSORBANCE
550	0.0014812
562	0.0006776
574	0.0007224
586	0.0008344
598	0.0007868
610	0.0013468
622	0.0012628
634	0.0007056
646	0.0008596
658	0.0013804
670	0.001862
682	0.0019208
694	0.0018956
706	0.0015064
718	0.0011788
730	0.0008232
742	0.0007476
754	0.0011592
766	0.001848
778	0.001428
790	0.0007056
802	0.0004816
814	0.0005208
826	0.0008008
838	0.0013972
850	0.0008596
862	0.0003724
874	0.0002016
886	0.0001204
898	2.52e-05
910	4.2e-05
922	5.04e-05
934	0.0001316
946	0.0001792
958	0.000252
970	0.0003472
982	0.000336
994	0.0004424
1006	0.000756
1018	0.0011928
1030	0.0006272
1042	0.000658
1054	0.0011592
1066	0.0016744
1078	0.0030016
1090	0.0058716
1102	0.010836
1114	0.0084728
1126	0.0037072
1138	0.0025424
1150	0.0019964
1162	0.00273
1174	0.0104692
1186	0.0021196
1198	0.0010052
1210	0.0010472
1222	0.001484
1234	0.0022344
1246	0.0047544
1258	0.015806
1270	0.0265076
1282	0.0077448
1294	0.0033236
1306	0.0021756
1318	0.0017136
1330	0.0011312
1342	0.0008708
1354	0.0009912
1366	0.0012152
1378	0.0012908
1390	0.0012376
1402	0.000602
1414	0.0004032
1426	0.000756
1438	0.0012516
1450	0.00147
1462	0.0019824
1474	0.0016352
1486	0.0008344
1498	0.00077
1510	0.0018984
1522	0.0012796
1534	0.0004032
1546	0.0002772
1558	0.0003724
1570	0.0006748
1582	0.001204
1594	0.00252
1606	0.005138
1618	0.0069328
1630	0.0071344
1642	0.0024332
1654	0.0009156
1666	0.0005824
1678	0.0006272
1690	0.0007588
1702	0.001162
1714	0.0027748
1726	0.0084196
1738	0.0108556
1750	0.0032592
1762	0.0009212
1774	0.0003892
1786	0.0002576
1798	0.0001484
1810	8.4e-05
1822	5.6e-05
1834	1.4e-05
1846	1.96e-05
1858	2.24e-05
1870	3.92e-05
1882	5.6e-05
1894	0.0001316
1906	0.0001596
1918	0.0001008
1930	6.16e-05
1942	3.92e-05
1954	2.52e-05
1966	1.4e-05
1978	2.24e-05
1990	0
2002	8.4e-06
2014	1.68e-05
2026	4.48e-05
2038	4.48e-05
2050	5.88e-05
2062	5.04e-05
2074	4.76e-05
2086	5.32e-05
2098	7.28e-05
2110	8.12e-05
2122	6.72e-05
2134	5.04e-05
2146	2.24e-05
2158	1.12e-05
2170	1.4e-05
2182	2.52e-05
2194	1.96e-05
2206	4.48e-05
2218	2.8e-05
2230	2.8e-05
2242	1.96e-05
2254	2.52e-05
2266	3.64e-05
2278	4.76e-05
2290	4.2e-05
2302	7.28e-05
2314	4.2e-05
2326	4.76e-05
2338	4.2e-05
2350	5.32e-05
2362	9.8e-05
2374	8.96e-05
2386	6.44e-05
2398	6.16e-05
2410	3.92e-05
2422	4.76e-05
2434	6.44e-05
2446	3.92e-05
2458	6.16e-05
2470	2.52e-05
2482	3.92e-05
2494	1.96e-05
2506	3.36e-05
2518	5.88e-05
2530	5.88e-05
2542	7e-05
2554	6.72e-05
2566	6.72e-05
2578	9.52e-05
2590	6.72e-05
2602	0.0001064
2614	0.00014
2626	0.0001456
2638	0.0001484
2650	0.0001372
2662	0.000112
2674	0.000126
2686	0.0001568
2698	0.0001932
2710	0.000238
2722	0.0002716
2734	0.000294
2746	0.0003248
2758	0.0003836
2770	0.0004592
2782	0.0006076
2794	0.0008652
2806	0.001246
2818	0.0015652
2830	0.001638
2842	0.001554
2854	0.0015092
2866	0.0017304
2878	0.0025564
2890	0.0029092
2902	0.0028616
2914	0.0028868
2926	0.0029932
2938	0.0033544
2950	0.0042112
2962	0.0056812
2974	0.004004
2986	0.0019292
2998	0.0010024
3010	0.0007168
3022	0.0006496
3034	0.0007532
3046	0.000924
3058	0.0004984
3070	0.0005152
3082	0.00035
3094	0.0002632
3106	0.0002128
3118	0.0001764
3130	0.000112
3142	8.68e-05
3154	0.000112
3166	0.0001092
3178	8.96e-05
3190	8.12e-05
3202	0.0001316
3214	0.000154
3226	8.96e-05
3238	7.56e-05
3250	4.2e-05
3262	2.52e-05
3274	1.68e-05
3286	5.04e-05
3298	5.6e-05
3310	2.8e-05
3322	7.56e-05
3334	8.12e-05
3346	0.000112
3358	9.8e-05
3370	0.0001624
3382	0.0002016
3394	0.0003164
3406	0.0005572
3418	0.00098
3430	0.0009072
3442	0.0005348
3454	0.0003024
3466	0.0002268
3478	0.0002716
3490	0.0003164
3502	0.0003892
3514	0.000392
3526	0.0003472
3538	0.0002352
3550	0.0001512
3562	0.0001288
3574	0.0001148
3586	0.0001596
3598	0.0001288
3610	0.0001008
3622	7.28e-05
3634	0.0001176
3646	0.0001232
3658	0.0001064
3670	0.0001204
3682	0.0001092
3694	0.0001204
3706	0.0001008
3718	0.0001008
3730	0.0001428
3742	0.0001596
3754	0.0001064
3766	0.0001148
3778	0.000112
3790	0.0001428
3802	0.0001092
3814	0.00014
3826	0.0001232
3838	0.000182
