Infrared Spectrum: Trimethyl borate
Formula: C3 H9 B O3
CAS: 20905-35-5
State: gas
Origin: EPA-IR VAPOR PHASE LIBRARY
1/CM	ABSORBANCE
549.8	0.0017181
559.445	0.001641
569.09	0.00062
578.734	0.0011154
588.379	0.0013571
598.024	0.0014981
607.669	0.0013791
617.313	0.003453
626.958	0.002823
636.603	0.004323
646.248	0.005453
655.893	0.012583
665.537	0.027743
675.182	0.040473
684.827	0.030123
694.472	0.021463
704.116	0.015913
713.761	0.008923
723.406	0.006023
733.051	0.006703
742.695	0.009493
752.34	0.010463
761.985	0.008973
771.63	0.005733
781.275	0.004533
790.919	0.006333
800.564	0.006883
810.209	0.005163
819.854	0.005323
829.498	0.003823
839.143	0.003463
848.788	0.004643
858.433	0.009633
868.078	0.015653
877.722	0.009013
887.367	0.005313
897.012	0.005253
906.657	0.007293
916.301	0.016803
925.946	0.029573
935.591	0.025513
945.236	0.014323
954.88	0.010933
964.525	0.008593
974.17	0.007873
983.815	0.007753
993.46	0.011463
1003.1	0.015453
1012.75	0.016403
1022.39	0.018253
1032.04	0.026233
1041.68	0.041773
1051.33	0.059693
1060.97	0.081313
1070.62	0.084993
1080.26	0.058953
1089.91	0.031003
1099.55	0.022183
1109.2	0.015713
1118.84	0.017483
1128.49	0.029493
1138.13	0.031603
1147.78	0.028283
1157.42	0.051823
1167.07	0.115423
1176.71	0.117503
1186.36	0.057973
1196	0.035673
1205.64	0.039763
1215.29	0.042493
1224.93	0.036643
1234.58	0.036383
1244.22	0.039423
1253.87	0.053383
1263.51	0.085103
1273.16	0.161483
1282.8	0.213693
1292.45	0.157963
1302.09	0.127353
1311.74	0.135203
1321.38	0.195663
1331.03	0.282113
1340.67	0.327953
1350.32	0.354103
1359.96	0.354063
1369.61	0.275693
1379.25	0.150233
1388.9	0.093833
1398.54	0.099403
1408.18	0.178173
1417.83	0.383223
1427.47	0.505763
1437.12	0.312173
1446.76	0.220943
1456.41	0.158643
1466.05	0.085693
1475.7	0.097153
1485.34	0.149153
1494.99	0.173133
1504.63	0.123613
1514.28	0.054363
1523.92	0.026993
1533.57	0.016083
1543.21	0.010883
1552.86	0.008413
1562.5	0.007253
1572.15	0.006643
1581.79	0.005863
1591.44	0.005543
1601.08	0.005283
1610.73	0.005123
1620.37	0.004963
1630.01	0.004633
1639.66	0.004043
1649.3	0.003663
1658.95	0.003683
1668.59	0.003123
1678.24	0.002763
1687.88	0.002693
1697.53	0.002113
1707.17	0.002323
1716.82	0.0016925
1726.46	0.002273
1736.11	0.001943
1745.75	0.002123
1755.4	0.002023
1765.04	0.001913
1774.69	0.002203
1784.33	0.002463
1793.98	0.003033
1803.62	0.003003
1813.27	0.003113
1822.91	0.002883
1832.55	0.002513
1842.2	0.002273
1851.84	0.002393
1861.49	0.001963
1871.13	0.002063
1880.78	0.002323
1890.42	0.002853
1900.07	0.003223
1909.71	0.003043
1919.36	0.002923
1929	0.003233
1938.65	0.003223
1948.29	0.003423
1957.94	0.003643
1967.58	0.003603
1977.23	0.003533
1986.87	0.003443
1996.52	0.003663
2006.16	0.004393
2015.81	0.004733
2025.45	0.004303
2035.1	0.003843
2044.74	0.003593
2054.38	0.003423
2064.03	0.003323
2073.67	0.003713
2083.32	0.004063
2092.96	0.004563
2102.61	0.004683
2112.25	0.004333
2121.9	0.003593
2131.54	0.003143
2141.19	0.002773
2150.83	0.002773
2160.48	0.003353
2170.12	0.003813
2179.77	0.004103
2189.41	0.003743
2199.06	0.003283
2208.7	0.002903
2218.35	0.002703
2227.99	0.002593
2237.64	0.002793
2247.28	0.002523
2256.92	0.002513
2266.57	0.002403
2276.21	0.002073
2285.86	0.002073
2295.5	0.002273
2305.15	0.002073
2314.79	0.001983
2324.44	0.0016839
2334.08	0.001823
2343.73	0.0017356
2353.37	0.001773
2363.02	0.0013997
2372.66	0.0015524
2382.31	0.0015255
2391.95	0.0014877
2401.6	0.001489
2411.24	0.0012816
2420.89	0.0014196
2430.53	0.0014658
2440.18	0.0015432
2449.82	0.0014341
2459.47	0.0015501
2469.11	0.0015363
2478.75	0.0016476
2488.4	0.0016793
2498.04	0.0016387
2507.69	0.001647
2517.33	0.0015789
2526.98	0.0010984
2536.62	0.001863
2546.27	0.001963
2555.91	0.002603
2565.56	0.002133
2575.2	0.001913
2584.85	0.001873
2594.49	0.001863
2604.14	0.0015551
2613.78	0.001843
2623.43	0.002283
2633.07	0.002213
2642.72	0.002283
2652.36	0.002473
2662.01	0.002433
2671.65	0.002373
2681.29	0.002613
2690.94	0.002993
2700.58	0.003393
2710.23	0.003723
2719.87	0.003303
2729.52	0.003553
2739.16	0.004173
2748.81	0.005903
2758.45	0.006813
2768.1	0.007643
2777.74	0.007483
2787.39	0.008303
2797.03	0.009763
2806.68	0.011333
2816.32	0.012043
2825.97	0.013283
2835.61	0.017493
2845.26	0.021363
2854.9	0.023583
2864.55	0.027413
2874.19	0.035603
2883.84	0.059633
2893.48	0.098593
2903.12	0.078893
2912.77	0.058323
2922.41	0.054593
2932.06	0.063533
2941.7	0.108413
2951.35	0.163903
2960.99	0.130903
2970.64	0.075793
2980.28	0.053943
2989.93	0.041643
2999.57	0.021953
3009.22	0.009313
3018.86	0.005733
3028.51	0.004043
3038.15	0.003363
3047.8	0.002953
3057.44	0.002283
3067.09	0.002793
3076.73	0.002943
3086.38	0.002573
3096.02	0.002023
3105.67	0.001903
3115.31	0.0014752
3124.95	0.0012004
3134.6	0.0014347
3144.24	0.0014088
3153.89	0.001029
3163.53	0.00099
3173.18	0.001419
3182.82	0.0009724
3192.47	0.0007614
3202.11	0.0011515
3211.76	0.0009564
3221.4	0.0012471
3231.05	0.0010318
3240.69	0.0012412
3250.34	0.00086759
3259.98	0.000998
3269.63	0.001536
3279.27	0.000988
3288.92	0.0010976
3298.56	0.0011469
3308.21	0.0011314
3317.85	0.0011044
3327.49	0.00088674
3337.14	0.000553
3346.78	0.0009361
3356.43	0.0011396
3366.07	0.000684
3375.72	0.0012799
3385.36	0.0009047
3395.01	0.0009058
3404.65	0.00088845
3414.3	0.0009765
3423.94	0.00084621
3433.59	0.0007023
3443.23	0.00066
3452.88	0.000899
3462.52	0.0009167
3472.17	0.0010432
3481.81	0.00086781
3491.46	0.00083027
3501.1	0.000871
3510.75	0.000581
3520.39	0.0008944
3530.04	0.0009475
3539.68	0.0009192
3549.32	0.00080999
3558.97	0.0013113
3568.61	0.00052
3578.26	0.0011102
3587.9	0.0011918
3597.55	0.002103
3607.19	0.002573
3616.84	0.002253
3626.48	0.001903
3636.13	0.002023
3645.77	0.0016049
3655.42	0.001823
3665.06	0.002343
3674.71	0.002093
3684.35	0.001993
3694	0.003013
3703.64	0.002763
3713.29	0.002133
3722.93	0.0011609
3732.58	0.00088749
3742.22	0.0008965
3751.86	0.001193
3761.51	0.0011901
3771.15	0.000937
3780.8	0.0009254
3790.44	0.0010988
3800.09	0.0016492
3809.73	0.0014168
3819.38	0.0011934
3829.02	0.0007683
3838.67	0.0011168
3848.31	0.0009976
3857.96	0.0009494
3867.6	0.0009559
3877.25	0.0014803
3886.89	0.0010675
3896.54	0.001903
3906.18	0.0010214
3915.83	0.0015466
3925.47	0.0012998
3935.12	0.0013714
3944.76	0.0008866
3954.41	0.0011726
3964.05	0.00144
3973.69	0.0016718
3983.34	0.0012814
3992.98	0.0015054
