Infrared Spectrum: RHODANINE, N-DIACETYLAMINO-
Formula: C7 H8 N2 O3 S2
CAS: 20904-81-8
State: SOLID (SPLIT MULL, FLUOROLUBE FOR 3800-1330 AND NUJOL FOR 1330-400 CM ^-^1)
Class: COBLENTZ III
Instrument: DOW KBr FOREPRISM-GRATING
Instrument parameters: BLAZED AT 3.5, 12.0, 20.0 MICRON, CHANGED AT 5.0, 7.5, 14.9 MICRON
Sampling: TRANSMISSION
Resolution: 4
Origin: DOW CHEMICAL COMPANY
1/CM	TRANSMITTANCE
383.598	0.881
392.416	0.881
401.235	0.88
410.053	0.877
418.871	0.906
427.69	0.931
436.508	0.939
445.326	0.943
454.145	0.944
462.963	0.948
471.781	0.953
480.6	0.954
489.418	0.953
498.236	0.946
507.055	0.943
515.873	0.925
524.691	0.87
533.51	0.845
542.328	0.746
551.146	0.717
559.965	0.936
568.783	0.889
577.602	0.828
586.42	0.936
595.238	0.913
604.057	0.697
612.875	0.35
621.693	0.915
630.512	0.946
639.33	0.817
648.148	0.884
656.967	0.969
665.785	0.975
674.603	0.98
683.422	0.975
692.24	0.966
701.058	0.955
709.877	0.922
718.695	0.841
727.513	0.856
736.332	0.884
745.15	0.911
753.968	0.914
762.787	0.902
771.605	0.848
780.423	0.663
789.242	0.914
798.06	0.922
806.878	0.922
815.697	0.918
824.515	0.913
833.333	0.91
842.152	0.903
850.97	0.902
859.788	0.896
868.607	0.886
877.425	0.688
886.243	0.873
895.062	0.867
903.88	0.856
912.699	0.787
921.517	0.82
930.335	0.84
939.154	0.819
947.972	0.677
956.79	0.808
965.609	0.802
974.427	0.802
983.245	0.779
992.064	0.576
1000.88	0.486
1009.7	0.82
1018.52	0.817
1027.34	0.684
1036.16	0.808
1044.97	0.747
1053.79	0.784
1062.61	0.728
1071.43	0.488
1080.25	0.764
1089.07	0.793
1097.88	0.783
1106.7	0.775
1115.52	0.72
1124.34	0.715
1133.16	0.685
1141.98	0.6
1150.79	0.635
1159.61	0.623
1168.43	0.591
1177.25	0.529
1186.07	0.411
1194.89	0.331
1203.7	0.202
1212.52	0.084
1221.34	0.062
1230.16	0.142
1238.98	0.066
1247.8	0.03
1256.61	0.034
1265.43	0.115
1274.25	0.257
1283.07	0.48
1291.89	0.633
1300.71	0.667
1309.52	0.692
1318.34	0.748
1327.16	0.809
1335.98	0.835
1344.8	0.786
1353.62	0.739
1362.43	0.577
1371.25	0.82
1380.07	0.794
1388.89	0.885
1397.71	0.939
1406.53	0.94
1415.34	0.86
1424.16	0.813
1432.98	0.817
1441.8	0.863
1450.62	0.932
1459.44	0.955
1468.25	0.965
1477.07	0.971
1485.89	0.971
1494.71	0.972
1503.53	0.972
1512.35	0.968
1521.16	0.965
1529.98	0.965
1538.8	0.962
1547.62	0.964
1556.44	0.961
1565.26	0.961
1574.07	0.962
1582.89	0.958
1591.71	0.948
1600.53	0.939
1609.35	0.922
1618.17	0.935
1626.98	0.94
1635.8	0.933
1644.62	0.92
1653.44	0.897
1662.26	0.895
1671.08	0.877
1679.89	0.871
1688.71	0.833
1697.53	0.772
1706.35	0.6089
1715.17	0.198
1723.99	0.766
1732.8	0.717
1741.62	0.394
1750.44	0.184
1759.26	0.427
1768.08	0.259
1776.9	0.6481
1785.71	0.917
1794.53	0.961
1803.35	0.98
1812.17	0.979
1820.99	0.975
1829.81	0.977
1838.62	0.983
1847.44	0.983
1856.26	0.976
1865.08	0.977
1873.9	0.988
1882.72	0.987
1891.53	0.984
1900.35	0.986
1909.17	0.991
1917.99	0.991
1926.81	0.991
1935.63	0.991
1944.44	0.991
1953.26	0.995
1962.08	0.997
1970.9	0.998
1979.72	1
1988.54	1.001
1997.35	1.001
2006.17	1.001
2014.99	1.001
2023.81	1.0005
2032.63	1
2041.45	0.997
2050.26	0.994
2059.08	0.991
2067.9	0.993
2076.72	0.994
2085.54	0.99
2094.36	0.987
2103.17	0.986
2111.99	0.9851
2120.81	0.9811
2129.63	0.977
2138.45	0.9766
2147.27	0.975
2156.08	0.972
2164.9	0.971
2173.72	0.966
2182.54	0.965
2191.36	0.962
2200.18	0.962
2208.99	0.961
2217.81	0.96
2226.63	0.955
2235.45	0.955
2244.27	0.953
2253.09	0.9476
2261.9	0.944
2270.72	0.948
2279.54	0.9412
2288.36	0.937
2297.18	0.937
2306	0.9434
2314.81	0.9518
2323.63	0.9484
2332.45	0.9378
2341.27	0.94
2350.09	0.9434
2358.91	0.946
2367.72	0.943
2376.54	0.9413
2385.36	0.9366
2394.18	0.935
2403	0.933
2411.82	0.9354
2420.63	0.9364
2429.45	0.939
2438.27	0.939
2447.09	0.937
2455.91	0.937
2464.73	0.937
2473.55	0.937
2482.36	0.937
2491.18	0.9377
2500	0.9393
2508.82	0.9397
2517.64	0.9397
2526.46	0.939
2535.27	0.94
2544.09	0.939
2552.91	0.9344
2561.73	0.933
2570.55	0.9287
2579.37	0.929
2588.18	0.932
2597	0.931
2605.82	0.929
2614.64	0.928
2623.46	0.928
2632.28	0.926
2641.09	0.926
2649.91	0.925
2658.73	0.922
2667.55	0.9217
2676.37	0.921
2685.19	0.92
2694	0.921
2702.82	0.9195
2711.64	0.917
2720.46	0.915
2729.28	0.914
2738.1	0.911
2746.91	0.9108
2755.73	0.9095
2764.55	0.9068
2773.37	0.906
2782.19	0.9028
2791.01	0.902
2799.82	0.8998
2808.64	0.8968
2817.46	0.895
2826.28	0.8918
2835.1	0.8816
2843.92	0.871
2852.73	0.8742
2861.55	0.877
2870.37	0.875
2879.19	0.8748
2888.01	0.868
2896.83	0.8636
2905.64	0.855
2914.46	0.8362
2923.28	0.8059
2932.1	0.7923
2940.92	0.8501
2949.74	0.857
2958.55	0.8545
2967.37	0.8377
2976.19	0.868
2985.01	0.8742
2993.83	0.8783
3002.65	0.88
3011.46	0.878
3020.28	0.878
3029.1	0.878
3037.92	0.88
3046.74	0.88
3055.56	0.88
3064.37	0.88
3073.19	0.88
3082.01	0.878
3090.83	0.878
3099.65	0.878
3108.47	0.877
3117.28	0.8768
3126.1	0.874
3134.92	0.871
3143.74	0.871
3152.56	0.87
3161.38	0.868
3170.19	0.868
3179.01	0.867
3187.83	0.864
3196.65	0.863
3205.47	0.863
3214.29	0.863
3223.1	0.863
3231.92	0.862
3240.74	0.862
3249.56	0.8599
3258.38	0.859
3267.2	0.857
3276.01	0.857
3284.83	0.857
3293.65	0.8569
3302.47	0.856
3311.29	0.8549
3320.11	0.8519
3328.92	0.853
3337.74	0.852
3346.56	0.852
3355.38	0.852
3364.2	0.852
3373.02	0.851
3381.83	0.851
3390.65	0.849
3399.47	0.846
3408.29	0.845
3417.11	0.848
3425.93	0.849
3434.74	0.848
3443.56	0.846
3452.38	0.846
3461.2	0.841
3470.02	0.835
3478.84	0.838
3487.65	0.844
3496.47	0.842
3505.29	0.842
3514.11	0.842
3522.93	0.844
3531.75	0.845
3540.56	0.845
3549.38	0.845
3558.2	0.845
3567.02	0.845
3575.84	0.844
3584.66	0.841
3593.47	0.84
3602.29	0.841
3611.11	0.841
3619.93	0.84
3628.75	0.8381
3637.57	0.838
3646.38	0.838
3655.2	0.838
3664.02	0.837
3672.84	0.837
3681.66	0.837
3690.48	0.837
3699.29	0.837
3708.11	0.833
3716.93	0.831
3725.75	0.831
3734.57	0.833
3743.39	0.8301
3752.2	0.83
3761.02	0.831
3769.84	0.828
3778.66	0.83
3787.48	0.8271
3796.3	0.824
