Infrared Spectrum: ETHYL 2-METHYLCYCLOPROPANECARBOXYLATE
Formula: C7 H12 O2
CAS: 20913-25-1
State: LIQUID
Class: COBLENTZ
Instrument: PERKIN-ELMER
Sampling: TRANSMISSION
Path length: CAPILLARY
Resolution: 4
Origin: ABBOTT LABORATORIES - WASHBURN
MICROMETERS	TRANSMITTANCE
2.037	0.89
2.07668	0.888
2.11637	0.89
2.15605	0.897
2.19574	0.8981
2.23542	0.903
2.2751	0.903
2.31479	0.895
2.35447	0.8882
2.39416	0.8969
2.43384	0.9
2.47352	0.905
2.51321	0.906
2.55289	0.908
2.59257	0.91
2.63226	0.91
2.67194	0.911
2.71163	0.918
2.75131	0.9129
2.79099	0.8979
2.83068	0.8871
2.87036	0.875
2.91005	0.878
2.94973	0.8681
2.98941	0.875
3.0291	0.883
3.06878	0.892
3.10847	0.892
3.14815	0.8969
3.18783	0.8836
3.22752	0.9031
3.2672	0.8679
3.30688	0.8536
3.34657	0.7443
3.38625	0.5525
3.42594	0.5188
3.46562	0.6367
3.5053	0.72
3.54499	0.8449
3.58467	0.8951
3.62436	0.915
3.66404	0.9228
3.70372	0.9201
3.74341	0.925
3.78309	0.93
3.82278	0.9281
3.86246	0.9212
3.90214	0.925
3.94183	0.9081
3.98151	0.915
4.02119	0.911
4.06088	0.91
4.10056	0.9
4.14025	0.897
4.17993	0.8917
4.21961	0.8849
4.2593	0.8801
4.29898	0.8781
4.33867	0.8771
4.37835	0.878
4.41803	0.87
4.45772	0.868
4.4974	0.8631
4.53709	0.862
4.57677	0.8599
4.61645	0.855
4.65614	0.8549
4.69582	0.8483
4.7355	0.8502
4.77519	0.85
4.81487	0.843
4.85456	0.843
4.89424	0.835
4.93392	0.835
4.97361	0.842
5.01329	0.8401
5.05298	0.843
5.09266	0.843
5.13234	0.8409
5.17203	0.8409
5.21171	0.84
5.2514	0.8364
5.29108	0.835
5.33076	0.837
5.37045	0.837
5.41013	0.832
5.44981	0.83
5.4895	0.8291
5.52918	0.8208
5.56887	0.8046
5.60855	0.7822
5.64823	0.7524
5.68792	0.6966
5.7276	0.4692
5.76729	0.2285
5.80697	0.14
5.84665	0.4829
5.88634	0.6063
5.92602	0.6884
5.96571	0.7431
6.00539	0.7763
6.04507	0.7862
6.08476	0.79
6.12444	0.7865
6.16412	0.7942
6.20381	0.8032
6.24349	0.8071
6.28318	0.8115
6.32286	0.813
6.36254	0.8083
6.40223	0.832
6.44191	0.8008
6.4816	0.7975
6.52128	0.787
6.56096	0.7896
6.60065	0.7905
6.64033	0.7894
6.68002	0.7729
6.7197	0.7269
6.75938	0.6358
6.79907	0.5804
6.83875	0.4836
6.87843	0.4952
6.91812	0.4453
6.9578	0.5334
6.99749	0.6492
7.03717	0.6429
7.07685	0.4242
7.11654	0.3012
7.15622	0.5288
7.19591	0.5638
7.23559	0.448
7.27527	0.4917
7.31496	0.644
7.35464	0.6915
7.39433	0.7171
7.43401	0.719
7.47369	0.6734
7.51338	0.5037
7.55306	0.3124
7.59275	0.3113
7.63243	0.5332
7.67211	0.5554
7.7118	0.5861
7.75148	0.6625
7.79116	0.669
7.83085	0.5955
7.87053	0.4877
7.91022	0.411
7.9499	0.5022
7.98958	0.6342
8.02927	0.6911
8.06895	0.7098
8.10864	0.7004
8.14832	0.678
8.188	0.6277
8.22769	0.5087
8.26737	0.3939
8.30706	0.4361
8.34674	0.3931
8.38642	0.2687
8.42611	0.1716
8.46579	0.1433
8.50547	0.179
8.54516	0.2284
8.58484	0.2049
8.62453	0.205
8.66421	0.2941
8.70389	0.4485
8.74358	0.5585
8.78326	0.6301
8.82295	0.6689
8.86263	0.677
8.90231	0.6636
8.942	0.6176
8.98168	0.5744
9.02137	0.5876
9.06105	0.616
9.10073	0.5813
9.14042	0.5352
9.1801	0.4887
9.21978	0.4509
9.25947	0.4481
9.29915	0.4096
9.33884	0.5296
9.37852	0.6294
9.4182	0.669
9.45789	0.647
9.49757	0.5472
9.53726	0.4265
9.57694	0.3782
9.61662	0.3753
9.65631	0.5028
9.69599	0.6194
9.73568	0.691
9.77536	0.7313
9.81504	0.745
9.85473	0.7501
9.89441	0.7305
9.93409	0.6917
9.97378	0.666
10.0135	0.6678
10.0531	0.6873
10.0928	0.7378
10.1325	0.7676
10.1722	0.7949
10.2119	0.805
10.2516	0.81
10.2912	0.8089
10.3309	0.8017
10.3706	0.7813
10.4103	0.73
10.45	0.6789
10.4897	0.7069
10.5294	0.7457
10.569	0.7734
10.6087	0.7972
10.6484	0.8174
10.6881	0.825
10.7278	0.8301
10.7675	0.8331
10.8071	0.837
10.8468	0.833
10.8865	0.833
10.9262	0.8312
10.9659	0.827
11.0056	0.82
11.0452	0.813
11.0849	0.803
11.1246	0.7777
11.1643	0.7543
11.204	0.7409
11.2437	0.7339
11.2833	0.7292
11.323	0.7392
11.3627	0.752
11.4024	0.7687
11.4421	0.7557
11.4818	0.7295
11.5215	0.708
11.5611	0.6917
11.6008	0.6761
11.6405	0.674
11.6802	0.7101
11.7199	0.7367
11.7596	0.7443
11.7992	0.7194
11.8389	0.6677
11.8786	0.5776
11.9183	0.5222
11.958	0.5442
11.9977	0.6157
12.0373	0.6708
12.077	0.719
12.1167	0.7529
12.1564	0.778
12.1961	0.789
12.2358	0.7891
12.2754	0.797
12.3151	0.794
12.3548	0.789
12.3945	0.7759
12.4342	0.7472
12.4739	0.7064
12.5135	0.6985
12.5532	0.7174
12.5929	0.7317
12.6326	0.7448
12.6723	0.7583
12.712	0.7824
12.7517	0.794
12.7913	0.8
12.831	0.8033
12.8707	0.803
12.9104	0.8098
12.9501	0.813
12.9898	0.8204
13.0294	0.8191
13.0691	0.82
13.1088	0.825
13.1485	0.82
13.1882	0.8179
13.2279	0.815
13.2675	0.812
13.3072	0.808
13.3469	0.807
13.3866	0.8012
13.4263	0.794
13.466	0.784
13.5056	0.7753
13.5453	0.7548
13.585	0.7313
13.6247	0.7008
13.6644	0.6631
13.7041	0.6155
13.7437	0.6051
13.7834	0.6344
13.8231	0.68
13.8628	0.7141
13.9025	0.7396
13.9422	0.752
13.9819	0.7608
14.0215	0.7674
14.0612	0.767
14.1009	0.772
14.1406	0.769
14.1803	0.772
14.22	0.7645
14.2596	0.7581
14.2993	0.7513
14.339	0.7464
14.3787	0.7389
14.4184	0.7207
14.4581	0.7225
14.4977	0.717
14.5374	0.716
14.5771	0.7109
14.6168	0.7047
14.6565	0.6998
14.6962	0.694
14.7358	0.694
14.7755	0.696
14.8152	0.7
14.8549	0.7
14.8946	0.696
14.9343	0.696
14.9739	0.705
15.0136	0.7
15.0533	0.692
15.093	0.689
15.1327	0.691
15.1724	0.6855
15.2121	0.6796
15.2517	0.679
15.2914	0.672
15.3311	0.6683
15.3708	0.6624
15.4105	0.659
