Infrared Spectrum: 9H-Purine, 9-[[4-(diethylamino)-1-methylbutyl]amino]-6-(methylthio)-, hydrochloride
Formula: C15 H27 Cl N6 S
CAS: 20914-59-4
State: SOLID (1 mg / 650 mg KBr DISC)
Class: COBLENTZ III
Instrument: PERKIN-ELMER 521 (GRATING)
Instrument parameters: FILTERS AT 3130, 2475, 2000, 620. GRATING CHANGES: 2000, 630 CM^-^1
Sampling: TRANSMISSION
Resolution: 2
Origin: SOUTHERN RESEARCH INSTITUTE
1/CM	TRANSMITTANCE
255.906	0.2237
265.954	0.2566
276.001	0.3202
286.049	0.3757
296.097	0.4309
306.145	0.5015
316.192	0.5581
326.24	0.6094
336.288	0.6592
346.335	0.7087
356.383	0.7408
366.431	0.7649
376.479	0.7924
386.526	0.8094
396.574	0.8157
406.622	0.8166
416.669	0.8304
426.717	0.8474
436.765	0.8526
446.813	0.8501
456.86	0.8306
466.908	0.854
476.956	0.8741
487.003	0.8738
497.051	0.8699
507.099	0.8723
517.147	0.8672
527.194	0.8548
537.242	0.8562
547.29	0.8304
557.337	0.8343
567.385	0.7127
577.433	0.8062
587.481	0.822
597.528	0.8196
607.576	0.85
617.624	0.8456
627.671	0.8215
637.719	0.3997
647.767	0.8525
657.815	0.8874
667.862	0.8787
677.91	0.8596
687.958	0.8805
698.005	0.875
708.053	0.8633
718.101	0.8431
728.149	0.8166
738.196	0.7169
748.244	0.5922
758.292	0.8344
768.339	0.8786
778.387	0.8468
788.435	0.6465
798.483	0.8243
808.53	0.8185
818.578	0.7965
828.626	0.7747
838.673	0.7102
848.721	0.6609
858.769	0.6732
868.817	0.7175
878.864	0.619
888.912	0.7768
898.96	0.7846
909.007	0.7619
919.055	0.7235
929.103	0.4125
939.151	0.5603
949.198	0.8044
959.246	0.7203
969.294	0.6601
979.341	0.8189
989.389	0.8268
999.437	0.8315
1009.48	0.7103
1019.53	0.7542
1029.58	0.7564
1039.63	0.6749
1049.68	0.6876
1059.72	0.7865
1069.77	0.7577
1079.82	0.7007
1089.87	0.7162
1099.91	0.8046
1109.96	0.7948
1120.01	0.7708
1130.06	0.7536
1140.1	0.6473
1150.15	0.7044
1160.2	0.6925
1170.25	0.693
1180.3	0.7683
1190.34	0.7315
1200.39	0.6818
1210.44	0.5569
1220.49	0.469
1230.53	0.4281
1240.58	0.7606
1250.63	0.7189
1260.68	0.7111
1270.73	0.6943
1280.77	0.7036
1290.82	0.6735
1300.87	0.4579
1310.92	0.4559
1320.96	0.2042
1331.01	0.5855
1341.06	0.748
1351.11	0.6785
1361.15	0.6919
1371.2	0.6112
1381.25	0.5003
1391.3	0.5596
1401.35	0.6857
1411.39	0.5864
1421.44	0.5704
1431.49	0.3967
1441.54	0.4393
1451.58	0.52
1461.63	0.4778
1471.68	0.4861
1481.73	0.7116
1491.77	0.78
1501.82	0.727
1511.87	0.7483
1521.92	0.7211
1531.97	0.6706
1542.01	0.4612
1552.06	0.1379
1562.11	0.1544
1572.16	0.4459
1582.2	0.6516
1592.25	0.7439
1602.3	0.8452
1612.35	0.8516
1622.4	0.8617
1632.44	0.8883
1642.49	0.8911
1652.54	0.8863
1662.59	0.8763
1672.63	0.8543
1682.68	0.8271
1692.73	0.8282
1702.78	0.8584
1712.82	0.8991
1722.87	0.9116
1732.92	0.9153
1742.97	0.9179
1753.02	0.9187
1763.06	0.9179
1773.11	0.9132
1783.16	0.9022
1793.21	0.8844
1803.25	0.8626
1813.3	0.8404
1823.35	0.8443
1833.4	0.8902
1843.44	0.8982
1853.49	0.8975
1863.54	0.8956
1873.59	0.8922
1883.64	0.8866
1893.68	0.8798
1903.73	0.8694
1913.78	0.8821
1923.83	0.8884
1933.87	0.8852
1943.92	0.883
1953.97	0.881
1964.02	0.8795
1974.07	0.8777
1984.11	0.8754
1994.16	0.873
2004.21	0.8707
2014.26	0.868
2024.3	0.8648
2034.35	0.8612
2044.4	0.8567
2054.45	0.8516
2064.49	0.8463
2074.54	0.8409
2084.59	0.8356
2094.64	0.8302
2104.69	0.8249
2114.73	0.8189
2124.78	0.8121
2134.83	0.8053
2144.88	0.7994
2154.92	0.7919
2164.97	0.784
2175.02	0.7759
2185.07	0.7663
2195.11	0.7568
2205.16	0.7471
2215.21	0.7365
2225.26	0.7253
2235.31	0.7132
2245.35	0.7012
2255.4	0.6888
2265.45	0.6754
2275.5	0.662
2285.54	0.6416
2295.59	0.6236
2305.64	0.6063
2315.69	0.5881
2325.74	0.5695
2335.78	0.5468
2345.83	0.5236
2355.88	0.5047
2365.93	0.4872
2375.97	0.467
2386.02	0.4444
2396.07	0.421
2406.12	0.3992
2416.16	0.3844
2426.21	0.3801
2436.26	0.3817
2446.31	0.3859
2456.36	0.3938
2466.4	0.406
2476.45	0.431
2486.5	0.4608
2496.55	0.478
2506.59	0.5199
2516.64	0.5407
2526.69	0.5437
2536.74	0.5384
2546.78	0.5215
2556.83	0.5069
2566.88	0.5053
2576.93	0.5225
2586.98	0.5422
2597.02	0.5547
2607.07	0.5622
2617.12	0.5685
2627.17	0.5765
2637.21	0.59
2647.26	0.6048
2657.31	0.6206
2667.36	0.6389
2677.4	0.6576
2687.45	0.6747
2697.5	0.6899
2707.55	0.704
2717.6	0.7107
2727.64	0.7114
2737.69	0.7115
2747.74	0.7117
2757.79	0.7121
2767.83	0.7128
2777.88	0.7141
2787.93	0.7187
2797.98	0.7288
2808.03	0.7271
2818.07	0.7159
2828.12	0.7088
2838.17	0.6961
2848.22	0.6547
2858.26	0.6174
2868.31	0.6026
2878.36	0.5769
2888.41	0.5762
2898.45	0.5412
2908.5	0.5111
2918.55	0.4745
2928.6	0.476
2938.65	0.4691
2948.69	0.4868
2958.74	0.5104
2968.79	0.5177
2978.84	0.5452
2988.88	0.5925
2998.93	0.625
3008.98	0.6617
3019.03	0.6477
3029.07	0.6346
3039.12	0.6641
3049.17	0.632
3059.22	0.5636
3069.27	0.4937
3079.31	0.5092
3089.36	0.731
3099.41	0.7759
3109.46	0.7858
3119.5	0.7897
3129.55	0.7914
3139.6	0.787
3149.65	0.7696
3159.7	0.7555
3169.74	0.7405
3179.79	0.7242
3189.84	0.7091
3199.89	0.6941
3209.93	0.6684
3219.98	0.6128
3230.03	0.5655
3240.08	0.6279
3250.12	0.681
3260.17	0.7182
3270.22	0.7482
3280.27	0.7627
3290.32	0.7683
3300.36	0.7707
3310.41	0.7705
3320.46	0.7678
3330.51	0.763
3340.55	0.7554
3350.6	0.7463
3360.65	0.7363
3370.7	0.7265
3380.74	0.7176
3390.79	0.7101
3400.84	0.7037
3410.89	0.6983
3420.94	0.695
3430.98	0.6922
3441.03	0.6924
3451.08	0.6939
3461.13	0.697
3471.17	0.7006
3481.22	0.7047
3491.27	0.7088
3501.32	0.7128
3511.37	0.718
3521.41	0.7249
3531.46	0.7316
3541.51	0.7382
3551.56	0.7447
3561.6	0.7511
3571.65	0.7582
3581.7	0.7652
3591.75	0.7717
3601.79	0.7781
3611.84	0.7839
3621.89	0.7904
3631.94	0.7977
3641.99	0.8013
3652.03	0.8031
3662.08	0.8039
3672.13	0.8043
3682.18	0.8027
3692.22	0.8002
3702.27	0.8037
3712.32	0.8065
3722.37	0.8061
3732.41	0.806
3742.46	0.8064
3752.51	0.8064
3762.56	0.8064
3772.61	0.806
3782.65	0.805
3792.7	0.804
3802.75	0.8029
3812.8	0.8017
3822.84	0.8006
3832.89	0.7994
3842.94	0.7995
3852.99	0.7996
3863.04	0.7992
3873.08	0.7985
3883.13	0.7971
3893.18	0.7954
3903.23	0.7932
3913.27	0.7914
3923.32	0.7908
3933.37	0.7891
3943.42	0.7838
3953.46	0.7821
3963.51	0.7812
3973.56	0.7809
3983.61	0.7806
3993.66	0.7805
4003.7	0.7807
4013.75	0.7809
