Infrared Spectrum: 3-Methoxy-2[1H]pyridone
Formula: C 6 H 7 N O 2
CAS: 20928-63-6
State: gas
Origin: EPA-IR VAPOR PHASE LIBRARY
1/CM	ABSORBANCE
549.8	0.001638
559.445	0.002298
569.09	0.0010896
578.734	0.001276
588.379	0.0008906
598.024	0.0008689
607.669	0.0009707
617.313	0.000464
626.958	0.0009566
636.603	0.0004906
646.248	0.001708
655.893	0.002368
665.537	0.003268
675.182	0.003488
684.827	0.002568
694.472	0.0013687
704.116	0.001608
713.761	0.002578
723.406	0.004688
733.051	0.006648
742.695	0.006268
752.34	0.004858
761.985	0.003528
771.63	0.003518
781.275	0.003408
790.919	0.003168
800.564	0.0013098
810.209	0.001353
819.854	0.00057053
829.498	0.0011626
839.143	0.001688
848.788	0.001608
858.433	0.0013091
868.078	0.002078
877.722	0.002658
887.367	0.002878
897.012	0.002608
906.657	0.001382
916.301	0.001588
925.946	0.0013313
935.591	0.0011085
945.236	0.001323
954.88	0.0011769
964.525	0.0014068
974.17	0.0011905
983.815	0.001778
993.46	0.002778
1003.1	0.004778
1012.75	0.004428
1022.39	0.004158
1032.04	0.004648
1041.68	0.003648
1051.33	0.003198
1060.97	0.001988
1070.62	0.002978
1080.26	0.005988
1089.91	0.008718
1099.55	0.007618
1109.2	0.005108
1118.84	0.002908
1128.49	0.002208
1138.13	0.003368
1147.78	0.005648
1157.42	0.007798
1167.07	0.007138
1176.71	0.005078
1186.36	0.003898
1196	0.003818
1205.64	0.005618
1215.29	0.007188
1224.93	0.010008
1234.58	0.010848
1244.22	0.012278
1253.87	0.017018
1263.51	0.017118
1273.16	0.013958
1282.8	0.008958
1292.45	0.006188
1302.09	0.003788
1311.74	0.002868
1321.38	0.003868
1331.03	0.004988
1340.67	0.004858
1350.32	0.003978
1359.96	0.003098
1369.61	0.002308
1379.25	0.001668
1388.9	0.0015036
1398.54	0.001648
1408.18	0.001948
1417.83	0.002278
1427.47	0.003588
1437.12	0.006028
1446.76	0.008448
1456.41	0.010528
1466.05	0.013188
1475.7	0.013158
1485.34	0.010018
1494.99	0.004808
1504.63	0.002328
1514.28	0.001938
1523.92	0.001728
1533.57	0.001948
1543.21	0.002418
1552.86	0.003428
1562.5	0.003928
1572.15	0.003918
1581.79	0.003788
1591.44	0.004308
1601.08	0.004238
1610.73	0.006348
1620.37	0.009488
1630.01	0.009678
1639.66	0.006198
1649.3	0.004118
1658.95	0.004348
1668.59	0.007038
1678.24	0.015838
1687.88	0.028188
1697.53	0.034588
1707.17	0.028178
1716.82	0.017888
1726.46	0.009578
1736.11	0.005458
1745.75	0.003228
1755.4	0.002168
1765.04	0.001728
1774.69	0.0013932
1784.33	0.001371
1793.98	0.001598
1803.62	0.0012851
1813.27	0.0013595
1822.91	0.001282
1832.55	0.0012891
1842.2	0.0011119
1851.84	0.0012367
1861.49	0.0010836
1871.13	0.0009542
1880.78	0.0011593
1890.42	0.0012132
1900.07	0.0010939
1909.71	0.0009781
1919.36	0.0010538
1929	0.0011077
1938.65	0.0010933
1948.29	0.0009711
1957.94	0.001201
1967.58	0.0012846
1977.23	0.0013416
1986.87	0.0011077
1996.52	0.0011821
2006.16	0.0010582
2015.81	0.0012125
2025.45	0.0011763
2035.1	0.0011312
2044.74	0.0011029
2054.38	0.0010553
2064.03	0.0009775
2073.67	0.0010443
2083.32	0.000928
2092.96	0.0009201
2102.61	0.0009263
2112.25	0.0010998
2121.9	0.0010467
2131.54	0.0009701
2141.19	0.000994
2150.83	0.0009717
2160.48	0.0010527
2170.12	0.0010021
2179.77	0.0010313
2189.41	0.0008438
2199.06	0.0008743
2208.7	0.0010686
2218.35	0.0009278
2227.99	0.0009942
2237.64	0.0009022
2247.28	0.0009149
2256.92	0.0008236
2266.57	0.0011734
2276.21	0.0008476
2285.86	0.0010178
2295.5	0.0010427
2305.15	0.0010438
2314.79	0.0008357
2324.44	0.0011413
2334.08	0.0011057
2343.73	0.0009777
2353.37	0.0010542
2363.02	0.0010919
2372.66	0.0013027
2382.31	0.0010793
2391.95	0.0012036
2401.6	0.0009871
2411.24	0.001079
2420.89	0.0011076
2430.53	0.0011863
2440.18	0.0011669
2449.82	0.0011434
2459.47	0.0010517
2469.11	0.0010758
2478.75	0.0012515
2488.4	0.0010714
2498.04	0.0011674
2507.69	0.0010151
2517.33	0.0011516
2526.98	0.0013357
2536.62	0.0011898
2546.27	0.0012051
2555.91	0.0012558
2565.56	0.0013592
2575.2	0.0011224
2584.85	0.001245
2594.49	0.0010551
2604.14	0.0012795
2613.78	0.0007213
2623.43	0.0011765
2633.07	0.0010426
2642.72	0.0009191
2652.36	0.0011152
2662.01	0.0011225
2671.65	0.0011883
2681.29	0.0010749
2690.94	0.0011299
2700.58	0.0010761
2710.23	0.0011516
2719.87	0.0013477
2729.52	0.0009175
2739.16	0.0009814
2748.81	0.0011664
2758.45	0.0011036
2768.1	0.0008765
2777.74	0.0012476
2787.39	0.0012265
2797.03	0.001198
2806.68	0.0013677
2816.32	0.001718
2825.97	0.001788
2835.61	0.002618
2845.26	0.002868
2854.9	0.003228
2864.55	0.002618
2874.19	0.002008
2883.84	0.002158
2893.48	0.002348
2903.12	0.002788
2912.77	0.002868
2922.41	0.003068
2932.06	0.004118
2941.7	0.004698
2951.35	0.004778
2960.99	0.003798
2970.64	0.003348
2980.28	0.003098
2989.93	0.003068
2999.57	0.003308
3009.22	0.003598
3018.86	0.003128
3028.51	0.002548
3038.15	0.002318
3047.8	0.002348
3057.44	0.002668
3067.09	0.002878
3076.73	0.002728
3086.38	0.002448
3096.02	0.002148
3105.67	0.001768
3115.31	0.0014633
3124.95	0.001232
3134.6	0.0011288
3144.24	0.0013138
3153.89	0.0011733
3163.53	0.0008865
3173.18	0.0008858
3182.82	0.0011759
3192.47	0.001305
3202.11	0.001068
3211.76	0.000979
3221.4	0.0011242
3231.05	0.0013261
3240.69	0.0007883
3250.34	0.001142
3259.98	0.0007435
3269.63	0.0010069
3279.27	0.0010505
3288.92	0.0010277
3298.56	0.0007126
3308.21	0.0011594
3317.85	0.0010052
3327.49	0.0010956
3337.14	0.0007883
3346.78	0.0010996
3356.43	0.0007547
3366.07	0.0012525
3375.72	0.0007059
3385.36	0.0010229
3395.01	0.0012587
3404.65	0.0010034
3414.3	0.002118
3423.94	0.004008
3433.59	0.005868
3443.23	0.004968
3452.88	0.002888
3462.52	0.0013356
3472.17	0.0011409
3481.81	0.000717
3491.46	0.0009202
3501.1	0.0009093
3510.75	0.0005434
3520.39	0.0006684
3530.04	0.0009076
3539.68	0.0008262
3549.32	0.0013369
3558.97	0.0011317
3568.61	0.0015615
3578.26	0.003818
3587.9	0.004158
3597.55	0.004318
3607.19	0.001978
3616.84	0.000752
3626.48	0.001101
3636.13	0.0008061
3645.77	0.0007704
3655.42	0.00067579
3665.06	0.0006888
3674.71	0.0008181
3684.35	0.0008612
3694	0.001018
3703.64	0.0008953
3713.29	0.0007757
3722.93	0.000805
3732.58	0.0010533
3742.22	0.000713
3751.86	0.001182
3761.51	0.0012082
3771.15	0.000421
3780.8	0.00059795
3790.44	0.0007771
3800.09	0.0007733
3809.73	0.0010716
3819.38	0.00057051
3829.02	0.0008983
3838.67	0.0007991
3848.31	0.0007454
3857.96	0.0009737
3867.6	0.0010949
3877.25	0.0008237
3886.89	0.0007727
3896.54	0.0009963
3906.18	0.000902
3915.83	0.000443
3925.47	0.0012786
3935.12	0.0011105
3944.76	0.00065569
3954.41	0.00064041
3964.05	0.0008787
3973.69	0.0011063
3983.34	0.0011727
3992.98	0.0010985
