Infrared Spectrum: 2,3,5,6-Tetrafluorophenyl isothiocyanate
Formula: C 7 H F 4 N S
CAS: 20925-31-9
State: gas
Origin: EPA-IR VAPOR PHASE LIBRARY
1/CM	ABSORBANCE
549.8	0.022495
559.445	0.018555
569.09	0.010165
578.734	0.010075
588.379	0.010165
598.024	0.007075
607.669	0.005775
617.313	0.004405
626.958	0.002295
636.603	0.002195
646.248	0.001965
655.893	0.002935
665.537	0.005475
675.182	0.008655
684.827	0.013325
694.472	0.011435
704.116	0.014445
713.761	0.047075
723.406	0.015115
733.051	0.003865
742.695	0.004645
752.34	0.008565
761.985	0.008015
771.63	0.006125
781.275	0.007565
790.919	0.015945
800.564	0.044565
810.209	0.104125
819.854	0.088455
829.498	0.045455
839.143	0.068935
848.788	0.024865
858.433	0.007935
868.078	0.006125
877.722	0.005285
887.367	0.005615
897.012	0.009175
906.657	0.015825
916.301	0.027355
925.946	0.071615
935.591	0.141665
945.236	0.176525
954.88	0.144625
964.525	0.064015
974.17	0.041415
983.815	0.031975
993.46	0.013835
1003.1	0.006385
1012.75	0.004785
1022.39	0.003655
1032.04	0.003885
1041.68	0.003885
1051.33	0.003275
1060.97	0.003645
1070.62	0.005545
1080.26	0.006435
1089.91	0.005615
1099.55	0.007885
1109.2	0.022095
1118.84	0.050365
1128.49	0.041075
1138.13	0.032235
1147.78	0.017035
1157.42	0.011115
1167.07	0.033405
1176.71	0.089295
1186.36	0.052805
1196	0.009265
1205.64	0.005955
1215.29	0.007335
1224.93	0.014725
1234.58	0.021015
1244.22	0.015345
1253.87	0.015445
1263.51	0.018695
1273.16	0.012955
1282.8	0.014415
1292.45	0.030685
1302.09	0.016525
1311.74	0.006255
1321.38	0.005995
1331.03	0.004235
1340.67	0.002435
1350.32	0.002535
1359.96	0.004925
1369.61	0.011795
1379.25	0.015085
1388.9	0.022715
1398.54	0.073055
1408.18	0.060015
1417.83	0.009625
1427.47	0.008575
1437.12	0.009125
1446.76	0.008885
1456.41	0.012165
1466.05	0.032205
1475.7	0.078635
1485.34	0.091825
1494.99	0.118125
1504.63	0.215055
1514.28	0.469675
1523.92	0.404085
1533.57	0.091385
1543.21	0.035785
1552.86	0.032335
1562.5	0.023405
1572.15	0.018045
1581.79	0.014595
1591.44	0.015645
1601.08	0.023635
1610.73	0.044605
1620.37	0.091645
1630.01	0.173595
1639.66	0.154925
1649.3	0.038415
1658.95	0.012305
1668.59	0.011405
1678.24	0.010155
1687.88	0.006625
1697.53	0.006345
1707.17	0.005905
1716.82	0.004315
1726.46	0.004085
1736.11	0.003615
1745.75	0.003385
1755.4	0.003345
1765.04	0.003615
1774.69	0.003905
1784.33	0.003815
1793.98	0.003425
1803.62	0.003395
1813.27	0.003685
1822.91	0.004395
1832.55	0.005595
1842.2	0.008115
1851.84	0.009725
1861.49	0.008575
1871.13	0.009045
1880.78	0.011535
1890.42	0.015745
1900.07	0.022195
1909.71	0.033825
1919.36	0.053715
1929	0.077265
1938.65	0.090995
1948.29	0.107465
1957.94	0.144875
1967.58	0.209475
1977.23	0.283855
1986.87	0.339345
1996.52	0.397905
2006.16	0.559285
2015.81	0.868865
2025.45	0.859605
2035.1	0.558815
2044.74	0.320435
2054.38	0.230745
2064.03	0.256825
2073.67	0.348595
2083.32	0.409645
2092.96	0.363595
2102.61	0.259205
2112.25	0.161495
2121.9	0.102185
2131.54	0.085035
2141.19	0.083015
2150.83	0.073675
2160.48	0.053865
2170.12	0.035825
2179.77	0.024465
2189.41	0.017855
2199.06	0.014055
2208.7	0.012245
2218.35	0.012875
2227.99	0.016485
2237.64	0.021665
2247.28	0.019225
2256.92	0.009835
2266.57	0.006685
2276.21	0.005815
2285.86	0.004875
2295.5	0.004285
2305.15	0.003995
2314.79	0.004225
2324.44	0.005485
2334.08	0.007095
2343.73	0.007145
2353.37	0.006035
2363.02	0.004565
2372.66	0.004165
2382.31	0.004965
2391.95	0.006625
2401.6	0.008875
2411.24	0.010355
2420.89	0.007955
2430.53	0.005055
2440.18	0.003895
2449.82	0.003115
2459.47	0.002905
2469.11	0.002835
2478.75	0.002805
2488.4	0.003305
2498.04	0.004495
2507.69	0.005925
2517.33	0.007525
2526.98	0.008695
2536.62	0.009325
2546.27	0.009845
2555.91	0.011605
2565.56	0.015535
2575.2	0.019125
2584.85	0.018035
2594.49	0.012775
2604.14	0.008165
2613.78	0.005945
2623.43	0.005085
2633.07	0.004435
2642.72	0.004295
2652.36	0.004435
2662.01	0.003375
2671.65	0.002065
2681.29	0.001445
2690.94	0.0013086
2700.58	0.0011916
2710.23	0.0010342
2719.87	0.001143
2729.52	0.001455
2739.16	0.001815
2748.81	0.002155
2758.45	0.002515
2768.1	0.003205
2777.74	0.003325
2787.39	0.003835
2797.03	0.004595
2806.68	0.005285
2816.32	0.006185
2825.97	0.007285
2835.61	0.008785
2845.26	0.007995
2854.9	0.005495
2864.55	0.003675
2874.19	0.003225
2883.84	0.003625
2893.48	0.004225
2903.12	0.005065
2912.77	0.005665
2922.41	0.006015
2932.06	0.004605
2941.7	0.003145
2951.35	0.002475
2960.99	0.002245
2970.64	0.002245
2980.28	0.002165
2989.93	0.002005
2999.57	0.001805
3009.22	0.001365
3018.86	0.0009164
3028.51	0.0006429
3038.15	0.0007427
3047.8	0.0006837
3057.44	0.0007155
3067.09	0.0011343
3076.73	0.002575
3086.38	0.006565
3096.02	0.007455
3105.67	0.002535
3115.31	0.001315
3124.95	0.0010796
3134.6	0.0009903
3144.24	0.0005863
3153.89	0.0006282
3163.53	0.000165
3173.18	0.0002675
3182.82	0.0002243
3192.47	0.00032954
3202.11	0.000324819
3211.76	0.000324809
3221.4	0.00039828
3231.05	0.00038618
3240.69	0.00032953
3250.34	0.0004329
3259.98	0.0003036
3269.63	0.00041436
3279.27	0.0002776
3288.92	0.000209
3298.56	0.000135
3308.21	0.000134
3317.85	0.000126
3327.49	0.000207
3337.14	0.000147
3346.78	8.6e-05
3356.43	5.7e-05
3366.07	5.9e-05
3375.72	0.000188
3385.36	0.000214
3395.01	0.0002782
3404.65	0.000165
3414.3	0.00032515
3423.94	0.00019
3433.59	0.0002364
3443.23	0.00031174
3452.88	0.000197
3462.52	0.000119
3472.17	0.0002909
3481.81	0.0005395
3491.46	0.0004859
3501.1	0.0004543
3510.75	0.00033627
3520.39	0.00035708
3530.04	0.000129
3539.68	0.00030519
3549.32	0.000153
3558.97	0.00037412
3568.61	0.0002565
3578.26	0.0004488
3587.9	0.00037547
3597.55	0.0002626
3607.19	0.0003442
3616.84	0.00039373
3626.48	0.00038927
3636.13	0.0004925
3645.77	0.0005567
3655.42	0.0005192
3665.06	0.0005041
3674.71	0.000497
3684.35	0.00037105
3694	0.0005329
3703.64	0.0002812
3713.29	0.000533
3722.93	0.0005691
3732.58	0.0005038
3742.22	0.0004164
3751.86	0.00036908
3761.51	0.0005109
3771.15	0.00040832
3780.8	0.0005512
3790.44	0.0005869
3800.09	0.0007876
3809.73	0.0011021
3819.38	0.0008287
3829.02	0.0008471
3838.67	0.000968
3848.31	0.0009795
3857.96	0.0008775
3867.6	0.0010084
3877.25	0.0012316
3886.89	0.0012532
3896.54	0.001365
3906.18	0.001455
3915.83	0.001615
3925.47	0.001955
3935.12	0.002105
3944.76	0.002095
3954.41	0.002165
3964.05	0.002285
3973.69	0.002375
3983.34	0.002565
3992.98	0.002435
