Infrared Spectrum: DIETHYLENE GLYCOL MONOACETATE
Formula: C6 H12 O4
CAS: 2093-20-1
Class: COBLENTZ
Instrument: Not specified, most likely a prism, grating, or hybrid spectrometer.
Sampling: TRANSMISSION
Path length: FILM
Resolution: 4
Origin: DOW CHEMICAL COMPANY
MICROMETERS	TRANSMITTANCE
2.034	0.796
2.07516	0.796
2.11631	0.81
2.15747	0.813
2.19863	0.811
2.23978	0.796
2.28094	0.801
2.32209	0.81
2.36325	0.818
2.40441	0.817
2.44556	0.81
2.48672	0.813
2.52788	0.83
2.56903	0.839
2.61019	0.841
2.65134	0.839
2.6925	0.808
2.73366	0.712
2.77481	0.524
2.81597	0.357
2.85713	0.295
2.89828	0.275
2.93944	0.314
2.9806	0.376
3.02175	0.466
3.06291	0.547
3.10406	0.63
3.14522	0.712
3.18638	0.747
3.22753	0.769
3.26869	0.769
3.30985	0.683
3.351	0.447
3.39216	0.321
3.43332	0.324
3.47447	0.401
3.51563	0.617
3.55678	0.726
3.59794	0.786
3.6391	0.798
3.68025	0.822
3.72141	0.851
3.76257	0.868
3.80372	0.873
3.84488	0.88
3.88603	0.89
3.92719	0.892
3.96835	0.89
4.0095	0.892
4.05066	0.895
4.09182	0.904
4.13297	0.916
4.17413	0.919
4.21529	0.917
4.25644	0.911
4.2976	0.909
4.33875	0.919
4.37991	0.919
4.42107	0.919
4.46222	0.917
4.50338	0.919
4.54454	0.919
4.58569	0.917
4.62685	0.917
4.668	0.919
4.70916	0.914
4.75032	0.905
4.79147	0.902
4.83263	0.907
4.87379	0.916
4.91494	0.917
4.9561	0.916
4.99726	0.917
5.03841	0.917
5.07957	0.911
5.12072	0.899
5.16188	0.899
5.20304	0.897
5.24419	0.897
5.28535	0.894
5.32651	0.895
5.36766	0.899
5.40882	0.892
5.44997	0.888
5.49113	0.859
5.53229	0.83
5.57344	0.788
5.6146	0.704
5.65576	0.535
5.69691	0.211
5.73807	0.039
5.77923	0.061
5.82038	0.174
5.86154	0.398
5.90269	0.639
5.94385	0.735
5.98501	0.748
6.02616	0.75
6.06732	0.767
6.10848	0.798
6.14963	0.827
6.19079	0.847
6.23195	0.851
6.2731	0.861
6.31426	0.868
6.35541	0.868
6.39657	0.868
6.43773	0.861
6.47888	0.856
6.52004	0.852
6.5612	0.839
6.60235	0.83
6.64351	0.803
6.68466	0.755
6.72582	0.656
6.76698	0.543
6.80813	0.471
6.84929	0.427
6.89045	0.42
6.9316	0.442
6.97276	0.475
7.01392	0.497
7.05507	0.499
7.09623	0.464
7.13738	0.398
7.17854	0.317
7.2197	0.218
7.26085	0.22
7.30201	0.273
7.34317	0.391
7.38432	0.519
7.42548	0.625
7.46663	0.63
7.50779	0.618
7.54895	0.593
7.5901	0.547
7.63126	0.473
7.67242	0.386
7.71357	0.299
7.75473	0.223
7.79589	0.177
7.83704	0.119
7.8782	0.085
7.91935	0.047
7.96051	0.032
8.00167	0.025
8.04282	0.025
8.08398	0.03
8.12514	0.054
8.16629	0.133
8.20745	0.273
8.2486	0.406
8.28976	0.521
8.33092	0.584
8.37207	0.622
8.41323	0.639
8.45439	0.641
8.49554	0.632
8.5367	0.61
8.57786	0.567
8.61901	0.514
8.66017	0.42
8.70132	0.295
8.74248	0.174
8.78364	0.104
8.82479	0.083
8.86595	0.087
8.90711	0.131
8.94826	0.203
8.98942	0.268
9.03058	0.35
9.07173	0.379
9.11289	0.379
9.15404	0.305
9.1952	0.241
9.23636	0.196
9.27751	0.148
9.31867	0.119
9.35983	0.102
9.40098	0.083
9.44214	0.068
9.48329	0.052
9.52445	0.051
9.56561	0.083
9.60676	0.141
9.64792	0.215
9.68908	0.292
9.73023	0.377
9.77139	0.452
9.81255	0.5
9.8537	0.531
9.89486	0.543
9.93601	0.54
9.97717	0.56
10.0183	0.601
10.0595	0.634
10.1006	0.646
10.1418	0.659
10.183	0.659
10.2241	0.647
10.2653	0.61
10.3064	0.562
10.3476	0.523
10.3887	0.495
10.4299	0.482
10.471	0.485
10.5122	0.514
10.5534	0.547
10.5945	0.577
10.6357	0.6
10.6768	0.608
10.718	0.601
10.7591	0.579
10.8003	0.56
10.8415	0.557
10.8826	0.564
10.9238	0.574
10.9649	0.579
11.0061	0.586
11.0472	0.589
11.0884	0.586
11.1295	0.572
11.1707	0.552
11.2119	0.526
11.253	0.511
11.2942	0.514
11.3353	0.552
11.3765	0.584
11.4176	0.613
11.4588	0.632
11.5	0.641
11.5411	0.642
11.5823	0.644
11.6234	0.642
11.6646	0.642
11.7057	0.632
11.7469	0.622
11.788	0.611
11.8292	0.611
11.8704	0.632
11.9115	0.659
11.9527	0.69
11.9938	0.702
12.035	0.704
12.0761	0.702
12.1173	0.702
12.1585	0.702
12.1996	0.704
12.2408	0.705
12.2819	0.705
12.3231	0.707
12.3642	0.709
12.4054	0.716
12.4466	0.729
12.4877	0.741
12.5289	0.748
12.57	0.757
12.6112	0.767
12.6523	0.772
12.6935	0.779
12.7346	0.782
12.7758	0.784
12.817	0.788
12.8581	0.788
12.8993	0.788
12.9404	0.788
12.9816	0.786
13.0227	0.784
13.0639	0.782
13.1051	0.779
13.1462	0.779
13.1874	0.774
13.2285	0.77
13.2697	0.767
13.3108	0.762
13.352	0.762
13.3931	0.762
13.4343	0.758
13.4755	0.748
13.5166	0.743
13.5578	0.743
13.5989	0.735
13.6401	0.731
13.6812	0.728
13.7224	0.721
13.7636	0.711
13.8047	0.707
13.8459	0.707
13.887	0.704
13.9282	0.7
13.9693	0.695
14.0105	0.69
14.0516	0.687
14.0928	0.683
14.134	0.68
14.1751	0.673
14.2163	0.67
14.2574	0.661
14.2986	0.658
14.3397	0.651
14.3809	0.646
14.4221	0.639
14.4632	0.634
14.5044	0.623
14.5455	0.618
14.5867	0.611
14.6278	0.605
14.669	0.601
14.7101	0.594
14.7513	0.586
14.7925	0.579
14.8336	0.572
14.8748	0.57
14.9159	0.567
14.9571	0.56
14.9982	0.552
15.0394	0.533
15.0806	0.529
15.1217	0.524
15.1629	0.521
15.204	0.511
15.2452	0.499
15.2863	0.494
15.3275	0.488
15.3686	0.48
15.4098	0.471
15.451	0.461
15.4921	0.451
15.5333	0.437
15.5744	0.43
15.6156	0.422
15.6567	0.415
15.6979	0.413
15.7391	0.411
15.7802	0.41
15.8214	0.41
15.8625	0.411
15.9037	0.411
