Infrared Spectrum: 4,4'-Bis(2-hydroxyhexafluoroisopropyl)diphenyl ether
Formula: C 18 H 10 F 12 O 3
CAS: 2093-04-1
State: gas
Origin: EPA-IR VAPOR PHASE LIBRARY
1/CM	ABSORBANCE
549.9	0.03366
559.547	0.02587
569.193	0.02106
578.84	0.01556
588.486	0.01421
598.133	0.01385
607.779	0.01555
617.426	0.02351
627.072	0.02523
636.719	0.02543
646.365	0.02495
656.012	0.02094
665.658	0.0134
675.305	0.01302
684.951	0.01649
694.598	0.03296
704.245	0.09868
713.891	0.06646
723.538	0.03626
733.184	0.07535
742.831	0.05121
752.477	0.07069
762.124	0.01665
771.77	0.01161
781.417	0.01229
791.063	0.01354
800.71	0.01438
810.356	0.02278
820.003	0.04348
829.649	0.08165
839.296	0.06549
848.943	0.06136
858.589	0.05017
868.236	0.04375
877.882	0.06101
887.529	0.03814
897.175	0.04334
906.822	0.074
916.468	0.19648
926.115	0.24204
935.761	0.15058
945.408	0.10443
955.054	0.10606
964.701	0.1523
974.347	0.1428
983.994	0.06833
993.64	0.04218
1003.29	0.03654
1012.93	0.04748
1022.58	0.04017
1032.23	0.03129
1041.87	0.03086
1051.52	0.03178
1061.17	0.03505
1070.81	0.04483
1080.46	0.07249
1090.11	0.14956
1099.75	0.21176
1109.4	0.11177
1119.05	0.08308
1128.69	0.09824
1138.34	0.106
1147.99	0.15891
1157.63	0.30951
1167.28	0.52621
1176.92	0.57873
1186.57	0.44506
1196.22	0.38336
1205.86	0.51294
1215.51	0.90795
1225.16	0.95528
1234.8	0.94902
1244.45	1.21853
1254.1	0.95334
1263.74	0.77459
1273.39	0.59034
1283.04	0.37719
1292.68	0.2717
1302.33	0.17658
1311.98	0.10794
1321.62	0.07537
1331.27	0.04873
1340.92	0.04256
1350.56	0.04435
1360.21	0.05062
1369.86	0.05914
1379.5	0.04352
1389.15	0.02661
1398.79	0.02127
1408.44	0.02116
1418.09	0.02529
1427.73	0.02276
1437.38	0.01953
1447.03	0.02138
1456.67	0.02664
1466.32	0.03218
1475.97	0.03809
1485.61	0.05688
1495.26	0.13266
1504.91	0.43945
1514.55	0.22706
1524.2	0.0707
1533.85	0.03816
1543.49	0.02774
1553.14	0.02426
1562.79	0.02396
1572.43	0.0291
1582.08	0.04494
1591.73	0.08445
1601.37	0.16156
1611.02	0.07366
1620.67	0.0312
1630.31	0.02037
1639.96	0.01654
1649.6	0.01507
1659.25	0.01388
1668.9	0.01305
1678.54	0.01136
1688.19	0.0096589
1697.84	0.008791
1707.48	0.008785
1717.13	0.008714
1726.78	0.008762
1736.42	0.008622
1746.07	0.008862
1755.72	0.009144
1765.36	0.01043
1775.01	0.01253
1784.66	0.01048
1794.3	0.008612
1803.95	0.00799
1813.6	0.00738
1823.24	0.00699
1832.89	0.00687
1842.54	0.00689
1852.18	0.00719
1861.83	0.00771
1871.47	0.008094
1881.12	0.009331
1890.77	0.01179
1900.41	0.01343
1910.06	0.01176
1919.71	0.0099744
1929.35	0.008743
1939	0.00758
1948.65	0.00701
1958.29	0.00747
1967.94	0.00857
1977.59	0.00788
1987.23	0.00771
1996.88	0.00757
2006.53	0.00772
2016.17	0.00858
2025.82	0.01023
2035.47	0.0114
2045.11	0.01049
2054.76	0.008655
2064.41	0.00751
2074.05	0.00721
2083.7	0.00761
2093.35	0.008159
2102.99	0.00795
2112.64	0.00779
2122.28	0.008054
2131.93	0.00792
2141.58	0.00766
2151.22	0.00713
2160.87	0.00672
2170.52	0.00659
2180.16	0.00676
2189.81	0.00702
2199.46	0.00696
2209.1	0.00663
2218.75	0.00641
2228.4	0.00624
2238.04	0.00618
2247.69	0.0061
2257.34	0.00603
2266.98	0.00606
2276.63	0.00619
2286.28	0.00671
2295.92	0.00713
2305.57	0.00704
2315.22	0.00684
2324.86	0.00726
2334.51	0.008168
2344.16	0.008826
2353.8	0.0094638
2363.45	0.00884
2373.09	0.008874
2382.74	0.0096068
2392.39	0.0098424
2402.03	0.0097415
2411.68	0.01049
2421.33	0.01049
2430.97	0.0096569
2440.62	0.0092934
2450.27	0.0092206
2459.91	0.0092139
2469.56	0.008674
2479.21	0.008276
2488.85	0.00796
2498.5	0.00718
2508.15	0.00657
2517.79	0.00644
2527.44	0.00642
2537.09	0.00615
2546.73	0.00589
2556.38	0.00586
2566.03	0.00575
2575.67	0.00554
2585.32	0.00521
2594.96	0.00488
2604.61	0.00444
2614.26	0.00412
2623.9	0.00392
2633.55	0.00379
2643.2	0.00376
2652.84	0.00374
2662.49	0.0038
2672.14	0.00395
2681.78	0.00398
2691.43	0.00384
2701.08	0.00389
2710.72	0.00389
2720.37	0.00407
2730.02	0.0041
2739.66	0.00392
2749.31	0.00358
2758.96	0.00345
2768.6	0.00334
2778.25	0.00321
2787.9	0.00309
2797.54	0.00294
2807.19	0.00274
2816.84	0.00267
2826.48	0.00275
2836.13	0.00281
2845.77	0.00267
2855.42	0.00245
2865.07	0.0022
2874.71	0.00212
2884.36	0.00188
2894.01	0.00174
2903.65	0.00158
2913.3	0.00123
2922.95	0.00102
2932.59	0.00078
2942.24	0.00076
2951.89	0.00069
2961.53	0.00058
2971.18	0.00056
2980.83	0.00062
2990.47	0.00065
3000.12	0.0008
3009.77	0.00122
3019.41	0.00119
3029.06	0.00111
3038.71	0.00148
3048.35	0.00351
3058	0.008014
3067.64	0.00614
3077.29	0.00444
3086.94	0.00549
3096.58	0.00432
3106.23	0.00209
3115.88	0.00195
3125.52	0.00103
3135.17	0.00055
3144.82	0.00015
3154.46	0.00022
3164.11	0.00033
3173.76	0.00043
3183.4	0.00029
3193.05	0.00015
3202.7	0.00022
3212.34	0.00018
3221.99	0.00037
3231.64	0.00037
3241.28	0.00057
3250.93	0.00092
3260.58	0.00125
3270.22	0.00148
3279.87	0.00155
3289.52	0.00192
3299.16	0.00174
3308.81	0.00181
3318.45	0.00178
3328.1	0.00218
3337.75	0.00218
3347.39	0.00227
3357.04	0.00223
3366.69	0.00252
3376.33	0.00242
3385.98	0.00255
3395.63	0.00254
3405.27	0.0027
3414.92	0.00277
3424.57	0.00283
3434.21	0.00289
3443.86	0.00295
3453.51	0.00311
3463.15	0.00299
3472.8	0.00315
3482.45	0.00321
3492.09	0.00331
3501.74	0.00337
3511.39	0.00363
3521.03	0.00377
3530.68	0.00389
3540.33	0.00417
3549.97	0.00447
3559.62	0.00477
3569.26	0.00534
3578.91	0.00612
3588.56	0.00707
3598.2	0.0097455
3607.85	0.01781
3617.5	0.05981
3627.14	0.21858
3636.79	0.07369
3646.44	0.02571
3656.08	0.01293
3665.73	0.0095249
3675.38	0.00795
3685.02	0.00704
3694.67	0.00656
3704.32	0.0061
3713.96	0.0057
3723.61	0.00547
3733.26	0.00532
3742.9	0.00519
3752.55	0.00537
3762.2	0.00526
3771.84	0.0053
3781.49	0.00508
3791.13	0.0052
3800.78	0.00511
3810.43	0.00527
3820.07	0.00529
3829.72	0.0054
3839.37	0.00543
3849.01	0.00569
3858.66	0.00576
3868.31	0.00587
3877.95	0.00598
3887.6	0.00611
3897.25	0.00616
3906.89	0.00616
3916.54	0.00622
3926.19	0.00625
3935.83	0.00613
3945.48	0.00625
3955.13	0.00634
3964.77	0.00646
3974.42	0.00618
3984.07	0.00606
3993.71	0.00582
