Infrared Spectrum: 6-Methyl-6-hepten-4-yn-2-ol
Formula: C 8 H 12 O
CAS: 20937-57-9
State: gas
Instrument: HP-GC/MS/IRD
Origin: NIST Mass Spectrometry Data Center
1/CM	ABSORBANCE
550	0.0009863
562	0.0004844
574	0.0001337
586	7.7e-06
598	0.0001463
610	0.0001869
622	9.03e-05
634	0.0001162
646	0.0001946
658	0.0002072
670	0.0001617
682	0.0002058
694	0.0002044
706	0.0001652
718	0.000119
730	0.0001106
742	0.0002156
754	1.96e-05
766	6.3e-05
778	0.0001099
790	0.0002583
802	0.0003304
814	0.0004536
826	0.0003402
838	0.0004627
850	0.0004522
862	0.0008064
874	0.0018053
886	0.0030212
898	0.0037541
910	0.0030415
922	0.0025298
934	0.0026383
946	0.002114
958	0.0009149
970	0.0005691
982	0.0004697
994	0.0007119
1006	0.0010752
1018	0.0014756
1030	0.0018004
1042	0.0024269
1054	0.0027888
1066	0.0029659
1078	0.0035385
1090	0.0045409
1102	0.0046396
1114	0.0038598
1126	0.0027573
1138	0.0017878
1150	0.0011872
1162	0.0007994
1174	0.0008057
1186	0.0009506
1198	0.0014448
1210	0.0017339
1222	0.0016919
1234	0.0016443
1246	0.0020335
1258	0.0024801
1270	0.0025844
1282	0.0031682
1294	0.0038983
1306	0.0024388
1318	0.0013874
1330	0.0013419
1342	0.0019026
1354	0.0023191
1366	0.0028056
1378	0.003647
1390	0.0033586
1402	0.0025907
1414	0.0019355
1426	0.0020699
1438	0.0020244
1450	0.0019418
1462	0.0017633
1474	0.0009695
1486	0.0005439
1498	0.0003689
1510	0.000259
1522	0.000259
1534	0.0002618
1546	0.0002527
1558	0.000371
1570	0.0004823
1582	0.0007672
1594	0.0013657
1606	0.0019936
1618	0.0021336
1630	0.00133
1642	0.0005817
1654	0.0002569
1666	0.0001645
1678	0.0001183
1690	0.0001491
1702	0.000133
1714	0.0001141
1726	8.75e-05
1738	0.0001113
1750	0.0001106
1762	0.0001778
1774	0.0002583
1786	0.0004627
1798	0.0005264
1810	0.0003234
1822	0.0001561
1834	8.54e-05
1846	4.83e-05
1858	3.43e-05
1870	3.29e-05
1882	6.51e-05
1894	4.27e-05
1906	4.13e-05
1918	4.69e-05
1930	6.51e-05
1942	5.53e-05
1954	4.55e-05
1966	4.55e-05
1978	5.81e-05
1990	1.47e-05
2002	3.5e-05
2014	3.92e-05
2026	4.76e-05
2038	5.88e-05
2050	1.26e-05
2062	5.32e-05
2074	3.78e-05
2086	1.89e-05
2098	7.49e-05
2110	5.39e-05
2122	4.83e-05
2134	4.55e-05
2146	4.06e-05
2158	3.71e-05
2170	8.54e-05
2182	9.52e-05
2194	0.0001484
2206	0.0002849
2218	0.0004326
2230	0.0003521
2242	0.0001477
2254	5.95e-05
2266	4.41e-05
2278	7.28e-05
2290	0.0001106
2302	8.05e-05
2314	6.44e-05
2326	4.76e-05
2338	9.45e-05
2350	8.26e-05
2362	5.6e-05
2374	3.99e-05
2386	4.41e-05
2398	5.6e-05
2410	8.12e-05
2422	9.17e-05
2434	9.31e-05
2446	2.66e-05
2458	4.27e-05
2470	3.36e-05
2482	9.59e-05
2494	9.1e-05
2506	8.47e-05
2518	7.77e-05
2530	5.74e-05
2542	4.83e-05
2554	5.95e-05
2566	5.32e-05
2578	7.7e-05
2590	9.24e-05
2602	8.12e-05
2614	0.0001141
2626	0.000133
2638	0.0001386
2650	0.0001449
2662	0.0001239
2674	0.0001652
2686	0.0002128
2698	0.0001288
2710	0.0001771
2722	0.0001428
2734	0.0002016
2746	0.0002198
2758	0.0002149
2770	0.0002009
2782	0.0002429
2794	0.0002842
2806	0.0004025
2818	0.0005404
2830	0.0008211
2842	0.0010367
2854	0.0011949
2866	0.0015365
2878	0.0022435
2890	0.0030009
2902	0.0038766
2914	0.0052682
2926	0.0057218
2938	0.0055727
2950	0.0043456
2962	0.0043827
2974	0.0061215
2986	0.0066696
2998	0.0035077
3010	0.0015841
3022	0.0010199
3034	0.0007532
3046	0.0005383
3058	0.0005341
3070	0.0004872
3082	0.000658
3094	0.0013132
3106	0.0015057
3118	0.0005642
3130	0.0002926
3142	0.0002359
3154	0.0001351
3166	0.0001344
3178	0.0001841
3190	0.0001365
3202	0.000119
3214	5.25e-05
3226	5.81e-05
3238	9.66e-05
3250	4.48e-05
3262	0.0001106
3274	0.0001113
3286	0.0001078
3298	9.17e-05
3310	2.66e-05
3322	5.95e-05
3334	5.74e-05
3346	4.55e-05
3358	0.0001253
3370	6.86e-05
3382	9.1e-05
3394	8.54e-05
3406	7.77e-05
3418	6.23e-05
3430	0.0001078
3442	5.88e-05
3454	8.12e-05
3466	6.09e-05
3478	6.02e-05
3490	9.17e-05
3502	8.96e-05
3514	0.0001365
3526	0.0001085
3538	0.0001722
3550	0.0002142
3562	0.0002226
3574	0.0001981
3586	0.000294
3598	0.0007679
3610	0.0016667
3622	0.0011291
3634	0.0006286
3646	0.0008736
3658	0.0010423
3670	0.0005838
3682	0.000231
3694	8.89e-05
3706	5.74e-05
3718	0.0001043
3730	4.27e-05
3742	0.0001386
3754	0.0001029
3766	0.0001638
3778	0.0001218
3790	0.0001078
3802	0.0001337
3814	1.68e-05
3826	9.66e-05
3838	1.54e-05
