Infrared Spectrum: ETHYL TELLURAC
Formula: C20 H40 N4 S8 Te
CAS: 20941-65-5
State: SOLID (1.3 mg / 210 mg CsI DISC)
Melting point: 115 C
Class: COBLENTZ III
Instrument: PERKIN-ELMER 180 (GRATING)
Instrument parameters: GRATINGS: 2000, 1000, 500, 250 CM^-^1; FILTER CHANGE: 2970, 2000, 1485, 1000, 743, 500, 372, 250, 186 CM^-^1.
Sampling: TRANSMISSION
Path length: SCALE ATTENUATION REDUCED 25%
Resolution: 2
Origin: K. K. DEB-NCI FREDERICK CANCER RESEARCH CENTER
1/CM	TRANSMITTANCE
401	0.9291
410	0.9556
419	0.9697
428	0.9613
437	0.9763
446	0.9697
455	0.9662
464	0.9694
473	0.9654
482	0.9812
491	0.9636
500	0.9002
509	0.9459
518	0.9638
527	0.9629
536	0.9577
545	0.9452
554	0.9108
563	0.7491
572	0.8044
581	0.9502
590	0.9598
599	0.9144
608	0.9158
617	0.9569
626	0.9693
635	0.9716
644	0.9713
653	0.9724
662	0.9719
671	0.9719
680	0.9733
689	0.9756
698	0.9727
707	0.9648
716	0.9582
725	0.9543
734	0.9517
743	0.9495
752	0.9446
761	0.9226
770	0.8465
779	0.7159
788	0.8645
797	0.9482
806	0.9534
815	0.9425
824	0.9164
833	0.7403
842	0.5195
851	0.7988
860	0.9283
869	0.9475
878	0.9451
887	0.9359
896	0.9027
905	0.7148
914	0.7247
923	0.9023
932	0.9343
941	0.9304
950	0.9185
959	0.8937
968	0.8578
977	0.8022
986	0.6477
995	0.7674
1004	0.797
1013	0.8584
1022	0.8861
1031	0.8794
1040	0.8577
1049	0.8117
1058	0.6872
1067	0.5371
1076	0.5159
1085	0.5944
1094	0.5354
1103	0.7409
1112	0.7864
1121	0.6622
1130	0.4928
1139	0.3798
1148	0.4241
1157	0.7653
1166	0.8556
1175	0.8619
1184	0.8384
1193	0.7461
1202	0.4913
1211	0.586
1220	0.8119
1229	0.8041
1238	0.7685
1247	0.7016
1256	0.5108
1265	0.2893
1274	0.2329
1283	0.3976
1292	0.6386
1301	0.5571
1310	0.7104
1319	0.8303
1328	0.8225
1337	0.6763
1346	0.51
1355	0.3381
1364	0.5639
1373	0.4308
1382	0.5917
1391	0.7745
1400	0.7098
1409	0.5113
1418	0.3127
1427	0.2721
1436	0.4286
1445	0.5019
1454	0.359
1463	0.486
1472	0.4569
1481	0.1928
1490	0.1869
1499	0.2158
1508	0.3363
1517	0.5065
1526	0.6121
1535	0.6817
1544	0.7139
1553	0.7319
1562	0.7442
1571	0.7569
1580	0.7734
1589	0.7942
1598	0.8132
1607	0.8325
1616	0.846
1625	0.8548
1634	0.8624
1643	0.8681
1652	0.8722
1661	0.8749
1670	0.8765
1679	0.8773
1688	0.8776
1697	0.8782
1706	0.8791
1715	0.8817
1724	0.888
1733	0.8932
1742	0.8971
1751	0.8993
1760	0.9007
1769	0.9013
1778	0.9016
1787	0.9011
1796	0.8993
1805	0.8971
1814	0.8939
1823	0.8929
1832	0.893
1841	0.8945
1850	0.8961
1859	0.8962
1868	0.8922
1877	0.8824
1886	0.8715
1895	0.8759
1904	0.8826
1913	0.8885
1922	0.8919
1931	0.8934
1940	0.8915
1949	0.889
1958	0.8874
1967	0.887
1976	0.8875
1985	0.8858
1994	0.8836
2003	0.8896
2012	0.8929
2021	0.8947
2030	0.8944
2039	0.8918
2048	0.8883
2057	0.8847
2066	0.8854
2075	0.8881
2084	0.8902
2093	0.8914
2102	0.892
2111	0.8916
2120	0.8913
2129	0.8905
2138	0.8898
2147	0.889
2156	0.8882
2165	0.8874
2174	0.8867
2183	0.8857
2192	0.8847
2201	0.8837
2210	0.883
2219	0.8827
2228	0.8825
2237	0.8822
2246	0.882
2255	0.8817
2264	0.8807
2273	0.8798
2282	0.8789
2291	0.8782
2300	0.8776
2309	0.8773
2318	0.8765
2327	0.8752
2336	0.8741
2345	0.8728
2354	0.8717
2363	0.8702
2372	0.8689
2381	0.8675
2390	0.8662
2399	0.8647
2408	0.8632
2417	0.8617
2426	0.8599
2435	0.8582
2444	0.8583
2453	0.8597
2462	0.859
2471	0.8572
2480	0.8553
2489	0.8534
2498	0.8515
2507	0.8498
2516	0.8482
2525	0.8466
2534	0.8459
2543	0.8452
2552	0.8445
2561	0.8439
2570	0.8429
2579	0.8418
2588	0.8407
2597	0.8396
2606	0.8385
2615	0.8376
2624	0.8377
2633	0.8378
2642	0.8379
2651	0.8368
2660	0.8356
2669	0.8321
2678	0.8285
2687	0.8272
2696	0.8268
2705	0.8254
2714	0.8239
2723	0.8227
2732	0.8226
2741	0.822
2750	0.8182
2759	0.8111
2768	0.8043
2777	0.8009
2786	0.8028
2795	0.8022
2804	0.8003
2813	0.7924
2822	0.7827
2831	0.7815
2840	0.7811
2849	0.7744
2858	0.7559
2867	0.6821
2876	0.6506
2885	0.7
2894	0.6917
2903	0.6674
2912	0.6587
2921	0.6129
2930	0.5184
2939	0.5281
2948	0.6135
2957	0.6211
2966	0.527
2975	0.4328
2984	0.4402
2993	0.544
3002	0.6479
3011	0.7213
3020	0.7469
3029	0.7657
3038	0.7758
3047	0.7815
3056	0.7848
3065	0.7865
3074	0.7874
3083	0.7876
3092	0.7875
3101	0.787
3110	0.7866
3119	0.7857
3128	0.7847
3137	0.7837
3146	0.7824
3155	0.781
3164	0.7797
3173	0.7783
3182	0.7773
3191	0.7768
3200	0.7764
3209	0.7759
3218	0.7755
3227	0.7758
3236	0.7763
3245	0.7767
3254	0.7773
3263	0.7768
3272	0.7761
3281	0.7754
3290	0.7746
3299	0.7739
3308	0.7725
3317	0.7711
3326	0.7698
3335	0.7683
3344	0.767
3353	0.7655
3362	0.7643
3371	0.763
3380	0.7619
3389	0.7606
3398	0.7595
3407	0.7583
3416	0.7571
3425	0.7562
3434	0.7556
3443	0.7549
3452	0.7543
3461	0.7536
3470	0.753
3479	0.7523
3488	0.7518
3497	0.7514
3506	0.751
3515	0.7505
3524	0.7502
3533	0.7497
3542	0.7493
3551	0.7488
3560	0.7484
3569	0.748
3578	0.7476
3587	0.7471
3596	0.747
3605	0.7468
3614	0.7466
3623	0.7464
3632	0.7463
3641	0.7458
3650	0.7453
3659	0.7447
3668	0.7442
3677	0.7437
3686	0.7432
3695	0.7418
3704	0.7401
3713	0.7385
3722	0.7368
3731	0.7352
3740	0.7336
3749	0.732
3758	0.7304
3767	0.7302
3776	0.73
3785	0.7295
3794	0.7288
