Infrared Spectrum: Adamantane-1-carbonyl chloride
Formula: C 11 H 15 Cl O
CAS: 2094-72-6
State: gas
Origin: EPA-IR VAPOR PHASE LIBRARY
1/CM	ABSORBANCE
549.9	0.000198
559.547	0.00011
569.193	0.0001
578.84	0.00014
588.486	0.000186
598.133	0.000311
607.779	0.000617
617.426	0.000869
627.072	0.0015267
636.719	0.00269
646.365	0.0061
656.012	0.01574
665.658	0.02893
675.305	0.01491
684.951	0.00296
694.598	0.0015616
704.245	0.0013846
713.891	0.0015946
723.538	0.0021312
733.184	0.0047
742.831	0.01686
752.477	0.03096
762.124	0.01734
771.77	0.01416
781.417	0.02427
791.063	0.01725
800.71	0.00691
810.356	0.00541
820.003	0.00571
829.649	0.00314
839.296	0.0019534
848.943	0.001489
858.589	0.0014836
868.236	0.00223
877.882	0.00368
887.529	0.00452
897.175	0.00795
906.822	0.02276
916.468	0.03149
926.115	0.01505
935.761	0.01047
945.408	0.01039
955.054	0.00702
964.701	0.00764
974.347	0.0127
983.994	0.01744
993.64	0.00774
1003.29	0.00244
1012.93	0.0015127
1022.58	0.0013448
1032.23	0.0018145
1041.87	0.00256
1051.52	0.0021117
1061.17	0.0014833
1070.81	0.0013248
1080.46	0.0015915
1090.11	0.0029
1099.75	0.00484
1109.4	0.00629
1119.05	0.01236
1128.69	0.016
1138.34	0.00867
1147.99	0.00351
1157.63	0.00292
1167.28	0.00296
1176.92	0.0017799
1186.57	0.00219
1196.22	0.0018807
1205.86	0.000995
1215.51	0.000819
1225.16	0.000879
1234.8	0.001068
1244.45	0.001097
1254.1	0.0014689
1263.74	0.0016053
1273.39	0.00119991
1283.04	0.00121472
1292.68	0.00125378
1302.33	0.0014476
1311.98	0.0022
1321.62	0.0018637
1331.27	0.0016329
1340.92	0.00283
1350.56	0.00302
1360.21	0.001895
1369.86	0.001079
1379.5	0.000939
1389.15	0.000921
1398.79	0.000915
1408.44	0.0011168
1418.09	0.0015645
1427.73	0.00228
1437.38	0.00398
1447.03	0.00985
1456.67	0.01702
1466.32	0.01074
1475.97	0.00343
1485.61	0.0016721
1495.26	0.0011261
1504.91	0.000931
1514.55	0.000806
1524.2	0.000713
1533.85	0.00075
1543.49	0.000749
1553.14	0.000703
1562.79	0.000773
1572.43	0.000775
1582.08	0.000705
1591.73	0.000713
1601.37	0.000801
1611.02	0.000756
1620.67	0.000742
1630.31	0.000933
1639.96	0.001044
1649.6	0.001031
1659.25	0.0011041
1668.9	0.0011255
1678.54	0.0010892
1688.19	0.0013011
1697.84	0.0014484
1707.48	0.001332
1717.13	0.0015428
1726.78	0.0018335
1736.42	0.00244
1746.07	0.00373
1755.72	0.00674
1765.36	0.01188
1775.01	0.02016
1784.66	0.03986
1794.3	0.06823
1803.95	0.05795
1813.6	0.02706
1823.24	0.01452
1832.89	0.00883
1842.54	0.00497
1852.18	0.0034
1861.83	0.00265
1871.47	0.0020627
1881.12	0.0018076
1890.77	0.0015354
1900.41	0.0013886
1910.06	0.0013011
1919.71	0.00126174
1929.35	0.00118413
1939	0.00125651
1948.65	0.00127966
1958.29	0.001034
1967.94	0.000923
1977.59	0.000864
1987.23	0.000921
1996.88	0.000916
2006.53	0.001048
2016.17	0.001002
2025.82	0.00095
2035.47	0.001065
2045.11	0.001004
2054.76	0.000922
2064.41	0.000881
2074.05	0.000845
2083.7	0.000912
2093.35	0.000979
2102.99	0.001026
2112.64	0.000947
2122.28	0.000881
2131.93	0.000891
2141.58	0.000942
2151.22	0.000936
2160.87	0.000941
2170.52	0.000939
2180.16	0.000967
2189.81	0.000899
2199.46	0.000909
2209.1	0.000975
2218.75	0.001017
2228.4	0.001072
2238.04	0.00106
2247.69	0.0011223
2257.34	0.0011232
2266.98	0.001047
2276.63	0.000995
2286.28	0.000996
2295.92	0.001016
2305.57	0.000956
2315.22	0.000916
2324.86	0.000869
2334.51	0.000877
2344.16	0.000866
2353.8	0.000892
2363.45	0.000948
2373.09	0.000876
2382.74	0.000923
2392.39	0.000879
2402.03	0.000949
2411.68	0.001004
2421.33	0.001074
2430.97	0.0011256
2440.62	0.0010994
2450.27	0.000968
2459.91	0.000977
2469.56	0.001007
2479.21	0.00101
2488.85	0.000981
2498.5	0.001012
2508.15	0.00095
2517.79	0.000978
2527.44	0.001059
2537.09	0.001047
2546.73	0.0011573
2556.38	0.001142
2566.03	0.00123764
2575.67	0.00127711
2585.32	0.00119745
2594.96	0.00118054
2604.61	0.0013419
2614.26	0.0015344
2623.9	0.0015925
2633.55	0.0015498
2643.2	0.0017886
2652.84	0.0021305
2662.49	0.00251
2672.14	0.00249
2681.78	0.00239
2691.43	0.0017147
2701.08	0.0013019
2710.72	0.0012907
2720.37	0.0011187
2730.02	0.0011597
2739.66	0.00124692
2749.31	0.001357
2758.96	0.0013726
2768.6	0.0014139
2778.25	0.0013901
2787.9	0.0015549
2797.54	0.0018168
2807.19	0.0019835
2816.84	0.00241
2826.48	0.00264
2836.13	0.00312
2845.77	0.00679
2855.42	0.02287
2865.07	0.03634
2874.71	0.02206
2884.36	0.01118
2894.01	0.01168
2903.65	0.03466
2913.3	0.10301
2922.95	0.15527
2932.59	0.10379
2942.24	0.06178
2951.89	0.03997
2961.53	0.01472
2971.18	0.00518
2980.83	0.00285
2990.47	0.0020655
3000.12	0.0013922
3009.77	0.0011585
3019.41	0.000944
3029.06	0.000945
3038.71	0.0008
3048.35	0.00087
3058	0.000657
3067.64	0.000764
3077.29	0.000756
3086.94	0.000814
3096.58	0.000613
3106.23	0.000479
3115.88	0.0004
3125.52	0.000487
3135.17	0.000306
3144.82	0.000479
3154.46	0.000385
3164.11	0.000472
3173.76	0.00046
3183.4	0.000329
3193.05	0.000321
3202.7	0.00016
3212.34	0.000275
3221.99	0.000338
3231.64	0.000293
3241.28	0.000573
3250.93	0.000514
3260.58	0.000486
3270.22	0.000316
3279.87	0.000214
3289.52	0.00048
3299.16	0.00017
3308.81	0.000212
3318.45	0.000299
3328.1	0.00011
3337.75	0.00036
3347.39	0.00012
3357.04	0.00011
3366.69	0.000488
3376.33	0.000354
3385.98	0.000462
3395.63	0.000182
3405.27	0.000237
3414.92	0.000327
3424.57	0.00039
3434.21	0.000263
3443.86	0.000229
3453.51	0.000342
3463.15	7e-05
3472.8	9e-05
3482.45	0.00015
3492.09	0.00012
3501.74	0.00016
3511.39	0.000243
3521.03	0.000301
3530.68	0.00033
3540.33	0.000437
3549.97	0.000802
3559.62	0.001051
3569.26	0.0015869
3578.91	0.0012831
3588.56	0.000939
3598.2	0.000619
3607.85	0.000623
3617.5	0.000382
3627.14	0.000457
3636.79	0.00025
3646.44	0.000379
3656.08	0.000287
3665.73	0.000315
3675.38	0.000533
3685.02	0.000329
3694.67	0.000405
3704.32	0.000466
3713.96	0.000338
3723.61	0.00054
3733.26	0.000733
3742.9	0.000598
3752.55	0.000602
3762.2	0.000446
3771.84	0.000517
3781.49	0.000465
3791.13	0.00064
3800.78	0.000676
3810.43	0.00079
3820.07	0.000615
3829.72	0.00075
3839.37	0.000765
3849.01	0.000678
3858.66	0.000795
3868.31	0.000583
3877.95	0.000746
3887.6	0.00085
3897.25	0.0008
3906.89	0.000709
3916.54	0.000709
3926.19	0.000543
3935.83	0.00055
3945.48	0.000676
3955.13	0.000742
3964.77	0.000716
3974.42	0.000819
3984.07	0.000744
3993.71	0.000623
