Infrared Spectrum: Ethyl adamantane-1-carboxylate
Formula: C 13 H 20 O 2
CAS: 2094-73-7
State: gas
Origin: EPA-IR VAPOR PHASE LIBRARY
1/CM	ABSORBANCE
549.9	0.00079
559.547	0.00063
569.193	0.00042
578.84	0.00039
588.486	0.00016
598.133	0.00022
607.779	0.00026
617.426	0.00033
627.072	0.00029
636.719	0.0005
646.365	0.00066
656.012	0.00092
665.658	0.00366
675.305	0.00861
684.951	0.0022824
694.598	0.00067
704.245	0.00058
713.891	0.0008
723.538	0.001577
733.184	0.00332
742.831	0.00512
752.477	0.00585
762.124	0.00447
771.77	0.0028651
781.417	0.0024449
791.063	0.0024797
800.71	0.0027666
810.356	0.0028403
820.003	0.0023459
829.649	0.00206156
839.296	0.0023197
848.943	0.00393
858.589	0.00773
868.236	0.00719
877.882	0.00375
887.529	0.0028386
897.175	0.00316
906.822	0.00365
916.468	0.002954
926.115	0.00334
935.761	0.00463
945.408	0.00411
955.054	0.00421
964.701	0.00601
974.347	0.01038
983.994	0.00989
993.64	0.00659
1003.29	0.00807
1012.93	0.01361
1022.58	0.01549
1032.23	0.0121
1041.87	0.0116
1051.52	0.01717
1061.17	0.04997
1070.81	0.16226
1080.46	0.18283
1090.11	0.0824
1099.75	0.07461
1109.4	0.04525
1119.05	0.01662
1128.69	0.01083
1138.34	0.0093
1147.99	0.01039
1157.63	0.01386
1167.28	0.02273
1176.92	0.04431
1186.57	0.05817
1196.22	0.05399
1205.86	0.05894
1215.51	0.10995
1225.16	0.24301
1234.8	0.28928
1244.45	0.13735
1254.1	0.06033
1263.74	0.04073
1273.39	0.02713
1283.04	0.01634
1292.68	0.01401
1302.33	0.01385
1311.98	0.01547
1321.62	0.0201
1331.27	0.01404
1340.92	0.00988
1350.56	0.00893
1360.21	0.01081
1369.86	0.01361
1379.5	0.00954
1389.15	0.00885
1398.79	0.00847
1408.44	0.0075
1418.09	0.00767
1427.73	0.00944
1437.38	0.0151
1447.03	0.03167
1456.67	0.05056
1466.32	0.03417
1475.97	0.017
1485.61	0.00985
1495.26	0.00641
1504.91	0.00475
1514.55	0.00382
1524.2	0.0034
1533.85	0.0029958
1543.49	0.0026893
1553.14	0.0026186
1562.79	0.0027299
1572.43	0.0026403
1582.08	0.002332
1591.73	0.00210392
1601.37	0.0019389
1611.02	0.001862
1620.67	0.001828
1630.31	0.0019543
1639.96	0.0021619
1649.6	0.0025972
1659.25	0.00318
1668.9	0.00413
1678.54	0.0052
1688.19	0.00683
1697.84	0.01065
1707.48	0.01838
1717.13	0.03702
1726.78	0.07653
1736.42	0.14607
1746.07	0.16122
1755.72	0.08039
1765.36	0.02891
1775.01	0.01158
1784.66	0.00643
1794.3	0.0045
1803.95	0.00349
1813.6	0.0029472
1823.24	0.0025289
1832.89	0.0022296
1842.54	0.0019969
1852.18	0.001806
1861.83	0.001834
1871.47	0.001872
1881.12	0.001896
1890.77	0.001705
1900.41	0.001541
1910.06	0.001742
1919.71	0.0021911
1929.35	0.0026058
1939	0.0024699
1948.65	0.0019941
1958.29	0.001692
1967.94	0.001511
1977.59	0.001414
1987.23	0.001418
1996.88	0.001419
2006.53	0.001318
2016.17	0.001202
2025.82	0.001273
2035.47	0.001345
2045.11	0.001497
2054.76	0.001509
2064.41	0.00156
2074.05	0.001776
2083.7	0.00211499
2093.35	0.0021516
2102.99	0.0019379
2112.64	0.001687
2122.28	0.001668
2131.93	0.00157
2141.58	0.001482
2151.22	0.001347
2160.87	0.001225
2170.52	0.001158
2180.16	0.001089
2189.81	0.001056
2199.46	0.001099
2209.1	0.001157
2218.75	0.001278
2228.4	0.001255
2238.04	0.001182
2247.69	0.001191
2257.34	0.001291
2266.98	0.001418
2276.63	0.001384
2286.28	0.001536
2295.92	0.00163
2305.57	0.00148
2315.22	0.001252
2324.86	0.0012
2334.51	0.001149
2344.16	0.001137
2353.8	0.001163
2363.45	0.001205
2373.09	0.001277
2382.74	0.00143
2392.39	0.001525
2402.03	0.001587
2411.68	0.00155
2421.33	0.001683
2430.97	0.001814
2440.62	0.001589
2450.27	0.001481
2459.91	0.001452
2469.56	0.001432
2479.21	0.001262
2488.85	0.001169
2498.5	0.001186
2508.15	0.001172
2517.79	0.001311
2527.44	0.001355
2537.09	0.001414
2546.73	0.001579
2556.38	0.001607
2566.03	0.001892
2575.67	0.00204275
2585.32	0.001875
2594.96	0.0019932
2604.61	0.0023411
2614.26	0.0028737
2623.9	0.0029746
2633.55	0.0031
2643.2	0.00357
2652.84	0.00467
2662.49	0.00602
2672.14	0.00583
2681.78	0.00512
2691.43	0.002944
2701.08	0.001765
2710.72	0.001612
2720.37	0.001729
2730.02	0.001912
2739.66	0.00209079
2749.31	0.002454
2758.96	0.0028125
2768.6	0.0028081
2778.25	0.0029623
2787.9	0.00342
2797.54	0.00441
2807.19	0.00547
2816.84	0.00703
2826.48	0.0083
2836.13	0.01094
2845.77	0.02788
2855.42	0.08779
2865.07	0.10642
2874.71	0.05574
2884.36	0.03767
2894.01	0.06227
2903.65	0.19026
2913.3	0.39987
2922.95	0.41598
2932.59	0.21689
2942.24	0.17968
2951.89	0.09657
2961.53	0.04549
2971.18	0.03808
2980.83	0.04944
2990.47	0.04285
3000.12	0.02514
3009.77	0.01594
3019.41	0.0094
3029.06	0.00569
3038.71	0.00386
3048.35	0.0029213
3058	0.002227
3067.64	0.00208691
3077.29	0.00171
3086.94	0.001594
3096.58	0.001348
3106.23	0.001106
3115.88	0.00082
3125.52	0.00081
3135.17	0.00075
3144.82	0.00063
3154.46	0.00057
3164.11	0.0005
3173.76	0.0007
3183.4	0.00061
3193.05	0.00052
3202.7	0.00053
3212.34	0.00048
3221.99	0.00034
3231.64	0.00057
3241.28	0.00057
3250.93	0.00067
3260.58	0.00059
3270.22	0.00032
3279.87	0.00011
3289.52	3e-05
3299.16	4e-05
3308.81	0.00021
3318.45	0.00019
3328.1	0.00016
3337.75	0.00033
3347.39	0.00032
3357.04	0.00054
3366.69	0.00071
3376.33	0.00066
3385.98	0.00075
3395.63	0.00098
3405.27	0.00065
3414.92	0.00052
3424.57	0.00041
3434.21	0.00062
3443.86	0.00087
3453.51	0.001148
3463.15	0.001461
3472.8	0.001549
3482.45	0.00077
3492.09	0.00021
3501.74	0.00024
3511.39	0.00021
3521.03	0.00017
3530.68	0.00012
3540.33	0.00013
3549.97	0.00037
3559.62	0.00072
3569.26	0.00044
3578.91	0.00043
3588.56	0.0005
3598.2	0.00031
3607.85	0.00036
3617.5	0.00023
3627.14	0.00018
3636.79	0.00017
3646.44	0.00038
3656.08	0.00032
3665.73	0.00045
3675.38	0.00041
3685.02	0.00052
3694.67	0.00041
3704.32	0.00048
3713.96	0.00064
3723.61	0.00069
3733.26	0.00085
3742.9	0.00086
3752.55	0.00078
3762.2	0.0007
3771.84	0.00066
3781.49	0.00074
3791.13	0.0008
3800.78	0.001
3810.43	0.001043
3820.07	0.00095
3829.72	0.001094
3839.37	0.001053
3849.01	0.001174
3858.66	0.001052
3868.31	0.00095
3877.95	0.00089
3887.6	0.001101
3897.25	0.001122
3906.89	0.001037
3916.54	0.00098
3926.19	0.0009
3935.83	0.00101
3945.48	0.001
3955.13	0.00114
3964.77	0.00132
3974.42	0.001373
3984.07	0.001276
3993.71	0.001312
