Infrared Spectrum: Phenothiazine, 10-(3'-aminopropyl)-2-chloro-
Formula: C15 H15 Cl N2 S
CAS: 2095-17-2
State: LIQUID (NEAT)
Class: COBLENTZ III
Instrument: PERKIN-ELMER 21 (GRATING)
Instrument parameters: NaCl PRISM
Sampling: TRANSMISSION
Path length: CAPILLARY
Resolution: 2
Origin: SMITH KLINE & FRENCH LABS.
1/CM	TRANSMITTANCE
659	0.7233
668	0.7391
677	0.6402
686	0.7269
695	0.7149
704	0.7135
713	0.6624
722	0.5029
731	0.2836
740	0.1688
749	0.0804
758	0.2244
767	0.4673
776	0.5226
785	0.3803
794	0.1815
803	0.1739
812	0.2868
821	0.3566
830	0.3187
839	0.2334
848	0.2133
857	0.2476
866	0.3463
875	0.3515
884	0.3275
893	0.3107
902	0.3038
911	0.3114
920	0.2348
929	0.316
938	0.5107
947	0.5886
956	0.6704
965	0.6943
974	0.7483
983	0.7679
992	0.7791
1001	0.771
1010	0.7569
1019	0.7352
1028	0.6124
1037	0.3378
1046	0.4437
1055	0.4654
1064	0.5535
1073	0.5542
1082	0.4594
1091	0.1919
1100	0.1905
1109	0.2648
1118	0.323
1127	0.201
1136	0.3521
1145	0.5937
1154	0.5051
1163	0.521
1172	0.6595
1181	0.6755
1190	0.6016
1199	0.477
1208	0.3085
1217	0.2394
1226	0.1719
1235	0.0868
1244	0.078
1253	0.2835
1262	0.3947
1271	0.2337
1280	0.1946
1289	0.2231
1298	0.2536
1307	0.2412
1316	0.2001
1325	0.3142
1334	0.4436
1343	0.3892
1352	0.5382
1361	0.4136
1370	0.3025
1379	0.3177
1388	0.2996
1397	0.1508
1406	0.0683
1415	0.2574
1424	0.2354
1433	0.0987
1442	0.0645
1451	0.0451
1460	0.0417
1469	0.0834
1478	0.1911
1487	0.2225
1496	0.5082
1505	0.6192
1514	0.6621
1523	0.6631
1532	0.6539
1541	0.5392
1550	0.3304
1559	0.0619
1568	0.0779
1577	0.2153
1586	0.1682
1595	0.1867
1604	0.4593
1613	0.5473
1622	0.6424
1631	0.6856
1640	0.7081
1649	0.6766
1658	0.5994
1667	0.6502
1676	0.7655
1685	0.7888
1694	0.782
1703	0.8094
1712	0.8175
1721	0.8286
1730	0.8354
1739	0.8616
1748	0.8613
1757	0.8555
1766	0.8529
1775	0.8388
1784	0.8489
1793	0.8746
1802	0.876
1811	0.8749
1820	0.8735
1829	0.8671
1838	0.8403
1847	0.8213
1856	0.7923
1865	0.8234
1874	0.832
1883	0.8304
1892	0.8316
1901	0.8399
1910	0.8591
1919	0.85
1928	0.8514
1937	0.88
1946	0.899
1955	0.9069
1964	0.9161
1973	0.918
1982	0.9178
1991	0.9186
2000	0.9195
2009	0.92
2018	0.9206
2027	0.9211
2036	0.9215
2045	0.9214
2054	0.921
2063	0.9205
2072	0.9201
2081	0.9196
2090	0.9188
2099	0.9194
2108	0.9175
2117	0.9089
2126	0.9068
2135	0.9079
2144	0.9073
2153	0.9063
2162	0.9065
2171	0.9075
2180	0.9107
2189	0.9155
2198	0.9198
2207	0.9198
2216	0.9145
2225	0.9115
2234	0.9094
2243	0.9098
2252	0.9169
2261	0.922
2270	0.9234
2279	0.9242
2288	0.9242
2297	0.9263
2306	0.9285
2315	0.9297
2324	0.926
2333	0.9216
2342	0.9171
2351	0.9106
2360	0.9041
2369	0.898
2378	0.903
2387	0.907
2396	0.9061
2405	0.9043
2414	0.9032
2423	0.9025
2432	0.9016
2441	0.8995
2450	0.8907
2459	0.8838
2468	0.8815
2477	0.87
2486	0.8576
2495	0.8507
2504	0.8445
2513	0.8366
2522	0.8326
2531	0.8319
2540	0.832
2549	0.8323
2558	0.8332
2567	0.8343
2576	0.8345
2585	0.8342
2594	0.8336
2603	0.8307
2612	0.8276
2621	0.823
2630	0.8179
2639	0.8128
2648	0.808
2657	0.8032
2666	0.7972
2675	0.794
2684	0.7919
2693	0.7851
2702	0.7696
2711	0.7549
2720	0.7418
2729	0.7317
2738	0.7218
2747	0.702
2756	0.6786
2765	0.6521
2774	0.5957
2783	0.5272
2792	0.4591
2801	0.3951
2810	0.3575
2819	0.3194
2828	0.3197
2837	0.323
2846	0.3317
2855	0.3328
2864	0.3314
2873	0.3295
2882	0.3307
2891	0.3337
2900	0.3521
2909	0.393
2918	0.4337
2927	0.4742
2936	0.5145
2945	0.5545
2954	0.5943
2963	0.6193
2972	0.6253
2981	0.6239
2990	0.6174
2999	0.6131
3008	0.6128
3017	0.6133
3026	0.6145
3035	0.6285
3044	0.6688
3053	0.7106
3062	0.7306
3071	0.7405
3080	0.7507
3089	0.7562
3098	0.7585
3107	0.7588
3116	0.7588
3125	0.7589
3134	0.7586
3143	0.7557
3152	0.7526
3161	0.7506
3170	0.749
3179	0.7479
3188	0.7468
3197	0.7463
3206	0.744
3215	0.742
3224	0.7432
3233	0.7475
3242	0.753
3251	0.7554
3260	0.756
3269	0.7569
3278	0.7604
3287	0.7688
3296	0.7863
3305	0.7868
3314	0.7884
3323	0.7923
3332	0.798
3341	0.805
3350	0.8136
3359	0.8243
3368	0.8369
3377	0.8519
3386	0.872
3395	0.8824
3404	0.885
3413	0.8893
3422	0.8949
3431	0.9042
3440	0.9184
3449	0.9241
3458	0.9257
3467	0.9261
3476	0.9262
3485	0.9259
3494	0.9256
3503	0.9255
3512	0.9262
3521	0.9275
3530	0.9288
3539	0.9297
3548	0.9298
3557	0.9285
3566	0.9273
3575	0.9237
3584	0.9198
3593	0.9143
3602	0.9108
3611	0.9112
3620	0.9124
3629	0.9171
3638	0.9231
3647	0.9275
3656	0.9306
3665	0.9331
3674	0.9375
3683	0.9395
3692	0.941
3701	0.9423
3710	0.947
3719	0.9549
3728	0.9597
3737	0.9621
3746	0.9628
3755	0.9631
3764	0.9635
3773	0.9636
3782	0.9634
3791	0.963
3800	0.9628
3809	0.9621
3818	0.9614
3827	0.9608
3836	0.9601
3845	0.9594
3854	0.9587
3863	0.9581
3872	0.9575
3881	0.957
3890	0.9564
3899	0.9554
3908	0.9541
3917	0.9529
3926	0.9518
3935	0.951
3944	0.9508
3953	0.9505
3962	0.9502
3971	0.95
3980	0.9497
3989	0.9498
3998	0.9502
