Infrared Spectrum: 3-Benzyloxyphenylacetonitrile
Formula: C 15 H 13 N O
CAS: 20967-96-8
State: gas
Origin: EPA-IR VAPOR PHASE LIBRARY
1/CM	ABSORBANCE
551.7	0.00185
563.274	0.00186
574.848	0.00195
586.421	0.00223
597.995	0.00293
609.569	0.00379
621.143	0.00436
632.717	0.00392
644.291	0.00316
655.864	0.00347
667.438	0.00594
679.012	0.01394
690.586	0.02724
702.16	0.0213
713.734	0.01483
725.307	0.01733
736.881	0.02164
748.455	0.02156
760.029	0.01899
771.603	0.0186
783.177	0.01449
794.75	0.00685
806.324	0.00426
817.898	0.00385
829.472	0.00459
841.046	0.00606
852.619	0.00563
864.193	0.00596
875.767	0.00691
887.341	0.00674
898.915	0.00696
910.489	0.00643
922.062	0.00584
933.636	0.00547
945.21	0.00509
956.784	0.00518
968.358	0.0056
979.932	0.00788
991.505	0.01312
1003.08	0.01772
1014.65	0.02753
1026.23	0.03835
1037.8	0.03221
1049.37	0.02057
1060.95	0.00964
1072.52	0.00762
1084.1	0.00715
1095.67	0.00517
1107.24	0.00405
1118.82	0.00443
1130.39	0.0085
1141.97	0.02493
1153.54	0.0386
1165.11	0.02295
1176.69	0.01043
1188.26	0.0079
1199.83	0.00967
1211.41	0.01364
1222.98	0.02326
1234.56	0.04037
1246.13	0.04969
1257.7	0.05938
1269.28	0.04671
1280.85	0.03501
1292.42	0.02912
1304	0.02549
1315.57	0.0226
1327.15	0.01493
1338.72	0.01111
1350.29	0.00682
1361.87	0.00797
1373.44	0.01358
1385.02	0.0119
1396.59	0.00634
1408.16	0.0066
1419.74	0.00982
1431.31	0.01646
1442.88	0.03143
1454.46	0.02887
1466.03	0.01887
1477.61	0.02363
1489.18	0.04601
1500.75	0.02394
1512.33	0.01032
1523.9	0.007
1535.48	0.00597
1547.05	0.0062
1558.62	0.00851
1570.2	0.01512
1581.77	0.03505
1593.34	0.05169
1604.92	0.05315
1616.49	0.02784
1628.07	0.00914
1639.64	0.00461
1651.21	0.00327
1662.79	0.00277
1674.36	0.00247
1685.93	0.00235
1697.51	0.00222
1709.08	0.00227
1720.66	0.00241
1732.23	0.00254
1743.8	0.00245
1755.38	0.00223
1766.95	0.00203
1778.53	0.00214
1790.1	0.00254
1801.67	0.00294
1813.25	0.00231
1824.82	0.00212
1836.39	0.00222
1847.97	0.00228
1859.54	0.00235
1871.12	0.00244
1882.69	0.00244
1894.26	0.00212
1905.84	0.00215
1917.41	0.00255
1928.99	0.00279
1940.56	0.00264
1952.13	0.00262
1963.71	0.00233
1975.28	0.0018
1986.85	0.00173
1998.43	0.00166
2010	0.00161
2021.58	0.00157
2033.15	0.00154
2044.72	0.00146
2056.3	0.0014
2067.87	0.00133
2079.44	0.00124
2091.02	0.00118
2102.59	0.0011
2114.17	0.00108
2125.74	0.00105
2137.31	0.00106
2148.89	0.00102
2160.46	0.00103
2172.04	0.00107
2183.61	0.00106
2195.18	0.00108
2206.76	0.0011
2218.33	0.00115
2229.9	0.00116
2241.48	0.0014
2253.05	0.00177
2264.63	0.00152
2276.2	0.0012
2287.77	0.00106
2299.35	0.00108
2310.92	0.00125
2322.5	0.00133
2334.07	0.00133
2345.64	0.00133
2357.22	0.00119
2368.79	0.00113
2380.36	0.00113
2391.94	0.00116
2403.51	0.00118
2415.09	0.00116
2426.66	0.00116
2438.23	0.00112
2449.81	0.00107
2461.38	0.00109
2472.96	0.00112
2484.53	0.00117
2496.1	0.00117
2507.68	0.0012
2519.25	0.00121
2530.82	0.00117
2542.4	0.00115
2553.97	0.00116
2565.55	0.00121
2577.12	0.00125
2588.69	0.00125
2600.27	0.00123
2611.84	0.00116
2623.41	0.00102
2634.99	0.00097
2646.56	0.0008754
2658.14	0.0008311
2669.71	0.0008333
2681.28	0.0008886
2692.86	0.0009287
2704.43	0.00104
2716.01	0.00111
2727.58	0.00126
2739.15	0.00134
2750.73	0.00116
2762.3	0.00108
2773.87	0.00106
2785.45	0.00112
2797.02	0.00117
2808.6	0.00144
2820.17	0.00178
2831.74	0.00225
2843.32	0.00258
2854.89	0.00311
2866.47	0.00458
2878.04	0.00692
2889.61	0.00787
2901.19	0.00696
2912.76	0.00716
2924.33	0.00811
2935.91	0.00911
2947.48	0.00865
2959.06	0.00827
2970.63	0.00568
2982.2	0.00355
2993.78	0.00267
3005.35	0.00335
3016.92	0.00575
3028.5	0.01182
3040.07	0.01711
3051.65	0.01486
3063.22	0.01633
3074.79	0.02024
3086.37	0.01297
3097.94	0.00866
3109.52	0.00571
3121.09	0.0032
3132.66	0.00161
3144.24	0.00118
3155.81	0.00104
3167.38	0.00107
3178.96	0.0009522
3190.53	0.0009958
3202.11	0.0009351
3213.68	0.0008524
3225.25	0.0007184
3236.83	0.0006633
3248.4	0.000633
3259.98	0.0006425
3271.55	0.0006865
3283.12	0.0006674
3294.7	0.0006272
3306.27	0.0006721
3317.84	0.0006041
3329.42	0.0006448
3340.99	0.0006537
3352.57	0.0006084
3364.14	0.0006074
3375.71	0.0006335
3387.29	0.0005895
3398.86	0.0006287
3410.43	0.0005777
3422.01	0.0005869
3433.58	0.0005981
3445.16	0.000627
3456.73	0.0006981
3468.3	0.0006002
3479.88	0.0006098
3491.45	0.0007042
3503.03	0.0006137
3514.6	0.0006216
3526.17	0.000615
3537.75	0.0006277
3549.32	0.0006568
3560.89	0.0007115
3572.47	0.0006938
3584.04	0.0006583
3595.62	0.0006165
3607.19	0.0006877
3618.76	0.0007284
3630.34	0.0007268
3641.91	0.0007109
3653.49	0.0007578
3665.06	0.0008198
3676.63	0.0007911
3688.21	0.0008194
3699.78	0.0007586
3711.35	0.0006768
3722.93	0.00068
3734.5	0.0007044
3746.08	0.000647
3757.65	0.0005915
3769.22	0.0006188
3780.8	0.0007216
3792.37	0.0006602
3803.94	0.0007204
3815.52	0.0006738
3827.09	0.0007117
3838.67	0.0006916
3850.24	0.0007252
3861.81	0.0007497
3873.39	0.000775
3884.96	0.0007951
3896.54	0.000781
3908.11	0.0007763
3919.68	0.0007695
3931.26	0.0007504
3942.83	0.0007607
3954.4	0.0007941
3965.98	0.0006952
3977.55	0.0008767
3989.13	0.0008451
4000.7	0.0007939
