Infrared Spectrum: 7-Bromoheptanonitrile
Formula: C 7 H 12 Br N
CAS: 20965-27-9
State: gas
Origin: EPA-IR VAPOR PHASE LIBRARY
1/CM	ABSORBANCE
549.9	0.002959
559.547	0.005669
569.193	0.008139
578.84	0.006369
588.486	0.002939
598.133	0.001589
607.779	0.0013194
617.426	0.001529
627.072	0.002169
636.719	0.003939
646.365	0.006969
656.012	0.008129
665.658	0.004269
675.305	0.002219
684.951	0.001799
694.598	0.002089
704.245	0.002689
713.891	0.004259
723.538	0.005949
733.184	0.006149
742.831	0.004689
752.477	0.003819
762.124	0.003319
771.77	0.002809
781.417	0.002469
791.063	0.002269
800.71	0.002369
810.356	0.002479
820.003	0.002459
829.649	0.002569
839.296	0.002459
848.943	0.002419
858.589	0.002439
868.236	0.002349
877.882	0.002219
887.529	0.001889
897.175	0.001829
906.822	0.001969
916.468	0.002419
926.115	0.002999
935.761	0.003159
945.408	0.002609
955.054	0.002019
964.701	0.001809
974.347	0.001719
983.994	0.0014189
993.64	0.001369
1003.29	0.0015047
1012.93	0.001569
1022.58	0.001729
1032.23	0.001989
1041.87	0.002049
1051.52	0.001779
1061.17	0.001549
1070.81	0.0014579
1080.46	0.0014166
1090.11	0.0013119
1099.75	0.000928
1109.4	0.0007586
1119.05	0.0006832
1128.69	0.000965
1138.34	0.0010048
1147.99	0.0011885
1157.63	0.0012605
1167.28	0.001579
1176.92	0.002059
1186.57	0.002629
1196.22	0.003849
1205.86	0.006499
1215.51	0.011599
1225.16	0.015199
1234.8	0.014949
1244.45	0.014499
1254.1	0.018179
1263.74	0.021119
1273.39	0.016999
1283.04	0.013009
1292.68	0.010689
1302.33	0.009119
1311.98	0.007289
1321.62	0.006299
1331.27	0.006049
1340.92	0.006339
1350.56	0.007299
1360.21	0.006549
1369.86	0.004789
1379.5	0.003389
1389.15	0.002469
1398.79	0.002399
1408.44	0.003159
1418.09	0.005359
1427.73	0.010839
1437.38	0.019289
1447.03	0.019769
1456.67	0.018029
1466.32	0.014359
1475.97	0.007959
1485.61	0.003879
1495.26	0.002279
1504.91	0.001549
1514.55	0.0012431
1524.2	0.0010152
1533.85	0.0008771
1543.49	0.000748
1553.14	0.0006745
1562.79	0.0006264
1572.43	0.0006527
1582.08	0.00057939
1591.73	0.00054928
1601.37	0.0005045
1611.02	0.0004737
1620.67	0.00055852
1630.31	0.00056121
1639.96	0.00053705
1649.6	0.0005575
1659.25	0.00054267
1668.9	0.0004714
1678.54	0.000498
1688.19	0.0004646
1697.84	0.0004944
1707.48	0.0004472
1717.13	0.0004991
1726.78	0.0004425
1736.42	0.0004765
1746.07	0.0004803
1755.72	0.0004234
1765.36	0.0004858
1775.01	0.0004206
1784.66	0.0004815
1794.3	0.0004268
1803.95	0.000488
1813.6	0.0004554
1823.24	0.000458
1832.89	0.0004568
1842.54	0.000406
1852.18	0.0004482
1861.83	0.0004363
1871.47	0.000434
1881.12	0.0005109
1890.77	0.0004452
1900.41	0.0004214
1910.06	0.0004536
1919.71	0.0004496
1929.35	0.0004457
1939	0.0004252
1948.65	0.000401
1958.29	0.000405
1967.94	0.0004548
1977.59	0.000366
1987.23	0.0004531
1996.88	0.0004582
2006.53	0.000519135
2016.17	0.0005161
2025.82	0.00057394
2035.47	0.0006338
2045.11	0.00061176
2054.76	0.00056631
2064.41	0.00054418
2074.05	0.0005533
2083.7	0.0004575
2093.35	0.000476
2102.99	0.0004895
2112.64	0.0004422
2122.28	0.0004213
2131.93	0.000498
2141.58	0.0005035
2151.22	0.00058385
2160.87	0.00055789
2170.52	0.00054454
2180.16	0.00054056
2189.81	0.00056147
2199.46	0.00058955
2209.1	0.00058752
2218.75	0.0006775
2228.4	0.0009117
2238.04	0.001519
2247.69	0.002719
2257.34	0.002519
2266.98	0.0013901
2276.63	0.000915
2286.28	0.0007464
2295.92	0.00061274
2305.57	0.00057891
2315.22	0.000528757
2324.86	0.000526859
2334.51	0.0004846
2344.16	0.0004272
2353.8	0.0004902
2363.45	0.0004867
2373.09	0.0004854
2382.74	0.000525306
2392.39	0.00050946
2402.03	0.0005062
2411.68	0.000522561
2421.33	0.000521607
2430.97	0.0004772
2440.62	0.0004346
2450.27	0.0004303
2459.91	0.000379
2469.56	0.000297
2479.21	0.000359
2488.85	0.0004216
2498.5	0.0004345
2508.15	0.0004866
2517.79	0.0004414
2527.44	0.000437
2537.09	0.000353
2546.73	0.000365
2556.38	0.000342
2566.03	0.00031
2575.67	0.00035
2585.32	0.00051342
2594.96	0.00060909
2604.61	0.00055464
2614.26	0.0006307
2623.9	0.0006259
2633.55	0.000704
2643.2	0.0007617
2652.84	0.0008586
2662.49	0.0010133
2672.14	0.0010096
2681.78	0.001087
2691.43	0.0011651
2701.08	0.0010867
2710.72	0.0008921
2720.37	0.0008103
2730.02	0.0007622
2739.66	0.0007498
2749.31	0.0007791
2758.96	0.0009918
2768.6	0.0009783
2778.25	0.0012526
2787.9	0.0013765
2797.54	0.001759
2807.19	0.002239
2816.84	0.002859
2826.48	0.004099
2836.13	0.006609
2845.77	0.011559
2855.42	0.019239
2865.07	0.028659
2874.71	0.032089
2884.36	0.026509
2894.01	0.022679
2903.65	0.024379
2913.3	0.029969
2922.95	0.042019
2932.59	0.063489
2942.24	0.088839
2951.89	0.093609
2961.53	0.073279
2971.18	0.047629
2980.83	0.025779
2990.47	0.013489
3000.12	0.009409
3009.77	0.010699
3019.41	0.009229
3029.06	0.004389
3038.71	0.002319
3048.35	0.001709
3058	0.0011638
3067.64	0.0009208
3077.29	0.0006776
3086.94	0.0007231
3096.58	0.0004993
3106.23	0.00055139
3115.88	0.000369
3125.52	0.00054522
3135.17	0.000382
3144.82	0.000347
3154.46	0.0004272
3164.11	0.0004748
3173.76	0.0004577
3183.4	0.000378
3193.05	0.000392
3202.7	0.000367
3212.34	0.000228
3221.99	0.000177
3231.64	0.000153
3241.28	0.000297
3250.93	0.000285
3260.58	0.000315
3270.22	0.000189
3279.87	0
3289.52	0.000121
3299.16	0.000358
3308.81	0.000175
3318.45	0.000266
3328.1	0.000268
3337.75	0.000293
3347.39	0.000271
3357.04	0.000261
3366.69	4e-05
3376.33	0.000254
3385.98	9.2e-05
3395.63	0.000152
3405.27	0.0004347
3414.92	0.000335
3424.57	0.000206
3434.21	0.00022
3443.86	0.000126
3453.51	0.000156
3463.15	7e-05
3472.8	0.000154
3482.45	0.000379
3492.09	0.000134
3501.74	0.000267
3511.39	0.000419
3521.03	0.000381
3530.68	0.000403
3540.33	0.00026
3549.97	0.000228
3559.62	0.00023
3569.26	0.000251
3578.91	0.000363
3588.56	0.000182
3598.2	0.000301
3607.85	0.000338
3617.5	0.00032
3627.14	0.0004888
3636.79	0.000214
3646.44	0.000216
3656.08	0.000446
3665.73	0.000278
3675.38	0.00031
3685.02	0.000416
3694.67	0.000337
3704.32	0.000286
3713.96	0.000353
3723.61	0.000253
3733.26	0.000296
3742.9	0.000234
3752.55	0.000279
3762.2	0.000142
3771.84	0.000258
3781.49	0.000273
3791.13	0.000232
3800.78	0.000245
3810.43	0.000213
3820.07	0.000179
3829.72	0.00021
3839.37	0.000221
3849.01	0.000207
3858.66	0.000232
3868.31	0.000408
3877.95	0.000265
3887.6	0.000176
3897.25	0.000258
3906.89	0.000218
3916.54	0.000284
3926.19	0.000226
3935.83	0.000176
3945.48	0.000317
3955.13	0.000367
3964.77	0.000263
3974.42	0.000269
3984.07	0.000193
3993.71	0.000317
