Infrared Spectrum: 4-Methylphenylacetone
Formula: C 10 H 12 O
CAS: 2096-86-8
State: gas
Origin: EPA-IR VAPOR PHASE LIBRARY
1/CM	ABSORBANCE
549.8	0.00323
559.445	0.00213
569.09	0.00294
578.734	0.00552
588.379	0.00816
598.024	0.00736
607.669	0.00444
617.313	0.00217
626.958	0.0012878
636.603	0.0007076
646.248	0.000543
655.893	0.0004977
665.537	0.0005004
675.182	0.00035883
684.827	0.0005004
694.472	0.0008263
704.116	0.0010735
713.761	0.0010738
723.406	0.00162
733.051	0.00361
742.695	0.0063
752.34	0.00733
761.985	0.00797
771.63	0.00922
781.275	0.00951
790.919	0.00849
800.564	0.00954
810.209	0.01272
819.854	0.01237
829.498	0.00789
839.143	0.00482
848.788	0.00316
858.433	0.00242
868.078	0.00274
877.722	0.00266
887.367	0.00224
897.012	0.00175
906.657	0.00163
916.301	0.00131
925.946	0.00148
935.591	0.00148
945.236	0.00149
954.88	0.00189
964.525	0.00302
974.17	0.00351
983.815	0.00342
993.46	0.00311
1003.1	0.0033
1012.75	0.0052
1022.39	0.00709
1032.04	0.00417
1041.68	0.00379
1051.33	0.00343
1060.97	0.00284
1070.62	0.00285
1080.26	0.00237
1089.91	0.00325
1099.55	0.00444
1109.2	0.00675
1118.84	0.00895
1128.49	0.01134
1138.13	0.01763
1147.78	0.02516
1157.42	0.02213
1167.07	0.01438
1176.71	0.0122
1186.36	0.01316
1196	0.01576
1205.64	0.02211
1215.29	0.02992
1224.93	0.02808
1234.58	0.01886
1244.22	0.01051
1253.87	0.00673
1263.51	0.00633
1273.16	0.00741
1282.8	0.00863
1292.45	0.0085
1302.09	0.00834
1311.74	0.00928
1321.38	0.01023
1331.03	0.01075
1340.67	0.01408
1350.32	0.02423
1359.96	0.03215
1369.61	0.02334
1379.25	0.01304
1388.9	0.00951
1398.54	0.00873
1408.18	0.01044
1417.83	0.01305
1427.47	0.01436
1437.12	0.01258
1446.76	0.00959
1456.41	0.00771
1466.05	0.0068
1475.7	0.00618
1485.34	0.00661
1494.99	0.00979
1504.63	0.02217
1514.28	0.03235
1523.92	0.01857
1533.57	0.00688
1543.21	0.00462
1552.86	0.00395
1562.5	0.00356
1572.15	0.00359
1581.79	0.00349
1591.44	0.00312
1601.08	0.00299
1610.73	0.00302
1620.37	0.00312
1630.01	0.00309
1639.66	0.00354
1649.3	0.00397
1658.95	0.00443
1668.59	0.00559
1678.24	0.00802
1687.88	0.01202
1697.53	0.01853
1707.17	0.03168
1716.82	0.06024
1726.46	0.09042
1736.11	0.07714
1745.75	0.04761
1755.4	0.03094
1765.04	0.01856
1774.69	0.01068
1784.33	0.00696
1793.98	0.00484
1803.62	0.00313
1813.27	0.00222
1822.91	0.00172
1832.55	0.00147
1842.2	0.0012599
1851.84	0.0012557
1861.49	0.00138
1871.13	0.00187
1880.78	0.00258
1890.42	0.00302
1900.07	0.00262
1909.71	0.00179
1919.36	0.001183
1929	0.0009795
1938.65	0.0008445
1948.29	0.000797
1957.94	0.0008212
1967.58	0.0007647
1977.23	0.0007166
1986.87	0.000667
1996.52	0.0006843
2006.16	0.0006359
2015.81	0.0006592
2025.45	0.0006204
2035.1	0.0005476
2044.74	0.0005596
2054.38	0.00058
2064.03	0.0005921
2073.67	0.0006347
2083.32	0.0006406
2092.96	0.0006606
2102.61	0.0007267
2112.25	0.0007294
2121.9	0.0007458
2131.54	0.0007482
2141.19	0.0007343
2150.83	0.0006627
2160.48	0.0006732
2170.12	0.0005831
2179.77	0.0006561
2189.41	0.0005421
2199.06	0.000544
2208.7	0.0005456
2218.35	0.0004922
2227.99	0.0004402
2237.64	0.0005048
2247.28	0.0005251
2256.92	0.00037532
2266.57	0.0003974
2276.21	0.0004199
2285.86	0.0005321
2295.5	0.0006696
2305.15	0.0007307
2314.79	0.0007163
2324.44	0.0006175
2334.08	0.0006379
2343.73	0.0007103
2353.37	0.0005709
2363.02	0.0006144
2372.66	0.0005758
2382.31	0.0005425
2391.95	0.0005183
2401.6	0.0004317
2411.24	0.0004452
2420.89	0.0005049
2430.53	0.0005375
2440.18	0.000504
2449.82	0.000497
2459.47	0.0004359
2469.11	0.0005581
2478.75	0.0004656
2488.4	0.0005346
2498.04	0.0004774
2507.69	0.0005428
2517.33	0.0005567
2526.98	0.0004917
2536.62	0.0004769
2546.27	0.0005337
2555.91	0.0004654
2565.56	0.0005313
2575.2	0.0007014
2584.85	0.0006909
2594.49	0.0008426
2604.14	0.0007505
2613.78	0.000588
2623.43	0.0006058
2633.07	0.0006022
2642.72	0.0005011
2652.36	0.000479
2662.01	0.0005767
2671.65	0.0005621
2681.29	0.0005426
2690.94	0.0007465
2700.58	0.0008738
2710.23	0.000869
2719.87	0.0010469
2729.52	0.0011221
2739.16	0.00147
2748.81	0.00148
2758.45	0.001033
2768.1	0.000792
2777.74	0.0007732
2787.39	0.0010939
2797.03	0.00134
2806.68	0.00171
2816.32	0.00216
2825.97	0.00288
2835.61	0.00351
2845.26	0.0046
2854.9	0.00577
2864.55	0.00847
2874.19	0.01219
2883.84	0.01386
2893.48	0.01408
2903.12	0.01537
2912.77	0.01978
2922.41	0.02696
2932.06	0.03113
2941.7	0.0247
2951.35	0.01696
2960.99	0.0147
2970.64	0.0131
2980.28	0.01298
2989.93	0.01491
2999.57	0.01858
3009.22	0.02327
3018.86	0.029
3028.51	0.03036
3038.15	0.02253
3047.8	0.01905
3057.44	0.01741
3067.09	0.01343
3076.73	0.00977
3086.38	0.00806
3096.02	0.00642
3105.67	0.00485
3115.31	0.00329
3124.95	0.00276
3134.6	0.00234
3144.24	0.0016
3153.89	0.0009749
3163.53	0.000805
3173.18	0.0005633
3182.82	0.0004823
3192.47	0.0005302
3202.11	0.0005056
3211.76	0.0004458
3221.4	0.00034699
3231.05	0.0002261
3240.69	0.00028255
3250.34	0.00038891
3259.98	0.000263
3269.63	0.0002787
3279.27	0.0003772
3288.92	0.0004255
3298.56	0.00036806
3308.21	0.00038168
3317.85	0.0003235
3327.49	0.00035983
3337.14	0.00034468
3346.78	0.00028717
3356.43	0.0003993
3366.07	0.00036988
3375.72	0.0005119
3385.36	0.0005604
3395.01	0.0005691
3404.65	0.0008218
3414.3	0.0010754
3423.94	0.00145
3433.59	0.00182
3443.23	0.00194
3452.88	0.00163
3462.52	0.00123
3472.17	0.0008315
3481.81	0.0007884
3491.46	0.0005251
3501.1	0.00034691
3510.75	0.0004697
3520.39	0.0004154
3530.04	0.0002768
3539.68	0.00033709
3549.32	0.000219
3558.97	0.0002697
3568.61	0.0002774
3578.26	0.000178
3587.9	0.0002198
3597.55	0.00031621
3607.19	0.000173
3616.84	0.0001951
3626.48	0.0002373
3636.13	0.0002426
3645.77	0.0003977
3655.42	0.0002654
3665.06	0.0004836
3674.71	0.0004627
3684.35	0.0004141
3694	0.00035427
3703.64	0.00031446
3713.29	0.00028696
3722.93	0.0003042
3732.58	0.000139
3742.22	0.00014
3751.86	0.0002646
3761.51	0.00031766
3771.15	0.00036611
3780.8	9.4e-05
3790.44	0.0003228
3800.09	0.00037047
3809.73	0.0004979
3819.38	0.0002565
3829.02	0.0003939
3838.67	0.0002733
3848.31	0.00034448
3857.96	0.0004469
3867.6	0.0003894
3877.25	0.0004098
3886.89	0.00032348
3896.54	0.0007056
3906.18	0.0004037
3915.83	0.000298541
3925.47	0.0006335
3935.12	0.0006201
3944.76	0.0004527
3954.41	0.0002397
3964.05	0.00031558
3973.69	0.0003927
3983.34	0.0001992
3992.98	0.0005316
