Infrared Spectrum: Ethyl 5-bromonicotinate
Formula: C 8 H 8 Br N O 2
CAS: 20986-40-7
State: gas
Origin: EPA-IR VAPOR PHASE LIBRARY
1/CM	ABSORBANCE
549.8	0.0016588
559.445	0.000651
569.09	0.000367
578.734	7e-05
588.379	0.0015735
598.024	0.001013
607.669	0.00117123
617.313	0.0010784
626.958	0.0016464
636.603	0.0054
646.248	0.00489
655.893	0.00241
665.537	0.00325
675.182	0.00716
684.827	0.0185
694.472	0.01712
704.116	0.0074
713.761	0.00608
723.406	0.01181
733.051	0.03836
742.695	0.0457
752.34	0.02597
761.985	0.03439
771.63	0.0249
781.275	0.01297
790.919	0.01032
800.564	0.00814
810.209	0.00602
819.854	0.00379
829.498	0.00489
839.143	0.00616
848.788	0.00859
858.433	0.01064
868.078	0.01235
877.722	0.02428
887.367	0.03462
897.012	0.02444
906.657	0.01472
916.301	0.00716
925.946	0.00589
935.591	0.00547
945.236	0.00461
954.88	0.00432
964.525	0.00499
974.17	0.00498
983.815	0.00706
993.46	0.01203
1003.1	0.02549
1012.75	0.06092
1022.39	0.07798
1032.04	0.039
1041.68	0.01436
1051.33	0.00994
1060.97	0.01199
1070.62	0.01862
1080.26	0.0373
1089.91	0.08563
1099.55	0.14691
1109.2	0.14296
1118.84	0.08889
1128.49	0.05247
1138.13	0.03652
1147.78	0.02881
1157.42	0.03888
1167.07	0.06526
1176.71	0.04561
1186.36	0.03134
1196	0.02387
1205.64	0.02649
1215.29	0.03061
1224.93	0.03631
1234.58	0.05863
1244.22	0.13335
1253.87	0.32215
1263.51	0.48965
1273.16	0.37427
1282.8	0.1125
1292.45	0.0572
1302.09	0.10055
1311.74	0.07107
1321.38	0.03139
1331.03	0.02083
1340.67	0.01628
1350.32	0.0143
1359.96	0.0202
1369.61	0.04075
1379.25	0.02388
1388.9	0.01801
1398.54	0.02145
1408.18	0.03539
1417.83	0.05706
1427.47	0.04748
1437.12	0.04316
1446.76	0.02083
1456.41	0.01656
1466.05	0.01725
1475.7	0.01672
1485.34	0.01069
1494.99	0.00744
1504.63	0.00613
1514.28	0.00638
1523.92	0.00809
1533.57	0.00875
1543.21	0.01107
1552.86	0.01481
1562.5	0.01355
1572.15	0.01855
1581.79	0.02583
1591.44	0.01516
1601.08	0.00699
1610.73	0.00502
1620.37	0.00448
1630.01	0.00465
1639.66	0.00487
1649.3	0.00512
1658.95	0.0054
1668.59	0.006
1678.24	0.00638
1687.88	0.00884
1697.53	0.01381
1707.17	0.01993
1716.82	0.02658
1726.46	0.05465
1736.11	0.161
1745.75	0.2782
1755.4	0.13846
1765.04	0.04029
1774.69	0.02155
1784.33	0.0164
1793.98	0.01132
1803.62	0.00778
1813.27	0.00617
1822.91	0.00576
1832.55	0.00582
1842.2	0.00561
1851.84	0.00681
1861.49	0.00657
1871.13	0.0045
1880.78	0.00397
1890.42	0.00453
1900.07	0.00393
1909.71	0.00301
1919.36	0.0031
1929	0.00266
1938.65	0.0022
1948.29	0.00264
1957.94	0.00286
1967.58	0.00295
1977.23	0.00258
1986.87	0.00224
1996.52	0.00225
2006.16	0.0018082
2015.81	0.0019426
2025.45	0.0018681
2035.1	0.00221
2044.74	0.0019863
2054.38	0.0018175
2064.03	0.0019028
2073.67	0.0019789
2083.32	0.0019146
2092.96	0.0020014
2102.61	0.00231
2112.25	0.00234
2121.9	0.00244
2131.54	0.00236
2141.19	0.0019928
2150.83	0.0017197
2160.48	0.0017714
2170.12	0.0018394
2179.77	0.0013755
2189.41	0.0015907
2199.06	0.0016003
2208.7	0.0015575
2218.35	0.001548
2227.99	0.0014394
2237.64	0.0015332
2247.28	0.0013452
2256.92	0.0016184
2266.57	0.0014408
2276.21	0.0019768
2285.86	0.0014446
2295.5	0.0015096
2305.15	0.0011024
2314.79	0.0014827
2324.44	0.0014514
2334.08	0.0014758
2343.73	0.0016163
2353.37	0.0016173
2363.02	0.001654
2372.66	0.0019349
2382.31	0.0020308
2391.95	0.0021485
2401.6	0.0020589
2411.24	0.0019219
2420.89	0.0021469
2430.53	0.0020615
2440.18	0.00218
2449.82	0.0016341
2459.47	0.0015486
2469.11	0.0013788
2478.75	0.0013196
2488.4	0.0014369
2498.04	0.0013811
2507.69	0.0016679
2517.33	0.0014253
2526.98	0.0014488
2536.62	0.0013967
2546.27	0.0012773
2555.91	0.0014427
2565.56	0.0012882
2575.2	0.0015422
2584.85	0.0010779
2594.49	0.0015382
2604.14	0.0016336
2613.78	0.0017345
2623.43	0.001416
2633.07	0.0014391
2642.72	0.0011591
2652.36	0.001305
2662.01	0.00119577
2671.65	0.00123214
2681.29	0.001377
2690.94	0.000785
2700.58	0.001031
2710.23	0.00123848
2719.87	0.00126676
2729.52	0.0013106
2739.16	0.001646
2748.81	0.0016966
2758.45	0.0017509
2768.1	0.0019713
2777.74	0.0021523
2787.39	0.0017994
2797.03	0.0018941
2806.68	0.0018106
2816.32	0.00234
2825.97	0.0029
2835.61	0.0028
2845.26	0.00348
2854.9	0.00322
2864.55	0.00396
2874.19	0.00533
2883.84	0.0081
2893.48	0.00831
2903.12	0.00925
2912.77	0.01095
2922.41	0.01126
2932.06	0.01329
2941.7	0.0195
2951.35	0.02063
2960.99	0.01779
2970.64	0.02412
2980.28	0.03667
2989.93	0.04627
2999.57	0.02925
3009.22	0.01955
3018.86	0.01209
3028.51	0.00768
3038.15	0.0056
3047.8	0.00801
3057.44	0.01033
3067.09	0.00859
3076.73	0.0067
3086.38	0.00409
3096.02	0.003
3105.67	0.0031
3115.31	0.00295
3124.95	0.001823
3134.6	0.0019712
3144.24	0.001809
3153.89	0.0017161
3163.53	0.00226
3173.18	0.0018664
3182.82	0.0021606
3192.47	0.0013948
3202.11	0.00124349
3211.76	0.0013693
3221.4	0.00125676
3231.05	0.000949
3240.69	0.00122133
3250.34	0.0011818
3259.98	0.000869
3269.63	0.000899
3279.27	0.0010982
3288.92	0.001067
3298.56	0.000664
3308.21	0.000844
3317.85	0.0014482
3327.49	0.000847
3337.14	0.000852
3346.78	0.001039
3356.43	0.000926
3366.07	0.00122736
3375.72	0.0017238
3385.36	0.000974
3395.01	0.001307
3404.65	0.000641
3414.3	0.0016423
3423.94	0.0017059
3433.59	0.001035
3443.23	0.0019024
3452.88	0.0016569
3462.52	0.0025
3472.17	0.00326
3481.81	0.00286
3491.46	0.0016094
3501.1	0.0019341
3510.75	0.000907
3520.39	0.001067
3530.04	0.0013008
3539.68	0.0013283
3549.32	0.000835
3558.97	0
3568.61	0.000954
3578.26	0.0015128
3587.9	0.000961
3597.55	0.001037
3607.19	0.0011596
3616.84	0.000897
3626.48	0.000922
3636.13	0.00071
3645.77	0.00107
3655.42	0.000501
3665.06	0.000851
3674.71	0.0010824
3684.35	0.000534
3694	0.000876
3703.64	0.000855
3713.29	0.000831
3722.93	0.000759
3732.58	0.00091
3742.22	0.000395
3751.86	0.0010727
3761.51	0.000969
3771.15	0.000976
3780.8	0.000608
3790.44	0.00124619
3800.09	0.000422
3809.73	0.0011574
3819.38	0.000965
3829.02	0.000946
3838.67	0.000666
3848.31	0.000663
3857.96	0.000801
3867.6	0.000686
3877.25	0.000938
3886.89	0.000754
3896.54	0.001015
3906.18	0.000746
3915.83	0.000922
3925.47	0.000987
3935.12	0.00126363
3944.76	0.000925
3954.41	0.00116541
3964.05	0.000807
3973.69	0.000769
3983.34	0.000618
3992.98	0.00116724
