Infrared Spectrum: 1,4,-Diazabicyclo[2.2.2]octane hydrochloride
Formula: C6 H13 Cl N2
CAS: 2099-72-1
State: SOLID (SPLIT MULL)
Class: COBLENTZ III
Instrument: PERKIN-ELMER 521 (GRATING)
Instrument parameters: FILTERS AT 3150, 2500, 2000, 1150, 700, 410. GRATING CHANGES: 2000, 630
Resolution: 2
Origin: DOW CORNING CORP.
1/CM	TRANSMITTANCE
244	0.8239
253	0.8274
262	0.8485
271	0.8601
280	0.8618
289	0.8688
298	0.8692
307	0.8542
316	0.8256
325	0.8913
334	0.8959
343	0.8925
352	0.897
361	0.8976
370	0.8953
379	0.8925
388	0.8895
397	0.8795
406	0.8437
415	0.4741
424	0.8336
433	0.8706
442	0.8668
451	0.8666
460	0.8649
469	0.8632
478	0.8614
487	0.859
496	0.8566
505	0.8543
514	0.8529
523	0.8431
532	0.8529
541	0.8505
550	0.8418
559	0.8263
568	0.8149
577	0.7469
586	0.6144
595	0.0778
604	0.7657
613	0.7629
622	0.7354
631	0.7743
640	0.7844
649	0.7918
658	0.7971
667	0.7999
676	0.7918
685	0.7919
694	0.7792
703	0.7631
712	0.7431
721	0.6941
730	0.6836
739	0.7074
748	0.7246
757	0.72
766	0.6993
775	0.6336
784	0.2504
793	0.6504
802	0.4647
811	0.6998
820	0.6449
829	0.3333
838	0.0257
847	0.4497
856	0.6841
865	0.7176
874	0.7132
883	0.6771
892	0.6389
901	0.7108
910	0.7108
919	0.7065
928	0.7005
937	0.691
946	0.6884
955	0.6766
964	0.6667
973	0.5459
982	0.6015
991	0.6769
1000	0.6417
1009	0.4774
1018	0.6673
1027	0.668
1036	0.6151
1045	0.2788
1054	0.0322
1063	0.6102
1072	0.6733
1081	0.6795
1090	0.6798
1099	0.6802
1108	0.6772
1117	0.6727
1126	0.6551
1135	0.6587
1144	0.6473
1153	0.63
1162	0.618
1171	0.569
1180	0.2378
1189	0.6118
1198	0.6147
1207	0.614
1216	0.6214
1225	0.6215
1234	0.6173
1243	0.6062
1252	0.5946
1261	0.5792
1270	0.5671
1279	0.5789
1288	0.5643
1297	0.5652
1306	0.6985
1315	0.6362
1324	0.357
1333	0.6052
1342	0.6972
1351	0.7002
1360	0.6874
1369	0.6458
1378	0.6178
1387	0.78
1396	0.8333
1405	0.8233
1414	0.7948
1423	0.6809
1432	0.4894
1441	0.5848
1450	0.3797
1459	0.3689
1468	0.4313
1477	0.682
1486	0.9368
1495	0.9219
1504	0.9226
1513	0.9213
1522	0.9303
1531	0.9401
1540	0.9571
1549	0.9661
1558	0.9741
1567	0.9787
1576	0.985
1585	0.9822
1594	0.9791
1603	0.9814
1612	0.9703
1621	0.977
1630	0.9741
1639	0.9717
1648	0.9698
1657	0.9672
1666	0.9646
1675	0.9621
1684	0.9599
1693	0.959
1702	0.958
1711	0.9526
1720	0.945
1729	0.9378
1738	0.9319
1747	0.9263
1756	0.9225
1765	0.9213
1774	0.9161
1783	0.903
1792	0.9127
1801	0.9242
1810	0.909
1819	0.8999
1828	0.8878
1837	0.8836
1846	0.8999
1855	0.9011
1864	0.8989
1873	0.896
1882	0.8937
1891	0.8911
1900	0.8877
1909	0.8806
1918	0.8717
1927	0.8632
1936	0.8607
1945	0.8568
1954	0.8467
1963	0.8409
1972	0.836
1981	0.8324
1990	0.8193
1999	0.7681
2008	0.7797
2017	0.8032
2026	0.8114
2035	0.8043
2044	0.7991
2053	0.7956
2062	0.7896
2071	0.7792
2080	0.7699
2089	0.7617
2098	0.7534
2107	0.7482
2116	0.753
2125	0.7381
2134	0.7235
2143	0.7108
2152	0.7006
2161	0.6917
2170	0.6848
2179	0.6804
2188	0.676
2197	0.6677
2206	0.652
2215	0.6356
2224	0.6177
2233	0.599
2242	0.5818
2251	0.5662
2260	0.5504
2269	0.5345
2278	0.5153
2287	0.4868
2296	0.4397
2305	0.3982
2314	0.367
2323	0.3388
2332	0.3379
2341	0.3586
2350	0.3576
2359	0.3525
2368	0.3442
2377	0.3263
2386	0.3044
2395	0.2898
2404	0.2728
2413	0.2535
2422	0.2195
2431	0.1884
2440	0.156
2449	0.1344
2458	0.1207
2467	0.086
2476	0.0578
2485	0.0561
2494	0.0711
2503	0.0644
2512	0.0492
2521	0.0392
2530	0.0434
2539	0.0538
2548	0.0574
2557	0.076
2566	0.0899
2575	0.0996
2584	0.1078
2593	0.1236
2602	0.1634
2611	0.2364
2620	0.2615
2629	0.2763
2638	0.3263
2647	0.3965
2656	0.4668
2665	0.537
2674	0.5921
2683	0.5991
2692	0.5643
2701	0.5016
2710	0.4389
2719	0.3815
2728	0.3505
2737	0.3279
2746	0.2713
2755	0.2485
2764	0.2517
2773	0.2717
2782	0.3158
2791	0.4331
2800	0.5446
2809	0.6145
2818	0.6442
2827	0.655
2836	0.6558
2845	0.6447
2854	0.6052
2863	0.5074
2872	0.3898
2881	0.3181
2890	0.2931
2899	0.249
2908	0.2041
2917	0.1785
2926	0.2219
2935	0.2778
2944	0.2637
2953	0.2081
2962	0.3012
2971	0.4179
2980	0.4502
2989	0.718
2998	0.7098
3007	0.7632
3016	0.7609
3025	0.7545
3034	0.7481
3043	0.7439
3052	0.7434
3061	0.7443
3070	0.746
3079	0.7499
3088	0.7574
3097	0.7656
3106	0.7654
3115	0.7585
3124	0.7398
3133	0.7187
3142	0.7164
3151	0.7162
3160	0.716
3169	0.7156
3178	0.7151
3187	0.7143
3196	0.7129
3205	0.7099
3214	0.7066
3223	0.7027
3232	0.6989
3241	0.6948
3250	0.6907
3259	0.6865
3268	0.6821
3277	0.6775
3286	0.6729
3295	0.6672
3304	0.6614
3313	0.6568
3322	0.6567
3331	0.6566
3340	0.6539
3349	0.6502
3358	0.6465
3367	0.6428
3376	0.6392
3385	0.6356
3394	0.6319
3403	0.6282
3412	0.6247
3421	0.6225
3430	0.6203
3439	0.618
3448	0.6159
3457	0.6139
3466	0.6122
3475	0.6105
3484	0.6089
3493	0.6073
3502	0.6058
3511	0.6042
3520	0.6025
3529	0.6004
3538	0.5984
3547	0.5965
3556	0.5952
3565	0.5938
3574	0.5877
3583	0.5841
3592	0.5831
3601	0.5815
3610	0.5796
3619	0.5778
3628	0.5755
3637	0.5729
3646	0.5705
3655	0.5681
3664	0.5655
3673	0.5622
3682	0.5597
3691	0.5571
3700	0.5546
3709	0.5498
3718	0.5458
3727	0.542
3736	0.5382
3745	0.5349
3754	0.5325
3763	0.5345
3772	0.5362
3781	0.5345
3790	0.5322
3799	0.5278
3808	0.5228
3817	0.5176
