Infrared Spectrum: o-TOLUIDINE, N-ISOPROPYL-
Formula: C10 H15 N
CAS: 2100-43-8
State: LIQUID (NEAT)
Class: COBLENTZ III
Instrument: BECKMAN IR-4 (HYBRID PRISM-GRATING)
Instrument parameters: NaCl PRISM
Sampling: TRANSMISSION
Path length: CAPILLARY
Resolution: 2
Origin: MONSANTO (J. FREEMAN)
1/CM	TRANSMITTANCE
3950.62	0.8865
3941.76	0.8873
3932.89	0.8881
3924.03	0.8891
3915.17	0.8901
3906.31	0.8911
3897.44	0.8923
3888.58	0.894
3879.72	0.895
3870.85	0.896
3861.99	0.897
3853.13	0.8981
3844.27	0.8986
3835.4	0.8987
3826.54	0.899
3817.68	0.8993
3808.82	0.8995
3799.95	0.8998
3791.09	0.9
3782.23	0.9002
3773.36	0.9004
3764.5	0.9006
3755.64	0.9008
3746.78	0.901
3737.91	0.9013
3729.05	0.9014
3720.19	0.9015
3711.32	0.9016
3702.46	0.9018
3693.6	0.902
3684.74	0.902
3675.87	0.902
3667.01	0.9018
3658.15	0.9018
3649.28	0.9017
3640.42	0.9016
3631.56	0.9011
3622.7	0.9006
3613.83	0.9001
3604.97	0.8993
3596.11	0.8978
3587.25	0.8961
3578.38	0.8939
3569.52	0.8915
3560.66	0.889
3551.79	0.8838
3542.93	0.8769
3534.07	0.8687
3525.21	0.857
3516.34	0.8338
3507.48	0.798
3498.62	0.7771
3489.75	0.756
3480.89	0.7348
3472.03	0.7135
3463.17	0.692
3454.3	0.6705
3445.44	0.6601
3436.58	0.6599
3427.71	0.6733
3418.85	0.7102
3409.99	0.7478
3401.13	0.7857
3392.26	0.8237
3383.4	0.862
3374.54	0.8838
3365.68	0.8911
3356.81	0.8972
3347.95	0.9034
3339.09	0.909
3330.22	0.9127
3321.36	0.9142
3312.5	0.9145
3303.64	0.9148
3294.77	0.9144
3285.91	0.9135
3277.05	0.9118
3268.18	0.9097
3259.32	0.9068
3250.46	0.9037
3241.6	0.8994
3232.73	0.8969
3223.87	0.8965
3215.01	0.8964
3206.14	0.8963
3197.28	0.8959
3188.42	0.8945
3179.56	0.8902
3170.69	0.8844
3161.83	0.8725
3152.97	0.8596
3144.11	0.8368
3135.24	0.793
3126.38	0.7484
3117.52	0.7035
3108.65	0.6584
3099.79	0.613
3090.93	0.5862
3082.07	0.5814
3073.2	0.5769
3064.34	0.5719
3055.48	0.5649
3046.61	0.5561
3037.75	0.5468
3028.89	0.5362
3020.03	0.5177
3011.16	0.5005
3002.3	0.4007
2993.44	0.2929
2984.57	0.2401
2975.71	0.2536
2966.85	0.3046
2957.99	0.3561
2949.12	0.3698
2940.26	0.3782
2931.4	0.3872
2922.53	0.3967
2913.67	0.407
2904.81	0.4221
2895.95	0.4411
2887.08	0.4628
2878.22	0.4969
2869.36	0.538
2860.5	0.6846
2851.63	0.8378
2842.77	0.8561
2833.91	0.8706
2825.04	0.8852
2816.18	0.8923
2807.32	0.8932
2798.46	0.8928
2789.59	0.8921
2780.73	0.8913
2771.87	0.8906
2763	0.8931
2754.14	0.9019
2745.28	0.9136
2736.42	0.9222
2727.55	0.9247
2718.69	0.9251
2709.83	0.9247
2700.96	0.9233
2692.1	0.9212
2683.24	0.9185
2674.38	0.9157
2665.51	0.9122
2656.65	0.9098
2647.79	0.9083
2638.93	0.9074
2630.06	0.9079
2621.2	0.9085
2612.34	0.9089
2603.47	0.9102
2594.61	0.9139
2585.75	0.9212
2576.89	0.9297
2568.02	0.9377
2559.16	0.9426
2550.3	0.9453
2541.43	0.9465
2532.57	0.9468
2523.71	0.9471
2514.85	0.9473
2505.98	0.9473
2497.12	0.9473
2488.26	0.9474
2479.39	0.9475
2470.53	0.9476
2461.67	0.9478
2452.81	0.9474
2443.94	0.9468
2435.08	0.9464
2426.22	0.9467
2417.36	0.9475
2408.49	0.9486
2399.63	0.9513
2390.77	0.954
2381.9	0.9572
2373.04	0.9585
2364.18	0.9576
2355.32	0.9562
2346.45	0.9556
2337.59	0.955
2328.73	0.9547
2319.86	0.9546
2311	0.9546
2302.14	0.9547
2293.28	0.955
2284.41	0.9554
2275.55	0.956
2266.69	0.9567
2257.82	0.9575
2248.96	0.9587
2240.1	0.9601
2231.24	0.9618
2222.37	0.9637
2213.51	0.9652
2204.65	0.9622
2195.79	0.9555
2186.92	0.9508
2178.06	0.9489
2169.2	0.9494
2160.33	0.9505
2151.47	0.9526
2142.61	0.9547
2133.75	0.9567
2124.88	0.9586
2116.02	0.9602
2107.16	0.9614
2098.29	0.9619
2089.43	0.9623
2080.57	0.9624
2071.71	0.9623
2062.84	0.9618
2053.98	0.9615
2045.12	0.9611
2036.25	0.9604
2027.39	0.9594
2018.53	0.9575
2009.67	0.9551
2000.8	0.9527
1991.94	0.9501
1983.08	0.9475
1974.22	0.9445
1965.35	0.9411
1956.49	0.9366
1947.63	0.9282
1938.76	0.9169
1929.9	0.9157
1921.04	0.9218
1912.18	0.919
1903.31	0.9022
1894.45	0.8873
1885.59	0.9016
1876.72	0.9204
1867.86	0.9267
1859	0.9263
1850.14	0.93
1841.27	0.9343
1832.41	0.9377
1823.55	0.9339
1814.68	0.928
1805.82	0.9274
1796.96	0.9285
1788.1	0.9213
1779.23	0.9147
1770.37	0.9186
1761.51	0.9303
1752.65	0.949
1743.78	0.9517
1734.92	0.9512
1726.06	0.9466
1717.19	0.9367
1708.33	0.9224
1699.47	0.9053
1690.61	0.8877
1681.74	0.876
1672.88	0.8664
1664.02	0.8585
1655.15	0.8465
1646.29	0.811
1637.43	0.7416
1628.57	0.5917
1619.7	0.3272
1610.84	0.1467
1601.98	0.3442
1593.11	0.257
1584.25	0.4891
1575.39	0.7763
1566.53	0.7721
1557.66	0.7461
1548.8	0.6698
1539.94	0.5271
1531.08	0.3196
1522.21	0.1097
1513.35	0.1492
1504.49	0.262
1495.62	0.3951
1486.76	0.2694
1477.9	0.3099
1469.04	0.2697
1460.17	0.3352
1451.31	0.2538
1442.45	0.3502
1433.58	0.5452
1424.72	0.7313
1415.86	0.7729
1407	0.7659
1398.13	0.6975
1389.27	0.3324
1380.41	0.5733
1371.54	0.4364
1362.68	0.7533
1353.82	0.7286
1344.96	0.5595
1336.09	0.4541
1327.23	0.2673
1318.37	0.1625
1309.5	0.318
1300.64	0.545
1291.78	0.7397
1282.92	0.7389
1274.05	0.6597
1265.19	0.2088
1256.33	0.422
1247.47	0.7577
1238.6	0.8619
1229.74	0.8814
1220.88	0.8831
1212.01	0.8565
1203.15	0.7813
1194.29	0.6125
1185.43	0.3154
1176.56	0.2106
1167.7	0.5115
1158.84	0.4869
1149.97	0.6435
1141.11	0.8057
1132.25	0.7192
1123.39	0.6357
1114.52	0.7973
1105.66	0.8408
1096.8	0.9596
1087.93	0.9783
1079.07	0.9854
1070.21	0.975
1061.35	0.7887
1052.48	0.4879
1043.62	0.8826
1034.76	0.8395
1025.9	0.9573
1017.03	0.9785
1008.17	0.9754
999.307	0.9197
990.444	0.736
981.581	0.7524
972.719	0.9168
963.856	0.9574
954.993	0.9647
946.13	0.929
937.267	0.9529
928.405	0.8485
919.542	0.8403
910.679	0.9897
901.816	0.9986
892.953	1.0049
884.091	1.0058
875.228	0.9963
866.365	0.9005
857.502	0.8825
848.639	0.9265
839.776	0.901
830.914	0.9498
822.051	0.9378
813.188	0.9591
804.325	0.9738
795.462	0.9668
786.6	0.9492
777.737	0.908
768.874	0.8398
760.011	0.6138
751.148	0.1279
742.286	0.1595
733.423	0.6592
724.56	0.7816
715.697	0.4722
706.834	0.8848
697.972	0.9432
689.109	0.9629
680.246	0.9657
671.383	0.9877
662.52	0.9852
653.658	0.9986
644.795	0.9851
635.932	0.9647
