Infrared Spectrum: 2-Ethoxybenzhydrazide
Formula: C9 H12 N2 O2
CAS: 21018-13-3
State: gas
Origin: EPA-IR VAPOR PHASE LIBRARY
1/CM	ABSORBANCE
549.8	0.006991
559.445	0.006661
569.09	0.006311
578.734	0.005601
588.379	0.004991
598.024	0.005051
607.669	0.004271
617.313	0.003391
626.958	0.002831
636.603	0.002791
646.248	0.003181
655.893	0.004471
665.537	0.005311
675.182	0.004121
684.827	0.004221
694.472	0.005091
704.116	0.005461
713.761	0.004631
723.406	0.004291
733.051	0.005271
742.695	0.011431
752.34	0.023211
761.985	0.016621
771.63	0.007971
781.275	0.005241
790.919	0.004051
800.564	0.003181
810.209	0.002641
819.854	0.002321
829.498	0.002461
839.143	0.002301
848.788	0.002541
858.433	0.003321
868.078	0.004211
877.722	0.004431
887.367	0.005001
897.012	0.006851
906.657	0.009251
916.301	0.012351
925.946	0.017761
935.591	0.027291
945.236	0.029481
954.88	0.016751
964.525	0.007581
974.17	0.004691
983.815	0.004081
993.46	0.004321
1003.1	0.005171
1012.75	0.008221
1022.39	0.013511
1032.04	0.019331
1041.68	0.020681
1051.33	0.013591
1060.97	0.007401
1070.62	0.006011
1080.26	0.008011
1089.91	0.012561
1099.55	0.014921
1109.2	0.015531
1118.84	0.012571
1128.49	0.007811
1138.13	0.004551
1147.78	0.005461
1157.42	0.008701
1167.07	0.007601
1176.71	0.005481
1186.36	0.005781
1196	0.008621
1205.64	0.016481
1215.29	0.032811
1224.93	0.044921
1234.58	0.039161
1244.22	0.026701
1253.87	0.018851
1263.51	0.013571
1273.16	0.013531
1282.8	0.023011
1292.45	0.036651
1302.09	0.030801
1311.74	0.015111
1321.38	0.008311
1331.03	0.005971
1340.67	0.004871
1350.32	0.004591
1359.96	0.004691
1369.61	0.005181
1379.25	0.006621
1388.9	0.009941
1398.54	0.010171
1408.18	0.007761
1417.83	0.008131
1427.47	0.011221
1437.12	0.017961
1446.76	0.029271
1456.41	0.039441
1466.05	0.043651
1475.7	0.047421
1485.34	0.039771
1494.99	0.028041
1504.63	0.022521
1514.28	0.018111
1523.92	0.013091
1533.57	0.008971
1543.21	0.006511
1552.86	0.005561
1562.5	0.005651
1572.15	0.007031
1581.79	0.009501
1591.44	0.014701
1601.08	0.020861
1610.73	0.018141
1620.37	0.016671
1630.01	0.020321
1639.66	0.018961
1649.3	0.014381
1658.95	0.015001
1668.59	0.022781
1678.24	0.050471
1687.88	0.071981
1697.53	0.043691
1707.17	0.022291
1716.82	0.015061
1726.46	0.009061
1736.11	0.005471
1745.75	0.003501
1755.4	0.002521
1765.04	0.002101
1774.69	0.001801
1784.33	0.001691
1793.98	0.001751
1803.62	0.001821
1813.27	0.001701
1822.91	0.001561
1832.55	0.001451
1842.2	0.001201
1851.84	0.0010249
1861.49	0.0010081
1871.13	0.0009882
1880.78	0.001151
1890.42	0.001251
1900.07	0.001411
1909.71	0.001541
1919.36	0.001611
1929	0.001651
1938.65	0.001401
1948.29	0.001331
1957.94	0.001097
1967.58	0.0009119
1977.23	0.000863
1986.87	0.0008566
1996.52	0.0008312
2006.16	0.0008327
2015.81	0.0009029
2025.45	0.0009816
2035.1	0.0009187
2044.74	0.000789
2054.38	0.0008001
2064.03	0.0006891
2073.67	0.0005783
2083.32	0.0005497
2092.96	0.0005094
2102.61	0.0004061
2112.25	0.0004397
2121.9	0.0004228
2131.54	0.0005021
2141.19	0.0004326
2150.83	0.0004954
2160.48	0.0004178
2170.12	0.0004124
2179.77	0.0003363
2189.41	0.0004087
2199.06	0.000389
2208.7	0.0004478
2218.35	0.0003362
2227.99	0.0003753
2237.64	0.0003832
2247.28	0.0005812
2256.92	0.0004726
2266.57	0.0005406
2276.21	0.0005131
2285.86	0.0004761
2295.5	0.0005012
2305.15	0.0003695
2314.79	0.0005167
2324.44	0.0006011
2334.08	0.0005647
2343.73	0.0005637
2353.37	0.0005007
2363.02	0.0004951
2372.66	0.0005149
2382.31	0.0006462
2391.95	0.0005894
2401.6	0.0005729
2411.24	0.0005243
2420.89	0.0005981
2430.53	0.0006658
2440.18	0.000744
2449.82	0.000631
2459.47	0.0006232
2469.11	0.0005704
2478.75	0.0005441
2488.4	0.0004882
2498.04	0.0005205
2507.69	0.0004934
2517.33	0.0006118
2526.98	0.0007398
2536.62	0.0005804
2546.27	0.0004164
2555.91	0.0005198
2565.56	0.0006023
2575.2	0.0006324
2584.85	0.0004775
2594.49	0.0005129
2604.14	0.0003704
2613.78	0.000381
2623.43	0.0003796
2633.07	0.0003598
2642.72	0.00039
2652.36	0.0003055
2662.01	0.0003876
2671.65	0.000378
2681.29	0.0004235
2690.94	0.0004928
2700.58	0.0004207
2710.23	0.0004183
2719.87	0.0006685
2729.52	0.0006656
2739.16	0.0008065
2748.81	0.0008752
2758.45	0.0007929
2768.1	0.0008259
2777.74	0.0007028
2787.39	0.0007958
2797.03	0.0008449
2806.68	0.0010347
2816.32	0.001076
2825.97	0.001111
2835.61	0.001201
2845.26	0.001371
2854.9	0.001751
2864.55	0.002351
2874.19	0.003341
2883.84	0.004831
2893.48	0.006281
2903.12	0.006381
2912.77	0.006051
2922.41	0.006171
2932.06	0.007631
2941.7	0.008981
2951.35	0.007681
2960.99	0.006241
2970.64	0.007341
2980.28	0.011661
2989.93	0.014391
2999.57	0.008881
3009.22	0.004681
3018.86	0.003161
3028.51	0.003201
3038.15	0.003461
3047.8	0.003591
3057.44	0.004001
3067.09	0.005851
3076.73	0.008601
3086.38	0.006981
3096.02	0.002861
3105.67	0.001911
3115.31	0.001151
3124.95	0.0008906
3134.6	0.0008286
3144.24	0.0008233
3153.89	0.0009748
3163.53	0.0008315
3173.18	0.0007578
3182.82	0.0007946
3192.47	0.0011051
3202.11	0.0007942
3211.76	0.0007755
3221.4	0.000731
3231.05	0.0008072
3240.69	0.0007219
3250.34	0.0007547
3259.98	0.0006062
3269.63	0.0008071
3279.27	0.0007671
3288.92	0.0006852
3298.56	0.0009303
3308.21	0.0007857
3317.85	0.0009205
3327.49	0.0008902
3337.14	0.0010878
3346.78	0.001141
3356.43	0.001451
3366.07	0.001161
3375.72	0.001141
3385.36	0.001591
3395.01	0.001921
3404.65	0.002181
3414.3	0.002981
3423.94	0.004941
3433.59	0.009071
3443.23	0.016401
3452.88	0.022471
3462.52	0.018521
3472.17	0.009691
3481.81	0.004651
3491.46	0.002661
3501.1	0.001791
3510.75	0.0008655
3520.39	0.0008834
3530.04	0.0005256
3539.68	0.0004933
3549.32	0.0004558
3558.97	0.000378
3568.61	0.0005946
3578.26	0.000549
3587.9	0.0004916
3597.55	0.0004057
3607.19	0.0004358
3616.84	0.0003365
3626.48	0.0002823
3636.13	0.0002345
3645.77	0.000413
3655.42	0.00023
3665.06	0.00020079
3674.71	0.0002982
3684.35	0.0002903
3694	0.0003506
3703.64	0.0003845
3713.29	0.00020222
3722.93	0.0002291
3732.58	0.0002636
3742.22	0.000277
3751.86	0.0002463
3761.51	0.000117505
3771.15	0.0002326
3780.8	0.0004582
3790.44	0.0001531
3800.09	9.81e-05
3809.73	0.00016753
3819.38	0.0002319
3829.02	0.0003405
3838.67	0.00019706
3848.31	0.0002678
3857.96	0.0002253
3867.6	0.0002675
3877.25	0.00018156
3886.89	0.0002893
3896.54	0.0004174
3906.18	0.0002942
3915.83	0.00015633
3925.47	0.00015245
3935.12	4.82e-05
3944.76	0.0003134
3954.41	0.00015381
3964.05	0.00017619
3973.69	0.0003412
3983.34	0.000374
3992.98	0.0003805
