Infrared Spectrum: Indole-1-propionamide
Formula: C11 H12 N2 O
CAS: 21017-50-5
State: SOLID (SPLIT MULL), FLUOROLUBE FOR 3800-1330 CM^-^1, NUJOL FOR 1330-450 CM^-^1
Melting point: 105-106 C
Class: COBLENTZ III
Instrument: DOW KBr FOREPRISM-GRATING
Instrument parameters: BLAZED AT 3.5, 12.0, 20.0 MICRON AND CHANGED AT 5.0, 7.5, 14.9 MICRON
Sampling: TRANSMISSION
Resolution: 2
Origin: DOW CHEMICAL COMPANY
1/CM	TRANSMITTANCE
3800	0.6254
3791	0.6265
3782	0.628
3773	0.6291
3764	0.6308
3755	0.633
3746	0.6356
3737	0.6405
3728	0.6419
3719	0.6418
3710	0.6422
3701	0.6421
3692	0.6411
3683	0.6338
3674	0.6387
3665	0.6424
3656	0.6441
3647	0.6446
3638	0.6484
3629	0.6478
3620	0.6481
3611	0.6495
3602	0.6517
3593	0.6534
3584	0.6548
3575	0.6561
3566	0.6583
3557	0.6603
3548	0.6628
3539	0.6651
3530	0.6674
3521	0.6691
3512	0.6712
3503	0.6736
3494	0.6756
3485	0.6771
3476	0.6788
3467	0.6811
3458	0.6826
3449	0.6778
3440	0.598
3431	0.3059
3422	0.2829
3413	0.4802
3404	0.5627
3395	0.5929
3386	0.6135
3377	0.626
3368	0.6359
3359	0.6357
3350	0.6305
3341	0.6198
3332	0.5884
3323	0.5686
3314	0.5608
3305	0.5429
3296	0.5217
3287	0.5029
3278	0.4841
3269	0.4696
3260	0.4778
3251	0.4738
3242	0.4032
3233	0.4428
3224	0.5016
3215	0.5181
3206	0.5049
3197	0.392
3188	0.3741
3179	0.4047
3170	0.4802
3161	0.5171
3152	0.5395
3143	0.5619
3134	0.5875
3125	0.605
3116	0.6029
3107	0.6343
3098	0.473
3089	0.5326
3080	0.6065
3071	0.6339
3062	0.6444
3053	0.637
3044	0.6426
3035	0.6571
3026	0.661
3017	0.6533
3008	0.6615
2999	0.6708
2990	0.6641
2981	0.6661
2972	0.6737
2963	0.6617
2954	0.6576
2945	0.6165
2936	0.6558
2927	0.6686
2918	0.6745
2909	0.6654
2900	0.6861
2891	0.6908
2882	0.7018
2873	0.7046
2864	0.7038
2855	0.7085
2846	0.714
2837	0.7187
2828	0.7231
2819	0.7269
2810	0.7299
2801	0.7291
2792	0.7299
2783	0.7312
2774	0.7343
2765	0.7374
2756	0.74
2747	0.7417
2738	0.7435
2729	0.7458
2720	0.7482
2711	0.7501
2702	0.7519
2693	0.7531
2684	0.7543
2675	0.7555
2666	0.7565
2657	0.7578
2648	0.7592
2639	0.7621
2630	0.7651
2621	0.7668
2612	0.7686
2603	0.7718
2594	0.7755
2585	0.7768
2576	0.7756
2567	0.7758
2558	0.7787
2549	0.78
2540	0.7801
2531	0.779
2522	0.7776
2513	0.7807
2504	0.7828
2495	0.7785
2486	0.7785
2477	0.783
2468	0.7842
2459	0.784
2450	0.7853
2441	0.7864
2432	0.7871
2423	0.7875
2414	0.7881
2405	0.788
2396	0.7878
2387	0.789
2378	0.7906
2369	0.7935
2360	0.7953
2351	0.7934
2342	0.7905
2333	0.7882
2324	0.7858
2315	0.7839
2306	0.785
2297	0.7872
2288	0.7893
2279	0.7908
2270	0.7918
2261	0.7926
2252	0.7942
2243	0.7965
2234	0.7996
2225	0.8031
2216	0.8065
2207	0.8099
2198	0.8133
2189	0.8165
2180	0.8196
2171	0.8225
2162	0.8253
2153	0.8277
2144	0.83
2135	0.8321
2126	0.8342
2117	0.8363
2108	0.8385
2099	0.8402
2090	0.8415
2081	0.842
2072	0.8424
2063	0.8443
2054	0.8466
2045	0.8478
2036	0.8502
2027	0.8525
2018	0.8544
2009	0.8493
2000	0.8456
1991	0.8291
1982	0.8448
1973	0.8459
1964	0.8478
1955	0.8463
1946	0.8425
1937	0.8412
1928	0.8474
1919	0.848
1910	0.8355
1901	0.8331
1892	0.8492
1883	0.85
1874	0.8462
1865	0.8537
1856	0.8587
1847	0.8606
1838	0.8607
1829	0.8594
1820	0.8594
1811	0.8625
1802	0.8648
1793	0.8536
1784	0.8442
1775	0.848
1766	0.8471
1757	0.8457
1748	0.8425
1739	0.8495
1730	0.8661
1721	0.8728
1712	0.8657
1703	0.8523
1694	0.8046
1685	0.3606
1676	0.21
1667	0.3494
1658	0.045
1649	0.189
1640	0.5172
1631	0.6186
1622	0.6615
1613	0.5699
1604	0.6376
1595	0.7168
1586	0.7642
1577	0.7867
1568	0.7958
1559	0.8115
1550	0.8144
1541	0.8237
1532	0.8304
1523	0.8325
1514	0.5262
1505	0.7855
1496	0.8011
1487	0.6037
1478	0.7425
1469	0.6615
1460	0.6705
1451	0.6583
1442	0.7757
1433	0.7708
1424	0.6967
1415	0.4344
1406	0.2509
1397	0.4756
1388	0.6818
1379	0.7294
1370	0.6541
1361	0.6958
1352	0.736
1343	0.6078
1334	0.4627
1325	0.4682
1316	0.4608
1307	0.6728
1298	0.7036
1289	0.6608
1280	0.7176
1271	0.7536
1262	0.6685
1253	0.6037
1244	0.6152
1235	0.684
1226	0.7786
1217	0.7793
1208	0.7835
1199	0.8045
1190	0.8093
1181	0.7403
1172	0.3597
1163	0.7339
1154	0.7568
1145	0.7665
1136	0.774
1127	0.7517
1118	0.6647
1109	0.7161
1100	0.7814
1091	0.774
1082	0.7768
1073	0.7764
1064	0.7006
1055	0.7932
1046	0.7904
1037	0.7953
1028	0.7839
1019	0.7825
1010	0.6994
1001	0.7731
992	0.8026
983	0.8208
974	0.8202
965	0.8212
956	0.8284
947	0.8339
938	0.8298
929	0.786
920	0.8421
911	0.8405
902	0.8396
893	0.746
884	0.7261
875	0.8282
866	0.8384
857	0.8325
848	0.8375
839	0.8566
830	0.8604
821	0.862
812	0.8613
803	0.8583
794	0.8504
785	0.8321
776	0.6401
767	0.4183
758	0.7501
749	0.1967
740	0.395
731	0.58
722	0.581
713	0.5196
704	0.7765
695	0.8241
686	0.8456
677	0.8621
668	0.8691
659	0.8852
650	0.8784
641	0.8461
632	0.8503
623	0.8692
614	0.8454
605	0.8367
596	0.8713
587	0.8248
578	0.8453
569	0.5646
560	0.7836
551	0.8387
542	0.827
533	0.8157
524	0.7188
515	0.4409
506	0.5959
497	0.7808
488	0.811
479	0.8223
470	0.8058
461	0.7684
452	0.7753
