Infrared Spectrum: N-METHYL-2-PYRYDYLMETHYLAMINE
Formula: C7 H10 N2
CAS: 21035-59-6
Class: COBLENTZ
Instrument: PERKIN-ELMER
Sampling: TRANSMISSION
Path length: CAPILLARY
Resolution: 4
Origin: ABBOTT LABORATORIES - WASHBURN
MICROMETERS	TRANSMITTANCE
2.059	0.872
2.0919	0.871
2.12479	0.8671
2.15769	0.864
2.19058	0.861
2.22348	0.863
2.25637	0.861
2.28927	0.8512
2.32216	0.843
2.35506	0.846
2.38795	0.848
2.42085	0.844
2.45374	0.836
2.48664	0.8439
2.51953	0.851
2.55243	0.8558
2.58532	0.8589
2.61822	0.8628
2.65111	0.864
2.68401	0.863
2.7169	0.859
2.7498	0.8581
2.78269	0.8442
2.81559	0.8252
2.84848	0.8085
2.88138	0.7934
2.91427	0.7677
2.94717	0.7033
2.98006	0.5659
3.01296	0.491
3.04585	0.5405
3.07875	0.6774
3.11164	0.7256
3.14454	0.7398
3.17743	0.739
3.21033	0.6293
3.24322	0.5671
3.27612	0.5717
3.30901	0.523
3.34191	0.4224
3.3748	0.3385
3.4077	0.2981
3.44059	0.3129
3.47349	0.3111
3.50638	0.303
3.53928	0.366
3.57218	0.2951
3.60507	0.4917
3.63797	0.714
3.67086	0.7499
3.70376	0.755
3.73665	0.7925
3.76955	0.8149
3.80244	0.8228
3.83534	0.8278
3.86823	0.83
3.90113	0.838
3.93402	0.841
3.96692	0.846
3.99981	0.851
4.03271	0.8529
4.0656	0.853
4.0985	0.8539
4.13139	0.8578
4.16429	0.8591
4.19718	0.861
4.23008	0.859
4.26297	0.856
4.29587	0.859
4.32876	0.854
4.36166	0.858
4.39455	0.859
4.42745	0.8589
4.46034	0.861
4.49324	0.8559
4.52613	0.856
4.55903	0.859
4.59192	0.867
4.62482	0.871
4.65771	0.866
4.69061	0.869
4.7235	0.866
4.7564	0.863
4.78929	0.8562
4.82219	0.8561
4.85508	0.859
4.88798	0.854
4.92087	0.853
4.95377	0.8412
4.98666	0.82
5.01956	0.82
5.05246	0.8246
5.08535	0.8215
5.11825	0.8256
5.15114	0.8351
5.18404	0.8291
5.21693	0.826
5.24983	0.823
5.28272	0.821
5.31562	0.8259
5.34851	0.831
5.38141	0.8388
5.4143	0.8454
5.4472	0.8551
5.48009	0.856
5.51299	0.856
5.54588	0.8524
5.57878	0.841
5.61167	0.843
5.64457	0.844
5.67746	0.8432
5.71036	0.839
5.74325	0.8321
5.77615	0.821
5.80904	0.821
5.84194	0.8143
5.87483	0.8036
5.90773	0.7897
5.94062	0.7779
5.97352	0.765
6.00641	0.7522
6.03931	0.749
6.0722	0.7477
6.1051	0.7356
6.13799	0.6933
6.17089	0.5955
6.20378	0.4889
6.23668	0.2946
6.26957	0.1415
6.30247	0.425
6.33536	0.3147
6.36826	0.4966
6.40115	0.6975
6.43405	0.7379
6.46695	0.7504
6.49984	0.759
6.53274	0.7567
6.56563	0.7387
6.59853	0.7143
6.63142	0.6571
6.66432	0.5779
6.69721	0.4613
6.73011	0.314
6.763	0.1949
6.7959	0.2396
6.82879	0.3167
6.86169	0.3173
6.89458	0.2719
6.92748	0.2503
6.96037	0.138
6.99327	0.2318
7.02616	0.4341
7.05906	0.5246
7.09195	0.6427
7.12485	0.6702
7.15774	0.6992
7.19064	0.7183
7.22353	0.7341
7.25643	0.732
7.28932	0.7177
7.32222	0.6566
7.35511	0.5449
7.38801	0.4475
7.4209	0.5234
7.4538	0.6378
7.48669	0.7022
7.51959	0.7356
7.55248	0.747
7.58538	0.7352
7.61827	0.6921
7.65117	0.6429
7.68406	0.6182
7.71696	0.6379
7.74985	0.6865
7.78275	0.7118
7.81564	0.7151
7.84854	0.7042
7.88143	0.7209
7.91433	0.7242
7.94723	0.6953
7.98012	0.6745
8.01302	0.6684
8.04591	0.663
8.07881	0.6639
8.1117	0.6682
8.1446	0.676
8.17749	0.683
8.21039	0.691
8.24328	0.7066
8.27618	0.7258
8.30907	0.7384
8.34197	0.742
8.37486	0.7395
8.40776	0.7332
8.44065	0.7194
8.47355	0.696
8.50644	0.645
8.53934	0.5813
8.57223	0.5479
8.60513	0.5224
8.63802	0.4861
8.67092	0.414
8.70381	0.3335
8.73671	0.366
8.7696	0.4314
8.8025	0.4149
8.83539	0.3584
8.86829	0.338
8.90118	0.3701
8.93408	0.404
8.96697	0.4023
8.99987	0.3611
9.03276	0.341
9.06566	0.3741
9.09855	0.458
9.13145	0.5201
9.16434	0.546
9.19724	0.5538
9.23013	0.5878
9.26303	0.6451
9.29592	0.6886
9.32882	0.7099
9.36171	0.719
9.39461	0.7235
9.42751	0.722
9.4604	0.698
9.4933	0.5981
9.52619	0.4665
9.55909	0.4709
9.59198	0.6251
9.62488	0.6809
9.65777	0.7106
9.69067	0.7279
9.72356	0.734
9.75646	0.7375
9.78935	0.74
9.82225	0.7391
9.85514	0.7373
9.88804	0.7275
9.92093	0.7127
9.95383	0.6707
9.98672	0.5544
10.0196	0.4021
10.0525	0.4125
10.0854	0.5072
10.1183	0.5476
10.1512	0.562
10.1841	0.5686
10.217	0.5676
10.2499	0.5614
10.2828	0.555
10.3157	0.5579
10.3486	0.5713
10.3815	0.5828
10.4144	0.5906
10.4473	0.6001
10.4801	0.6148
10.513	0.6522
10.5459	0.6795
10.5788	0.7016
10.6117	0.7138
10.6446	0.719
10.6775	0.719
10.7104	0.7118
10.7433	0.7007
10.7762	0.6829
10.8091	0.6662
10.842	0.6685
10.8749	0.677
10.9078	0.7017
10.9407	0.7092
10.9736	0.7178
11.0065	0.719
11.0394	0.7169
11.0723	0.714
11.1052	0.7041
11.1381	0.6895
11.1709	0.6782
11.2038	0.6696
11.2367	0.6592
11.2696	0.655
11.3025	0.651
11.3354	0.6517
11.3683	0.65
11.4012	0.645
11.4341	0.6333
11.467	0.6192
11.4999	0.5964
11.5328	0.5857
11.5657	0.5709
11.5986	0.549
11.6315	0.5359
11.6644	0.5132
11.6973	0.4899
11.7302	0.4674
11.7631	0.44
11.796	0.4054
11.8288	0.3737
11.8617	0.3542
11.8946	0.342
11.9275	0.3434
11.9604	0.3525
11.9933	0.3767
12.0262	0.3944
12.0591	0.4193
12.092	0.4349
12.1249	0.4476
12.1578	0.4565
12.1907	0.4625
12.2236	0.463
12.2565	0.463
12.2894	0.463
12.3223	0.4596
12.3552	0.4498
12.3881	0.447
12.421	0.4432
12.4539	0.44
12.4868	0.438
12.5196	0.4387
12.5525	0.4359
12.5854	0.425
12.6183	0.417
12.6512	0.4044
12.6841	0.3939
12.717	0.3712
12.7499	0.3614
12.7828	0.3433
12.8157	0.3237
12.8486	0.3027
12.8815	0.2785
12.9144	0.2508
12.9473	0.2201
12.9802	0.1956
13.0131	0.161
13.046	0.1415
13.0789	0.1254
13.1118	0.1101
13.1447	0.0994
13.1775	0.095
13.2104	0.092
13.2433	0.089
13.2762	0.089
13.3091	0.0925
13.342	0.1002
13.3749	0.1149
13.4078	0.1483
13.4407	0.1762
13.4736	0.206
13.5065	0.2363
13.5394	0.2602
13.5723	0.272
13.6052	0.2822
13.6381	0.2871
13.671	0.293
13.7039	0.295
13.7368	0.2997
13.7697	0.314
13.8026	0.332
13.8355	0.3523
13.8683	0.37
13.9012	0.3862
13.9341	0.3998
13.967	0.4171
13.9999	0.4289
14.0328	0.44
14.0657	0.4524
14.0986	0.4657
14.1315	0.4706
14.1644	0.4796
14.1973	0.4939
14.2302	0.501
14.2631	0.5094
14.296	0.519
14.3289	0.5239
14.3618	0.529
14.3947	0.533
14.4276	0.537
14.4605	0.5401
14.4934	0.544
14.5262	0.5527
14.5591	0.554
14.592	0.5544
14.6249	0.559
14.6578	0.559
14.6907	0.562
14.7236	0.5667
14.7565	0.567
14.7894	0.569
14.8223	0.567
14.8552	0.5684
14.8881	0.57
14.921	0.574
14.9539	0.575
