Infrared Spectrum: 2-Mercapto-4-phenylthiazole
Formula: C 9 H 7 N S 2
CAS: 2103-88-0
State: gas
Origin: EPA-IR VAPOR PHASE LIBRARY
1/CM	ABSORBANCE
549.8	0.0004893
559.445	0.0007329
569.09	0.0009412
578.734	0.0020065
588.379	0.0026965
598.024	0.0025965
607.669	0.0016365
617.313	0.0014065
626.958	0.0014065
636.603	0.0014465
646.248	0.0016765
655.893	0.0030865
665.537	0.0062765
675.182	0.0055965
684.827	0.0048465
694.472	0.0051465
704.116	0.0074365
713.761	0.0153865
723.406	0.0163865
733.051	0.0081865
742.695	0.0030965
752.34	0.0023865
761.985	0.0035065
771.63	0.0032165
781.275	0.0017065
790.919	0.000862
800.564	0.0007687
810.209	0.0010665
819.854	0.0007659
829.498	0.0008765
839.143	0.0011665
848.788	0.0006712
858.433	0.0006459
868.078	0.0009988
877.722	0.0029865
887.367	0.0057865
897.012	0.0043465
906.657	0.0019665
916.301	0.0012965
925.946	0.0013765
935.591	0.0007443
945.236	0.0007864
954.88	0.0004661
964.525	0.0005801
974.17	0.0004756
983.815	0.0007686
993.46	0.0010121
1003.1	0.0013065
1012.75	0.0019365
1022.39	0.0038365
1032.04	0.0052465
1041.68	0.0075965
1051.33	0.0089065
1060.97	0.0120565
1070.62	0.0164165
1080.26	0.0119565
1089.91	0.0054065
1099.55	0.0041065
1109.2	0.0038665
1118.84	0.0037465
1128.49	0.0028965
1138.13	0.0024265
1147.78	0.0031465
1157.42	0.0053665
1167.07	0.0063465
1176.71	0.0042565
1186.36	0.0027565
1196	0.0016965
1205.64	0.0017365
1215.29	0.0031765
1224.93	0.0058865
1234.58	0.0056065
1244.22	0.0036365
1253.87	0.0018865
1263.51	0.0024665
1273.16	0.0027365
1282.8	0.0028665
1292.45	0.0034665
1302.09	0.0037865
1311.74	0.0061565
1321.38	0.0096365
1331.03	0.0082765
1340.67	0.0039965
1350.32	0.0017665
1359.96	0.0014865
1369.61	0.0016465
1379.25	0.0021665
1388.9	0.0042665
1398.54	0.0112465
1408.18	0.0275065
1417.83	0.0402065
1427.47	0.0286065
1437.12	0.0201465
1446.76	0.0157465
1456.41	0.0111765
1466.05	0.0061465
1475.7	0.0088665
1485.34	0.0084765
1494.99	0.0052165
1504.63	0.0024065
1514.28	0.0014565
1523.92	0.0014465
1533.57	0.0008966
1543.21	0.0007744
1552.86	0.0009997
1562.5	0.0016765
1572.15	0.0020365
1581.79	0.0020965
1591.44	0.0023465
1601.08	0.0016065
1610.73	0.0008994
1620.37	0.0004604
1630.01	0.0003569
1639.66	0.000321
1649.3	0.0001894
1658.95	0.0002829
1668.59	0.0002924
1678.24	0.000357
1687.88	0.0003021
1697.53	0.0001513
1707.17	0.0002362
1716.82	7.42e-05
1726.46	0.0002508
1736.11	0.0002613
1745.75	0.0002521
1755.4	0.0002238
1765.04	8.377e-05
1774.69	0.0002036
1784.33	0.0002566
1793.98	0.0005254
1803.62	0.000444
1813.27	0.0002703
1822.91	0.0002362
1832.55	0.000277
1842.2	0.0001857
1851.84	0.0002812
1861.49	0.0003057
1871.13	0.0004853
1880.78	0.000587
1890.42	0.0005637
1900.07	0.0003381
1909.71	0.0001912
1919.36	0.0002198
1929	0.0003556
1938.65	0.0004555
1948.29	0.000538
1957.94	0.0006308
1967.58	0.0004674
1977.23	8.752e-05
1986.87	0.000174
1996.52	0.0001454
2006.16	0.0001841
2015.81	0.0001443
2025.45	0.0001721
2035.1	7.372e-05
2044.74	0.00012888
2054.38	0.00012363
2064.03	0.0001864
2073.67	0.000143
2083.32	0.0001486
2092.96	0.00013332
2102.61	0.0001369
2112.25	0.0002325
2121.9	0.0001972
2131.54	0.0002498
2141.19	0.0001971
2150.83	9.414e-05
2160.48	0.0001694
2170.12	0.0001355
2179.77	0.0001968
2189.41	0.0001966
2199.06	0.0001699
2208.7	0.0002396
2218.35	0.000262
2227.99	0.0001991
2237.64	0.0002621
2247.28	0.0002357
2256.92	0.0002849
2266.57	0.0003411
2276.21	0.0002002
2285.86	0.0002343
2295.5	0.0002608
2305.15	0.0002074
2314.79	0.0002818
2324.44	0.0002905
2334.08	0.0001647
2343.73	0.00027
2353.37	0.0001438
2363.02	0.0002963
2372.66	0.0002356
2382.31	0.0002764
2391.95	0.0002899
2401.6	0.0002761
2411.24	0.0001651
2420.89	0.0001654
2430.53	0.0002237
2440.18	0.00012556
2449.82	0.000261
2459.47	0.0002779
2469.11	0.0003498
2478.75	0.0002603
2488.4	0.000301
2498.04	0.0002571
2507.69	0.0001507
2517.33	0.0001917
2526.98	0.0002112
2536.62	0.0001976
2546.27	0.0001847
2555.91	0.000143
2565.56	0.0002058
2575.2	0.0001835
2584.85	0.0003168
2594.49	0.0003508
2604.14	0.000273
2613.78	9.344e-05
2623.43	0.0002221
2633.07	0.0002185
2642.72	0.0002116
2652.36	0.0002959
2662.01	9.879e-05
2671.65	0.00012059
2681.29	0.000263
2690.94	0.0002135
2700.58	0.0001548
2710.23	8.649e-05
2719.87	9.355e-05
2729.52	0.0001749
2739.16	0.0001879
2748.81	0.00014
2758.45	0.0001522
2768.1	0.0001803
2777.74	8.059e-05
2787.39	0.0001524
2797.03	0.0001535
2806.68	0.0002175
2816.32	0.0001921
2825.97	0.0002785
2835.61	0.0002653
2845.26	0.0002897
2854.9	0.0003762
2864.55	0.0001845
2874.19	0.0002048
2883.84	0.0002088
2893.48	0.0002347
2903.12	0.0002744
2912.77	0.00011336
2922.41	0.0002233
2932.06	0.0001553
2941.7	0.0001752
2951.35	0.00011901
2960.99	0.0004456
2970.64	0.0002478
2980.28	0.0003654
2989.93	0.0003318
2999.57	0.0004707
3009.22	0.0009566
3018.86	0.0012465
3028.51	0.0022665
3038.15	0.0027265
3047.8	0.0027865
3057.44	0.0029365
3067.09	0.0050065
3076.73	0.0056465
3086.38	0.0034565
3096.02	0.0024365
3105.67	0.0017665
3115.31	0.0014065
3124.95	0.0013565
3134.6	0.0007419
3144.24	0.0005341
3153.89	0.0003815
3163.53	0.0002255
3173.18	4.732e-05
3182.82	0.0002016
3192.47	0.00011236
3202.11	0.0002672
3211.76	0.0001508
3221.4	0.00013164
3231.05	0.0001635
3240.69	0.0001891
3250.34	0.0002031
3259.98	0.0003253
3269.63	0.0002983
3279.27	0.0003566
3288.92	0.000314
3298.56	0.00013008
3308.21	0.0001485
3317.85	0.00011072
3327.49	7.096e-05
3337.14	0.0003383
3346.78	0.0002091
3356.43	0.0002207
3366.07	0.00010951
3375.72	0.0001804
3385.36	0.0003006
3395.01	0.000286
3404.65	0.0004426
3414.3	0.0007785
3423.94	0.0017065
3433.59	0.0041365
3443.23	0.0068865
3452.88	0.0038065
3462.52	0.0008024
3472.17	0.0004158
3481.81	0.0003572
3491.46	0.0002687
3501.1	0.0003154
3510.75	0.0002649
3520.39	0.00010948
3530.04	8.012e-05
3539.68	0.0003168
3549.32	0.0001473
3558.97	9.333e-05
3568.61	0.0002407
3578.26	0.0003038
3587.9	0.0002768
3597.55	0.0001846
3607.19	0.0002587
3616.84	1.09e-05
3626.48	7.387e-05
3636.13	0.0002013
3645.77	0.0002842
3655.42	0.0002521
3665.06	0.0001632
3674.71	0.0001646
3684.35	0.00011801
3694	0.000267
3703.64	0.0002516
3713.29	0.0001364
3722.93	0.0002066
3732.58	0.00012809
3742.22	0.0002261
3751.86	0.0001803
3761.51	0.0002371
3771.15	0.0002784
3780.8	0.0003392
3790.44	0.0002617
3800.09	0.0003495
3809.73	0.0002897
3819.38	0.0003766
3829.02	0.0004231
3838.67	0.0002196
3848.31	0.0001643
3857.96	0.0003459
3867.6	0.0003768
3877.25	0.000368
3886.89	0.0002031
3896.54	0.0003145
3906.18	0.0003367
3915.83	0.0002291
3925.47	0.0002177
3935.12	0.000258
3944.76	0.0003725
3954.41	0.0004035
3964.05	0.0002592
3973.69	0.0001717
3983.34	0.000535
3992.98	0.0002717
