Infrared Spectrum: PYRIDO[3,4-d] PYRIMIDINE-2,4(1H,3H)DIONE
Formula: C7 H5 N3 O2
CAS: 21038-67-5
State: SOLID (1 mg / 500 mg KBr DISC)
Class: COBLENTZ III
Instrument: PERKIN-ELMER 621
Sampling: TRANSMISSION
Resolution: 4
Origin: SOUTHERN RESEARCH INSTITUTE
1/CM	TRANSMITTANCE
282.152	0.739
292.651	0.781
303.15	0.809
313.648	0.828
324.147	0.848
334.646	0.864
345.145	0.874
355.643	0.873
366.142	0.869
376.641	0.854
387.14	0.841
397.638	0.8409
408.137	0.909
418.636	0.888
429.135	0.884
439.633	0.891
450.132	0.8011
460.631	0.734
471.13	0.811
481.628	0.728
492.127	0.567
502.626	0.8361
513.125	0.958
523.623	0.958
534.122	0.956
544.621	0.954
555.12	0.934
565.618	0.9
576.117	0.945
586.616	0.943
597.115	0.939
607.613	0.933
618.112	0.899
628.611	0.875
639.11	0.843
649.608	0.913
660.107	0.903
670.606	0.883
681.105	0.784
691.603	0.882
702.102	0.759
712.601	0.922
723.1	0.917
733.598	0.907
744.097	0.865
754.596	0.803
765.095	0.7789
775.593	0.788
786.092	0.861
796.591	0.891
807.09	0.887
817.588	0.882
828.087	0.875
838.586	0.818
849.085	0.733
859.583	0.878
870.082	0.911
880.581	0.904
891.08	0.888
901.578	0.822
912.077	0.788
922.576	0.883
933.075	0.871
943.573	0.873
954.072	0.892
964.571	0.894
975.07	0.907
985.568	0.904
996.067	0.892
1006.57	0.865
1017.06	0.918
1027.56	0.912
1038.06	0.874
1048.56	0.708
1059.06	0.93
1069.56	0.929
1080.06	0.925
1090.56	0.912
1101.05	0.888
1111.55	0.822
1122.05	0.801
1132.55	0.7978
1143.05	0.924
1153.55	0.909
1164.05	0.839
1174.55	0.913
1185.04	0.908
1195.54	0.888
1206.04	0.866
1216.54	0.824
1227.04	0.869
1237.54	0.881
1248.04	0.856
1258.54	0.823
1269.03	0.809
1279.53	0.6818
1290.03	0.5729
1300.53	0.794
1311.03	0.733
1321.53	0.891
1332.03	0.883
1342.53	0.87
1353.02	0.847
1363.52	0.786
1374.02	0.6269
1384.52	0.6411
1395.02	0.707
1405.52	0.543
1416.02	0.422
1426.52	0.4951
1437.01	0.8201
1447.51	0.822
1458.01	0.783
1468.51	0.758
1479.01	0.7841
1489.51	0.781
1500.01	0.724
1510.51	0.852
1521	0.886
1531.5	0.875
1542	0.856
1552.5	0.833
1563	0.796
1573.5	0.735
1584	0.715
1594.5	0.797
1604.99	0.734
1615.49	0.705
1625.99	0.75
1636.49	0.737
1646.99	0.704
1657.49	0.639
1667.99	0.515
1678.49	0.338
1688.98	0.236
1699.48	0.201
1709.98	0.233
1720.48	0.305
1730.98	0.4321
1741.48	0.6621
1751.98	0.79
1762.48	0.822
1772.97	0.857
1783.47	0.887
1793.97	0.911
1804.47	0.917
1814.97	0.912
1825.47	0.911
1835.97	0.905
1846.47	0.899
1856.96	0.89
1867.46	0.886
1877.96	0.887
1888.46	0.892
1898.96	0.9
1909.46	0.905
1919.96	0.912
1930.46	0.915
1940.96	0.917
1951.45	0.924
1961.95	0.929
1972.45	0.933
1982.95	0.932
1993.45	0.93
2003.95	0.93
2014.45	0.929
2024.95	0.929
2035.44	0.93
2045.94	0.932
2056.44	0.933
2066.94	0.933
2077.44	0.932
2087.94	0.93
2098.44	0.929
2108.94	0.9281
2119.43	0.926
2129.93	0.922
2140.43	0.9182
2150.93	0.9151
2161.43	0.9121
2171.93	0.912
2182.43	0.9092
2192.93	0.908
2203.42	0.905
2213.92	0.8981
2224.42	0.8901
2234.92	0.8822
2245.42	0.879
2255.92	0.875
2266.42	0.87
2276.92	0.869
2287.41	0.862
2297.91	0.8544
2308.41	0.8432
2318.91	0.8286
2329.41	0.819
2339.91	0.816
2350.41	0.815
2360.91	0.815
2371.4	0.815
2381.9	0.813
2392.4	0.809
2402.9	0.805
2413.4	0.7963
2423.9	0.792
2434.4	0.788
2444.9	0.783
2455.39	0.7763
2465.89	0.772
2476.39	0.771
2486.89	0.7683
2497.39	0.7663
2507.89	0.752
2518.39	0.7437
2528.89	0.741
2539.38	0.7344
2549.88	0.726
2560.38	0.721
2570.88	0.7124
2581.38	0.711
2591.88	0.7142
2602.38	0.716
2612.88	0.7102
2623.37	0.707
2633.87	0.705
2644.37	0.7034
2654.87	0.698
2665.37	0.6929
2675.87	0.6849
2686.37	0.681
2696.87	0.679
2707.36	0.678
2717.86	0.675
2728.36	0.671
2738.86	0.671
2749.36	0.671
2759.86	0.671
2770.36	0.673
2780.86	0.674
2791.35	0.676
2801.85	0.6824
2812.35	0.6929
2822.85	0.7148
2833.35	0.73
2843.85	0.7286
2854.35	0.7231
2864.85	0.7116
2875.34	0.6992
2885.84	0.7053
2896.34	0.717
2906.84	0.711
2917.34	0.6992
2927.84	0.6832
2938.34	0.6629
2948.84	0.658
2959.33	0.6526
2969.83	0.6547
2980.33	0.6681
2990.83	0.6894
3001.33	0.7073
3011.83	0.709
3022.33	0.705
3032.83	0.6957
3043.32	0.6771
3053.82	0.6676
3064.32	0.682
3074.82	0.696
3085.32	0.7083
3095.82	0.725
3106.32	0.7265
3116.82	0.7305
3127.31	0.735
3137.81	0.7415
3148.31	0.7502
3158.81	0.762
3169.31	0.7645
3179.81	0.764
3190.31	0.7588
3200.81	0.76
3211.3	0.7662
3221.8	0.7774
3232.3	0.7922
3242.8	0.7972
3253.3	0.807
3263.8	0.809
3274.3	0.809
3284.8	0.814
3295.29	0.814
3305.79	0.816
3316.29	0.818
3326.79	0.816
3337.29	0.8139
3347.79	0.8028
3358.29	0.7917
3368.79	0.7808
3379.28	0.7678
3389.78	0.7578
3400.28	0.7509
3410.78	0.749
3421.28	0.749
3431.78	0.75
3442.28	0.752
3452.78	0.758
3463.27	0.7601
3473.77	0.7641
3484.27	0.768
3494.77	0.775
3505.27	0.779
3515.77	0.788
3526.27	0.8
3536.77	0.81
3547.26	0.819
3557.76	0.831
3568.26	0.84
3578.76	0.849
3589.26	0.8579
3599.76	0.8659
3610.26	0.8749
3620.76	0.882
3631.25	0.8909
3641.75	0.894
3652.25	0.894
3662.75	0.892
3673.25	0.892
3683.75	0.896
3694.25	0.899
3704.75	0.899
3715.24	0.899
3725.74	0.899
3736.24	0.899
3746.74	0.898
3757.24	0.896
3767.74	0.895
3778.24	0.895
3788.74	0.894
3799.23	0.894
3809.73	0.894
3820.23	0.891
3830.73	0.891
3841.23	0.891
3851.73	0.891
3862.23	0.89
3872.73	0.89
3883.22	0.888
3893.72	0.8872
3904.22	0.887
3914.72	0.884
3925.22	0.884
3935.72	0.8854
3946.22	0.887
3956.72	0.884
3967.21	0.883
3977.71	0.883
3988.21	0.882
3998.71	0.882
