Infrared Spectrum: THIAZOLE, 2-AMINO-4-(P-METHOXYPHENYL)
Formula: C10 H10 N2 O S
CAS: 2104-04-3
State: SOLID (PELLET)
Melting point: 204-207 C
Class: COBLENTZ
Instrument: Not specified, most likely a prism, grating, or hybrid spectrometer.
Sampling: TRANSMISSION
Resolution: 4
Origin: TENNESSEE EASTMAN COMPANY, RESEARCH LABORATORIES
MICROMETERS	TRANSMITTANCE
2.019	0.757
2.05876	0.764
2.09853	0.774
2.13829	0.787
2.17805	0.797
2.21781	0.803
2.25758	0.81
2.29734	0.817
2.3371	0.822
2.37687	0.822
2.41663	0.828
2.45639	0.83
2.49615	0.835
2.53592	0.838
2.57568	0.84
2.61544	0.837
2.65521	0.84
2.69497	0.84
2.73473	0.835
2.77449	0.813
2.81426	0.802
2.85402	0.769
2.89378	0.571
2.93355	0.634
2.97331	0.722
3.01307	0.704
3.05284	0.538
3.0926	0.646
3.13236	0.674
3.17212	0.486
3.21189	0.308
3.25165	0.498
3.29141	0.694
3.33118	0.714
3.37094	0.709
3.4107	0.752
3.45046	0.823
3.49023	0.838
3.52999	0.84
3.56975	0.868
3.60952	0.882
3.64928	0.872
3.68904	0.877
3.7288	0.895
3.76857	0.901
3.80833	0.898
3.84809	0.901
3.88786	0.908
3.92762	0.911
3.96738	0.911
4.00714	0.918
4.04691	0.921
4.08667	0.921
4.12643	0.925
4.1662	0.928
4.20596	0.93
4.24572	0.925
4.28548	0.883
4.32525	0.877
4.36501	0.911
4.40477	0.926
4.44454	0.933
4.4843	0.936
4.52406	0.941
4.56382	0.943
4.60359	0.943
4.64335	0.945
4.68311	0.945
4.72288	0.945
4.76264	0.946
4.8024	0.945
4.84216	0.945
4.88193	0.933
4.92169	0.92
4.96145	0.941
5.00122	0.953
5.04098	0.951
5.08074	0.945
5.12051	0.95
5.16027	0.95
5.20003	0.95
5.23979	0.948
5.27956	0.94
5.31932	0.95
5.35908	0.946
5.39885	0.953
5.43861	0.948
5.47837	0.95
5.51813	0.95
5.5579	0.948
5.59766	0.941
5.63742	0.938
5.67719	0.941
5.71695	0.931
5.75671	0.921
5.79647	0.928
5.83624	0.918
5.876	0.911
5.91576	0.901
5.95553	0.892
5.99529	0.868
6.03505	0.843
6.07481	0.747
6.11458	0.46
6.15434	0.27
6.1941	0.528
6.23387	0.599
6.27363	0.8
6.31339	0.759
6.35315	0.82
6.39292	0.807
6.43268	0.654
6.47244	0.101
6.51221	0.373
6.55197	0.315
6.59173	0.614
6.63149	0.523
6.67126	0.217
6.71102	0.742
6.75078	0.775
6.79055	0.812
6.83031	0.739
6.87007	0.699
6.90983	0.702
6.9496	0.835
6.98936	0.79
7.02912	0.518
7.06889	0.799
7.10865	0.822
7.14841	0.813
7.18818	0.842
7.22794	0.858
7.2677	0.86
7.30746	0.86
7.34723	0.848
7.38699	0.797
7.42675	0.679
7.46652	0.646
7.50628	0.579
7.54604	0.569
7.5858	0.727
7.62557	0.664
7.66533	0.717
7.70509	0.534
7.74486	0.488
7.78462	0.692
7.82438	0.79
7.86414	0.82
7.90391	0.797
7.94367	0.632
7.98343	0.337
8.0232	0.137
8.06296	0.453
8.10272	0.715
8.14248	0.789
8.18225	0.827
8.22201	0.843
8.26177	0.843
8.30154	0.752
8.3413	0.745
8.38106	0.78
8.42082	0.559
8.46059	0.242
8.50035	0.677
8.54011	0.8
8.57988	0.833
8.61964	0.847
8.6594	0.85
8.69916	0.85
8.73893	0.85
8.77869	0.848
8.81845	0.845
8.85822	0.845
8.89798	0.797
8.93774	0.704
8.9775	0.745
9.01727	0.794
9.05703	0.842
9.09679	0.86
9.13656	0.865
9.17632	0.87
9.21608	0.872
9.25585	0.872
9.29561	0.872
9.33537	0.87
9.37513	0.862
9.4149	0.832
9.45466	0.805
9.49442	0.734
9.53419	0.564
9.57395	0.342
9.61371	0.267
9.65347	0.405
9.69324	0.519
9.733	0.578
9.77276	0.637
9.81253	0.722
9.85229	0.759
9.89205	0.71
9.93181	0.807
9.97158	0.833
10.0113	0.848
10.0511	0.857
10.0909	0.863
10.1306	0.865
10.1704	0.867
10.2102	0.87
10.2499	0.87
10.2897	0.87
10.3294	0.87
10.3692	0.87
10.409	0.87
10.4487	0.872
10.4885	0.872
10.5283	0.873
10.568	0.875
10.6078	0.877
10.6475	0.877
10.6873	0.873
10.7271	0.877
10.7668	0.878
10.8066	0.882
10.8464	0.882
10.8861	0.882
10.9259	0.882
10.9656	0.845
11.0054	0.797
11.0452	0.868
11.0849	0.885
11.1247	0.89
11.1645	0.892
11.2042	0.898
11.244	0.9
11.2838	0.9
11.3235	0.9
11.3633	0.9
11.403	0.9
11.4428	0.9
11.4826	0.9
11.5223	0.9
11.5621	0.9
11.6019	0.9
11.6416	0.88
11.6814	0.852
11.7211	0.757
11.7609	0.727
11.8007	0.76
11.8404	0.674
11.8802	0.362
11.92	0.279
11.9597	0.471
11.9995	0.705
12.0392	0.812
12.079	0.848
12.1188	0.853
12.1585	0.842
12.1983	0.858
12.2381	0.885
12.2778	0.885
12.3176	0.883
12.3574	0.9
12.3971	0.913
12.4369	0.913
12.4766	0.915
12.5164	0.916
12.5562	0.913
12.5959	0.875
12.6357	0.777
12.6755	0.803
12.7152	0.868
12.755	0.9
12.7947	0.911
12.8345	0.913
12.8743	0.916
12.914	0.92
12.9538	0.923
12.9936	0.926
13.0333	0.93
13.0731	0.931
13.1128	0.931
13.1526	0.933
13.1924	0.933
13.2321	0.933
13.2719	0.933
13.3117	0.928
13.3514	0.906
13.3912	0.853
13.4309	0.664
13.4707	0.495
13.5105	0.584
13.5502	0.764
13.59	0.853
13.6298	0.89
13.6695	0.915
13.7093	0.921
13.7491	0.926
13.7888	0.928
13.8286	0.928
13.8683	0.926
13.9081	0.926
13.9479	0.926
13.9876	0.921
14.0274	0.911
14.0672	0.898
14.1069	0.873
14.1467	0.832
14.1864	0.762
14.2262	0.686
14.266	0.662
14.3057	0.689
14.3455	0.742
14.3853	0.774
14.425	0.789
14.4648	0.79
14.5045	0.794
14.5443	0.8
14.5841	0.832
14.6238	0.863
14.6636	0.883
14.7034	0.905
14.7431	0.916
14.7829	0.923
14.8226	0.916
14.8624	0.883
14.9022	0.852
14.9419	0.837
14.9817	0.863
15.0215	0.928
15.0612	0.976
15.101	0.996
15.1408	1
15.1805	1.013
15.2203	1.014
15.26	1.014
15.2998	1.014
15.3396	1.013
15.3793	1.013
15.4191	1.013
15.4589	1.011
15.4986	1.009
15.5384	1.004
15.5781	0.993
15.6179	0.973
15.6577	0.931
15.6974	0.901
15.7372	0.887
15.777	0.885
15.8167	0.883
15.8565	0.883
15.8962	0.882
15.936	0.882
15.9758	0.882
