Infrared Spectrum: EPN
Formula: C 14 H 14 N O 4 P S
CAS: 2104-64-5
State: gas
Instrument: HP-GC/MS/IRD
Origin: NIST Mass Spectrometry Data Center
1/CM	ABSORBANCE
550	0.0056394
562	0.0003856
574	0.0018557
586	0.0055189
598	0.0073987
610	0.0032776
622	0.0031089
634	0.0046513
646	0.0202681
658	0.0312818
670	0.0155686
682	0.0230396
694	0.0326555
706	0.0184847
718	0.0229673
730	0.0903027
742	0.11768
754	0.0679861
766	0.0482241
778	0.0370658
790	0.0605874
802	0.071336
814	0.0516945
826	0.0329688
838	0.0239795
850	0.0499111
862	0.0625395
874	0.0427293
886	0.0721554
898	0.191908
910	0.21637
922	0.0969302
934	0.0635758
946	0.0750233
958	0.0690465
970	0.040247
982	0.023859
994	0.0237385
1006	0.0370658
1018	0.0685886
1030	0.124091
1042	0.157397
1054	0.101485
1066	0.0505859
1078	0.0333062
1090	0.0361982
1102	0.0462961
1114	0.082181
1126	0.0598403
1138	0.0235457
1150	0.0275463
1162	0.0615273
1174	0.0308962
1186	0.0326796
1198	0.0481759
1210	0.140575
1222	0.197283
1234	0.122765
1246	0.0474288
1258	0.0259798
1270	0.0204127
1282	0.018798
1294	0.0158337
1306	0.0165326
1318	0.0181232
1330	0.0377165
1342	0.119464
1354	0.132695
1366	0.0558638
1378	0.029161
1390	0.0202922
1402	0.0135201
1414	0.0101461
1426	0.0128935
1438	0.0247266
1450	0.0168459
1462	0.0186775
1474	0.0350414
1486	0.101075
1498	0.102642
1510	0.0401024
1522	0.0516704
1534	0.0954119
1546	0.102497
1558	0.0497906
1570	0.0322217
1582	0.0600572
1594	0.0843259
1606	0.0488266
1618	0.0318843
1630	0.0117608
1642	0.0056635
1654	0.0049405
1666	0.0051333
1678	0.003856
1690	0.0026992
1702	0.0023377
1714	0.0018798
1726	0.0015424
1738	0.0016388
1750	0.0022413
1762	0.0036632
1774	0.0039283
1786	0.0026028
1798	0.003374
1810	0.0049164
1822	0.0034945
1834	0.0025305
1846	0.0023618
1858	0.0020244
1870	0.0015906
1882	0.0018316
1894	0.003374
1906	0.0041211
1918	0.0027233
1930	0.0013014
1942	0.0012532
1954	0.0023136
1966	0.0027474
1978	0.0023618
1990	0.001205
2002	0.0006266
2014	0.0005302
2026	0.0006025
2038	0.0003856
2050	0.000482
2062	0.0007712
2074	0.0009881
2086	0.0009399
2098	0.0007471
2110	0.0006989
2122	0.0006507
2134	0.0005302
2146	0.000482
2158	0.0003374
2170	0.0002892
2182	0.0003133
2194	0.0003856
2206	0.0005061
2218	0.000723
2230	0.0008917
2242	0.0008676
2254	0.0007712
2266	0.0006989
2278	0.0005061
2290	0.0003133
2302	0.0003374
2314	0.0006507
2326	0.0009399
2338	0.000723
2350	0.0007471
2362	0.0007712
2374	0.000964
2386	0.0010845
2398	0.0011086
2410	0.0012773
2422	0.0016629
2434	0.0019521
2446	0.002169
2458	0.0020726
2470	0.0014219
2482	0.0010604
2494	0.0009881
2506	0.0009399
2518	0.0006266
2530	0.000482
2542	0.000482
2554	0.0006025
2566	0.0008917
2578	0.0009881
2590	0.0012532
2602	0.0013978
2614	0.0011568
2626	0.0007471
2638	0.0005543
2650	0.0005302
2662	0.0005061
2674	0.0005784
2686	0.000964
2698	0.0013737
2710	0.0015424
2722	0.0011086
2734	0.0007471
2746	0.0006266
2758	0.0006989
2770	0.0009158
2782	0.0008435
2794	0.0007953
2806	0.0009158
2818	0.0012532
2830	0.0016629
2842	0.0021449
2854	0.002892
2866	0.0043139
2878	0.0062178
2890	0.0068203
2902	0.0078566
2914	0.0092062
2926	0.0089652
2938	0.0143395
2950	0.0140021
2962	0.0119777
2974	0.0158819
2986	0.0245338
2998	0.0187739
3010	0.0108691
3022	0.0081217
3034	0.0064106
3046	0.005784
3058	0.0115198
3070	0.0231601
3082	0.0156409
3094	0.011086
3106	0.0045549
3118	0.00241
3130	0.0016629
3142	0.0016629
3154	0.0015906
3166	0.0009881
3178	0.0008435
3190	0.0008676
3202	0.0007712
3214	0.0008435
3226	0.0008194
3238	0.0005061
3250	0.0003856
3262	0.0003133
3274	0.0002892
3286	0.0002892
3298	0.0002892
3310	0.0003374
3322	0.0003615
3334	0.0002651
3346	0.0003374
3358	0.0003615
3370	0.0002892
3382	0.0003133
3394	0.0003615
3406	0.0002651
3418	0.0003374
3430	0.0003374
3442	0.0003615
3454	0.0003856
3466	0.0003374
3478	0.0004097
3490	0.0003856
3502	0.0004097
3514	0.0004338
3526	0.0004097
3538	0.0004338
3550	0.0004097
3562	0.000482
3574	0.0004579
3586	0.0004338
3598	0.0005061
3610	0.000482
3622	0.0005061
3634	0.0006025
3646	0.0007953
3658	0.0006748
3670	0.0006507
3682	0.0006989
3694	0.0007471
3706	0.0007712
3718	0.0007471
3730	0.0007953
3742	0.0008194
3754	0.000723
3766	0.0006025
3778	0.0006507
3790	0.0006748
3802	0.0006748
3814	0.0006266
3826	0.0005543
3838	0.0006507
