Infrared Spectrum: THIAZOLE, 2-AMINO-4-(P-NITROPHENYL)
Formula: C9 H7 N3 O2 S
CAS: 2104-09-8
State: SOLID (PELLET)
Melting point: 267-269 C
Class: COBLENTZ
Instrument: Not specified, most likely a prism, grating, or hybrid spectrometer.
Sampling: TRANSMISSION
Resolution: 4
Origin: TENNESSEE EASTMAN COMPANY, RESEARCH LABORATORIES
MICROMETERS	TRANSMITTANCE
2.031	0.657
2.07081	0.674
2.11063	0.699
2.15044	0.71
2.19026	0.719
2.23007	0.729
2.26989	0.749
2.3097	0.752
2.34951	0.762
2.38933	0.77
2.42914	0.79
2.46896	0.792
2.50877	0.799
2.54859	0.799
2.5884	0.8
2.62822	0.799
2.66803	0.8
2.70784	0.8
2.74766	0.785
2.78747	0.724
2.82729	0.667
2.8671	0.621
2.90692	0.571
2.94673	0.36
2.98654	0.569
3.02636	0.601
3.06617	0.646
3.10599	0.707
3.1458	0.669
3.18562	0.591
3.22543	0.651
3.26524	0.762
3.30506	0.805
3.34487	0.83
3.38469	0.83
3.4245	0.832
3.46432	0.87
3.50413	0.873
3.54395	0.878
3.58376	0.888
3.62357	0.888
3.66339	0.91
3.7032	0.918
3.74302	0.92
3.78283	0.918
3.82265	0.92
3.86246	0.923
3.90227	0.935
3.94209	0.941
3.9819	0.943
4.02172	0.946
4.06153	0.946
4.10135	0.946
4.14116	0.948
4.18097	0.945
4.22079	0.96
4.2606	0.96
4.30042	0.941
4.34023	0.94
4.38005	0.953
4.41986	0.968
4.45968	0.97
4.49949	0.97
4.5393	0.97
4.57912	0.97
4.61893	0.975
4.65875	0.976
4.69856	0.978
4.73838	0.98
4.77819	0.98
4.818	0.981
4.85782	0.983
4.89763	0.983
4.93745	0.983
4.97726	0.983
5.01708	0.993
5.05689	0.993
5.0967	0.993
5.13652	0.993
5.17633	0.995
5.21615	0.993
5.25596	0.993
5.29578	1
5.33559	1.001
5.37541	1.001
5.41522	1.001
5.45503	1.001
5.49485	0.998
5.53466	0.995
5.57448	0.993
5.61429	0.991
5.65411	0.99
5.69392	0.988
5.73373	0.98
5.77355	0.973
5.81336	0.97
5.85318	0.955
5.89299	0.95
5.93281	0.938
5.97262	0.923
6.01243	0.901
6.05225	0.852
6.09206	0.408
6.13188	0.661
6.17169	0.79
6.21151	0.808
6.25132	0.549
6.29114	0.739
6.33095	0.842
6.37076	0.873
6.41058	0.845
6.45039	0.651
6.49021	0.471
6.53002	0.749
6.56984	0.681
6.60965	0.423
6.64946	0.573
6.68928	0.83
6.72909	0.913
6.76891	0.923
6.80872	0.936
6.84854	0.943
6.88835	0.946
6.92816	0.953
6.96798	0.953
7.00779	0.955
7.04761	0.89
7.08742	0.867
7.12724	0.93
7.16705	0.938
7.20687	0.94
7.24668	0.931
7.28649	0.905
7.32631	0.875
7.36612	0.787
7.40594	0.574
7.44575	0.342
7.48557	0.212
7.52538	0.2
7.56519	0.207
7.60501	0.481
7.64482	0.689
7.68464	0.742
7.72445	0.8
7.76427	0.8
7.80408	0.86
7.84389	0.88
7.88371	0.893
7.92352	0.9
7.96334	0.92
8.00315	0.926
8.04297	0.93
8.08278	0.933
8.1226	0.935
8.16241	0.941
8.20222	0.941
8.24204	0.897
8.28185	0.774
8.32167	0.867
8.36148	0.923
8.4013	0.943
8.44111	0.945
8.48092	0.945
8.52074	0.95
8.56055	0.951
8.60037	0.951
8.64018	0.955
8.68	0.953
8.71981	0.953
8.75962	0.946
8.79944	0.92
8.83925	0.892
8.87907	0.88
8.91888	0.873
8.9587	0.705
8.99851	0.586
9.03833	0.795
9.07814	0.875
9.11795	0.908
9.15777	0.925
9.19758	0.928
9.2374	0.945
9.27721	0.946
9.31703	0.946
9.35684	0.945
9.39665	0.945
9.43647	0.945
9.47628	0.921
9.5161	0.888
9.55591	0.782
9.59573	0.704
9.63554	0.799
9.67535	0.88
9.71517	0.915
9.75498	0.936
9.7948	0.938
9.83461	0.941
9.87443	0.945
9.91424	0.948
9.95406	0.953
9.99387	0.955
10.0337	0.953
10.0735	0.961
10.1133	0.961
10.1531	0.961
10.1929	0.961
10.2328	0.961
10.2726	0.96
10.3124	0.96
10.3522	0.96
10.392	0.958
10.4318	0.963
10.4716	0.965
10.5115	0.965
10.5513	0.965
10.5911	0.97
10.6309	0.97
10.6707	0.97
10.7105	0.973
10.7503	0.973
10.7902	0.973
10.83	0.975
10.8698	0.976
10.9096	0.975
10.9494	0.976
10.9892	0.978
11.029	0.98
11.0689	0.981
11.1087	0.985
11.1485	0.981
11.1883	0.983
11.2281	0.986
11.2679	0.983
11.3077	0.985
11.3476	0.985
11.3874	0.99
11.4272	0.986
11.467	0.986
11.5068	0.986
11.5466	0.965
11.5864	0.933
11.6263	0.895
11.6661	0.789
11.7059	0.682
11.7457	0.757
11.7855	0.737
11.8253	0.609
11.8651	0.644
11.905	0.8
11.9448	0.887
11.9846	0.935
12.0244	0.951
12.0642	0.963
12.104	0.973
12.1438	0.985
12.1837	0.988
12.2235	0.988
12.2633	0.993
12.3031	1.001
12.3429	1.001
12.3827	1
12.4225	1
12.4624	1.003
12.5022	1.001
12.542	1.001
12.5818	1.003
12.6216	1.003
12.6614	1.003
12.7012	1.001
12.7411	1.003
12.7809	1.001
12.8207	1.001
12.8605	1.001
12.9003	1.001
12.9401	1.003
12.9799	1.003
13.0198	1.001
13.0596	0.985
13.0994	0.98
13.1392	0.986
13.179	0.995
13.2188	0.996
13.2586	0.996
13.2985	0.995
13.3383	0.996
13.3781	0.996
13.4179	0.996
13.4577	0.995
13.4975	0.995
13.5373	0.995
13.5772	0.993
13.617	0.98
13.6568	0.961
13.6966	0.935
13.7364	0.872
13.7762	0.784
13.816	0.704
13.8559	0.682
13.8957	0.691
13.9355	0.739
13.9753	0.789
14.0151	0.82
14.0549	0.858
14.0947	0.885
14.1346	0.906
14.1744	0.931
14.2142	0.943
14.254	0.951
14.2938	0.963
14.3336	0.971
14.3734	0.988
14.4133	0.993
14.4531	0.995
14.4929	1
14.5327	1.003
14.5725	1.003
14.6123	1.004
14.6521	1.006
14.692	1.006
14.7318	1.006
14.7716	1.008
14.8114	1.008
14.8512	1.008
14.891	1.006
14.9308	1.004
14.9707	1.001
15.0105	1
15.0503	0.998
15.0901	0.996
15.1299	0.991
15.1697	0.991
15.2095	0.995
15.2494	0.998
15.2892	0.998
15.329	1
15.3688	1
15.4086	1
15.4484	1
15.4882	1.001
15.5281	1.001
15.5679	1
15.6077	1
15.6475	0.998
15.6873	0.996
15.7271	0.995
15.7669	0.993
15.8068	0.993
15.8466	0.991
15.8864	0.981
15.9262	0.978
15.966	0.97
