Infrared Spectrum: Methyl 2-isothiocyanato-4-(methylthio)butyrate
Formula: C 7 H 11 N O 2 S 2
CAS: 21055-47-0
State: gas
Origin: EPA-IR VAPOR PHASE LIBRARY
1/CM	ABSORBANCE
549.8	0.009605
559.445	0.008195
569.09	0.006665
578.734	0.005095
588.379	0.004825
598.024	0.004085
607.669	0.004115
617.313	0.004105
626.958	0.004025
636.603	0.004135
646.248	0.004515
655.893	0.004745
665.537	0.004985
675.182	0.005435
684.827	0.006125
694.472	0.006925
704.116	0.007665
713.761	0.008505
723.406	0.009245
733.051	0.008525
742.695	0.007205
752.34	0.007415
761.985	0.008305
771.63	0.007895
781.275	0.007025
790.919	0.006155
800.564	0.006605
810.209	0.007375
819.854	0.006965
829.498	0.005585
839.143	0.004675
848.788	0.004045
858.433	0.004075
868.078	0.003615
877.722	0.003395
887.367	0.003265
897.012	0.003565
906.657	0.004515
916.301	0.005275
925.946	0.006885
935.591	0.007635
945.236	0.007965
954.88	0.008995
964.525	0.009635
974.17	0.010895
983.815	0.014015
993.46	0.017805
1003.1	0.019845
1012.75	0.021745
1022.39	0.020575
1032.04	0.016525
1041.68	0.014265
1051.33	0.012255
1060.97	0.011705
1070.62	0.009825
1080.26	0.007315
1089.91	0.006065
1099.55	0.006735
1109.2	0.007755
1118.84	0.010005
1128.49	0.013205
1138.13	0.018495
1147.78	0.029505
1157.42	0.048465
1167.07	0.064655
1176.71	0.064915
1186.36	0.058755
1196	0.061515
1205.64	0.062745
1215.29	0.056085
1224.93	0.052965
1234.58	0.049175
1244.22	0.047435
1253.87	0.051425
1263.51	0.057075
1273.16	0.057035
1282.8	0.048055
1292.45	0.041705
1302.09	0.035955
1311.74	0.028635
1321.38	0.028575
1331.03	0.030805
1340.67	0.027165
1350.32	0.021105
1359.96	0.015015
1369.61	0.009485
1379.25	0.006855
1388.9	0.005685
1398.54	0.005305
1408.18	0.006075
1417.83	0.008145
1427.47	0.014405
1437.12	0.030345
1446.76	0.027805
1456.41	0.012925
1466.05	0.008135
1475.7	0.006055
1485.34	0.004895
1494.99	0.003905
1504.63	0.003365
1514.28	0.003065
1523.92	0.002905
1533.57	0.002805
1543.21	0.002725
1552.86	0.002735
1562.5	0.002775
1572.15	0.002725
1581.79	0.002565
1591.44	0.002355
1601.08	0.002255
1610.73	0.002085
1620.37	0.002005
1630.01	0.001875
1639.66	0.001875
1649.3	0.001995
1658.95	0.001975
1668.59	0.002195
1678.24	0.002355
1687.88	0.002725
1697.53	0.003555
1707.17	0.005025
1716.82	0.007705
1726.46	0.012385
1736.11	0.022195
1745.75	0.040805
1755.4	0.080115
1765.04	0.091365
1774.69	0.071165
1784.33	0.047075
1793.98	0.022405
1803.62	0.012745
1813.27	0.007765
1822.91	0.004945
1832.55	0.003735
1842.2	0.003215
1851.84	0.003145
1861.49	0.003365
1871.13	0.003875
1880.78	0.004485
1890.42	0.005485
1900.07	0.006925
1909.71	0.008765
1919.36	0.011385
1929	0.014805
1938.65	0.019595
1948.29	0.025845
1957.94	0.034375
1967.58	0.046105
1977.23	0.062205
1986.87	0.084045
1996.52	0.113515
2006.16	0.152485
2015.81	0.200305
2025.45	0.248745
2035.1	0.275625
2044.74	0.262435
2054.38	0.223745
2064.03	0.180175
2073.67	0.141055
2083.32	0.113745
2092.96	0.098545
2102.61	0.088675
2112.25	0.079565
2121.9	0.069195
2131.54	0.057875
2141.19	0.046215
2150.83	0.036315
2160.48	0.028565
2170.12	0.023025
2179.77	0.019255
2189.41	0.016575
2199.06	0.014685
2208.7	0.012975
2218.35	0.012155
2227.99	0.011135
2237.64	0.010015
2247.28	0.008675
2256.92	0.007225
2266.57	0.006245
2276.21	0.005345
2285.86	0.004675
2295.5	0.004185
2305.15	0.003455
2314.79	0.002985
2324.44	0.002515
2334.08	0.002325
2343.73	0.002025
2353.37	0.001955
2363.02	0.001745
2372.66	0.001705
2382.31	0.001695
2391.95	0.001515
2401.6	0.001385
2411.24	0.001335
2420.89	0.0012698
2430.53	0.0012993
2440.18	0.001233
2449.82	0.0012581
2459.47	0.0012238
2469.11	0.001335
2478.75	0.001365
2488.4	0.001395
2498.04	0.001385
2507.69	0.001495
2517.33	0.001525
2526.98	0.001765
2536.62	0.001825
2546.27	0.002175
2555.91	0.002465
2565.56	0.002775
2575.2	0.002825
2584.85	0.002925
2594.49	0.002705
2604.14	0.002355
2613.78	0.002065
2623.43	0.001795
2633.07	0.001815
2642.72	0.001685
2652.36	0.001605
2662.01	0.001625
2671.65	0.001615
2681.29	0.001585
2690.94	0.001815
2700.58	0.002035
2710.23	0.002075
2719.87	0.002265
2729.52	0.002525
2739.16	0.002485
2748.81	0.002605
2758.45	0.002675
2768.1	0.002695
2777.74	0.002485
2787.39	0.002515
2797.03	0.002535
2806.68	0.002425
2816.32	0.002935
2825.97	0.003875
2835.61	0.005335
2845.26	0.008655
2854.9	0.010595
2864.55	0.007995
2874.19	0.006575
2883.84	0.006495
2893.48	0.007945
2903.12	0.010715
2912.77	0.015585
2922.41	0.027345
2932.06	0.031895
2941.7	0.023665
2951.35	0.025025
2960.99	0.038235
2970.64	0.032535
2980.28	0.017615
2989.93	0.012915
2999.57	0.011235
3009.22	0.009015
3018.86	0.007115
3028.51	0.005995
3038.15	0.005275
3047.8	0.004205
3057.44	0.003205
3067.09	0.002705
3076.73	0.002495
3086.38	0.002395
3096.02	0.002255
3105.67	0.001925
3115.31	0.001925
3124.95	0.001695
3134.6	0.001545
3144.24	0.0012424
3153.89	0.0008881
3163.53	0.0008501
3173.18	0.000621
3182.82	0.0005612
3192.47	0.0004775
3202.11	0.0004436
3211.76	0.00032708
3221.4	0.0002657
3231.05	0.00038874
3240.69	0.00034479
3250.34	0.0003068
3259.98	0.00034708
3269.63	0.00034918
3279.27	0.0002598
3288.92	0.0002957
3298.56	0.00030693
3308.21	0.0004181
3317.85	0.0002329
3327.49	0.0002604
3337.14	0.0002309
3346.78	0.000103
3356.43	0.0002509
3366.07	0.00038224
3375.72	0.000178
3385.36	0.0002671
3395.01	0.000314961
3404.65	0.0002441
3414.3	0.0002235
3423.94	0.0002714
3433.59	0.000316162
3443.23	0.0002907
3452.88	0.00033643
3462.52	0.0002909
3472.17	0.0005732
3481.81	0.0005886
3491.46	0.0011552
3501.1	0.001425
3510.75	0.0007623
3520.39	0.0008351
3530.04	0.0009244
3539.68	0.0008141
3549.32	0.0005448
3558.97	0.0008743
3568.61	0.0004901
3578.26	0.00036893
3587.9	0.00035385
3597.55	0.0002575
3607.19	0.0004196
3616.84	0.0005183
3626.48	0.0002502
3636.13	0.0002356
3645.77	6e-05
3655.42	0.0003715
3665.06	0.000174
3674.71	0.00035977
3684.35	0.0004361
3694	0.0004388
3703.64	0.0002321
3713.29	0.000119
3722.93	0.0005635
3732.58	0.0005929
3742.22	0.0004672
3751.86	0.00030749
3761.51	0.0002515
3771.15	0.0004273
3780.8	0.000535
3790.44	0.000152
3800.09	0.00034531
3809.73	0.0004601
3819.38	0.0005218
3829.02	0.0002503
3838.67	0.00037904
3848.31	0.0005617
3857.96	0.0004581
3867.6	0.0004605
3877.25	0.0005773
3886.89	0.0007492
3896.54	0.0007888
3906.18	0.0006954
3915.83	0.0008715
3925.47	0.0007548
3935.12	0.0011143
3944.76	0.001315
3954.41	0.0010519
3964.05	0.0012754
3973.69	0.0012847
3983.34	0.0012989
3992.98	0.001385
