Infrared Spectrum: Methyl 2-isothiocyanato-4-methylvalerate
Formula: C 8 H 13 N O 2 S
CAS: 21055-43-6
State: gas
Origin: EPA-IR VAPOR PHASE LIBRARY
1/CM	ABSORBANCE
549.8	0.010336
559.445	0.008846
569.09	0.007356
578.734	0.005736
588.379	0.005126
598.024	0.004206
607.669	0.004036
617.313	0.003866
626.958	0.004396
636.603	0.004846
646.248	0.005066
655.893	0.005386
665.537	0.006166
675.182	0.006296
684.827	0.007666
694.472	0.009346
704.116	0.011276
713.761	0.012146
723.406	0.010596
733.051	0.008236
742.695	0.006526
752.34	0.005316
761.985	0.004336
771.63	0.004066
781.275	0.004296
790.919	0.003986
800.564	0.003616
810.209	0.003816
819.854	0.004936
829.498	0.005426
839.143	0.004936
848.788	0.004816
858.433	0.004766
868.078	0.005586
877.722	0.007416
887.367	0.007856
897.012	0.006896
906.657	0.005446
916.301	0.005116
925.946	0.004936
935.591	0.004426
945.236	0.004006
954.88	0.004516
964.525	0.006166
974.17	0.011126
983.815	0.018226
993.46	0.018326
1003.1	0.013486
1012.75	0.014836
1022.39	0.020986
1032.04	0.021416
1041.68	0.013906
1051.33	0.008416
1060.97	0.006446
1070.62	0.005516
1080.26	0.006246
1089.91	0.007516
1099.55	0.010636
1109.2	0.014266
1118.84	0.017336
1128.49	0.021436
1138.13	0.031556
1147.78	0.044596
1157.42	0.051366
1167.07	0.056976
1176.71	0.067126
1186.36	0.067926
1196	0.063036
1205.64	0.053436
1215.29	0.046076
1224.93	0.047546
1234.58	0.053856
1244.22	0.054416
1253.87	0.054476
1263.51	0.056036
1273.16	0.055736
1282.8	0.046906
1292.45	0.033996
1302.09	0.027486
1311.74	0.031986
1321.38	0.036116
1331.03	0.029406
1340.67	0.023686
1350.32	0.020446
1359.96	0.016946
1369.61	0.015656
1379.25	0.013566
1388.9	0.011886
1398.54	0.009876
1408.18	0.006416
1417.83	0.006426
1427.47	0.009776
1437.12	0.022086
1446.76	0.021706
1456.41	0.014686
1466.05	0.015806
1475.7	0.014246
1485.34	0.008236
1494.99	0.005246
1504.63	0.004076
1514.28	0.003346
1523.92	0.002936
1533.57	0.002776
1543.21	0.002696
1552.86	0.002616
1562.5	0.002556
1572.15	0.002436
1581.79	0.002396
1591.44	0.002356
1601.08	0.002226
1610.73	0.002106
1620.37	0.002116
1630.01	0.002046
1639.66	0.002046
1649.3	0.002116
1658.95	0.002146
1668.59	0.002426
1678.24	0.002596
1687.88	0.003056
1697.53	0.003736
1707.17	0.005216
1716.82	0.007846
1726.46	0.012746
1736.11	0.021746
1745.75	0.040406
1755.4	0.085806
1765.04	0.099536
1774.69	0.073996
1784.33	0.048526
1793.98	0.023026
1803.62	0.012836
1813.27	0.007886
1822.91	0.005126
1832.55	0.003816
1842.2	0.003306
1851.84	0.003226
1861.49	0.003556
1871.13	0.003926
1880.78	0.004396
1890.42	0.005086
1900.07	0.006286
1909.71	0.007966
1919.36	0.010396
1929	0.013766
1938.65	0.018376
1948.29	0.024756
1957.94	0.033506
1967.58	0.045166
1977.23	0.060526
1986.87	0.080436
1996.52	0.106626
2006.16	0.141046
2015.81	0.183556
2025.45	0.229626
2035.1	0.267986
2044.74	0.278746
2054.38	0.251666
2064.03	0.204956
2073.67	0.158466
2083.32	0.125066
2092.96	0.107896
2102.61	0.098596
2112.25	0.088426
2121.9	0.076806
2131.54	0.064746
2141.19	0.053066
2150.83	0.042766
2160.48	0.034866
2170.12	0.028876
2179.77	0.024266
2189.41	0.020556
2199.06	0.017586
2208.7	0.014956
2218.35	0.012746
2227.99	0.011326
2237.64	0.010296
2247.28	0.009346
2256.92	0.007956
2266.57	0.006626
2276.21	0.005476
2285.86	0.004706
2295.5	0.004156
2305.15	0.003716
2314.79	0.003126
2324.44	0.002756
2334.08	0.002546
2343.73	0.002116
2353.37	0.002046
2363.02	0.001856
2372.66	0.001826
2382.31	0.001776
2391.95	0.001586
2401.6	0.001426
2411.24	0.001466
2420.89	0.001476
2430.53	0.001516
2440.18	0.001406
2449.82	0.001356
2459.47	0.001426
2469.11	0.001536
2478.75	0.001506
2488.4	0.001696
2498.04	0.001616
2507.69	0.001706
2517.33	0.001816
2526.98	0.001846
2536.62	0.002146
2546.27	0.002296
2555.91	0.002536
2565.56	0.002746
2575.2	0.003006
2584.85	0.003046
2594.49	0.003076
2604.14	0.002746
2613.78	0.002566
2623.43	0.002106
2633.07	0.001946
2642.72	0.001906
2652.36	0.001896
2662.01	0.001866
2671.65	0.002076
2681.29	0.001986
2690.94	0.002246
2700.58	0.002366
2710.23	0.002666
2719.87	0.002936
2729.52	0.003486
2739.16	0.003756
2748.81	0.003986
2758.45	0.003706
2768.1	0.003546
2777.74	0.003476
2787.39	0.003146
2797.03	0.003326
2806.68	0.003176
2816.32	0.003546
2825.97	0.004146
2835.61	0.005056
2845.26	0.007526
2854.9	0.010416
2864.55	0.011256
2874.19	0.017446
2883.84	0.023906
2893.48	0.021266
2903.12	0.021546
2912.77	0.025476
2922.41	0.030426
2932.06	0.037356
2941.7	0.043496
2951.35	0.052666
2960.99	0.087056
2970.64	0.098646
2980.28	0.044386
2989.93	0.018696
2999.57	0.013146
3009.22	0.010636
3018.86	0.008176
3028.51	0.006936
3038.15	0.005866
3047.8	0.004806
3057.44	0.003756
3067.09	0.003336
3076.73	0.002946
3086.38	0.002766
3096.02	0.002486
3105.67	0.002326
3115.31	0.002086
3124.95	0.001896
3134.6	0.001676
3144.24	0.001646
3153.89	0.001376
3163.53	0.0012449
3173.18	0.0013037
3182.82	0.0012745
3192.47	0.0011244
3202.11	0.0010638
3211.76	0.0006981
3221.4	0.0006895
3231.05	0.00039969
3240.69	0.0005104
3250.34	0.0003405
3259.98	0.000245
3269.63	0.00022
3279.27	0.0003413
3288.92	0.000359573
3298.56	0.0003423
3308.21	0.000141
3317.85	0.0003406
3327.49	0.000236
3337.14	0.000361234
3346.78	0.0003013
3356.43	0.00040334
3366.07	0.000458
3375.72	0.00037571
3385.36	0.00035196
3395.01	0.000254
3404.65	0.000203
3414.3	0.000185
3423.94	0.000102
3433.59	0.0003084
3443.23	0.0003077
3452.88	0.000162
3462.52	0.0002888
3472.17	0.0005575
3481.81	0.000583
3491.46	0.0008907
3501.1	0.001366
3510.75	0.0011007
3520.39	0.0010598
3530.04	0.0010018
3539.68	0.0006589
3549.32	0.0007878
3558.97	0.00043474
3568.61	0.000196
3578.26	0.000108
3587.9	0.000157
3597.55	9.5e-05
3607.19	8.9e-05
3616.84	0.000253
3626.48	7e-06
3636.13	0.000209
3645.77	0.000239
3655.42	0.000144
3665.06	5.9e-05
3674.71	0
3684.35	0.000212
3694	0.000219
3703.64	0.0004972
3713.29	0.0004787
3722.93	0.000252
3732.58	0.00018
3742.22	0.000221
3751.86	0.000246
3761.51	0.000245
3771.15	0.00035571
3780.8	0.0004468
3790.44	0.000229
3800.09	0.00037169
3809.73	0.00034924
3819.38	0.00039765
3829.02	0.000476
3838.67	0.0003856
3848.31	0.00038818
3857.96	0.0004777
3867.6	0.0003775
3877.25	0.0005438
3886.89	0.0005685
3896.54	0.00036241
3906.18	0.000651
3915.83	0.0006759
3925.47	0.0006717
3935.12	0.0008889
3944.76	0.000939
3954.41	0.0009677
3964.05	0.0012947
3973.69	0.0010763
3983.34	0.0011829
3992.98	0.001456
