Infrared Spectrum: Methyl 2-isothiocyanatoacetate
Formula: C 4 H 5 N O 2 S
CAS: 21055-37-8
State: gas
Origin: EPA-IR VAPOR PHASE LIBRARY
1/CM	ABSORBANCE
549.8	0.00983
559.445	0.0101
569.09	0.0095
578.734	0.00792
588.379	0.00696
598.024	0.00565
607.669	0.00539
617.313	0.00491
626.958	0.00468
636.603	0.00476
646.248	0.00525
655.893	0.00587
665.537	0.00683
675.182	0.0078
684.827	0.00974
694.472	0.01114
704.116	0.01156
713.761	0.01157
723.406	0.01205
733.051	0.0119
742.695	0.01075
752.34	0.00935
761.985	0.007
771.63	0.00518
781.275	0.00411
790.919	0.00281
800.564	0.00239
810.209	0.00262
819.854	0.00267
829.498	0.00321
839.143	0.0043
848.788	0.00482
858.433	0.00372
868.078	0.0029
877.722	0.0026
887.367	0.00229
897.012	0.00209
906.657	0.00216
916.301	0.00207
925.946	0.00217
935.591	0.00198
945.236	0.00238
954.88	0.0028
964.525	0.00448
974.17	0.00673
983.815	0.01148
993.46	0.01559
1003.1	0.01887
1012.75	0.02354
1022.39	0.0245
1032.04	0.01802
1041.68	0.01103
1051.33	0.0076
1060.97	0.00628
1070.62	0.00525
1080.26	0.00391
1089.91	0.00433
1099.55	0.00449
1109.2	0.00581
1118.84	0.00762
1128.49	0.0098
1138.13	0.01309
1147.78	0.01769
1157.42	0.0267
1167.07	0.0481
1176.71	0.08281
1186.36	0.10051
1196	0.09553
1205.64	0.08843
1215.29	0.07174
1224.93	0.05636
1234.58	0.04936
1244.22	0.04803
1253.87	0.04749
1263.51	0.0476
1273.16	0.05008
1282.8	0.04765
1292.45	0.03642
1302.09	0.02451
1311.74	0.02055
1321.38	0.02378
1331.03	0.02537
1340.67	0.0209
1350.32	0.01509
1359.96	0.01265
1369.61	0.009
1379.25	0.00659
1388.9	0.00567
1398.54	0.00532
1408.18	0.00588
1417.83	0.00855
1427.47	0.01737
1437.12	0.02547
1446.76	0.02067
1456.41	0.01
1466.05	0.00654
1475.7	0.00492
1485.34	0.00377
1494.99	0.00318
1504.63	0.00278
1514.28	0.00265
1523.92	0.00255
1533.57	0.00261
1543.21	0.00273
1552.86	0.00282
1562.5	0.00286
1572.15	0.00283
1581.79	0.00264
1591.44	0.0022
1601.08	0.00185
1610.73	0.00181
1620.37	0.00161
1630.01	0.00164
1639.66	0.0014906
1649.3	0.00153
1658.95	0.00164
1668.59	0.00185
1678.24	0.00204
1687.88	0.00244
1697.53	0.00291
1707.17	0.00389
1716.82	0.00606
1726.46	0.0103
1736.11	0.01794
1745.75	0.02989
1755.4	0.05908
1765.04	0.09797
1774.69	0.09731
1784.33	0.05824
1793.98	0.04668
1803.62	0.02722
1813.27	0.01496
1822.91	0.00942
1832.55	0.00538
1842.2	0.00384
1851.84	0.00349
1861.49	0.00359
1871.13	0.00389
1880.78	0.00415
1890.42	0.0047
1900.07	0.0056
1909.71	0.00668
1919.36	0.00826
1929	0.01053
1938.65	0.01356
1948.29	0.01782
1957.94	0.02336
1967.58	0.03058
1977.23	0.0407
1986.87	0.05499
1996.52	0.07572
2006.16	0.10476
2015.81	0.14419
2025.45	0.19649
2035.1	0.26159
2044.74	0.31848
2054.38	0.30953
2064.03	0.25219
2073.67	0.18191
2083.32	0.12892
2092.96	0.09481
2102.61	0.0737
2112.25	0.05674
2121.9	0.04282
2131.54	0.03406
2141.19	0.02887
2150.83	0.02537
2160.48	0.02319
2170.12	0.02287
2179.77	0.02381
2189.41	0.02302
2199.06	0.01878
2208.7	0.01398
2218.35	0.01156
2227.99	0.01098
2237.64	0.01107
2247.28	0.01113
2256.92	0.011
2266.57	0.01038
2276.21	0.00977
2285.86	0.00884
2295.5	0.00735
2305.15	0.00575
2314.79	0.00451
2324.44	0.0037
2334.08	0.003
2343.73	0.00265
2353.37	0.00238
2363.02	0.0024
2372.66	0.00211
2382.31	0.00181
2391.95	0.00163
2401.6	0.00162
2411.24	0.0014947
2420.89	0.0014185
2430.53	0.0013837
2440.18	0.0013085
2449.82	0.0013734
2459.47	0.0013169
2469.11	0.0012941
2478.75	0.0013922
2488.4	0.0014156
2498.04	0.0014908
2507.69	0.00152
2517.33	0.00151
2526.98	0.00164
2536.62	0.00174
2546.27	0.00177
2555.91	0.00204
2565.56	0.00235
2575.2	0.00237
2584.85	0.00243
2594.49	0.00209
2604.14	0.00193
2613.78	0.00171
2623.43	0.0014342
2633.07	0.0011878
2642.72	0.0010905
2652.36	0.0011068
2662.01	0.0011338
2671.65	0.0010408
2681.29	0.0012024
2690.94	0.0011022
2700.58	0.001432
2710.23	0.00172
2719.87	0.00206
2729.52	0.00248
2739.16	0.00327
2748.81	0.00376
2758.45	0.00395
2768.1	0.00392
2777.74	0.00356
2787.39	0.00317
2797.03	0.00282
2806.68	0.00255
2816.32	0.00223
2825.97	0.00269
2835.61	0.00317
2845.26	0.00462
2854.9	0.0057
2864.55	0.00479
2874.19	0.00342
2883.84	0.00292
2893.48	0.00335
2903.12	0.00412
2912.77	0.00531
2922.41	0.00703
2932.06	0.01046
2941.7	0.01505
2951.35	0.01812
2960.99	0.02356
2970.64	0.02037
2980.28	0.00965
2989.93	0.00611
2999.57	0.00561
3009.22	0.00571
3018.86	0.0053
3028.51	0.00511
3038.15	0.00467
3047.8	0.00387
3057.44	0.00285
3067.09	0.00224
3076.73	0.00199
3086.38	0.00173
3096.02	0.00155
3105.67	0.00156
3115.31	0.0013318
3124.95	0.0010721
3134.6	0.0007359
3144.24	0.00076
3153.89	0.0007779
3163.53	0.000707
3173.18	0.0006536
3182.82	0.0004819
3192.47	0.000301
3202.11	0.00050855
3211.76	0.000311
3221.4	0.000263
3231.05	0.000155
3240.69	0.000208
3250.34	0.000207
3259.98	0.000225
3269.63	0.000235
3279.27	0.000223
3288.92	0.000155
3298.56	8.1e-05
3308.21	6.8e-05
3317.85	0.000138
3327.49	0.000397
3337.14	0.000159
3346.78	0.000118
3356.43	7.1e-05
3366.07	0.000275
3375.72	0.000196
3385.36	0.000163
3395.01	0.000115
3404.65	0
3414.3	0.000296
3423.94	0.00053193
3433.59	0.000249
3443.23	0.000288
3452.88	0.0004907
3462.52	0.000398
3472.17	0.000553
3481.81	0.0007366
3491.46	0.0007214
3501.1	0.0011278
3510.75	0.0014054
3520.39	0.00171
3530.04	0.0012397
3539.68	0.0010784
3549.32	0.0010933
3558.97	0.0007857
3568.61	0.000692
3578.26	0.0004258
3587.9	0.000628
3597.55	0.000321
3607.19	0.000183
3616.84	0.0004208
3626.48	0.000395
3636.13	0.000252
3645.77	0.00024
3655.42	0.0004409
3665.06	0.000277
3674.71	0.0004586
3684.35	0.000324
3694	0.0005016
3703.64	0.000415
3713.29	0.000335
3722.93	0.000409
3732.58	0.000353
3742.22	0.00039
3751.86	3.8e-05
3761.51	0.0004713
3771.15	0.000297
3780.8	0.0004592
3790.44	0.000246
3800.09	0.000258
3809.73	0.000368
3819.38	0.00024
3829.02	0.000303
3838.67	0.0004468
3848.31	0.00058984
3857.96	0.000347
3867.6	0.000397
3877.25	0.00050431
3886.89	0.0004967
3896.54	0.000398
3906.18	0.000514987
3915.83	0.000642
3925.47	0.0006932
3935.12	0.000708
3944.76	0.0006252
3954.41	0.0010349
3964.05	0.0008756
3973.69	0.0008769
3983.34	0.0008999
3992.98	0.0013806
