Infrared Spectrum: 5-Hexadecanol
Formula: C 16 H 34 O
CAS: 21078-87-5
State: gas
Origin: EPA-IR VAPOR PHASE LIBRARY
1/CM	ABSORBANCE
549.8	0.0009965
559.445	0.00189
569.09	0.00104
578.734	0.00136
588.379	0.0013
598.024	0.0006656
607.669	0.00114
617.313	0.00148
626.958	0.00143
636.603	0.0005216
646.248	0.00101
655.893	0.00153
665.537	0.00143
675.182	0.00117
684.827	0.00191
694.472	0.00182
704.116	0.00354
713.761	0.00545
723.406	0.00612
733.051	0.00549
742.695	0.00504
752.34	0.00349
761.985	0.004
771.63	0.00368
781.275	0.00372
790.919	0.00282
800.564	0.00337
810.209	0.00292
819.854	0.00351
829.498	0.00269
839.143	0.00331
848.788	0.00345
858.433	0.00381
868.078	0.0044
877.722	0.00494
887.367	0.00561
897.012	0.00589
906.657	0.00571
916.301	0.00555
925.946	0.00557
935.591	0.00557
945.236	0.00558
954.88	0.00679
964.525	0.00798
974.17	0.00936
983.815	0.01175
993.46	0.01371
1003.1	0.01647
1012.75	0.01813
1022.39	0.0195
1032.04	0.01826
1041.68	0.01575
1051.33	0.01372
1060.97	0.01369
1070.62	0.01303
1080.26	0.01142
1089.91	0.01182
1099.55	0.01044
1109.2	0.01071
1118.84	0.01362
1128.49	0.01199
1138.13	0.01041
1147.78	0.00761
1157.42	0.00805
1167.07	0.00822
1176.71	0.00895
1186.36	0.00935
1196	0.00936
1205.64	0.00916
1215.29	0.01104
1224.93	0.01183
1234.58	0.01301
1244.22	0.01267
1253.87	0.01305
1263.51	0.01261
1273.16	0.01166
1282.8	0.011
1292.45	0.0111
1302.09	0.01127
1311.74	0.01083
1321.38	0.01012
1331.03	0.01097
1340.67	0.01407
1350.32	0.01678
1359.96	0.01776
1369.61	0.01858
1379.25	0.01983
1388.9	0.01799
1398.54	0.01303
1408.18	0.00972
1417.83	0.0085
1427.47	0.00937
1437.12	0.01408
1446.76	0.0214
1456.41	0.03022
1466.05	0.03023
1475.7	0.01799
1485.34	0.00912
1494.99	0.00563
1504.63	0.00387
1514.28	0.00316
1523.92	0.00235
1533.57	0.00223
1543.21	0.00189
1552.86	0.00163
1562.5	0.00153
1572.15	0.00132
1581.79	0.00129
1591.44	0.00124
1601.08	0.00108
1610.73	0.00119
1620.37	0.0007419
1630.01	0.00104
1639.66	0.0008879
1649.3	0.0008926
1658.95	0.0009862
1668.59	0.0008198
1678.24	0.0008396
1687.88	0.0007965
1697.53	0.0004496
1707.17	0.0006776
1716.82	0.0006931
1726.46	0.0005842
1736.11	0.000443
1745.75	0.0004514
1755.4	0.0006284
1765.04	0.0004781
1774.69	0.0006355
1784.33	0.0004146
1793.98	0.0005121
1803.62	0.0004416
1813.27	0.0004336
1822.91	0.0005868
1832.55	0.0005935
1842.2	0.0005834
1851.84	0.0003449
1861.49	0.0005745
1871.13	0.0005455
1880.78	0.0004048
1890.42	0.0004567
1900.07	0.0004291
1909.71	0.0003491
1919.36	0.0003899
1929	0.0004322
1938.65	0.0003499
1948.29	0.0004188
1957.94	0.000358
1967.58	0.0003374
1977.23	0.000486
1986.87	0.0003627
1996.52	0.0004139
2006.16	0.0005502
2015.81	0.0006401
2025.45	0.0008078
2035.1	0.000812
2044.74	0.000674
2054.38	0.0007803
2064.03	0.0008558
2073.67	0.0006914
2083.32	0.000706
2092.96	0.0007508
2102.61	0.0005075
2112.25	0.0006537
2121.9	0.0004939
2131.54	0.0006449
2141.19	0.000642
2150.83	0.0004865
2160.48	0.0009529
2170.12	0.0008129
2179.77	0.0006056
2189.41	0.0006114
2199.06	0.0008001
2208.7	0.0005214
2218.35	0.0006464
2227.99	0.0009413
2237.64	0.0006838
2247.28	0.00103
2256.92	0.0007828
2266.57	0.0005867
2276.21	0.0006373
2285.86	0.0007226
2295.5	0.0007211
2305.15	0.0009039
2314.79	0.00102
2324.44	0.0009313
2334.08	0.0009629
2343.73	0.00107
2353.37	0.000922
2363.02	0.00107
2372.66	0.0008115
2382.31	0.0011
2391.95	0.0007903
2401.6	0.00104
2411.24	0.00115
2420.89	0.00103
2430.53	0.00109
2440.18	0.0008332
2449.82	0.00105
2459.47	0.00111
2469.11	0.0008898
2478.75	0.00112
2488.4	0.00109
2498.04	0.00109
2507.69	0.0012
2517.33	0.00123
2526.98	0.00127
2536.62	0.00149
2546.27	0.0016
2555.91	0.00191
2565.56	0.00167
2575.2	0.00217
2584.85	0.00216
2594.49	0.00224
2604.14	0.00259
2613.78	0.00275
2623.43	0.00314
2633.07	0.00317
2642.72	0.00372
2652.36	0.00385
2662.01	0.00406
2671.65	0.00445
2681.29	0.00476
2690.94	0.00438
2700.58	0.00457
2710.23	0.00439
2719.87	0.00471
2729.52	0.00497
2739.16	0.00537
2748.81	0.00561
2758.45	0.00592
2768.1	0.00645
2777.74	0.00725
2787.39	0.00861
2797.03	0.01024
2806.68	0.01266
2816.32	0.01574
2825.97	0.02092
2835.61	0.03013
2845.26	0.05207
2854.9	0.10576
2864.55	0.15055
2874.19	0.1246
2883.84	0.10423
2893.48	0.0939
2903.12	0.1177
2912.77	0.17483
2922.41	0.27942
2932.06	0.40019
2941.7	0.32653
2951.35	0.19077
2960.99	0.15132
2970.64	0.13617
2980.28	0.06897
2989.93	0.03702
2999.57	0.02381
3009.22	0.01718
3018.86	0.01308
3028.51	0.01063
3038.15	0.00852
3047.8	0.00698
3057.44	0.00569
3067.09	0.00469
3076.73	0.00423
3086.38	0.00408
3096.02	0.00384
3105.67	0.00368
3115.31	0.00318
3124.95	0.00268
3134.6	0.00253
3144.24	0.00232
3153.89	0.00184
3163.53	0.00212
3173.18	0.00228
3182.82	0.002
3192.47	0.00174
3202.11	0.00162
3211.76	0.00127
3221.4	0.00131
3231.05	0.000898
3240.69	0.0008959
3250.34	0.0005941
3259.98	0.0005385
3269.63	0.0005976
3279.27	0.0006121
3288.92	0.0007408
3298.56	0.0005589
3308.21	0.0009211
3317.85	0.0001503
3327.49	0.0007527
3337.14	0.0002809
3346.78	0.0005536
3356.43	0.0005822
3366.07	0.0006788
3375.72	0.00114
3385.36	0.00113
3395.01	0.0009354
3404.65	0.0008178
3414.3	0.00134
3423.94	0.00104
3433.59	0.0012
3443.23	0.0009052
3452.88	0.0008866
3462.52	0.0009893
3472.17	0.0007762
3481.81	0.0004281
3491.46	0.0008171
3501.1	0.00114
3510.75	0.0006681
3520.39	0.0007948
3530.04	0.0008708
3539.68	0.0004155
3549.32	0.0003716
3558.97	0.00121
3568.61	0.0006733
3578.26	0.0007278
3587.9	0.00118
3597.55	0.0009247
3607.19	0.00111
3616.84	0.00186
3626.48	0.00296
3636.13	0.00436
3645.77	0.00668
3655.42	0.0096
3665.06	0.00552
3674.71	0.00264
3684.35	0.00197
3694	0.00114
3703.64	0.00102
3713.29	0.0005059
3722.93	0.00101
3732.58	0.00106
3742.22	0.00119
3751.86	0.0007244
3761.51	0.00121
3771.15	0.000924
3780.8	0.0009011
3790.44	0.00107
3800.09	0.0009399
3809.73	0.00101
3819.38	0.00107
3829.02	0.0008886
3838.67	0.00157
3848.31	0.00125
3857.96	0.0012
3867.6	0.00108
3877.25	0.0011
3886.89	0.0013
3896.54	0.000658
3906.18	0.0009421
3915.83	0.0007673
3925.47	0.00123
3935.12	0.0007694
3944.76	0.0009444
3954.41	0.0013
3964.05	0.0007837
3973.69	0.0009436
3983.34	0.00104
3992.98	0.00128
