Infrared Spectrum: 3-(3,4-Dimethoxyphenyl)propionic acid
Formula: C 11 H 14 O 4
CAS: 2107-70-2
State: gas
Origin: EPA-IR VAPOR PHASE LIBRARY
1/CM	ABSORBANCE
549.8	0.012171
559.445	0.011541
569.09	0.010661
578.734	0.011071
588.379	0.012041
598.024	0.012691
607.669	0.011851
617.313	0.010781
626.958	0.010521
636.603	0.010141
646.248	0.008951
655.893	0.006281
665.537	0.004661
675.182	0.004001
684.827	0.003411
694.472	0.003241
704.116	0.003341
713.761	0.003551
723.406	0.003071
733.051	0.003201
742.695	0.004371
752.34	0.005731
761.985	0.006621
771.63	0.004691
781.275	0.003381
790.919	0.004331
800.564	0.006091
810.209	0.007701
819.854	0.007621
829.498	0.005301
839.143	0.003961
848.788	0.003891
858.433	0.003381
868.078	0.003691
877.722	0.003761
887.367	0.004001
897.012	0.004201
906.657	0.003071
916.301	0.003011
925.946	0.003461
935.591	0.003761
945.236	0.004051
954.88	0.004161
964.525	0.004481
974.17	0.004871
983.815	0.005401
993.46	0.007741
1003.1	0.011161
1012.75	0.018111
1022.39	0.028611
1032.04	0.034351
1041.68	0.028731
1051.33	0.016491
1060.97	0.009931
1070.62	0.009021
1080.26	0.011021
1089.91	0.015661
1099.55	0.025991
1109.2	0.046961
1118.84	0.062691
1128.49	0.052051
1138.13	0.039281
1147.78	0.033311
1157.42	0.029311
1167.07	0.021981
1176.71	0.018541
1186.36	0.019241
1196	0.018581
1205.64	0.018571
1215.29	0.022591
1224.93	0.030291
1234.58	0.034851
1244.22	0.035171
1253.87	0.039251
1263.51	0.053951
1273.16	0.063621
1282.8	0.052591
1292.45	0.032711
1302.09	0.020671
1311.74	0.014501
1321.38	0.011291
1331.03	0.010481
1340.67	0.010441
1350.32	0.009861
1359.96	0.010521
1369.61	0.011921
1379.25	0.012491
1388.9	0.010591
1398.54	0.009781
1408.18	0.013641
1417.83	0.016511
1427.47	0.013241
1437.12	0.013561
1446.76	0.015401
1456.41	0.016391
1466.05	0.016641
1475.7	0.014081
1485.34	0.013411
1494.99	0.024131
1504.63	0.053641
1514.28	0.059521
1523.92	0.025041
1533.57	0.009761
1543.21	0.005891
1552.86	0.004811
1562.5	0.005201
1572.15	0.007241
1581.79	0.009081
1591.44	0.008181
1601.08	0.007191
1610.73	0.006431
1620.37	0.004161
1630.01	0.002511
1639.66	0.001981
1649.3	0.001711
1658.95	0.001741
1668.59	0.001791
1678.24	0.001921
1687.88	0.002321
1697.53	0.002931
1707.17	0.003981
1716.82	0.005921
1726.46	0.008911
1736.11	0.012711
1745.75	0.017641
1755.4	0.025251
1765.04	0.039481
1774.69	0.057581
1784.33	0.051591
1793.98	0.029991
1803.62	0.018001
1813.27	0.010801
1822.91	0.006211
1832.55	0.003801
1842.2	0.002731
1851.84	0.002091
1861.49	0.001911
1871.13	0.001621
1880.78	0.001421
1890.42	0.001331
1900.07	0.0012167
1909.71	0.0011641
1919.36	0.0011032
1929	0.001079
1938.65	0.0010154
1948.29	0.0009535
1957.94	0.0010013
1967.58	0.0010619
1977.23	0.0011152
1986.87	0.0012703
1996.52	0.001391
2006.16	0.001511
2015.81	0.001651
2025.45	0.001871
2035.1	0.001831
2044.74	0.001661
2054.38	0.001471
2064.03	0.001431
2073.67	0.001271
2083.32	0.0010753
2092.96	0.0008421
2102.61	0.0006236
2112.25	0.0006666
2121.9	0.0006656
2131.54	0.0006903
2141.19	0.000741
2150.83	0.0006646
2160.48	0.0007455
2170.12	0.0007853
2179.77	0.0007615
2189.41	0.0006538
2199.06	0.0007649
2208.7	0.0007593
2218.35	0.0007472
2227.99	0.000685
2237.64	0.0008072
2247.28	0.0007364
2256.92	0.0007923
2266.57	0.0007932
2276.21	0.0008005
2285.86	0.0007332
2295.5	0.0007313
2305.15	0.0006424
2314.79	0.000525
2324.44	0.0006178
2334.08	0.00061
2343.73	0.0005985
2353.37	0.0004991
2363.02	0.0005162
2372.66	0.0005305
2382.31	0.0006097
2391.95	0.0005212
2401.6	0.0005093
2411.24	0.000601
2420.89	0.0005991
2430.53	0.0006316
2440.18	0.0005322
2449.82	0.0005406
2459.47	0.0005957
2469.11	0.0006936
2478.75	0.0005774
2488.4	0.0007588
2498.04	0.0007571
2507.69	0.0006705
2517.33	0.0006443
2526.98	0.0007156
2536.62	0.0008692
2546.27	0.0009158
2555.91	0.0008454
2565.56	0.000838
2575.2	0.0008675
2584.85	0.0007861
2594.49	0.0008584
2604.14	0.00071
2613.78	0.0007091
2623.43	0.0006863
2633.07	0.000651
2642.72	0.0006229
2652.36	0.0006345
2662.01	0.0005328
2671.65	0.0006214
2681.29	0.0005432
2690.94	0.0005008
2700.58	0.0005835
2710.23	0.0004904
2719.87	0.0006297
2729.52	0.000677
2739.16	0.0006937
2748.81	0.0008246
2758.45	0.0007737
2768.1	0.0009694
2777.74	0.0011505
2787.39	0.001401
2797.03	0.001621
2806.68	0.002381
2816.32	0.003631
2825.97	0.005881
2835.61	0.010961
2845.26	0.012631
2854.9	0.008851
2864.55	0.007581
2874.19	0.007771
2883.84	0.007621
2893.48	0.008021
2903.12	0.009661
2912.77	0.012481
2922.41	0.015731
2932.06	0.020861
2941.7	0.026251
2951.35	0.024001
2960.99	0.019731
2970.64	0.015621
2980.28	0.012641
2989.93	0.012751
2999.57	0.015911
3009.22	0.014931
3018.86	0.008621
3028.51	0.007151
3038.15	0.007201
3047.8	0.006571
3057.44	0.005701
3067.09	0.004571
3076.73	0.003551
3086.38	0.002811
3096.02	0.002051
3105.67	0.001801
3115.31	0.001491
3124.95	0.0010704
3134.6	0.0008047
3144.24	0.0009115
3153.89	0.0005813
3163.53	0.000634
3173.18	0.0006095
3182.82	0.000529
3192.47	0.0005292
3202.11	0.0004579
3211.76	0.00035842
3221.4	0.0003745
3231.05	0.00031671
3240.69	9.3e-05
3250.34	0.0004826
3259.98	0.00030665
3269.63	0.0003821
3279.27	0.000125
3288.92	0.0001
3298.56	0.000106
3308.21	0.0001843
3317.85	0.000229
3327.49	0.000123
3337.14	0.000121
3346.78	0.00029641
3356.43	0.0002037
3366.07	0.000280962
3375.72	0.0002596
3385.36	9.4e-05
3395.01	0.0002127
3404.65	0.000157
3414.3	0.000157
3423.94	0.00014
3433.59	9.2e-05
3443.23	0.000154
3452.88	0.0003809
3462.52	0.0004748
3472.17	0.0004478
3481.81	0.00036306
3491.46	0.0005255
3501.1	0.0004972
3510.75	0.0007877
3520.39	0.000988
3530.04	0.001311
3539.68	0.001501
3549.32	0.002511
3558.97	0.004841
3568.61	0.018111
3578.26	0.024471
3587.9	0.005651
3597.55	0.002191
3607.19	0.001371
3616.84	0.0006933
3626.48	0.0006133
3636.13	0.0004986
3645.77	0.0004487
3655.42	0.00035611
3665.06	0.00029836
3674.71	0.00031459
3684.35	0.00030936
3694	0.0002584
3703.64	0.00035628
3713.29	0.0004062
3722.93	0.000138
3732.58	0.000361
3742.22	0
3751.86	4.2e-05
3761.51	0.00030419
3771.15	0.0001881
3780.8	0.00026529
3790.44	0.0002093
3800.09	0.00033245
3809.73	0.00027072
3819.38	0.0001744
3829.02	2e-05
3838.67	0.0003163
3848.31	0.0004041
3857.96	0.0005014
3867.6	0.0003723
3877.25	0.0003771
3886.89	0.0004631
3896.54	0.00029766
3906.18	0.00034047
3915.83	0.0003957
3925.47	0.0004418
3935.12	0.000507
3944.76	0.0007325
3954.41	0.0005032
3964.05	0.0003939
3973.69	0.0001911
3983.34	0.0002553
3992.98	0.0004069
