Infrared Spectrum: 5-Tetradecanol
Formula: C 14 H 30 O
CAS: 21078-83-1
State: gas
Instrument: HP-GC/MS/IRD
Origin: NIST Mass Spectrometry Data Center
1/CM	ABSORBANCE
550	0.0002242
562	0.0001711
574	3.54e-05
586	4.13e-05
598	5.9e-05
610	6.49e-05
622	7.67e-05
634	4.72e-05
646	2.95e-05
658	3.54e-05
670	9.44e-05
682	0.000118
694	0.0002301
706	0.0004248
718	0.0006608
730	0.0008142
742	0.0007493
754	0.0005959
766	0.0005074
778	0.0005487
790	0.000531
802	0.0004189
814	0.0003894
826	0.0003304
838	0.0004602
850	0.0005015
862	0.0006844
874	0.0008083
886	0.0009381
898	0.0010384
910	0.0009499
922	0.0008673
934	0.0009086
946	0.0010679
958	0.0013039
970	0.0014809
982	0.0019234
994	0.0027848
1006	0.003599
1018	0.0036462
1030	0.0030916
1042	0.0028084
1054	0.0026491
1066	0.0024544
1078	0.0022361
1090	0.0020119
1102	0.0020591
1114	0.0021948
1126	0.0023541
1138	0.0019529
1150	0.0013924
1162	0.0012803
1174	0.0013924
1186	0.0015104
1198	0.0016225
1210	0.0017405
1222	0.0018762
1234	0.0019706
1246	0.0020945
1258	0.0021122
1270	0.0019529
1282	0.0018408
1294	0.0018113
1306	0.0018054
1318	0.0016992
1330	0.0017936
1342	0.0023246
1354	0.0027612
1366	0.0030562
1378	0.003363
1390	0.003009
1402	0.0020355
1414	0.0014986
1426	0.0015399
1438	0.0024485
1450	0.0038881
1462	0.0050209
1474	0.0033689
1486	0.0014809
1498	0.0008201
1510	0.0005546
1522	0.0003894
1534	0.0003068
1546	0.000236
1558	0.0002183
1570	0.0001711
1582	0.0001652
1594	0.0001357
1606	0.0001003
1618	8.85e-05
1630	8.26e-05
1642	7.08e-05
1654	5.31e-05
1666	5.31e-05
1678	5.9e-05
1690	2.95e-05
1702	4.72e-05
1714	2.95e-05
1726	3.54e-05
1738	1.77e-05
1750	2.36e-05
1762	3.54e-05
1774	1.77e-05
1786	2.36e-05
1798	2.36e-05
1810	1.77e-05
1822	2.95e-05
1834	3.54e-05
1846	1.18e-05
1858	2.36e-05
1870	2.95e-05
1882	4.13e-05
1894	2.95e-05
1906	1.18e-05
1918	1.77e-05
1930	3.54e-05
1942	2.95e-05
1954	1.18e-05
1966	1.77e-05
1978	1.18e-05
1990	1.18e-05
2002	3.54e-05
2014	2.95e-05
2026	5.9e-05
2038	7.67e-05
2050	4.13e-05
2062	2.95e-05
2074	4.13e-05
2086	4.13e-05
2098	1.18e-05
2110	2.36e-05
2122	1.18e-05
2134	0
2146	1.77e-05
2158	2.36e-05
2170	3.54e-05
2182	2.95e-05
2194	1.77e-05
2206	2.36e-05
2218	1.18e-05
2230	1.77e-05
2242	2.36e-05
2254	3.54e-05
2266	3.54e-05
2278	5.31e-05
2290	4.72e-05
2302	5.9e-05
2314	4.13e-05
2326	6.49e-05
2338	6.49e-05
2350	6.49e-05
2362	5.31e-05
2374	7.67e-05
2386	5.9e-05
2398	7.67e-05
2410	9.44e-05
2422	7.67e-05
2434	6.49e-05
2446	8.26e-05
2458	7.67e-05
2470	5.31e-05
2482	6.49e-05
2494	9.44e-05
2506	0.0001003
2518	0.0001475
2530	0.0001475
2542	0.0001888
2554	0.0001652
2566	0.0002006
2578	0.0002537
2590	0.0002773
2602	0.0003304
2614	0.0003776
2626	0.0004012
2638	0.0004661
2650	0.0005369
2662	0.0006195
2674	0.0006903
2686	0.000708
2698	0.0006962
2710	0.0006667
2722	0.0006903
2734	0.0007965
2746	0.0008968
2758	0.000944
2770	0.001062
2782	0.0012626
2794	0.0015812
2806	0.0020355
2818	0.0027494
2830	0.0040179
2842	0.006962
2854	0.0149034
2866	0.0226088
2878	0.0192753
2890	0.0163076
2902	0.0185732
2914	0.0289867
2926	0.0493948
2938	0.0568583
2950	0.0348336
2962	0.0263376
2974	0.0202075
2986	0.0085491
2998	0.0046551
3010	0.0029913
3022	0.0021594
3034	0.0016284
3046	0.0012921
3058	0.0010266
3070	0.0008673
3082	0.000708
3094	0.0006431
3106	0.0005487
3118	0.0004661
3130	0.0004012
3142	0.0003422
3154	0.0003599
3166	0.0002891
3178	0.0002773
3190	0.000236
3202	0.0002124
3214	0.0001593
3226	0.0001357
3238	9.44e-05
3250	0.0001003
3262	5.31e-05
3274	7.08e-05
3286	1.77e-05
3298	5.31e-05
3310	4.13e-05
3322	5.9e-05
3334	5.31e-05
3346	4.72e-05
3358	4.72e-05
3370	7.67e-05
3382	8.85e-05
3394	7.08e-05
3406	5.9e-05
3418	8.26e-05
3430	7.67e-05
3442	0.0001003
3454	7.67e-05
3466	5.9e-05
3478	8.26e-05
3490	7.08e-05
3502	7.67e-05
3514	1.18e-05
3526	1.77e-05
3538	3.54e-05
3550	5.9e-06
3562	1.18e-05
3574	2.36e-05
3586	4.13e-05
3598	0.0001239
3610	0.0002006
3622	0.0003599
3634	0.0006431
3646	0.0012331
3658	0.0014396
3670	0.0005959
3682	0.0002773
3694	0.0001711
3706	0.0001357
3718	0.0001239
3730	0.0001121
3742	0.0001298
3754	0.0001062
3766	0.0001239
3778	0.0001121
3790	0.0001239
3802	0.000177
3814	0.000177
3826	0.0001534
3838	0.0001475
