Infrared Spectrum: 3-Methyl-3-nonanol
Formula: C 10 H 22 O
CAS: 21078-72-8
State: gas
Instrument: HP-GC/MS/IRD
Origin: NIST Mass Spectrometry Data Center
1/CM	ABSORBANCE
550	0.0001833
562	0.0002769
574	0.0002379
586	0.0001677
598	0.0001911
610	0.0001716
622	0.0001521
634	9.36e-05
646	4.68e-05
658	0.000117
670	0.0001716
682	0.000234
694	0.000273
706	0.0003822
718	0.0005928
730	0.0008112
742	0.0007527
754	0.0006162
766	0.0005226
778	0.0005538
790	0.0006084
802	0.000429
814	0.0004056
826	0.0003081
838	0.0004641
850	0.0006552
862	0.0009009
874	0.0014001
886	0.0018486
898	0.0025194
910	0.003198
922	0.0032877
934	0.0025428
946	0.001755
958	0.0016731
970	0.0020514
982	0.0022464
994	0.0021762
1006	0.0021021
1018	0.0020085
1030	0.0020085
1042	0.0021333
1054	0.0018915
1066	0.0017004
1078	0.0019032
1090	0.0022308
1102	0.002535
1114	0.0027222
1126	0.0034398
1138	0.0041496
1150	0.0046527
1162	0.0043329
1174	0.0034944
1186	0.0032292
1198	0.0031707
1210	0.0027924
1222	0.0025233
1234	0.002457
1246	0.0024921
1258	0.0026754
1270	0.0027378
1282	0.0026793
1294	0.0026871
1306	0.0025818
1318	0.0024999
1330	0.0026169
1342	0.002886
1354	0.0031356
1366	0.0040521
1378	0.0055107
1390	0.0041028
1402	0.0020358
1414	0.0014937
1426	0.0015678
1438	0.0023673
1450	0.0040053
1462	0.0055302
1474	0.0041379
1486	0.0018798
1498	0.0010413
1510	0.000819
1522	0.0006396
1534	0.0004602
1546	0.0004095
1558	0.0004758
1570	0.0002964
1582	0.000234
1594	0.0002262
1606	0.0001833
1618	0.0002691
1630	0.0001989
1642	0.0002067
1654	0.0003042
1666	0.0001599
1678	0.0001404
1690	0.0001404
1702	0.0001989
1714	0.0001248
1726	3.51e-05
1738	0.0001053
1750	6.63e-05
1762	2.73e-05
1774	4.68e-05
1786	4.29e-05
1798	6.24e-05
1810	4.68e-05
1822	6.24e-05
1834	3.9e-05
1846	6.24e-05
1858	3.51e-05
1870	6.24e-05
1882	1.17e-05
1894	2.34e-05
1906	0
1918	3.51e-05
1930	7.8e-06
1942	2.73e-05
1954	1.56e-05
1966	2.34e-05
1978	3.12e-05
1990	2.73e-05
2002	1.95e-05
2014	1.56e-05
2026	3.51e-05
2038	6.63e-05
2050	7.02e-05
2062	5.07e-05
2074	5.07e-05
2086	6.63e-05
2098	2.73e-05
2110	3.51e-05
2122	3.51e-05
2134	3.51e-05
2146	2.73e-05
2158	4.29e-05
2170	3.51e-05
2182	4.68e-05
2194	5.07e-05
2206	6.24e-05
2218	3.9e-05
2230	5.46e-05
2242	5.07e-05
2254	7.8e-05
2266	7.41e-05
2278	6.24e-05
2290	6.24e-05
2302	7.02e-05
2314	8.97e-05
2326	0.0001482
2338	0.000156
2350	0.0001404
2362	0.0002028
2374	0.0001716
2386	0.0001248
2398	9.36e-05
2410	0.0001131
2422	0.0001131
2434	0.0001014
2446	8.97e-05
2458	6.63e-05
2470	7.8e-05
2482	8.19e-05
2494	0.0001014
2506	9.36e-05
2518	0.0001131
2530	0.0001131
2542	0.0001209
2554	0.0001638
2566	0.0001755
2578	0.0001911
2590	0.0002145
2602	0.0002574
2614	0.000273
2626	0.0002847
2638	0.0002964
2650	0.0003432
2662	0.0004017
2674	0.000429
2686	0.0004407
2698	0.0004446
2710	0.0004719
2722	0.0005499
2734	0.0006591
2746	0.0007449
2758	0.0007527
2770	0.0008034
2782	0.0009711
2794	0.001209
2806	0.0015444
2818	0.0020514
2830	0.0029445
2842	0.0048945
2854	0.0095238
2866	0.0138801
2878	0.0144456
2890	0.0145119
2902	0.0154011
2914	0.0213135
2926	0.032409
2938	0.039
2950	0.0315276
2962	0.0283959
2974	0.0301197
2986	0.0173628
2998	0.0073242
3010	0.0036777
3022	0.0024297
3034	0.0018174
3046	0.0013923
3058	0.0012129
3070	0.0010803
3082	0.0009711
3094	0.0008502
3106	0.0007215
3118	0.0006045
3130	0.0005382
3142	0.0004368
3154	0.0004485
3166	0.0004173
3178	0.0003939
3190	0.0003588
3202	0.0002808
3214	0.0002535
3226	0.0002028
3238	0.0001599
3250	0.0001209
3262	0.000117
3274	0.0001092
3286	0.0001131
3298	0.0001053
3310	9.75e-05
3322	8.97e-05
3334	5.85e-05
3346	8.58e-05
3358	0.0001053
3370	0.0001092
3382	0.000117
3394	0.0001287
3406	0.0001443
3418	0.0001131
3430	8.19e-05
3442	0.0001092
3454	9.75e-05
3466	8.97e-05
3478	0.0001248
3490	6.63e-05
3502	6.63e-05
3514	5.46e-05
3526	8.58e-05
3538	4.68e-05
3550	8.19e-05
3562	7.02e-05
3574	4.29e-05
3586	8.58e-05
3598	0.0001443
3610	0.0002574
3622	0.0005655
3634	0.0013572
3646	0.0015717
3658	0.0006708
3670	0.0003549
3682	0.0001872
3694	9.75e-05
3706	0.0001014
3718	9.36e-05
3730	0.0001287
3742	0.0001794
3754	0.0001638
3766	0.0001209
3778	7.8e-05
3790	6.24e-05
3802	0.0001599
3814	0.0001209
3826	0.0001599
3838	0.0001911
