Infrared Spectrum: 1-Indanone, 5,6-dimethoxy-,
Formula: C11 H12 O3
CAS: 2107-69-9
State: SOLUTION 7% (CHCl3 FOR 2.5-15 microns)
Melting point: 117-120 C
Class: COBLENTZ
Instrument: PERKIN-ELMER 421 (GRATING)
Instrument parameters: GRATING CHANGE AT 1999 CM^-^
Path length: 0.01 CM
Resolution: 2
Origin: ABBOTT LABORATORIES
1/CM	TRANSMITTANCE
725.339	0.7841
734.355	0.7838
743.37	0.7826
752.386	0.782
761.401	0.7815
770.417	0.7801
779.432	0.778
788.448	0.7675
797.463	0.6672
806.479	0.6053
815.495	0.7059
824.51	0.7632
833.526	0.6411
842.541	0.4208
851.557	0.5316
860.572	0.7355
869.588	0.8272
878.604	0.8582
887.619	0.8685
896.635	0.8776
905.65	0.8882
914.666	0.8979
923.681	0.8924
932.697	0.8593
941.712	0.82
950.728	0.7271
959.744	0.8201
968.759	0.8396
977.775	0.829
986.79	0.8636
995.806	0.8428
1004.82	0.7742
1013.84	0.6446
1022.85	0.3999
1031.87	0.1818
1040.88	0.6937
1049.9	0.8145
1058.91	0.8406
1067.93	0.8417
1076.95	0.8358
1085.96	0.7913
1094.98	0.722
1103.99	0.4506
1113.01	0.1598
1122.02	0.6656
1131.04	0.8132
1140.05	0.8224
1149.07	0.816
1158.09	0.76
1167.1	0.6283
1176.12	0.5446
1185.13	0.479
1194.15	0.4134
1203.16	0.3598
1212.18	0.3528
1221.19	0.3537
1230.21	0.3387
1239.23	0.2559
1248.24	0.231
1257.26	0.0526
1266.27	0.0523
1275.29	0.5938
1284.3	0.6158
1293.32	0.5153
1302.33	0.0435
1311.35	0.0482
1320.37	0.317
1329.38	0.7231
1338.4	0.7129
1347.41	0.582
1356.43	0.5143
1365.44	0.7383
1374.46	0.8219
1383.48	0.8315
1392.49	0.8151
1401.51	0.757
1410.52	0.7028
1419.54	0.5429
1428.55	0.5394
1437.57	0.2681
1446.58	0.4587
1455.6	0.2044
1464.62	0.4139
1473.63	0.5585
1482.65	0.3043
1491.66	0.1082
1500.68	0.4139
1509.69	0.802
1518.71	0.8315
1527.72	0.838
1536.74	0.8281
1545.76	0.748
1554.77	0.6939
1563.79	0.6394
1572.8	0.3948
1581.82	0.1439
1590.83	0.1754
1599.85	0.2793
1608.86	0.6006
1617.88	0.6912
1626.9	0.6954
1635.91	0.66
1644.93	0.6149
1653.94	0.5867
1662.96	0.2704
1671.97	0.0895
1680.99	0.0449
1690	0.0992
1699.02	0.2512
1708.04	0.5403
1717.05	0.6487
1726.07	0.7814
1735.08	0.8051
1744.1	0.8149
1753.11	0.8166
1762.13	0.8181
1771.14	0.8196
1780.16	0.8217
1789.18	0.8245
1798.19	0.829
1807.21	0.836
1816.22	0.8428
1825.24	0.8405
1834.25	0.8473
1843.27	0.8527
1852.28	0.8551
1861.3	0.8561
1870.32	0.8529
1879.33	0.8525
1888.35	0.8522
1897.36	0.852
1906.38	0.8521
1915.39	0.8517
1924.41	0.8515
1933.42	0.8514
1942.44	0.8522
1951.46	0.8529
1960.47	0.8492
1969.49	0.8413
1978.5	0.8339
1987.52	0.8258
1996.53	0.8077
2005.55	0.8179
2014.56	0.8187
2023.58	0.8216
2032.6	0.8248
2041.61	0.8229
2050.63	0.821
2059.64	0.8241
2068.66	0.8287
2077.67	0.8319
2086.69	0.8351
2095.7	0.8383
2104.72	0.8396
2113.74	0.8397
2122.75	0.8401
2131.77	0.8396
2140.78	0.8382
2149.8	0.837
2158.81	0.8362
2167.83	0.8364
2176.84	0.8373
2185.86	0.8372
2194.88	0.8374
2203.89	0.8329
2212.91	0.8305
2221.92	0.8324
2230.94	0.8335
2239.95	0.8345
2248.97	0.8352
2257.98	0.8355
2267	0.8359
2276.02	0.8367
2285.03	0.839
2294.05	0.8428
2303.06	0.8484
2312.08	0.8517
2321.09	0.8533
2330.11	0.8533
2339.12	0.8504
2348.14	0.8562
2357.16	0.8616
2366.17	0.8611
2375.19	0.8606
2384.2	0.8686
2393.22	0.8668
2402.23	0.8411
2411.25	0.8149
2420.26	0.8066
2429.28	0.8075
2438.3	0.8088
2447.31	0.8101
2456.33	0.8107
2465.34	0.8112
2474.36	0.8114
2483.37	0.8119
2492.39	0.8198
2501.4	0.8237
2510.42	0.8254
2519.44	0.8264
2528.45	0.8268
2537.47	0.8251
2546.48	0.8234
2555.5	0.8213
2564.51	0.8185
2573.53	0.8154
2582.54	0.8121
2591.56	0.8083
2600.58	0.8025
2609.59	0.7985
2618.61	0.7983
2627.62	0.8037
2636.64	0.8154
2645.65	0.8169
2654.67	0.8133
2663.68	0.8112
2672.7	0.814
2681.72	0.8107
2690.73	0.8027
2699.75	0.7947
2708.76	0.7924
2717.78	0.7969
2726.79	0.8055
2735.81	0.8202
2744.82	0.8227
2753.84	0.8211
2762.86	0.8148
2771.87	0.8166
2780.89	0.8102
2789.9	0.7992
2798.92	0.7935
2807.93	0.792
2816.95	0.7764
2825.96	0.6676
2834.98	0.582
2844	0.7336
2853.01	0.7419
2862.03	0.7075
2871.04	0.7148
2880.06	0.7436
2889.07	0.7181
2898.09	0.657
2907.1	0.6148
2916.12	0.528
2925.14	0.4807
2934.15	0.4546
2943.17	0.5225
2952.18	0.5053
2961.2	0.4857
2970.21	0.5198
2979.23	0.5558
2988.24	0.4573
2997.26	0.3563
3006.28	0.3699
3015.29	0.476
3024.31	0.493
3033.32	0.6305
3042.34	0.6949
3051.35	0.7177
3060.37	0.7231
3069.39	0.7193
3078.4	0.7496
3087.42	0.7675
3096.43	0.7781
3105.45	0.7868
3114.46	0.794
3123.48	0.7985
3132.49	0.8011
3141.51	0.8028
3150.53	0.8097
3159.54	0.8146
3168.56	0.8154
3177.57	0.8184
3186.59	0.8208
3195.6	0.8233
3204.62	0.8264
3213.63	0.8313
3222.65	0.8355
3231.67	0.836
3240.68	0.8359
3249.7	0.8363
3258.71	0.836
3267.73	0.8353
3276.74	0.8344
3285.76	0.8331
3294.77	0.8312
3303.79	0.8282
3312.81	0.8238
3321.82	0.8206
3330.84	0.8176
3339.85	0.8148
3348.87	0.8123
3357.88	0.8106
3366.9	0.8122
3375.91	0.8157
3384.93	0.8203
3393.95	0.8243
3402.96	0.8248
3411.98	0.8253
3420.99	0.8259
3430.01	0.8253
3439.02	0.8245
3448.04	0.8234
3457.05	0.8228
3466.07	0.8229
3475.09	0.8237
3484.1	0.8248
3493.12	0.8262
3502.13	0.8276
3511.15	0.8293
3520.16	0.8315
3529.18	0.8335
3538.19	0.8353
3547.21	0.8369
3556.23	0.8379
3565.24	0.8389
3574.26	0.8402
3583.27	0.8416
3592.29	0.8418
3601.3	0.8401
3610.32	0.8429
3619.33	0.8434
3628.35	0.8406
3637.37	0.8372
3646.38	0.8347
3655.4	0.835
3664.41	0.8375
3673.43	0.8406
3682.44	0.8445
3691.46	0.8473
3700.47	0.8493
3709.49	0.8498
3718.51	0.8504
3727.52	0.8508
3736.54	0.8509
3745.55	0.8506
3754.57	0.8503
3763.58	0.8496
3772.6	0.8488
3781.61	0.8475
3790.63	0.8461
3799.65	0.845
3808.66	0.848
3817.68	0.8459
3826.69	0.841
3835.71	0.8415
3844.72	0.8422
3853.74	0.8429
3862.75	0.8437
3871.77	0.844
3880.79	0.8441
3889.8	0.844
3898.82	0.8438
3907.83	0.8436
3916.85	0.8437
3925.86	0.8438
3934.88	0.8438
3943.89	0.8432
3952.91	0.842
3961.93	0.8427
3970.94	0.8443
3979.96	0.8462
3988.97	0.8484
3997.99	0.8537
