Infrared Spectrum: p-TOLUIC ACID, p-XYLYL ESTER
Formula: C16 H16 O2
CAS: 21086-87-3
State: SOLUTION (10% CCl4 FOR 5000-1330, 10% CS2 FOR 1330-625 CM^-^1)
Class: COBLENTZ
Instrument: Not specified, most likely a prism, grating, or hybrid spectrometer.
Sampling: TRANSMISSION
Path length: 0.0116 CM, 0.0116 CM
Resolution: 4
Origin: DOW CHEMICAL COMPANY
MICROMETERS	TRANSMITTANCE
2.048	0.909
2.08918	0.902
2.13035	0.909
2.17153	0.911
2.2127	0.904
2.25388	0.901
2.29506	0.902
2.33623	0.906
2.37741	0.909
2.41859	0.909
2.45976	0.911
2.50094	0.907
2.54211	0.909
2.58329	0.909
2.62447	0.912
2.66564	0.912
2.70682	0.909
2.748	0.907
2.78917	0.901
2.83035	0.909
2.87152	0.899
2.9127	0.901
2.95388	0.902
2.99505	0.901
3.03623	0.899
3.07741	0.894
3.11858	0.889
3.15976	0.863
3.20093	0.8
3.24211	0.68
3.28329	0.587
3.32446	0.605
3.36564	0.54
3.40682	0.638
3.44799	0.716
3.48917	0.837
3.53034	0.875
3.57152	0.889
3.6127	0.883
3.65387	0.899
3.69505	0.906
3.73623	0.907
3.7774	0.904
3.81858	0.899
3.85975	0.902
3.90093	0.902
3.94211	0.911
3.98328	0.918
4.02446	0.919
4.06564	0.919
4.10681	0.919
4.14799	0.911
4.18916	0.901
4.23034	0.906
4.27152	0.906
4.31269	0.897
4.35387	0.909
4.39504	0.923
4.43622	0.928
4.4774	0.928
4.51857	0.928
4.55975	0.93
4.60093	0.941
4.6421	0.94
4.68328	0.938
4.72445	0.926
4.76563	0.923
4.80681	0.928
4.84798	0.926
4.88916	0.926
4.93034	0.926
4.97151	0.919
5.01269	0.923
5.05386	0.921
5.09504	0.914
5.13622	0.875
5.17739	0.88
5.21857	0.878
5.25975	0.878
5.30092	0.899
5.3421	0.906
5.38327	0.906
5.42445	0.906
5.46563	0.877
5.5068	0.858
5.54798	0.846
5.58916	0.865
5.63033	0.82
5.67151	0.745
5.71268	0.559
5.75386	0.192
5.79504	0.044
5.83621	0.167
5.87739	0.496
5.91857	0.631
5.95974	0.774
6.00092	0.819
6.04209	0.82
6.08327	0.769
6.12445	0.639
6.16562	0.344
6.2068	0.583
6.24798	0.597
6.28915	0.546
6.33033	0.534
6.3715	0.518
6.41268	0.465
6.45386	0.488
6.49503	0.547
6.53621	0.496
6.57738	0.44
6.61856	0.595
6.65974	0.713
6.70091	0.749
6.74209	0.696
6.78327	0.59
6.82444	0.51
6.86562	0.506
6.90679	0.593
6.94797	0.675
6.98915	0.662
7.03032	0.605
7.0715	0.602
7.11268	0.735
7.15385	0.732
7.19503	0.597
7.2362	0.428
7.27738	0.554
7.31856	0.788
7.35973	0.815
7.40091	0.807
7.44209	0.779
7.48326	0.704
7.52444	0.61
7.56561	0.517
7.60679	0.506
7.64797	0.547
7.68914	0.423
7.73032	0.332
7.7715	0.172
7.81267	0.029
7.85385	0.018
7.89502	0.078
7.9362	0.221
7.97738	0.25
8.01855	0.291
8.05973	0.491
8.10091	0.59
8.14208	0.616
8.18326	0.604
8.22443	0.525
8.26561	0.556
8.30679	0.645
8.34796	0.67
8.38914	0.658
8.43032	0.394
8.47149	0.199
8.51267	0.568
8.55384	0.703
8.59502	0.747
8.6362	0.766
8.67737	0.762
8.71855	0.75
8.75972	0.725
8.8009	0.67
8.84208	0.575
8.88325	0.402
8.92443	0.226
8.96561	0.174
9.00678	0.078
9.04796	0.02
9.08913	0.02
9.13031	0.049
9.17149	0.167
9.21266	0.411
9.25384	0.54
9.29502	0.624
9.33619	0.694
9.37737	0.718
9.41854	0.73
9.45972	0.723
9.5009	0.694
9.54207	0.66
9.58325	0.624
9.62443	0.627
9.6656	0.675
9.70678	0.663
9.74795	0.453
9.78913	0.325
9.83031	0.614
9.87148	0.716
9.91266	0.726
9.95384	0.728
9.99501	0.72
10.0362	0.704
10.0774	0.699
10.1185	0.704
10.1597	0.709
10.2009	0.699
10.2421	0.686
10.2832	0.665
10.3244	0.646
10.3656	0.622
10.4068	0.605
10.448	0.6
10.4891	0.636
10.5303	0.686
10.5715	0.706
10.6127	0.662
10.6538	0.583
10.695	0.559
10.7362	0.653
10.7774	0.733
10.8185	0.766
10.8597	0.784
10.9009	0.796
10.9421	0.8
10.9832	0.805
11.0244	0.798
11.0656	0.786
11.1068	0.766
11.1479	0.735
11.1891	0.704
11.2303	0.699
11.2715	0.704
11.3127	0.713
11.3538	0.715
11.395	0.713
11.4362	0.706
11.4774	0.696
11.5185	0.682
11.5597	0.668
11.6009	0.656
11.6421	0.638
11.6832	0.617
11.7244	0.602
11.7656	0.58
11.8068	0.535
11.8479	0.455
11.8891	0.39
11.9303	0.399
11.9715	0.479
12.0126	0.554
12.0538	0.588
12.095	0.619
12.1362	0.629
12.1774	0.604
12.2185	0.546
12.2597	0.462
12.3009	0.373
12.3421	0.302
12.3832	0.235
12.4244	0.232
12.4656	0.271
12.5068	0.31
12.5479	0.368
12.5891	0.448
12.6303	0.515
12.6715	0.573
12.7126	0.621
12.7538	0.65
12.795	0.668
12.8362	0.668
12.8773	0.675
12.9185	0.67
12.9597	0.656
13.0009	0.629
13.0421	0.575
13.0832	0.484
13.1244	0.358
13.1656	0.237
13.2068	0.109
13.2479	0.034
13.2891	0.046
13.3303	0.17
13.3715	0.365
13.4126	0.479
13.4538	0.544
13.495	0.593
13.5362	0.648
13.5773	0.699
13.6185	0.726
13.6597	0.74
13.7009	0.747
13.742	0.75
13.7832	0.752
13.8244	0.749
13.8656	0.745
13.9068	0.738
13.9479	0.735
13.9891	0.723
14.0303	0.715
14.0715	0.708
14.1126	0.704
14.1538	0.699
14.195	0.696
14.2362	0.679
14.2773	0.665
14.3185	0.643
14.3597	0.598
14.4009	0.546
14.442	0.494
14.4832	0.474
14.5244	0.503
14.5656	0.551
14.6067	0.581
14.6479	0.597
14.6891	0.602
14.7303	0.602
14.7715	0.598
14.8126	0.592
14.8538	0.585
14.895	0.573
14.9362	0.569
14.9773	0.568
15.0185	0.558
15.0597	0.547
15.1009	0.537
15.142	0.525
15.1832	0.517
15.2244	0.501
15.2656	0.489
15.3067	0.479
15.3479	0.474
15.3891	0.469
15.4303	0.462
15.4714	0.453
15.5126	0.443
15.5538	0.431
15.595	0.424
15.6362	0.411
15.6773	0.401
15.7185	0.392
15.7597	0.389
15.8009	0.387
15.842	0.383
15.8832	0.39
