Infrared Spectrum: Metribuzin
Formula: C 8 H 14 N 4 O S
CAS: 21087-64-9
State: gas
Instrument: HP-GC/MS/IRD
Origin: NIST Mass Spectrometry Data Center
1/CM	ABSORBANCE
550	0.0002842
562	4.41e-05
574	0.0002646
586	0.000343
598	0.0003871
610	0.0003332
622	0.0004018
634	0.000931
646	0.003479
658	0.0036015
670	0.0031213
682	0.0010829
694	0.0005635
706	0.0005978
718	0.0006174
730	0.0003381
742	0.0003626
754	0.0004361
766	0.0005243
778	0.0007007
790	0.0016611
802	0.0012593
814	0.0006566
826	0.0006909
838	0.0008232
850	0.0010535
862	0.0013034
874	0.0019698
886	0.0038906
898	0.0082957
910	0.0071442
922	0.0026852
934	0.0029547
946	0.0031164
958	0.0047922
970	0.0051352
982	0.0026068
994	0.0021658
1006	0.0028714
1018	0.0053998
1030	0.0062181
1042	0.0097755
1054	0.0075215
1066	0.0033271
1078	0.0022099
1090	0.0019012
1102	0.0018081
1114	0.0018081
1126	0.0019845
1138	0.002303
1150	0.0037338
1162	0.0082859
1174	0.0188748
1186	0.0190659
1198	0.0092904
1210	0.0050225
1222	0.003675
1234	0.0033565
1246	0.0028322
1258	0.0028028
1270	0.0031115
1282	0.0041797
1294	0.0063847
1306	0.006664
1318	0.0086975
1330	0.0081977
1342	0.0118923
1354	0.015533
1366	0.0134701
1378	0.0083692
1390	0.0086485
1402	0.0085554
1414	0.0055174
1426	0.0061838
1438	0.0111034
1450	0.0252595
1462	0.0382494
1474	0.0260043
1486	0.0126469
1498	0.0105154
1510	0.0213199
1522	0.0154301
1534	0.0047824
1546	0.0031066
1558	0.0029449
1570	0.0035035
1582	0.0049392
1594	0.0070364
1606	0.010976
1618	0.0135975
1630	0.0108682
1642	0.0069776
1654	0.006272
1666	0.0112504
1678	0.0308406
1690	0.049
1702	0.0227115
1714	0.0080556
1726	0.0036603
1738	0.0021756
1750	0.0016219
1762	0.0012642
1774	0.0010339
1786	0.0009457
1798	0.0009555
1810	0.0009016
1822	0.000735
1834	0.0006076
1846	0.0005047
1858	0.0004067
1870	0.0003283
1882	0.0003283
1894	0.0002989
1906	0.0003038
1918	0.000294
1930	0.0003087
1942	0.0003185
1954	0.0002891
1966	0.000294
1978	0.0002597
1990	0.0002989
2002	0.0003283
2014	0.0002989
2026	0.0002989
2038	0.0003087
2050	0.0002744
2062	0.000294
2074	0.0002254
2086	0.000196
2098	0.0001862
2110	0.0001764
2122	0.0001274
2134	9.31e-05
2146	5.88e-05
2158	7.84e-05
2170	9.8e-05
2182	9.31e-05
2194	0.0001176
2206	0.0001078
2218	0.0001127
2230	0.0001127
2242	9.8e-05
2254	8.82e-05
2266	8.82e-05
2278	0.0001274
2290	0.0001813
2302	0.0001225
2314	7.84e-05
2326	5.39e-05
2338	0.0001176
2350	7.84e-05
2362	5.88e-05
2374	4.9e-05
2386	9.8e-05
2398	3.92e-05
2410	2.45e-05
2422	4.41e-05
2434	3.43e-05
2446	0
2458	3.92e-05
2470	2.45e-05
2482	9.31e-05
2494	0.0001029
2506	6.37e-05
2518	7.84e-05
2530	0.0001029
2542	0.0001029
2554	0.0001372
2566	0.0001421
2578	9.31e-05
2590	0.0001078
2602	0.0001176
2614	5.88e-05
2626	4.9e-05
2638	8.33e-05
2650	0.0001666
2662	0.0001176
2674	0.0001274
2686	0.0001078
2698	0.0001078
2710	0.0001813
2722	0.0002744
2734	0.0003038
2746	0.0002695
2758	0.0003136
2770	0.000343
2782	0.0003773
2794	0.0004018
2806	0.0004753
2818	0.0006713
2830	0.0008575
2842	0.0010339
2854	0.0015827
2866	0.003185
2878	0.005194
2890	0.0053606
2902	0.0055272
2914	0.0071834
2926	0.0093688
2938	0.0142002
2950	0.0129997
2962	0.0152978
2974	0.0141267
2986	0.0117649
2998	0.0064827
3010	0.0028224
3022	0.0015386
3034	0.0009065
3046	0.000539
3058	0.0003332
3070	0.0003136
3082	0.0003234
3094	0.0003136
3106	0.0002989
3118	0.0003528
3130	0.000392
3142	0.0003724
3154	0.0004655
3166	0.0004214
3178	0.0005586
3190	0.0008771
3202	0.0010731
3214	0.0010437
3226	0.0009702
3238	0.001029
3250	0.0010976
3262	0.0010976
3274	0.0010535
3286	0.0008232
3298	0.0006713
3310	0.0004998
3322	0.0006174
3334	0.0010094
3346	0.001617
3358	0.0012201
3370	0.0008232
3382	0.0005782
3394	0.0005194
3406	0.0005145
3418	0.0005537
3430	0.0004851
3442	0.0004655
3454	0.0005439
3466	0.0004214
3478	0.0004361
3490	0.0002744
3502	0.0002107
3514	0.0001372
3526	8.82e-05
3538	0.0001372
3550	9.31e-05
3562	0.0001715
3574	0.0001225
3586	7.35e-05
3598	6.86e-05
3610	6.86e-05
3622	9.8e-05
3634	6.37e-05
3646	4.41e-05
3658	7.35e-05
3670	6.37e-05
3682	6.86e-05
3694	7.35e-05
3706	4.9e-05
3718	3.92e-05
3730	8.33e-05
3742	0.0001617
3754	6.86e-05
3766	5.88e-05
3778	9.8e-06
3790	0.0001176
3802	8.33e-05
3814	9.8e-05
3826	9.31e-05
3838	9.31e-05
