Infrared Spectrum: 3,4'-Bis(trifluoromethyl)benzophenone
Formula: C 15 H 8 F 6 O
CAS: 21084-22-0
State: gas
Origin: EPA-IR VAPOR PHASE LIBRARY
1/CM	ABSORBANCE
549.8	0.0017291
559.445	0.00301
569.09	0.0015719
578.734	0.00269
588.379	0.00347
598.024	0.00382
607.669	0.00335
617.313	0.0049
626.958	0.00751
636.603	0.00489
646.248	0.00622
655.893	0.00762
665.537	0.00793
675.182	0.01467
684.827	0.00802
694.472	0.0108
704.116	0.01272
713.761	0.01721
723.406	0.02077
733.051	0.00689
742.695	0.00391
752.34	0.00484
761.985	0.01237
771.63	0.0192
781.275	0.00549
790.919	0.00692
800.564	0.00803
810.209	0.01029
819.854	0.00758
829.498	0.0051
839.143	0.00599
848.788	0.01435
858.433	0.01423
868.078	0.00419
877.722	0.00323
887.367	0.0031
897.012	0.00409
906.657	0.00568
916.301	0.00785
925.946	0.00674
935.591	0.00686
945.236	0.01662
954.88	0.01321
964.525	0.00995
974.17	0.00594
983.815	0.00314
993.46	0.00368
1003.1	0.00376
1012.75	0.01093
1022.39	0.01624
1032.04	0.00378
1041.68	0.00482
1051.33	0.01148
1060.97	0.03818
1070.62	0.08055
1080.26	0.03335
1089.91	0.02319
1099.55	0.01939
1109.2	0.02319
1118.84	0.02514
1128.49	0.04088
1138.13	0.09244
1147.78	0.20452
1157.42	0.15994
1167.07	0.1105
1176.71	0.13858
1186.36	0.09629
1196	0.03804
1205.64	0.02045
1215.29	0.0209
1224.93	0.0301
1234.58	0.04731
1244.22	0.07008
1253.87	0.10512
1263.51	0.08086
1273.16	0.03953
1282.8	0.02982
1292.45	0.03753
1302.09	0.04182
1311.74	0.08083
1321.38	0.18353
1331.03	0.1624
1340.67	0.07047
1350.32	0.01937
1359.96	0.01093
1369.61	0.00753
1379.25	0.0058
1388.9	0.00569
1398.54	0.00966
1408.18	0.0146
1417.83	0.00818
1427.47	0.00778
1437.12	0.00756
1446.76	0.00441
1456.41	0.0031
1466.05	0.00284
1475.7	0.00288
1485.34	0.00304
1494.99	0.00299
1504.63	0.00515
1514.28	0.0064
1523.92	0.00349
1533.57	0.00315
1543.21	0.00245
1552.86	0.00232
1562.5	0.00279
1572.15	0.00437
1581.79	0.00485
1591.44	0.00493
1601.08	0.00626
1610.73	0.00836
1620.37	0.00538
1630.01	0.00411
1639.66	0.0039
1649.3	0.00509
1658.95	0.00566
1668.59	0.00826
1678.24	0.02198
1687.88	0.0565
1697.53	0.02957
1707.17	0.01072
1716.82	0.00707
1726.46	0.00588
1736.11	0.00392
1745.75	0.00332
1755.4	0.00287
1765.04	0.0024
1774.69	0.0019501
1784.33	0.00226
1793.98	0.00239
1803.62	0.00304
1813.27	0.00288
1822.91	0.0022
1832.55	0.0020699
1842.2	0.0017453
1851.84	0.0017459
1861.49	0.0016409
1871.13	0.0017074
1880.78	0.0015518
1890.42	0.0018379
1900.07	0.00214
1909.71	0.00222
1919.36	0.00253
1929	0.0024
1938.65	0.00226
1948.29	0.0018216
1957.94	0.0018569
1967.58	0.0016811
1977.23	0.0015272
1986.87	0.0014931
1996.52	0.00120853
2006.16	0.0010433
2015.81	0.001044
2025.45	0.000996
2035.1	0.00101
2044.74	0.000863
2054.38	0.000968
2064.03	0.00113001
2073.67	0.0012495
2083.32	0.0010536
2092.96	0.0013439
2102.61	0.0014234
2112.25	0.00116645
2121.9	0.0013315
2131.54	0.000899
2141.19	0.0012271
2150.83	0.001007
2160.48	0.000707
2170.12	0.000972
2179.77	0.000934
2189.41	0.00112533
2199.06	0.000888
2208.7	0.0012312
2218.35	0.001534
2227.99	0.001526
2237.64	0.00114984
2247.28	0.0013598
2256.92	0.001318
2266.57	0.0014561
2276.21	0.0016348
2285.86	0.0017488
2295.5	0.0015058
2305.15	0.0016008
2314.79	0.0014389
2324.44	0.0012932
2334.08	0.00116
2343.73	0.0013902
2353.37	0.0013283
2363.02	0.0014811
2372.66	0.0011234
2382.31	0.000976
2391.95	0.0013822
2401.6	0.0015459
2411.24	0.00115872
2420.89	0.001056
2430.53	0.001003
2440.18	0.0011053
2449.82	0.000591
2459.47	0.000836
2469.11	0.000691
2478.75	0.0012456
2488.4	0.000949
2498.04	0.000803
2507.69	0.0012573
2517.33	0.0010614
2526.98	0.0010745
2536.62	0.00115939
2546.27	0.000892
2555.91	0.000836
2565.56	0.000994
2575.2	0.000987
2584.85	0.00116276
2594.49	0.0010888
2604.14	0.000967
2613.78	0.000987
2623.43	0.000827
2633.07	0.0010707
2642.72	0.00117355
2652.36	0.000971
2662.01	0.000671
2671.65	0.000711
2681.29	0.000722
2690.94	0.000543
2700.58	0.000406
2710.23	0.0010482
2719.87	0.0013719
2729.52	0.000982
2739.16	0.000796
2748.81	0.00121415
2758.45	0.0010295
2768.1	0.0010571
2777.74	0.000721
2787.39	0.000206
2797.03	0.000304
2806.68	0.000659
2816.32	0.000667
2825.97	0.00113507
2835.61	0.0013716
2845.26	0.0015604
2854.9	0.00011
2864.55	0.00111115
2874.19	0.00062
2883.84	0.000674
2893.48	0.000213
2903.12	0.0012251
2912.77	0.000703
2922.41	0.000815
2932.06	0.001337
2941.7	0.0012248
2951.35	0.000796
2960.99	0.000859
2970.64	0.0013154
2980.28	0.0014385
2989.93	0.0014626
2999.57	0.000587
3009.22	0.00045
3018.86	0.000782
3028.51	0.0012377
3038.15	0.0017914
3047.8	0.00115936
3057.44	0.00283
3067.09	0.00297
3076.73	0.00463
3086.38	0.00354
3096.02	0.00231
3105.67	0.00228
3115.31	0.0019312
3124.95	0.0010698
3134.6	0.000721
3144.24	0.000466
3153.89	0.000661
3163.53	0.000852
3173.18	0.0010289
3182.82	0.0012619
3192.47	0.00118848
3202.11	0.000872
3211.76	0.0012223
3221.4	0.0013989
3231.05	0.0011716
3240.69	0.000863
3250.34	0.0012922
3259.98	0.0010556
3269.63	0.000833
3279.27	0.000733
3288.92	0.0014309
3298.56	0.000625
3308.21	0.0016046
3317.85	0.000854
3327.49	0.00117373
3337.14	0.000719
3346.78	0.0020293
3356.43	0.0020061
3366.07	0.0016242
3375.72	0.0018014
3385.36	0.0010788
3395.01	0.001008
3404.65	0.000961
3414.3	0.0010929
3423.94	0.0012343
3433.59	0.0012685
3443.23	0.000777
3452.88	0.000875
3462.52	0.00177
3472.17	0.000986
3481.81	0.00116313
3491.46	0.00121623
3501.1	0.00063
3510.75	0.000865
3520.39	0.0013141
3530.04	0.0012306
3539.68	0.00048
3549.32	0.000954
3558.97	0.001597
3568.61	0.0013312
3578.26	0.0012347
3587.9	0.0015784
3597.55	0.0018678
3607.19	0.000761
3616.84	0.00112923
3626.48	0.0014726
3636.13	0.0011315
3645.77	0.0014256
3655.42	0.0013359
3665.06	0.000775
3674.71	0.0011291
3684.35	0.00114851
3694	0.0010495
3703.64	0.000805
3713.29	0.000952
3722.93	0.00112681
3732.58	0.0012277
3742.22	0.0014435
3751.86	0.001096
3761.51	0.0013073
3771.15	0.0015502
3780.8	0.0010932
3790.44	0.0010971
3800.09	0.000781
3809.73	0.0010442
3819.38	0.0017639
3829.02	0.0012694
3838.67	0.0012212
3848.31	0.001349
3857.96	0.000985
3867.6	0.0012788
3877.25	0.0013193
3886.89	0.000978
3896.54	0.001554
3906.18	0.000792
3915.83	0.0019449
3925.47	0.000292
3935.12	0.0014309
3944.76	0.000627
3954.41	0.00113669
3964.05	0.000966
3973.69	0.00112646
3983.34	0.00117507
3992.98	0.000863
