Infrared Spectrum: Alpha-Methyl-4-morpholineethanol
Formula: C7 H15 N O2
CAS: 2109-66-2
State: SOLUTION (10% CCl4 FOR 3800-1330, 10% CS2 FOR 1330-450 CM^-^1)
Class: COBLENTZ III
Instrument: DOW KBr FOREPRISM-GRATING
Instrument parameters: BLAZED AT 3.5, 12.0, 20.0 MICRON AND CHANGED AT 5.0, 7.5, 14.9 MICRON
Sampling: TRANSMISSION
Path length: 0.011 CM, 0.011 CM
Resolution: 2
Origin: DOW CHEMICAL COMPANY
1/CM	TRANSMITTANCE
3800	0.911
3791	0.9118
3782	0.9101
3773	0.9105
3764	0.9109
3755	0.9116
3746	0.9124
3737	0.914
3728	0.914
3719	0.9119
3710	0.911
3701	0.9068
3692	0.9
3683	0.8942
3674	0.8946
3665	0.8955
3656	0.8953
3647	0.8943
3638	0.8879
3629	0.8697
3620	0.8578
3611	0.8572
3602	0.8533
3593	0.8458
3584	0.8254
3575	0.799
3566	0.7749
3557	0.7461
3548	0.7055
3539	0.669
3530	0.6246
3521	0.5811
3512	0.5296
3503	0.4934
3494	0.4696
3485	0.4642
3476	0.4633
3467	0.4679
3458	0.4834
3449	0.5015
3440	0.5233
3431	0.5544
3422	0.5859
3413	0.6132
3404	0.6391
3395	0.6635
3386	0.6834
3377	0.7019
3368	0.7197
3359	0.7362
3350	0.7489
3341	0.7599
3332	0.7697
3323	0.7785
3314	0.7875
3305	0.7964
3296	0.8028
3287	0.8089
3278	0.8151
3269	0.8194
3260	0.822
3251	0.8236
3242	0.8255
3233	0.8281
3224	0.8297
3215	0.8303
3206	0.8294
3197	0.8313
3188	0.8334
3179	0.8339
3170	0.8362
3161	0.839
3152	0.8419
3143	0.8426
3134	0.8455
3125	0.8471
3116	0.8488
3107	0.8493
3098	0.8512
3089	0.8521
3080	0.8487
3071	0.8482
3062	0.8414
3053	0.8351
3044	0.8293
3035	0.8204
3026	0.8014
3017	0.7808
3008	0.7318
2999	0.4839
2990	0.244
2981	0.1284
2972	0.0769
2963	0.1571
2954	0.2036
2945	0.1353
2936	0.1331
2927	0.1863
2918	0.1723
2909	0.2508
2900	0.1851
2891	0.1956
2882	0.1828
2873	0.151
2864	0.0812
2855	0.1286
2846	0.219
2837	0.171
2828	0.0889
2819	0.0657
2810	0.1056
2801	0.3287
2792	0.4089
2783	0.4442
2774	0.4607
2765	0.4498
2756	0.5043
2747	0.5669
2738	0.6296
2729	0.6809
2720	0.6987
2711	0.7045
2702	0.6551
2693	0.6334
2684	0.722
2675	0.7663
2666	0.7592
2657	0.7499
2648	0.7709
2639	0.7913
2630	0.8067
2621	0.8216
2612	0.8347
2603	0.8418
2594	0.8455
2585	0.8458
2576	0.8385
2567	0.843
2558	0.8503
2549	0.8544
2540	0.8562
2531	0.8563
2522	0.8565
2513	0.8579
2504	0.8595
2495	0.8598
2486	0.8609
2477	0.8636
2468	0.865
2459	0.8662
2450	0.8664
2441	0.8673
2432	0.8671
2423	0.8664
2414	0.8637
2405	0.862
2396	0.859
2387	0.8597
2378	0.8639
2369	0.866
2360	0.8674
2351	0.8709
2342	0.8715
2333	0.8708
2324	0.8669
2315	0.8537
2306	0.8485
2297	0.8486
2288	0.8485
2279	0.8581
2270	0.8586
2261	0.8589
2252	0.8598
2243	0.8608
2234	0.8625
2225	0.8651
2216	0.8658
2207	0.8676
2198	0.8696
2189	0.8706
2180	0.8735
2171	0.8772
2162	0.8722
2153	0.8749
2144	0.8773
2135	0.8792
2126	0.8801
2117	0.8814
2108	0.8788
2099	0.8792
2090	0.8829
2081	0.8851
2072	0.8859
2063	0.8863
2054	0.8874
2045	0.8857
2036	0.8849
2027	0.8858
2018	0.8863
2009	0.886
2000	0.8806
1991	0.8552
1982	0.8422
1973	0.8603
1964	0.8884
1955	0.8816
1946	0.8703
1937	0.8704
1928	0.8767
1919	0.8712
1910	0.8762
1901	0.8802
1892	0.8794
1883	0.877
1874	0.8748
1865	0.874
1856	0.875
1847	0.8776
1838	0.8798
1829	0.8793
1820	0.8786
1811	0.8776
1802	0.8726
1793	0.8707
1784	0.8688
1775	0.8649
1766	0.8618
1757	0.8618
1748	0.8618
1739	0.8552
1730	0.8521
1721	0.8556
1712	0.8614
1703	0.8671
1694	0.8717
1685	0.8749
1676	0.8775
1667	0.8803
1658	0.8804
1649	0.8803
1640	0.8781
1631	0.8735
1622	0.8602
1613	0.8443
1604	0.8344
1595	0.8051
1586	0.7995
1577	0.7938
1568	0.7598
1559	0.7202
1550	0.7701
1541	0.8141
1532	0.8258
1523	0.833
1514	0.8403
1505	0.8314
1496	0.8133
1487	0.7946
1478	0.7341
1469	0.5215
1460	0.1976
1451	0.3017
1442	0.4556
1433	0.6431
1424	0.6262
1415	0.3927
1406	0.4932
1397	0.429
1388	0.5644
1379	0.3376
1370	0.5039
1361	0.6318
1352	0.5496
1343	0.4494
1334	0.325
1325	0.1963
1316	0.2695
1307	0.3771
1298	0.1572
1289	0.1085
1280	0.2073
1271	0.1961
1262	0.2212
1253	0.4941
1244	0.4574
1235	0.5192
1226	0.6243
1217	0.6549
1208	0.5273
1199	0.6541
1190	0.6669
1181	0.6411
1172	0.6306
1163	0.5942
1154	0.4139
1145	0.1264
1136	0.0761
1127	0.0966
1118	0.0032
1109	0.193
1100	0.471
1091	0.4352
1082	0.45
1073	0.2401
1064	0.1535
1055	0.23
1046	0.4458
1037	0.4555
1028	0.5118
1019	0.3827
1010	0.1441
1001	0.537
992	0.6364
983	0.6601
974	0.6828
965	0.674
956	0.6289
947	0.4165
938	0.2052
929	0.5205
920	0.5728
911	0.2232
902	0.4946
893	0.6422
884	0.6407
875	0.545
866	0.0713
857	0.4437
848	0.2371
839	0.4896
830	0.6654
821	0.7003
812	0.6981
803	0.5995
794	0.5306
785	0.6617
776	0.6889
767	0.7072
758	0.7184
749	0.7277
740	0.7295
731	0.7295
722	0.731
713	0.7306
704	0.7293
695	0.729
686	0.7257
677	0.7433
668	0.7441
659	0.7136
650	0.6906
641	0.6685
632	0.3747
623	0.666
614	0.6734
605	0.6697
596	0.6594
587	0.6454
578	0.6305
569	0.6173
560	0.5984
551	0.5742
542	0.5417
533	0.5147
524	0.5273
515	0.5061
506	0.4623
497	0.3812
488	0.4205
479	0.4429
470	0.4566
