Infrared Spectrum: DIETHYLDITHIOCARBAMIC ACID AMMONIUM SALT
Formula: C5 H14 N2 S2
CAS: 21124-33-4
State: SOLID (MINERAL OIL MULL)
Class: COBLENTZ
Instrument: Not specified, most likely a prism, grating, or hybrid spectrometer.
Sampling: TRANSMISSION
Resolution: 4
Origin: WYANDOTTE CHEMICALS CORP., WYANDOTTE, MICHIGAN, USA
MICROMETERS	TRANSMITTANCE
2.019	0.465
2.05627	0.46
2.09353	0.463
2.1308	0.465
2.16807	0.444
2.20533	0.398
2.2426	0.398
2.27987	0.427
2.31713	0.434
2.3544	0.44
2.39167	0.455
2.42893	0.471
2.4662	0.479
2.50347	0.496
2.54073	0.508
2.578	0.522
2.61527	0.525
2.65253	0.55
2.6898	0.553
2.72707	0.551
2.76433	0.553
2.8016	0.555
2.83887	0.555
2.87613	0.555
2.9134	0.556
2.95067	0.559
2.98793	0.559
3.0252	0.562
3.06247	0.567
3.09973	0.555
3.137	0.533
3.17427	0.488
3.21153	0.368
3.2488	0.269
3.28607	0.106
3.32333	0.029
3.3606	0.017
3.39787	0.027
3.43513	0.02
3.4724	0.021
3.50967	0.02
3.54693	0.034
3.5842	0.027
3.62147	0.041
3.65873	0.041
3.696	0.029
3.73327	0.031
3.77053	0.044
3.8078	0.071
3.84507	0.099
3.88233	0.136
3.9196	0.178
3.95687	0.206
3.99413	0.203
4.0314	0.192
4.06867	0.195
4.10593	0.182
4.1432	0.155
4.18046	0.106
4.21773	0.249
4.255	0.325
4.29226	0.359
4.32953	0.359
4.3668	0.327
4.40406	0.4
4.44133	0.483
4.4786	0.527
4.51586	0.544
4.55313	0.551
4.5904	0.576
4.62766	0.604
4.66493	0.609
4.7022	0.624
4.73946	0.648
4.77673	0.662
4.814	0.677
4.85126	0.671
4.88853	0.688
4.9258	0.648
4.96306	0.618
5.00033	0.693
5.0376	0.724
5.07486	0.731
5.11213	0.724
5.1494	0.731
5.18666	0.736
5.22393	0.741
5.2612	0.713
5.29846	0.702
5.33573	0.748
5.373	0.748
5.41026	0.745
5.44753	0.734
5.4848	0.753
5.52206	0.758
5.55933	0.775
5.5966	0.779
5.63386	0.781
5.67113	0.768
5.7084	0.744
5.74566	0.758
5.78293	0.764
5.8202	0.75
5.85746	0.736
5.89473	0.725
5.932	0.731
5.96926	0.742
6.00653	0.753
6.0438	0.756
6.08106	0.768
6.11833	0.789
6.1556	0.795
6.19286	0.81
6.23013	0.817
6.2674	0.8
6.30466	0.716
6.34193	0.533
6.3792	0.491
6.41646	0.564
6.45373	0.629
6.491	0.717
6.52826	0.716
6.56553	0.722
6.6028	0.699
6.64006	0.64
6.67733	0.514
6.7146	0.257
6.75186	0.083
6.78913	0.024
6.8264	0.037
6.86366	0.021
6.90093	0.026
6.9382	0.13
6.97546	0.176
7.01273	0.314
7.05	0.217
7.08726	0.065
7.12453	0.06
7.1618	0.072
7.19906	0.065
7.23633	0.037
7.2736	0.032
7.31086	0.041
7.34813	0.057
7.3854	0.128
7.42266	0.15
7.45993	0.314
7.4972	0.444
7.53446	0.468
7.57173	0.365
7.609	0.192
7.64626	0.072
7.68353	0.251
7.7208	0.429
7.75806	0.505
7.79533	0.503
7.8326	0.333
7.86986	0.141
7.90713	0.049
7.9444	0.058
7.98166	0.142
8.01893	0.234
8.0562	0.296
8.09346	0.319
8.13073	0.297
8.168	0.181
8.20526	0.046
8.24253	0.031
8.2798	0.08
8.31706	0.226
8.35433	0.316
8.39159	0.424
8.42886	0.508
8.46613	0.516
8.50339	0.514
8.54066	0.548
8.57793	0.435
8.61519	0.356
8.65246	0.483
8.68973	0.499
8.72699	0.468
8.76426	0.365
8.80153	0.201
8.83879	0.086
8.87606	0.103
8.91333	0.195
8.95059	0.263
8.98786	0.333
9.02513	0.41
9.06239	0.345
9.09966	0.289
9.13693	0.365
9.17419	0.401
9.21146	0.294
9.24873	0.1
9.28599	0.068
9.32326	0.043
9.36053	0.055
9.39779	0.066
9.43506	0.125
9.47233	0.241
9.50959	0.311
9.54686	0.412
9.58413	0.457
9.62139	0.486
9.65866	0.491
9.69593	0.465
9.73319	0.395
9.77046	0.386
9.80773	0.435
9.84499	0.452
9.88226	0.404
9.91953	0.306
9.95679	0.193
9.99406	0.134
10.0313	0.11
10.0686	0.062
10.1059	0.024
10.1431	0.034
10.1804	0.055
10.2177	0.106
10.2549	0.153
10.2922	0.156
10.3295	0.155
10.3667	0.176
10.404	0.258
10.4413	0.356
10.4785	0.454
10.5158	0.517
10.5531	0.567
10.5903	0.598
10.6276	0.623
10.6649	0.631
10.7021	0.634
10.7394	0.632
10.7767	0.604
10.8139	0.548
10.8512	0.401
10.8885	0.172
10.9257	0.057
10.963	0.048
11.0003	0.103
11.0375	0.212
11.0748	0.322
11.1121	0.435
11.1493	0.51
11.1866	0.537
11.2239	0.573
11.2611	0.562
11.2984	0.522
11.3357	0.499
11.3729	0.537
11.4102	0.613
11.4475	0.671
11.4847	0.705
11.522	0.736
11.5593	0.758
11.5965	0.767
11.6338	0.787
11.6711	0.787
11.7083	0.784
11.7456	0.756
11.7829	0.71
11.8201	0.589
11.8574	0.364
11.8947	0.182
11.9319	0.213
11.9692	0.337
12.0065	0.474
12.0437	0.572
12.081	0.635
12.1183	0.671
12.1555	0.699
12.1928	0.72
12.2301	0.731
12.2673	0.742
12.3046	0.781
12.3419	0.798
12.3791	0.813
12.4164	0.824
12.4537	0.826
12.4909	0.829
12.5282	0.826
12.5655	0.815
12.6027	0.796
12.64	0.753
12.6773	0.654
12.7145	0.575
12.7518	0.525
12.7891	0.463
12.8263	0.342
12.8636	0.26
12.9009	0.196
12.9381	0.172
12.9754	0.227
13.0127	0.376
13.0499	0.497
13.0872	0.587
13.1245	0.648
13.1617	0.679
13.199	0.714
13.2363	0.731
13.2735	0.739
13.3108	0.759
13.3481	0.767
13.3853	0.772
13.4226	0.782
13.4599	0.77
13.4971	0.778
13.5344	0.77
13.5717	0.772
13.6089	0.772
13.6462	0.778
13.6835	0.787
13.7207	0.795
13.758	0.793
13.7953	0.796
13.8325	0.795
13.8698	0.796
13.9071	0.809
13.9443	0.848
13.9816	0.869
14.0189	0.893
14.0561	0.908
14.0934	0.916
14.1307	0.922
14.1679	0.936
14.2052	0.939
14.2425	0.942
14.2797	0.947
14.317	0.948
14.3543	0.953
14.3915	0.951
14.4288	0.951
14.4661	0.951
14.5033	0.953
14.5406	0.937
14.5779	0.933
14.6151	0.93
14.6524	0.925
14.6897	0.927
14.7269	0.924
14.7642	0.919
14.8015	0.916
14.8387	0.913
14.876	0.908
14.9133	0.906
14.9505	0.902
14.9878	0.846
15.0251	0.753
15.0623	0.689
15.0996	0.685
15.1369	0.731
15.1741	0.764
15.2114	0.796
15.2487	0.798
15.2859	0.798
15.3232	0.792
15.3605	0.789
15.3977	0.786
15.435	0.779
15.4723	0.776
15.5095	0.773
15.5468	0.768
15.5841	0.727
15.6213	0.703
15.6586	0.699
15.6959	0.683
15.7331	0.668
15.7704	0.648
15.8077	0.629
15.8449	0.62
15.8822	0.6
15.9195	0.595
15.9567	0.57
15.994	0.558
