Infrared Spectrum: 3-Bromobiphenyl
Formula: C 12 H 9 Br
CAS: 2113-57-7
State: gas
Instrument: HP-GC/MS/IRD
Origin: NIST Mass Spectrometry Data Center
1/CM	ABSORBANCE
550	0.0004556
562	0.0005984
574	0.0009843
586	0.0003553
598	0.000119
610	0.0018037
622	0.0012274
634	0.0002941
646	0.0005491
658	0.0026911
670	0.0080036
682	0.0059143
694	0.0125817
706	0.0080206
718	0.0028951
730	0.0027234
742	0.0078336
754	0.017
766	0.0085918
778	0.0101014
790	0.0043282
802	0.0010353
814	0.0003502
826	0.0003553
838	0.0001649
850	0.0001955
862	0.0003876
874	0.0014909
886	0.0018989
898	0.0004505
910	0.0002873
922	0.0002091
934	0.0001785
946	0.0002244
958	0.0003162
970	0.0001598
982	0.0002295
994	0.0016201
1006	0.0016388
1018	0.0017527
1030	0.0016677
1042	0.0038573
1054	0.0018326
1066	0.0025908
1078	0.004097
1090	0.0035343
1102	0.0011237
1114	0.0003213
1126	0.0002125
1138	0.000153
1150	1.7e-06
1162	3.57e-05
1174	0.0002958
1186	0.0006375
1198	0.0002074
1210	0.0002516
1222	0.0003604
1234	0.0004318
1246	0.0007786
1258	0.0009571
1270	0.0015963
1282	0.0014569
1294	0.0005287
1306	0.0004726
1318	0.0004454
1330	0.0004998
1342	0.0004624
1354	0.0003043
1366	0.0004233
1378	0.0007871
1390	0.0019431
1402	0.0032198
1414	0.0024021
1426	0.001139
1438	0.0018513
1450	0.0052275
1462	0.006086
1474	0.0119578
1486	0.0022831
1498	0.0017799
1510	0.0013413
1522	0.0011883
1534	0.002312
1546	0.004658
1558	0.0091834
1570	0.0082569
1582	0.0091086
1594	0.0097563
1606	0.002499
1618	0.0009622
1630	0.0003842
1642	0.00034
1654	0.0006256
1666	0.0006307
1678	0.0008228
1690	0.0004658
1702	0.0003842
1714	0.0003553
1726	0.0002856
1738	0.0005661
1750	0.0008075
1762	0.0007667
1774	0.0006528
1786	0.0008245
1798	0.0010846
1810	0.0005457
1822	0.0003468
1834	0.0003162
1846	0.0004913
1858	0.0008143
1870	0.000799
1882	0.000646
1894	0.0005321
1906	0.0002975
1918	0.0004794
1930	0.0008075
1942	0.0008687
1954	0.0006715
1966	0.0003655
1978	0.0001785
1990	0.0001292
2002	0.0001156
2014	9.69e-05
2026	0.0001343
2038	0.0001156
2050	0.0001411
2062	0.0001173
2074	9.86e-05
2086	7.31e-05
2098	6.97e-05
2110	0.0001003
2122	8.16e-05
2134	9.86e-05
2146	0.0001292
2158	0.000136
2170	0.0001071
2182	0.0001275
2194	0.0001088
2206	0.000102
2218	8.84e-05
2230	8.67e-05
2242	0.0001139
2254	0.0001394
2266	0.0001343
2278	0.000119
2290	0.000153
2302	0.000187
2314	0.0003162
2326	0.0004318
2338	0.0004947
2350	0.0003468
2362	0.0005865
2374	0.0003655
2386	0.0001428
2398	0.000153
2410	0.0001496
2422	0.0001547
2434	0.0001445
2446	0.000102
2458	0.0001241
2470	0.0001139
2482	0.000102
2494	0.0001105
2506	0.000136
2518	9.69e-05
2530	7.82e-05
2542	0.0001224
2554	0.0001411
2566	0.0001496
2578	0.0001615
2590	0.0001173
2602	0.0001989
2614	0.0002244
2626	0.0001785
2638	0.0001819
2650	0.0001394
2662	0.0001207
2674	0.0001003
2686	6.46e-05
2698	4.76e-05
2710	0.0001445
2722	0.0001258
2734	0.0001377
2746	0.0001207
2758	8.67e-05
2770	0.0001513
2782	0.0001122
2794	0.0001564
2806	0.000102
2818	8.67e-05
2830	0.0001717
2842	0.0002193
2854	0.0002924
2866	0.0002601
2878	0.0002397
2890	0.0002295
2902	0.0002193
2914	0.0003094
2926	0.000357
2938	0.0003723
2950	0.0003298
2962	0.0003621
2974	0.0003621
2986	0.0004369
2998	0.0006222
3010	0.0011883
3022	0.0025483
3034	0.0050031
3046	0.0042568
3058	0.0053703
3070	0.0104312
3082	0.0068119
3094	0.0043367
3106	0.0021726
3118	0.0011492
3130	0.0005593
3142	0.0004267
3154	0.0003978
3166	0.0002975
3178	0.0001734
3190	0.0001632
3202	0.0001666
3214	0.0002193
3226	0.0001581
3238	0.0001207
3250	0.0001275
3262	0.0001564
3274	0.000119
3286	8.33e-05
3298	0.000102
3310	0.0001377
3322	9.69e-05
3334	0.0001292
3346	0.000153
3358	0.0001037
3370	0.0001275
3382	9.01e-05
3394	0.0001122
3406	0.0001173
3418	0.0001326
3430	0.0001224
3442	0.0001394
3454	0.0001632
3466	0.0001717
3478	0.0001479
3490	0.0001581
3502	0.0001955
3514	0.0001292
3526	0.0001479
3538	0.0001921
3550	0.0002244
3562	0.0001666
3574	0.0001156
3586	0.0002618
3598	0.0001462
3610	0.0002907
3622	0.0001445
3634	0.0001513
3646	0.0002839
3658	0.000204
3670	0.0002618
3682	0.0002312
3694	0.0002873
3706	0.0002329
3718	0.0002176
3730	0.0002346
3742	0.0004063
3754	0.0003587
3766	0.0003009
3778	0.0002584
3790	0.0002295
3802	0.0002856
3814	0.0002176
3826	0.0002295
3838	0.0003383
