Infrared Spectrum: 2-ACETAMIDO-BIPHENYL
Formula: C14 H13 N O
CAS: 2113-47-5
State: SOLID (0.75% IN KBr PELLET)
Class: COBLENTZ
Instrument: Not specified, most likely a prism, grating, or hybrid spectrometer.
Sampling: TRANSMISSION
Path length: 0.0355 CM THICK
Resolution: 4
Origin: ANDERSON PHYSICAL LABORATORY
1/CM	TRANSMITTANCE
667.708	0.448
676.14	0.396
684.572	0.324
693.005	0.264
701.437	0.0841
709.869	0.3409
718.301	0.43
726.734	0.327
735.166	0.2101
743.598	0.04
752.03	0.184
760.463	0.175
768.895	0.5419
777.327	0.288
785.759	0.7357
794.191	0.843
802.624	0.858
811.056	0.863
819.488	0.858
827.92	0.821
836.353	0.771
844.785	0.816
853.217	0.786
861.649	0.845
870.081	0.801
878.514	0.845
886.946	0.837
895.378	0.827
903.81	0.807
912.243	0.789
920.675	0.69
929.107	0.747
937.539	0.726
945.972	0.5959
954.404	0.748
962.836	0.684
971.268	0.571
979.7	0.542
988.133	0.625
996.565	0.571
1005	0.491
1013.43	0.4298
1021.86	0.651
1030.29	0.628
1038.73	0.554
1047.16	0.565
1055.59	0.6269
1064.02	0.702
1072.45	0.601
1080.89	0.675
1089.32	0.739
1097.75	0.72
1106.18	0.694
1114.62	0.59
1123.05	0.702
1131.48	0.7
1139.91	0.685
1148.35	0.66
1156.78	0.553
1165.21	0.663
1173.64	0.645
1182.07	0.5961
1190.51	0.612
1198.94	0.596
1207.37	0.572
1215.8	0.544
1224.24	0.521
1232.67	0.505
1241.1	0.472
1249.53	0.409
1257.96	0.318
1266.4	0.371
1274.83	0.344
1283.26	0.3
1291.69	0.19
1300.13	0.139
1308.56	0.132
1316.99	0.308
1325.42	0.457
1333.85	0.553
1342.29	0.518
1350.72	0.464
1359.15	0.389
1367.58	0.281
1376.02	0.201
1384.45	0.294
1392.88	0.351
1401.31	0.338
1409.74	0.302
1418.18	0.293
1426.61	0.255
1435.04	0.1681
1443.47	0.1888
1451.91	0.24
1460.34	0.2249
1468.77	0.293
1477.2	0.209
1485.63	0.258
1494.07	0.282
1502.5	0.242
1510.93	0.222
1519.36	0.1321
1527.8	0.054
1536.23	0.036
1544.66	0.114
1553.09	0.178
1561.52	0.305
1569.96	0.338
1578.39	0.264
1586.82	0.157
1595.25	0.276
1603.69	0.333
1612.12	0.35
1620.55	0.347
1628.98	0.269
1637.41	0.218
1645.85	0.16
1654.28	0.045
1662.71	0.033
1671.14	0.111
1679.58	0.172
1688.01	0.4269
1696.44	0.5539
1704.87	0.669
1713.3	0.735
1721.74	0.796
1730.17	0.819
1738.6	0.855
1747.03	0.885
1755.47	0.9
1763.9	0.896
1772.33	0.885
1780.76	0.899
1789.19	0.908
1797.63	0.9
1806.06	0.872
1814.49	0.852
1822.92	0.857
1831.36	0.876
1839.79	0.872
1848.22	0.89
1856.65	0.885
1865.08	0.881
1873.52	0.872
1881.95	0.855
1890.38	0.818
1898.81	0.821
1907.25	0.813
1915.68	0.803
1924.11	0.831
1932.54	0.849
1940.97	0.837
1949.41	0.8
1957.84	0.784
1966.27	0.789
1974.7	0.812
1983.14	0.821
1991.57	0.833
2000	0.839
2008.43	0.837
2016.86	0.835
2025.3	0.8307
2033.73	0.8249
2042.16	0.8204
2050.59	0.8169
2059.03	0.815
2067.46	0.8119
2075.89	0.8083
2084.32	0.8042
2092.75	0.8
2101.19	0.7957
2109.62	0.7913
2118.05	0.7877
2126.48	0.7861
2134.92	0.7793
2143.35	0.7716
2151.78	0.7683
2160.21	0.7661
2168.64	0.7646
2177.08	0.7596
2185.51	0.757
2193.94	0.756
2202.37	0.7525
2210.81	0.7475
2219.24	0.7418
2227.67	0.738
2236.1	0.7322
2244.53	0.728
2252.97	0.726
2261.4	0.726
2269.83	0.726
2278.26	0.726
2286.7	0.7232
2295.13	0.7168
2303.56	0.711
2311.99	0.7072
2320.42	0.705
2328.86	0.703
2337.29	0.702
2345.72	0.7
2354.15	0.699
2362.59	0.699
2371.02	0.6982
2379.45	0.697
2387.88	0.696
2396.31	0.6926
2404.75	0.6891
2413.18	0.6873
2421.61	0.685
2430.04	0.6818
2438.48	0.6785
2446.91	0.6735
2455.34	0.67
2463.77	0.6667
2472.2	0.6624
2480.64	0.6584
2489.07	0.6549
2497.5	0.6517
2505.93	0.649
2514.37	0.6455
2522.8	0.6388
2531.23	0.6353
2539.66	0.6334
2548.1	0.631
2556.53	0.628
2564.96	0.6262
2573.39	0.624
2581.82	0.622
2590.26	0.6207
2598.69	0.6186
2607.12	0.6166
2615.55	0.6131
2623.99	0.6116
2632.42	0.608
2640.85	0.6063
2649.28	0.603
2657.71	0.5995
2666.15	0.5955
2674.58	0.5934
2683.01	0.59
2691.44	0.5867
2699.88	0.5823
2708.31	0.5784
2716.74	0.5738
2725.17	0.563
2733.6	0.5522
2742.04	0.5428
2750.47	0.5323
2758.9	0.5211
2767.33	0.5108
2775.77	0.5023
2784.2	0.4938
2792.63	0.4906
2801.06	0.486
2809.49	0.4841
2817.93	0.482
2826.36	0.4801
2834.79	0.479
2843.22	0.478
2851.66	0.4723
2860.09	0.4655
2868.52	0.4607
2876.95	0.454
2885.38	0.4449
2893.82	0.4338
2902.25	0.4256
2910.68	0.4188
2919.11	0.4121
2927.55	0.406
2935.98	0.3883
2944.41	0.3702
2952.84	0.3532
2961.27	0.3361
2969.71	0.319
2978.14	0.302
2986.57	0.2845
2995	0.2662
3003.44	0.2469
3011.87	0.236
3020.3	0.2364
3028.73	0.2444
3037.16	0.2548
3045.6	0.2673
3054.03	0.2828
3062.46	0.2981
3070.89	0.3169
3079.33	0.3322
3087.76	0.3325
3096.19	0.3281
3104.62	0.3169
3113.05	0.3081
3121.49	0.3039
3129.92	0.3004
3138.35	0.2927
3146.78	0.2711
3155.22	0.2479
3163.65	0.2347
3172.08	0.2268
3180.51	0.2233
3188.94	0.2191
3197.38	0.2103
3205.81	0.2057
3214.24	0.2022
3222.67	0.1987
3231.11	0.1951
3239.54	0.1894
3247.97	0.1797
3256.4	0.177
3264.83	0.177
3273.27	0.183
3281.7	0.1924
3290.13	0.2264
3298.56	0.275
3307	0.3276
3315.43	0.3781
3323.86	0.415
3332.29	0.4738
3340.72	0.5071
3349.16	0.5197
3357.59	0.5238
3366.02	0.527
3374.45	0.5277
3382.89	0.529
3391.32	0.5244
3399.75	0.5228
3408.18	0.52
3416.61	0.52
3425.05	0.518
3433.48	0.517
3441.91	0.517
3450.34	0.517
3458.78	0.517
3467.21	0.518
3475.64	0.5189
3484.07	0.52
3492.5	0.52
3500.94	0.52
3509.37	0.52
3517.8	0.5223
3526.23	0.527
3534.67	0.532
3543.1	0.532
3551.53	0.5328
3559.96	0.5362
3568.39	0.541
3576.83	0.5416
3585.26	0.542
3593.69	0.542
3602.12	0.5416
3610.56	0.541
3618.99	0.541
3627.42	0.539
3635.85	0.539
3644.28	0.539
3652.72	0.539
3661.15	0.539
3669.58	0.539
3678.01	0.539
3686.45	0.539
3694.88	0.538
3703.31	0.538
3711.74	0.5338
3720.17	0.533
3728.61	0.532
3737.04	0.53
3745.47	0.53
3753.9	0.529
3762.34	0.529
3770.77	0.5264
3779.2	0.5244
3787.63	0.5226
3796.06	0.514
3804.5	0.5098
3812.93	0.5081
3821.36	0.508
3829.79	0.506
3838.23	0.5054
3846.66	0.505
3855.09	0.5028
3863.52	0.5012
3871.95	0.499
3880.39	0.499
3888.82	0.497
3897.25	0.496
3905.68	0.4946
3914.12	0.494
3922.55	0.4938
3930.98	0.493
3939.41	0.4915
3947.85	0.491
3956.28	0.49
3964.71	0.49
3973.14	0.49
3981.57	0.491
3990.01	0.493
