Infrared Spectrum: 2-IODOBIPHENYL
Formula: C12 H9 I
CAS: 2113-51-1
State: LIQUID (NEAT)
Boiling point: 149 C AT 4 mmHg
Class: COBLENTZ III
Instrument: BAIRD NaCl PRISM
Sampling: TRANSMISSION
Path length: 0.003 CM
Resolution: 4
Origin: WYANDOTTE CHEMICALS CORP.
MICROMETERS	TRANSMITTANCE
2.025	0.85
2.06418	0.826
2.10337	0.811
2.14255	0.818
2.18173	0.837
2.22092	0.839
2.2601	0.838
2.29928	0.836
2.33847	0.82
2.37765	0.703
2.41683	0.695
2.45601	0.77
2.4952	0.809
2.53438	0.827
2.57356	0.832
2.61275	0.839
2.65193	0.843
2.69111	0.842
2.7303	0.844
2.76948	0.859
2.80866	0.866
2.84785	0.871
2.88703	0.855
2.92621	0.842
2.9654	0.846
3.00458	0.858
3.04376	0.885
3.08295	0.89
3.12213	0.88
3.16131	0.838
3.2005	0.748
3.23968	0.439
3.27886	0.098
3.31804	0.179
3.35723	0.637
3.39641	0.75
3.43559	0.798
3.47478	0.811
3.51396	0.841
3.55314	0.873
3.59233	0.908
3.63151	0.918
3.67069	0.926
3.70988	0.931
3.74906	0.932
3.78824	0.929
3.82743	0.912
3.86661	0.892
3.90579	0.88
3.94498	0.884
3.98416	0.892
4.02334	0.901
4.06252	0.908
4.10171	0.924
4.14089	0.931
4.18007	0.931
4.21926	0.912
4.25844	0.933
4.29762	0.933
4.33681	0.935
4.37599	0.923
4.41517	0.917
4.45436	0.921
4.49354	0.921
4.53272	0.931
4.57191	0.938
4.61109	0.953
4.65027	0.965
4.68946	0.974
4.72864	0.979
4.76782	0.98
4.80701	0.98
4.84619	0.98
4.88537	0.98
4.92455	0.98
4.96374	0.98
5.00292	0.955
5.0421	0.947
5.08129	0.922
5.12047	0.825
5.15965	0.557
5.19884	0.549
5.23802	0.581
5.2772	0.619
5.31639	0.614
5.35557	0.583
5.39475	0.708
5.43394	0.812
5.47312	0.799
5.5123	0.756
5.55149	0.568
5.59067	0.57
5.62985	0.751
5.66903	0.79
5.70822	0.733
5.7474	0.722
5.78658	0.732
5.82577	0.756
5.86495	0.77
5.90413	0.746
5.94332	0.742
5.9825	0.754
6.02168	0.773
6.06087	0.794
6.10005	0.766
6.13923	0.637
6.17842	0.431
6.2176	0.295
6.25678	0.318
6.29597	0.165
6.33515	0.401
6.37433	0.467
6.41352	0.424
6.4527	0.479
6.49188	0.589
6.53106	0.658
6.57025	0.676
6.60943	0.683
6.64861	0.482
6.6878	0.438
6.72698	0.438
6.76616	0.349
6.80535	0.149
6.84453	0.118
6.88371	0.084
6.9229	0.077
6.96208	0.11
7.00126	0.071
7.04045	0.07
7.07963	0.088
7.11881	0.325
7.158	0.403
7.19718	0.449
7.23636	0.578
7.27554	0.703
7.31473	0.772
7.35391	0.814
7.39309	0.833
7.43228	0.842
7.47146	0.809
7.51064	0.685
7.54983	0.681
7.58901	0.719
7.62819	0.722
7.66738	0.703
7.70656	0.532
7.74574	0.482
7.78493	0.555
7.82411	0.624
7.86329	0.657
7.90248	0.635
7.94166	0.378
7.98084	0.201
8.02002	0.247
8.05921	0.449
8.09839	0.602
8.13757	0.724
8.17676	0.784
8.21594	0.793
8.25512	0.79
8.29431	0.791
8.33349	0.801
8.37267	0.802
8.41186	0.783
8.45104	0.603
8.49022	0.513
8.52941	0.589
8.56859	0.58
8.60777	0.402
8.64696	0.374
8.68614	0.56
8.72532	0.671
8.76451	0.753
8.80369	0.812
8.84287	0.839
8.88205	0.849
8.92124	0.793
8.96042	0.501
8.9996	0.584
9.03879	0.704
9.07797	0.791
9.11715	0.841
9.15634	0.844
9.19552	0.821
9.2347	0.74
9.27389	0.412
9.31307	0.158
9.35225	0.144
9.39144	0.171
9.43062	0.368
9.4698	0.56
9.50899	0.652
9.54817	0.683
9.58735	0.694
9.62653	0.653
9.66572	0.451
9.7049	0.286
9.74408	0.3
9.78327	0.21
9.82245	0.099
9.86163	0.073
9.90082	0.091
9.94	0.078
9.97918	0.06
10.0184	0.055
10.0575	0.059
10.0967	0.131
10.1359	0.21
10.1751	0.291
10.2143	0.374
10.2535	0.438
10.2926	0.49
10.3318	0.523
10.371	0.548
10.4102	0.581
10.4494	0.634
10.4886	0.674
10.5277	0.678
10.5669	0.573
10.6061	0.422
10.6453	0.362
10.6845	0.45
10.7237	0.615
10.7628	0.69
10.802	0.722
10.8412	0.719
10.8804	0.671
10.9196	0.503
10.9588	0.38
10.9979	0.343
11.0371	0.422
11.0763	0.573
11.1155	0.672
11.1547	0.733
11.1939	0.769
11.233	0.79
11.2722	0.794
11.3114	0.79
11.3506	0.772
11.3898	0.751
11.429	0.715
11.4681	0.676
11.5073	0.639
11.5465	0.57
11.5857	0.525
11.6249	0.512
11.6641	0.55
11.7032	0.612
11.7424	0.653
11.7816	0.663
11.8208	0.642
11.86	0.6
11.8992	0.548
11.9383	0.544
11.9775	0.573
12.0167	0.625
12.0559	0.653
12.0951	0.652
12.1343	0.641
12.1734	0.637
12.2126	0.653
12.2518	0.678
12.291	0.695
12.3302	0.713
12.3694	0.715
12.4085	0.717
12.4477	0.721
12.4869	0.72
12.5261	0.73
12.5653	0.733
12.6045	0.731
12.6436	0.719
12.6828	0.692
12.722	0.668
12.7612	0.634
12.8004	0.575
12.8396	0.47
12.8787	0.296
12.9179	0.158
12.9571	0.102
12.9963	0.092
13.0355	0.08
13.0747	0.073
13.1138	0.073
13.153	0.07
13.1922	0.068
13.2314	0.066
13.2706	0.062
13.3098	0.062
13.3489	0.061
13.3881	0.061
13.4273	0.062
13.4665	0.064
13.5057	0.064
13.5449	0.068
13.584	0.068
13.6232	0.073
13.6624	0.108
13.7016	0.136
13.7408	0.163
13.78	0.172
13.8191	0.172
13.8583	0.152
13.8975	0.136
13.9367	0.13
13.9759	0.131
14.015	0.171
14.0542	0.199
14.0934	0.208
14.1326	0.192
14.1718	0.163
14.211	0.136
14.2501	0.126
14.2893	0.125
14.3285	0.114
14.3677	0.113
14.4069	0.114
14.4461	0.12
14.4852	0.129
14.5244	0.15
14.5636	0.2
14.6028	0.266
14.642	0.332
14.6812	0.397
14.7203	0.453
14.7595	0.501
14.7987	0.534
14.8379	0.562
14.8771	0.581
14.9163	0.596
14.9554	0.598
14.9946	0.597
15.0338	0.597
15.073	0.598
15.1122	0.602
15.1514	0.608
15.1905	0.616
15.2297	0.63
15.2689	0.639
15.3081	0.647
15.3473	0.645
15.3865	0.628
15.4256	0.591
15.4648	0.56
15.504	0.525
15.5432	0.516
15.5824	0.514
15.6216	0.523
15.6607	0.551
15.6999	0.589
15.7391	0.623
15.7783	0.657
15.8175	0.676
15.8567	0.684
15.8958	0.694
15.935	0.711
15.9742	0.716
