Infrared Spectrum: Allycyclohexane
Formula: C 9 H 16
CAS: 2114-42-3
State: gas
Instrument: HP-GC/MS/IRD
Origin: NIST Mass Spectrometry Data Center
1/CM	ABSORBANCE
550	0.0002142
562	3.6e-05
574	0
586	0.0001206
598	0.0001422
610	8.1e-05
622	0.0001692
634	0.0002196
646	0.0003078
658	0.0002754
670	0.0001116
682	0.0001656
694	9.18e-05
706	6.3e-05
718	0.0001044
730	1.98e-05
742	1.8e-05
754	0.0001008
766	5.76e-05
778	5.58e-05
790	4.68e-05
802	7.2e-05
814	0.000144
826	0.0002394
838	0.0002646
850	0.000306
862	0.000297
874	0.0002898
886	0.0004698
898	0.0009828
910	0.001971
922	0.0016632
934	0.0006912
946	0.0004446
958	0.0003816
970	0.0005022
982	0.000702
994	0.0009018
1006	0.0005616
1018	0.0002916
1030	0.0002556
1042	0.000279
1054	0.0002448
1066	0.0001692
1078	0.0001566
1090	0.0001422
1102	0.0001764
1114	0.0001026
1126	0.0001314
1138	0.0001458
1150	0.0001368
1162	0.0001332
1174	0.0001494
1186	0.0001044
1198	0.0001368
1210	0.0001476
1222	0.0001188
1234	9.18e-05
1246	0.0001422
1258	0.0002304
1270	0.0003168
1282	0.0002286
1294	0.0001746
1306	0.0001494
1318	0.0001674
1330	0.0002286
1342	0.000261
1354	0.0002808
1366	0.0002142
1378	0.0001728
1390	0.0001656
1402	0.0002124
1414	0.0002808
1426	0.0004554
1438	0.000972
1450	0.0015264
1462	0.0011142
1474	0.0004122
1486	0.0001584
1498	6.66e-05
1510	2.34e-05
1522	4.14e-05
1534	8.46e-05
1546	6.66e-05
1558	1.8e-05
1570	0.0001062
1582	0.0001008
1594	0.0001242
1606	0.000171
1618	0.0002448
1630	0.0006138
1642	0.0007938
1654	0.0003258
1666	0.0001152
1678	8.28e-05
1690	7.2e-05
1702	4.32e-05
1714	3.96e-05
1726	5.04e-05
1738	2.7e-05
1750	2.34e-05
1762	5.04e-05
1774	4.86e-05
1786	6.3e-05
1798	8.1e-05
1810	0.0001188
1822	0.0002448
1834	0.0002484
1846	0.0001152
1858	8.82e-05
1870	6.12e-05
1882	6.12e-05
1894	5.76e-05
1906	7.56e-05
1918	6.66e-05
1930	6.66e-05
1942	5.22e-05
1954	6.3e-05
1966	7.02e-05
1978	7.92e-05
1990	6.66e-05
2002	4.86e-05
2014	3.24e-05
2026	3.42e-05
2038	3.06e-05
2050	4.86e-05
2062	1.62e-05
2074	4.14e-05
2086	3.6e-05
2098	4.5e-05
2110	3.6e-05
2122	3.24e-05
2134	4.5e-05
2146	1.98e-05
2158	2.88e-05
2170	3.96e-05
2182	3.96e-05
2194	5.4e-05
2206	4.14e-05
2218	1.62e-05
2230	2.52e-05
2242	4.14e-05
2254	2.52e-05
2266	1.98e-05
2278	2.7e-05
2290	3.42e-05
2302	2.16e-05
2314	3.06e-05
2326	1.44e-05
2338	2.34e-05
2350	3.6e-05
2362	0
2374	3.06e-05
2386	3.78e-05
2398	4.32e-05
2410	3.06e-05
2422	1.08e-05
2434	1.98e-05
2446	2.7e-05
2458	4.14e-05
2470	3.6e-05
2482	5.22e-05
2494	4.68e-05
2506	3.42e-05
2518	2.52e-05
2530	5.4e-05
2542	3.06e-05
2554	3.06e-05
2566	2.7e-05
2578	7.38e-05
2590	7.92e-05
2602	0.0001206
2614	0.000135
2626	0.0001026
2638	0.000144
2650	0.0001962
2662	0.0002448
2674	0.000216
2686	0.0001944
2698	0.000153
2710	0.0001008
2722	0.0001008
2734	0.0001116
2746	0.0001278
2758	0.0001206
2770	0.0001854
2782	0.0002592
2794	0.0003312
2806	0.000387
2818	0.0005184
2830	0.0009288
2842	0.0023364
2854	0.0051246
2866	0.0058446
2878	0.003645
2890	0.0032382
2902	0.005247
2914	0.0095238
2926	0.0160992
2938	0.0163242
2950	0.0077004
2962	0.0020088
2974	0.0011574
2986	0.0011358
2998	0.000963
3010	0.0008028
3022	0.0004878
3034	0.0003618
3046	0.0003744
3058	0.0005058
3070	0.00081
3082	0.001287
3094	0.0008658
3106	0.0002772
3118	0.000162
3130	0.0001278
3142	0.000108
3154	0.0001188
3166	0.0001044
3178	6.48e-05
3190	5.58e-05
3202	6.12e-05
3214	6.3e-05
3226	4.32e-05
3238	4.86e-05
3250	6.84e-05
3262	2.7e-05
3274	7.92e-05
3286	6.12e-05
3298	3.96e-05
3310	6.84e-05
3322	2.88e-05
3334	2.34e-05
3346	7.92e-05
3358	3.96e-05
3370	5.76e-05
3382	9e-05
3394	6.84e-05
3406	7.2e-05
3418	3.78e-05
3430	6.12e-05
3442	5.4e-05
3454	4.5e-05
3466	0.0001116
3478	5.22e-05
3490	4.86e-05
3502	5.4e-05
3514	7.02e-05
3526	3.96e-05
3538	7.02e-05
3550	4.68e-05
3562	4.14e-05
3574	9.36e-05
3586	3.96e-05
3598	3.24e-05
3610	7.2e-06
3622	3.6e-05
3634	3.96e-05
3646	6.12e-05
3658	2.16e-05
3670	1.98e-05
3682	6.12e-05
3694	3.78e-05
3706	7.02e-05
3718	9e-05
3730	5.04e-05
3742	8.46e-05
3754	7.56e-05
3766	5.4e-05
3778	8.1e-05
3790	0.000108
3802	5.76e-05
3814	9.18e-05
3826	5.76e-05
3838	8.1e-05
