Infrared Spectrum: .alpha.-Bromopropiophenone
Formula: C 9 H 9 Br O
CAS: 2114-00-3
State: gas
Instrument: HP-GC/MS/IRD
Origin: NIST Mass Spectrometry Data Center
1/CM	ABSORBANCE
550	0.006244
562	0.0091
574	0.006132
586	0.004774
598	0.006818
610	0.008344
622	0.007294
634	0.008638
646	0.02114
658	0.013342
670	0.013958
682	0.030604
694	0.040362
706	0.052136
718	0.023002
730	0.009226
742	0.009352
754	0.006566
766	0.003724
778	0.006524
790	0.011284
802	0.00476
814	0.00105
826	0.000336
838	0.000112
850	0
862	0.000196
874	0.00056
886	0.001204
898	0.002142
910	0.00371
922	0.00917
934	0.028154
946	0.051352
958	0.031668
970	0.016604
982	0.019376
994	0.028154
1006	0.01806
1018	0.004984
1030	0.003808
1042	0.003094
1054	0.006174
1066	0.009436
1078	0.00945
1090	0.01022
1102	0.00798
1114	0.004214
1126	0.003752
1138	0.005082
1150	0.012474
1162	0.0315
1174	0.032802
1186	0.031416
1198	0.028378
1210	0.032228
1222	0.057456
1234	0.070812
1246	0.048916
1258	0.026992
1270	0.020258
1282	0.011494
1294	0.012516
1306	0.015666
1318	0.021476
1330	0.035728
1342	0.037492
1354	0.018088
1366	0.010178
1378	0.016506
1390	0.011844
1402	0.004536
1414	0.004144
1426	0.005698
1438	0.01596
1450	0.034118
1462	0.013692
1474	0.003934
1486	0.002646
1498	0.002002
1510	0.001358
1522	0.001512
1534	0.001918
1546	0.002506
1558	0.00322
1570	0.00616
1582	0.01176
1594	0.013888
1606	0.010416
1618	0.004732
1630	0.00392
1642	0.00399
1654	0.005754
1666	0.010248
1678	0.022176
1690	0.060732
1702	0.134806
1714	0.095172
1726	0.025018
1738	0.010052
1750	0.005278
1762	0.003332
1774	0.002366
1786	0.001862
1798	0.003108
1810	0.003178
1822	0.001624
1834	0.00091
1846	0.000686
1858	0.000686
1870	0.000812
1882	0.001414
1894	0.002058
1906	0.0021
1918	0.001484
1930	0.001134
1942	0.001722
1954	0.002646
1966	0.002548
1978	0.0014
1990	0.000504
2002	0.000266
2014	0.000224
2026	0.000182
2038	0.00014
2050	0.000126
2062	0.00014
2074	7e-05
2086	7e-05
2098	4.2e-05
2110	1.4e-05
2122	0
2134	1.4e-05
2146	9.8e-05
2158	0.000168
2170	0.000112
2182	0.000112
2194	0.000126
2206	4.2e-05
2218	0.000112
2230	0.000126
2242	0.000182
2254	0.00021
2266	0.000168
2278	0.000224
2290	0.000252
2302	0.000238
2314	0.00063
2326	0.000854
2338	0.00063
2350	0.000532
2362	0.000378
2374	0.000448
2386	0.000588
2398	0.000658
2410	0.000476
2422	0.000392
2434	0.000392
2446	0.00042
2458	0.000434
2470	0.000434
2482	0.00021
2494	8.4e-05
2506	9.8e-05
2518	5.6e-05
2530	5.6e-05
2542	9.8e-05
2554	7e-05
2566	4.2e-05
2578	0.000182
2590	0.000266
2602	0.000196
2614	8.4e-05
2626	0.000112
2638	7e-05
2650	0.000112
2662	2.8e-05
2674	2.8e-05
2686	4.2e-05
2698	4.2e-05
2710	1.4e-05
2722	9.8e-05
2734	0.000308
2746	0.000434
2758	0.00028
2770	0.00028
2782	0.000308
2794	0.00028
2806	0.000434
2818	0.000742
2830	0.00098
2842	0.000896
2854	0.001316
2866	0.002926
2878	0.004466
2890	0.003234
2902	0.002534
2914	0.002954
2926	0.008344
2938	0.014994
2950	0.007126
2962	0.004032
2974	0.008316
2986	0.020048
2998	0.011858
3010	0.010892
3022	0.009044
3034	0.01036
3046	0.011396
3058	0.01456
3070	0.025956
3082	0.021812
3094	0.015568
3106	0.008708
3118	0.00357
3130	0.001512
3142	0.00112
3154	0.001092
3166	0.000994
3178	0.000602
3190	0.000448
3202	0.000336
3214	0.000364
3226	0.00035
3238	0.00035
3250	0.000308
3262	0.000182
3274	8.4e-05
3286	0.000168
3298	0.00014
3310	0.000112
3322	0.00014
3334	0.00021
3346	0.000392
3358	0.000588
3370	0.000994
3382	0.002044
3394	0.002268
3406	0.001288
3418	0.000658
3430	0.000364
3442	0.000154
3454	0.000182
3466	0.000112
3478	7e-05
3490	2.8e-05
3502	8.4e-05
3514	5.6e-05
3526	5.6e-05
3538	8.4e-05
3550	9.8e-05
3562	4.2e-05
3574	4.2e-05
3586	8.4e-05
3598	0
3610	9.8e-05
3622	0.000112
3634	0.00014
3646	0.000196
3658	0.000266
3670	0.000266
3682	0.000224
3694	0.000238
3706	0.000378
3718	0.00035
3730	0.000294
3742	0.000168
3754	0.000168
3766	0.000154
3778	0.000126
3790	8.4e-05
3802	0.00021
3814	0.000182
3826	0.000154
3838	0.000112
