Infrared Spectrum: METHANE, (p-BROMOPHENYL)PHENYL-
Formula: C13 H11 Br
CAS: 2116-36-1
State: SOLUTION (10% CCl4 FOR 3800-1330, 10% CS2 FOR 1330-400 CM^-^1)
Class: COBLENTZ III
Instrument: DOW KBr FOREPRISM-GRATING
Instrument parameters: BLAZED AT 3.5, 12.0, 20.0 MICRON AND CHANGED AT 5.0, 7.5, 14.9 MICRON
Sampling: TRANSMISSION
Path length: 0.011 CM, 0.011 CM
Resolution: 2
Origin: DOW CHEMICAL COMPANY
1/CM	TRANSMITTANCE
383	0.9548
392	0.9567
401	0.9618
410	0.9633
419	0.9602
428	0.9564
437	0.9559
446	0.9478
455	0.8756
464	0.7871
473	0.5717
482	0.4585
491	0.939
500	0.9488
509	0.9445
518	0.9463
527	0.9434
536	0.9441
545	0.9465
554	0.9402
563	0.9271
572	0.8694
581	0.7311
590	0.9356
599	0.9441
608	0.9355
617	0.8964
626	0.8532
635	0.8782
644	0.9304
653	0.9318
662	0.9351
671	0.9195
680	0.9021
689	0.8248
698	0.2323
707	0.4436
716	0.6244
725	0.6443
734	0.4666
743	0.1619
752	0.6924
761	0.8678
770	0.8746
779	0.8008
788	0.3764
797	0.5635
806	0.7791
815	0.7921
824	0.7324
833	0.6786
842	0.5406
851	0.8325
860	0.8928
869	0.9077
878	0.9106
887	0.9031
896	0.8841
905	0.8574
914	0.8603
923	0.8678
932	0.8637
941	0.864
950	0.861
959	0.8681
968	0.8781
977	0.8793
986	0.8834
995	0.8628
1004	0.7696
1013	0.0728
1022	0.8134
1031	0.5992
1040	0.8521
1049	0.8499
1058	0.8205
1067	0.7011
1076	0.5026
1085	0.8384
1094	0.7915
1103	0.7537
1112	0.8148
1121	0.8912
1130	0.8962
1139	0.8901
1148	0.8715
1157	0.8512
1166	0.8296
1175	0.7891
1184	0.7886
1193	0.8015
1202	0.801
1211	0.8627
1220	0.859
1229	0.8497
1238	0.8571
1247	0.8675
1256	0.8618
1265	0.8538
1274	0.8535
1283	0.8425
1292	0.8458
1301	0.846
1310	0.8562
1319	0.8387
1328	0.8488
1337	0.8562
1346	0.865
1355	0.8737
1364	0.8806
1373	0.8745
1382	0.8518
1391	0.8388
1400	0.6728
1409	0.7219
1418	0.808
1427	0.7761
1436	0.626
1445	0.7387
1454	0.4254
1463	0.795
1472	0.7906
1481	0.7355
1490	0.0388
1499	0.1786
1508	0.8217
1517	0.8664
1526	0.8723
1535	0.8733
1544	0.8771
1553	0.8801
1562	0.8749
1571	0.8425
1580	0.8203
1589	0.7895
1598	0.7744
1607	0.658
1616	0.8392
1625	0.8618
1634	0.874
1643	0.8724
1652	0.8612
1661	0.8454
1670	0.858
1679	0.8809
1688	0.8821
1697	0.8825
1706	0.8821
1715	0.8805
1724	0.8797
1733	0.8821
1742	0.8784
1751	0.8766
1760	0.8762
1769	0.8611
1778	0.8528
1787	0.8696
1796	0.8471
1805	0.8607
1814	0.8699
1823	0.8753
1832	0.8802
1841	0.8744
1850	0.8682
1859	0.8609
1868	0.8537
1877	0.849
1886	0.8405
1895	0.809
1904	0.8302
1913	0.8636
1922	0.8707
1931	0.8681
1940	0.8432
1949	0.8427
1958	0.8468
1967	0.8671
1976	0.87
1985	0.8706
1994	0.87
2003	0.8341
2012	0.8339
2021	0.8344
2030	0.8343
2039	0.834
2048	0.8334
2057	0.8333
2066	0.8334
2075	0.8336
2084	0.834
2093	0.8339
2102	0.8338
2111	0.8337
2120	0.8334
2129	0.8331
2138	0.8328
2147	0.8328
2156	0.8327
2165	0.8325
2174	0.8325
2183	0.8324
2192	0.8323
2201	0.8321
2210	0.8321
2219	0.8321
2228	0.8321
2237	0.8323
2246	0.8323
2255	0.8323
2264	0.8323
2273	0.8321
2282	0.8318
2291	0.8332
2300	0.8388
2309	0.8527
2318	0.8492
2327	0.8457
2336	0.8436
2345	0.8406
2354	0.8328
2363	0.8331
2372	0.8341
2381	0.8345
2390	0.834
2399	0.8337
2408	0.834
2417	0.834
2426	0.8344
2435	0.8346
2444	0.8348
2453	0.8349
2462	0.8349
2471	0.835
2480	0.8352
2489	0.8353
2498	0.8355
2507	0.8353
2516	0.8349
2525	0.8343
2534	0.8334
2543	0.8323
2552	0.8305
2561	0.8286
2570	0.8275
2579	0.8278
2588	0.8286
2597	0.8299
2606	0.8317
2615	0.8332
2624	0.8347
2633	0.836
2642	0.8375
2651	0.839
2660	0.8403
2669	0.8414
2678	0.8423
2687	0.8421
2696	0.8421
2705	0.8415
2714	0.8402
2723	0.8388
2732	0.8368
2741	0.835
2750	0.8337
2759	0.8337
2768	0.8343
2777	0.8346
2786	0.8356
2795	0.8356
2804	0.8353
2813	0.8278
2822	0.8081
2831	0.7822
2840	0.7501
2849	0.7685
2858	0.7941
2867	0.7975
2876	0.7925
2885	0.7717
2894	0.7307
2903	0.6592
2912	0.6428
2921	0.6506
2930	0.7071
2939	0.7591
2948	0.7844
2957	0.8011
2966	0.8035
2975	0.8049
2984	0.8054
2993	0.7936
3002	0.7637
3011	0.7498
3020	0.6654
3029	0.4489
3038	0.5923
3047	0.7219
3056	0.6705
3065	0.5899
3074	0.701
3083	0.6468
3092	0.758
3101	0.7871
3110	0.7943
3119	0.8412
3128	0.8444
3137	0.8462
3146	0.8481
3155	0.8498
3164	0.8512
3173	0.8525
3182	0.8544
3191	0.8561
3200	0.8573
3209	0.8585
3218	0.8598
3227	0.8607
3236	0.8614
3245	0.862
3254	0.8624
3263	0.8618
3272	0.8611
3281	0.8602
3290	0.8595
3299	0.859
3308	0.8596
3317	0.8603
3326	0.8618
3335	0.8638
3344	0.8661
3353	0.8682
3362	0.8697
3371	0.8708
3380	0.872
3389	0.8731
3398	0.8725
3407	0.8721
3416	0.8723
3425	0.8725
3434	0.8727
3443	0.8728
3452	0.8733
3461	0.8735
3470	0.8738
3479	0.8741
3488	0.8743
3497	0.8739
3506	0.8736
3515	0.8732
3524	0.8733
3533	0.8735
3542	0.873
3551	0.8723
3560	0.8715
3569	0.8685
3578	0.8615
3587	0.8635
3596	0.8636
3605	0.858
3614	0.8653
3623	0.8733
3632	0.8737
3641	0.8723
3650	0.8711
3659	0.8703
3668	0.8713
3677	0.8728
3686	0.8744
3695	0.8757
3704	0.8762
3713	0.8707
3722	0.8717
3731	0.8747
3740	0.8774
3749	0.8781
3758	0.8778
3767	0.8775
3776	0.8773
3785	0.8768
3794	0.8758
