Infrared Spectrum: Phenyltris(trimethylsiloxy)silane
Formula: C15 H32 O3 Si4
CAS: 2116-84-9
State: SOLUTION (10% CCl4 FOR 3800-1300, 2% CS2 FOR 1300-650, AND 10% CCl4 FOR 650-250) VS SOLVENT
Boiling point: 105 C AT 13 mmHg
Class: COBLENTZ III
Instrument: PERKIN-ELMER 521 (GRATING)
Instrument parameters: FILTERS AT 3150, 2500, 2000, 1150, 700, 410. GRATING CHANGES: 2000, 630
Path length: 0.011 CM, 0.011 CM, AND 0.019 CM
Resolution: 2
Origin: DOW CORNING CORP.
1/CM	TRANSMITTANCE
216	0.7049
226	0.7041
236	0.7037
246	0.7029
256	0.6992
266	0.6723
276	0.6149
286	0.5432
296	0.462
306	0.457
316	0.4445
326	0.4147
336	0.5083
346	0.4563
356	0.3676
366	0.3178
376	0.3346
386	0.4165
396	0.5146
406	0.5167
416	0.4557
426	0.3469
436	0.336
446	0.5091
456	0.6517
466	0.5149
476	0.3518
486	0.7076
496	0.7719
506	0.7626
516	0.7183
526	0.6204
536	0.2609
546	0.0573
556	0.5134
566	0.6651
576	0.5943
586	0.2551
596	0.1412
606	0.696
616	0.804
626	0.7922
636	0.7514
646	0.7527
656	0.8569
666	0.8328
676	0.8043
686	0.7328
696	0.5105
706	0.7563
716	0.708
726	0.819
736	0.684
746	0.5549
756	0.5417
766	0.7741
776	0.839
786	0.8378
796	0.8274
806	0.7856
816	0.6864
826	0.4702
836	0.0867
846	0.1835
856	0.2447
866	0.5704
876	0.7379
886	0.8159
896	0.8509
906	0.8757
916	0.8978
926	0.9082
936	0.9078
946	0.9065
956	0.9024
966	0.8874
976	0.8788
986	0.8594
996	0.8168
1006	0.7528
1016	0.6597
1026	0.4952
1036	0.3017
1046	0.1194
1056	0.0736
1066	0.1234
1076	0.2088
1086	0.3052
1096	0.3489
1106	0.5345
1116	0.6214
1126	0.2383
1136	0.7139
1146	0.8314
1156	0.8748
1166	0.8904
1176	0.9052
1186	0.905
1196	0.9067
1206	0.8963
1216	0.8824
1226	0.8182
1236	0.7226
1246	0.1523
1256	0.33
1266	0.8141
1276	0.8356
1286	0.8772
1296	0.858
1306	0.8099
1316	0.8054
1326	0.8034
1336	0.8255
1346	0.8298
1356	0.825
1366	0.8104
1376	0.8063
1386	0.7696
1396	0.6827
1406	0.6288
1416	0.6722
1426	0.3182
1436	0.677
1446	0.6919
1456	0.7431
1466	0.8219
1476	0.8199
1486	0.7802
1496	0.8524
1506	0.8628
1516	0.8718
1526	0.8764
1536	0.8741
1546	0.8727
1556	0.8798
1566	0.8772
1576	0.8648
1586	0.8347
1596	0.866
1606	0.8666
1616	0.87
1626	0.8748
1636	0.8714
1646	0.8624
1656	0.8556
1666	0.8787
1676	0.8826
1686	0.8845
1696	0.883
1706	0.8811
1716	0.8786
1726	0.8667
1736	0.8632
1746	0.8617
1756	0.8574
1766	0.8617
1776	0.8719
1786	0.8815
1796	0.8853
1806	0.8849
1816	0.8727
1826	0.8833
1836	0.8784
1846	0.8855
1856	0.8948
1866	0.8987
1876	0.8836
1886	0.8727
1896	0.8741
1906	0.891
1916	0.8849
1926	0.8729
1936	0.8572
1946	0.8563
1956	0.8694
1966	0.8834
1976	0.8972
1986	0.8956
1996	0.9041
2006	0.9017
2016	0.9052
2026	0.9077
2036	0.9102
2046	0.9101
2056	0.9078
2066	0.9052
2076	0.9014
2086	0.8965
2096	0.8925
2106	0.8967
2116	0.8984
2126	0.8998
2136	0.9024
2146	0.9054
2156	0.9052
2166	0.9064
2176	0.9072
2186	0.904
2196	0.9037
2206	0.9044
2216	0.9054
2226	0.9059
2236	0.9026
2246	0.9
2256	0.9052
2266	0.9031
2276	0.9042
2286	0.9078
2296	0.9112
2306	0.9102
2316	0.91
2326	0.9084
2336	0.9063
2346	0.9096
2356	0.9096
2366	0.9079
2376	0.9064
2386	0.9066
2396	0.9068
2406	0.9066
2416	0.9065
2426	0.9064
2436	0.9062
2446	0.9047
2456	0.9005
2466	0.8955
2476	0.8913
2486	0.8896
2496	0.8919
2506	0.8963
2516	0.9011
2526	0.9008
2536	0.9005
2546	0.9001
2556	0.899
2566	0.8978
2576	0.8964
2586	0.895
2596	0.8939
2606	0.8929
2616	0.8919
2626	0.8917
2636	0.8912
2646	0.8902
2656	0.8901
2666	0.893
2676	0.8938
2686	0.8944
2696	0.8951
2706	0.8941
2716	0.891
2726	0.8926
2736	0.8864
2746	0.8806
2756	0.8757
2766	0.8692
2776	0.8605
2786	0.8409
2796	0.8377
2806	0.836
2816	0.8345
2826	0.8317
2836	0.8259
2846	0.8189
2856	0.8185
2866	0.8068
2876	0.7879
2886	0.7445
2896	0.623
2906	0.5914
2916	0.7057
2926	0.7007
2936	0.6657
2946	0.5113
2956	0.2811
2966	0.0762
2976	0.3336
2986	0.6254
2996	0.7409
3006	0.6812
3016	0.7118
3026	0.7332
3036	0.735
3046	0.7475
3056	0.6697
3066	0.7177
3076	0.6079
3086	0.7439
3096	0.8107
3106	0.8382
3116	0.8591
3126	0.8624
3136	0.8684
3146	0.8705
3156	0.8846
3166	0.8884
3176	0.892
3186	0.8948
3196	0.8972
3206	0.8997
3216	0.9016
3226	0.9034
3236	0.9054
3246	0.9074
3256	0.91
3266	0.9124
3276	0.9127
3286	0.9134
3296	0.9138
3306	0.914
3316	0.9144
3326	0.9148
3336	0.9149
3346	0.9142
3356	0.9149
3366	0.9158
3376	0.9171
3386	0.9167
3396	0.9165
3406	0.9171
3416	0.9183
3426	0.9185
3436	0.9189
3446	0.9194
3456	0.921
3466	0.9214
3476	0.9193
3486	0.9189
3496	0.9182
3506	0.9182
3516	0.9186
3526	0.9184
3536	0.9174
3546	0.9182
3556	0.9182
3566	0.9129
3576	0.9147
3586	0.9122
3596	0.9153
3606	0.9114
3616	0.9111
3626	0.9115
3636	0.9085
3646	0.9013
3656	0.8961
3666	0.8971
3676	0.8983
3686	0.9094
3696	0.9066
3706	0.9034
3716	0.894
3726	0.8939
3736	0.8943
3746	0.8948
3756	0.8955
3766	0.8969
3776	0.8986
3786	0.9016
3796	0.9041
3806	0.9023
3816	0.9034
