Infrared Spectrum: 3-Chlorobenzo[b]thiophene-2-carboxylic acid
Formula: C 9 H 5 Cl O 2 S
CAS: 21211-22-3
State: gas
Origin: EPA-IR VAPOR PHASE LIBRARY
1/CM	ABSORBANCE
549.8	0.007482
559.445	0.007782
569.09	0.003552
578.734	0.003252
588.379	0.007072
598.024	0.010182
607.669	0.006672
617.313	0.003652
626.958	0.001832
636.603	0.0013209
646.248	0.002392
655.893	0.0016517
665.537	0.002632
675.182	0.007972
684.827	0.006412
694.472	0.002172
704.116	0.001872
713.761	0.003672
723.406	0.008942
733.051	0.008082
742.695	0.011022
752.34	0.017792
761.985	0.008512
771.63	0.003022
781.275	0.0017132
790.919	0.002272
800.564	0.002432
810.209	0.002302
819.854	0.002652
829.498	0.003692
839.143	0.004712
848.788	0.004832
858.433	0.002562
868.078	0.0016354
877.722	0.0017305
887.367	0.0012716
897.012	0.0012481
906.657	0.0011125
916.301	0.002792
925.946	0.007182
935.591	0.010092
945.236	0.005572
954.88	0.002422
964.525	0.001992
974.17	0.002132
983.815	0.001842
993.46	0.002222
1003.1	0.002492
1012.75	0.003842
1022.39	0.004602
1032.04	0.006532
1041.68	0.008072
1051.33	0.006942
1060.97	0.005772
1070.62	0.005012
1080.26	0.008052
1089.91	0.009622
1099.55	0.004782
1109.2	0.004792
1118.84	0.008262
1128.49	0.018762
1138.13	0.024592
1147.78	0.026502
1157.42	0.023322
1167.07	0.018352
1176.71	0.018962
1186.36	0.017562
1196	0.009002
1205.64	0.005192
1215.29	0.005522
1224.93	0.004912
1234.58	0.005162
1244.22	0.007132
1253.87	0.009102
1263.51	0.007402
1273.16	0.007912
1282.8	0.009422
1292.45	0.012612
1302.09	0.015602
1311.74	0.017352
1321.38	0.012902
1331.03	0.011892
1340.67	0.011402
1350.32	0.009892
1359.96	0.009542
1369.61	0.009252
1379.25	0.006092
1388.9	0.003052
1398.54	0.002212
1408.18	0.0017412
1417.83	0.001922
1427.47	0.003492
1437.12	0.003622
1446.76	0.002172
1456.41	0.002552
1466.05	0.002122
1475.7	0.002202
1485.34	0.003632
1494.99	0.006872
1504.63	0.015462
1514.28	0.023092
1523.92	0.014482
1533.57	0.006012
1543.21	0.003792
1552.86	0.004042
1562.5	0.003392
1572.15	0.002252
1581.79	0.002542
1591.44	0.003192
1601.08	0.003072
1610.73	0.002702
1620.37	0.001802
1630.01	0.0014693
1639.66	0.001216
1649.3	0.0012985
1658.95	0.0014281
1668.59	0.001547
1678.24	0.001782
1687.88	0.002452
1697.53	0.003352
1707.17	0.004182
1716.82	0.006832
1726.46	0.012382
1736.11	0.031002
1745.75	0.039922
1755.4	0.040692
1765.04	0.048582
1774.69	0.018212
1784.33	0.007522
1793.98	0.005532
1803.62	0.004132
1813.27	0.003592
1822.91	0.002502
1832.55	0.0016223
1842.2	0.001443
1851.84	0.0010871
1861.49	0.0011683
1871.13	0.0010262
1880.78	0.0013021
1890.42	0.0013394
1900.07	0.0012557
1909.71	0.0014186
1919.36	0.0010159
1929	0.0009127
1938.65	0.0012019
1948.29	0.0011406
1957.94	0.000876
1967.58	0.00084761
1977.23	0.0007161
1986.87	0.000722
1996.52	0.000649
2006.16	0.00077375
2015.81	0.0006631
2025.45	0.00074953
2035.1	0.0006742
2044.74	0.0006688
2054.38	0.000637
2064.03	0.00074981
2073.67	0.00061
2083.32	0.000553
2092.96	0.000541
2102.61	0.000756279
2112.25	0.0006718
2121.9	0.000454
2131.54	0.00051
2141.19	0.000606
2150.83	0.000577
2160.48	0.000614
2170.12	0.00078609
2179.77	0.000612
2189.41	0.000634
2199.06	0.000635
2208.7	0.000546
2218.35	0.000577
2227.99	0.000476
2237.64	0.000414
2247.28	0.000388
2256.92	0.000607
2266.57	0.00082873
2276.21	0.0008837
2285.86	0.00077726
2295.5	0.0013342
2305.15	0.001882
2314.79	0.002922
2324.44	0.003192
2334.08	0.002832
2343.73	0.002632
2353.37	0.002972
2363.02	0.003772
2372.66	0.003112
2382.31	0.0015569
2391.95	0.000576
2401.6	0.000574
2411.24	0.000577
2420.89	0.0006943
2430.53	0.000506
2440.18	0.000544
2449.82	0.0007399
2459.47	0.000641
2469.11	0.000628
2478.75	0.000623
2488.4	0.000472
2498.04	0.0006697
2507.69	0.000609
2517.33	0.00080832
2526.98	0.000699
2536.62	0.000541
2546.27	0.0005
2555.91	0.0006643
2565.56	0.000572
2575.2	0.000515
2584.85	0.00061
2594.49	0.000521
2604.14	0.000615
2613.78	0.000761611
2623.43	0.000754227
2633.07	0.000751111
2642.72	0.000514
2652.36	0.000496
2662.01	0.000564
2671.65	0.000444
2681.29	0.000585
2690.94	0.000382
2700.58	0.000513
2710.23	0.000471
2719.87	0.000492
2729.52	0.0006765
2739.16	0.000672
2748.81	0.000633
2758.45	0.000447
2768.1	0.000525
2777.74	0.000407
2787.39	0.000613
2797.03	0.000414
2806.68	0.0006538
2816.32	0.000479
2825.97	0.000437
2835.61	0.00076551
2845.26	0.0007358
2854.9	0.000565
2864.55	0.00052
2874.19	0.000607
2883.84	0.000549
2893.48	0.0009508
2903.12	0.000442
2912.77	0.000754575
2922.41	0.000468
2932.06	0.0007216
2941.7	0.00057
2951.35	0.000426
2960.99	0.0006581
2970.64	0.0008809
2980.28	0.0007219
2989.93	0.000594
2999.57	0.000425
3009.22	0.0009448
3018.86	0.000604
3028.51	0.000904
3038.15	0.0011931
3047.8	0.001057
3057.44	0.002262
3067.09	0.004262
3076.73	0.005272
3086.38	0.002832
3096.02	0.001162
3105.67	0.00084581
3115.31	0.0009802
3124.95	0.0010987
3134.6	0.000618
3144.24	0.000482
3153.89	0.000467
3163.53	0.000517
3173.18	7.5e-05
3182.82	0.000491
3192.47	0.000399
3202.11	0.00078301
3211.76	0.000598
3221.4	0.000587
3231.05	0.000497
3240.69	0.000368
3250.34	0.0006698
3259.98	0.000541
3269.63	0.000711
3279.27	0.00075097
3288.92	0.00078361
3298.56	0.000487
3308.21	0.0008199
3317.85	0.000512
3327.49	0.0009386
3337.14	0.000607
3346.78	0.000348
3356.43	0.00081922
3366.07	0.0007303
3375.72	0.000457
3385.36	0.000408
3395.01	0.000381
3404.65	0.000505
3414.3	0.000611
3423.94	0.000326
3433.59	0.0007116
3443.23	0.00041
3452.88	0.00080545
3462.52	0.0011302
3472.17	0.001023
3481.81	0.0006655
3491.46	0.000532
3501.1	0.001232
3510.75	0.0010177
3520.39	0.0014488
3530.04	0.001972
3539.68	0.002072
3549.32	0.001782
3558.97	0.004082
3568.61	0.016452
3578.26	0.022502
3587.9	0.012972
3597.55	0.002762
3607.19	0.0011574
3616.84	0.000544
3626.48	0.000488
3636.13	0.0010212
3645.77	0.0010065
3655.42	0.0005
3665.06	0.00078576
3674.71	0.000593
3684.35	0.000553
3694	0.0009004
3703.64	0.0009758
3713.29	0.000369
3722.93	0.000406
3732.58	0.000383
3742.22	0.0009225
3751.86	0.000625
3761.51	0.000639
3771.15	0.000375
3780.8	0.000389
3790.44	0.0007135
3800.09	0.00083524
3809.73	0.000491
3819.38	0.0007024
3829.02	0.000266
3838.67	0.000399
3848.31	0.000606
3857.96	0.000414
3867.6	0.000464
3877.25	0.000328
3886.89	0.000358
3896.54	0
3906.18	0.00084895
3915.83	0.00084135
3925.47	0.0009453
3935.12	0.000557
3944.76	0.000646
3954.41	0.000387
3964.05	0.000451
3973.69	0.00048
3983.34	0.000531
3992.98	0.000167
