Infrared Spectrum: 3,5'-Bis(trifluoromethyl)benzophenone
Formula: C 15 H 8 F 6 O
CAS: 21221-93-2
State: gas
Origin: EPA-IR VAPOR PHASE LIBRARY
1/CM	ABSORBANCE
549.9	0.0045081
559.547	0.0045355
569.193	0.0047096
578.84	0.0049192
588.486	0.00661
598.133	0.00553
607.779	0.00607
617.426	0.01372
627.072	0.02142
636.719	0.01293
646.365	0.01721
656.012	0.04322
665.658	0.04
675.305	0.03704
684.951	0.09868
694.598	0.04756
704.245	0.04668
713.891	0.04272
723.538	0.05577
733.184	0.0224
742.831	0.01029
752.477	0.00755
762.124	0.00669
771.77	0.00674
781.417	0.00986
791.063	0.03053
800.71	0.03205
810.356	0.01006
820.003	0.00646
829.649	0.00688
839.296	0.0177
848.943	0.02942
858.589	0.01164
868.236	0.0050252
877.882	0.0045414
887.529	0.00599
897.175	0.01097
906.822	0.04434
916.468	0.02678
926.115	0.01003
935.761	0.00846
945.408	0.00595
955.054	0.00613
964.701	0.00963
974.347	0.0156
983.994	0.00611
993.64	0.00625
1003.29	0.00892
1012.93	0.00543
1022.58	0.00812
1032.23	0.00917
1041.87	0.00637
1051.52	0.00628
1061.17	0.00768
1070.81	0.01033
1080.46	0.00967
1090.11	0.01137
1099.75	0.02209
1109.4	0.03856
1119.05	0.03556
1128.69	0.05422
1138.34	0.12601
1147.99	0.41766
1157.63	0.57604
1167.28	0.17397
1176.92	0.20892
1186.57	0.34814
1196.22	0.18349
1205.86	0.07439
1215.51	0.06715
1225.16	0.07077
1234.8	0.1149
1244.45	0.1919
1254.1	0.27312
1263.74	0.22339
1273.39	0.48705
1283.04	0.74057
1292.68	0.12474
1302.33	0.04741
1311.98	0.0394
1321.62	0.02455
1331.27	0.01561
1340.92	0.01464
1350.56	0.01635
1360.21	0.02908
1369.86	0.05391
1379.5	0.0431
1389.15	0.01801
1398.79	0.00998
1408.44	0.00857
1418.09	0.00789
1427.73	0.00843
1437.38	0.01126
1447.03	0.02157
1456.67	0.01256
1466.32	0.00696
1475.97	0.00589
1485.61	0.00545
1495.26	0.00572
1504.91	0.00552
1514.55	0.00595
1524.2	0.0050964
1533.85	0.0047951
1543.49	0.0048016
1553.14	0.0053
1562.79	0.00647
1572.43	0.00907
1582.08	0.01154
1591.73	0.01532
1601.37	0.02151
1611.02	0.02371
1620.67	0.02191
1630.31	0.01165
1639.96	0.01005
1649.6	0.01152
1659.25	0.01281
1668.9	0.02012
1678.54	0.05737
1688.19	0.13238
1697.84	0.05459
1707.48	0.02731
1717.13	0.01557
1726.78	0.01243
1736.42	0.00763
1746.07	0.00564
1755.72	0.0050322
1765.36	0.0054
1775.01	0.00527
1784.66	0.0043957
1794.3	0.0043947
1803.95	0.00536
1813.6	0.00689
1823.24	0.00726
1832.89	0.00727
1842.54	0.00592
1852.18	0.0050911
1861.83	0.0048448
1871.47	0.0042001
1881.12	0.00381
1890.77	0.004058
1900.41	0.0044273
1910.06	0.004119
1919.71	0.00342
1929.35	0.00303
1939	0.003368
1948.65	0.00425573
1958.29	0.0047614
1967.94	0.004038
1977.59	0.003841
1987.23	0.00318
1996.88	0.003269
2006.53	0.00292
2016.17	0.00263
2025.82	0.00269
2035.47	0.00261
2045.11	0.00251
2054.76	0.00257
2064.41	0.00255
2074.05	0.00257
2083.7	0.00244
2093.35	0.00226
2102.99	0.00223
2112.64	0.0023
2122.28	0.0025
2131.93	0.00247
2141.58	0.00218
2151.22	0.00225
2160.87	0.0025
2170.52	0.00255
2180.16	0.00236
2189.81	0.00223
2199.46	0.00228
2209.1	0.00257
2218.75	0.00281
2228.4	0.00279
2238.04	0.00284
2247.69	0.00313
2257.34	0.003287
2266.98	0.00312
2276.63	0.003427
2286.28	0.003892
2295.92	0.003799
2305.57	0.003421
2315.22	0.00318
2324.86	0.003391
2334.51	0.003252
2344.16	0.003461
2353.8	0.00309
2363.45	0.00305
2373.09	0.00299
2382.74	0.00304
2392.39	0.0029
2402.03	0.00275
2411.68	0.00265
2421.33	0.00261
2430.97	0.0025
2440.62	0.00225
2450.27	0.00215
2459.91	0.00216
2469.56	0.00202
2479.21	0.00191
2488.85	0.00186
2498.5	0.00182
2508.15	0.00184
2517.79	0.00204
2527.44	0.00218
2537.09	0.00212
2546.73	0.00224
2556.38	0.00238
2566.03	0.00206
2575.67	0.00183
2585.32	0.00193
2594.96	0.00205
2604.61	0.00194
2614.26	0.00185
2623.9	0.00188
2633.55	0.00189
2643.2	0.00198
2652.84	0.00195
2662.49	0.00169
2672.14	0.00139
2681.78	0.00134
2691.43	0.00134
2701.08	0.00138
2710.72	0.00142
2720.37	0.00139
2730.02	0.00142
2739.66	0.00145
2749.31	0.00156
2758.96	0.00143
2768.6	0.00135
2778.25	0.00123
2787.9	0.0011
2797.54	0.00104
2807.19	0.00097
2816.84	0.00107
2826.48	0.00112
2836.13	0.00124
2845.77	0.00131
2855.42	0.00119
2865.07	0.00123
2874.71	0.00118
2884.36	0.00122
2894.01	0.00111
2903.65	0.00091
2913.3	0.00077
2922.95	0.00075
2932.59	0.00072
2942.24	0.00059
2951.89	0.00051
2961.53	0.00084
2971.18	0.001
2980.83	0.00125
2990.47	0.00131
3000.12	0.00131
3009.77	0.00127
3019.41	0.00244
3029.06	0.00547
3038.71	0.00742
3048.35	0.00562
3058	0.00692
3067.64	0.01449
3077.29	0.01772
3086.94	0.01467
3096.58	0.01045
3106.23	0.0052256
3115.88	0.00193
3125.52	0.00088
3135.17	0.00064
3144.82	0.00072
3154.46	0.00049
3164.11	0.00034
3173.76	0.00034
3183.4	0.00012
3193.05	0.00025
3202.7	0.00011
3212.34	0.00012
3221.99	0.00014
3231.64	0
3241.28	0.00012
3250.93	0.00025
3260.58	0.00023
3270.22	0.00036
3279.87	0.00029
3289.52	0.00032
3299.16	0.00061
3308.81	0.00054
3318.45	0.00073
3328.1	0.00091
3337.75	0.00084
3347.39	0.00155
3357.04	0.00263
3366.69	0.00182
3376.33	0.00123
3385.98	0.00124
3395.63	0.00111
3405.27	0.00113
3414.92	0.00107
3424.57	0.00102
3434.21	0.00109
3443.86	0.00112
3453.51	0.00123
3463.15	0.00117
3472.8	0.00127
3482.45	0.0013
3492.09	0.00131
3501.74	0.00136
3511.39	0.00139
3521.03	0.00135
3530.68	0.00141
3540.33	0.00153
3549.97	0.0016
3559.62	0.00148
3569.26	0.00167
3578.91	0.00172
3588.56	0.00165
3598.2	0.00169
3607.85	0.00165
3617.5	0.00173
3627.14	0.00188
3636.79	0.00186
3646.44	0.00196
3656.08	0.00202
3665.73	0.0019
3675.38	0.002
3685.02	0.00195
3694.67	0.00201
3704.32	0.00216
3713.96	0.00202
3723.61	0.00213
3733.26	0.00207
3742.9	0.00202
3752.55	0.00199
3762.2	0.00205
3771.84	0.00193
3781.49	0.00212
3791.13	0.00204
3800.78	0.00203
3810.43	0.00198
3820.07	0.00205
3829.72	0.00195
3839.37	0.00188
3849.01	0.00199
3858.66	0.00204
3868.31	0.00203
3877.95	0.002
3887.6	0.00209
3897.25	0.00197
3906.89	0.00201
3916.54	0.00199
3926.19	0.00201
3935.83	0.00196
3945.48	0.00203
3955.13	0.00193
3964.77	0.00188
3974.42	0.00211
3984.07	0.00207
3993.71	0.00194
