Infrared Spectrum: ETHANOL, 2-(2,4,5-TRICHLOROPHENOXY)-
Formula: C8 H7 Cl3 O2
CAS: 2122-77-2
State: SOLUTION (10% IN CCl4 FOR 3800-1300, 10% IN CS2 FOR 1300-650, AND 10% IN CCl4 FOR 650-240 CM^-^1) VERSUS SOLVENT
Class: COBLENTZ II
Instrument: PERKIN-ELMER 521 (GRATING)
Instrument parameters: GRATING CHANGES AT 2000, 630 CM^-^1
Sampling: TRANSMISSION
Path length: 0.010, 0.010, AND 0.020 CM (CsBr CELL)
Resolution: 4
Origin: DOW CORNING CORP.
1/CM	TRANSMITTANCE
227.22	0.853
236.421	0.85
245.623	0.836
254.824	0.808
264.025	0.783
273.226	0.761
282.428	0.749
291.629	0.757
300.83	0.768
310.032	0.734
319.233	0.71
328.434	0.67
337.636	0.667
346.837	0.673
356.038	0.682
365.239	0.675
374.441	0.729
383.642	0.765
392.843	0.806
402.045	0.831
411.246	0.811
420.447	0.792
429.649	0.826
438.85	0.7111
448.051	0.7059
457.252	0.857
466.454	0.905
475.655	0.925
484.856	0.919
494.058	0.896
503.259	0.789
512.46	0.8419
521.662	0.896
530.863	0.872
540.064	0.868
549.265	0.847
558.467	0.765
567.668	0.662
576.869	0.831
586.071	0.846
595.272	0.885
604.473	0.897
613.674	0.9
622.876	0.871
632.077	0.878
641.278	0.885
650.48	0.88
659.681	0.88
668.882	0.847
678.084	0.603
687.285	0.825
696.486	0.878
705.687	0.898
714.889	0.878
724.09	0.767
733.291	0.713
742.493	0.5121
751.694	0.5648
760.895	0.875
770.097	0.909
779.298	0.914
788.499	0.915
797.7	0.916
806.902	0.915
816.103	0.903
825.304	0.867
834.506	0.551
843.707	0.796
852.908	0.772
862.11	0.576
871.311	0.35
880.512	0.4327
889.713	0.659
898.915	0.554
908.116	0.682
917.317	0.857
926.519	0.857
935.72	0.88
944.921	0.853
954.123	0.573
963.324	0.862
972.525	0.912
981.726	0.909
990.928	0.891
1000.13	0.879
1009.33	0.788
1018.53	0.624
1027.73	0.422
1036.93	0.162
1046.14	0.39
1055.34	0.497
1064.54	0.4081
1073.74	0.1571
1082.94	0.033
1092.14	0.3667
1101.34	0.5699
1110.54	0.753
1119.75	0.664
1128.95	0.378
1138.15	0.303
1147.35	0.729
1156.55	0.869
1165.75	0.89
1174.95	0.889
1184.15	0.886
1193.36	0.824
1202.56	0.657
1211.76	0.724
1220.96	0.698
1230.16	0.491
1239.36	0.292
1248.56	0.141
1257.77	0.4209
1266.97	0.569
1276.17	0.4261
1285.37	0.3439
1294.57	0.681
1303.77	0.795
1312.97	0.779
1322.17	0.782
1331.38	0.724
1340.58	0.3571
1349.78	0.1121
1358.98	0.382
1368.18	0.558
1377.38	0.558
1386.58	0.695
1395.78	0.68
1404.99	0.711
1414.19	0.74
1423.39	0.746
1432.59	0.695
1441.79	0.4263
1450.99	0.0311
1460.19	0.209
1469.4	0.22
1478.6	0.062
1487.8	0.3489
1497	0.63
1506.2	0.785
1515.4	0.837
1524.6	0.867
1533.8	0.901
1543.01	0.896
1552.21	0.862
1561.41	0.804
1570.61	0.76
1579.81	0.594
1589.01	0.552
1598.21	0.795
1607.41	0.898
1616.62	0.912
1625.82	0.918
1635.02	0.918
1644.22	0.918
1653.42	0.915
1662.62	0.907
1671.82	0.905
1681.03	0.916
1690.23	0.918
1699.43	0.915
1708.63	0.903
1717.83	0.911
1727.03	0.918
1736.23	0.912
1745.43	0.897
1754.64	0.912
1763.84	0.923
1773.04	0.929
1782.24	0.926
1791.44	0.925
1800.64	0.925
1809.84	0.923
1819.04	0.923
1828.25	0.929
1837.45	0.933
1846.65	0.934
1855.85	0.936
1865.05	0.936
1874.25	0.934
1883.45	0.93
1892.65	0.929
1901.86	0.922
1911.06	0.926
1920.26	0.929
1929.46	0.932
1938.66	0.93
1947.86	0.929
1957.06	0.927
1966.27	0.925
1975.47	0.925
1984.67	0.923
1993.87	0.926
2003.07	0.933
2012.27	0.932
2021.47	0.9294
2030.67	0.927
2039.88	0.9283
2049.08	0.929
2058.28	0.9275
2067.48	0.923
2076.68	0.923
2085.88	0.926
2095.08	0.9221
2104.28	0.921
2113.49	0.919
2122.69	0.919
2131.89	0.919
2141.09	0.9201
2150.29	0.921
2159.49	0.921
2168.69	0.921
2177.9	0.921
2187.1	0.921
2196.3	0.9194
2205.5	0.919
2214.7	0.919
2223.9	0.918
2233.1	0.9189
2242.3	0.9215
2251.51	0.923
2260.71	0.922
2269.91	0.921
2279.11	0.919
2288.31	0.916
2297.51	0.915
2306.71	0.9165
2315.91	0.9206
2325.12	0.9223
2334.32	0.923
2343.52	0.922
2352.72	0.921
2361.92	0.918
2371.12	0.916
2380.32	0.916
2389.52	0.916
2398.73	0.915
2407.93	0.914
2417.13	0.912
2426.33	0.912
2435.53	0.912
2444.73	0.912
2453.93	0.9112
2463.14	0.909
2472.34	0.9081
2481.54	0.908
2490.74	0.907
2499.94	0.9035
2509.14	0.8979
2518.34	0.8918
2527.54	0.887
2536.75	0.893
2545.95	0.8984
2555.15	0.904
2564.35	0.905
2573.55	0.904
2582.75	0.904
2591.95	0.903
2601.15	0.903
2610.36	0.904
2619.56	0.904
2628.76	0.9041
2637.96	0.9062
2647.16	0.907
2656.36	0.907
2665.56	0.904
2674.77	0.9003
2683.97	0.896
2693.17	0.8932
2702.37	0.8907
2711.57	0.8861
2720.77	0.8842
2729.97	0.8849
2739.17	0.8865
2748.38	0.89
2757.58	0.891
2766.78	0.8899
2775.98	0.885
2785.18	0.879
2794.38	0.8728
2803.58	0.869
2812.78	0.867
2821.99	0.8607
2831.19	0.8491
2840.39	0.8374
2849.59	0.8155
2858.79	0.7872
2867.99	0.7266
2877.19	0.6379
2886.39	0.7139
2895.6	0.7439
2904.8	0.7453
2914	0.7199
2923.2	0.612
2932.4	0.552
2941.6	0.516
2950.8	0.5492
2960.01	0.6116
2969.21	0.691
2978.41	0.7875
2987.61	0.849
2996.81	0.8708
3006.01	0.8832
3015.21	0.8883
3024.41	0.8902
3033.62	0.891
3042.82	0.891
3052.02	0.89
3061.22	0.89
3070.42	0.8873
3079.62	0.8826
3088.82	0.8732
3098.02	0.8519
3107.23	0.849
3116.43	0.8781
3125.63	0.8901
3134.83	0.8952
3144.03	0.896
3153.23	0.896
3162.43	0.896
3171.64	0.894
3180.84	0.894
3190.04	0.894
3199.24	0.893
3208.44	0.8901
3217.64	0.8881
3226.84	0.883
3236.04	0.88
3245.25	0.8759
3254.45	0.872
3263.65	0.8689
3272.85	0.8607
3282.05	0.8548
3291.25	0.8493
3300.45	0.8414
3309.65	0.8334
3318.86	0.8253
3328.06	0.8112
3337.26	0.8036
3346.46	0.795
3355.66	0.7885
3364.86	0.779
3374.06	0.7744
3383.27	0.7668
3392.47	0.7603
3401.67	0.7538
3410.87	0.7453
3420.07	0.7375
3429.27	0.7294
3438.47	0.724
3447.67	0.721
3456.88	0.721
3466.08	0.721
3475.28	0.725
3484.48	0.7311
3493.68	0.7391
3502.88	0.7531
3512.08	0.7646
3521.28	0.7794
3530.49	0.7911
3539.69	0.796
3548.89	0.7934
3558.09	0.7784
3567.29	0.7654
3576.49	0.7558
3585.69	0.7451
3594.89	0.7178
3604.1	0.6627
3613.3	0.6317
3622.5	0.7138
3631.7	0.7578
3640.9	0.8176
3650.1	0.8724
3659.3	0.9015
3668.51	0.9086
3677.71	0.9129
3686.91	0.9177
3696.11	0.922
3705.31	0.9259
3714.51	0.927
3723.71	0.93
3732.91	0.9325
3742.12	0.933
3751.32	0.933
3760.52	0.93
3769.72	0.9276
3778.92	0.9262
3788.12	0.9298
3797.32	0.9333
