Infrared Spectrum: 7H-PYRROLO[2,3-D]PYRIMIDINE, 4-CHLORO-7-CYCLOPENTYL-
Formula: C11 H12 Cl N3
CAS: 212268-44-5
State: LIQUID (NEAT)
Class: COBLENTZ III
Instrument: PERKIN-ELMER 521 (GRATING)
Instrument parameters: FILTER CHANGES AT 3130, 2475, 2000, 1150, 700, 410 CM^-^1, GRATING CHANGES AT 2000, 630 CM^-^1
Sampling: TRANSMISSION
Path length: CAPILLARY
Resolution: 4
Origin: SOUTHERN RESEARCH INST.
1/CM	TRANSMITTANCE
222.357	0.765
231.986	0.786
241.615	0.805
251.245	0.834
260.874	0.857
270.503	0.873
280.132	0.884
289.762	0.89
299.391	0.894
309.02	0.894
318.649	0.89
328.279	0.888
337.908	0.886
347.537	0.881
357.166	0.862
366.795	0.851
376.425	0.851
386.054	0.827
395.683	0.817
405.312	0.865
414.942	0.875
424.571	0.873
434.2	0.87
443.829	0.867
453.459	0.864
463.088	0.859
472.717	0.856
482.346	0.856
491.975	0.854
501.605	0.849
511.234	0.845
520.863	0.775
530.492	0.658
540.122	0.622
549.751	0.82
559.38	0.827
569.009	0.827
578.639	0.808
588.268	0.636
597.897	0.745
607.526	0.849
617.155	0.848
626.785	0.823
636.414	0.848
646.043	0.849
655.672	0.845
665.302	0.84
674.931	0.833
684.56	0.806
694.189	0.779
703.818	0.491
713.448	0.291
723.077	0.375
732.706	0.653
742.335	0.758
751.965	0.767
761.594	0.763
771.223	0.757
780.852	0.743
790.482	0.736
800.111	0.707
809.74	0.696
819.369	0.694
828.998	0.558
838.628	0.43
848.257	0.686
857.886	0.785
867.515	0.738
877.145	0.66
886.774	0.685
896.403	0.755
906.032	0.76
915.662	0.53
925.291	0.315
934.92	0.492
944.549	0.779
954.178	0.827
963.808	0.839
973.437	0.841
983.066	0.84
992.695	0.83
1002.32	0.812
1011.95	0.789
1021.58	0.783
1031.21	0.741
1040.84	0.779
1050.47	0.797
1060.1	0.785
1069.73	0.783
1079.36	0.784
1088.99	0.78
1098.62	0.757
1108.25	0.665
1117.88	0.566
1127.5	0.571
1137.13	0.463
1146.76	0.631
1156.39	0.61
1166.02	0.487
1175.65	0.567
1185.28	0.468
1194.91	0.277
1204.54	0.275
1214.17	0.3
1223.8	0.321
1233.43	0.529
1243.06	0.624
1252.68	0.588
1262.31	0.414
1271.94	0.628
1281.57	0.708
1291.2	0.713
1300.83	0.694
1310.46	0.617
1320.09	0.503
1329.72	0.509
1339.35	0.312
1348.98	0.181
1358.61	0.638
1368.24	0.67
1377.86	0.625
1387.49	0.582
1397.12	0.471
1406.75	0.206
1416.38	0.364
1426.01	0.58
1435.64	0.408
1445.27	0.179
1454.9	0.573
1464.53	0.622
1474.16	0.645
1483.79	0.533
1493.42	0.21
1503.04	0.338
1512.67	0.586
1522.3	0.441
1531.93	0.106
1541.56	0.363
1551.19	0.532
1560.82	0.566
1570.45	0.385
1580.08	0.108
1589.71	0.312
1599.34	0.62
1608.97	0.742
1618.6	0.788
1628.22	0.805
1637.85	0.807
1647.48	0.8
1657.11	0.804
1666.74	0.808
1676.37	0.808
1686	0.806
1695.63	0.801
1705.26	0.786
1714.89	0.786
1724.52	0.796
1734.15	0.806
1743.78	0.816
1753.4	0.823
1763.03	0.827
1772.66	0.829
1782.29	0.829
1791.92	0.83
1801.55	0.83
1811.18	0.83
1820.81	0.83
1830.44	0.827
1840.07	0.811
1849.7	0.783
1859.33	0.793
1868.96	0.813
1878.58	0.826
1888.21	0.829
1897.84	0.83
1907.47	0.83
1917.1	0.829
1926.73	0.827
1936.36	0.826
1945.99	0.828
1955.62	0.828
1965.25	0.827
1974.88	0.827
1984.51	0.827
1994.14	0.829
2003.76	0.83
2013.39	0.831
2023.02	0.831
2032.65	0.831
2042.28	0.831
2051.91	0.831
2061.54	0.831
2071.17	0.83
2080.8	0.83
2090.43	0.83
2100.06	0.83
2109.69	0.829
2119.32	0.828
2128.94	0.828
2138.57	0.827
2148.2	0.827
2157.83	0.826
2167.46	0.826
2177.09	0.826
2186.72	0.827
2196.35	0.827
2205.98	0.827
2215.61	0.825
2225.24	0.822
2234.87	0.819
2244.5	0.819
2254.12	0.818
2263.75	0.818
2273.38	0.819
2283.01	0.819
2292.64	0.819
2302.27	0.816
2311.9	0.811
2321.53	0.808
2331.16	0.807
2340.79	0.806
2350.42	0.805
2360.05	0.804
2369.68	0.803
2379.3	0.802
2388.93	0.803
2398.56	0.804
2408.19	0.804
2417.82	0.805
2427.45	0.805
2437.08	0.805
2446.71	0.804
2456.34	0.803
2465.97	0.801
2475.6	0.801
2485.23	0.801
2494.86	0.8
2504.48	0.797
2514.11	0.792
2523.74	0.783
2533.37	0.773
2543	0.779
2552.63	0.791
2562.26	0.801
2571.89	0.802
2581.52	0.801
2591.15	0.799
2600.78	0.797
2610.41	0.794
2620.04	0.793
2629.66	0.791
2639.29	0.79
2648.92	0.789
2658.55	0.789
2668.18	0.789
2677.81	0.787
2687.44	0.786
2697.07	0.775
2706.7	0.761
2716.33	0.768
2725.96	0.779
2735.59	0.785
2745.22	0.784
2754.84	0.779
2764.47	0.775
2774.1	0.772
2783.73	0.771
2793.36	0.768
2802.99	0.765
2812.62	0.762
2822.25	0.75
2831.88	0.727
2841.51	0.674
2851.14	0.611
2860.77	0.463
2870.4	0.419
2880.02	0.542
2889.65	0.596
2899.28	0.54
2908.91	0.483
2918.54	0.463
2928.17	0.396
2937.8	0.323
2947.43	0.255
2957.06	0.253
2966.69	0.279
2976.32	0.441
2985.95	0.588
2995.58	0.663
3005.2	0.719
3014.83	0.721
3024.46	0.699
3034.09	0.683
3043.72	0.662
3053.35	0.683
3062.98	0.7
3072.61	0.69
3082.24	0.686
3091.87	0.69
3101.5	0.662
3111.13	0.661
3120.76	0.684
3130.38	0.697
3140.01	0.721
3149.64	0.727
3159.27	0.726
3168.9	0.746
3178.53	0.766
3188.16	0.771
3197.79	0.773
3207.42	0.774
3217.05	0.773
3226.68	0.774
3236.31	0.773
3245.94	0.772
3255.56	0.772
3265.19	0.772
3274.82	0.771
3284.45	0.771
3294.08	0.771
3303.71	0.771
3313.34	0.77
3322.97	0.769
3332.6	0.768
3342.23	0.768
3351.86	0.766
3361.49	0.764
3371.12	0.764
3380.74	0.762
3390.37	0.761
3400	0.759
3409.63	0.758
3419.26	0.757
3428.89	0.756
3438.52	0.757
3448.15	0.757
3457.78	0.758
3467.41	0.759
3477.04	0.76
3486.67	0.761
3496.3	0.761
3505.92	0.762
3515.55	0.763
3525.18	0.764
3534.81	0.764
3544.44	0.765
3554.07	0.766
3563.7	0.766
3573.33	0.766
3582.96	0.766
3592.59	0.766
3602.22	0.766
3611.85	0.767
3621.48	0.767
3631.1	0.767
3640.73	0.767
3650.36	0.767
3659.99	0.767
3669.62	0.768
3679.25	0.768
3688.88	0.768
3698.51	0.768
3708.14	0.768
3717.77	0.768
3727.4	0.768
3737.03	0.768
3746.66	0.766
3756.28	0.765
3765.91	0.766
3775.54	0.767
3785.17	0.767
3794.8	0.766
3804.43	0.764
