Infrared Spectrum: Ethyl 3,5-dimethylbenzoate
Formula: C 11 H 14 O 2
CAS: 21239-29-2
State: gas
Origin: EPA-IR VAPOR PHASE LIBRARY
1/CM	ABSORBANCE
549.9	0.00409
559.547	0.0027988
569.193	0.00197
578.84	0.001575
588.486	0.001357
598.133	0.00111
607.779	0.00109
617.426	0.00116
627.072	0.00116
636.719	0.00115
646.365	0.001412
656.012	0.001708
665.658	0.00335
675.305	0.008
684.951	0.00652
694.598	0.0029684
704.245	0.0022285
713.891	0.00221772
723.538	0.0023276
733.184	0.00354
742.831	0.00799
752.477	0.01621
762.124	0.0309
771.77	0.02907
781.417	0.01191
791.063	0.00613
800.71	0.0051
810.356	0.0047
820.003	0.00407
829.649	0.00396
839.296	0.00442
848.943	0.00813
858.589	0.01723
868.236	0.01676
877.882	0.00769
887.529	0.00467
897.175	0.0054
906.822	0.00997
916.468	0.01504
926.115	0.01041
935.761	0.00837
945.408	0.00898
955.054	0.00564
964.701	0.0052
974.347	0.0062
983.994	0.00816
993.64	0.01051
1003.29	0.01407
1012.93	0.02287
1022.58	0.04205
1032.23	0.05394
1041.87	0.03906
1051.52	0.02356
1061.17	0.01874
1070.81	0.01533
1080.46	0.01448
1090.11	0.0197
1099.75	0.03329
1109.4	0.07179
1119.05	0.09177
1128.69	0.04389
1138.34	0.01817
1147.99	0.01479
1157.63	0.02105
1167.28	0.02646
1176.92	0.02484
1186.57	0.04151
1196.22	0.11043
1205.86	0.33468
1215.51	0.42568
1225.16	0.13907
1234.8	0.03643
1244.45	0.01967
1254.1	0.01542
1263.74	0.01403
1273.39	0.01551
1283.04	0.03052
1292.68	0.0851
1302.33	0.1659
1311.98	0.16549
1321.62	0.06744
1331.27	0.02267
1340.92	0.01508
1350.56	0.01406
1360.21	0.02056
1369.86	0.03318
1379.5	0.02618
1389.15	0.0231
1398.79	0.01744
1408.44	0.01615
1418.09	0.0155
1427.73	0.0156
1437.38	0.02077
1447.03	0.03076
1456.67	0.0279
1466.32	0.02155
1475.97	0.01943
1485.61	0.01459
1495.26	0.01145
1504.91	0.00991
1514.55	0.00937
1524.2	0.01004
1533.85	0.01047
1543.49	0.00944
1553.14	0.00767
1562.79	0.00665
1572.43	0.00683
1582.08	0.00921
1591.73	0.01652
1601.37	0.02916
1611.02	0.031
1620.67	0.01627
1630.31	0.0072
1639.96	0.00522
1649.6	0.00477
1659.25	0.00495
1668.9	0.00558
1678.54	0.00709
1688.19	0.01037
1697.84	0.0151
1707.48	0.01888
1717.13	0.03212
1726.78	0.09879
1736.42	0.22015
1746.07	0.15921
1755.72	0.03722
1765.36	0.01864
1775.01	0.01831
1784.66	0.01393
1794.3	0.00892
1803.95	0.00704
1813.6	0.00545
1823.24	0.00414
1832.89	0.00364
1842.54	0.0032001
1852.18	0.0028779
1861.83	0.0027188
1871.47	0.0026397
1881.12	0.0026611
1890.77	0.0026718
1900.41	0.0026145
1910.06	0.0024214
1919.71	0.0023109
1929.35	0.0022783
1939	0.00223413
1948.65	0.00223323
1958.29	0.00229271
1967.94	0.002348
1977.59	0.0024175
1987.23	0.00226611
1996.88	0.001823
2006.53	0.001673
2016.17	0.00163
2025.82	0.001688
2035.47	0.001658
2045.11	0.001782
2054.76	0.001964
2064.41	0.0023662
2074.05	0.0026288
2083.7	0.00230741
2093.35	0.001852
2102.99	0.001714
2112.64	0.001779
2122.28	0.001861
2131.93	0.001815
2141.58	0.001776
2151.22	0.001653
2160.87	0.001577
2170.52	0.001525
2180.16	0.001407
2189.81	0.001317
2199.46	0.00136
2209.1	0.00142
2218.75	0.001473
2228.4	0.001479
2238.04	0.001401
2247.69	0.001312
2257.34	0.001242
2266.98	0.00131
2276.63	0.001348
2286.28	0.001378
2295.92	0.001452
2305.57	0.001544
2315.22	0.001719
2324.86	0.001911
2334.51	0.001738
2344.16	0.001499
2353.8	0.001469
2363.45	0.00149
2373.09	0.001493
2382.74	0.001523
2392.39	0.00152
2402.03	0.001536
2411.68	0.001726
2421.33	0.001834
2430.97	0.001699
2440.62	0.001414
2450.27	0.001321
2459.91	0.001317
2469.56	0.001365
2479.21	0.001403
2488.85	0.001347
2498.5	0.001382
2508.15	0.001385
2517.79	0.001339
2527.44	0.001298
2537.09	0.001227
2546.73	0.00112
2556.38	0.0011
2566.03	0.00103
2575.67	0.00106
2585.32	0.00118
2594.96	0.001306
2604.61	0.001331
2614.26	0.001246
2623.9	0.001
2633.55	0.00088
2643.2	0.00089
2652.84	0.00094
2662.49	0.00091
2672.14	0.00095
2681.78	0.00096
2691.43	0.00095
2701.08	0.00099
2710.72	0.00103
2720.37	0.001271
2730.02	0.001766
2739.66	0.0025686
2749.31	0.0027409
2758.96	0.00196
2768.6	0.001752
2778.25	0.001777
2787.9	0.001818
2797.54	0.001908
2807.19	0.0024276
2816.84	0.0031638
2826.48	0.00404
2836.13	0.005
2845.77	0.00667
2855.42	0.00986
2865.07	0.01535
2874.71	0.02156
2884.36	0.02339
2894.01	0.02199
2903.65	0.0252
2913.3	0.03128
2922.95	0.04254
2932.59	0.05446
2942.24	0.05054
2951.89	0.03727
2961.53	0.03152
2971.18	0.03478
2980.83	0.04779
2990.47	0.04958
3000.12	0.03899
3009.77	0.03786
3019.41	0.03197
3029.06	0.02118
3038.71	0.0167
3048.35	0.0129
3058	0.01237
3067.64	0.01095
3077.29	0.00731
3086.94	0.00475
3096.58	0.00335
3106.23	0.0023419
3115.88	0.001909
3125.52	0.001472
3135.17	0.00107
3144.82	0.00096
3154.46	0.00078
3164.11	0.00063
3173.76	0.00052
3183.4	0.00066
3193.05	0.00055
3202.7	0.00052
3212.34	0.00045
3221.99	0.00042
3231.64	0.00014
3241.28	7e-05
3250.93	1e-05
3260.58	0.00014
3270.22	4e-05
3279.87	0.00014
3289.52	0.00018
3299.16	0.00014
3308.81	0.00028
3318.45	0.00019
3328.1	0.00037
3337.75	0.00044
3347.39	0.00027
3357.04	0.00038
3366.69	0.00045
3376.33	0.00036
3385.98	0.00043
3395.63	0.00048
3405.27	0.00047
3414.92	0.00069
3424.57	0.00083
3434.21	0.00091
3443.86	0.001556
3453.51	0.0023609
3463.15	0.0021263
3472.8	0.001365
3482.45	0.00085
3492.09	0.00073
3501.74	0.00075
3511.39	0.00064
3521.03	0.00068
3530.68	0.00066
3540.33	0.00069
3549.97	0.00075
3559.62	0.00092
3569.26	0.00084
3578.91	0.00073
3588.56	0.00079
3598.2	0.00073
3607.85	0.00069
3617.5	0.00065
3627.14	0.00076
3636.79	0.00086
3646.44	0.00072
3656.08	0.00083
3665.73	0.00079
3675.38	0.00083
3685.02	0.00094
3694.67	0.00086
3704.32	0.00087
3713.96	0.00094
3723.61	0.00089
3733.26	0.001
3742.9	0.00097
3752.55	0.00092
3762.2	0.00097
3771.84	0.00107
3781.49	0.00091
3791.13	0.00107
3800.78	0.00115
3810.43	0.00104
3820.07	0.00107
3829.72	0.00102
3839.37	0.00118
3849.01	0.0011
3858.66	0.00113
3868.31	0.00121
3877.95	0.00117
3887.6	0.001227
3897.25	0.001367
3906.89	0.001219
3916.54	0.001241
3926.19	0.001318
3935.83	0.001241
3945.48	0.00121
3955.13	0.0012
3964.77	0.001226
3974.42	0.001331
3984.07	0.001261
3993.71	0.001444
