Infrared Spectrum: Benzoic acid, p-(dimethylamino-), isopentyl ester
Formula: C14 H21 N O2
CAS: 21245-01-2
State: LIQUID (NEAT)
Class: COBLENTZ III
Instrument: PERKIN-ELMER 21 (GRATING)
Instrument parameters: NaCl PRISM
Sampling: TRANSMISSION
Path length: CAPILLARY
Resolution: 2
Origin: SMITH KLINE & FRENCH LABS.
1/CM	TRANSMITTANCE
4000	0.801
3991	0.8011
3982	0.8011
3973	0.8015
3964	0.8015
3955	0.8018
3946	0.8019
3937	0.8025
3928	0.8034
3919	0.8043
3910	0.8051
3901	0.8062
3892	0.8072
3883	0.8083
3874	0.8081
3865	0.8075
3856	0.8068
3847	0.8054
3838	0.804
3829	0.8028
3820	0.8018
3811	0.801
3802	0.8001
3793	0.8
3784	0.8003
3775	0.8011
3766	0.8019
3757	0.8028
3748	0.804
3739	0.8057
3730	0.8074
3721	0.8081
3712	0.808
3703	0.8078
3694	0.8075
3685	0.8071
3676	0.8067
3667	0.8062
3658	0.8058
3649	0.8054
3640	0.8048
3631	0.8042
3622	0.8037
3613	0.803
3604	0.8021
3595	0.8014
3586	0.8006
3577	0.7998
3568	0.7991
3559	0.7983
3550	0.7975
3541	0.7968
3532	0.7962
3523	0.7958
3514	0.7955
3505	0.7953
3496	0.7951
3487	0.7955
3478	0.7964
3469	0.7971
3460	0.7982
3451	0.7994
3442	0.8006
3433	0.8011
3424	0.8019
3415	0.8026
3406	0.8033
3397	0.8034
3388	0.8033
3379	0.803
3370	0.8024
3361	0.8018
3352	0.8012
3343	0.801
3334	0.8007
3325	0.8004
3316	0.8006
3307	0.8008
3298	0.8012
3289	0.8017
3280	0.8024
3271	0.803
3262	0.8037
3253	0.804
3244	0.804
3235	0.804
3226	0.804
3217	0.8037
3208	0.8034
3199	0.8031
3190	0.8028
3181	0.8025
3172	0.8022
3163	0.8019
3154	0.8018
3145	0.8015
3136	0.8011
3127	0.801
3118	0.8006
3109	0.7999
3100	0.7991
3091	0.7975
3082	0.7958
3073	0.7931
3064	0.7894
3055	0.7855
3046	0.7821
3037	0.7792
3028	0.7769
3019	0.7749
3010	0.7732
3001	0.7718
2992	0.7704
2983	0.7686
2974	0.7651
2965	0.7472
2956	0.7028
2947	0.6403
2938	0.5751
2929	0.5094
2920	0.4434
2911	0.3771
2902	0.3604
2893	0.3642
2884	0.378
2875	0.3909
2866	0.404
2857	0.4204
2848	0.4346
2839	0.4469
2830	0.4795
2821	0.5254
2812	0.5715
2803	0.6155
2794	0.6217
2785	0.6236
2776	0.6253
2767	0.6331
2758	0.6608
2749	0.6915
2740	0.7225
2731	0.7497
2722	0.7628
2713	0.773
2704	0.7774
2695	0.7805
2686	0.7832
2677	0.7853
2668	0.7871
2659	0.7887
2650	0.7908
2641	0.7915
2632	0.7894
2623	0.7853
2614	0.7822
2605	0.7821
2596	0.784
2587	0.7868
2578	0.7899
2569	0.7932
2560	0.7969
2551	0.7986
2542	0.7987
2533	0.7975
2524	0.7943
2515	0.7935
2506	0.7939
2497	0.796
2488	0.7983
2479	0.8
2470	0.801
2461	0.8019
2452	0.8031
2443	0.8061
2434	0.8101
2425	0.8134
2416	0.8157
2407	0.8171
2398	0.8182
2389	0.8186
2380	0.8185
2371	0.8184
2362	0.8192
2353	0.8218
2344	0.8309
2335	0.8425
2326	0.8525
2317	0.8602
2308	0.8644
2299	0.864
2290	0.8553
2281	0.846
2272	0.8402
2263	0.8365
2254	0.8325
2245	0.8268
2236	0.8168
2227	0.8107
2218	0.8081
2209	0.8075
2200	0.808
2191	0.8087
2182	0.8092
2173	0.8096
2164	0.8096
2155	0.8093
2146	0.8093
2137	0.8096
2128	0.8069
2119	0.803
2110	0.7991
2101	0.7961
2092	0.7964
2083	0.7975
2074	0.7982
2065	0.799
2056	0.7997
2047	0.8001
2038	0.8004
2029	0.8008
2020	0.8008
2011	0.8008
2002	0.8008
1993	0.8007
1984	0.8007
1975	0.8007
1966	0.8001
1957	0.7994
1948	0.7976
1939	0.7957
1930	0.794
1921	0.7924
1912	0.7892
1903	0.7857
1894	0.7817
1885	0.7841
1876	0.7894
1867	0.793
1858	0.7965
1849	0.7995
1840	0.8003
1831	0.8
1822	0.7989
1813	0.7976
1804	0.7947
1795	0.791
1786	0.7838
1777	0.7822
1768	0.7806
1759	0.7735
1750	0.7634
1741	0.7487
1732	0.7243
1723	0.6937
1714	0.6038
1705	0.3337
1696	0.1278
1687	0.1496
1678	0.3297
1669	0.5471
1660	0.6575
1651	0.6731
1642	0.6851
1633	0.6696
1624	0.606
1615	0.4337
1606	0.1006
1597	0.1123
1588	0.3083
1579	0.561
1570	0.6548
1561	0.6605
1552	0.6102
1543	0.5926
1534	0.5284
1525	0.2961
1516	0.3017
1507	0.5755
1498	0.6621
1489	0.6453
1480	0.5637
1471	0.5118
1462	0.4462
1453	0.4472
1444	0.4527
1435	0.4698
1426	0.5464
1417	0.631
1408	0.6503
1399	0.6601
1390	0.5301
1381	0.415
1372	0.3482
1363	0.2312
1354	0.2591
1345	0.4006
1336	0.4718
1327	0.481
1318	0.4738
1309	0.3497
1300	0.4734
1291	0.4299
1282	0.1908
1273	0.1048
1264	0.1398
1255	0.355
1246	0.5428
1237	0.5417
1228	0.44
1219	0.499
1210	0.5848
1201	0.5744
1192	0.4598
1183	0.1239
1174	0.1198
1165	0.2173
1156	0.3362
1147	0.4799
1138	0.5154
1129	0.4704
1120	0.3807
1111	0.2587
1102	0.1418
1093	0.3222
1084	0.5529
1075	0.6329
1066	0.5932
1057	0.564
1048	0.6639
1039	0.6833
1030	0.7211
1021	0.7418
1012	0.7421
1003	0.6938
994	0.7226
985	0.7292
976	0.6951
967	0.6406
958	0.601
949	0.5415
940	0.4938
931	0.7121
922	0.7495
913	0.7519
904	0.7684
895	0.7841
886	0.7892
877	0.7991
868	0.7947
859	0.778
850	0.7767
841	0.7318
832	0.5456
823	0.5465
814	0.7272
805	0.7475
796	0.7601
787	0.7631
778	0.7165
769	0.2739
760	0.6191
751	0.7521
742	0.7435
733	0.7697
724	0.7728
715	0.7665
706	0.7445
697	0.5229
688	0.6937
679	0.743
670	0.7503
661	0.7422
