Infrared Spectrum: Phthalimide, N-(p-methoxybenzyl)-,
Formula: C16 H13 N O3
CAS: 21244-24-6
State: SOLUTION 5% (CHCl3 FOR 2.5-12.5 microns)
Melting point: 129.5-130 C
Class: COBLENTZ
Instrument: PERKIN-ELMER 21 (GRATING)
Instrument parameters: FILTER AT ABOUT 10 MICRONS
Path length: 0.01 CM
Resolution: 2
Origin: ABBOTT LABORATORIES
1/CM	TRANSMITTANCE
799	0.8266
808	0.7362
817	0.6685
826	0.7134
835	0.7043
844	0.6642
853	0.7766
862	0.8737
871	0.882
880	0.8871
889	0.8832
898	0.8746
907	0.8663
916	0.7853
925	0.7108
934	0.5331
943	0.4561
952	0.5973
961	0.6936
970	0.8129
979	0.8484
988	0.8467
997	0.8333
1006	0.8007
1015	0.7611
1024	0.6206
1033	0.4088
1042	0.69
1051	0.7933
1060	0.745
1069	0.6563
1078	0.4472
1087	0.3306
1096	0.549
1105	0.6149
1114	0.6167
1123	0.7164
1132	0.7244
1141	0.722
1150	0.7034
1159	0.6673
1168	0.3894
1177	0.3456
1186	0.7113
1195	0.6578
1204	0.5731
1213	0.4896
1222	0.4141
1231	0.3339
1240	0.1516
1249	0.2048
1258	0.5824
1267	0.663
1276	0.5744
1285	0.5107
1294	0.4326
1303	0.4316
1312	0.6382
1321	0.5161
1330	0.3721
1339	0.298
1348	0.225
1357	0.4761
1366	0.6228
1375	0.6092
1384	0.3046
1393	0.0866
1402	0.3746
1411	0.6074
1420	0.5415
1429	0.3156
1438	0.4774
1447	0.6447
1456	0.5852
1465	0.4552
1474	0.7646
1483	0.7965
1492	0.7871
1501	0.6799
1510	0.2665
1519	0.5497
1528	0.8282
1537	0.8643
1546	0.8648
1555	0.8683
1564	0.8558
1573	0.829
1582	0.7749
1591	0.7
1600	0.7168
1609	0.5517
1618	0.3936
1627	0.7033
1636	0.8012
1645	0.8042
1654	0.7787
1663	0.7713
1672	0.7515
1681	0.6895
1690	0.529
1699	0.3651
1708	0.0745
1717	0.0421
1726	0.1415
1735	0.3867
1744	0.6292
1753	0.7265
1762	0.7061
1771	0.3711
1780	0.4999
1789	0.6799
1798	0.7578
1807	0.8129
1816	0.8378
1825	0.8684
1834	0.8731
1843	0.8752
1852	0.881
1861	0.8857
1870	0.8844
1879	0.8815
1888	0.8794
1897	0.8812
1906	0.8831
1915	0.8857
1924	0.8883
1933	0.8909
1942	0.8928
1951	0.8931
1960	0.8957
1969	0.8977
1978	0.8987
1987	0.8991
1996	0.9033
2005	0.9054
2014	0.9068
2023	0.9058
2032	0.9042
2041	0.9027
2050	0.8997
2059	0.8995
2068	0.9052
2077	0.9092
2086	0.9126
2095	0.916
2104	0.9172
2113	0.9184
2122	0.9196
2131	0.9189
2140	0.9179
2149	0.9177
2158	0.9187
2167	0.9197
2176	0.9192
2185	0.9168
2194	0.9155
2203	0.9151
2212	0.9147
2221	0.9141
2230	0.9137
2239	0.9132
2248	0.9127
2257	0.9125
2266	0.9124
2275	0.9119
2284	0.9115
2293	0.9112
2302	0.9109
2311	0.9111
2320	0.9118
2329	0.9133
2338	0.9153
2347	0.9161
2356	0.9184
2365	0.9241
2374	0.9293
2383	0.9308
2392	0.9335
2401	0.9339
2410	0.926
2419	0.9113
2428	0.9034
2437	0.8992
2446	0.8976
2455	0.8973
2464	0.8984
2473	0.9005
2482	0.9032
2491	0.9054
2500	0.9075
2509	0.9089
2518	0.9098
2527	0.9087
2536	0.9077
2545	0.9065
2554	0.9059
2563	0.9069
2572	0.909
2581	0.9116
2590	0.9152
2599	0.9155
2608	0.9159
2617	0.9162
2626	0.9161
2635	0.9153
2644	0.9144
2653	0.9134
2662	0.9125
2671	0.9114
2680	0.9104
2689	0.9094
2698	0.9084
2707	0.908
2716	0.9075
2725	0.9068
2734	0.906
2743	0.9053
2752	0.9041
2761	0.9029
2770	0.9017
2779	0.8976
2788	0.8918
2797	0.885
2806	0.8757
2815	0.8636
2824	0.8404
2833	0.8147
2842	0.7913
2851	0.7895
2860	0.8083
2869	0.8173
2878	0.8157
2887	0.7945
2896	0.7673
2905	0.7404
2914	0.7138
2923	0.6993
2932	0.6908
2941	0.6912
2950	0.6932
2959	0.6983
2968	0.7233
2977	0.7438
2986	0.7512
2995	0.7433
3004	0.7364
3013	0.7339
3022	0.735
3031	0.7466
3040	0.7557
3049	0.7631
3058	0.7702
3067	0.8058
3076	0.8367
3085	0.8509
3094	0.8574
3103	0.8627
3112	0.8677
3121	0.8726
3130	0.8773
3139	0.8811
3148	0.8848
3157	0.8874
3166	0.8895
3175	0.8912
3184	0.8919
3193	0.8925
3202	0.893
3211	0.8934
3220	0.8939
3229	0.8943
3238	0.8949
3247	0.8963
3256	0.8987
3265	0.8982
3274	0.8976
3283	0.8967
3292	0.8952
3301	0.8935
3310	0.8917
3319	0.8892
3328	0.8865
3337	0.8849
3346	0.8834
3355	0.8826
3364	0.8824
3373	0.8828
3382	0.8835
3391	0.8834
3400	0.8827
3409	0.8808
3418	0.8779
3427	0.8743
3436	0.8707
3445	0.8653
3454	0.8625
3463	0.8616
3472	0.8626
3481	0.8653
3490	0.8714
3499	0.8783
3508	0.8846
3517	0.8898
3526	0.8925
3535	0.8932
3544	0.8937
3553	0.8948
3562	0.8964
3571	0.8983
3580	0.901
3589	0.9035
3598	0.9052
3607	0.9066
3616	0.9079
3625	0.9072
3634	0.9061
3643	0.905
3652	0.9047
3661	0.9047
3670	0.9047
3679	0.9052
3688	0.9057
3697	0.9061
3706	0.9064
3715	0.9067
3724	0.9069
3733	0.9071
3742	0.9073
3751	0.9075
3760	0.9084
3769	0.9079
3778	0.9081
3787	0.9083
3796	0.9083
3805	0.9081
3814	0.9077
3823	0.9075
3832	0.9072
3841	0.9069
3850	0.9064
3859	0.9053
3868	0.904
3877	0.9033
3886	0.9028
3895	0.903
3904	0.9039
3913	0.9049
3922	0.9055
3931	0.9054
3940	0.9046
3949	0.9031
3958	0.9022
3967	0.9014
3976	0.9006
3985	0.8998
3994	0.899
