Infrared Spectrum: p-N,N-Dimethylaminoacetophenone
Formula: C 10 H 13 N O
CAS: 2124-31-4
State: gas
Instrument: HP-GC/MS/IRD
Origin: NIST Mass Spectrometry Data Center
1/CM	ABSORBANCE
550	0.00192
562	0.006792
574	0.004116
586	0.003192
598	0.002712
610	0.001254
622	0.000708
634	0.000756
646	0.0012
658	0.000588
670	0.000102
682	6e-05
694	4.2e-05
706	4.2e-05
718	4.2e-05
730	0.000114
742	0.000174
754	0.000264
766	0.000444
778	0.000738
790	0.00156
802	0.003366
814	0.007068
826	0.007296
838	0.002766
850	0.0009
862	0.000732
874	0.00072
886	0.00078
898	0.000708
910	0.000948
922	0.001788
934	0.005562
946	0.012402
958	0.006576
970	0.002166
982	0.00138
994	0.001326
1006	0.001656
1018	0.001704
1030	0.001776
1042	0.002112
1054	0.00315
1066	0.003822
1078	0.003744
1090	0.003108
1102	0.00294
1114	0.003264
1126	0.004188
1138	0.006042
1150	0.010116
1162	0.018792
1174	0.022248
1186	0.028464
1198	0.02367
1210	0.009504
1222	0.008472
1234	0.00807
1246	0.009852
1258	0.023058
1270	0.044766
1282	0.02034
1294	0.007608
1306	0.007026
1318	0.006468
1330	0.007884
1342	0.016092
1354	0.032574
1366	0.029394
1378	0.011346
1390	0.00594
1402	0.005562
1414	0.00684
1426	0.007014
1438	0.006756
1450	0.00582
1462	0.004584
1474	0.00504
1486	0.005298
1498	0.005904
1510	0.01302
1522	0.017796
1534	0.009636
1546	0.007428
1558	0.009852
1570	0.010398
1582	0.017772
1594	0.04023
1606	0.06
1618	0.025218
1630	0.007992
1642	0.005574
1654	0.005016
1666	0.005508
1678	0.013158
1690	0.036492
1702	0.024378
1714	0.005514
1726	0.002376
1738	0.001944
1750	0.001578
1762	0.001254
1774	0.000864
1786	0.000564
1798	0.000372
1810	0.000366
1822	0.000294
1834	0.000324
1846	0.000432
1858	0.000564
1870	0.000564
1882	0.000606
1894	0.000726
1906	0.00078
1918	0.00087
1930	0.000678
1942	0.00048
1954	0.000372
1966	0.000294
1978	0.000216
1990	0.000282
2002	0.000426
2014	0.000342
2026	0.000192
2038	0.000156
2050	9e-05
2062	5.4e-05
2074	8.4e-05
2086	0.000102
2098	8.4e-05
2110	0.000126
2122	0.000222
2134	0.000246
2146	0.00018
2158	0.000234
2170	0.000234
2182	0.000162
2194	7.8e-05
2206	3e-05
2218	3.6e-05
2230	1.8e-05
2242	1.8e-05
2254	4.2e-05
2266	6e-05
2278	7.2e-05
2290	9e-05
2302	7.8e-05
2314	6.6e-05
2326	7.8e-05
2338	0.000132
2350	0.000174
2362	0.00018
2374	0.000246
2386	0.000228
2398	0.000108
2410	8.4e-05
2422	0.000126
2434	0.000156
2446	0.000162
2458	0.00015
2470	0.000132
2482	0.000144
2494	0.000228
2506	0.000348
2518	0.000438
2530	0.000582
2542	0.000558
2554	0.000492
2566	0.000462
2578	0.000498
2590	0.0006
2602	0.000726
2614	0.000756
2626	0.000636
2638	0.00054
2650	0.000444
2662	0.000432
2674	0.00051
2686	0.000528
2698	0.000546
2710	0.000594
2722	0.000606
2734	0.000672
2746	0.000906
2758	0.001266
2770	0.001926
2782	0.002946
2794	0.004884
2806	0.007128
2818	0.00714
2830	0.006036
2842	0.005934
2854	0.006726
2866	0.007572
2878	0.007566
2890	0.00756
2902	0.00759
2914	0.007566
2926	0.007938
2938	0.00849
2950	0.008388
2962	0.007572
2974	0.006654
2986	0.005922
2998	0.005496
3010	0.005094
3022	0.003768
3034	0.003126
3046	0.003372
3058	0.00288
3070	0.002352
3082	0.002844
3094	0.003186
3106	0.002634
3118	0.001632
3130	0.00093
3142	0.000552
3154	0.000366
3166	0.000282
3178	0.00024
3190	0.00024
3202	0.000264
3214	0.000282
3226	0.00018
3238	0.000168
3250	6e-05
3262	7.2e-05
3274	5.4e-05
3286	1.2e-05
3298	3e-05
3310	0.000102
3322	0.000102
3334	0.000156
3346	0.000222
3358	0.000462
3370	0.000684
3382	0.000426
3394	0.000216
3406	0.000174
3418	0.00012
3430	0.00012
3442	9.6e-05
3454	0.000108
3466	7.2e-05
3478	9.6e-05
3490	6.6e-05
3502	6e-05
3514	6.6e-05
3526	6.6e-05
3538	8.4e-05
3550	6e-05
3562	8.4e-05
3574	8.4e-05
3586	6e-05
3598	7.2e-05
3610	9e-05
3622	6e-06
3634	9.6e-05
3646	6e-06
3658	0.000108
3670	0.00012
3682	9e-05
3694	0.000126
3706	0.000156
3718	9e-05
3730	7.2e-05
3742	0.000132
3754	0.000156
3766	7.8e-05
3778	8.4e-05
3790	0.000192
3802	6e-05
3814	9.6e-05
3826	0.000168
3838	0.00015
