Infrared Spectrum: PURIN-8(9H)-ONE, 9-BENZYL-6-CHLORO-
Formula: C12 H9 Cl N4 O
CAS: 21266-37-5
State: SOLID (1 mg / 650 mg KBr DISC)
Class: COBLENTZ III
Instrument: PERKIN-ELMER 221 (GRATING)
Instrument parameters: FILTER CHANGES AT 2490, 980 CM^-^1, GRATING FOR 4000-1428 CM^-^1, NaCl PRISM FOR 1428-650 CM^-^1
Sampling: TRANSMISSION
Resolution: 4
Origin: SOUTHERN RESEARCH INST.
1/CM	TRANSMITTANCE
638.88	0.87
648.531	0.867
658.181	0.743
667.832	0.881
677.482	0.874
687.133	0.844
696.783	0.669
706.434	0.836
716.085	0.812
725.735	0.639
735.386	0.382
745.036	0.704
754.687	0.593
764.338	0.791
773.988	0.902
783.639	0.618
793.289	0.821
802.94	0.901
812.59	0.955
822.241	0.971
831.892	0.958
841.542	0.912
851.193	0.756
860.843	0.826
870.494	0.893
880.145	0.69
889.795	0.326
899.446	0.613
909.096	0.951
918.747	0.996
928.397	0.938
938.048	0.721
947.699	0.644
957.349	0.935
967	0.988
976.65	0.996
986.301	0.984
995.951	0.968
1005.6	0.956
1015.25	0.949
1024.9	0.937
1034.55	0.867
1044.2	0.918
1053.85	0.893
1063.51	0.843
1073.16	0.718
1082.81	0.91
1092.46	0.912
1102.11	0.899
1111.76	0.874
1121.41	0.856
1131.06	0.804
1140.71	0.747
1150.36	0.494
1160.01	0.573
1169.66	0.728
1179.31	0.63
1188.96	0.603
1198.61	0.833
1208.26	0.927
1217.91	0.956
1227.57	0.925
1237.22	0.895
1246.87	0.816
1256.52	0.759
1266.17	0.638
1275.82	0.878
1285.47	0.889
1295.12	0.87
1304.77	0.822
1314.42	0.817
1324.07	0.778
1333.72	0.74
1343.37	0.615
1353.02	0.667
1362.67	0.548
1372.32	0.423
1381.97	0.556
1391.63	0.661
1401.28	0.75
1410.93	0.794
1420.58	0.775
1430.23	0.802
1439.88	0.764
1449.53	0.694
1459.18	0.553
1468.83	0.742
1478.48	0.577
1488.13	0.412
1497.78	0.285
1507.43	0.554
1517.08	0.783
1526.73	0.901
1536.38	0.932
1546.03	0.903
1555.69	0.854
1565.34	0.787
1574.99	0.719
1584.64	0.551
1594.29	0.347
1603.94	0.524
1613.59	0.703
1623.24	0.745
1632.89	0.551
1642.54	0.379
1652.19	0.626
1661.84	0.73
1671.49	0.691
1681.14	0.619
1690.79	0.55
1700.44	0.435
1710.09	0.235
1719.75	0.086
1729.4	0.167
1739.05	0.323
1748.7	0.513
1758.35	0.638
1768	0.749
1777.65	0.818
1787.3	0.867
1796.95	0.92
1806.6	0.933
1816.25	0.95
1825.9	0.948
1835.55	0.988
1845.2	0.996
1854.85	1.003
1864.5	1.005
1874.15	1.003
1883.8	1.002
1893.46	1
1903.11	0.999
1912.76	0.994
1922.41	0.972
1932.06	1.002
1941.71	1
1951.36	0.997
1961.01	0.992
1970.66	0.988
1980.31	0.985
1989.96	0.983
1999.61	0.983
2009.26	0.982
2018.91	0.981
2028.56	0.98
2038.21	0.977
2047.86	0.976
2057.52	0.973
2067.17	0.971
2076.82	0.969
2086.47	0.965
2096.12	0.963
2105.77	0.96
2115.42	0.95
2125.07	0.952
2134.72	0.954
2144.37	0.954
2154.02	0.954
2163.67	0.954
2173.32	0.953
2182.97	0.951
2192.62	0.95
2202.27	0.946
2211.92	0.943
2221.58	0.942
2231.23	0.936
2240.88	0.933
2250.53	0.931
2260.18	0.931
2269.83	0.931
2279.48	0.93
2289.13	0.927
2298.78	0.921
2308.43	0.916
2318.08	0.912
2327.73	0.91
2337.38	0.908
2347.03	0.906
2356.68	0.904
2366.33	0.902
2375.98	0.9
2385.64	0.897
2395.29	0.894
2404.94	0.891
2414.59	0.888
2424.24	0.885
2433.89	0.883
2443.54	0.884
2453.19	0.885
2462.84	0.884
2472.49	0.882
2482.14	0.877
2491.79	0.867
2501.44	0.862
2511.09	0.857
2520.74	0.853
2530.39	0.849
2540.04	0.845
2549.69	0.842
2559.35	0.84
2569	0.836
2578.65	0.832
2588.3	0.825
2597.95	0.821
2607.6	0.816
2617.25	0.812
2626.9	0.806
2636.55	0.798
2646.2	0.789
2655.85	0.783
2665.5	0.774
2675.15	0.769
2684.8	0.751
2694.45	0.747
2704.1	0.73
2713.75	0.705
2723.41	0.682
2733.06	0.655
2742.71	0.649
2752.36	0.65
2762.01	0.651
2771.66	0.654
2781.31	0.658
2790.96	0.661
2800.61	0.669
2810.26	0.68
2819.91	0.693
2829.56	0.706
2839.21	0.707
2848.86	0.701
2858.51	0.696
2868.16	0.69
2877.81	0.687
2887.47	0.694
2897.12	0.701
2906.77	0.685
2916.42	0.661
2926.07	0.645
2935.72	0.643
2945.37	0.625
2955.02	0.596
2964.67	0.582
2974.32	0.577
2983.97	0.562
2993.62	0.546
3003.27	0.547
3012.92	0.56
3022.57	0.586
3032.22	0.593
3041.87	0.604
3051.53	0.612
3061.18	0.645
3070.83	0.659
3080.48	0.678
3090.13	0.667
3099.78	0.619
3109.43	0.614
3119.08	0.634
3128.73	0.648
3138.38	0.662
3148.03	0.66
3157.68	0.65
3167.33	0.666
3176.98	0.692
3186.63	0.722
3196.28	0.754
3205.93	0.769
3215.58	0.778
3225.24	0.784
3234.89	0.789
3244.54	0.794
3254.19	0.797
3263.84	0.798
3273.49	0.801
3283.14	0.803
3292.79	0.804
3302.44	0.801
3312.09	0.797
3321.74	0.79
3331.39	0.783
3341.04	0.776
3350.69	0.77
3360.34	0.762
3369.99	0.756
3379.64	0.741
3389.3	0.722
3398.95	0.706
3408.6	0.7
3418.25	0.703
3427.9	0.707
3437.55	0.71
3447.2	0.712
3456.85	0.714
3466.5	0.717
3476.15	0.718
3485.8	0.719
3495.45	0.722
3505.1	0.727
3514.75	0.731
3524.4	0.74
3534.05	0.749
3543.7	0.758
3553.36	0.767
3563.01	0.772
3572.66	0.776
3582.31	0.783
3591.96	0.789
3601.61	0.792
3611.26	0.806
3620.91	0.81
3630.56	0.82
3640.21	0.823
3649.86	0.825
3659.51	0.827
3669.16	0.825
3678.81	0.826
3688.46	0.827
3698.11	0.828
3707.76	0.827
3717.42	0.825
3727.07	0.825
3736.72	0.823
3746.37	0.823
3756.02	0.824
3765.67	0.825
3775.32	0.827
3784.97	0.826
3794.62	0.825
3804.27	0.822
3813.92	0.82
3823.57	0.817
3833.22	0.814
3842.87	0.813
3852.52	0.813
3862.17	0.811
3871.82	0.812
3881.48	0.813
3891.13	0.813
3900.78	0.812
3910.43	0.811
3920.08	0.81
3929.73	0.809
3939.38	0.809
3949.03	0.811
3958.68	0.811
3968.33	0.81
3977.98	0.809
3987.63	0.809
3997.28	0.809
4006.93	0.809
4016.58	0.808
