Infrared Spectrum: p-TolueneSulfonamide, Alpha-(purin-6-ylamino)-
Formula: C12 H12 N6 O2 S
CAS: 21266-66-0
State: SOLID (1 mg / 650 mg KBr DISC)
Class: COBLENTZ III
Instrument: PERKIN-ELMER 521 (GRATING)
Instrument parameters: FILTERS AT 3130, 2475, 2000, 630. GRATING CHANGES: 2000, 630 CM^-^1
Sampling: TRANSMISSION
Resolution: 2
Origin: SOUTHERN RESEARCH INSTITUTE
1/CM	TRANSMITTANCE
251	0.2284
261	0.2654
271	0.3154
281	0.3819
291	0.4598
301	0.51
311	0.6052
321	0.6388
331	0.6697
341	0.6971
351	0.7246
361	0.7458
371	0.7774
381	0.8112
391	0.8252
401	0.8266
411	0.8254
421	0.8247
431	0.8302
441	0.8279
451	0.8137
461	0.7959
471	0.8058
481	0.8157
491	0.8014
501	0.753
511	0.7022
521	0.7615
531	0.7113
541	0.6349
551	0.5628
561	0.7133
571	0.7355
581	0.6987
591	0.6482
601	0.4439
611	0.7326
621	0.7171
631	0.66
641	0.538
651	0.6636
661	0.5898
671	0.653
681	0.4535
691	0.6306
701	0.7378
711	0.7803
721	0.8035
731	0.7444
741	0.7505
751	0.8566
761	0.8599
771	0.8579
781	0.8522
791	0.8202
801	0.7422
811	0.7816
821	0.8227
831	0.808
841	0.7397
851	0.6396
861	0.7381
871	0.7148
881	0.6852
891	0.646
901	0.4783
911	0.5827
921	0.6477
931	0.7024
941	0.6496
951	0.8792
961	0.9035
971	0.8884
981	0.9034
991	0.9033
1001	0.8921
1011	0.8585
1021	0.8393
1031	0.8738
1041	0.8689
1051	0.8591
1061	0.8452
1071	0.8255
1081	0.7831
1091	0.651
1101	0.5784
1111	0.7273
1121	0.6602
1131	0.6417
1141	0.5304
1151	0.3505
1161	0.4158
1171	0.5924
1181	0.7908
1191	0.7862
1201	0.7533
1211	0.797
1221	0.7798
1231	0.7303
1241	0.6129
1251	0.426
1261	0.6692
1271	0.7073
1281	0.6487
1291	0.5406
1301	0.4535
1311	0.2416
1321	0.32
1331	0.2811
1341	0.4065
1351	0.5443
1361	0.7568
1371	0.775
1381	0.7927
1391	0.7389
1401	0.5393
1411	0.5729
1421	0.7987
1431	0.8181
1441	0.7499
1451	0.7537
1461	0.6338
1471	0.7748
1481	0.7636
1491	0.7382
1501	0.7741
1511	0.8021
1521	0.7583
1531	0.676
1541	0.5746
1551	0.6723
1561	0.6596
1571	0.5958
1581	0.4975
1591	0.2936
1601	0.2014
1611	0.1321
1621	0.1116
1631	0.2952
1641	0.47
1651	0.7822
1661	0.8317
1671	0.8759
1681	0.9071
1691	0.9005
1701	0.9339
1711	0.9566
1721	0.9635
1731	0.9674
1741	0.9696
1751	0.971
1761	0.9719
1771	0.9722
1781	0.9717
1791	0.9704
1801	0.9692
1811	0.9678
1821	0.9661
1831	0.9644
1841	0.9627
1851	0.9611
1861	0.9595
1871	0.957
1881	0.9507
1891	0.9491
1901	0.9483
1911	0.9477
1921	0.9472
1931	0.9461
1941	0.9451
1951	0.9441
1961	0.9428
1971	0.9411
1981	0.9394
1991	0.9365
2001	0.9322
2011	0.9275
2021	0.9224
2031	0.9169
2041	0.9115
2051	0.9085
2061	0.9074
2071	0.9078
2081	0.9087
2091	0.9086
2101	0.9068
2111	0.9046
2121	0.9018
2131	0.8988
2141	0.8955
2151	0.892
2161	0.8885
2171	0.8849
2181	0.8812
2191	0.8775
2201	0.8737
2211	0.87
2221	0.866
2231	0.8618
2241	0.8576
2251	0.8533
2261	0.8504
2271	0.8475
2281	0.8446
2291	0.8417
2301	0.8384
2311	0.8352
2321	0.832
2331	0.8287
2341	0.8241
2351	0.8195
2361	0.8149
2371	0.8103
2381	0.8056
2391	0.8006
2401	0.7955
2411	0.7901
2421	0.7847
2431	0.7793
2441	0.7729
2451	0.7659
2461	0.7581
2471	0.7495
2481	0.7409
2491	0.7315
2501	0.7206
2511	0.7115
2521	0.7029
2531	0.6941
2541	0.685
2551	0.6759
2561	0.6712
2571	0.6732
2581	0.6737
2591	0.6662
2601	0.6552
2611	0.6484
2621	0.6458
2631	0.637
2641	0.6252
2651	0.6118
2661	0.594
2671	0.5778
2681	0.569
2691	0.5714
2701	0.5749
2711	0.5778
2721	0.5831
2731	0.5873
2741	0.5836
2751	0.5778
2761	0.5676
2771	0.5567
2781	0.5506
2791	0.5489
2801	0.5501
2811	0.5546
2821	0.564
2831	0.5762
2841	0.5888
2851	0.5883
2861	0.5876
2871	0.5968
2881	0.6022
2891	0.595
2901	0.574
2911	0.5541
2921	0.5468
2931	0.5409
2941	0.5256
2951	0.5154
2961	0.5241
2971	0.5192
2981	0.5146
2991	0.5125
3001	0.5123
3011	0.5134
3021	0.519
3031	0.5214
3041	0.5129
3051	0.5033
3061	0.5025
3071	0.5069
3081	0.5158
3091	0.5302
3101	0.5481
3111	0.5615
3121	0.5732
3131	0.5843
3141	0.593
3151	0.595
3161	0.5926
3171	0.5871
3181	0.577
3191	0.5627
3201	0.5459
3211	0.532
3221	0.5262
3231	0.5261
3241	0.5283
3251	0.5308
3261	0.5328
3271	0.5333
3281	0.5315
3291	0.5257
3301	0.5147
3311	0.4897
3321	0.444
3331	0.3739
3341	0.3201
3351	0.3736
3361	0.467
3371	0.5543
3381	0.629
3391	0.6641
3401	0.6859
3411	0.7
3421	0.7093
3431	0.718
3441	0.7265
3451	0.7349
3461	0.7428
3471	0.75
3481	0.7552
3491	0.76
3501	0.7646
3511	0.7688
3521	0.773
3531	0.7783
3541	0.7842
3551	0.7909
3561	0.7982
3571	0.8059
3581	0.813
3591	0.8192
3601	0.8254
3611	0.832
3621	0.8397
3631	0.8473
3641	0.8536
3651	0.8589
3661	0.8629
3671	0.8647
3681	0.8661
3691	0.8675
3701	0.8682
3711	0.8683
3721	0.8675
3731	0.8661
3741	0.8605
3751	0.8562
3761	0.8541
3771	0.8521
3781	0.851
3791	0.8499
3801	0.849
3811	0.8481
3821	0.8472
3831	0.8463
3841	0.8453
3851	0.8442
3861	0.8431
3871	0.842
3881	0.8414
3891	0.8408
3901	0.8403
3911	0.8397
3921	0.8388
3931	0.838
3941	0.8368
3951	0.8355
3961	0.8341
3971	0.8333
3981	0.8325
3991	0.8309
