Infrared Spectrum: BenzeneSulfonamide, p-[2-(purin-6-ylamino)ethyl]-
Formula: C13 H14 N6 O2 S
CAS: 21266-67-1
State: SOLID (1 mg / 650 mg KBr DISC)
Class: COBLENTZ III
Instrument: PERKIN-ELMER 521 (GRATING)
Instrument parameters: FILTERS AT 3130, 2475, 2000, 620. GRATING CHANGES: 2000, 630 CM^-^1
Sampling: TRANSMISSION
Resolution: 2
Origin: SOUTHERN RESEARCH INSTITUTE
1/CM	TRANSMITTANCE
253.27	0.359
263.312	0.4149
273.354	0.467
283.396	0.5098
293.438	0.5587
303.48	0.6185
313.522	0.6376
323.564	0.6559
333.606	0.6727
343.648	0.6886
353.69	0.709
363.732	0.7256
373.774	0.7521
383.816	0.7618
393.858	0.7502
403.9	0.7375
413.942	0.7391
423.984	0.7288
434.026	0.7268
444.068	0.7279
454.11	0.7387
464.152	0.7449
474.194	0.7412
484.236	0.7329
494.278	0.7157
504.32	0.6884
514.362	0.6442
524.404	0.6632
534.446	0.5241
544.488	0.6151
554.53	0.6698
564.572	0.6727
574.614	0.6247
584.656	0.4534
594.698	0.6274
604.74	0.6498
614.782	0.6236
624.824	0.5521
634.866	0.4492
644.908	0.6209
654.95	0.6228
664.992	0.6161
675.034	0.5751
685.076	0.6074
695.118	0.628
705.16	0.6399
715.202	0.6595
725.244	0.6857
735.286	0.7186
745.328	0.7504
755.37	0.7732
765.412	0.7853
775.454	0.7842
785.496	0.7609
795.538	0.7931
805.58	0.7792
815.622	0.7456
825.664	0.6784
835.706	0.7077
845.747	0.7519
855.789	0.7785
865.831	0.7822
875.873	0.7784
885.915	0.7511
895.957	0.6814
905.999	0.7438
916.041	0.8007
926.083	0.7719
936.125	0.7117
946.167	0.8261
956.209	0.8609
966.251	0.8558
976.293	0.8465
986.335	0.8327
996.377	0.8146
1006.42	0.7999
1016.46	0.8045
1026.5	0.7954
1036.55	0.7867
1046.59	0.7817
1056.63	0.793
1066.67	0.7814
1076.71	0.7327
1086.76	0.6481
1096.8	0.7105
1106.84	0.6988
1116.88	0.6333
1126.92	0.5863
1136.97	0.4558
1147.01	0.4401
1157.05	0.6194
1167.09	0.7926
1177.13	0.813
1187.18	0.8126
1197.22	0.8082
1207.26	0.7856
1217.3	0.7477
1227.34	0.7058
1237.39	0.5725
1247.43	0.6776
1257.47	0.7345
1267.51	0.7104
1277.55	0.6735
1287.6	0.5958
1297.64	0.4686
1307.68	0.378
1317.72	0.3865
1327.76	0.4182
1337.81	0.6149
1347.85	0.6289
1357.89	0.6309
1367.93	0.7565
1377.97	0.7918
1388.02	0.7743
1398.06	0.6411
1408.1	0.7545
1418.14	0.7906
1428.18	0.7827
1438.22	0.7566
1448.27	0.6856
1458.31	0.7656
1468.35	0.7725
1478.39	0.7555
1488.43	0.7773
1498.48	0.8129
1508.52	0.801
1518.56	0.7423
1528.6	0.6753
1538.64	0.6811
1548.69	0.7079
1558.73	0.624
1568.77	0.5231
1578.81	0.3801
1588.85	0.3012
1598.9	0.33
1608.94	0.1963
1618.98	0.2225
1629.02	0.4003
1639.06	0.6367
1649.11	0.7221
1659.15	0.8133
1669.19	0.8646
1679.23	0.8879
1689.27	0.8984
1699.32	0.9011
1709.36	0.9045
1719.4	0.9233
1729.44	0.9347
1739.48	0.9401
1749.53	0.9437
1759.57	0.9446
1769.61	0.9448
1779.65	0.9441
1789.69	0.943
1799.74	0.9417
1809.78	0.9405
1819.82	0.94
1829.86	0.9397
1839.9	0.9398
1849.95	0.9401
1859.99	0.9379
1870.03	0.9352
1880.07	0.9336
1890.11	0.9323
1900.16	0.9319
1910.2	0.9318
1920.24	0.9309
1930.28	0.9298
1940.32	0.9289
1950.37	0.9281
1960.41	0.9273
1970.45	0.9267
1980.49	0.926
1990.53	0.9228
2000.58	0.9174
2010.62	0.9112
2020.66	0.908
2030.7	0.9061
2040.74	0.9044
2050.79	0.9028
2060.83	0.9012
2070.87	0.9001
2080.91	0.899
2090.95	0.8983
2101	0.8977
2111.04	0.898
2121.08	0.8979
2131.12	0.8939
2141.16	0.8907
2151.21	0.8884
2161.25	0.8859
2171.29	0.8851
2181.33	0.8842
2191.37	0.8834
2201.42	0.8826
2211.46	0.8815
2221.5	0.8796
2231.54	0.8764
2241.58	0.8736
2251.63	0.8714
2261.67	0.8692
2271.71	0.8665
2281.75	0.8638
2291.79	0.861
2301.84	0.8582
2311.88	0.856
2321.92	0.8544
2331.96	0.8528
2342	0.8511
2352.05	0.8493
2362.09	0.8479
2372.13	0.8469
2382.17	0.845
2392.21	0.8418
2402.26	0.8376
2412.3	0.8332
2422.34	0.8279
2432.38	0.8227
2442.42	0.8176
2452.47	0.8125
2462.51	0.8074
2472.55	0.8017
2482.59	0.7957
2492.63	0.7898
2502.68	0.7835
2512.72	0.7772
2522.76	0.7708
2532.8	0.7644
2542.84	0.7579
2552.89	0.7517
2562.93	0.7449
2572.97	0.737
2583.01	0.7295
2593.05	0.7222
2603.1	0.7148
2613.14	0.7066
2623.18	0.6984
2633.22	0.6902
2643.26	0.6812
2653.31	0.6711
2663.35	0.6621
2673.39	0.654
2683.43	0.6486
2693.47	0.6467
2703.52	0.6458
2713.56	0.6452
2723.6	0.6444
2733.64	0.6439
2743.68	0.6403
2753.73	0.635
2763.77	0.6302
2773.81	0.6259
2783.85	0.6264
2793.89	0.6283
2803.94	0.6298
2813.98	0.6327
2824.02	0.6337
2834.06	0.6296
2844.1	0.6232
2854.15	0.6202
2864.19	0.6205
2874.23	0.615
2884.27	0.6022
2894.31	0.5896
2904.36	0.5793
2914.4	0.5712
2924.44	0.5664
2934.48	0.5644
2944.52	0.5632
2954.57	0.5624
2964.61	0.5619
2974.65	0.5612
2984.69	0.5598
2994.73	0.5556
3004.78	0.5612
3014.82	0.5631
3024.86	0.5624
3034.9	0.5608
3044.94	0.561
3054.99	0.5649
3065.03	0.5732
3075.07	0.5862
3085.11	0.5975
3095.15	0.6042
3105.2	0.6087
3115.24	0.6112
3125.28	0.6113
3135.32	0.6087
3145.36	0.603
3155.41	0.5944
3165.45	0.5827
3175.49	0.5707
3185.53	0.5606
3195.57	0.5564
3205.62	0.5581
3215.66	0.5643
3225.7	0.5738
3235.74	0.5864
3245.78	0.5996
3255.83	0.6095
3265.87	0.6095
3275.91	0.6061
3285.95	0.5965
3295.99	0.577
3306.04	0.513
3316.08	0.4278
3326.12	0.3774
3336.16	0.3753
3346.2	0.4597
3356.25	0.5531
3366.29	0.5829
3376.33	0.5838
3386.37	0.5827
3396.41	0.5829
3406.46	0.5833
3416.5	0.5845
3426.54	0.5875
3436.58	0.5934
3446.62	0.6026
3456.67	0.6115
3466.71	0.6211
3476.75	0.6312
3486.79	0.6425
3496.83	0.654
3506.88	0.6657
3516.92	0.6777
3526.96	0.6896
3537	0.702
3547.04	0.7143
3557.09	0.7278
3567.13	0.7417
3577.17	0.7567
3587.21	0.7739
3597.25	0.7909
3607.3	0.8093
3617.34	0.8296
3627.38	0.85
3637.42	0.8595
3647.46	0.8641
3657.51	0.8664
3667.55	0.8683
3677.59	0.8704
3687.63	0.8732
3697.67	0.8764
3707.72	0.8792
3717.76	0.8809
3727.8	0.8815
3737.84	0.8801
3747.88	0.877
3757.93	0.8724
3767.97	0.8704
3778.01	0.8687
3788.05	0.8684
3798.09	0.8681
3808.13	0.8679
3818.18	0.8676
3828.22	0.8669
3838.26	0.8658
3848.3	0.8648
3858.34	0.8638
3868.39	0.8629
3878.43	0.862
3888.47	0.8612
3898.51	0.8603
3908.55	0.8594
3918.6	0.859
3928.64	0.8585
3938.68	0.858
3948.72	0.8576
3958.76	0.8574
3968.81	0.8575
3978.85	0.8576
3988.89	0.8579
3998.93	0.8582
4008.97	0.8586
