Infrared Spectrum: p-Toluenesulfonamide, Alpha-[6-(methylthio)-9H-purin-9-yl]-
Formula: C13 H13 N5 O2 S2
CAS: 21268-01-9
State: SOLID (1 mg / 650 mg KBr DISC)
Class: COBLENTZ III
Instrument: PERKIN-ELMER 521 (GRATING)
Instrument parameters: FILTERS AT 3130, 2475, 2000, 620. GRATING CHANGES: 2000, 630 CM^-^1
Sampling: TRANSMISSION
Resolution: 2
Origin: SOUTHERN RESEARCH INSTITUTE
1/CM	TRANSMITTANCE
248.5	0.2959
258.536	0.3458
268.572	0.4033
278.608	0.4499
288.644	0.5324
298.68	0.6027
308.716	0.6349
318.752	0.6607
328.788	0.6786
338.824	0.6967
348.86	0.7248
358.896	0.736
368.932	0.7425
378.968	0.7508
389.004	0.7608
399.04	0.775
409.076	0.7902
419.112	0.7943
429.148	0.7949
439.184	0.7944
449.22	0.7916
459.256	0.7855
469.292	0.7771
479.328	0.7688
489.364	0.7627
499.4	0.7563
509.436	0.7407
519.472	0.6614
529.508	0.5097
539.544	0.5136
549.58	0.4579
559.616	0.6842
569.652	0.5458
579.688	0.5784
589.724	0.6041
599.76	0.685
609.796	0.7638
619.832	0.6952
629.868	0.5499
639.904	0.7104
649.94	0.7562
659.976	0.6416
670.012	0.484
680.048	0.5323
690.084	0.6415
700.12	0.6587
710.156	0.7036
720.192	0.7278
730.228	0.7979
740.264	0.8005
750.3	0.7719
760.336	0.6581
770.372	0.648
780.408	0.712
790.444	0.8085
800.48	0.6955
810.516	0.8051
820.552	0.838
830.588	0.8294
840.624	0.8245
850.66	0.7314
860.696	0.6482
870.732	0.7575
880.768	0.7444
890.804	0.7169
900.84	0.663
910.876	0.6004
920.912	0.5068
930.948	0.538
940.984	0.6664
951.02	0.794
961.056	0.7314
971.092	0.7409
981.128	0.865
991.164	0.8814
1001.2	0.8602
1011.24	0.8266
1021.27	0.8697
1031.31	0.8614
1041.34	0.8507
1051.38	0.8368
1061.42	0.816
1071.45	0.7659
1081.49	0.5901
1091.52	0.4508
1101.56	0.7216
1111.6	0.6944
1121.63	0.6549
1131.67	0.4045
1141.7	0.1495
1151.74	0.2298
1161.78	0.4128
1171.81	0.575
1181.85	0.4149
1191.88	0.5969
1201.92	0.688
1211.96	0.5955
1221.99	0.5791
1232.03	0.7957
1242.06	0.6737
1252.1	0.5702
1262.14	0.7421
1272.17	0.6632
1282.21	0.6053
1292.24	0.6575
1302.28	0.454
1312.32	0.2504
1322.35	0.1089
1332.39	0.3395
1342.42	0.6393
1352.46	0.7438
1362.5	0.7761
1372.53	0.7769
1382.57	0.7822
1392.6	0.6194
1402.64	0.5094
1412.68	0.5485
1422.71	0.4867
1432.75	0.6109
1442.78	0.8102
1452.82	0.8801
1462.86	0.8751
1472.89	0.8451
1482.93	0.7327
1492.96	0.7398
1503	0.8461
1513.04	0.8373
1523.07	0.7971
1533.11	0.737
1543.14	0.5418
1553.18	0.2889
1563.22	0.1496
1573.25	0.214
1583.29	0.5021
1593.32	0.686
1603.36	0.7865
1613.4	0.8331
1623.43	0.8486
1633.47	0.8653
1643.5	0.882
1653.54	0.8999
1663.58	0.9173
1673.61	0.9288
1683.65	0.9354
1693.68	0.938
1703.72	0.9382
1713.76	0.9375
1723.79	0.9361
1733.83	0.9328
1743.86	0.9286
1753.9	0.9258
1763.94	0.9253
1773.97	0.9291
1784.01	0.9344
1794.04	0.9402
1804.08	0.9451
1814.12	0.9483
1824.15	0.9496
1834.19	0.9496
1844.22	0.943
1854.26	0.9372
1864.3	0.9357
1874.33	0.9388
1884.37	0.9414
1894.4	0.9346
1904.44	0.9299
1914.48	0.9296
1924.51	0.9316
1934.55	0.9329
1944.58	0.9326
1954.62	0.9317
1964.66	0.931
1974.69	0.9302
1984.73	0.9295
1994.76	0.9289
2004.8	0.9282
2014.84	0.927
2024.87	0.9257
2034.91	0.9244
2044.94	0.9231
2054.98	0.9218
2065.02	0.9204
2075.05	0.9196
2085.09	0.9198
2095.12	0.92
2105.16	0.9195
2115.2	0.9186
2125.23	0.9177
2135.27	0.9168
2145.3	0.9158
2155.34	0.9148
2165.38	0.9135
2175.41	0.9123
2185.45	0.911
2195.48	0.9101
2205.52	0.91
2215.56	0.9099
2225.59	0.9096
2235.63	0.9094
2245.66	0.909
2255.7	0.9087
2265.74	0.9083
2275.77	0.9081
2285.81	0.9079
2295.84	0.9073
2305.88	0.9059
2315.92	0.9046
2325.95	0.9034
2335.99	0.9019
2346.02	0.899
2356.06	0.8962
2366.1	0.8934
2376.13	0.893
2386.17	0.8927
2396.2	0.8922
2406.24	0.8917
2416.28	0.8911
2426.31	0.8905
2436.35	0.8896
2446.38	0.8876
2456.42	0.8815
2466.46	0.8758
2476.49	0.8718
2486.53	0.8697
2496.56	0.8697
2506.6	0.8701
2516.64	0.8705
2526.67	0.8707
2536.71	0.8694
2546.74	0.8663
2556.78	0.8619
2566.82	0.8565
2576.85	0.8495
2586.89	0.8423
2596.92	0.8348
2606.96	0.8249
2617	0.8159
2627.03	0.808
2637.07	0.8037
2647.1	0.8034
2657.14	0.8082
2667.18	0.8172
2677.21	0.8256
2687.25	0.8308
2697.28	0.8338
2707.32	0.8348
2717.36	0.8329
2727.39	0.831
2737.43	0.8287
2747.46	0.8256
2757.5	0.8198
2767.54	0.8139
2777.57	0.8071
2787.61	0.8002
2797.64	0.7912
2807.68	0.7821
2817.72	0.7727
2827.75	0.7633
2837.79	0.7525
2847.82	0.7428
2857.86	0.7357
2867.9	0.7307
2877.93	0.718
2887.97	0.7019
2898	0.6791
2908.04	0.6512
2918.08	0.6218
2928.11	0.6168
2938.15	0.6339
2948.18	0.6227
2958.22	0.6046
2968.26	0.5867
2978.29	0.5659
2988.33	0.5498
2998.36	0.5405
3008.4	0.538
3018.44	0.5358
3028.47	0.5272
3038.51	0.5129
3048.54	0.5106
3058.58	0.5244
3068.62	0.5478
3078.65	0.5713
3088.69	0.5805
3098.72	0.5813
3108.76	0.5818
3118.8	0.5958
3128.83	0.6172
3138.87	0.6157
3148.9	0.6005
3158.94	0.5888
3168.98	0.5806
3179.01	0.5711
3189.05	0.5574
3199.08	0.5556
3209.12	0.5559
3219.16	0.5562
3229.19	0.5538
3239.23	0.5394
3249.26	0.517
3259.3	0.4891
3269.34	0.4526
3279.37	0.4102
3289.41	0.373
3299.44	0.3785
3309.48	0.4206
3319.52	0.4664
3329.55	0.5017
3339.59	0.5361
3349.62	0.5697
3359.66	0.5985
3369.7	0.6252
3379.73	0.6368
3389.77	0.644
3399.8	0.6509
3409.84	0.6584
3419.88	0.666
3429.91	0.6725
3439.95	0.679
3449.98	0.6854
3460.02	0.6918
3470.06	0.6981
3480.09	0.7033
3490.13	0.7084
3500.16	0.7141
3510.2	0.721
3520.24	0.7289
3530.27	0.7389
3540.31	0.7499
3550.34	0.7617
3560.38	0.7744
3570.42	0.7859
3580.45	0.797
3590.49	0.808
3600.52	0.8188
3610.56	0.8296
3620.6	0.8416
3630.63	0.8501
3640.67	0.8536
3650.7	0.8548
3660.74	0.855
3670.78	0.8548
3680.81	0.8552
3690.85	0.8582
3700.88	0.8652
3710.92	0.8681
3720.96	0.8691
3730.99	0.8697
3741.03	0.8702
3751.06	0.8707
3761.1	0.8697
3771.14	0.8686
3781.17	0.8676
3791.21	0.8665
3801.24	0.8652
3811.28	0.8639
3821.32	0.8626
3831.35	0.8614
3841.39	0.8604
3851.42	0.8593
3861.46	0.8583
3871.5	0.8572
3881.53	0.8561
3891.57	0.855
3901.6	0.8539
3911.64	0.8529
3921.68	0.8522
3931.71	0.8516
3941.75	0.851
3951.78	0.8504
3961.82	0.8498
3971.86	0.8492
3981.89	0.8468
3991.93	0.8484
4001.96	0.848
4012	0.8477
