Infrared Spectrum: 9H-PURINE, 6(3-DIBUTYLAMINOPROPYLAMINO)-, HYDROCHLORIDE
Formula: C16 H29 Cl N6
CAS: 21266-62-6
State: SOLID (1 mg / 650 mg KBr DISC)
Class: COBLENTZ III
Instrument: PERKIN-ELMER 521 (GRATING)
Instrument parameters: FILTERS AT 3130, 2475, 2000, 1150, 700, 410. GRATING CHANGES: 2000, 620 CM^-^1
Sampling: TRANSMISSION
Resolution: 2
Origin: SOUTHERN RESEARCH INSTITUTE (W.C. COBURN, JR.)
1/CM	TRANSMITTANCE
250.473	0.275
260.286	0.3231
270.099	0.4021
279.912	0.4525
289.725	0.5014
299.538	0.561
309.352	0.5865
319.165	0.6082
328.978	0.6392
338.791	0.6752
348.604	0.7066
358.417	0.7241
368.23	0.7341
378.043	0.742
387.856	0.7489
397.669	0.7558
407.483	0.7667
417.296	0.77
427.109	0.769
436.922	0.7565
446.735	0.7734
456.548	0.7793
466.361	0.783
476.174	0.7872
485.987	0.791
495.8	0.7899
505.613	0.7583
515.427	0.7909
525.24	0.791
535.053	0.791
544.866	0.791
554.679	0.79
564.492	0.7675
574.305	0.7852
584.118	0.784
593.931	0.77
603.744	0.7531
613.557	0.6024
623.371	0.784
633.184	0.7721
642.997	0.759
652.81	0.7219
662.623	0.7573
672.436	0.7981
682.249	0.7983
692.062	0.816
701.875	0.8013
711.688	0.8019
721.502	0.7681
731.315	0.7439
741.128	0.7981
750.941	0.7631
760.754	0.7925
770.567	0.8158
780.38	0.817
790.193	0.7535
800.006	0.8172
809.819	0.8225
819.632	0.8101
829.446	0.7932
839.259	0.8034
849.072	0.7738
858.885	0.7344
868.698	0.713
878.511	0.7071
888.324	0.6618
898.137	0.6533
907.95	0.7042
917.763	0.6253
927.577	0.7111
937.39	0.77
947.203	0.7539
957.016	0.811
966.829	0.8172
976.642	0.797
986.455	0.8053
996.268	0.806
1006.08	0.798
1015.89	0.7849
1025.71	0.7765
1035.52	0.7797
1045.33	0.78
1055.15	0.7692
1064.96	0.7805
1074.77	0.7894
1084.59	0.766
1094.4	0.773
1104.21	0.764
1114.03	0.692
1123.84	0.717
1133.65	0.6737
1143.46	0.5284
1153.28	0.6306
1163.09	0.7419
1172.9	0.8012
1182.72	0.802
1192.53	0.7961
1202.34	0.7825
1212.16	0.7504
1221.97	0.7271
1231.78	0.5736
1241.6	0.6438
1251.41	0.5483
1261.22	0.7578
1271.03	0.765
1280.85	0.7272
1290.66	0.6469
1300.47	0.6428
1310.29	0.6639
1320.1	0.3755
1329.91	0.689
1339.73	0.6298
1349.54	0.702
1359.35	0.6736
1369.17	0.6029
1378.98	0.496
1388.79	0.6241
1398.61	0.651
1408.42	0.6415
1418.23	0.5539
1428.04	0.4848
1437.86	0.4395
1447.67	0.455
1457.48	0.4487
1467.3	0.5099
1477.11	0.6399
1486.92	0.7186
1496.74	0.7521
1506.55	0.7521
1516.36	0.7423
1526.18	0.7242
1535.99	0.7186
1545.8	0.6728
1555.61	0.4958
1565.43	0.5027
1575.24	0.613
1585.05	0.5481
1594.87	0.4887
1604.68	0.3951
1614.49	0.2622
1624.31	0.16
1634.12	0.2692
1643.93	0.5233
1653.75	0.6726
1663.56	0.7622
1673.37	0.7942
1683.18	0.8101
1693	0.8185
1702.81	0.8238
1712.62	0.8253
1722.44	0.8274
1732.25	0.83
1742.06	0.832
1751.88	0.833
1761.69	0.834
1771.5	0.834
1781.32	0.834
1791.13	0.834
1800.94	0.834
1810.75	0.834
1820.57	0.834
1830.38	0.836
1840.19	0.839
1850.01	0.839
1859.82	0.84
1869.63	0.833
1879.45	0.8289
1889.26	0.8329
1899.07	0.8398
1908.89	0.844
1918.7	0.844
1928.51	0.844
1938.33	0.844
1948.14	0.844
1957.95	0.8433
1967.76	0.847
1977.58	0.848
1987.39	0.8501
1997.2	0.851
2007.02	0.848
2016.83	0.848
2026.64	0.847
2036.46	0.846
2046.27	0.844
2056.08	0.844
2065.9	0.843
2075.71	0.841
2085.52	0.841
2095.33	0.841
2105.15	0.84
2114.96	0.839
2124.77	0.836
2134.59	0.834
2144.4	0.832
2154.21	0.829
2164.03	0.826
2173.84	0.823
2183.65	0.822
2193.47	0.816
2203.28	0.812
2213.09	0.808
2222.9	0.804
2232.72	0.8
2242.53	0.795
2252.34	0.791
2262.16	0.786
2271.97	0.779
2281.78	0.77
2291.6	0.763
2301.41	0.748
2311.22	0.739
2321.04	0.737
2330.85	0.732
2340.66	0.721
2350.48	0.709
2360.29	0.699
2370.1	0.679
2379.91	0.668
2389.73	0.661
2399.54	0.654
2409.35	0.641
2419.17	0.63
2428.98	0.609
2438.79	0.597
2448.61	0.579
2458.42	0.544
2468.23	0.507
2478.05	0.465
2487.86	0.455
2497.67	0.446
2507.48	0.461
2517.3	0.468
2527.11	0.468
2536.92	0.486
2546.74	0.503
2556.55	0.492
2566.36	0.468
2576.18	0.464
2585.99	0.476
2595.8	0.5
2605.62	0.513
2615.43	0.521
2625.24	0.531
2635.05	0.558
2644.87	0.569
2654.68	0.57
2664.49	0.558
2674.31	0.548
2684.12	0.546
2693.93	0.553
2703.75	0.566
2713.56	0.567
2723.37	0.573
2733.19	0.572
2743	0.565
2752.81	0.555
2762.63	0.551
2772.44	0.553
2782.25	0.562
2792.06	0.57
2801.88	0.576
2811.69	0.581
2821.5	0.587
2831.32	0.59
2841.13	0.586
2850.94	0.562
2860.76	0.488
2870.57	0.52
2880.38	0.534
2890.2	0.527
2900.01	0.504
2909.82	0.45
2919.63	0.397
2929.45	0.37
2939.26	0.369
2949.07	0.332
2958.89	0.365
2968.7	0.427
2978.51	0.462
2988.33	0.471
2998.14	0.46
3007.95	0.46
3017.77	0.46
3027.58	0.44
3037.39	0.439
3047.2	0.51
3057.02	0.56
3066.83	0.59
3076.64	0.595
3086.46	0.602
3096.27	0.609
3106.08	0.616
3115.9	0.618
3125.71	0.622
3135.52	0.615
3145.34	0.586
3155.15	0.588
3164.96	0.606
3174.78	0.618
3184.59	0.616
3194.4	0.62
3204.21	0.62
3214.03	0.611
3223.84	0.609
3233.65	0.64
3243.47	0.658
3253.28	0.655
3263.09	0.653
3272.91	0.658
3282.72	0.674
3292.53	0.693
3302.35	0.709
3312.16	0.713
3321.97	0.713
3331.78	0.71
3341.6	0.704
3351.41	0.693
3361.22	0.682
3371.04	0.672
3380.85	0.664
3390.66	0.657
3400.48	0.65
3410.29	0.646
3420.1	0.644
3429.92	0.644
3439.73	0.648
3449.54	0.653
3459.35	0.658
3469.17	0.665
3478.98	0.672
3488.79	0.679
3498.61	0.686
3508.42	0.695
3518.23	0.706
3528.05	0.714
3537.86	0.725
3547.67	0.735
3557.49	0.745
3567.3	0.758
3577.11	0.77
3586.93	0.781
3596.74	0.791
3606.55	0.802
3616.36	0.812
3626.18	0.822
3635.99	0.832
3645.8	0.837
3655.62	0.84
3665.43	0.844
3675.24	0.834
3685.06	0.84
3694.87	0.844
3704.68	0.854
3714.5	0.854
3724.31	0.855
3734.12	0.857
3743.93	0.857
3753.75	0.857
3763.56	0.858
3773.37	0.858
3783.19	0.858
3793	0.858
3802.81	0.858
3812.63	0.857
3822.44	0.855
3832.25	0.855
3842.07	0.855
3851.88	0.855
3861.69	0.855
3871.5	0.857
3881.32	0.857
3891.13	0.857
3900.94	0.857
3910.76	0.855
3920.57	0.855
3930.38	0.854
3940.2	0.854
3950.01	0.854
3959.82	0.854
3969.64	0.854
3979.45	0.854
3989.26	0.854
3999.08	0.854
4008.89	0.853
