Infrared Spectrum: p-Toluenesulfonamide, Alpha-(1,6-dihydro-6-oxo-9H-purin-9-yl)-
Formula: C12 H11 N5 O3 S
CAS: 21267-97-0
State: SOLID (1 mg / 650 mg KBr DISC)
Class: COBLENTZ III
Instrument: PERKIN-ELMER 521 (GRATING)
Instrument parameters: FILTERS AT 3130, 2475, 2000, 630. GRATING CHANGES: 2000, 630 CM^-^1
Sampling: TRANSMISSION
Resolution: 2
Origin: SOUTHERN RESEARCH INSTITUTE
1/CM	TRANSMITTANCE
250	0.3663
260.032	0.4169
270.064	0.485
280.096	0.518
290.128	0.5998
300.16	0.6393
310.192	0.6561
320.224	0.666
330.256	0.6745
340.288	0.6735
350.32	0.6712
360.352	0.6856
370.384	0.7164
380.416	0.7077
390.448	0.7019
400.48	0.7317
410.512	0.741
420.544	0.7397
430.576	0.7378
440.608	0.7357
450.64	0.7337
460.672	0.7216
470.704	0.7073
480.736	0.72
490.768	0.7096
500.8	0.6906
510.832	0.6623
520.864	0.5552
530.896	0.4416
540.928	0.5417
550.96	0.5376
560.992	0.6947
571.024	0.64
581.056	0.5065
591.088	0.492
601.12	0.3878
611.152	0.7117
621.184	0.7743
631.216	0.7477
641.248	0.6665
651.28	0.7149
661.312	0.5422
671.344	0.4862
681.376	0.703
691.408	0.6533
701.44	0.5014
711.472	0.6132
721.504	0.7264
731.536	0.782
741.568	0.7503
751.6	0.6465
761.632	0.4819
771.664	0.7735
781.696	0.5393
791.728	0.7536
801.76	0.7295
811.792	0.7308
821.824	0.7352
831.856	0.6909
841.888	0.6537
851.92	0.6854
861.952	0.6565
871.984	0.6106
882.016	0.6008
892.048	0.5649
902.08	0.5566
912.112	0.5992
922.144	0.6588
932.176	0.7218
942.208	0.7392
952.24	0.8202
962.272	0.825
972.304	0.8204
982.336	0.8134
992.368	0.8115
1002.4	0.7968
1012.43	0.717
1022.46	0.7838
1032.5	0.7176
1042.53	0.7636
1052.56	0.7489
1062.59	0.7276
1072.62	0.6956
1082.66	0.5898
1092.69	0.4738
1102.72	0.6059
1112.75	0.6199
1122.78	0.527
1132.82	0.5319
1142.85	0.4452
1152.88	0.2447
1162.91	0.4065
1172.94	0.6431
1182.98	0.6018
1193.01	0.5098
1203.04	0.5293
1213.07	0.4635
1223.1	0.6751
1233.14	0.8007
1243.17	0.7948
1253.2	0.7761
1263.23	0.7408
1273.26	0.6316
1283.3	0.6235
1293.33	0.5696
1303.36	0.4903
1313.39	0.427
1323.42	0.3703
1333.46	0.2568
1343.49	0.2929
1353.52	0.553
1363.55	0.6886
1373.58	0.7221
1383.62	0.7179
1393.65	0.6797
1403.68	0.4863
1413.71	0.344
1423.74	0.5482
1433.78	0.6877
1443.81	0.7471
1453.84	0.7002
1463.87	0.6396
1473.9	0.6077
1483.94	0.6741
1493.97	0.7186
1504	0.6612
1514.03	0.5606
1524.06	0.6014
1534.1	0.58
1544.13	0.4243
1554.16	0.48
1564.19	0.5008
1574.22	0.5052
1584.26	0.4549
1594.29	0.4023
1604.32	0.5941
1614.35	0.6889
1624.38	0.6521
1634.42	0.607
1644.45	0.5057
1654.48	0.3547
1664.51	0.1981
1674.54	0.1175
1684.58	0.1248
1694.61	0.1952
1704.64	0.3126
1714.67	0.5039
1724.7	0.6244
1734.74	0.7251
1744.77	0.7675
1754.8	0.8192
1764.83	0.8594
1774.86	0.8862
1784.9	0.8888
1794.93	0.8893
1804.96	0.8899
1814.99	0.89
1825.02	0.8891
1835.06	0.8874
1845.09	0.8859
1855.12	0.8842
1865.15	0.8816
1875.18	0.879
1885.22	0.8767
1895.25	0.8725
1905.28	0.8685
1915.31	0.8651
1925.34	0.8618
1935.38	0.8597
1945.41	0.8579
1955.44	0.8571
1965.47	0.8567
1975.5	0.8576
1985.54	0.8603
1995.57	0.8609
2005.6	0.8599
2015.63	0.8577
2025.66	0.8544
2035.7	0.8517
2045.73	0.85
2055.76	0.8484
2065.79	0.8467
2075.82	0.845
2085.86	0.8431
2095.89	0.841
2105.92	0.8389
2115.95	0.8369
2125.98	0.8349
2136.02	0.8329
2146.05	0.8304
2156.08	0.8279
2166.11	0.8253
2176.14	0.8227
2186.18	0.8201
2196.21	0.8175
2206.24	0.8149
2216.27	0.8102
2226.3	0.8058
2236.34	0.8017
2246.37	0.7975
2256.4	0.7953
2266.43	0.7934
2276.46	0.7911
2286.5	0.7882
2296.53	0.7848
2306.56	0.7809
2316.59	0.7771
2326.62	0.7733
2336.66	0.7692
2346.69	0.765
2356.72	0.7608
2366.75	0.7568
2376.78	0.7526
2386.82	0.7474
2396.85	0.7422
2406.88	0.7366
2416.91	0.7296
2426.94	0.7227
2436.98	0.7157
2447.01	0.7085
2457.04	0.7014
2467.07	0.6945
2477.1	0.6879
2487.14	0.6813
2497.17	0.6748
2507.2	0.669
2517.23	0.6632
2527.26	0.6568
2537.3	0.6502
2547.33	0.6436
2557.36	0.6371
2567.39	0.631
2577.42	0.6188
2587.46	0.6065
2597.49	0.5954
2607.52	0.589
2617.55	0.5877
2627.58	0.5881
2637.62	0.5859
2647.65	0.5755
2657.68	0.5645
2667.71	0.5663
2677.74	0.5698
2687.78	0.5655
2697.81	0.5591
2707.84	0.5537
2717.87	0.5489
2727.9	0.5443
2737.94	0.5387
2747.97	0.5328
2758	0.5267
2768.03	0.5219
2778.06	0.5174
2788.1	0.514
2798.13	0.5104
2808.16	0.5083
2818.19	0.5077
2828.22	0.5046
2838.26	0.5003
2848.29	0.4982
2858.32	0.5019
2868.35	0.5174
2878.38	0.5328
2888.42	0.5463
2898.45	0.5466
2908.48	0.5543
2918.51	0.565
2928.54	0.563
2938.58	0.5555
2948.61	0.5462
2958.64	0.5371
2968.67	0.5336
2978.7	0.5403
2988.74	0.5366
2998.77	0.514
3008.8	0.5001
3018.83	0.4868
3028.86	0.4621
3038.9	0.4386
3048.93	0.4188
3058.96	0.4324
3068.99	0.4644
3079.02	0.4691
3089.06	0.4493
3099.09	0.4352
3109.12	0.4543
3119.15	0.4854
3129.18	0.523
3139.22	0.5251
3149.25	0.5196
3159.28	0.5137
3169.31	0.5085
3179.34	0.5037
3189.38	0.4958
3199.41	0.4801
3209.44	0.4623
3219.47	0.4424
3229.5	0.4221
3239.54	0.4026
3249.57	0.3876
3259.6	0.3941
3269.63	0.4198
3279.66	0.4552
3289.7	0.4955
3299.73	0.5222
3309.76	0.5317
3319.79	0.5344
3329.82	0.5313
3339.86	0.5187
3349.89	0.4947
3359.92	0.4772
3369.95	0.482
3379.98	0.5017
3390.02	0.544
3400.05	0.5789
3410.08	0.612
3420.11	0.6407
3430.14	0.6515
3440.18	0.6568
3450.21	0.6629
3460.24	0.6672
3470.27	0.6706
3480.3	0.6736
3490.34	0.6768
3500.37	0.6808
3510.4	0.6849
3520.43	0.6912
3530.46	0.6976
3540.5	0.7041
3550.53	0.7101
3560.56	0.7169
3570.59	0.7243
3580.62	0.7314
3590.66	0.7388
3600.69	0.7464
3610.72	0.7545
3620.75	0.7618
3630.78	0.7684
3640.82	0.7724
3650.85	0.7737
3660.88	0.7744
3670.91	0.7759
3680.94	0.7768
3690.98	0.7774
3701.01	0.7774
3711.04	0.7772
3721.07	0.777
3731.1	0.7741
3741.14	0.7694
3751.17	0.7696
3761.2	0.7715
3771.23	0.7782
3781.26	0.7775
3791.3	0.776
3801.33	0.7722
3811.36	0.7645
3821.39	0.7639
3831.42	0.7634
3841.46	0.7604
3851.49	0.7558
3861.52	0.7519
3871.55	0.7498
3881.58	0.7496
3891.62	0.7501
3901.65	0.7507
3911.68	0.7512
3921.71	0.7514
3931.74	0.7515
3941.78	0.7515
3951.81	0.7514
3961.84	0.7507
3971.87	0.7485
3981.9	0.7451
3991.94	0.7453
4001.97	0.7457
4012	0.7461
