Infrared Spectrum: p-Toluenesulfonamide, Alpha-9H-adenin-9-yl-
Formula: C12 H12 N6 O2 S
CAS: 21267-98-1
State: SOLID (1 mg / 650 mg KBr DISC)
Class: COBLENTZ III
Instrument: PERKIN-ELMER 521 (GRATING)
Instrument parameters: FILTERS AT 3130, 2475, 2000, 630. GRATING CHANGES: 2000, 630 CM^-^1
Sampling: TRANSMISSION
Resolution: 2
Origin: SOUTHERN RESEARCH INSTITUTE
1/CM	TRANSMITTANCE
246	0.2664
256.043	0.3305
266.085	0.3888
276.128	0.4501
286.171	0.5045
296.213	0.5649
306.256	0.6001
316.299	0.625
326.341	0.6312
336.384	0.6408
346.427	0.7078
356.469	0.7338
366.512	0.7412
376.555	0.7387
386.597	0.7396
396.64	0.7442
406.683	0.7587
416.725	0.7586
426.768	0.758
436.811	0.757
446.853	0.7549
456.896	0.7525
466.939	0.7509
476.981	0.7491
487.024	0.747
497.067	0.743
507.109	0.7298
517.152	0.699
527.195	0.6251
537.237	0.439
547.28	0.5496
557.323	0.6125
567.365	0.6735
577.408	0.6092
587.451	0.5847
597.493	0.6366
607.536	0.517
617.579	0.6225
627.621	0.6626
637.664	0.6426
647.707	0.5919
657.749	0.6828
667.792	0.586
677.835	0.6596
687.877	0.6509
697.92	0.7169
707.963	0.7194
718.005	0.7371
728.048	0.7221
738.091	0.8062
748.133	0.8057
758.176	0.7862
768.219	0.7232
778.261	0.7033
788.304	0.7531
798.347	0.7022
808.389	0.7999
818.432	0.8359
828.475	0.8501
838.517	0.845
848.56	0.8315
858.603	0.8292
868.645	0.8322
878.688	0.814
888.731	0.7775
898.773	0.6894
908.816	0.7398
918.859	0.7168
928.901	0.7093
938.944	0.7223
948.987	0.775
959.029	0.7855
969.072	0.7822
979.115	0.8428
989.157	0.8364
999.2	0.8067
1009.24	0.7438
1019.29	0.7548
1029.33	0.8309
1039.37	0.8224
1049.41	0.8105
1059.46	0.7801
1069.5	0.732
1079.54	0.6923
1089.58	0.5927
1099.63	0.6845
1109.67	0.7246
1119.71	0.7262
1129.75	0.6803
1139.8	0.5075
1149.84	0.2513
1159.88	0.4225
1169.93	0.747
1179.97	0.7373
1190.01	0.7432
1200.05	0.7374
1210.1	0.7152
1220.14	0.7679
1230.18	0.7054
1240.22	0.6242
1250.27	0.5563
1260.31	0.6868
1270.35	0.6749
1280.39	0.6192
1290.44	0.5985
1300.48	0.4547
1310.52	0.4204
1320.57	0.2632
1330.61	0.3734
1340.65	0.6147
1350.69	0.6163
1360.74	0.6307
1370.78	0.7752
1380.82	0.7382
1390.86	0.7473
1400.91	0.6492
1410.95	0.5055
1420.99	0.546
1431.03	0.6368
1441.08	0.7912
1451.12	0.7731
1461.16	0.6932
1471.21	0.5652
1481.25	0.6827
1491.29	0.7733
1501.33	0.7884
1511.38	0.7867
1521.42	0.7869
1531.46	0.7757
1541.5	0.7473
1551.55	0.7124
1561.59	0.6496
1571.63	0.5271
1581.67	0.3653
1591.72	0.3094
1601.76	0.2979
1611.8	0.5
1621.85	0.5002
1631.89	0.4314
1641.93	0.3626
1651.97	0.2937
1662.02	0.3339
1672.06	0.6541
1682.1	0.7523
1692.14	0.7939
1702.19	0.8206
1712.23	0.8424
1722.27	0.8585
1732.31	0.8773
1742.36	0.8949
1752.4	0.9145
1762.44	0.9246
1772.49	0.9293
1782.53	0.9321
1792.57	0.9321
1802.61	0.9321
1812.66	0.9321
1822.7	0.932
1832.74	0.9317
1842.78	0.9315
1852.83	0.9313
1862.87	0.9311
1872.91	0.9273
1882.95	0.9187
1893	0.9131
1903.04	0.9136
1913.08	0.9152
1923.13	0.9161
1933.17	0.916
1943.21	0.9159
1953.25	0.9157
1963.3	0.9153
1973.34	0.9145
1983.38	0.9137
1993.42	0.9124
2003.47	0.9112
2013.51	0.91
2023.55	0.9086
2033.59	0.9071
2043.64	0.9057
2053.68	0.9038
2063.72	0.901
2073.77	0.8982
2083.81	0.8958
2093.85	0.8949
2103.89	0.894
2113.94	0.8944
2123.98	0.8948
2134.02	0.8946
2144.06	0.893
2154.11	0.8914
2164.15	0.8895
2174.19	0.8871
2184.23	0.8847
2194.28	0.8823
2204.32	0.8797
2214.36	0.8769
2224.41	0.8741
2234.45	0.8719
2244.49	0.8712
2254.53	0.8705
2264.58	0.8698
2274.62	0.8691
2284.66	0.8685
2294.7	0.8672
2304.75	0.8658
2314.79	0.8644
2324.83	0.863
2334.87	0.8614
2344.92	0.8597
2354.96	0.858
2365	0.8564
2375.05	0.8539
2385.09	0.8511
2395.13	0.8484
2405.17	0.8455
2415.22	0.8421
2425.26	0.8387
2435.3	0.8353
2445.34	0.8319
2455.39	0.8283
2465.43	0.8241
2475.47	0.8199
2485.51	0.8157
2495.56	0.8111
2505.6	0.8061
2515.64	0.8012
2525.69	0.7961
2535.73	0.7907
2545.77	0.7839
2555.81	0.7765
2565.86	0.7678
2575.9	0.7583
2585.94	0.7484
2595.98	0.7369
2606.03	0.7279
2616.07	0.7187
2626.11	0.7086
2636.15	0.6953
2646.2	0.6963
2656.24	0.6992
2666.28	0.7042
2676.33	0.7107
2686.37	0.7244
2696.41	0.7298
2706.45	0.7275
2716.5	0.7205
2726.54	0.7137
2736.58	0.7081
2746.62	0.7039
2756.67	0.7007
2766.71	0.6942
2776.75	0.6863
2786.79	0.6784
2796.84	0.6704
2806.88	0.6625
2816.92	0.6534
2826.97	0.6427
2837.01	0.6297
2847.05	0.613
2857.09	0.6001
2867.14	0.5888
2877.18	0.5804
2887.22	0.5752
2897.26	0.5692
2907.31	0.5615
2917.35	0.5538
2927.39	0.5521
2937.43	0.5533
2947.48	0.554
2957.52	0.5535
2967.56	0.554
2977.61	0.5569
2987.65	0.5592
2997.69	0.5588
3007.73	0.5561
3017.78	0.5524
3027.82	0.5468
3037.86	0.5415
3047.9	0.5375
3057.95	0.5341
3067.99	0.5252
3078.03	0.5056
3088.07	0.4845
3098.12	0.4607
3108.16	0.4321
3118.2	0.4111
3128.25	0.4075
3138.29	0.4067
3148.33	0.4083
3158.37	0.4218
3168.42	0.4382
3178.46	0.4591
3188.5	0.4847
3198.54	0.5046
3208.59	0.5191
3218.63	0.5256
3228.67	0.5252
3238.71	0.5232
3248.76	0.5144
3258.8	0.5006
3268.84	0.4835
3278.89	0.4646
3288.93	0.4385
3298.97	0.4119
3309.01	0.4028
3319.06	0.4029
3329.1	0.4097
3339.14	0.4225
3349.18	0.4427
3359.23	0.4572
3369.27	0.462
3379.31	0.4708
3389.35	0.4768
3399.4	0.5007
3409.44	0.5405
3419.48	0.5572
3429.53	0.5699
3439.57	0.5803
3449.61	0.5906
3459.65	0.6015
3469.7	0.6129
3479.74	0.6263
3489.78	0.6401
3499.82	0.6539
3509.87	0.6683
3519.91	0.6832
3529.95	0.6976
3539.99	0.7116
3550.04	0.724
3560.08	0.7368
3570.12	0.7501
3580.17	0.7629
3590.21	0.7762
3600.25	0.7918
3610.29	0.8083
3620.34	0.8267
3630.38	0.8428
3640.42	0.851
3650.46	0.8534
3660.51	0.8546
3670.55	0.8553
3680.59	0.8562
3690.63	0.862
3700.68	0.8696
3710.72	0.8712
3720.76	0.8698
3730.81	0.8663
3740.85	0.8631
3750.89	0.8636
3760.93	0.8666
3770.98	0.8722
3781.02	0.8728
3791.06	0.8717
3801.1	0.8695
3811.15	0.8621
3821.19	0.8607
3831.23	0.86
3841.27	0.8588
3851.32	0.8578
3861.36	0.857
3871.4	0.8566
3881.45	0.8563
3891.49	0.8564
3901.53	0.8564
3911.57	0.8563
3921.62	0.8562
3931.66	0.8559
3941.7	0.8555
3951.74	0.8551
3961.79	0.8546
3971.83	0.8541
3981.87	0.8537
3991.91	0.8532
4001.96	0.8536
4012	0.854
