Infrared Spectrum: D-Camphor-10-sulphonyl chloride
Formula: C 10 H 15 Cl O 3 S
CAS: 21286-54-4
State: gas
Origin: EPA-IR VAPOR PHASE LIBRARY
1/CM	ABSORBANCE
549.8	0.001354
559.445	0.0011864
569.09	0.001294
578.735	0.001324
588.38	0.0005555
598.025	0.00022954
607.67	0.0004488
617.315	0.0004573
626.96	0.0005304
636.605	0.000714
646.251	0.0007258
655.896	0.0004249
665.541	0.0002238
675.186	4.2e-05
684.831	0.0006712
694.476	0.00033178
704.121	0.0006206
713.766	0.0010924
723.411	0.002214
733.056	0.004034
742.701	0.005034
752.346	0.005214
761.991	0.004514
771.636	0.002094
781.281	0.0009146
790.926	0.0005247
800.571	0.0004012
810.216	0.0002688
819.861	0.0003498
829.507	0.0003755
839.152	0.0005146
848.797	0.0008578
858.442	0.0007872
868.087	0.0005161
877.732	0.0005381
887.377	0.0004579
897.022	0.0003727
906.667	0.00029484
916.312	0.00026827
925.957	0.000782
935.602	0.0007736
945.247	0.0006163
954.892	0.0006478
964.537	0.0007066
974.182	0.0007308
983.827	0.0006386
993.472	0.0006033
1003.12	0.0006797
1012.76	0.0009484
1022.41	0.001324
1032.05	0.001954
1041.7	0.003354
1051.34	0.004264
1060.99	0.002504
1070.63	0.00086
1080.28	0.0003676
1089.92	0.0004157
1099.57	0.00026811
1109.21	0.00029949
1118.86	0.0005677
1128.5	0.0006898
1138.15	0.0004544
1147.79	0.0004067
1157.44	0.0007066
1167.08	0.0009121
1176.73	0.0008919
1186.37	0.0012228
1196.02	0.001704
1205.66	0.001624
1215.31	0.001594
1224.95	0.0010547
1234.6	0.0005842
1244.24	0.0006524
1253.89	0.0005803
1263.53	0.0007467
1273.18	0.001594
1282.82	0.003474
1292.47	0.004664
1302.11	0.004494
1311.76	0.003624
1321.4	0.002734
1331.05	0.001394
1340.69	0.0006817
1350.34	0.000544
1359.98	0.0007041
1369.63	0.001494
1379.27	0.002474
1388.92	0.002834
1398.56	0.002774
1408.21	0.001764
1417.85	0.003124
1427.5	0.003514
1437.14	0.002684
1446.79	0.003144
1456.43	0.002994
1466.08	0.002394
1475.73	0.002284
1485.37	0.001904
1495.02	0.0011926
1504.66	0.0005273
1514.31	0.0004047
1523.95	0.00030784
1533.6	0.00028602
1543.24	0.0001744
1552.89	0.0002167
1562.53	0.0002225
1572.18	0.0002095
1581.82	0.00024516
1591.47	0.00023296
1601.11	0.000243419
1610.76	0.000242809
1620.4	0.00027383
1630.05	0.00025738
1639.69	0.00031543
1649.34	0.0003741
1658.98	0.000398
1668.63	0.0004684
1678.27	0.0004296
1687.92	0.0005198
1697.56	0.0006798
1707.21	0.0010816
1716.85	0.001504
1726.5	0.002444
1736.14	0.006014
1745.79	0.015974
1755.43	0.028344
1765.08	0.026664
1774.72	0.012664
1784.37	0.004124
1794.01	0.001964
1803.66	0.001264
1813.3	0.0008217
1822.95	0.0006044
1832.59	0.0005417
1842.24	0.0004314
1851.88	0.0003963
1861.53	0.0004389
1871.17	0.0003606
1880.82	0.00031897
1890.46	0.00031165
1900.11	0.00031806
1909.75	0.000345
1919.4	0.00028715
1929.04	0.00029268
1938.69	0.00030553
1948.33	0.00024675
1957.98	0.00026169
1967.62	0.0002122
1977.27	0.0002183
1986.91	0.000241929
1996.56	0.000237625
2006.2	0.00032178
2015.85	0.00028206
2025.49	0.00025416
2035.14	0.0002037
2044.78	0.00027615
2054.43	0.00029122
2064.07	0.00024896
2073.72	0.00024729
2083.36	0.000243116
2093.01	0.0002665
2102.65	0.00029675
2112.3	0.00030714
2121.94	0.00022
2131.59	0.000238746
2141.23	0.00026097
2150.88	0.00025734
2160.52	0.00025647
2170.17	0.00031743
2179.81	0.0002721
2189.46	0.00027776
2199.1	0.00027699
2208.75	0.00026682
2218.39	0.00028298
2228.04	0.00026335
2237.68	0.00030418
2247.33	0.00028569
2256.97	0.0003235
2266.62	0.00031414
2276.26	0.00025646
2285.91	0.00027307
2295.55	0.00032622
2305.2	0.0003535
2314.84	0.00031604
2324.49	0.0003116
2334.13	0.0003765
2343.78	0.00027316
2353.42	0.0003128
2363.07	0.00030933
2372.72	0.00025637
2382.36	0.00028562
2392.01	0.00026377
2401.65	0.00028302
2411.3	0.00028699
2420.94	0.00024552
2430.59	0.00030401
2440.23	0.0001915
2449.88	0.00025797
2459.52	0.0003433
2469.17	0.0003721
2478.81	0.00031818
2488.46	0.0003418
2498.1	0.00030119
2507.75	0.0003541
2517.39	0.00032697
2527.04	0.00029099
2536.68	0.0003392
2546.33	0.00030588
2555.97	0.0003359
2565.62	0.0003597
2575.26	0.0003789
2584.91	0.00028996
2594.55	0.00032735
2604.2	0.0004321
2613.84	0.000404
2623.49	0.00028731
2633.13	0.0003658
2642.78	0.0003255
2652.42	0.00031322
2662.07	0.0004034
2671.71	0.00030812
2681.36	0.0004823
2691	0.0003914
2700.65	0.0003935
2710.29	0.0003655
2719.94	0.0004211
2729.58	0.0004019
2739.23	0.0005219
2748.87	0.0006194
2758.52	0.0005444
2768.16	0.0005317
2777.81	0.0006339
2787.45	0.000568
2797.1	0.0005754
2806.74	0.0006109
2816.39	0.0006842
2826.03	0.0008042
2835.68	0.0009995
2845.32	0.0010095
2854.97	0.001324
2864.61	0.001934
2874.26	0.003204
2883.9	0.005294
2893.55	0.006684
2903.19	0.006364
2912.84	0.005814
2922.48	0.006514
2932.13	0.008654
2941.77	0.011604
2951.42	0.017284
2961.06	0.021074
2970.71	0.021344
2980.35	0.015734
2990	0.008524
2999.64	0.005664
3009.29	0.003064
3018.93	0.001484
3028.58	0.0008252
3038.22	0.0007671
3047.87	0.0006262
3057.51	0.0005663
3067.16	0.0006807
3076.8	0.000652
3086.45	0.0004946
3096.09	0.000674
3105.74	0.0005404
3115.38	0.000529
3125.03	0.0005816
3134.67	0.0004844
3144.32	0.0005332
3153.96	0.0004496
3163.61	0.0005275
3173.25	0.0004064
3182.9	0.0004875
3192.54	0.000335
3202.19	0.0003464
3211.83	0.0003171
3221.48	0.0003972
3231.12	0.0005351
3240.77	0.00027861
3250.41	0.00026897
3260.06	0.00027132
3269.7	0.000233842
3279.35	0.00027968
3289	9.4e-05
3298.64	0.00025559
3308.29	6.3e-05
3317.93	0.00022952
3327.58	0.0003123
3337.22	0.00031576
3346.87	0.0003435
3356.51	0.00025744
3366.16	0.00018
3375.8	0.00024544
3385.45	0.000236273
3395.09	0.00029574
3404.74	0.00033115
3414.38	0.00024632
3424.03	0.00025054
3433.67	0.0004017
3443.32	0.00032645
3452.96	0.000135
3462.61	0.00031583
3472.25	0.0003626
3481.9	0.0004684
3491.54	0.0006625
3501.19	0.0006247
3510.83	0.0006386
3520.48	0.0004011
3530.12	0.00031492
3539.77	0.0003432
3549.41	0.0001569
3559.06	0.00025007
3568.7	0.00026834
3578.35	0.0001723
3587.99	0.000122
3597.64	0.000129
3607.28	6.7e-05
3616.93	0.0003871
3626.57	0.0002067
3636.22	0.00030005
3645.86	0.000214
3655.51	0.0001896
3665.15	0.0002067
3674.8	0.00028692
3684.44	0.00030084
3694.09	0.0001375
3703.73	0.00023755
3713.38	0.00024633
3723.02	0.000218
3732.67	0.00029644
3742.31	0.0001776
3751.96	0.00031067
3761.6	0.000233734
3771.25	0.0001597
3780.89	0.0004007
3790.54	0.000325
3800.18	0.0004995
3809.83	0.0003516
3819.47	0.0001589
3829.12	0.0004009
3838.76	0.0002205
3848.41	0.0002921
3858.05	0.00032968
3867.7	0.00030813
3877.34	0.00029036
3886.99	0.00030978
3896.63	0.00027547
3906.28	0.0001895
3915.92	0.0004039
3925.57	0.0001573
3935.21	0.0002108
3944.86	0.0003718
3954.5	0.0004119
3964.15	0.0004556
3973.79	0.00025312
3983.44	0.0003985
3993.08	0.00030965
