Infrared Spectrum: 4-Benzoylbiphenyl
Formula: C 19 H 14 O
CAS: 2128-93-0
State: gas
Instrument: HP-GC/MS/IRD
Origin: NIST Mass Spectrometry Data Center
1/CM	ABSORBANCE
550	0.0008395
562	0.000146
574	0.0005402
586	0.0001679
598	3.65e-05
610	0.0004015
622	0.001533
634	0.0089717
646	0.0026499
658	0.0030368
670	0.0064897
682	0.0188705
694	0.0398142
706	0.0283605
718	0.0120523
730	0.014162
742	0.0159724
754	0.0138408
766	0.0095557
778	0.0039858
790	0.003431
802	0.0023141
814	0.0015841
826	0.0023871
838	0.0054604
850	0.0095776
862	0.0036938
874	0.001825
886	0.0021754
898	0.0045479
910	0.0119282
922	0.0216518
934	0.0300541
946	0.0090374
958	0.0037449
970	0.0031682
982	0.0016498
994	0.0041464
1006	0.009636
1018	0.0021097
1030	0.0018907
1042	0.0007665
1054	0.0010293
1066	0.0022119
1078	0.0019418
1090	0.0012483
1102	0.0016352
1114	0.0020148
1126	0.0022411
1138	0.0031536
1150	0.0045698
1162	0.0041099
1174	0.0084607
1186	0.0103806
1198	0.0045625
1210	0.0038179
1222	0.0061247
1234	0.0125049
1246	0.0165418
1258	0.0341786
1270	0.0690361
1282	0.0529907
1294	0.0237323
1306	0.0210605
1318	0.017228
1330	0.006351
1342	0.0034018
1354	0.0030441
1366	0.003139
1378	0.0028689
1390	0.0040004
1402	0.0063291
1414	0.0027667
1426	0.0020294
1438	0.0041026
1450	0.007227
1462	0.0034748
1474	0.0045625
1486	0.007884
1498	0.0026499
1510	0.0022703
1522	0.0023214
1534	0.0022411
1546	0.0031244
1558	0.0041391
1570	0.0044311
1582	0.0076504
1594	0.0184325
1606	0.0225424
1618	0.0084534
1630	0.0050735
1642	0.0056502
1654	0.0066576
1666	0.0178631
1678	0.0597359
1690	0.0307695
1702	0.0086067
1714	0.0051319
1726	0.0034967
1738	0.0022995
1750	0.0017885
1762	0.0014454
1774	0.0014673
1786	0.0016571
1798	0.002701
1810	0.0021243
1822	0.0012775
1834	0.0006935
1846	0.0005621
1858	0.000657
1870	0.000949
1882	0.0013286
1894	0.0014819
1906	0.0013578
1918	0.0015622
1930	0.0014965
1942	0.0015987
1954	0.001971
1966	0.0013578
1978	0.0004964
1990	0.0003066
2002	0.0002336
2014	0.0001971
2026	0.0002482
2038	0.0002117
2050	0.0001606
2062	0.0001971
2074	0.0001898
2086	0.0002044
2098	0.0001095
2110	3.65e-05
2122	5.84e-05
2134	5.84e-05
2146	5.11e-05
2158	8.03e-05
2170	0.0001168
2182	0.0001314
2194	0.000146
2206	0.0001095
2218	9.49e-05
2230	0.0001095
2242	0.0001168
2254	0.000146
2266	0.0001679
2278	0.000219
2290	0.0002628
2302	0.0002774
2314	0.0004818
2326	0.0003212
2338	0.0003285
2350	0.0002628
2362	0.0001898
2374	0.0001971
2386	0.0002117
2398	0.0003066
2410	0.0004526
2422	0.0004307
2434	0.0002555
2446	0.0001533
2458	0.0001387
2470	0.0001168
2482	0.0001022
2494	0.0001168
2506	0.0001533
2518	0.0001971
2530	0.0002482
2542	0.0002774
2554	0.0002044
2566	0.0002044
2578	0.0002409
2590	0.0002993
2602	0.0002774
2614	0.0002993
2626	0.0002482
2638	0.0001825
2650	0.0001387
2662	8.76e-05
2674	3.65e-05
2686	3.65e-05
2698	7.3e-05
2710	9.49e-05
2722	9.49e-05
2734	0.0001606
2746	0.0003504
2758	0.000292
2770	0.0001971
2782	0.0001314
2794	0.0001241
2806	0.0001022
2818	0.0001314
2830	0.0002263
2842	0.000292
2854	0.0004599
2866	0.0006205
2878	0.0008395
2890	0.000657
2902	0.0004526
2914	0.0003504
2926	0.0003577
2938	0.0003942
2950	0.0004818
2962	0.0005256
2974	0.00073
2986	0.0009052
2998	0.0013943
3010	0.0023068
3022	0.0055845
3034	0.0142277
3046	0.0098696
3058	0.0120158
3070	0.0242506
3082	0.0161841
3094	0.0112566
3106	0.0055991
3118	0.0027594
3130	0.0013797
3142	0.0008103
3154	0.00073
3166	0.0004818
3178	0.0002409
3190	0.0002409
3202	0.0001679
3214	0.0001387
3226	5.84e-05
3238	9.49e-05
3250	0.0001022
3262	0.0001168
3274	0.0001168
3286	0.0001314
3298	0.000219
3310	0.0002044
3322	0.0003577
3334	0.0007884
3346	0.0008906
3358	0.0004745
3370	0.0003504
3382	0.0002409
3394	0.0001606
3406	0.0001533
3418	5.84e-05
3430	6.57e-05
3442	8.03e-05
3454	0.000146
3466	8.03e-05
3478	7.3e-05
3490	9.49e-05
3502	0.0001314
3514	9.49e-05
3526	0.0001168
3538	8.03e-05
3550	8.03e-05
3562	0.0001095
3574	7.3e-05
3586	8.03e-05
3598	4.38e-05
3610	0.0001241
3622	0.0001022
3634	0.0001825
3646	0.0001606
3658	0.0002482
3670	0.0002482
3682	0.0002409
3694	0.0003139
3706	0.0002482
3718	0.0002409
3730	0.0002336
3742	0.0001533
3754	0.0002117
3766	0.0001679
3778	0.0001022
3790	3.65e-05
3802	9.49e-05
3814	0.0001314
3826	0.0001533
3838	0.0001168
