Infrared Spectrum: Methyl diphenyl phosphine oxide
Formula: C 13 H 13 O P
CAS: 2129-89-7
State: gas
Origin: EPA-IR VAPOR PHASE LIBRARY
1/CM	ABSORBANCE
549.9	0.00282
559.547	0.0018079
569.193	0.00149059
578.84	0.001354
588.486	0.001338
598.133	0.001373
607.779	0.001386
617.426	0.0014782
627.072	0.0016044
636.719	0.0018267
646.365	0.0022152
656.012	0.00333
665.658	0.00663
675.305	0.01263
684.951	0.02177
694.598	0.03446
704.245	0.03492
713.891	0.02937
723.538	0.03435
733.184	0.06339
742.831	0.04707
752.477	0.01922
762.124	0.01064
771.77	0.00547
781.417	0.00373
791.063	0.00316
800.71	0.00284
810.356	0.00277
820.003	0.00271
829.649	0.00269
839.296	0.00325
848.943	0.00494
858.589	0.0116
868.236	0.02761
877.882	0.06169
887.529	0.03587
897.175	0.00871
906.822	0.00485
916.468	0.00407
926.115	0.00347
935.761	0.00275
945.408	0.0024172
955.054	0.0023354
964.701	0.0023542
974.347	0.0023483
983.994	0.0024648
993.64	0.00344
1003.29	0.00306
1012.93	0.0021064
1022.58	0.00334
1032.23	0.00358
1041.87	0.0020042
1051.52	0.00269
1061.17	0.00402
1070.81	0.0045
1080.46	0.00502
1090.11	0.00874
1099.75	0.01756
1109.4	0.03438
1119.05	0.0524
1128.69	0.02509
1138.34	0.00674
1147.99	0.00384
1157.63	0.00326
1167.28	0.00307
1176.92	0.00515
1186.57	0.00719
1196.22	0.00823
1205.86	0.01928
1215.51	0.05176
1225.16	0.08182
1234.8	0.04322
1244.45	0.01129
1254.1	0.00521
1263.74	0.00473
1273.39	0.00553
1283.04	0.00967
1292.68	0.01855
1302.33	0.01423
1311.98	0.00767
1321.62	0.00529
1331.27	0.00443
1340.92	0.00305
1350.56	0.00252
1360.21	0.00259
1369.86	0.00284
1379.5	0.00293
1389.15	0.00275
1398.79	0.00292
1408.44	0.00448
1418.09	0.008
1427.73	0.01227
1437.38	0.01571
1447.03	0.0101
1456.67	0.00429
1466.32	0.00301
1475.97	0.00366
1485.61	0.00435
1495.26	0.00262
1504.91	0.001691
1514.55	0.0014294
1524.2	0.0014194
1533.85	0.00150228
1543.49	0.00154893
1553.14	0.00149222
1562.79	0.0016618
1572.43	0.0020869
1582.08	0.00259
1591.73	0.00279
1601.37	0.002175
1611.02	0.0018001
1620.67	0.0014544
1630.31	0.001355
1639.96	0.0014425
1649.6	0.001909
1659.25	0.002174
1668.9	0.0017951
1678.54	0.00154527
1688.19	0.001323
1697.84	0.001107
1707.48	0.001191
1717.13	0.001166
1726.78	0.001237
1736.42	0.001253
1746.07	0.001396
1755.72	0.0016425
1765.36	0.0018074
1775.01	0.0018552
1784.66	0.001617
1794.3	0.0019615
1803.95	0.00314
1813.6	0.00359
1823.24	0.0023889
1832.89	0.0018877
1842.54	0.00152319
1852.18	0.0014344
1861.83	0.00153127
1871.47	0.0018126
1881.12	0.0023717
1890.77	0.00287
1900.41	0.00288
1910.06	0.002204
1919.71	0.00156928
1929.35	0.00149445
1939	0.0018426
1948.65	0.00251
1958.29	0.00313
1967.94	0.00299
1977.59	0.0021422
1987.23	0.001366
1996.88	0.001161
2006.53	0.001177
2016.17	0.001248
2025.82	0.001291
2035.47	0.001211
2045.11	0.001205
2054.76	0.001177
2064.41	0.001074
2074.05	0.001031
2083.7	0.001005
2093.35	0.001045
2102.99	0.001073
2112.64	0.001078
2122.28	0.001085
2131.93	0.00109
2141.58	0.001103
2151.22	0.001115
2160.87	0.001123
2170.52	0.001111
2180.16	0.001062
2189.81	0.001075
2199.46	0.001075
2209.1	0.001184
2218.75	0.0013
2228.4	0.001246
2238.04	0.001126
2247.69	0.001114
2257.34	0.001059
2266.98	0.001093
2276.63	0.001109
2286.28	0.001153
2295.92	0.001132
2305.57	0.001215
2315.22	0.00154649
2324.86	0.0014001
2334.51	0.001289
2344.16	0.001276
2353.8	0.001195
2363.45	0.001069
2373.09	0.001013
2382.74	0.001005
2392.39	0.001078
2402.03	0.001052
2411.68	0.001096
2421.33	0.001122
2430.97	0.001271
2440.62	0.001222
2450.27	0.001079
2459.91	0.001024
2469.56	0.000986
2479.21	0.000962
2488.85	0.000967
2498.5	0.000954
2508.15	0.000979
2517.79	0.000978
2527.44	0.00095
2537.09	0.000946
2546.73	0.001036
2556.38	0.001007
2566.03	0.001002
2575.67	0.001163
2585.32	0.001169
2594.96	0.001121
2604.61	0.001074
2614.26	0.00105
2623.9	0.001059
2633.55	0.000867
2643.2	0.00087
2652.84	0.000818
2662.49	0.000863
2672.14	0.000959
2681.78	0.000999
2691.43	0.001211
2701.08	0.001309
2710.72	0.001186
2720.37	0.000955
2730.02	0.000829
2739.66	0.000849
2749.31	0.000741
2758.96	0.000743
2768.6	0.000712
2778.25	0.000655
2787.9	0.000671
2797.54	0.000757
2807.19	0.000832
2816.84	0.00095
2826.48	0.000994
2836.13	0.000987
2845.77	0.000832
2855.42	0.000897
2865.07	0.000868
2874.71	0.001016
2884.36	0.000783
2894.01	0.000888
2903.65	0.00101
2913.3	0.001167
2922.95	0.001757
2932.59	0.001383
2942.24	0.000811
2951.89	0.000964
2961.53	0.001023
2971.18	0.00137
2980.83	0.0023594
2990.47	0.00552
3000.12	0.0062
3009.77	0.00538
3019.41	0.00693
3029.06	0.0077
3038.71	0.00679
3048.35	0.00916
3058	0.02098
3067.64	0.03287
3077.29	0.02216
3086.94	0.01652
3096.58	0.0094
3106.23	0.0043
3115.88	0.0019336
3125.52	0.0014375
3135.17	0.0014403
3144.82	0.0016458
3154.46	0.0014835
3164.11	0.000727
3173.76	0.00049
3183.4	0.00043
3193.05	0.0003
3202.7	0.00024
3212.34	0.00024
3221.99	0.00032
3231.64	0.00029
3241.28	0.0004
3250.93	0.00027
3260.58	0.00019
3270.22	0.00025
3279.87	0.00013
3289.52	0.00011
3299.16	0.00034
3308.81	0.00023
3318.45	0.00028
3328.1	0.00012
3337.75	0.00028
3347.39	0.00018
3357.04	0.00026
3366.69	0.00024
3376.33	0.00033
3385.98	0.00034
3395.63	0.00029
3405.27	0.00042
3414.92	0.00031
3424.57	0.00038
3434.21	0.00032
3443.86	0.00034
3453.51	0.00039
3463.15	0.000515
3472.8	0.00036
3482.45	0.00037
3492.09	0.00035
3501.74	0.00031
3511.39	0.00041
3521.03	0.00045
3530.68	0.00034
3540.33	0.00039
3549.97	0.00049
3559.62	0.000503
3569.26	0.000545
3578.91	0.000604
3588.56	0.00041
3598.2	0.000505
3607.85	0.000502
3617.5	0.000588
3627.14	0.000575
3636.79	0.000807
3646.44	0.000665
3656.08	0.000768
3665.73	0.000654
3675.38	0.000708
3685.02	0.00079
3694.67	0.000915
3704.32	0.000845
3713.96	0.000753
3723.61	0.0007
3733.26	0.000668
3742.9	0.000673
3752.55	0.000731
3762.2	0.000763
3771.84	0.000908
3781.49	0.000932
3791.13	0.000956
3800.78	0.000844
3810.43	0.00077
3820.07	0.00075
3829.72	0.000659
3839.37	0.000776
3849.01	0.000631
3858.66	0.000819
3868.31	0.000723
3877.95	0.000794
3887.6	0.000784
3897.25	0.000739
3906.89	0.000673
3916.54	0.000731
3926.19	0.000758
3935.83	0.000718
3945.48	0.0008
3955.13	0.000802
3964.77	0.000851
3974.42	0.000813
3984.07	0.000892
3993.71	0.00091
