Infrared Spectrum: PICENE
Formula: C22 H14
CAS: 213-46-7
State: SOLID (SPLIT MULL, FLUOROLUBE FOR 3800-1330 AND NUJOL FOR 1330-400 CM ^-^1)
Melting point: 364 C
Class: COBLENTZ III
Instrument: DOW KBr FOREPRISM-GRATING
Instrument parameters: BLAZED AT 3.5, 12.0, 20.0 MICRON, CHANGED AT 5.0, 7.5, 14.9 MICRON
Sampling: TRANSMISSION
Resolution: 4
Origin: DOW CHEMICAL COMPANY
1/CM	TRANSMITTANCE
382.075	0.948
391.509	0.935
400.943	0.915
410.377	0.907
419.811	0.978
429.245	0.979
438.679	0.983
448.113	0.983
457.547	0.98
466.981	0.973
476.415	0.96
485.849	0.976
495.283	0.976
504.717	0.969
514.151	0.953
523.585	0.884
533.019	0.96
542.453	0.976
551.887	0.97
561.32	0.985
570.754	0.983
580.188	0.979
589.622	0.997
599.056	0.995
608.49	1.002
617.924	1
627.358	1.002
636.792	1.001
646.226	0.986
655.66	0.998
665.094	0.986
674.528	0.857
683.962	0.935
693.396	0.929
702.83	0.901
712.264	0.831
721.698	0.683
731.132	0.616
740.566	0.222
750	0.648
759.434	0.073
768.868	0.878
778.302	0.888
787.736	0.874
797.17	0.857
806.604	0.275
816.038	0.146
825.472	0.715
834.906	0.913
844.34	0.91
853.774	0.847
863.208	0.803
872.642	0.6862
882.076	0.91
891.51	0.896
900.943	0.898
910.377	0.896
919.811	0.894
929.245	0.89
938.679	0.862
948.113	0.7051
957.547	0.856
966.981	0.828
976.415	0.86
985.849	0.891
995.283	0.894
1004.72	0.882
1014.15	0.872
1023.59	0.787
1033.02	0.844
1042.45	0.875
1051.89	0.868
1061.32	0.874
1070.75	0.872
1080.19	0.865
1089.62	0.868
1099.06	0.865
1108.49	0.868
1117.92	0.849
1127.36	0.833
1136.79	0.699
1146.23	0.799
1155.66	0.802
1165.09	0.814
1174.53	0.812
1183.96	0.827
1193.4	0.815
1202.83	0.816
1212.26	0.815
1221.7	0.792
1231.13	0.768
1240.57	0.797
1250	0.787
1259.43	0.711
1268.87	0.4271
1278.3	0.481
1287.74	0.705
1297.17	0.713
1306.6	0.73
1316.04	0.751
1325.47	0.768
1334.91	0.819
1344.34	0.874
1353.77	0.915
1363.21	0.923
1372.64	0.935
1382.08	0.942
1391.51	0.956
1400.94	0.96
1410.38	0.953
1419.81	0.941
1429.25	0.885
1438.68	0.898
1448.11	0.8589
1457.55	0.972
1466.98	0.982
1476.42	0.923
1485.85	0.989
1495.28	0.991
1504.72	0.986
1514.15	0.975
1523.59	0.969
1533.02	0.988
1542.45	0.997
1551.89	0.997
1561.32	0.991
1570.76	0.995
1580.19	0.976
1589.62	0.989
1599.06	0.961
1608.49	0.979
1617.93	0.978
1627.36	0.998
1636.79	1
1646.23	0.994
1655.66	0.991
1665.1	0.988
1674.53	0.976
1683.96	0.975
1693.4	0.966
1702.83	0.979
1712.27	0.976
1721.7	0.969
1731.13	0.973
1740.57	0.972
1750	0.966
1759.43	0.964
1768.87	0.964
1778.3	0.96
1787.74	0.963
1797.17	0.956
1806.6	0.959
1816.04	0.961
1825.47	0.956
1834.91	0.954
1844.34	0.961
1853.77	0.96
1863.21	0.957
1872.64	0.953
1882.08	0.942
1891.51	0.941
1900.94	0.937
1910.38	0.923
1919.81	0.935
1929.25	0.932
1938.68	0.934
1948.11	0.932
1957.55	0.967
1966.98	0.938
1976.42	0.934
1985.85	0.928
1995.28	0.918
2004.72	0.905
2014.15	0.897
2023.59	0.8934
2033.02	0.8904
2042.45	0.887
2051.89	0.882
2061.32	0.8773
2070.76	0.869
2080.19	0.866
2089.62	0.865
2099.06	0.8598
2108.49	0.856
2117.93	0.8534
2127.36	0.852
2136.79	0.8462
2146.23	0.8431
2155.66	0.84
2165.1	0.837
2174.53	0.8311
2183.96	0.8281
2193.4	0.824
2202.83	0.819
2212.27	0.816
2221.7	0.815
2231.13	0.811
2240.57	0.8078
2250	0.799
2259.44	0.795
2268.87	0.7898
2278.3	0.7856
2287.74	0.781
2297.17	0.7778
2306.61	0.7737
2316.04	0.7694
2325.47	0.765
2334.91	0.762
2344.34	0.761
2353.78	0.761
2363.21	0.761
2372.64	0.762
2382.08	0.7645
2391.51	0.765
2400.95	0.762
2410.38	0.76
2419.81	0.7601
2429.25	0.7599
2438.68	0.759
2448.11	0.759
2457.55	0.756
2466.98	0.7553
2476.42	0.755
2485.85	0.754
2495.28	0.754
2504.72	0.7525
2514.15	0.751
2523.59	0.7464
2533.02	0.746
2542.45	0.7452
2551.89	0.745
2561.32	0.7421
2570.76	0.74
2580.19	0.737
2589.62	0.7341
2599.06	0.733
2608.49	0.733
2617.93	0.729
2627.36	0.7289
2636.79	0.7258
2646.23	0.723
2655.66	0.7209
2665.1	0.718
2674.53	0.7178
2683.96	0.714
2693.4	0.711
2702.83	0.71
2712.27	0.708
2721.7	0.708
2731.13	0.705
2740.57	0.702
2750	0.7003
2759.44	0.698
2768.87	0.696
2778.3	0.693
2787.74	0.691
2797.17	0.688
2806.61	0.686
2816.04	0.685
2825.47	0.682
2834.91	0.679
2844.34	0.676
2853.78	0.6724
2863.21	0.669
2872.64	0.666
2882.08	0.664
2891.51	0.663
2900.95	0.6585
2910.38	0.653
2919.81	0.6454
2929.25	0.638
2938.68	0.6358
2948.12	0.639
2957.55	0.635
2966.98	0.633
2976.42	0.632
2985.85	0.629
2995.29	0.62
3004.72	0.604
3014.15	0.6
3023.59	0.5869
3033.02	0.5882
3042.46	0.5855
3051.89	0.5432
3061.32	0.5667
3070.76	0.5893
3080.19	0.6038
3089.63	0.601
3099.06	0.6117
3108.49	0.6252
3117.93	0.619
3127.36	0.619
3136.79	0.62
3146.23	0.6183
3155.66	0.6152
3165.1	0.612
3174.53	0.609
3183.96	0.6065
3193.4	0.6035
3202.83	0.601
3212.27	0.5975
3221.7	0.594
3231.13	0.5904
3240.57	0.5874
3250	0.585
3259.44	0.5827
3268.87	0.581
3278.3	0.5766
3287.74	0.575
3297.17	0.573
3306.61	0.569
3316.04	0.566
3325.47	0.563
3334.91	0.56
3344.34	0.557
3353.78	0.554
3363.21	0.551
3372.64	0.5471
3382.08	0.544
3391.51	0.541
3400.95	0.538
3410.38	0.5339
3419.81	0.53
3429.25	0.527
3438.68	0.524
3448.12	0.5219
3457.55	0.518
3466.98	0.515
3476.42	0.512
3485.85	0.51
3495.29	0.508
3504.72	0.505
3514.15	0.505
3523.59	0.503
3533.02	0.502
3542.46	0.4996
3551.89	0.4966
3561.32	0.4936
3570.76	0.4918
3580.19	0.491
3589.63	0.4895
3599.06	0.487
3608.49	0.486
3617.93	0.483
3627.36	0.4819
3636.8	0.48
3646.23	0.4774
3655.66	0.474
3665.1	0.472
3674.53	0.4696
3683.97	0.469
3693.4	0.468
3702.83	0.465
3712.27	0.4624
3721.7	0.461
3731.14	0.4593
3740.57	0.4582
3750	0.458
3759.44	0.4491
3768.87	0.449
3778.31	0.449
3787.74	0.448
3797.17	0.445
