Infrared Spectrum: PYRIMIDO[5,4-e]-AS-TRIAZINE-5(6H)-THIONE
Formula: C5 H3 N5 S
CAS: 21308-96-3
State: SOLID (1 mg / 650 mg KBr DISC)
Class: COBLENTZ III
Instrument: PERKIN-ELMER 521 (GRATING)
Instrument parameters: FILTER CHANGE AT 3130, 2475, 2000, 1150, 700, 410 CM^-^1, GRATING CHANGES AT 2000, 630 CM^-^1
Sampling: TRANSMISSION
Resolution: 4
Origin: SOUTHERN RESEARCH INSTITUTE
1/CM	TRANSMITTANCE
230.809	0.266
239.947	0.281
249.086	0.339
258.224	0.423
267.363	0.497
276.501	0.575
285.639	0.633
294.778	0.688
303.916	0.736
313.054	0.753
322.193	0.79
331.331	0.827
340.47	0.863
349.608	0.891
358.746	0.917
367.885	0.926
377.023	0.867
386.161	0.841
395.3	0.942
404.438	0.969
413.577	0.957
422.715	0.963
431.853	0.973
440.992	0.978
450.13	0.972
459.269	0.968
468.407	0.929
477.545	0.741
486.684	0.947
495.822	0.98
504.96	0.964
514.099	0.886
523.237	0.773
532.376	0.812
541.514	0.994
550.652	0.991
559.791	0.973
568.929	0.958
578.068	0.779
587.206	0.583
596.344	0.973
605.483	0.954
614.621	0.982
623.759	0.993
632.898	0.994
642.036	0.99
651.175	0.983
660.313	0.875
669.451	0.989
678.59	0.98
687.728	0.802
696.866	1.001
706.005	1
715.143	0.999
724.282	0.997
733.42	0.997
742.558	0.997
751.697	0.996
760.835	0.994
769.974	0.991
779.112	0.982
788.25	0.975
797.389	0.964
806.527	0.952
815.665	0.927
824.804	0.839
833.942	0.684
843.081	0.507
852.219	0.814
861.357	0.887
870.496	0.765
879.634	0.827
888.772	0.866
897.911	0.837
907.049	0.85
916.188	0.886
925.326	0.939
934.464	0.954
943.603	0.956
952.741	0.956
961.88	0.95
971.018	0.92
980.156	0.925
989.295	0.94
998.433	0.914
1007.57	0.901
1016.71	0.858
1025.85	0.74
1034.99	0.499
1044.12	0.616
1053.26	0.883
1062.4	0.927
1071.54	0.946
1080.68	0.946
1089.82	0.938
1098.96	0.882
1108.09	0.926
1117.23	0.919
1126.37	0.905
1135.51	0.901
1144.65	0.906
1153.79	0.905
1162.92	0.898
1172.06	0.87
1181.2	0.84
1190.34	0.776
1199.48	0.517
1208.62	0.332
1217.75	0.2
1226.89	0.508
1236.03	0.785
1245.17	0.922
1254.31	0.926
1263.45	0.909
1272.58	0.761
1281.72	0.557
1290.86	0.834
1300	0.909
1309.14	0.903
1318.28	0.882
1327.41	0.597
1336.55	0.326
1345.69	0.625
1354.83	0.913
1363.97	0.908
1373.11	0.89
1382.25	0.847
1391.38	0.465
1400.52	0.582
1409.66	0.496
1418.8	0.827
1427.94	0.944
1437.08	0.946
1446.21	0.941
1455.35	0.907
1464.49	0.876
1473.63	0.834
1482.77	0.756
1491.91	0.637
1501.04	0.669
1510.18	0.644
1519.32	0.872
1528.46	0.765
1537.6	0.434
1546.74	0.353
1555.87	0.734
1565.01	0.836
1574.15	0.766
1583.29	0.384
1592.43	0.464
1601.57	0.722
1610.7	0.882
1619.84	0.91
1628.98	0.951
1638.12	0.946
1647.26	0.956
1656.4	0.958
1665.53	0.96
1674.67	0.955
1683.81	0.935
1692.95	0.901
1702.09	0.828
1711.23	0.871
1720.37	0.938
1729.5	0.955
1738.64	0.955
1747.78	0.954
1756.92	0.951
1766.06	0.949
1775.2	0.946
1784.33	0.944
1793.47	0.943
1802.61	0.943
1811.75	0.946
1820.89	0.951
1830.03	0.954
1839.16	0.955
1848.3	0.955
1857.44	0.954
1866.58	0.952
1875.72	0.95
1884.86	0.95
1893.99	0.946
1903.13	0.943
1912.27	0.941
1921.41	0.939
1930.55	0.937
1939.69	0.939
1948.82	0.944
1957.96	0.943
1967.1	0.94
1976.24	0.934
1985.38	0.927
1994.52	0.923
2003.66	0.927
2012.79	0.932
2021.93	0.94
2031.07	0.942
2040.21	0.942
2049.35	0.94
2058.49	0.94
2067.62	0.938
2076.76	0.934
2085.9	0.926
2095.04	0.93
2104.18	0.935
2113.32	0.937
2122.45	0.933
2131.59	0.927
2140.73	0.925
2149.87	0.924
2159.01	0.923
2168.15	0.923
2177.28	0.922
2186.42	0.921
2195.56	0.92
2204.7	0.919
2213.84	0.917
2222.98	0.914
2232.11	0.91
2241.25	0.903
2250.39	0.901
2259.53	0.901
2268.67	0.9
2277.81	0.899
2286.94	0.899
2296.08	0.897
2305.22	0.893
2314.36	0.881
2323.5	0.877
2332.64	0.874
2341.78	0.872
2350.91	0.871
2360.05	0.871
2369.19	0.87
2378.33	0.869
2387.47	0.867
2396.61	0.865
2405.74	0.86
2414.88	0.854
2424.02	0.84
2433.16	0.831
2442.3	0.832
2451.44	0.833
2460.57	0.834
2469.71	0.834
2478.85	0.83
2487.99	0.826
2497.13	0.814
2506.27	0.803
2515.4	0.799
2524.54	0.795
2533.68	0.788
2542.82	0.778
2551.96	0.776
2561.1	0.773
2570.23	0.763
2579.37	0.755
2588.51	0.747
2597.65	0.737
2606.79	0.723
2615.93	0.702
2625.07	0.697
2634.2	0.704
2643.34	0.706
2652.48	0.703
2661.62	0.687
2670.76	0.667
2679.9	0.655
2689.03	0.645
2698.17	0.635
2707.31	0.625
2716.45	0.624
2725.59	0.633
2734.73	0.633
2743.86	0.617
2753	0.593
2762.14	0.576
2771.28	0.574
2780.42	0.58
2789.56	0.586
2798.69	0.586
2807.83	0.584
2816.97	0.569
2826.11	0.556
2835.25	0.544
2844.39	0.536
2853.52	0.536
2862.66	0.552
2871.8	0.572
2880.94	0.591
2890.08	0.587
2899.22	0.552
2908.35	0.549
2917.49	0.55
2926.63	0.557
2935.77	0.589
2944.91	0.631
2954.05	0.645
2963.19	0.668
2972.32	0.678
2981.46	0.679
2990.6	0.678
2999.74	0.662
3008.88	0.6
3018.02	0.579
3027.15	0.637
3036.29	0.695
3045.43	0.712
3054.57	0.661
3063.71	0.637
3072.85	0.706
3081.98	0.745
3091.12	0.721
3100.26	0.675
3109.4	0.688
3118.54	0.724
3127.68	0.75
3136.81	0.748
3145.95	0.739
3155.09	0.751
3164.23	0.767
3173.37	0.755
3182.51	0.739
3191.64	0.748
3200.78	0.764
3209.92	0.79
3219.06	0.798
3228.2	0.802
3237.34	0.802
3246.47	0.8
3255.61	0.798
3264.75	0.797
3273.89	0.795
3283.03	0.794
3292.17	0.793
3301.31	0.793
3310.44	0.791
3319.58	0.788
3328.72	0.785
3337.86	0.782
3347	0.776
3356.14	0.772
3365.27	0.767
3374.41	0.763
3383.55	0.758
3392.69	0.751
3401.83	0.75
3410.97	0.746
3420.1	0.742
3429.24	0.741
3438.38	0.741
3447.52	0.741
3456.66	0.74
3465.8	0.74
3474.93	0.741
3484.07	0.741
3493.21	0.741
3502.35	0.742
3511.49	0.744
3520.63	0.747
3529.76	0.75
3538.9	0.755
3548.04	0.756
3557.18	0.756
3566.32	0.758
3575.46	0.76
3584.6	0.763
3593.73	0.767
3602.87	0.771
3612.01	0.776
3621.15	0.776
3630.29	0.777
3639.43	0.777
3648.56	0.777
3657.7	0.777
3666.84	0.777
3675.98	0.776
3685.12	0.776
3694.26	0.777
3703.39	0.776
3712.53	0.776
3721.67	0.774
3730.81	0.771
3739.95	0.768
3749.09	0.767
3758.22	0.767
3767.36	0.767
3776.5	0.767
3785.64	0.765
3794.78	0.763
3803.92	0.762
3813.05	0.76
