Infrared Spectrum: 4-(Dimethylamino)phenyl isothiocyanate
Formula: C 9 H 10 N 2 S
CAS: 2131-64-8
State: gas
Origin: EPA-IR VAPOR PHASE LIBRARY
1/CM	ABSORBANCE
549.8	0.012955
559.445	0.010405
569.09	0.007815
578.734	0.005335
588.379	0.003955
598.024	0.004105
607.669	0.004845
617.313	0.002495
626.958	0.0011914
636.603	0.0010431
646.248	0.001485
655.893	0.002105
665.537	0.002465
675.182	0.002145
684.827	0.001835
694.472	0.0014448
704.116	0.001625
713.761	0.001485
723.406	0.0013459
733.051	0.001555
742.695	0.003295
752.34	0.008765
761.985	0.008035
771.63	0.002565
781.275	0.002855
790.919	0.004395
800.564	0.010115
810.209	0.021705
819.854	0.028985
829.498	0.019425
839.143	0.008465
848.788	0.004345
858.433	0.003095
868.078	0.002715
877.722	0.002655
887.367	0.003175
897.012	0.004755
906.657	0.006645
916.301	0.009895
925.946	0.017455
935.591	0.029135
945.236	0.024655
954.88	0.010345
964.525	0.004925
974.17	0.003745
983.815	0.002925
993.46	0.002195
1003.1	0.002455
1012.75	0.002905
1022.39	0.002355
1032.04	0.003365
1041.68	0.004695
1051.33	0.006325
1060.97	0.007625
1070.62	0.007105
1080.26	0.005965
1089.91	0.005005
1099.55	0.006445
1109.2	0.006645
1118.84	0.008345
1128.49	0.010715
1138.13	0.013825
1147.78	0.021015
1157.42	0.035125
1167.07	0.041895
1176.71	0.036235
1186.36	0.026605
1196	0.016045
1205.64	0.016585
1215.29	0.017515
1224.93	0.015735
1234.58	0.012775
1244.22	0.011415
1253.87	0.011375
1263.51	0.009585
1273.16	0.008065
1282.8	0.008135
1292.45	0.008545
1302.09	0.009985
1311.74	0.013015
1321.38	0.018495
1331.03	0.029495
1340.67	0.051075
1350.32	0.065845
1359.96	0.044485
1369.61	0.021445
1379.25	0.011845
1388.9	0.008435
1398.54	0.007375
1408.18	0.007685
1417.83	0.009075
1427.47	0.011615
1437.12	0.015795
1446.76	0.020155
1456.41	0.015525
1466.05	0.014635
1475.7	0.016865
1485.34	0.021435
1494.99	0.040975
1504.63	0.116645
1514.28	0.169605
1523.92	0.086365
1533.57	0.038945
1543.21	0.023645
1552.86	0.017485
1562.5	0.014675
1572.15	0.013105
1581.79	0.013865
1591.44	0.019025
1601.08	0.033405
1610.73	0.035385
1620.37	0.016335
1630.01	0.009325
1639.66	0.007085
1649.3	0.005475
1658.95	0.004555
1668.59	0.003915
1678.24	0.003495
1687.88	0.003255
1697.53	0.003115
1707.17	0.002995
1716.82	0.002775
1726.46	0.002875
1736.11	0.002735
1745.75	0.002655
1755.4	0.002725
1765.04	0.002835
1774.69	0.002825
1784.33	0.002735
1793.98	0.002785
1803.62	0.002765
1813.27	0.002685
1822.91	0.002735
1832.55	0.003095
1842.2	0.004005
1851.84	0.005415
1861.49	0.006425
1871.13	0.006485
1880.78	0.006325
1890.42	0.006055
1900.07	0.006285
1909.71	0.007155
1919.36	0.008675
1929	0.011265
1938.65	0.015145
1948.29	0.019675
1957.94	0.025755
1967.58	0.034145
1977.23	0.045705
1986.87	0.060475
1996.52	0.078865
2006.16	0.102595
2015.81	0.133485
2025.45	0.168815
2035.1	0.200715
2044.74	0.227055
2054.38	0.250605
2064.03	0.232775
2073.67	0.159325
2083.32	0.126405
2092.96	0.145675
2102.61	0.183965
2112.25	0.177725
2121.9	0.119445
2131.54	0.074215
2141.19	0.058325
2150.83	0.056005
2160.48	0.053045
2170.12	0.041785
2179.77	0.031665
2189.41	0.027015
2199.06	0.021385
2208.7	0.015335
2218.35	0.010895
2227.99	0.007985
2237.64	0.005885
2247.28	0.004525
2256.92	0.004185
2266.57	0.003855
2276.21	0.002915
2285.86	0.002155
2295.5	0.001855
2305.15	0.001725
2314.79	0.001685
2324.44	0.001755
2334.08	0.001865
2343.73	0.002075
2353.37	0.002205
2363.02	0.002455
2372.66	0.002345
2382.31	0.002155
2391.95	0.002115
2401.6	0.002295
2411.24	0.002405
2420.89	0.002535
2430.53	0.002685
2440.18	0.002315
2449.82	0.002115
2459.47	0.001945
2469.11	0.001965
2478.75	0.002195
2488.4	0.002435
2498.04	0.002815
2507.69	0.003005
2517.33	0.002825
2526.98	0.002795
2536.62	0.002735
2546.27	0.003015
2555.91	0.003215
2565.56	0.003265
2575.2	0.003165
2584.85	0.002865
2594.49	0.002765
2604.14	0.002655
2613.78	0.002825
2623.43	0.003065
2633.07	0.003065
2642.72	0.003295
2652.36	0.003615
2662.01	0.004115
2671.65	0.004735
2681.29	0.004855
2690.94	0.004295
2700.58	0.003905
2710.23	0.003545
2719.87	0.003155
2729.52	0.003395
2739.16	0.003605
2748.81	0.004305
2758.45	0.005375
2768.1	0.007065
2777.74	0.009715
2787.39	0.013935
2797.03	0.019975
2806.68	0.024385
2816.32	0.022015
2825.97	0.018675
2835.61	0.017775
2845.26	0.019015
2854.9	0.020845
2864.55	0.021575
2874.19	0.021155
2883.84	0.020435
2893.48	0.020145
2903.12	0.019855
2912.77	0.019295
2922.41	0.019245
2932.06	0.020325
2941.7	0.022095
2951.35	0.023005
2960.99	0.021975
2970.64	0.019675
2980.28	0.017675
2989.93	0.016365
2999.57	0.014355
3009.22	0.010785
3018.86	0.008395
3028.51	0.007155
3038.15	0.007895
3047.8	0.009745
3057.44	0.008485
3067.09	0.005315
3076.73	0.004745
3086.38	0.005935
3096.02	0.005925
3105.67	0.005225
3115.31	0.003945
3124.95	0.002915
3134.6	0.001885
3144.24	0.0012184
3153.89	0.0009685
3163.53	0.0006147
3173.18	0.0006761
3182.82	0.0005581
3192.47	0.0004226
3202.11	0.000655
3211.76	0.0006356
3221.4	0.0007231
3231.05	0.0003955
3240.69	0.000358
3250.34	0.000269
3259.98	0.000211
3269.63	0.000249
3279.27	0.000157
3288.92	0.000169
3298.56	0.000162
3308.21	0.000148
3317.85	0.000136
3327.49	0.000276
3337.14	0.000186
3346.78	1.4e-05
3356.43	0.00034
3366.07	4.7e-05
3375.72	0.0003579
3385.36	0.000219
3395.01	0.0003746
3404.65	0.000295
3414.3	0.000241
3423.94	0.000235
3433.59	0.000111
3443.23	0.000242
3452.88	0.000268
3462.52	0.000162
3472.17	0.000297
3481.81	0.000265
3491.46	0.0003858
3501.1	0.000219
3510.75	0.000292
3520.39	0.000316
3530.04	0.000246
3539.68	0.000348
3549.32	0.000223
3558.97	0.000283
3568.61	0.000166
3578.26	0.000244
3587.9	0.000314
3597.55	0.000162
3607.19	0.000169
3616.84	0.000102
3626.48	0.000164
3636.13	0.0004143
3645.77	0.000351
3655.42	0.000191
3665.06	0.000293
3674.71	0.000202
3684.35	0.000346
3694	0.0003877
3703.64	0.000267
3713.29	0.000393
3722.93	0.000296
3732.58	0.00035
3742.22	0.000379
3751.86	0.0003872
3761.51	0.000325
3771.15	0.000323
3780.8	0.0004176
3790.44	0.000295
3800.09	0.0004444
3809.73	0.0004439
3819.38	0.00031
3829.02	0.0004297
3838.67	0.00051187
3848.31	0.00053817
3857.96	0.0005565
3867.6	0.00052265
3877.25	0.0005688
3886.89	0.00054625
3896.54	0.0006789
3906.18	0.0007407
3915.83	0.0007048
3925.47	0.0007655
3935.12	0.0009098
3944.76	0.0007558
3954.41	0.0008615
3964.05	0.0009471
3973.69	0.0010868
3983.34	0.0011988
3992.98	0.0012625
