Infrared Spectrum: 4-Chlorophenylisothiocyanate
Formula: C 7 H 4 Cl N S
CAS: 2131-55-7
State: gas
Origin: EPA-IR VAPOR PHASE LIBRARY
1/CM	ABSORBANCE
549.8	0.003703
559.445	0.003273
569.09	0.003603
578.734	0.002883
588.379	0.002863
598.024	0.003493
607.669	0.003773
617.313	0.004303
626.958	0.006193
636.603	0.006263
646.248	0.006243
655.893	0.005273
665.537	0.002933
675.182	0.001983
684.827	0.0016174
694.472	0.0014191
704.116	0.0010192
713.761	0.0013204
723.406	0.0016656
733.051	0.003183
742.695	0.002973
752.34	0.0013033
761.985	0.0015814
771.63	0.003203
781.275	0.005873
790.919	0.007363
800.564	0.013563
810.209	0.035893
819.854	0.064143
829.498	0.082613
839.143	0.051413
848.788	0.020083
858.433	0.007823
868.078	0.007033
877.722	0.005933
887.367	0.007723
897.012	0.014033
906.657	0.021693
916.301	0.025333
925.946	0.036453
935.591	0.055193
945.236	0.047393
954.88	0.028023
964.525	0.017143
974.17	0.010163
983.815	0.010123
993.46	0.012603
1003.1	0.010013
1012.75	0.031553
1022.39	0.016583
1032.04	0.003173
1041.68	0.003283
1051.33	0.004783
1060.97	0.008003
1070.62	0.014133
1080.26	0.033753
1089.91	0.126473
1099.55	0.130003
1109.2	0.023843
1118.84	0.009433
1128.49	0.005273
1138.13	0.005203
1147.78	0.008813
1157.42	0.005213
1167.07	0.004383
1176.71	0.003903
1186.36	0.002303
1196	0.002713
1205.64	0.003273
1215.29	0.005193
1224.93	0.005773
1234.58	0.009023
1244.22	0.018163
1253.87	0.023583
1263.51	0.018233
1273.16	0.009753
1282.8	0.006253
1292.45	0.004773
1302.09	0.004143
1311.74	0.003763
1321.38	0.002883
1331.03	0.001953
1340.67	0.0015561
1350.32	0.0013797
1359.96	0.0011901
1369.61	0.0014342
1379.25	0.002223
1388.9	0.003533
1398.54	0.004763
1408.18	0.005023
1417.83	0.007013
1427.47	0.016743
1437.12	0.011493
1446.76	0.005883
1456.41	0.008283
1466.05	0.015463
1475.7	0.081283
1485.34	0.261363
1494.99	0.139663
1504.63	0.023973
1514.28	0.012353
1523.92	0.008603
1533.57	0.006343
1543.21	0.006743
1552.86	0.008113
1562.5	0.010213
1572.15	0.012673
1581.79	0.019583
1591.44	0.029883
1601.08	0.013283
1610.73	0.006363
1620.37	0.006933
1630.01	0.007593
1639.66	0.007233
1649.3	0.006613
1658.95	0.005403
1668.59	0.003933
1678.24	0.003473
1687.88	0.003113
1697.53	0.003083
1707.17	0.003283
1716.82	0.003643
1726.46	0.004023
1736.11	0.004073
1745.75	0.004843
1755.4	0.006163
1765.04	0.005413
1774.69	0.004333
1784.33	0.004343
1793.98	0.004373
1803.62	0.004543
1813.27	0.005443
1822.91	0.007353
1832.55	0.009383
1842.2	0.011173
1851.84	0.013043
1861.49	0.014933
1871.13	0.017143
1880.78	0.019373
1890.42	0.020563
1900.07	0.021703
1909.71	0.024663
1919.36	0.030833
1929	0.040133
1938.65	0.054513
1948.29	0.076803
1957.94	0.106623
1967.58	0.144413
1977.23	0.191563
1986.87	0.255483
1996.52	0.343443
2006.16	0.446783
2015.81	0.540893
2025.45	0.643953
2035.1	0.813893
2044.74	0.794553
2054.38	0.507573
2064.03	0.325623
2073.67	0.300553
2083.32	0.368003
2092.96	0.501663
2102.61	0.453263
2112.25	0.261923
2121.9	0.158113
2131.54	0.127263
2141.19	0.118103
2150.83	0.129063
2160.48	0.116823
2170.12	0.083543
2179.77	0.063053
2189.41	0.053883
2199.06	0.044143
2208.7	0.033223
2218.35	0.024403
2227.99	0.017963
2237.64	0.012743
2247.28	0.008863
2256.92	0.006493
2266.57	0.005133
2276.21	0.004453
2285.86	0.003853
2295.5	0.003323
2305.15	0.003233
2314.79	0.003253
2324.44	0.003683
2334.08	0.004523
2343.73	0.005703
2353.37	0.007183
2363.02	0.008113
2372.66	0.006463
2382.31	0.004773
2391.95	0.004253
2401.6	0.004673
2411.24	0.005833
2420.89	0.005983
2430.53	0.004443
2440.18	0.003333
2449.82	0.003143
2459.47	0.003433
2469.11	0.003973
2478.75	0.004753
2488.4	0.006013
2498.04	0.006973
2507.69	0.007013
2517.33	0.006443
2526.98	0.005623
2536.62	0.004433
2546.27	0.003683
2555.91	0.003743
2565.56	0.004133
2575.2	0.005023
2584.85	0.005813
2594.49	0.007433
2604.14	0.010813
2613.78	0.015283
2623.43	0.018553
2633.07	0.015673
2642.72	0.009043
2652.36	0.005503
2662.01	0.003973
2671.65	0.003643
2681.29	0.003633
2690.94	0.003193
2700.58	0.002743
2710.23	0.002453
2719.87	0.002453
2729.52	0.002923
2739.16	0.003323
2748.81	0.003943
2758.45	0.004373
2768.1	0.004783
2777.74	0.005613
2787.39	0.005613
2797.03	0.004353
2806.68	0.003613
2816.32	0.003173
2825.97	0.002833
2835.61	0.002593
2845.26	0.002273
2854.9	0.001883
2864.55	0.0015103
2874.19	0.0013612
2883.84	0.0014487
2893.48	0.0015105
2903.12	0.001823
2912.77	0.002053
2922.41	0.002473
2932.06	0.002623
2941.7	0.003153
2951.35	0.003333
2960.99	0.003853
2970.64	0.004583
2980.28	0.004723
2989.93	0.003833
2999.57	0.002893
3009.22	0.002813
3018.86	0.003083
3028.51	0.003583
3038.15	0.004843
3047.8	0.005053
3057.44	0.002933
3067.09	0.002463
3076.73	0.003173
3086.38	0.004943
3096.02	0.006653
3105.67	0.004723
3115.31	0.002243
3124.95	0.001142
3134.6	0.00076105
3144.24	0.000428
3153.89	0.0005
3163.53	0.000446
3173.18	0.00044
3182.82	0.000447
3192.47	0.000202
3202.11	0.000252
3211.76	0.000254
3221.4	0.000272
3231.05	0.000242
3240.69	0.000258
3250.34	0.00024
3259.98	0.000346
3269.63	3.7e-05
3279.27	0.000407
3288.92	0.000162
3298.56	0.000315
3308.21	0.000198
3317.85	0.00038
3327.49	0.000373
3337.14	0.0006067
3346.78	0.0006353
3356.43	0.0005907
3366.07	0.000463
3375.72	0.000347
3385.36	0.000578
3395.01	0.00067446
3404.65	0.000577
3414.3	0.000463
3423.94	0.000279
3433.59	0.000467
3443.23	0.0006144
3452.88	0.000499
3462.52	0.000131
3472.17	0.000474
3481.81	0.000536
3491.46	0.000358
3501.1	0.000388
3510.75	0.000353
3520.39	0.000483
3530.04	0.000313
3539.68	0.000454
3549.32	0.000522
3558.97	0.0006041
3568.61	0.00074368
3578.26	0.000541
3587.9	0.0006471
3597.55	0.000531
3607.19	0.000452
3616.84	0.0005831
3626.48	0.000468
3636.13	0.00056
3645.77	0.000688621
3655.42	0.0006177
3665.06	0.0009073
3674.71	0.0008175
3684.35	0.00073177
3694	0.0008775
3703.64	0.00076793
3713.29	0.0009577
3722.93	0.0011901
3732.58	0.0010453
3742.22	0.0008237
3751.86	0.0011486
3761.51	0.0008922
3771.15	0.0008753
3780.8	0.0008649
3790.44	0.0008647
3800.09	0.0008608
3809.73	0.0009948
3819.38	0.0010302
3829.02	0.0013722
3838.67	0.0013473
3848.31	0.0010383
3857.96	0.0012455
3867.6	0.0012621
3877.25	0.0013014
3886.89	0.0014136
3896.54	0.0016457
3906.18	0.0014205
3915.83	0.0016165
3925.47	0.001893
3935.12	0.001863
3944.76	0.002123
3954.41	0.002313
3964.05	0.002483
3973.69	0.002763
3983.34	0.002723
3992.98	0.003053
