Infrared Spectrum: 4-Carboxyphenyl isothiocyanate
Formula: C 8 H 5 N O 2 S
CAS: 2131-62-6
State: gas
Origin: EPA-IR VAPOR PHASE LIBRARY
1/CM	ABSORBANCE
549.8	0.00337
559.445	0.00412
569.09	0.00411
578.734	0.00457
588.379	0.0034
598.024	0.00248
607.669	0.00186
617.313	0.00155
626.958	0.0010275
636.603	0.0010848
646.248	0.00152
655.893	0.00133
665.537	0.00233
675.182	0.0054
684.827	0.00433
694.472	0.0039
704.116	0.00273
713.761	0.00193
723.406	0.00173
733.051	0.00187
742.695	0.0025
752.34	0.0045
761.985	0.00861
771.63	0.01243
781.275	0.00889
790.919	0.00302
800.564	0.00216
810.209	0.00204
819.854	0.00205
829.498	0.00168
839.143	0.00276
848.788	0.00376
858.433	0.00312
868.078	0.0018
877.722	0.00138
887.367	0.0012401
897.012	0.00133
906.657	0.00204
916.301	0.00249
925.946	0.00346
935.591	0.00359
945.236	0.00413
954.88	0.0036
964.525	0.00252
974.17	0.002
983.815	0.00155
993.46	0.00186
1003.1	0.0009055
1012.75	0.00234
1022.39	0.0031
1032.04	0.00131
1041.68	0.00202
1051.33	0.00367
1060.97	0.00536
1070.62	0.01521
1080.26	0.027
1089.91	0.01461
1099.55	0.00536
1109.2	0.00314
1118.84	0.0017
1128.49	0.00195
1138.13	0.00458
1147.78	0.0043
1157.42	0.01
1167.07	0.02241
1176.71	0.01677
1186.36	0.01726
1196	0.00864
1205.64	0.00493
1215.29	0.00395
1224.93	0.00592
1234.58	0.0063
1244.22	0.00781
1253.87	0.00992
1263.51	0.00835
1273.16	0.0054
1282.8	0.00524
1292.45	0.00443
1302.09	0.00446
1311.74	0.00525
1321.38	0.00773
1331.03	0.00928
1340.67	0.00461
1350.32	0.00514
1359.96	0.01194
1369.61	0.01099
1379.25	0.00408
1388.9	0.00278
1398.54	0.00264
1408.18	0.00282
1417.83	0.0026
1427.47	0.00196
1437.12	0.0012363
1446.76	0.0013
1456.41	0.0010638
1466.05	0.0012245
1475.7	0.00144
1485.34	0.00195
1494.99	0.00283
1504.63	0.00532
1514.28	0.00273
1523.92	0.00158
1533.57	0.00132
1543.21	0.0017
1552.86	0.00199
1562.5	0.00255
1572.15	0.00314
1581.79	0.00504
1591.44	0.01304
1601.08	0.02047
1610.73	0.01161
1620.37	0.00562
1630.01	0.00275
1639.66	0.00199
1649.3	0.00204
1658.95	0.00245
1668.59	0.00214
1678.24	0.00181
1687.88	0.00204
1697.53	0.00216
1707.17	0.00252
1716.82	0.00304
1726.46	0.00353
1736.11	0.00549
1745.75	0.01276
1755.4	0.03837
1765.04	0.05108
1774.69	0.01601
1784.33	0.00558
1793.98	0.00328
1803.62	0.00261
1813.27	0.00273
1822.91	0.0024
1832.55	0.00229
1842.2	0.00207
1851.84	0.00213
1861.49	0.0021
1871.13	0.00224
1880.78	0.00219
1890.42	0.00229
1900.07	0.00256
1909.71	0.00331
1919.36	0.00404
1929	0.00524
1938.65	0.0064
1948.29	0.00811
1957.94	0.01066
1967.58	0.01409
1977.23	0.01827
1986.87	0.02423
1996.52	0.03222
2006.16	0.04062
2015.81	0.04797
2025.45	0.05889
2035.1	0.0728
2044.74	0.05501
2054.38	0.03244
2064.03	0.02558
2073.67	0.02836
2083.32	0.04024
2092.96	0.04382
2102.61	0.02824
2112.25	0.01655
2121.9	0.01205
2131.54	0.01102
2141.19	0.01146
2150.83	0.01048
2160.48	0.00813
2170.12	0.00614
2179.77	0.00497
2189.41	0.00431
2199.06	0.00397
2208.7	0.00329
2218.35	0.00253
2227.99	0.00218
2237.64	0.00178
2247.28	0.00142
2256.92	0.00136
2266.57	0.0013
2276.21	0.00127
2285.86	0.0013
2295.5	0.0010262
2305.15	0.001136
2314.79	0.0010781
2324.44	0.0014
2334.08	0.00142
2343.73	0.0011907
2353.37	0.0009365
2363.02	0.0008175
2372.66	0.0009812
2382.31	0.0011455
2391.95	0.0009776
2401.6	0.0010581
2411.24	0.0010664
2420.89	0.0011618
2430.53	0.0009737
2440.18	0.0009669
2449.82	0.0010592
2459.47	0.0007222
2469.11	0.0008227
2478.75	0.000899
2488.4	0.00131
2498.04	0.00129
2507.69	0.00139
2517.33	0.0014
2526.98	0.0011791
2536.62	0.0011919
2546.27	0.00126
2555.91	0.001127
2565.56	0.0012077
2575.2	0.00147
2584.85	0.00135
2594.49	0.00188
2604.14	0.00154
2613.78	0.0011887
2623.43	0.0008795
2633.07	0.0009158
2642.72	0.0009398
2652.36	0.0010063
2662.01	0.00127
2671.65	0.0007726
2681.29	0.0010613
2690.94	0.0009403
2700.58	0.0010481
2710.23	0.0010517
2719.87	0.0011821
2729.52	0.0008907
2739.16	0.0007396
2748.81	0.0007906
2758.45	0.0009801
2768.1	0.0006672
2777.74	0.0006893
2787.39	0.0009981
2797.03	0.0007703
2806.68	0.0006451
2816.32	0.0010059
2825.97	0.000707
2835.61	0.000758
2845.26	0.0008136
2854.9	0.0005752
2864.55	0.0006998
2874.19	0.000654
2883.84	0.0005127
2893.48	0.000879
2903.12	0.0008268
2912.77	0.000446
2922.41	0.0005596
2932.06	0.0002268
2941.7	0.000738
2951.35	0.0007016
2960.99	0.0011012
2970.64	0.0008923
2980.28	0.0010429
2989.93	0.0008433
2999.57	0.0006149
3009.22	0.000815
3018.86	0.0006837
3028.51	0.0004974
3038.15	0.0007052
3047.8	0.0006276
3057.44	0.0008546
3067.09	0.0010911
3076.73	0.0005078
3086.38	0.0011235
3096.02	0.001022
3105.67	0.0011733
3115.31	0.0005529
3124.95	0.0008684
3134.6	0.0007174
3144.24	0.0002198
3153.89	0.0010053
3163.53	8.9e-05
3173.18	0.000608
3182.82	0.0008023
3192.47	0.0005309
3202.11	0.0004472
3211.76	0.00034549
3221.4	0.000926
3231.05	0.00029601
3240.69	0.00031974
3250.34	0.0006256
3259.98	0.000491
3269.63	0.0004316
3279.27	0.0008568
3288.92	0.0010143
3298.56	0.0004412
3308.21	0.0006986
3317.85	0.0010054
3327.49	0.0009387
3337.14	0.0011465
3346.78	0.0006001
3356.43	0.0008239
3366.07	0.0008313
3375.72	0.0010727
3385.36	0.0004812
3395.01	0.0010279
3404.65	0.0004193
3414.3	0.000829
3423.94	0.0009152
3433.59	0.0006303
3443.23	0.0005661
3452.88	0.00126
3462.52	0.0010868
3472.17	0.000876
3481.81	0.0012164
3491.46	0.0010934
3501.1	0.00132
3510.75	0.0008875
3520.39	0.00155
3530.04	0.00132
3539.68	0.0008904
3549.32	0.000964
3558.97	0.00188
3568.61	0.00398
3578.26	0.014
3587.9	0.01434
3597.55	0.00194
3607.19	0.00125
3616.84	0.0009822
3626.48	0.0006438
3636.13	0.0009537
3645.77	0.00024811
3655.42	0.0008524
3665.06	0.0010011
3674.71	0.0004963
3684.35	0.0006111
3694	0.0005645
3703.64	0.0005477
3713.29	0.00033466
3722.93	0.00029292
3732.58	0.0005858
3742.22	0.0006703
3751.86	0.0005675
3761.51	0.0009248
3771.15	0.0006744
3780.8	0.0009818
3790.44	0.0010752
3800.09	0.0008307
3809.73	0.0004695
3819.38	0.00034114
3829.02	0.0007958
3838.67	0.0006036
3848.31	0.000656
3857.96	0.0004337
3867.6	0.0005836
3877.25	0.0006607
3886.89	0.0007583
3896.54	0.0007018
3906.18	0.0005439
3915.83	0.0009618
3925.47	0.000722
3935.12	0.0009625
3944.76	0.0008612
3954.41	0.000766
3964.05	0.0008038
3973.69	0.0006999
3983.34	0.0008317
3992.98	0.0008448
