Infrared Spectrum: 4-Acetylphenylisothiocyanate
Formula: C 9 H 7 N O S
CAS: 2131-57-9
State: gas
Origin: EPA-IR VAPOR PHASE LIBRARY
1/CM	ABSORBANCE
551.7	0.00437
563.274	0.00625
574.848	0.01102
586.421	0.01612
597.995	0.01255
609.569	0.01173
621.143	0.01485
632.717	0.01586
644.291	0.0111
655.864	0.0058
667.438	0.00536
679.012	0.0052
690.586	0.00498
702.16	0.0044
713.734	0.00437
725.307	0.00613
736.881	0.01317
748.455	0.03687
760.029	0.02242
771.603	0.00652
783.177	0.00384
794.75	0.00485
806.324	0.01142
817.898	0.02409
829.472	0.04326
841.046	0.04679
852.619	0.02261
864.193	0.00951
875.767	0.00654
887.341	0.00601
898.915	0.01052
910.489	0.01776
922.062	0.02788
933.636	0.04395
945.21	0.05776
956.784	0.04888
968.358	0.02289
979.932	0.01352
991.505	0.01053
1003.08	0.01013
1014.65	0.01354
1026.23	0.00596
1037.8	0.0045
1049.37	0.00448
1060.95	0.00751
1072.52	0.01345
1084.1	0.00774
1095.67	0.00657
1107.24	0.00794
1118.82	0.00622
1130.39	0.00443
1141.97	0.00352
1153.54	0.0045
1165.11	0.01846
1176.69	0.04186
1188.26	0.00822
1199.83	0.00852
1211.41	0.01764
1222.98	0.03038
1234.56	0.05564
1246.13	0.14656
1257.7	0.21986
1269.28	0.10181
1280.85	0.04548
1292.42	0.02371
1304	0.02084
1315.57	0.01263
1327.15	0.00897
1338.72	0.01248
1350.29	0.03101
1361.87	0.06427
1373.44	0.02968
1385.02	0.01742
1396.59	0.02223
1408.16	0.02438
1419.74	0.02151
1431.31	0.01448
1442.88	0.01078
1454.46	0.00791
1466.03	0.00654
1477.61	0.00726
1489.18	0.01511
1500.75	0.02947
1512.33	0.01114
1523.9	0.00761
1535.48	0.00895
1547.05	0.0127
1558.62	0.02014
1570.2	0.03521
1581.77	0.07621
1593.34	0.1772
1604.92	0.11887
1616.49	0.04102
1628.07	0.01828
1639.64	0.01637
1651.21	0.01848
1662.79	0.0214
1674.36	0.02405
1685.93	0.0463
1697.51	0.12798
1709.08	0.18322
1720.66	0.06029
1732.23	0.01959
1743.8	0.01245
1755.38	0.01112
1766.95	0.00841
1778.53	0.00658
1790.1	0.00661
1801.67	0.00668
1813.25	0.00697
1824.82	0.00749
1836.39	0.00828
1847.97	0.00998
1859.54	0.01235
1871.12	0.01473
1882.69	0.01765
1894.26	0.01988
1905.84	0.02201
1917.41	0.02736
1928.99	0.0379
1940.56	0.05408
1952.13	0.07701
1963.71	0.1102
1975.28	0.15513
1986.85	0.2186
1998.43	0.30692
2010	0.39982
2021.58	0.48524
2033.15	0.61315
2044.72	0.53094
2056.3	0.30789
2067.87	0.24988
2079.44	0.31791
2091.02	0.40826
2102.59	0.27973
2114.17	0.15249
2125.74	0.10865
2137.31	0.10497
2148.89	0.09956
2160.46	0.07369
2172.04	0.05063
2183.61	0.03977
2195.18	0.03411
2206.76	0.02811
2218.33	0.02052
2229.9	0.01349
2241.48	0.00873
2253.05	0.0062
2264.63	0.00481
2276.2	0.00431
2287.77	0.00397
2299.35	0.00411
2310.92	0.00462
2322.5	0.00556
2334.07	0.0061
2345.64	0.00518
2357.22	0.00408
2368.79	0.00372
2380.36	0.00415
2391.94	0.00393
2403.51	0.00308
2415.09	0.00303
2426.66	0.00336
2438.23	0.00295
2449.81	0.00264
2461.38	0.00288
2472.96	0.00346
2484.53	0.00435
2496.1	0.00564
2507.68	0.00661
2519.25	0.00647
2530.82	0.00595
2542.4	0.00584
2553.97	0.00588
2565.55	0.00682
2577.12	0.00783
2588.69	0.00816
2600.27	0.00795
2611.84	0.00714
2623.41	0.00654
2634.99	0.00663
2646.56	0.00665
2658.14	0.00585
2669.71	0.00458
2681.28	0.00388
2692.86	0.00302
2704.43	0.00263
2716.01	0.00261
2727.58	0.00259
2739.15	0.00257
2750.73	0.00275
2762.3	0.003
2773.87	0.00331
2785.45	0.00373
2797.02	0.00351
2808.6	0.00254
2820.17	0.0021
2831.74	0.0023
2843.32	0.00289
2854.89	0.00281
2866.47	0.00228
2878.04	0.00193
2889.61	0.00197
2901.19	0.00226
2912.76	0.00283
2924.33	0.00383
2935.91	0.00477
2947.48	0.00502
2959.06	0.00562
2970.63	0.0068
2982.2	0.00679
2993.78	0.00586
3005.35	0.00719
3016.92	0.01009
3028.5	0.00705
3040.07	0.00708
3051.65	0.0075
3063.22	0.00703
3074.79	0.00697
3086.37	0.00755
3097.94	0.00717
3109.52	0.00515
3121.09	0.003
3132.66	0.00198
3144.24	0.0014
3155.81	0.0009542
3167.38	0.0007734
3178.96	0.0007126
3190.53	0.0005672
3202.11	0.0004346
3213.68	0.00041
3225.25	0.0003346
3236.83	0.000299
3248.4	0.0002519
3259.98	0.0003057
3271.55	0.0003743
3283.12	0.0004041
3294.7	0.0003807
3306.27	0.000511
3317.84	0.0005107
3329.42	0.0005612
3340.99	0.0005243
3352.57	0.0007731
3364.14	0.00102
3375.71	0.00187
3387.29	0.00347
3398.86	0.00324
3410.43	0.00177
3422.01	0.0008953
3433.58	0.0007115
3445.16	0.0005512
3456.73	0.0006252
3468.3	0.0005756
3479.88	0.0004587
3491.45	0.0004839
3503.03	0.0005189
3514.6	0.0004799
3526.17	0.0005497
3537.75	0.000496
3549.32	0.000601
3560.89	0.0006137
3572.47	0.0005053
3584.04	0.0004772
3595.62	0.0005846
3607.19	0.0005086
3618.76	0.000586
3630.34	0.000604
3641.91	0.0005364
3653.49	0.0006041
3665.06	0.0006684
3676.63	0.000702
3688.21	0.0008164
3699.78	0.0008305
3711.35	0.0007082
3722.93	0.0008085
3734.5	0.0007581
3746.08	0.0007037
3757.65	0.0006343
3769.22	0.0006595
3780.8	0.0006443
3792.37	0.0007941
3803.94	0.0007415
3815.52	0.0007968
3827.09	0.0009967
3838.67	0.0009432
3850.24	0.00117
3861.81	0.00115
3873.39	0.00126
3884.96	0.0014
3896.54	0.00135
3908.11	0.00148
3919.68	0.00154
3931.26	0.00176
3942.83	0.00191
3954.4	0.00209
3965.98	0.00223
3977.55	0.00235
3989.13	0.00256
4000.7	0.00281
