Infrared Spectrum: 3-Carboxyphenyl isothiocyanate
Formula: C 8 H 5 N O 2 S
CAS: 2131-63-7
State: gas
Origin: EPA-IR VAPOR PHASE LIBRARY
1/CM	ABSORBANCE
549.8	0.00883
559.445	0.00884
569.09	0.00926
578.734	0.01092
588.379	0.01173
598.024	0.0075
607.669	0.00401
617.313	0.00351
626.958	0.01195
636.603	0.01509
646.248	0.00592
655.893	0.00318
665.537	0.00325
675.182	0.00569
684.827	0.01197
694.472	0.00846
704.116	0.00253
713.761	0.002
723.406	0.00238
733.051	0.00355
742.695	0.00976
752.34	0.01832
761.985	0.01278
771.63	0.00553
781.275	0.00464
790.919	0.00569
800.564	0.00517
810.209	0.0038
819.854	0.00204
829.498	0.0012123
839.143	0.0012568
848.788	0.0009421
858.433	0.0009465
868.078	0.0010015
877.722	0.0008744
887.367	0.0016
897.012	0.00298
906.657	0.00345
916.301	0.00233
925.946	0.00147
935.591	0.0013729
945.236	0.00165
954.88	0.00161
964.525	0.00189
974.17	0.0029
983.815	0.00309
993.46	0.00244
1003.1	0.00217
1012.75	0.002
1022.39	0.00166
1032.04	0.00262
1041.68	0.00265
1051.33	0.00535
1060.97	0.01061
1070.62	0.01192
1080.26	0.01234
1089.91	0.01638
1099.55	0.00775
1109.2	0.00458
1118.84	0.00528
1128.49	0.00702
1138.13	0.0117
1147.78	0.0198
1157.42	0.03015
1167.07	0.03171
1176.71	0.02936
1186.36	0.01525
1196	0.00596
1205.64	0.00338
1215.29	0.00293
1224.93	0.00258
1234.58	0.00314
1244.22	0.00437
1253.87	0.00541
1263.51	0.00587
1273.16	0.00536
1282.8	0.00514
1292.45	0.00575
1302.09	0.0078
1311.74	0.01053
1321.38	0.01388
1331.03	0.01474
1340.67	0.01008
1350.32	0.00804
1359.96	0.01187
1369.61	0.01115
1379.25	0.00503
1388.9	0.00307
1398.54	0.00247
1408.18	0.00222
1417.83	0.003
1427.47	0.00524
1437.12	0.01033
1446.76	0.01014
1456.41	0.00338
1466.05	0.00295
1475.7	0.00506
1485.34	0.00614
1494.99	0.00352
1504.63	0.00182
1514.28	0.0013406
1523.92	0.0011113
1533.57	0.0012487
1543.21	0.0015
1552.86	0.00207
1562.5	0.00375
1572.15	0.00789
1581.79	0.01338
1591.44	0.01255
1601.08	0.01037
1610.73	0.00658
1620.37	0.00304
1630.01	0.00215
1639.66	0.00168
1649.3	0.00169
1658.95	0.00176
1668.59	0.0017
1678.24	0.00179
1687.88	0.002
1697.53	0.00274
1707.17	0.00415
1716.82	0.00502
1726.46	0.00624
1736.11	0.00614
1745.75	0.01123
1755.4	0.03875
1765.04	0.07637
1774.69	0.03382
1784.33	0.00892
1793.98	0.00592
1803.62	0.00554
1813.27	0.00397
1822.91	0.00351
1832.55	0.00267
1842.2	0.00192
1851.84	0.00157
1861.49	0.00166
1871.13	0.00186
1880.78	0.0023
1890.42	0.00288
1900.07	0.0034
1909.71	0.00431
1919.36	0.00616
1929	0.00921
1938.65	0.01301
1948.29	0.01711
1957.94	0.02083
1967.58	0.02498
1977.23	0.03071
1986.87	0.03944
1996.52	0.0514
2006.16	0.0631
2015.81	0.0738
2025.45	0.09207
2035.1	0.11963
2044.74	0.10638
2054.38	0.06541
2064.03	0.04839
2073.67	0.05519
2083.32	0.07031
2092.96	0.06981
2102.61	0.05169
2112.25	0.03547
2121.9	0.02762
2131.54	0.02391
2141.19	0.02085
2150.83	0.01662
2160.48	0.0119
2170.12	0.00841
2179.77	0.00618
2189.41	0.00499
2199.06	0.00433
2208.7	0.00447
2218.35	0.0046
2227.99	0.00394
2237.64	0.00306
2247.28	0.00254
2256.92	0.00215
2266.57	0.00196
2276.21	0.00183
2285.86	0.0013051
2295.5	0.0011566
2305.15	0.000964
2314.79	0.0009306
2324.44	0.0009265
2334.08	0.0010214
2343.73	0.0010129
2353.37	0.0009627
2363.02	0.0008619
2372.66	0.0008964
2382.31	0.0009729
2391.95	0.0010836
2401.6	0.0012058
2411.24	0.0012264
2420.89	0.0012826
2430.53	0.0012856
2440.18	0.0012712
2449.82	0.0012491
2459.47	0.0011376
2469.11	0.0011022
2478.75	0.0012377
2488.4	0.0013295
2498.04	0.0013335
2507.69	0.0013062
2517.33	0.0012588
2526.98	0.0013845
2536.62	0.00151
2546.27	0.00156
2555.91	0.00165
2565.56	0.00176
2575.2	0.00207
2584.85	0.00198
2594.49	0.0012651
2604.14	0.0008992
2613.78	0.0007024
2623.43	0.000716
2633.07	0.0006219
2642.72	0.000420574
2652.36	0.0006338
2662.01	0.0005684
2671.65	0.0004959
2681.29	0.0005828
2690.94	0.0006412
2700.58	0.0008
2710.23	0.0008722
2719.87	0.0010572
2729.52	0.0010739
2739.16	0.0011159
2748.81	0.001091
2758.45	0.0009798
2768.1	0.0009711
2777.74	0.0009601
2787.39	0.0007847
2797.03	0.0008577
2806.68	0.0007754
2816.32	0.0008638
2825.97	0.000791
2835.61	0.0009828
2845.26	0.0008425
2854.9	0.0008776
2864.55	0.0007313
2874.19	0.0007683
2883.84	0.0006315
2893.48	0.0005978
2903.12	0.0006243
2912.77	0.0005646
2922.41	0.0006343
2932.06	0.0006959
2941.7	0.00065
2951.35	0.0005951
2960.99	0.0005476
2970.64	0.0005692
2980.28	0.0006699
2989.93	0.0007522
2999.57	0.0007441
3009.22	0.0009078
3018.86	0.0008498
3028.51	0.0007519
3038.15	0.0010421
3047.8	0.001082
3057.44	0.0010066
3067.09	0.0014045
3076.73	0.0021
3086.38	0.00193
3096.02	0.0012427
3105.67	0.0008354
3115.31	0.00048473
3124.95	0.0004096
3134.6	0.00044798
3144.24	0.00043054
3153.89	0.000309
3163.53	0.0003535
3173.18	0.00026
3182.82	0.0003396
3192.47	0.0004062
3202.11	0.000192
3211.76	0.000302
3221.4	0.000268
3231.05	0.000246
3240.69	0.000217
3250.34	0.000158
3259.98	0.000274
3269.63	0.000221
3279.27	0.000132
3288.92	0.0004011
3298.56	0.000175
3308.21	0.000301
3317.85	0.000263
3327.49	0.000228
3337.14	0.0003363
3346.78	0.000307
3356.43	0.0003264
3366.07	0.000427247
3375.72	0.00045416
3385.36	0.0003803
3395.01	0.0003943
3404.65	0.00048045
3414.3	0.0004619
3423.94	0.0003401
3433.59	0.00048678
3443.23	0.00021
3452.88	0.000305
3462.52	0.000233
3472.17	0.00041203
3481.81	0.0004046
3491.46	0.00046708
3501.1	0.0007189
3510.75	0.0009825
3520.39	0.0008025
3530.04	0.0007061
3539.68	0.000704
3549.32	0.0010059
3558.97	0.00156
3568.61	0.00644
3578.26	0.02451
3587.9	0.02081
3597.55	0.00349
3607.19	0.0011104
3616.84	0.0006212
3626.48	0.0003575
3636.13	0.0004069
3645.77	0.000323
3655.42	0.00044744
3665.06	0.0003747
3674.71	0.0003366
3684.35	0.000208
3694	0.0004831
3703.64	0.0003562
3713.29	0.00043972
3722.93	0.000429891
3732.58	0.0004023
3742.22	0.00045939
3751.86	0.00041627
3761.51	0.00047574
3771.15	0.0003762
3780.8	0.0003825
3790.44	0.000185
3800.09	0.0003831
3809.73	0.0003415
3819.38	0.000326
3829.02	0.0003497
3838.67	0.00043594
3848.31	0.0004054
3857.96	0.00046711
3867.6	0.00047684
3877.25	0.0005906
3886.89	0.000287
3896.54	0.0004072
3906.18	0.000303
3915.83	0.0004654
3925.47	0.00041203
3935.12	0.0005221
3944.76	0.0006353
3954.41	0.00041719
3964.05	0.0005412
3973.69	0.000736
3983.34	0.000521
3992.98	0.0006764
