Infrared Spectrum: 3-Bromophenyl isothiocyanate
Formula: C 7 H 4 Br N S
CAS: 2131-59-1
State: gas
Origin: EPA-IR VAPOR PHASE LIBRARY
1/CM	ABSORBANCE
549.8	0.008009
559.445	0.006739
569.09	0.004609
578.734	0.003759
588.379	0.004919
598.024	0.003699
607.669	0.002099
617.313	0.001589
626.958	0.001609
636.603	0.001419
646.248	0.001869
655.893	0.003349
665.537	0.006989
675.182	0.008769
684.827	0.006159
694.472	0.004219
704.116	0.003699
713.761	0.004769
723.406	0.009099
733.051	0.017779
742.695	0.020709
752.34	0.016079
761.985	0.011249
771.63	0.018819
781.275	0.015569
790.919	0.004389
800.564	0.0009985
810.209	0.0010318
819.854	0.001549
829.498	0.0012308
839.143	0.0009003
848.788	0.0010095
858.433	0.003489
868.078	0.007739
877.722	0.004909
887.367	0.002169
897.012	0.001899
906.657	0.002059
916.301	0.001799
925.946	0.001899
935.591	0.002439
945.236	0.004059
954.88	0.006289
964.525	0.007039
974.17	0.004329
983.815	0.002579
993.46	0.002999
1003.1	0.002279
1012.75	0.0011807
1022.39	0.0007709
1032.04	0.00039815
1041.68	0.0007175
1051.33	0.001859
1060.97	0.005979
1070.62	0.007609
1080.26	0.004519
1089.91	0.002879
1099.55	0.0011129
1109.2	4.7e-05
1118.84	0.0004891
1128.49	0.0003366
1138.13	0.000198
1147.78	0.000216
1157.42	0.0006813
1167.07	0.0006223
1176.71	0.00039342
1186.36	0.000345694
1196	0.0009198
1205.64	0.0008254
1215.29	0.0006773
1224.93	0.0011184
1234.58	0.002209
1244.22	0.002039
1253.87	0.001619
1263.51	0.002109
1273.16	0.002119
1282.8	0.002029
1292.45	0.002609
1302.09	0.001579
1311.74	0.0009589
1321.38	0.001529
1331.03	0.001869
1340.67	0.0007037
1350.32	0.0004406
1359.96	0.0005204
1369.61	0.0006981
1379.25	0.0009701
1388.9	0.001539
1398.54	0.002369
1408.18	0.004909
1417.83	0.007339
1427.47	0.005389
1437.12	0.002729
1446.76	0.002759
1456.41	0.005979
1466.05	0.025159
1475.7	0.032549
1485.34	0.005379
1494.99	0.002489
1504.63	0.003169
1514.28	0.003439
1523.92	0.002379
1533.57	0.002999
1543.21	0.005299
1552.86	0.011819
1562.5	0.027619
1572.15	0.040189
1581.79	0.063029
1591.44	0.051859
1601.08	0.009319
1610.73	0.003599
1620.37	0.002509
1630.01	0.002079
1639.66	0.002049
1649.3	0.001909
1658.95	0.002099
1668.59	0.002029
1678.24	0.001284
1687.88	0.0011408
1697.53	0.0011384
1707.17	0.0011625
1716.82	0.0012541
1726.46	0.001539
1736.11	0.001719
1745.75	0.001589
1755.4	0.001479
1765.04	0.001699
1774.69	0.001959
1784.33	0.002129
1793.98	0.001779
1803.62	0.001569
1813.27	0.001579
1822.91	0.001719
1832.55	0.001799
1842.2	0.001929
1851.84	0.002629
1861.49	0.002909
1871.13	0.002899
1880.78	0.003719
1890.42	0.004969
1900.07	0.006819
1909.71	0.009519
1919.36	0.012659
1929	0.015539
1938.65	0.018549
1948.29	0.023349
1957.94	0.030999
1967.58	0.041479
1977.23	0.055229
1986.87	0.075019
1996.52	0.099599
2006.16	0.121929
2015.81	0.141979
2025.45	0.174299
2035.1	0.214779
2044.74	0.170619
2054.38	0.103179
2064.03	0.087209
2073.67	0.111269
2083.32	0.132389
2092.96	0.115669
2102.61	0.080209
2112.25	0.058249
2121.9	0.049659
2131.54	0.040419
2141.19	0.031869
2150.83	0.024109
2160.48	0.018249
2170.12	0.014779
2179.77	0.012709
2189.41	0.011939
2199.06	0.010939
2208.7	0.008939
2218.35	0.007059
2227.99	0.005579
2237.64	0.004399
2247.28	0.003489
2256.92	0.002579
2266.57	0.001959
2276.21	0.001699
2285.86	0.001419
2295.5	0.0012506
2305.15	0.0010176
2314.79	0.0011322
2324.44	0.0013174
2334.08	0.001215
2343.73	0.0010755
2353.37	0.0010565
2363.02	0.0010678
2372.66	0.0011341
2382.31	0.0012437
2391.95	0.001489
2401.6	0.001519
2411.24	0.001579
2420.89	0.001649
2430.53	0.001749
2440.18	0.001909
2449.82	0.001949
2459.47	0.001919
2469.11	0.001859
2478.75	0.001829
2488.4	0.002069
2498.04	0.002089
2507.69	0.002019
2517.33	0.001669
2526.98	0.001819
2536.62	0.002009
2546.27	0.002269
2555.91	0.002579
2565.56	0.003379
2575.2	0.004049
2584.85	0.003089
2594.49	0.001609
2604.14	0.0010553
2613.78	0.0009168
2623.43	0.0008608
2633.07	0.0007953
2642.72	0.0006961
2652.36	0.0007351
2662.01	0.0006814
2671.65	0.0009141
2681.29	0.0009009
2690.94	0.0008856
2700.58	0.0009791
2710.23	0.0009444
2719.87	0.0010875
2729.52	0.0011755
2739.16	0.001459
2748.81	0.001539
2758.45	0.001879
2768.1	0.002339
2777.74	0.002369
2787.39	0.002129
2797.03	0.001839
2806.68	0.001519
2816.32	0.0011157
2825.97	0.0010347
2835.61	0.0010854
2845.26	0.0007462
2854.9	0.0006276
2864.55	0.0005837
2874.19	0.000545
2883.84	0.000587
2893.48	0.0004737
2903.12	0.0005946
2912.77	0.0004953
2922.41	0.0008169
2932.06	0.0008437
2941.7	0.0007403
2951.35	0.0006755
2960.99	0.0009086
2970.64	0.0009751
2980.28	0.000954
2989.93	0.001191
2999.57	0.0013144
3009.22	0.0011218
3018.86	0.001194
3028.51	0.0011177
3038.15	0.0009811
3047.8	0.0009555
3057.44	0.0012944
3067.09	0.002369
3076.73	0.003229
3086.38	0.002469
3096.02	0.0012883
3105.67	0.0005612
3115.31	0.00033299
3124.95	0.00038867
3134.6	0.00037683
3144.24	0.000451
3153.89	0.00037409
3163.53	0.00033199
3173.18	0.0002499
3182.82	0.00016
3192.47	0.000207
3202.11	0.0002604
3211.76	0.0002617
3221.4	9.4e-05
3231.05	0.000145
3240.69	0.000286
3250.34	0.0002826
3259.98	0.000266
3269.63	0.000211
3279.27	0.000229
3288.92	0.000136
3298.56	0.0002804
3308.21	0.0003265
3317.85	0.0002536
3327.49	0.000206
3337.14	0.0002775
3346.78	0.000341257
3356.43	0.000345911
3366.07	0.000234
3375.72	0.0003208
3385.36	0.0002889
3395.01	0.00039061
3404.65	0.0002886
3414.3	0.000252
3423.94	0.000203
3433.59	0.00042299
3443.23	0.000212
3452.88	0.0004672
3462.52	7.3e-05
3472.17	0.000341094
3481.81	0.0006203
3491.46	0.00035241
3501.1	0.000235
3510.75	0.0005031
3520.39	0.00040889
3530.04	0.0004541
3539.68	0.000285
3549.32	0.000192
3558.97	0.00038673
3568.61	0.00033449
3578.26	0.000176
3587.9	0.000234
3597.55	0.0002705
3607.19	0.000341992
3616.84	0.0002921
3626.48	0.00033486
3636.13	0.000309
3645.77	0.00035973
3655.42	0.0003957
3665.06	0.0002648
3674.71	0.0005158
3684.35	0.0005323
3694	0.00035537
3703.64	0.00036923
3713.29	0.0002888
3722.93	0.00038472
3732.58	0.0003086
3742.22	0.0003169
3751.86	0.000289
3761.51	0.0003373
3771.15	0.0007057
3780.8	0.0005649
3790.44	0.00033116
3800.09	0.0005429
3809.73	0.0005693
3819.38	0.0002941
3829.02	0.00041462
3838.67	0.0003248
3848.31	0.0005163
3857.96	0.0004682
3867.6	0.0005833
3877.25	0.00039947
3886.89	0.000739
3896.54	0.000708
3906.18	0.0008127
3915.83	0.0006392
3925.47	0.0005983
3935.12	0.0007031
3944.76	0.0010787
3954.41	0.0008098
3964.05	0.0007271
3973.69	0.0008718
3983.34	0.0009536
3992.98	0.0009364
