Infrared Spectrum: Pentadecylbenzene
Formula: C 21 H 36
CAS: 2131-18-2
State: gas
Instrument: HP-GC/MS/IRD
Origin: NIST Mass Spectrometry Data Center
1/CM	ABSORBANCE
550	6.93e-05
562	0.0002464
574	0.0002464
586	0.0001925
598	0.0001078
610	4.62e-05
622	3.08e-05
634	9.24e-05
646	0.0001694
658	0.0004004
670	0.0008932
682	0.0021098
694	0.0058135
706	0.0047971
718	0.0040271
730	0.0044352
742	0.0046046
754	0.0024024
766	0.0011935
778	0.0007238
790	0.000462
802	0.0004004
814	0.0003773
826	0.0002772
838	0.0002387
850	0.000231
862	0.0002618
874	0.0003003
886	0.0003157
898	0.0004389
910	0.0004851
922	0.000308
934	0.0001771
946	0.000231
958	0.0002387
970	0.0002233
982	0.0002387
994	0.0002695
1006	0.0003311
1018	0.0005236
1030	0.0011704
1042	0.000539
1054	0.0004697
1066	0.0006391
1078	0.0005852
1090	0.0004697
1102	0.0003773
1114	0.0003542
1126	0.0002695
1138	0.0001694
1150	0.0002387
1162	0.0002156
1174	0.0002541
1186	0.000308
1198	0.0003696
1210	0.000308
1222	0.000308
1234	0.0004081
1246	0.0004389
1258	0.0004774
1270	0.0006006
1282	0.0007546
1294	0.0010318
1306	0.001232
1318	0.001155
1330	0.0012782
1342	0.0018403
1354	0.0022638
1366	0.0018095
1378	0.0013244
1390	0.0008932
1402	0.0006776
1414	0.0007469
1426	0.0011011
1438	0.00231
1450	0.0049434
1462	0.0058212
1474	0.0033803
1486	0.0022715
1498	0.0030723
1510	0.00077
1522	0.000385
1534	0.0003465
1546	0.000231
1558	0.0001617
1570	0.0003696
1582	0.0006853
1594	0.0011858
1606	0.0014553
1618	0.0004466
1630	0.0002233
1642	0.0001694
1654	5.39e-05
1666	8.47e-05
1678	6.93e-05
1690	7.7e-05
1702	1.54e-05
1714	3.85e-05
1726	0.0001386
1738	9.24e-05
1750	4.62e-05
1762	6.93e-05
1774	0.0001155
1786	0.0002772
1798	0.0003157
1810	0.0001617
1822	0.0001001
1834	7.7e-05
1846	0.0001001
1858	0.0002156
1870	0.0002233
1882	0.0001925
1894	0.0001078
1906	9.24e-05
1918	0.0001386
1930	0.0002772
1942	0.0003157
1954	0.0002618
1966	6.16e-05
1978	5.39e-05
1990	3.85e-05
2002	3.08e-05
2014	6.93e-05
2026	9.24e-05
2038	6.16e-05
2050	6.16e-05
2062	2.31e-05
2074	2.31e-05
2086	7.7e-06
2098	7.7e-06
2110	1.54e-05
2122	1.54e-05
2134	2.31e-05
2146	1.54e-05
2158	2.31e-05
2170	7.7e-06
2182	2.31e-05
2194	3.08e-05
2206	3.08e-05
2218	1.54e-05
2230	1.54e-05
2242	3.85e-05
2254	3.85e-05
2266	2.31e-05
2278	3.85e-05
2290	3.08e-05
2302	3.08e-05
2314	5.39e-05
2326	3.85e-05
2338	5.39e-05
2350	3.85e-05
2362	0
2374	2.31e-05
2386	6.16e-05
2398	6.93e-05
2410	6.16e-05
2422	7.7e-05
2434	6.93e-05
2446	8.47e-05
2458	7.7e-05
2470	6.93e-05
2482	8.47e-05
2494	0.0001001
2506	0.0001309
2518	0.0001771
2530	0.0001848
2542	0.0001848
2554	0.0001848
2566	0.000231
2578	0.0002926
2590	0.0003388
2602	0.0003619
2614	0.0004004
2626	0.0004774
2638	0.0005236
2650	0.0005698
2662	0.0006391
2674	0.0007392
2686	0.0007469
2698	0.0006853
2710	0.0006545
2722	0.0006699
2734	0.0007392
2746	0.0008239
2758	0.0008932
2770	0.0010395
2782	0.0012859
2794	0.0016709
2806	0.0021329
2818	0.0028798
2830	0.0040964
2842	0.0072611
2854	0.0190883
2866	0.0278817
2878	0.0170863
2890	0.0142219
2902	0.0189959
2914	0.0325556
2926	0.0643797
2938	0.0696927
2950	0.0330407
2962	0.0188881
2974	0.0127127
2986	0.0062216
2998	0.0041349
3010	0.0037345
3022	0.0048125
3034	0.0061754
3046	0.0036652
3058	0.0035728
3070	0.005313
3082	0.0034727
3094	0.0024101
3106	0.0016247
3118	0.0009702
3130	0.0005852
3142	0.0004697
3154	0.0004312
3166	0.0003619
3178	0.0003311
3190	0.0002926
3202	0.0002541
3214	0.0002156
3226	0.0001771
3238	0.0001386
3250	0.0001463
3262	0.000154
3274	0.0001309
3286	0.0001386
3298	0.0001078
3310	0.0001078
3322	0.0001155
3334	0.0001463
3346	0.000154
3358	0.0001155
3370	0.0001078
3382	0.0001232
3394	0.0001155
3406	0.0001155
3418	0.0001309
3430	0.0001155
3442	7.7e-05
3454	0.0001078
3466	0.0001001
3478	0.0001001
3490	8.47e-05
3502	5.39e-05
3514	6.93e-05
3526	5.39e-05
3538	3.85e-05
3550	6.16e-05
3562	5.39e-05
3574	6.93e-05
3586	6.93e-05
3598	0.0001232
3610	5.39e-05
3622	0.0001463
3634	0.0001386
3646	0.000154
3658	0.0002002
3670	0.0001309
3682	0.0002002
3694	0.0001694
3706	0.0001925
3718	0.000154
3730	0.0001617
3742	9.24e-05
3754	0.0001463
3766	0.0001694
3778	0.0002079
3790	0.0002387
3802	0.0002002
3814	0.0001925
3826	0.0002541
3838	0.0001771
