Infrared Spectrum: 4-Hydroxy-1-phenylpyrazolo-[3,4d]pyrimidine
Formula: C 11 H 8 N 4 O
CAS: 21314-17-0
State: gas
Origin: EPA-IR VAPOR PHASE LIBRARY
1/CM	ABSORBANCE
549.8	0.001838
559.445	0.000807306
569.09	0.0011289
578.734	0.0017091
588.379	0.0017803
598.024	0.002438
607.669	0.002608
617.313	0.004278
626.958	0.008758
636.603	0.005098
646.248	0.002928
655.893	0.002248
665.537	0.002638
675.182	0.003998
684.827	0.007088
694.472	0.008718
704.116	0.007288
713.761	0.008948
723.406	0.004778
733.051	0.002598
742.695	0.003638
752.34	0.006668
761.985	0.005758
771.63	0.007218
781.275	0.007678
790.919	0.002978
800.564	0.002158
810.209	0.00085956
819.854	0.0010999
829.498	0.00071
839.143	0.0010241
848.788	0.0012485
858.433	0.0016035
868.078	0.003388
877.722	0.002308
887.367	0.0014982
897.012	0.0013242
906.657	0.002238
916.301	0.002118
925.946	0.001928
935.591	0.001808
945.236	0.0017382
954.88	0.002978
964.525	0.010008
974.17	0.011518
983.815	0.003218
993.46	0.002248
1003.1	0.001858
1012.75	0.001998
1022.39	0.003378
1032.04	0.005148
1041.68	0.006838
1051.33	0.007588
1060.97	0.006198
1070.62	0.003288
1080.26	0.005238
1089.91	0.003488
1099.55	0.005088
1109.2	0.003748
1118.84	0.00017
1128.49	0.0009181
1138.13	0.000571
1147.78	0.000467
1157.42	0.0013768
1167.07	0.002728
1176.71	0.003418
1186.36	0.003308
1196	0.002488
1205.64	0.0014866
1215.29	0.001998
1224.93	0.0009153
1234.58	0.0015972
1244.22	0.002228
1253.87	0.001888
1263.51	0.0014746
1273.16	0.002628
1282.8	0.004048
1292.45	0.003308
1302.09	0.002018
1311.74	0.002538
1321.38	0.002408
1331.03	0.002698
1340.67	0.004468
1350.32	0.004138
1359.96	0.005078
1369.61	0.003958
1379.25	0.004808
1388.9	0.007678
1398.54	0.006098
1408.18	0.006188
1417.83	0.013188
1427.47	0.012068
1437.12	0.005928
1446.76	0.004068
1456.41	0.005898
1466.05	0.006238
1475.7	0.005708
1485.34	0.007218
1494.99	0.016568
1504.63	0.034568
1514.28	0.018078
1523.92	0.009958
1533.57	0.011998
1543.21	0.005728
1552.86	0.005158
1562.5	0.005488
1572.15	0.007328
1581.79	0.015468
1591.44	0.035928
1601.08	0.036818
1610.73	0.012848
1620.37	0.004998
1630.01	0.003638
1639.66	0.003588
1649.3	0.003278
1658.95	0.002858
1668.59	0.003018
1678.24	0.003228
1687.88	0.004088
1697.53	0.005578
1707.17	0.006848
1716.82	0.008218
1726.46	0.014448
1736.11	0.043678
1745.75	0.130848
1755.4	0.092568
1765.04	0.023288
1774.69	0.008678
1784.33	0.006218
1793.98	0.005578
1803.62	0.005048
1813.27	0.005038
1822.91	0.003658
1832.55	0.002118
1842.2	0.002148
1851.84	0.002558
1861.49	0.002248
1871.13	0.0016529
1880.78	0.0016534
1890.42	0.0013661
1900.07	0.0012645
1909.71	0.0011122
1919.36	0.0013657
1929	0.0013846
1938.65	0.0014488
1948.29	0.0014001
1957.94	0.0012464
1967.58	0.001013
1977.23	0.0009938
1986.87	0.0010994
1996.52	0.0010568
2006.16	0.0012219
2015.81	0.001277
2025.45	0.0010583
2035.1	0.0010079
2044.74	0.0010517
2054.38	0.0009169
2064.03	0.0009525
2073.67	0.0011615
2083.32	0.0011861
2092.96	0.0012258
2102.61	0.0010042
2112.25	0.0010831
2121.9	0.0009962
2131.54	0.0010754
2141.19	0.00088445
2150.83	0.0010277
2160.48	0.00081261
2170.12	0.00086974
2179.77	0.0009193
2189.41	0.000797897
2199.06	0.00080599
2208.7	0.0009316
2218.35	0.0009072
2227.99	0.0010842
2237.64	0.00084761
2247.28	0.0009754
2256.92	0.001117
2266.57	0.0009184
2276.21	0.0009635
2285.86	0.0009573
2295.5	0.00079171
2305.15	0.0010444
2314.79	0.0009953
2324.44	0.0009953
2334.08	0.0011273
2343.73	0.0011487
2353.37	0.0009347
2363.02	0.0007924
2372.66	0.0009117
2382.31	0.00089477
2391.95	0.00087077
2401.6	0.000945
2411.24	0.00087742
2420.89	0.0009659
2430.53	0.0010315
2440.18	0.0011116
2449.82	0.0010203
2459.47	0.001107
2469.11	0.0009979
2478.75	0.0010493
2488.4	0.0010801
2498.04	0.0011663
2507.69	0.0010311
2517.33	0.0010275
2526.98	0.0010216
2536.62	0.0009407
2546.27	0.0010277
2555.91	0.0011566
2565.56	0.0012583
2575.2	0.0012381
2584.85	0.0010297
2594.49	0.0013253
2604.14	0.0013066
2613.78	0.0011002
2623.43	0.0011053
2633.07	0.0009611
2642.72	0.0010871
2652.36	0.0011124
2662.01	0.00079482
2671.65	0.0009152
2681.29	0.0010424
2690.94	0.0010244
2700.58	0.0010618
2710.23	0.0010062
2719.87	0.0006981
2729.52	0.0009443
2739.16	0.0009478
2748.81	0.001027
2758.45	0.00084739
2768.1	0.0010656
2777.74	0.0011401
2787.39	0.0011505
2797.03	0.0010135
2806.68	0.0009644
2816.32	0.0009477
2825.97	0.0010521
2835.61	0.0009191
2845.26	0.0010958
2854.9	0.00086123
2864.55	0.000806945
2874.19	0.0012266
2883.84	0.0012427
2893.48	0.0011497
2903.12	0.001384
2912.77	0.0013157
2922.41	0.0011468
2932.06	0.0007019
2941.7	0.0011282
2951.35	0.0011435
2960.99	0.00084358
2970.64	0.00089613
2980.28	0.001134
2989.93	0.0009657
2999.57	0.0012332
3009.22	0.0010776
3018.86	0.0012438
3028.51	0.0016292
3038.15	0.001898
3047.8	0.002748
3057.44	0.004078
3067.09	0.004218
3076.73	0.004198
3086.38	0.003368
3096.02	0.002268
3105.67	0.0014743
3115.31	0.0015757
3124.95	0.0010912
3134.6	0.00086017
3144.24	0.0011026
3153.89	0.0014178
3163.53	0.0009566
3173.18	0.00089412
3182.82	0.00089304
3192.47	0.0014778
3202.11	0.0011465
3211.76	0.000436
3221.4	0.000484
3231.05	0.0009915
3240.69	0.0010913
3250.34	0.0011006
3259.98	0.0011583
3269.63	0.000648
3279.27	0.0011847
3288.92	0.00089324
3298.56	0.0007771
3308.21	0.001111
3317.85	0.0007612
3327.49	0.000672
3337.14	0.00086351
3346.78	0.0010097
3356.43	0.0007075
3366.07	0.000461
3375.72	0.000506
3385.36	0.0010557
3395.01	0.000691
3404.65	0.0010113
3414.3	0.0017955
3423.94	0.005018
3433.59	0.015938
3443.23	0.010268
3452.88	0.001848
3462.52	0.001312
3472.17	0.0014859
3481.81	0.001888
3491.46	0.0015502
3501.1	0.0012266
3510.75	0.001431
3520.39	0.0010108
3530.04	0.0007733
3539.68	0.0007356
3549.32	0.000693
3558.97	0.000618
3568.61	0.00086367
3578.26	0.0011418
3587.9	0.0007349
3597.55	0.0009562
3607.19	0.0013028
3616.84	0.0007911
3626.48	0.00086447
3636.13	0.000314
3645.77	0.000514
3655.42	0.000454
3665.06	0.0007337
3674.71	0.0012789
3684.35	0.0007526
3694	0.0009905
3703.64	0.000417
3713.29	0.0009771
3722.93	0.00086276
3732.58	0.0012845
3742.22	0.0010631
3751.86	0.0007625
3761.51	0.0007738
3771.15	0.000545
3780.8	0.000162
3790.44	0.000642
3800.09	0.0007718
3809.73	0.0009305
3819.38	0.0013211
3829.02	0.0010334
3838.67	0.0007506
3848.31	0.000549
3857.96	0.000573
3867.6	0.0010175
3877.25	0.0007526
3886.89	0.0007062
3896.54	0.000603
3906.18	0.0010503
3915.83	0.000538
3925.47	0.0008706
3935.12	0.000691
3944.76	0.000562
3954.41	0.000615
3964.05	0.00059
3973.69	0.000182
3983.34	0.00083378
3992.98	0.0010947
