Infrared Spectrum: 2-HEXADECYLOXYETHANOL
Formula: C18 H38 O2
CAS: 2136-71-2
State: SOLUTION (10% CCl4 FOR 2.5-7.5, 10% CS2 FOR 7.5-15 MICRON)
Class: COBLENTZ
Instrument: Not specified, most likely a prism, grating, or hybrid spectrometer.
Sampling: TRANSMISSION
Path length: 0.01 CM, 0.01 CM
Resolution: 4
Origin: DOW CHEMICAL COMPANY
MICROMETERS	TRANSMITTANCE
2.046	0.9
2.08615	0.905
2.1263	0.905
2.16644	0.901
2.20659	0.893
2.24674	0.872
2.28689	0.863
2.32703	0.865
2.36718	0.87
2.40733	0.87
2.44748	0.875
2.48763	0.88
2.52777	0.887
2.56792	0.89
2.60807	0.903
2.64822	0.89
2.68837	0.883
2.72851	0.815
2.76866	0.735
2.80881	0.745
2.84896	0.681
2.8891	0.684
2.92925	0.762
2.9694	0.799
3.00955	0.828
3.0497	0.848
3.08984	0.858
3.12999	0.863
3.17014	0.872
3.21029	0.868
3.25043	0.847
3.29058	0.803
3.33073	0.626
3.37088	0.106
3.41103	0.043
3.45117	0.104
3.49132	0.102
3.53147	0.619
3.57162	0.71
3.61177	0.787
3.65191	0.8
3.69206	0.813
3.73221	0.828
3.77236	0.858
3.8125	0.868
3.85265	0.877
3.8928	0.888
3.93295	0.89
3.9731	0.903
4.01324	0.905
4.05339	0.888
4.09354	0.91
4.13369	0.913
4.17383	0.895
4.21398	0.89
4.25413	0.895
4.29428	0.906
4.33443	0.897
4.37457	0.901
4.41472	0.911
4.45487	0.911
4.49502	0.918
4.53517	0.92
4.57531	0.92
4.61546	0.916
4.65561	0.916
4.69576	0.92
4.7359	0.918
4.77605	0.918
4.8162	0.921
4.85635	0.921
4.8965	0.921
4.93664	0.916
4.97679	0.916
5.01694	0.918
5.05709	0.916
5.09723	0.916
5.13738	0.92
5.17753	0.923
5.21768	0.926
5.25783	0.931
5.29797	0.931
5.33812	0.928
5.37827	0.931
5.41842	0.931
5.45857	0.933
5.49871	0.93
5.53886	0.931
5.57901	0.933
5.61916	0.921
5.6593	0.916
5.69945	0.888
5.7396	0.848
5.77975	0.822
5.8199	0.867
5.86004	0.906
5.90019	0.901
5.94034	0.913
5.98049	0.918
6.02063	0.906
6.06078	0.901
6.10093	0.903
6.14108	0.882
6.18123	0.852
6.22137	0.775
6.26152	0.705
6.30167	0.662
6.34182	0.637
6.38197	0.591
6.42211	0.516
6.46226	0.514
6.50241	0.596
6.54256	0.641
6.5827	0.677
6.62285	0.72
6.663	0.77
6.70315	0.759
6.7433	0.677
6.78344	0.445
6.82359	0.327
6.86374	0.48
6.90389	0.602
6.94403	0.661
6.98418	0.73
7.02433	0.75
7.06448	0.729
7.10463	0.717
7.14477	0.679
7.18492	0.661
7.22507	0.661
7.26522	0.651
7.30537	0.624
7.34551	0.586
7.38566	0.619
7.42581	0.71
7.46596	0.794
7.5061	0.795
7.54625	0.799
7.5864	0.782
7.62655	0.769
7.6667	0.749
7.70684	0.755
7.74699	0.764
7.78714	0.769
7.82729	0.769
7.86743	0.765
7.90758	0.76
7.94773	0.752
7.98788	0.737
8.02803	0.73
8.06817	0.742
8.10832	0.772
8.14847	0.774
8.18862	0.759
8.22877	0.739
8.26891	0.739
8.30906	0.76
8.34921	0.774
8.38936	0.78
8.4295	0.777
8.46965	0.772
8.5098	0.769
8.54995	0.764
8.5901	0.75
8.63024	0.74
8.67039	0.712
8.71054	0.676
8.75069	0.591
8.79083	0.503
8.83098	0.37
8.87113	0.245
8.91128	0.149
8.95143	0.146
8.99157	0.214
9.03172	0.343
9.07187	0.426
9.11202	0.488
9.15217	0.518
9.19231	0.519
9.23246	0.5
9.27261	0.465
9.31276	0.406
9.3529	0.362
9.39305	0.312
9.4332	0.275
9.47335	0.26
9.5135	0.285
9.55364	0.358
9.59379	0.426
9.63394	0.498
9.67409	0.558
9.71423	0.601
9.75438	0.636
9.79453	0.667
9.83468	0.691
9.87483	0.715
9.91497	0.739
9.95512	0.759
9.99527	0.772
10.0354	0.782
10.0756	0.79
10.1157	0.8
10.1559	0.817
10.196	0.827
10.2362	0.837
10.2763	0.847
10.3165	0.852
10.3566	0.853
10.3967	0.858
10.4369	0.865
10.477	0.873
10.5172	0.877
10.5573	0.882
10.5975	0.885
10.6376	0.888
10.6778	0.888
10.7179	0.888
10.7581	0.888
10.7982	0.888
10.8384	0.888
10.8785	0.888
10.9187	0.877
10.9588	0.872
10.999	0.865
11.0391	0.852
11.0793	0.832
11.1194	0.795
11.1596	0.752
11.1997	0.704
11.2399	0.669
11.28	0.669
11.3201	0.704
11.3603	0.729
11.4004	0.737
11.4406	0.739
11.4807	0.737
11.5209	0.729
11.561	0.717
11.6012	0.704
11.6413	0.686
11.6815	0.681
11.7216	0.687
11.7618	0.714
11.8019	0.747
11.8421	0.785
11.8822	0.81
11.9224	0.823
11.9625	0.832
12.0027	0.845
12.0428	0.848
12.083	0.855
12.1231	0.865
12.1633	0.873
12.2034	0.873
12.2435	0.882
12.2837	0.883
12.3238	0.885
12.364	0.885
12.4041	0.885
12.4443	0.885
12.4844	0.885
12.5246	0.885
12.5647	0.885
12.6049	0.885
12.645	0.885
12.6852	0.885
12.7253	0.885
12.7655	0.885
12.8056	0.882
12.8458	0.882
12.8859	0.882
12.9261	0.882
12.9662	0.882
13.0064	0.88
13.0465	0.873
13.0867	0.872
13.1268	0.868
13.1669	0.862
13.2071	0.858
13.2472	0.85
13.2874	0.845
13.3275	0.84
13.3677	0.833
13.4078	0.827
13.448	0.813
13.4881	0.802
13.5283	0.794
13.5684	0.777
13.6086	0.76
13.6487	0.747
13.6889	0.724
13.729	0.699
13.7692	0.667
13.8093	0.631
13.8495	0.604
13.8896	0.601
13.9298	0.617
13.9699	0.642
14.0101	0.671
14.0502	0.686
14.0903	0.7
14.1305	0.71
14.1706	0.715
14.2108	0.717
14.2509	0.719
14.2911	0.715
14.3312	0.715
14.3714	0.712
14.4115	0.709
14.4517	0.702
14.4918	0.694
14.532	0.687
14.5721	0.681
14.6123	0.672
14.6524	0.664
14.6926	0.654
14.7327	0.644
14.7729	0.637
14.813	0.632
14.8532	0.622
14.8933	0.614
14.9335	0.612
14.9736	0.606
15.0137	0.598
15.0539	0.579
15.094	0.573
15.1342	0.561
15.1743	0.553
15.2145	0.543
15.2546	0.533
15.2948	0.523
15.3349	0.519
15.3751	0.513
15.4152	0.508
15.4554	0.501
15.4955	0.496
15.5357	0.49
15.5758	0.488
15.616	0.483
15.6561	0.48
15.6963	0.48
15.7364	0.476
15.7766	0.473
15.8167	0.47
15.8569	0.47
15.897	0.47
