Infrared Spectrum: Isoquinoline hydrochloride
Formula: C9 H8 Cl N
CAS: 21364-46-5
State: SOLID (KBr DISC, 0.9% WT.)
Class: COBLENTZ III
Instrument: PERKIN-ELMER 157
Sampling: TRANSMISSION
Resolution: 2
Origin: BRITISH PETROLEUM CO. LTD., ENGLAND
1/CM	TRANSMITTANCE
668	0.8767
677	0.8547
686	0.8138
695	0.772
704	0.7147
713	0.7376
722	0.6831
731	0.6088
740	0.4325
749	0.066
758	0.4582
767	0.3037
776	0.4975
785	0.592
794	0.6975
803	0.6496
812	0.5933
821	0.513
830	0.4834
839	0.3416
848	0.0716
857	0.5005
866	0.596
875	0.5618
884	0.3316
893	0.4817
902	0.6092
911	0.5974
920	0.5796
929	0.5417
938	0.5167
947	0.4728
956	0.3406
965	0.1762
974	0.4726
983	0.5337
992	0.414
1001	0.3712
1010	0.3507
1019	0.421
1028	0.4567
1037	0.4181
1046	0.3196
1055	0.2643
1064	0.386
1073	0.4738
1082	0.5179
1091	0.5198
1100	0.518
1109	0.502
1118	0.4792
1127	0.4348
1136	0.3407
1145	0.3392
1154	0.2354
1163	0.4538
1172	0.4911
1181	0.5356
1190	0.5124
1199	0.4703
1208	0.4091
1217	0.2863
1226	0.282
1235	0.2266
1244	0.5581
1253	0.5452
1262	0.4935
1271	0.4735
1280	0.4437
1289	0.4281
1298	0.3883
1307	0.2131
1316	0.4273
1325	0.4379
1334	0.402
1343	0.3642
1352	0.3295
1361	0.327
1370	0.2599
1379	0.0998
1388	0.2039
1397	0.3217
1406	0.2477
1415	0.0622
1424	0.3948
1433	0.3988
1442	0.4169
1451	0.4132
1460	0.3925
1469	0.3705
1478	0.3459
1487	0.3104
1496	0.1866
1505	0.3672
1514	0.3468
1523	0.3263
1532	0.2721
1541	0.2257
1550	0.2921
1559	0.3576
1568	0.368
1577	0.3463
1586	0.312
1595	0.2939
1604	0.184
1613	0.1017
1622	0.3045
1631	0.22
1640	0.1298
1649	0.0699
1658	0.3248
1667	0.3959
1676	0.4274
1685	0.4305
1694	0.4203
1703	0.4105
1712	0.3971
1721	0.387
1730	0.3826
1739	0.3813
1748	0.3812
1757	0.3777
1766	0.3705
1775	0.3673
1784	0.3647
1793	0.3492
1802	0.3288
1811	0.3169
1820	0.3145
1829	0.2999
1838	0.279
1847	0.2704
1856	0.2744
1865	0.2709
1874	0.2564
1883	0.2257
1892	0.1941
1901	0.1563
1910	0.1333
1919	0.1584
1928	0.1712
1937	0.1716
1946	0.1596
1955	0.1317
1964	0.1158
1973	0.1084
1982	0.1108
1991	0.1401
2000	0.1755
2009	0.2105
2018	0.2337
2027	0.2323
2036	0.2264
2045	0.2184
2054	0.2121
2063	0.2324
2072	0.2559
2081	0.2594
2090	0.2576
2099	0.2473
2108	0.237
2117	0.2278
2126	0.2227
2135	0.2186
2144	0.2148
2153	0.211
2162	0.2066
2171	0.2021
2180	0.1945
2189	0.1857
2198	0.1748
2207	0.1647
2216	0.1577
2225	0.1506
2234	0.1429
2243	0.1343
2252	0.1241
2261	0.114
2270	0.1047
2279	0.0973
2288	0.0914
2297	0.0851
2306	0.0783
2315	0.0739
2324	0.0699
2333	0.0677
2342	0.0655
2351	0.0637
2360	0.062
2369	0.0607
2378	0.0596
2387	0.0588
2396	0.0579
2405	0.0579
2414	0.0583
2423	0.0592
2432	0.0599
2441	0.0605
2450	0.0611
2459	0.0611
2468	0.0603
2477	0.0589
2486	0.0565
2495	0.0536
2504	0.0501
2513	0.046
2522	0.0422
2531	0.0393
2540	0.0377
2549	0.0364
2558	0.0353
2567	0.0342
2576	0.033
2585	0.0322
2594	0.0325
2603	0.0353
2612	0.0422
2621	0.0499
2630	0.0574
2639	0.0706
2648	0.0853
2657	0.0862
2666	0.1043
2675	0.1194
2684	0.1261
2693	0.128
2702	0.129
2711	0.1291
2720	0.1297
2729	0.1446
2738	0.1531
2747	0.1615
2756	0.1708
2765	0.181
2774	0.1892
2783	0.2084
2792	0.2189
2801	0.2241
2810	0.2247
2819	0.2245
2828	0.2243
2837	0.2232
2846	0.2211
2855	0.2179
2864	0.2154
2873	0.2153
2882	0.2162
2891	0.2191
2900	0.2235
2909	0.2289
2918	0.2326
2927	0.234
2936	0.233
2945	0.2308
2954	0.2258
2963	0.22
2972	0.2128
2981	0.2054
2990	0.1971
2999	0.19
3008	0.1836
3017	0.1771
3026	0.1737
3035	0.1733
3044	0.175
3053	0.1916
3062	0.2223
3071	0.2529
3080	0.2771
3089	0.2815
3098	0.2846
3107	0.2874
3116	0.2897
3125	0.291
3134	0.2915
3143	0.291
3152	0.2905
3161	0.2894
3170	0.2877
3179	0.2851
3188	0.2822
3197	0.2792
3206	0.2761
3215	0.273
3224	0.2703
3233	0.2676
3242	0.2656
3251	0.2636
3260	0.2617
3269	0.2597
3278	0.2576
3287	0.255
3296	0.252
3305	0.2488
3314	0.2447
3323	0.24
3332	0.2347
3341	0.2295
3350	0.2264
3359	0.2233
3368	0.2202
3377	0.2171
3386	0.214
3395	0.2114
3404	0.2095
3413	0.2086
3422	0.2083
3431	0.208
3440	0.2083
3449	0.2065
3458	0.2095
3467	0.2105
3476	0.2117
3485	0.213
3494	0.215
3503	0.2177
3512	0.2207
3521	0.2249
3530	0.2272
3539	0.2293
3548	0.2313
3557	0.2329
3566	0.2339
3575	0.2344
3584	0.2349
3593	0.2354
3602	0.2363
3611	0.2377
3620	0.2388
3629	0.239
3638	0.239
3647	0.239
3656	0.2387
3665	0.2385
3674	0.2382
3683	0.2377
3692	0.237
3701	0.2363
3710	0.2355
3719	0.2347
3728	0.2342
3737	0.2338
3746	0.2335
3755	0.2333
3764	0.2331
3773	0.2328
3782	0.2325
3791	0.2321
3800	0.2318
3809	0.2314
3818	0.23
3827	0.2276
3836	0.2247
3845	0.2216
3854	0.2182
3863	0.2161
3872	0.2152
3881	0.2147
3890	0.2143
3899	0.2139
3908	0.2136
3917	0.2133
3926	0.213
3935	0.2127
3944	0.2125
3953	0.2122
3962	0.2119
3971	0.2117
3980	0.2114
3989	0.2111
3998	0.2108
