Infrared Spectrum: 2-TETRADECYLOXYETHANOL
Formula: C16 H34 O2
CAS: 2136-70-1
State: SOLUTION (10% CCl4 FOR 2.5-7.5, 10% CS2 FOR 7.5-15 MICRON)
Class: COBLENTZ
Instrument: Not specified, most likely a prism, grating, or hybrid spectrometer.
Sampling: TRANSMISSION
Path length: 0.01 CM, 0.01 CM
Resolution: 4
Origin: DOW CHEMICAL COMPANY
MICROMETERS	TRANSMITTANCE
2.041	0.893
2.08112	0.893
2.12124	0.893
2.16136	0.89
2.20148	0.878
2.24159	0.855
2.28171	0.855
2.32183	0.855
2.36195	0.863
2.40207	0.865
2.44219	0.87
2.48231	0.878
2.52243	0.882
2.56255	0.882
2.60266	0.882
2.64278	0.873
2.6829	0.835
2.72302	0.742
2.76314	0.712
2.80326	0.681
2.84338	0.602
2.8835	0.626
2.92362	0.674
2.96374	0.712
3.00385	0.745
3.04397	0.77
3.08409	0.794
3.12421	0.802
3.16433	0.808
3.20445	0.805
3.24457	0.782
3.28469	0.71
3.32481	0.441
3.36492	0.031
3.40504	0.061
3.44516	0.106
3.48528	0.47
3.5254	0.644
3.56552	0.715
3.60564	0.75
3.64576	0.764
3.68588	0.775
3.72599	0.799
3.76611	0.82
3.80623	0.83
3.84635	0.843
3.88647	0.853
3.92659	0.855
3.96671	0.865
4.00683	0.867
4.04695	0.862
4.08706	0.86
4.12718	0.86
4.1673	0.86
4.20742	0.86
4.24754	0.858
4.28766	0.858
4.32778	0.858
4.3679	0.867
4.40802	0.875
4.44814	0.877
4.48825	0.878
4.52837	0.882
4.56849	0.882
4.60861	0.882
4.64873	0.882
4.68885	0.882
4.72897	0.88
4.76909	0.883
4.80921	0.885
4.84932	0.883
4.88944	0.882
4.92956	0.88
4.96968	0.882
5.0098	0.885
5.04992	0.885
5.09004	0.885
5.13016	0.89
5.17028	0.892
5.21039	0.895
5.25051	0.893
5.29063	0.893
5.33075	0.895
5.37087	0.895
5.41099	0.895
5.45111	0.895
5.49123	0.895
5.53135	0.893
5.57146	0.893
5.61158	0.893
5.6517	0.892
5.69182	0.88
5.73194	0.855
5.77206	0.855
5.81218	0.878
5.8523	0.882
5.89242	0.88
5.93254	0.877
5.97265	0.867
6.01277	0.855
6.05289	0.853
6.09301	0.842
6.13313	0.828
6.17325	0.805
6.21337	0.729
6.25349	0.667
6.29361	0.637
6.33372	0.606
6.37384	0.539
6.41396	0.488
6.45408	0.526
6.4942	0.617
6.53432	0.649
6.57444	0.696
6.61456	0.737
6.65468	0.757
6.69479	0.7
6.73491	0.601
6.77503	0.332
6.81515	0.38
6.85527	0.544
6.89539	0.616
6.93551	0.697
6.97563	0.732
7.01575	0.734
7.05586	0.719
7.09598	0.696
7.1361	0.652
7.17622	0.644
7.21634	0.616
7.25646	0.632
7.29658	0.624
7.3367	0.601
7.37682	0.634
7.41694	0.709
7.45705	0.755
7.49717	0.765
7.53729	0.747
7.57741	0.759
7.61753	0.737
7.65765	0.734
7.69777	0.74
7.73789	0.754
7.77801	0.76
7.81812	0.764
7.85824	0.764
7.89836	0.762
7.93848	0.757
7.9786	0.744
8.01872	0.742
8.05884	0.767
8.09896	0.78
8.13908	0.782
8.17919	0.77
8.21931	0.759
8.25943	0.77
8.29955	0.785
8.33967	0.797
8.37979	0.799
8.41991	0.794
8.46003	0.787
8.50015	0.78
8.54026	0.765
8.58038	0.749
8.6205	0.72
8.66062	0.681
8.70074	0.627
8.74086	0.548
8.78098	0.448
8.8211	0.353
8.86122	0.254
8.90134	0.209
8.94145	0.235
8.98157	0.318
9.02169	0.413
9.06181	0.455
9.10193	0.485
9.14205	0.508
9.18217	0.508
9.22229	0.485
9.26241	0.445
9.30252	0.403
9.34264	0.367
9.38276	0.332
9.42288	0.308
9.463	0.303
9.50312	0.352
9.54324	0.406
9.58336	0.46
9.62348	0.513
9.66359	0.559
9.70371	0.591
9.74383	0.624
9.78395	0.659
9.82407	0.692
9.86419	0.707
9.90431	0.725
9.94443	0.742
9.98455	0.752
10.0247	0.764
10.0648	0.777
10.1049	0.789
10.145	0.797
10.1851	0.807
10.2253	0.818
10.2654	0.825
10.3055	0.83
10.3456	0.832
10.3857	0.833
10.4259	0.832
10.466	0.828
10.5061	0.827
10.5462	0.828
10.5863	0.833
10.6264	0.84
10.6666	0.843
10.7067	0.845
10.7468	0.847
10.7869	0.852
10.827	0.853
10.8672	0.85
10.9073	0.847
10.9474	0.842
10.9875	0.842
11.0276	0.835
11.0678	0.818
11.1079	0.8
11.148	0.76
11.1881	0.727
11.2282	0.702
11.2684	0.699
11.3085	0.719
11.3486	0.734
11.3887	0.734
11.4288	0.73
11.4689	0.725
11.5091	0.715
11.5492	0.705
11.5893	0.697
11.6294	0.691
11.6695	0.689
11.7097	0.694
11.7498	0.724
11.7899	0.75
11.83	0.785
11.8701	0.803
11.9103	0.82
11.9504	0.832
11.9905	0.842
12.0306	0.86
12.0707	0.865
12.1108	0.873
12.151	0.878
12.1911	0.88
12.2312	0.882
12.2713	0.882
12.3114	0.88
12.3516	0.88
12.3917	0.88
12.4318	0.887
12.4719	0.887
12.512	0.888
12.5522	0.888
12.5923	0.883
12.6324	0.878
12.6725	0.872
12.7126	0.87
12.7528	0.87
12.7929	0.87
12.833	0.873
12.8731	0.873
12.9132	0.873
12.9533	0.868
12.9935	0.865
13.0336	0.862
13.0737	0.857
13.1138	0.85
13.1539	0.843
13.1941	0.842
13.2342	0.837
13.2743	0.83
13.3144	0.823
13.3545	0.818
13.3947	0.807
13.4348	0.799
13.4749	0.79
13.515	0.779
13.5551	0.765
13.5952	0.75
13.6354	0.732
13.6755	0.717
13.7156	0.687
13.7557	0.662
13.7958	0.629
13.836	0.599
13.8761	0.588
13.9162	0.591
13.9563	0.622
13.9964	0.649
14.0366	0.671
14.0767	0.684
14.1168	0.694
14.1569	0.7
14.197	0.702
14.2372	0.702
14.2773	0.702
14.3174	0.7
14.3575	0.696
14.3976	0.689
14.4377	0.689
14.4779	0.681
14.518	0.676
14.5581	0.669
14.5982	0.661
14.6383	0.649
14.6785	0.644
14.7186	0.637
14.7587	0.631
14.7988	0.622
14.8389	0.616
14.8791	0.607
14.9192	0.604
14.9593	0.599
14.9994	0.596
15.0395	0.583
15.0796	0.568
15.1198	0.558
15.1599	0.548
15.2	0.539
15.2401	0.533
15.2802	0.526
15.3204	0.519
15.3605	0.516
15.4006	0.509
15.4407	0.503
15.4808	0.498
15.521	0.495
15.5611	0.49
15.6012	0.485
15.6413	0.48
15.6814	0.475
15.7216	0.473
15.7617	0.471
15.8018	0.471
15.8419	0.471
15.882	0.471
