Infrared Spectrum: 4-Cyclohexylresorcinol
Formula: C 12 H 16 O 2
CAS: 2138-20-7
State: gas
Origin: EPA-IR VAPOR PHASE LIBRARY
1/CM	ABSORBANCE
549.8	0.007696
559.445	0.010356
569.09	0.006276
578.734	0.007906
588.379	0.009736
598.024	0.006516
607.669	0.008156
617.313	0.009146
626.958	0.005216
636.603	0.002416
646.248	0.001726
655.893	0.002186
665.537	0.001926
675.182	0.002126
684.827	0.001706
694.472	0.001396
704.116	0.001756
713.761	0.002496
723.406	0.002606
733.051	0.004686
742.695	0.004256
752.34	0.002896
761.985	0.003276
771.63	0.005906
781.275	0.010716
790.919	0.013266
800.564	0.012176
810.209	0.013786
819.854	0.016296
829.498	0.019036
839.143	0.015816
848.788	0.011806
858.433	0.013876
868.078	0.007806
877.722	0.005346
887.367	0.006296
897.012	0.005536
906.657	0.003996
916.301	0.003936
925.946	0.003726
935.591	0.003566
945.236	0.004296
954.88	0.011266
964.525	0.045896
974.17	0.053796
983.815	0.014126
993.46	0.010216
1003.1	0.007966
1012.75	0.005106
1022.39	0.004246
1032.04	0.005596
1041.68	0.004516
1051.33	0.004646
1060.97	0.007476
1070.62	0.012896
1080.26	0.026826
1089.91	0.035536
1099.55	0.028236
1109.2	0.022186
1118.84	0.026846
1128.49	0.057326
1138.13	0.070106
1147.78	0.073576
1157.42	0.069646
1167.07	0.066006
1176.71	0.102506
1186.36	0.084116
1196	0.064006
1205.64	0.068586
1215.29	0.054756
1224.93	0.033646
1234.58	0.022966
1244.22	0.015706
1253.87	0.018026
1263.51	0.029246
1273.16	0.036066
1282.8	0.039296
1292.45	0.047836
1302.09	0.046366
1311.74	0.030486
1321.38	0.028306
1331.03	0.026806
1340.67	0.017496
1350.32	0.009746
1359.96	0.005566
1369.61	0.004536
1379.25	0.004066
1388.9	0.003836
1398.54	0.005006
1408.18	0.006836
1417.83	0.008786
1427.47	0.014336
1437.12	0.028846
1446.76	0.045376
1456.41	0.040336
1466.05	0.019756
1475.7	0.012026
1485.34	0.014226
1494.99	0.031436
1504.63	0.066646
1514.28	0.067356
1523.92	0.037416
1533.57	0.015346
1543.21	0.011976
1552.86	0.011846
1562.5	0.011156
1572.15	0.012196
1581.79	0.019196
1591.44	0.034366
1601.08	0.050466
1610.73	0.059206
1620.37	0.067976
1630.01	0.045766
1639.66	0.019806
1649.3	0.011506
1658.95	0.006886
1668.59	0.005606
1678.24	0.004836
1687.88	0.003746
1697.53	0.002906
1707.17	0.002556
1716.82	0.002496
1726.46	0.002036
1736.11	0.001486
1745.75	0.001326
1755.4	0.0010563
1765.04	0.0008328
1774.69	0.0009611
1784.33	0.0009883
1793.98	0.001296
1803.62	0.0009615
1813.27	0.0010205
1822.91	0.0011397
1832.55	0.001396
1842.2	0.001526
1851.84	0.001756
1861.49	0.001896
1871.13	0.001766
1880.78	0.001396
1890.42	0.001366
1900.07	0.0010218
1909.71	0.0009887
1919.36	0.0009391
1929	0.0007028
1938.65	0.0007185
1948.29	0.0006343
1957.94	0.0007772
1967.58	0.0006636
1977.23	0.0005011
1986.87	0.0005304
1996.52	0.0005548
2006.16	0.0007377
2015.81	0.0007434
2025.45	0.0007272
2035.1	0.0008234
2044.74	0.0008258
2054.38	0.0008126
2064.03	0.0007432
2073.67	0.0005708
2083.32	0.0005155
2092.96	0.0005153
2102.61	0.0006053
2112.25	0.0010083
2121.9	0.000941
2131.54	0.0009524
2141.19	0.0007714
2150.83	0.0008716
2160.48	0.0008933
2170.12	0.0008696
2179.77	0.0009774
2189.41	0.0008537
2199.06	0.001029
2208.7	0.0008311
2218.35	0.0009567
2227.99	0.0010213
2237.64	0.0012463
2247.28	0.0011907
2256.92	0.0012352
2266.57	0.001446
2276.21	0.001041
2285.86	0.0009557
2295.5	0.0010643
2305.15	0.0011004
2314.79	0.0010817
2324.44	0.001326
2334.08	0.001626
2343.73	0.001736
2353.37	0.001746
2363.02	0.001736
2372.66	0.001606
2382.31	0.001526
2391.95	0.001656
2401.6	0.001826
2411.24	0.001996
2420.89	0.001786
2430.53	0.001866
2440.18	0.001686
2449.82	0.001896
2459.47	0.001686
2469.11	0.002046
2478.75	0.002176
2488.4	0.001896
2498.04	0.001376
2507.69	0.001456
2517.33	0.0012324
2526.98	0.001406
2536.62	0.001386
2546.27	0.0009268
2555.91	0.0009391
2565.56	0.0011163
2575.2	0.001416
2584.85	0.001546
2594.49	0.001616
2604.14	0.001566
2613.78	0.001546
2623.43	0.001696
2633.07	0.001936
2642.72	0.001866
2652.36	0.002596
2662.01	0.003296
2671.65	0.002776
2681.29	0.002276
2690.94	0.002066
2700.58	0.001796
2710.23	0.001546
2719.87	0.001546
2729.52	0.001446
2739.16	0.0012176
2748.81	0.001736
2758.45	0.001846
2768.1	0.001936
2777.74	0.002516
2787.39	0.003266
2797.03	0.003836
2806.68	0.004156
2816.32	0.004256
2825.97	0.006366
2835.61	0.008746
2845.26	0.018126
2854.9	0.052936
2864.55	0.073336
2874.19	0.037506
2883.84	0.019316
2893.48	0.018956
2903.12	0.031906
2912.77	0.054786
2922.41	0.107486
2932.06	0.203806
2941.7	0.189096
2951.35	0.066466
2960.99	0.019816
2970.64	0.009266
2980.28	0.005566
2989.93	0.004216
2999.57	0.004426
3009.22	0.005896
3018.86	0.008146
3028.51	0.012616
3038.15	0.013146
3047.8	0.009786
3057.44	0.006576
3067.09	0.005546
3076.73	0.004516
3086.38	0.003326
3096.02	0.002396
3105.67	0.002196
3115.31	0.001426
3124.95	0.001676
3134.6	0.001189
3144.24	0.0011805
3153.89	0.0012516
3163.53	0.001406
3173.18	0.0008692
3182.82	0.0007833
3192.47	0.000285784
3202.11	0.0006357
3211.76	0.0007099
3221.4	0.0005784
3231.05	0.0004884
3240.69	0.0004589
3250.34	0.00031344
3259.98	0.0005044
3269.63	0.00034399
3279.27	0.0005849
3288.92	0.0004558
3298.56	0.0002069
3308.21	0.00030348
3317.85	0.00029893
3327.49	0.0005265
3337.14	0.0012413
3346.78	0.001326
3356.43	0.001396
3366.07	0.001506
3375.72	0.001326
3385.36	0.0011408
3395.01	0.0009002
3404.65	0.001207
3414.3	0.0012703
3423.94	0.0011312
3433.59	0.0010497
3443.23	0.0009574
3452.88	0.0009018
3462.52	0.0007394
3472.17	0.0009349
3481.81	0.0002128
3491.46	0.0006347
3501.1	0.0007284
3510.75	0.000145
3520.39	0.00033022
3530.04	0.0005302
3539.68	0.0006531
3549.32	0.000169
3558.97	0.0005483
3568.61	0.0005682
3578.26	0.0007721
3587.9	0.001086
3597.55	0.001476
3607.19	0.002216
3616.84	0.003786
3626.48	0.010596
3636.13	0.036856
3645.77	0.087596
3655.42	0.089346
3665.06	0.022576
3674.71	0.004876
3684.35	0.002086
3694	0.001516
3703.64	0.001316
3713.29	0.0007601
3722.93	0.0006564
3732.58	0.0008651
3742.22	0.0005078
3751.86	0.0010718
3761.51	0.0008434
3771.15	0.0008365
3780.8	0.0011715
3790.44	0.0008137
3800.09	0.0010283
3809.73	0.0011176
3819.38	0.00093
3829.02	0.0011263
3838.67	0.0010493
3848.31	0.001406
3857.96	0.0012084
3867.6	0.001386
3877.25	0.001366
3886.89	0.0010702
3896.54	0.0009299
3906.18	0.0006934
3915.83	0.0011939
3925.47	0.001526
3935.12	0.001366
3944.76	0.001138
3954.41	0.001346
3964.05	0.0011239
3973.69	0.0007032
3983.34	0.0010243
3992.98	0.0009999
