Infrared Spectrum: Octafluoro-4,4'-biphenyldithiol
Formula: C12 H2 F8 S2
CAS: 21386-21-0
State: SOLID (SPLIT MULL)
Class: COBLENTZ III
Instrument: DOW KBr FOREPRISM-GRATING
Instrument parameters: BLAZED AT 3.5, 12.0, 20.0 MICRON AND CHANGED AT 5.0, 7.5, 14.9 MICRON
Sampling: TRANSMISSION
Resolution: 2
Origin: DOW CHEMICAL COMPANY
1/CM	TRANSMITTANCE
3798	0.6486
3789	0.6488
3780	0.649
3771	0.6493
3762	0.65
3753	0.6507
3744	0.6515
3735	0.6528
3726	0.654
3717	0.6551
3708	0.6565
3699	0.6575
3690	0.6586
3681	0.6597
3672	0.6608
3663	0.6618
3654	0.6634
3645	0.6648
3636	0.6661
3627	0.6671
3618	0.6672
3609	0.6656
3600	0.6654
3591	0.6691
3582	0.6676
3573	0.6654
3564	0.6648
3555	0.6685
3546	0.6718
3537	0.6728
3528	0.674
3519	0.6748
3510	0.6754
3501	0.6758
3492	0.6764
3483	0.6771
3474	0.6776
3465	0.6784
3456	0.6795
3447	0.6806
3438	0.6818
3429	0.683
3420	0.6842
3411	0.6857
3402	0.6875
3393	0.6893
3384	0.6911
3375	0.693
3366	0.6948
3357	0.6961
3348	0.6971
3339	0.6981
3330	0.6991
3321	0.7
3312	0.7015
3303	0.7032
3294	0.7049
3285	0.7065
3276	0.7082
3267	0.7101
3258	0.7121
3249	0.7141
3240	0.7161
3231	0.7176
3222	0.7189
3213	0.72
3204	0.7211
3195	0.7221
3186	0.7234
3177	0.7245
3168	0.7257
3159	0.7272
3150	0.729
3141	0.7307
3132	0.7325
3123	0.7344
3114	0.736
3105	0.7371
3096	0.7382
3087	0.7383
3078	0.7384
3069	0.7385
3060	0.7388
3051	0.7391
3042	0.7395
3033	0.7399
3024	0.74
3015	0.7399
3006	0.7397
2997	0.7396
2988	0.7395
2979	0.7397
2970	0.7401
2961	0.7404
2952	0.7408
2943	0.7411
2934	0.7418
2925	0.7428
2916	0.7437
2907	0.7451
2898	0.7472
2889	0.7494
2880	0.7503
2871	0.751
2862	0.7518
2853	0.7525
2844	0.7535
2835	0.7544
2826	0.7558
2817	0.7572
2808	0.7588
2799	0.7601
2790	0.7611
2781	0.7622
2772	0.7635
2763	0.7645
2754	0.7655
2745	0.7667
2736	0.7691
2727	0.7715
2718	0.7728
2709	0.7731
2700	0.7734
2691	0.7754
2682	0.7775
2673	0.7782
2664	0.779
2655	0.7788
2646	0.7768
2637	0.7768
2628	0.7772
2619	0.78
2610	0.7415
2601	0.6755
2592	0.7593
2583	0.7515
2574	0.7367
2565	0.7558
2556	0.7671
2547	0.7731
2538	0.7768
2529	0.7794
2520	0.7815
2511	0.7832
2502	0.7847
2493	0.7861
2484	0.7875
2475	0.7882
2466	0.7881
2457	0.7874
2448	0.7839
2439	0.7841
2430	0.7845
2421	0.7841
2412	0.7836
2403	0.7826
2394	0.783
2385	0.7848
2376	0.7865
2367	0.7869
2358	0.7875
2349	0.7878
2340	0.7878
2331	0.7875
2322	0.785
2313	0.7824
2304	0.7858
2295	0.7894
2286	0.7918
2277	0.7921
2268	0.7938
2259	0.7978
2250	0.801
2241	0.804
2232	0.8068
2223	0.8095
2214	0.8122
2205	0.8148
2196	0.8175
2187	0.8196
2178	0.8218
2169	0.8233
2160	0.8244
2151	0.8256
2142	0.8271
2133	0.8287
2124	0.8302
2115	0.8317
2106	0.8331
2097	0.8344
2088	0.8358
2079	0.8375
2070	0.8393
2061	0.8416
2052	0.844
2043	0.8461
2034	0.848
2025	0.8496
2016	0.8514
2007	0.8518
1998	0.852
1989	0.8518
1980	0.8552
1971	0.8599
1962	0.8615
1953	0.8605
1944	0.8639
1935	0.8655
1926	0.8662
1917	0.8668
1908	0.8678
1899	0.8695
1890	0.8712
1881	0.8728
1872	0.8736
1863	0.8731
1854	0.871
1845	0.8706
1836	0.872
1827	0.8741
1818	0.8753
1809	0.8758
1800	0.8768
1791	0.8781
1782	0.879
1773	0.8805
1764	0.8818
1755	0.8825
1746	0.8848
1737	0.8871
1728	0.8875
1719	0.8878
1710	0.8883
1701	0.8891
1692	0.8867
1683	0.8818
1674	0.8789
1665	0.8751
1656	0.872
1647	0.7465
1638	0.6721
1629	0.833
1620	0.8575
1611	0.8633
1602	0.8725
1593	0.875
1584	0.8703
1575	0.8611
1566	0.8521
1557	0.8523
1548	0.8628
1539	0.8597
1530	0.8246
1521	0.8181
1512	0.8153
1503	0.7054
1494	0.3157
1485	0.3432
1476	0.1215
1467	0.1221
1458	0.5032
1449	0.538
1440	0.4312
1431	0.6844
1422	0.7399
1413	0.7404
1404	0.7353
1395	0.7653
1386	0.7505
1377	0.7571
1368	0.7654
1359	0.7455
1350	0.7587
1341	0.7678
1332	0.7628
1323	0.7658
1314	0.7657
1305	0.7645
1296	0.7625
1287	0.7658
1278	0.7735
1269	0.7718
1260	0.7755
1251	0.7787
1242	0.4405
1233	0.7292
1224	0.7667
1215	0.7845
1206	0.7921
1197	0.7961
1188	0.7981
1179	0.7968
1170	0.7919
1161	0.7851
1152	0.7831
1143	0.7815
1134	0.7465
1125	0.7601
1116	0.7628
1107	0.7733
1098	0.7821
1089	0.7871
1080	0.7905
1071	0.7947
1062	0.7934
1053	0.7861
1044	0.7343
1035	0.7365
1026	0.7199
1017	0.4447
1008	0.3424
999	0.6383
990	0.7561
981	0.7618
972	0.7621
963	0.7739
954	0.7785
945	0.7688
936	0.6252
927	0.6746
918	0.7198
909	0.3855
900	0.3163
891	0.6515
882	0.7553
873	0.7798
864	0.7908
855	0.7922
846	0.7951
837	0.8018
828	0.8035
819	0.8067
810	0.8122
801	0.8133
792	0.8143
783	0.815
774	0.8088
765	0.7718
756	0.7836
747	0.8038
738	0.7971
729	0.7271
720	0.674
711	0.7833
702	0.8008
693	0.8101
684	0.8148
675	0.8151
666	0.8122
657	0.8101
648	0.8107
639	0.813
630	0.8087
621	0.8025
612	0.8028
603	0.8054
594	0.7989
585	0.7851
576	0.8106
567	0.8126
558	0.8138
549	0.8154
540	0.8175
531	0.8195
522	0.8187
513	0.8154
504	0.8118
495	0.8069
486	0.8019
477	0.7975
468	0.7937
459	0.7878
450	0.7756
441	0.7618
432	0.7495
423	0.7393
414	0.7322
405	0.7287
396	0.7285
387	0.7291
