Infrared Spectrum: Benzenesulfonamide, p-[2-[(6-amino-2,3-diphenylpyrido[2,3-b]pyrazin-8-yl)amino]ethyl]-N,N-diethyl-, monohydrochloride
Formula: C31 H33 Cl N6 O2 S
CAS: 21395-47-1
State: SOLID (1 mg / 650 mg KBr DISC)
Class: COBLENTZ
Instrument: PERKIN-ELMER 521 (GRATING)
Instrument parameters: FILTERS AT 3130, 2475, 2000, 1150, 700, 410. GRATING CHANGES: 2000, 620 CM^-^1
Sampling: TRANSMISSION
Resolution: 2
Origin: SOUTHERN RESEARCH INSTITUTE
1/CM	TRANSMITTANCE
254	0.2638
264.03	0.2967
274.06	0.367
284.09	0.4659
294.121	0.5255
304.151	0.585
314.181	0.6204
324.211	0.6549
334.241	0.6792
344.271	0.7095
354.301	0.7337
364.332	0.7538
374.362	0.7641
384.392	0.7651
394.422	0.7641
404.452	0.7748
414.482	0.7872
424.512	0.7859
434.542	0.7791
444.573	0.7695
454.603	0.7702
464.633	0.7736
474.663	0.7675
484.693	0.757
494.723	0.7573
504.753	0.7499
514.784	0.7213
524.814	0.6905
534.844	0.6533
544.874	0.6074
554.904	0.6068
564.934	0.6707
574.964	0.6001
584.995	0.6649
595.025	0.7379
605.055	0.7358
615.085	0.7348
625.115	0.7258
635.145	0.6974
645.175	0.7783
655.206	0.7693
665.236	0.7682
675.266	0.7532
685.296	0.6083
695.326	0.4459
705.356	0.6227
715.386	0.7938
725.417	0.8038
735.447	0.791
745.477	0.8558
755.507	0.8382
765.537	0.6615
775.567	0.69
785.597	0.7638
795.627	0.7981
805.658	0.7884
815.688	0.7652
825.718	0.7867
835.748	0.8138
845.778	0.8339
855.808	0.8813
865.838	0.8967
875.869	0.8952
885.899	0.8937
895.929	0.8814
905.959	0.8537
915.989	0.8015
926.019	0.7605
936.049	0.7921
946.08	0.823
956.11	0.8132
966.14	0.8399
976.17	0.8473
986.2	0.8284
996.23	0.7594
1006.26	0.6621
1016.29	0.5934
1026.32	0.7625
1036.35	0.815
1046.38	0.8103
1056.41	0.7841
1066.44	0.7466
1076.47	0.7138
1086.5	0.6432
1096.53	0.7464
1106.56	0.7514
1116.59	0.7572
1126.62	0.7423
1136.65	0.6095
1146.68	0.4172
1156.71	0.5514
1166.74	0.6794
1176.77	0.67
1186.8	0.6634
1196.83	0.5695
1206.86	0.5916
1216.89	0.6844
1226.92	0.7071
1236.95	0.7159
1246.98	0.7607
1257.01	0.7566
1267.04	0.7215
1277.07	0.7088
1287.1	0.7039
1297.13	0.6991
1307.16	0.6493
1317.19	0.6132
1327.22	0.5737
1337.25	0.6096
1347.29	0.6134
1357.32	0.5762
1367.35	0.5234
1377.38	0.4373
1387.41	0.5935
1397.44	0.7405
1407.47	0.7736
1417.5	0.8083
1427.53	0.7712
1437.56	0.6045
1447.59	0.7109
1457.62	0.6989
1467.65	0.7226
1477.68	0.796
1487.71	0.785
1497.74	0.7885
1507.77	0.7534
1517.8	0.6676
1527.83	0.5486
1537.86	0.5801
1547.89	0.57
1557.92	0.7158
1567.95	0.7136
1577.98	0.6432
1588.01	0.4947
1598.04	0.4786
1608.07	0.4313
1618.1	0.3691
1628.13	0.3346
1638.16	0.2205
1648.19	0.2186
1658.22	0.4024
1668.25	0.6311
1678.28	0.8196
1688.31	0.8863
1698.34	0.9118
1708.37	0.9314
1718.4	0.9431
1728.43	0.9485
1738.46	0.9472
1748.49	0.9504
1758.52	0.9468
1768.55	0.9465
1778.58	0.9461
1788.61	0.9445
1798.64	0.9428
1808.67	0.9426
1818.7	0.9447
1828.73	0.9461
1838.76	0.9456
1848.79	0.9436
1858.82	0.9404
1868.85	0.9362
1878.88	0.9321
1888.91	0.9287
1898.94	0.9246
1908.97	0.921
1919	0.918
1929.03	0.9152
1939.06	0.9128
1949.09	0.9109
1959.12	0.9092
1969.15	0.908
1979.18	0.9076
1989.21	0.9071
1999.24	0.9067
2009.27	0.9063
2019.3	0.9054
2029.33	0.9036
2039.36	0.9003
2049.39	0.8988
2059.42	0.8969
2069.46	0.8953
2079.49	0.8939
2089.52	0.8926
2099.55	0.8919
2109.58	0.8908
2119.61	0.8894
2129.64	0.888
2139.67	0.8866
2149.7	0.8852
2159.73	0.8839
2169.76	0.8828
2179.79	0.8817
2189.82	0.88
2199.85	0.8779
2209.88	0.8757
2219.91	0.8736
2229.94	0.8715
2239.97	0.869
2250	0.8666
2260.03	0.8641
2270.06	0.8617
2280.09	0.8592
2290.12	0.8571
2300.15	0.8554
2310.18	0.8537
2320.21	0.852
2330.24	0.8498
2340.27	0.8476
2350.3	0.8455
2360.33	0.8436
2370.36	0.8416
2380.39	0.8389
2390.42	0.8373
2400.45	0.8356
2410.48	0.834
2420.51	0.8314
2430.54	0.8287
2440.57	0.8256
2450.6	0.822
2460.63	0.8163
2470.66	0.822
2480.69	0.8107
2490.72	0.8067
2500.75	0.8035
2510.78	0.8009
2520.81	0.7987
2530.84	0.7957
2540.87	0.7912
2550.9	0.7866
2560.93	0.7811
2570.96	0.7753
2580.99	0.7696
2591.02	0.764
2601.05	0.7586
2611.08	0.7532
2621.11	0.7478
2631.14	0.7424
2641.17	0.7363
2651.2	0.7302
2661.23	0.7253
2671.26	0.7208
2681.29	0.7163
2691.32	0.7122
2701.35	0.7082
2711.38	0.7042
2721.41	0.6998
2731.44	0.6972
2741.47	0.6947
2751.5	0.6927
2761.53	0.6916
2771.56	0.6894
2781.59	0.6863
2791.63	0.6814
2801.66	0.6743
2811.69	0.6662
2821.72	0.6576
2831.75	0.6476
2841.78	0.6376
2851.81	0.6263
2861.84	0.6154
2871.87	0.6145
2881.9	0.617
2891.93	0.615
2901.96	0.6096
2911.99	0.5982
2922.02	0.5832
2932.05	0.5819
2942.08	0.5903
2952.11	0.587
2962.14	0.5715
2972.17	0.5687
2982.2	0.578
2992.23	0.5873
3002.26	0.5905
3012.29	0.5869
3022.32	0.5754
3032.35	0.5661
3042.38	0.5567
3052.41	0.5472
3062.44	0.5492
3072.47	0.5552
3082.5	0.5627
3092.53	0.5702
3102.56	0.5775
3112.59	0.5843
3122.62	0.5925
3132.65	0.5993
3142.68	0.6006
3152.71	0.6017
3162.74	0.6071
3172.77	0.611
3182.8	0.6126
3192.83	0.6123
3202.86	0.6108
3212.89	0.6083
3222.92	0.6041
3232.95	0.5997
3242.98	0.5953
3253.01	0.5912
3263.04	0.5876
3273.07	0.5843
3283.1	0.5836
3293.13	0.5839
3303.16	0.5849
3313.19	0.5855
3323.22	0.5842
3333.25	0.5779
3343.28	0.5691
3353.31	0.5586
3363.34	0.5494
3373.37	0.5415
3383.4	0.5405
3393.43	0.5439
3403.46	0.5488
3413.49	0.5527
3423.52	0.5544
3433.55	0.5565
3443.58	0.563
3453.61	0.5721
3463.64	0.5823
3473.67	0.5923
3483.7	0.6038
3493.73	0.6155
3503.76	0.6272
3513.8	0.6393
3523.83	0.6505
3533.86	0.6613
3543.89	0.6731
3553.92	0.6853
3563.95	0.6999
3573.98	0.7158
3584.01	0.7305
3594.04	0.7459
3604.07	0.7584
3614.1	0.7697
3624.13	0.7823
3634.16	0.7922
3644.19	0.7992
3654.22	0.8055
3664.25	0.81
3674.28	0.8113
3684.31	0.8129
3694.34	0.8158
3704.37	0.8225
3714.4	0.8235
3724.43	0.8237
3734.46	0.8233
3744.49	0.8221
3754.52	0.8209
3764.55	0.8198
3774.58	0.819
3784.61	0.8181
3794.64	0.8171
3804.67	0.8161
3814.7	0.8139
3824.73	0.8115
3834.76	0.8104
3844.79	0.8096
3854.82	0.809
3864.85	0.8085
3874.88	0.8081
3884.91	0.8072
3894.94	0.8062
3904.97	0.8052
3915	0.8042
3925.03	0.8034
3935.06	0.8027
3945.09	0.8018
3955.12	0.801
3965.15	0.8002
3975.18	0.7995
3985.21	0.799
3995.24	0.7984
4005.27	0.7979
