Infrared Spectrum: BENZO(b)CHRYSENE
Formula: C22 H14
CAS: 214-17-5
State: SOLID (KBr PELLET)
Melting point: 293-294 C
Class: COBLENTZ
Instrument: Not specified, most likely a prism, grating, or hybrid spectrometer.
Sampling: TRANSMISSION
Resolution: 4
Origin: UNION CARBIDE CORPORATION (CARBON PRODUCTS DIVISION)
MICROMETERS	TRANSMITTANCE
2.033	0.148
2.06623	0.148
2.09946	0.148
2.13269	0.149
2.16592	0.149
2.19915	0.152
2.23239	0.152
2.26562	0.153
2.29885	0.153
2.33208	0.16
2.36531	0.162
2.39854	0.161
2.43177	0.164
2.465	0.169
2.49823	0.174
2.53146	0.177
2.56469	0.177
2.59793	0.181
2.63116	0.185
2.66439	0.19
2.69762	0.196
2.73085	0.201
2.76408	0.204
2.79731	0.206
2.83054	0.213
2.86377	0.213
2.897	0.22
2.93023	0.228
2.96346	0.233
2.9967	0.237
3.02993	0.241
3.06316	0.25
3.09639	0.258
3.12962	0.261
3.16285	0.272
3.19608	0.276
3.22931	0.276
3.26254	0.266
3.29577	0.256
3.329	0.261
3.36224	0.264
3.39547	0.264
3.4287	0.265
3.46193	0.269
3.49516	0.277
3.52839	0.285
3.56162	0.302
3.59485	0.31
3.62808	0.31
3.66131	0.316
3.69454	0.32
3.72778	0.325
3.76101	0.328
3.79424	0.334
3.82747	0.34
3.8607	0.348
3.89393	0.349
3.92716	0.35
3.96039	0.357
3.99362	0.361
4.02685	0.365
4.06008	0.37
4.09331	0.372
4.12655	0.38
4.15978	0.384
4.19301	0.39
4.22624	0.39
4.25947	0.389
4.2927	0.39
4.32593	0.393
4.35916	0.405
4.39239	0.414
4.42562	0.425
4.45885	0.429
4.49209	0.436
4.52532	0.444
4.55855	0.446
4.59178	0.449
4.62501	0.452
4.65824	0.458
4.69147	0.461
4.7247	0.461
4.75793	0.472
4.79116	0.476
4.82439	0.476
4.85763	0.48
4.89086	0.486
4.92409	0.492
4.95732	0.496
4.99055	0.5
5.02378	0.502
5.05701	0.509
5.09024	0.516
5.12347	0.52
5.1567	0.516
5.18993	0.516
5.22317	0.516
5.2564	0.52
5.28963	0.525
5.32286	0.533
5.35609	0.541
5.38932	0.544
5.42255	0.544
5.45578	0.544
5.48901	0.552
5.52224	0.55
5.55547	0.55
5.5887	0.55
5.62194	0.55
5.65517	0.553
5.6884	0.564
5.72163	0.572
5.75486	0.574
5.78809	0.574
5.82132	0.577
5.85455	0.576
5.88778	0.574
5.92101	0.581
5.95424	0.588
5.98748	0.59
6.02071	0.596
6.05394	0.598
6.08717	0.601
6.1204	0.596
6.15363	0.593
6.18686	0.597
6.22009	0.596
6.25332	0.573
6.28655	0.594
6.31978	0.604
6.35302	0.621
6.38625	0.62
6.41948	0.62
6.45271	0.616
6.48594	0.617
6.51917	0.628
6.5524	0.622
6.58563	0.616
6.61886	0.621
6.65209	0.626
6.68532	0.63
6.71855	0.624
6.75179	0.624
6.78502	0.63
6.81825	0.638
6.85148	0.641
6.88471	0.632
6.91794	0.605
6.95117	0.594
6.9844	0.614
7.01763	0.64
7.05086	0.658
7.08409	0.672
7.11733	0.682
7.15056	0.684
7.18379	0.684
7.21702	0.68
7.25025	0.682
7.28348	0.681
7.31671	0.673
7.34994	0.636
7.38317	0.624
7.4164	0.656
7.44963	0.662
7.48287	0.664
7.5161	0.68
7.54933	0.688
7.58256	0.7
7.61579	0.702
7.64902	0.708
7.68225	0.709
7.71548	0.709
7.74871	0.66
7.78194	0.64
7.81517	0.656
7.84841	0.637
7.88164	0.594
7.91487	0.594
7.9481	0.601
7.98133	0.653
8.01456	0.672
8.04779	0.693
8.08102	0.706
8.11425	0.705
8.14748	0.693
8.18071	0.688
8.21394	0.665
8.24718	0.661
8.28041	0.704
8.31364	0.709
8.34687	0.708
8.3801	0.716
8.41333	0.738
8.44656	0.744
8.47979	0.72
8.51302	0.688
8.54625	0.702
8.57948	0.74
8.61272	0.742
8.64595	0.744
8.67918	0.746
8.71241	0.752
8.74564	0.75
8.77887	0.75
8.8121	0.746
8.84533	0.682
8.87856	0.72
8.91179	0.75
8.94502	0.764
8.97826	0.765
9.01149	0.778
9.04472	0.781
9.07795	0.784
9.11118	0.786
9.14441	0.789
9.17764	0.79
9.21087	0.793
9.2441	0.793
9.27733	0.793
9.31056	0.793
9.34379	0.794
9.37703	0.796
9.41026	0.796
9.44349	0.8
9.47672	0.802
9.50995	0.804
9.54318	0.808
9.57641	0.814
9.60964	0.814
9.64287	0.812
9.6761	0.802
9.70933	0.772
9.74257	0.793
9.7758	0.821
9.80903	0.84
9.84226	0.845
9.87549	0.84
9.90872	0.836
9.94195	0.784
9.97518	0.772
10.0084	0.796
10.0416	0.802
10.0749	0.806
10.1081	0.81
10.1413	0.812
10.1746	0.81
10.2078	0.809
10.241	0.808
10.2743	0.808
10.3075	0.806
10.3407	0.802
10.374	0.802
10.4072	0.804
10.4404	0.789
10.4736	0.66
10.5069	0.716
10.5401	0.748
10.5733	0.718
10.6066	0.745
10.6398	0.79
10.673	0.808
10.7063	0.817
10.7395	0.826
10.7727	0.83
10.806	0.833
10.8392	0.834
10.8724	0.836
10.9056	0.838
10.9389	0.841
10.9721	0.844
11.0053	0.845
11.0386	0.845
11.0718	0.841
11.105	0.774
11.1383	0.581
11.1715	0.493
11.2047	0.588
11.238	0.702
11.2712	0.702
11.3044	0.497
11.3376	0.161
11.3709	0.116
11.4041	0.421
11.4373	0.59
11.4706	0.672
11.5038	0.681
11.537	0.673
11.5703	0.688
11.6035	0.73
11.6367	0.777
11.67	0.806
11.7032	0.81
11.7364	0.812
11.7696	0.81
11.8029	0.793
11.8361	0.77
11.8693	0.773
11.9026	0.788
11.9358	0.789
11.969	0.685
12.0023	0.466
12.0355	0.329
12.0687	0.388
12.102	0.564
12.1352	0.636
12.1684	0.704
12.2017	0.6
12.2349	0.361
12.2681	0.201
12.3013	0.216
12.3346	0.437
12.3678	0.642
12.401	0.724
12.4343	0.749
12.4675	0.79
12.5007	0.796
12.534	0.8
12.5672	0.809
12.6004	0.818
12.6337	0.824
12.6669	0.83
12.7001	0.83
12.7333	0.829
12.7666	0.829
12.7998	0.83
12.833	0.838
12.8663	0.841
12.8995	0.846
12.9327	0.853
12.966	0.856
12.9992	0.857
13.0324	0.854
13.0657	0.836
13.0989	0.725
13.1321	0.717
13.1653	0.738
13.1986	0.749
13.2318	0.705
13.265	0.677
13.2983	0.672
13.3315	0.66
13.3647	0.609
13.398	0.554
13.4312	0.474
13.4644	0.326
13.4977	0.228
13.5309	0.122
13.5641	0.06
13.5973	0.057
13.6306	0.194
13.6638	0.361
13.697	0.392
13.7303	0.392
13.7635	0.52
13.7967	0.6
13.83	0.67
13.8632	0.697
13.8964	0.72
13.9297	0.737
13.9629	0.748
13.9961	0.749
14.0293	0.769
14.0626	0.782
14.0958	0.792
14.129	0.797
14.1623	0.804
14.1955	0.809
14.2287	0.814
14.262	0.822
14.2952	0.822
14.3284	0.822
14.3617	0.824
14.3949	0.825
14.4281	0.825
14.4614	0.822
14.4946	0.768
14.5278	0.71
14.561	0.709
14.5943	0.753
14.6275	0.784
14.6607	0.801
14.694	0.802
14.7272	0.806
14.7604	0.809
14.7937	0.809
14.8269	0.809
14.8601	0.818
14.8934	0.818
14.9266	0.816
14.9598	0.793
14.993	0.77
15.0263	0.776
15.0595	0.796
15.0927	0.801
15.126	0.801
15.1592	0.805
