Infrared Spectrum: 3-METHYL-4-PHENYL-4-THIAZOLINE-2-THIONE
Formula: C10 H9 N S2
CAS: 21402-19-7
State: SOLID (KBr PRESSING)
Melting point: 127-128 C
Class: COBLENTZ
Instrument: Not specified, most likely a prism, grating, or hybrid spectrometer.
Sampling: TRANSMISSION
Resolution: 4
Origin: EASTMAN KODAK COMPANY, RESEARCH LABORATORIES, ROCHESTER, N.Y.
MICROMETERS	TRANSMITTANCE
2	0.531
2.04002	0.538
2.08004	0.541
2.12006	0.541
2.16008	0.545
2.2001	0.551
2.24012	0.558
2.28014	0.558
2.32016	0.561
2.36018	0.567
2.4002	0.579
2.44022	0.584
2.48024	0.587
2.52026	0.59
2.56028	0.597
2.6003	0.602
2.64032	0.608
2.68034	0.621
2.72036	0.626
2.76038	0.631
2.8004	0.633
2.84042	0.61
2.88044	0.584
2.92046	0.558
2.96048	0.561
3.0005	0.599
3.04052	0.621
3.08054	0.644
3.12056	0.659
3.16058	0.671
3.2006	0.671
3.24062	0.595
3.28064	0.405
3.32066	0.6
3.36068	0.612
3.4007	0.628
3.44072	0.636
3.48074	0.692
3.52076	0.708
3.56078	0.72
3.6008	0.733
3.64082	0.744
3.68084	0.751
3.72086	0.756
3.76088	0.759
3.8009	0.762
3.84092	0.769
3.88094	0.775
3.92096	0.782
3.96098	0.787
4.001	0.797
4.04102	0.801
4.08104	0.806
4.12106	0.811
4.16108	0.813
4.2011	0.815
4.24112	0.815
4.28114	0.815
4.32116	0.816
4.36118	0.821
4.4012	0.831
4.44122	0.837
4.48124	0.844
4.52126	0.854
4.56128	0.862
4.6013	0.865
4.64132	0.865
4.68134	0.867
4.72136	0.872
4.76138	0.873
4.8014	0.877
4.84142	0.878
4.88144	0.882
4.92146	0.883
4.96148	0.885
5.0015	0.883
5.04152	0.883
5.08154	0.883
5.12156	0.887
5.16158	0.887
5.2016	0.888
5.24162	0.888
5.28164	0.885
5.32166	0.895
5.36168	0.903
5.4017	0.906
5.44172	0.909
5.48174	0.911
5.52176	0.903
5.56178	0.906
5.6018	0.908
5.64182	0.909
5.68184	0.914
5.72186	0.914
5.76188	0.914
5.8019	0.914
5.84192	0.914
5.88194	0.914
5.92196	0.914
5.96198	0.914
6.002	0.916
6.04202	0.919
6.08204	0.919
6.12206	0.916
6.16208	0.911
6.2021	0.909
6.24212	0.911
6.28214	0.911
6.32216	0.903
6.36218	0.854
6.4022	0.774
6.44222	0.772
6.48224	0.823
6.52226	0.837
6.56228	0.846
6.6023	0.847
6.64232	0.846
6.68234	0.823
6.72236	0.641
6.76238	0.615
6.8024	0.677
6.84242	0.672
6.88244	0.643
6.92246	0.533
6.96248	0.649
7.0025	0.721
7.04252	0.736
7.08254	0.723
7.12256	0.824
7.16258	0.852
7.2026	0.855
7.24262	0.859
7.28264	0.857
7.32266	0.834
7.36268	0.774
7.4027	0.617
7.44272	0.122
7.48274	0.062
7.52276	0.124
7.56278	0.378
7.6028	0.497
7.64282	0.597
7.68284	0.703
7.72286	0.782
7.76288	0.824
7.8029	0.854
7.84292	0.826
7.88294	0.823
7.92296	0.855
7.96298	0.885
8.003	0.885
8.04302	0.88
8.08304	0.854
8.12306	0.474
8.16308	0.783
8.2031	0.869
8.24312	0.891
8.28314	0.893
8.32316	0.887
8.36318	0.836
8.4032	0.621
8.44322	0.132
8.48324	0.204
8.52326	0.477
8.56328	0.669
8.6033	0.636
8.64332	0.679
8.68334	0.751
8.72336	0.761
8.76338	0.747
8.8034	0.671
8.84342	0.603
8.88344	0.527
8.92346	0.234
8.96348	0.088
9.0035	0.217
9.04351	0.479
9.08353	0.635
9.12355	0.613
9.16357	0.605
9.20359	0.708
9.24361	0.793
9.28363	0.815
9.32365	0.779
9.36367	0.816
9.40369	0.875
9.44371	0.903
9.48373	0.914
9.52375	0.919
9.56377	0.924
9.60379	0.927
9.64381	0.926
9.68383	0.926
9.72385	0.932
9.76387	0.934
9.80389	0.921
9.84391	0.901
9.88393	0.906
9.92395	0.913
9.96397	0.919
10.004	0.914
10.044	0.911
10.084	0.936
10.1241	0.944
10.1641	0.944
10.2041	0.947
10.2441	0.954
10.2841	0.962
10.3242	0.963
10.3642	0.962
10.4042	0.906
10.4442	0.093
10.4842	0.13
10.5243	0.371
10.5643	0.515
10.6043	0.633
10.6443	0.785
10.6843	0.852
10.7244	0.847
10.7644	0.692
10.8044	0.687
10.8444	0.862
10.8844	0.893
10.9245	0.918
10.9645	0.931
11.0045	0.939
11.0445	0.945
11.0845	0.952
11.1246	0.95
11.1646	0.954
11.2046	0.959
11.2446	0.967
11.2846	0.973
11.3247	0.977
11.3647	0.977
11.4047	0.977
11.4447	0.977
11.4847	0.978
11.5248	0.981
11.5648	0.981
11.6048	0.981
11.6448	0.981
11.6848	0.972
11.7249	0.962
11.7649	0.959
11.8049	0.857
11.8449	0.764
11.8849	0.878
11.925	0.962
11.965	0.981
12.005	0.996
12.045	1.001
12.085	1.003
12.1251	1.004
12.1651	1.006
12.2051	1.011
12.2451	1.013
12.2851	1.014
12.3252	1.014
12.3652	1.014
12.4052	1.011
12.4452	1.009
12.4852	1.006
12.5253	1.001
12.5653	0.949
12.6053	0.941
12.6453	0.952
12.6853	0.98
12.7254	0.983
12.7654	0.983
12.8054	0.983
12.8454	0.934
12.8854	0.793
12.9255	0.296
12.9655	0.332
13.0055	0.52
13.0455	0.707
13.0855	0.798
13.1256	0.821
13.1656	0.811
13.2056	0.739
13.2456	0.585
13.2856	0.379
13.3257	0.217
13.3657	0.173
13.4057	0.256
13.4457	0.464
13.4857	0.636
13.5258	0.739
13.5658	0.803
13.6058	0.847
13.6458	0.869
13.6858	0.88
13.7259	0.888
13.7659	0.896
13.8059	0.901
13.8459	0.901
13.8859	0.901
13.926	0.903
13.966	0.909
14.006	0.918
14.046	0.921
14.086	0.901
14.1261	0.806
14.1661	0.628
14.2061	0.343
14.2461	0.243
14.2861	0.317
14.3262	0.487
14.3662	0.648
14.4062	0.761
14.4462	0.849
14.4862	0.898
14.5263	0.913
14.5663	0.918
14.6063	0.932
14.6463	0.936
14.6863	0.939
14.7264	0.942
14.7664	0.945
14.8064	0.949
14.8464	0.95
14.8864	0.95
14.9265	0.952
14.9665	0.952
15.0065	0.952
15.0465	0.952
15.0865	0.952
15.1266	0.952
15.1666	0.952
15.2066	0.952
15.2466	0.952
15.2866	0.954
15.3267	0.955
15.3667	0.955
15.4067	0.955
15.4467	0.954
15.4867	0.95
15.5268	0.945
15.5668	0.944
15.6068	0.941
15.6468	0.932
15.6868	0.929
15.7269	0.929
15.7669	0.927
15.8069	0.926
15.8469	0.923
15.8869	0.923
15.927	0.923
15.967	0.921
16.007	0.924
