Infrared Spectrum: L-Menthylamine
Formula: C 10 H 21 N
CAS: 21411-81-4
State: gas
Origin: EPA-IR VAPOR PHASE LIBRARY
1/CM	ABSORBANCE
549.8	0.00327
559.445	0.00383
569.09	0.00481
578.734	0.00393
588.379	0.00305
598.024	0.00522
607.669	0.00371
617.313	0.00367
626.958	0.00347
636.603	0.00323
646.248	0.00298
655.893	0.00401
665.537	0.00442
675.182	0.00447
684.827	0.00417
694.472	0.00483
704.116	0.00477
713.761	0.00628
723.406	0.00628
733.051	0.00826
742.695	0.00924
752.34	0.01098
761.985	0.01106
771.63	0.01207
781.275	0.01229
790.919	0.01303
800.564	0.01341
810.209	0.01066
819.854	0.0072
829.498	0.0061
839.143	0.00538
848.788	0.00521
858.433	0.00476
868.078	0.00412
877.722	0.00476
887.367	0.00361
897.012	0.00339
906.657	0.0032
916.301	0.0036
925.946	0.00407
935.591	0.00422
945.236	0.00366
954.88	0.00346
964.525	0.00429
974.17	0.00483
983.815	0.00468
993.46	0.00473
1003.1	0.00295
1012.75	0.00446
1022.39	0.00403
1032.04	0.0045
1041.68	0.0039
1051.33	0.00519
1060.97	0.00634
1070.62	0.00634
1080.26	0.00497
1089.91	0.00505
1099.55	0.00305
1109.2	0.00578
1118.84	0.00786
1128.49	0.00581
1138.13	0.00458
1147.78	0.00562
1157.42	0.00615
1167.07	0.00595
1176.71	0.00707
1186.36	0.00759
1196	0.00528
1205.64	0.0031
1215.29	0.00447
1224.93	0.00411
1234.58	0.00479
1244.22	0.00486
1253.87	0.00448
1263.51	0.00365
1273.16	0.00432
1282.8	0.00338
1292.45	0.00346
1302.09	0.00319
1311.74	0.00386
1321.38	0.00382
1331.03	0.00421
1340.67	0.00526
1350.32	0.00603
1359.96	0.00737
1369.61	0.01026
1379.25	0.01078
1388.9	0.009
1398.54	0.00559
1408.18	0.00404
1417.83	0.0034
1427.47	0.00415
1437.12	0.00604
1446.76	0.01015
1456.41	0.01213
1466.05	0.01145
1475.7	0.00822
1485.34	0.00504
1494.99	0.0039
1504.63	0.00328
1514.28	0.00338
1523.92	0.00296
1533.57	0.00321
1543.21	0.00307
1552.86	0.00314
1562.5	0.00342
1572.15	0.00347
1581.79	0.00376
1591.44	0.00394
1601.08	0.00534
1610.73	0.00655
1620.37	0.00735
1630.01	0.00625
1639.66	0.00461
1649.3	0.00346
1658.95	0.00274
1668.59	0.0026114
1678.24	0.0024534
1687.88	0.0020429
1697.53	0.0021912
1707.17	0.002045
1716.82	0.0022726
1726.46	0.002182
1736.11	0.0021311
1745.75	0.0021021
1755.4	0.0022684
1765.04	0.0020475
1774.69	0.0019809
1784.33	0.0021614
1793.98	0.0019558
1803.62	0.0021874
1813.27	0.001959
1822.91	0.0021053
1832.55	0.0020487
1842.2	0.0019701
1851.84	0.001854
1861.49	0.00181717
1871.13	0.0019405
1880.78	0.0019015
1890.42	0.0018283
1900.07	0.00177878
1909.71	0.0020627
1919.36	0.00177613
1929	0.0020337
1938.65	0.001617
1948.29	0.001577
1957.94	0.001447
1967.58	0.0017064
1977.23	0.00174083
1986.87	0.001492
1996.52	0.001557
2006.16	0.00177638
2015.81	0.00154
2025.45	0.0016828
2035.1	0.001458
2044.74	0.001426
2054.38	0.001551
2064.03	0.0016723
2073.67	0.001572
2083.32	0.001517
2092.96	0.001364
2102.61	0.001578
2112.25	0.001498
2121.9	0.001605
2131.54	0.001577
2141.19	0.0016669
2150.83	0.001562
2160.48	0.001298
2170.12	0.0016538
2179.77	0.00172191
2189.41	0.001592
2199.06	0.0016609
2208.7	0.001465
2218.35	0.001472
2227.99	0.001317
2237.64	0.0016459
2247.28	0.001404
2256.92	0.0016669
2266.57	0.001506
2276.21	0.001476
2285.86	0.001433
2295.5	0.001532
2305.15	0.001456
2314.79	0.001367
2324.44	0.001494
2334.08	0.001286
2343.73	0.001273
2353.37	0.001272
2363.02	0.001617
2372.66	0.00146
2382.31	0.00175659
2391.95	0.00155
2401.6	0.0018394
2411.24	0.001447
2420.89	0.001587
2430.53	0.001254
2440.18	0.00146
2449.82	0.0018719
2459.47	0.0016534
2469.11	0.0018395
2478.75	0.001534
2488.4	0.00174863
2498.04	0.001571
2507.69	0.001343
2517.33	0.0016292
2526.98	0.001564
2536.62	0.0019006
2546.27	0.001497
2555.91	0.0018211
2565.56	0.001554
2575.2	0.002095
2584.85	0.00171464
2594.49	0.00176925
2604.14	0.0018533
2613.78	0.00173954
2623.43	0.0021876
2633.07	0.0022333
2642.72	0.0023226
2652.36	0.002509
2662.01	0.0026043
2671.65	0.0021909
2681.29	0.0025098
2690.94	0.0024097
2700.58	0.0024519
2710.23	0.002553
2719.87	0.00273
2729.52	0.00275
2739.16	0.00302
2748.81	0.0025997
2758.45	0.00307
2768.1	0.00326
2777.74	0.0026642
2787.39	0.00317
2797.03	0.00377
2806.68	0.00432
2816.32	0.00535
2825.97	0.00744
2835.61	0.01337
2845.26	0.0227
2854.9	0.02811
2864.55	0.02974
2874.19	0.03685
2883.84	0.04054
2893.48	0.03855
2903.12	0.04518
2912.77	0.059
2922.41	0.06825
2932.06	0.06499
2941.7	0.05541
2951.35	0.0583
2960.99	0.07796
2970.64	0.05435
2980.28	0.01918
2989.93	0.0076
2999.57	0.00491
3009.22	0.00366
3018.86	0.00357
3028.51	0.00272
3038.15	0.00335
3047.8	0.0019798
3057.44	0.0022413
3067.09	0.0019957
3076.73	0.002471
3086.38	0.0020261
3096.02	0.0021333
3105.67	0.0023277
3115.31	0.0021773
3124.95	0.0021811
3134.6	0.0016946
3144.24	0.0023542
3153.89	0.00279
3163.53	0.0027128
3173.18	0.0019659
3182.82	0.002237
3192.47	0.001415
3202.11	0.0023448
3211.76	0.0023231
3221.4	0.001545
3231.05	0.0017531
3240.69	0.0018358
3250.34	0.0016631
3259.98	0.0016682
3269.63	0.00086
3279.27	0.001411
3288.92	0.001476
3298.56	0.001473
3308.21	0.001178
3317.85	0.0020741
3327.49	0.0020066
3337.14	0.0022389
3346.78	0.001799
3356.43	0.0025961
3366.07	0.001564
3375.72	0.00017
3385.36	0.001411
3395.01	0.001064
3404.65	0.00177969
3414.3	0.0016339
3423.94	0.001408
3433.59	0.001323
3443.23	0.001203
3452.88	0.001394
3462.52	0.001316
3472.17	0.001503
3481.81	0.0007
3491.46	0.000946
3501.1	0.001269
3510.75	0.00072
3520.39	0.00065
3530.04	0.001173
3539.68	0.001261
3549.32	0.001351
3558.97	0.001538
3568.61	0.000915
3578.26	0.001226
3587.9	0.001151
3597.55	0.001509
3607.19	0.0019339
3616.84	0.001293
3626.48	0.001373
3636.13	0.001079
3645.77	0.001608
3655.42	0.00079
3665.06	0.001344
3674.71	0.00177218
3684.35	0.00176397
3694	0.001255
3703.64	0.0020246
3713.29	0.0024509
3722.93	0.00177063
3732.58	0.001217
3742.22	0.001137
3751.86	0.001388
3761.51	0.001006
3771.15	0.000856
3780.8	0.001582
3790.44	0.0022387
3800.09	0.00061
3809.73	0.00181845
3819.38	0.001293
3829.02	0.00181465
3838.67	0.001526
3848.31	0.001304
3857.96	0.001369
3867.6	0.00188
3877.25	0.00155
3886.89	0.001294
3896.54	0.00066
3906.18	0.00051
3915.83	0.001044
3925.47	0.001478
3935.12	0.001543
3944.76	0.001202
3954.41	0.001359
3964.05	0.001066
3973.69	0.001106
3983.34	0.001522
3992.98	0.001162
