Infrared Spectrum: 1,2,3,4-Tetrahydroanthracene
Formula: C 14 H 14
CAS: 2141-42-6
State: gas
Origin: EPA-IR VAPOR PHASE LIBRARY
1/CM	ABSORBANCE
551.7	0.000179
563.274	0.0002533
574.848	8.8e-05
586.421	9e-05
597.995	0.0002022
609.569	0.0012
621.143	0.002619
632.717	0.0006146
644.291	0.00036423
655.864	0.0004948
667.438	0.0005027
679.012	0.000474
690.586	0.00033525
702.16	0.0005652
713.734	0.0011989
725.307	0.006689
736.881	0.019509
748.455	0.012609
760.029	0.002639
771.603	0.0008883
783.177	0.0006889
794.75	0.0004839
806.324	0.0008528
817.898	0.0011503
829.472	0.0010751
841.046	0.002019
852.619	0.007109
864.193	0.012769
875.767	0.006349
887.341	0.002389
898.915	0.002079
910.489	0.002559
922.062	0.002789
933.636	0.002329
945.21	0.003169
956.784	0.001949
968.358	0.0009951
979.932	0.000813
991.505	0.000873
1003.08	0.0011408
1014.65	0.002179
1026.23	0.0007705
1037.8	0.000396
1049.37	0.00037303
1060.95	0.0006888
1072.52	0.0007149
1084.1	0.0004605
1095.67	0.000571
1107.24	0.0004573
1118.82	0.0004802
1130.39	0.0011228
1141.97	0.001679
1153.54	0.001769
1165.11	0.0009252
1176.69	0.00038538
1188.26	4.9e-05
1199.83	0.0002694
1211.41	0.0005668
1222.98	0.001399
1234.56	0.002799
1246.13	0.003979
1257.7	0.002989
1269.28	0.001609
1280.85	0.0007077
1292.42	0.0008073
1304	0.001549
1315.57	0.002519
1327.15	0.002249
1338.72	0.002239
1350.29	0.002639
1361.87	0.002039
1373.44	0.0011228
1385.02	0.0007705
1396.59	0.0007286
1408.16	0.0009619
1419.74	0.001339
1431.31	0.002919
1442.88	0.005059
1454.46	0.005739
1466.03	0.006119
1477.61	0.003429
1489.18	0.005879
1500.75	0.009099
1512.33	0.003869
1523.9	0.001339
1535.48	0.0007972
1547.05	0.000751
1558.62	0.000812
1570.2	0.0012677
1581.77	0.001569
1593.34	0.001689
1604.92	0.001419
1616.49	0.0009242
1628.07	0.0006744
1639.64	0.0006005
1651.21	0.0005008
1662.79	0.0005718
1674.36	0.001017
1685.93	0.001499
1697.51	0.0007133
1709.08	0.0005314
1720.66	0.0008223
1732.23	0.0010439
1743.8	0.0012316
1755.38	0.0010005
1766.95	0.0006559
1778.53	0.0007444
1790.1	0.0008779
1801.67	0.001359
1813.25	0.000934
1824.82	0.0006499
1836.39	0.0006608
1847.97	0.0005436
1859.54	0.0005142
1871.12	0.00038433
1882.69	0.0005764
1894.26	0.0008644
1905.84	0.0009612
1917.41	0.0010326
1928.99	0.001339
1940.56	0.0010694
1952.13	0.0004087
1963.71	0.00029221
1975.28	0.000306307
1986.85	0.0002684
1998.43	0.00029395
2010	0.00031206
2021.58	0.000337
2033.15	0.00035354
2044.72	0.0002848
2056.3	0.000276
2067.87	0.0002876
2079.44	0.0002614
2091.02	0.0002791
2102.59	0.0002757
2114.17	0.000306221
2125.74	0.00034028
2137.31	0.00029302
2148.89	0.000302347
2160.46	0.000307635
2172.04	0.00033038
2183.61	0.00037038
2195.18	0.000406
2206.76	0.00037897
2218.33	0.00037338
2229.9	0.00038857
2241.48	0.00034058
2253.05	0.00035074
2264.63	0.0003812
2276.2	0.0004119
2287.77	0.0004826
2299.35	0.0005057
2310.92	0.0005613
2322.5	0.0004953
2334.07	0.00031779
2345.64	0.00036361
2357.22	0.00036947
2368.79	0.0003295
2380.36	0.00036762
2391.94	0.00039556
2403.51	0.0004094
2415.09	0.0004198
2426.66	0.000299513
2438.23	0.00036627
2449.81	0.00034793
2461.38	0.00038595
2472.96	0.00035192
2484.53	0.00039646
2496.1	0.00039607
2507.68	0.000444
2519.25	0.0004402
2530.82	0.0004655
2542.4	0.0004394
2553.97	0.00029253
2565.55	0.00034789
2577.12	0.00037022
2588.69	0.0004697
2600.27	0.0004774
2611.84	0.0005684
2623.41	0.0005253
2634.99	0.0005359
2646.56	0.0006987
2658.14	0.0009588
2669.71	0.0009825
2681.28	0.0007637
2692.86	0.0006985
2704.43	0.0006706
2716.01	0.0006079
2727.58	0.0005763
2739.15	0.0005942
2750.73	0.0006641
2762.3	0.0007399
2773.87	0.0009298
2785.45	0.0011844
2797.02	0.001509
2808.6	0.001839
2820.17	0.002379
2831.74	0.003909
2843.32	0.008319
2854.89	0.012039
2866.47	0.016249
2878.04	0.016189
2889.61	0.012769
2901.19	0.012419
2912.76	0.014879
2924.33	0.029089
2935.91	0.048479
2947.48	0.058399
2959.06	0.026999
2970.63	0.010009
2982.2	0.006909
2993.78	0.007549
3005.35	0.010359
3016.92	0.010089
3028.5	0.007009
3040.07	0.007339
3051.65	0.014769
3063.22	0.018239
3074.79	0.011749
3086.37	0.005839
3097.94	0.002169
3109.52	0.0010797
3121.09	0.0007451
3132.66	0.0007664
3144.24	0.0007269
3155.81	0.0005485
3167.38	0.0005818
3178.96	0.0004222
3190.53	0.0004363
3202.11	0.00038809
3213.68	0.0004406
3225.25	0.00038894
3236.83	0.0004149
3248.4	0.00034832
3259.98	0.0002674
3271.55	0.0002689
3283.12	0.0002686
3294.7	0.000156
3306.27	0.0002645
3317.84	0.000159
3329.42	0.000193
3340.99	0.000147
3352.57	0.0002112
3364.14	0.0002011
3375.71	0.000183
3387.29	0.000226
3398.86	0.000121
3410.43	0.0002526
3422.01	0.000186
3433.58	0.000166
3445.16	0.00011
3456.73	7.7e-05
3468.3	9.8e-05
3479.88	0.000114
3491.45	1.2e-05
3503.03	0.000151
3514.6	0.00013
3526.17	8.9e-05
3537.75	0.000174
3549.32	8.7e-05
3560.89	9.4e-05
3572.47	0.000112
3584.04	0.0001
3595.62	0.000123
3607.19	0.0002191
3618.76	0.000126
3630.34	0.0002463
3641.91	0.000302421
3653.49	0.00019
3665.06	4.1e-05
3676.63	0.000167
3688.21	0.000188
3699.78	0.000169
3711.35	6.6e-05
3722.93	0.0002198
3734.5	0.000198
3746.08	0.00011
3757.65	0.0002336
3769.22	0.000198
3780.8	0.000299611
3792.37	0.0002016
3803.94	0.0002139
3815.52	0.00019
3827.09	0.000308722
3838.67	0.0002672
3850.24	0.000144
3861.81	0.00017
3873.39	0.0002105
3884.96	0.00016
3896.54	0.0002494
3908.11	0.0002592
3919.68	0.00031644
3931.26	0.00037987
3942.83	0.00029591
3954.4	0.00034019
3965.98	0.000308403
3977.55	0.0002474
3989.13	0.00033206
4000.7	0.00038797
