Infrared Spectrum: 2,3,5,6-Tetramethylacetophenone
Formula: C 12 H 16 O
CAS: 2142-79-2
State: gas
Origin: EPA-IR VAPOR PHASE LIBRARY
1/CM	ABSORBANCE
549.8	0.003117
559.445	0.004627
569.09	0.005347
578.735	0.003427
588.38	0.0014858
598.025	0.001657
607.67	0.004717
617.315	0.010117
626.96	0.006527
636.605	0.001597
646.251	0.0008987
655.896	0.0007358
665.541	0.001627
675.186	0.002257
684.831	0.00125
694.476	0.0005508
704.121	0.0005184
713.766	0.00046
723.411	0.0005017
733.056	0.00062956
742.701	0.000876
752.346	0.0007309
761.991	0.0004941
771.636	0.0005503
781.281	0.00067188
790.926	0.00066997
800.571	0.0009296
810.216	0.0009447
819.861	0.0009672
829.507	0.001667
839.152	0.003057
848.797	0.003237
858.442	0.005807
868.087	0.010477
877.732	0.005077
887.377	0.002067
897.022	0.001767
906.667	0.002047
916.312	0.002417
925.957	0.003037
935.602	0.004647
945.247	0.008927
954.892	0.012547
964.537	0.010567
974.182	0.007987
983.827	0.008657
993.472	0.009897
1003.12	0.009957
1012.76	0.009997
1022.41	0.008327
1032.05	0.005677
1041.7	0.004217
1051.34	0.003307
1060.99	0.002887
1070.63	0.002807
1080.28	0.002827
1089.92	0.002687
1099.57	0.002997
1109.21	0.003397
1118.86	0.003957
1128.5	0.005267
1138.15	0.010677
1147.79	0.025807
1157.44	0.031587
1167.08	0.014317
1176.73	0.006507
1186.37	0.004417
1196.02	0.002857
1205.66	0.003427
1215.31	0.008917
1224.95	0.018867
1234.6	0.018937
1244.24	0.009407
1253.89	0.004347
1263.53	0.003917
1273.18	0.005607
1282.82	0.011747
1292.47	0.024287
1302.11	0.025467
1311.76	0.010997
1321.4	0.007067
1331.05	0.010027
1340.69	0.019957
1350.34	0.034777
1359.98	0.030947
1369.63	0.023437
1379.27	0.022967
1388.92	0.016987
1398.56	0.013257
1408.21	0.010817
1417.85	0.011827
1427.5	0.014457
1437.14	0.017177
1446.79	0.021127
1456.43	0.025527
1466.08	0.027157
1475.73	0.020847
1485.37	0.012257
1495.02	0.008837
1504.66	0.007687
1514.31	0.006957
1523.95	0.006377
1533.6	0.006047
1543.24	0.005807
1552.89	0.005677
1562.53	0.005727
1572.18	0.005427
1581.82	0.005287
1591.47	0.005677
1601.11	0.006037
1610.76	0.004887
1620.4	0.003827
1630.05	0.003957
1639.69	0.004527
1649.34	0.005377
1658.98	0.006267
1668.63	0.007357
1678.27	0.009597
1687.92	0.016667
1697.56	0.037787
1707.21	0.076877
1716.85	0.095017
1726.5	0.063377
1736.14	0.024517
1745.79	0.008117
1755.43	0.004777
1765.08	0.004547
1774.72	0.003887
1784.37	0.003027
1794.01	0.002697
1803.66	0.002057
1813.3	0.0015123
1822.95	0.0011572
1832.59	0.0010762
1842.24	0.0010285
1851.88	0.0009769
1861.53	0.0010584
1871.17	0.0010196
1880.82	0.001126
1890.46	0.0012375
1900.11	0.0011366
1909.75	0.0009169
1919.4	0.0008403
1929.04	0.0007348
1938.69	0.0007281
1948.33	0.0007834
1957.98	0.0008084
1967.62	0.0007337
1977.27	0.00064162
1986.91	0.00067096
1996.56	0.00063007
2006.2	0.0005354
2015.85	0.0005284
2025.49	0.0005786
2035.14	0.000592781
2044.78	0.0006526
2054.43	0.000688
2064.07	0.00059915
2073.72	0.00060164
2083.36	0.0005724
2093.01	0.00061202
2102.65	0.00065268
2112.3	0.00060235
2121.94	0.0005034
2131.59	0.0005275
2141.23	0.000432
2150.88	0.000474
2160.52	0.000432
2170.17	0.000463
2179.81	0.000485
2189.46	0.000593959
2199.1	0.000587899
2208.75	0.0005242
2218.39	0.0005265
2228.04	0.0005241
2237.68	0.0004943
2247.33	0.000455
2256.97	0.0005088
2266.62	0.0005261
2276.26	0.0005455
2285.91	0.0005761
2295.55	0.000590316
2305.2	0.00066615
2314.84	0.000588673
2324.49	0.0005455
2334.13	0.0005322
2343.78	0.0005605
2353.42	0.000484
2363.07	0.0005108
2372.72	0.000590338
2382.36	0.00058292
2392.01	0.0007113
2401.65	0.0007355
2411.3	0.000785
2420.94	0.0007818
2430.59	0.0008662
2440.23	0.00081
2449.88	0.0008664
2459.52	0.0008543
2469.17	0.0009524
2478.81	0.0008383
2488.46	0.0007185
2498.1	0.00066872
2507.75	0.0007458
2517.39	0.00061455
2527.04	0.000596206
2536.68	0.0005651
2546.33	0.00058172
2555.97	0.00060309
2565.62	0.0005582
2575.26	0.0005627
2584.91	0.00061549
2594.55	0.000592229
2604.2	0.00067527
2613.84	0.00061579
2623.49	0.00066408
2633.13	0.0007721
2642.78	0.0007395
2652.42	0.0006959
2662.07	0.0007033
2671.71	0.0007853
2681.36	0.000756
2691	0.0008937
2700.65	0.0007764
2710.29	0.0010249
2719.94	0.0013284
2729.58	0.001907
2739.23	0.002917
2748.87	0.002967
2758.52	0.002387
2768.16	0.002467
2777.81	0.002387
2787.45	0.002297
2797.1	0.002457
2806.74	0.002897
2816.39	0.003607
2826.03	0.004717
2835.68	0.006377
2845.32	0.008457
2854.97	0.012107
2864.61	0.019247
2874.26	0.028277
2883.9	0.029807
2893.55	0.026677
2903.19	0.026927
2912.84	0.032447
2922.48	0.045347
2932.13	0.058167
2941.77	0.055797
2951.42	0.045707
2961.06	0.036107
2970.71	0.032647
2980.35	0.031487
2990	0.027767
2999.64	0.029077
3009.29	0.032297
3018.93	0.024497
3028.58	0.016287
3038.22	0.014017
3047.87	0.013297
3057.51	0.012377
3067.16	0.011007
3076.8	0.008867
3086.45	0.006737
3096.09	0.004987
3105.74	0.003797
3115.38	0.003067
3125.03	0.002457
3134.67	0.002107
3144.32	0.001787
3153.96	0.0013057
3163.61	0.0011848
3173.25	0.0009459
3182.9	0.0009162
3192.54	0.0009181
3202.19	0.0008009
3211.83	0.00068121
3221.48	0.0006225
3231.12	0.000458
3240.77	0.000588932
3250.41	0.0004985
3260.06	0.00059738
3269.7	0.000482
3279.35	0.000391
3289	0.0005029
3298.64	0.000363
3308.29	0.0004955
3317.93	0.000423
3327.58	0.000409
3337.22	0.000378
3346.87	0.000437
3356.51	0.000456
3366.16	0.00051
3375.8	0.0007459
3385.45	0.0009864
3395.09	0.001647
3404.74	0.001817
3414.38	0.001667
3424.03	0.001292
3433.67	0.0007507
3443.32	0.0005653
3452.96	0.0005126
3462.61	0.000482
3472.25	0.000398
3481.9	0.000379
3491.54	0.000409
3501.19	0.000281
3510.83	0.000312
3520.48	0.000325
3530.12	0.000269
3539.77	0.000221
3549.41	0.000267
3559.06	0.000295
3568.7	0.000164
3578.35	0.000244
3587.99	0.00018
3597.64	0.000166
3607.28	0.000165
3616.93	0.000273
3626.57	0.000184
3636.22	0.000355
3645.86	0
3655.51	0.000339
3665.15	0.000351
3674.8	0.000223
3684.44	0.000288
3694.09	0.000167
3703.73	0.000302
3713.38	0.000194
3723.02	0.000229
3732.67	0.000114
3742.31	6.3e-05
3751.96	5.7e-05
3761.6	0.000218
3771.25	0.000247
3780.89	0.000106
3790.54	8.1e-05
3800.18	0.000191
3809.83	0.000212
3819.47	0.000389
3829.12	0.000151
3838.76	0.000428
3848.41	0.000452
3858.05	0.000434
3867.7	0.000465
3877.34	0.000415
3886.99	0.0005092
3896.63	0.00039
3906.28	0.000453
3915.92	0.000456
3925.57	0.000323
3935.21	0.0005629
3944.86	0.000424
3954.5	0.000486
3964.15	0.0005267
3973.79	0.00060088
3983.44	0.000449
3993.08	0.000403
