Infrared Spectrum: o-Bromoacetophenone
Formula: C 8 H 7 Br O
CAS: 2142-69-0
State: gas
Instrument: HP-GC/MS/IRD
Origin: NIST Mass Spectrometry Data Center
1/CM	ABSORBANCE
550	0.0006532
562	0.0011132
574	0.0044436
586	0.017664
598	0.0171028
610	0.004094
622	0.0015548
634	0.0010764
646	0.0047748
658	0.0068632
670	0.0009476
682	0.0001656
694	0.000414
706	0.0017572
718	0.0077372
730	0.0140484
742	0.03404
754	0.0570952
766	0.0171856
778	0.0016468
790	0.0002208
802	3.68e-05
814	0.0002852
826	0.0003404
838	0
850	0.0003956
862	0.0003956
874	9.2e-05
886	0.0003496
898	0.0006716
910	0.0007544
922	0.0014812
934	0.0035972
946	0.0069092
958	0.009384
970	0.0076268
982	0.0049864
994	0.005336
1006	0.00989
1018	0.022402
1030	0.02921
1042	0.0148396
1054	0.0054464
1066	0.0035972
1078	0.0070104
1090	0.0131652
1102	0.0078476
1114	0.0044988
1126	0.00483
1138	0.0026128
1150	0.00161
1162	0.0020148
1174	0.0021896
1186	0.00276
1198	0.003634
1210	0.0067068
1222	0.02254
1234	0.0528264
1246	0.0356776
1258	0.0216108
1270	0.0415472
1282	0.0368276
1294	0.009936
1306	0.0036616
1318	0.0033488
1330	0.0052624
1342	0.0114632
1354	0.027692
1366	0.0275908
1378	0.0107732
1390	0.0069
1402	0.0075164
1414	0.013708
1426	0.023644
1438	0.0212704
1450	0.0108008
1462	0.014076
1474	0.008694
1486	0.003496
1498	0.002898
1510	0.0026496
1522	0.0024656
1534	0.0027784
1546	0.0034684
1558	0.0061456
1570	0.0089056
1582	0.0138644
1594	0.0123464
1606	0.005244
1618	0.0040204
1630	0.0026864
1642	0.0026772
1654	0.0040296
1666	0.007544
1678	0.0151616
1690	0.0252908
1702	0.0479596
1714	0.0889456
1726	0.0661112
1738	0.0253276
1750	0.0126316
1762	0.00713
1774	0.003864
1786	0.0025944
1798	0.0027508
1810	0.002254
1822	0.0018584
1834	0.0015088
1846	0.000828
1858	0.0005428
1870	0.000598
1882	0.0008372
1894	0.0009936
1906	0.0014812
1918	0.001886
1930	0.0013064
1942	0.0013616
1954	0.001564
1966	0.0007544
1978	0.0003956
1990	0.00023
2002	0.00023
2014	0.0002576
2026	0.0002024
2038	0.0001656
2050	0.0001564
2062	0.0001196
2074	0.0001196
2086	0.0001472
2098	0.0001932
2110	0.0001932
2122	7.36e-05
2134	4.6e-05
2146	0
2158	4.6e-05
2170	4.6e-05
2182	5.52e-05
2194	8.28e-05
2206	8.28e-05
2218	0.0001104
2230	6.44e-05
2242	7.36e-05
2254	0.0001104
2266	0.0001472
2278	0.0002852
2290	0.000368
2302	0.0003588
2314	0.0005336
2326	0.0005612
2338	0.0003496
2350	0.0002668
2362	0.0002208
2374	0.0001564
2386	0.0001564
2398	0.0001196
2410	8.28e-05
2422	0.0001288
2434	0.0002208
2446	0.000184
2458	0.0001104
2470	0.0001104
2482	6.44e-05
2494	0.0001104
2506	0.0001564
2518	0.0001196
2530	0.0001472
2542	0.0002484
2554	0.000276
2566	0.0002024
2578	0.0001932
2590	0.0003312
2602	0.0003036
2614	0.000276
2626	0.0001932
2638	9.2e-05
2650	0.0001012
2662	9.2e-05
2674	0.0001104
2686	0.0001564
2698	0.000138
2710	5.52e-05
2722	9.2e-06
2734	1.84e-05
2746	0
2758	2.76e-05
2770	4.6e-05
2782	7.36e-05
2794	0.0001012
2806	0.0002024
2818	0.0002484
2830	0.000414
2842	0.000506
2854	0.0005152
2866	0.0004416
2878	0.0004232
2890	0.0004508
2902	0.000644
2914	0.0010488
2926	0.0017296
2938	0.0019228
2950	0.0016192
2962	0.00184
2974	0.0022816
2986	0.0027416
2998	0.003404
3010	0.0043424
3022	0.004232
3034	0.003404
3046	0.0038364
3058	0.0086388
3070	0.0150328
3082	0.0125488
3094	0.0048944
3106	0.0021988
3118	0.0018308
3130	0.0018032
3142	0.0009476
3154	0.0004416
3166	0.0003404
3178	0.0002944
3190	0.0002116
3202	0.0001656
3214	7.36e-05
3226	2.76e-05
3238	3.68e-05
3250	9.2e-06
3262	4.6e-05
3274	2.76e-05
3286	6.44e-05
3298	1.84e-05
3310	8.28e-05
3322	0.0001196
3334	0.0001472
3346	0.0001932
3358	0.000368
3370	0.0004876
3382	0.0006716
3394	0.000966
3406	0.00138
3418	0.00161
3430	0.0011408
3442	0.0008096
3454	0.000506
3466	0.0003128
3478	0.0002116
3490	0.0001748
3502	0.0001104
3514	8.28e-05
3526	0.0001288
3538	6.44e-05
3550	0.0001012
3562	7.36e-05
3574	4.6e-05
3586	7.36e-05
3598	1.84e-05
3610	6.44e-05
3622	7.36e-05
3634	5.52e-05
3646	6.44e-05
3658	0.0001012
3670	0.0001012
3682	0.0001564
3694	4.6e-05
3706	0.0001288
3718	0.0001564
3730	0.0002852
3742	0.0002024
3754	0.0001656
3766	8.28e-05
3778	0.0001564
3790	0.0002024
3802	0.000368
3814	0.0003128
3826	0.0001656
3838	0.0001196
