Infrared Spectrum: Alpha,Alpha,Alpha,Alpha',Alpha',Alpha'-2,5-OCTACHLORO-p-XYLENE
Formula: C8 H2 Cl8
CAS: 2142-29-2
State: SOLUTION (10% CCl4 FOR 5000-1330, 10% CS2 FOR 1330-625 CM^-^1)
Class: COBLENTZ
Instrument: Not specified, most likely a prism, grating, or hybrid spectrometer.
Sampling: TRANSMISSION
Path length: 0.0112 CM, 0.0111 CM
Resolution: 4
Origin: DOW CHEMICAL COMPANY
MICROMETERS	TRANSMITTANCE
2.041	0.861
2.082	0.861
2.12299	0.863
2.16399	0.863
2.20498	0.864
2.24598	0.864
2.28698	0.866
2.32797	0.866
2.36897	0.87
2.40996	0.871
2.45096	0.87
2.49196	0.868
2.53295	0.868
2.57395	0.87
2.61494	0.87
2.65594	0.868
2.69694	0.866
2.73793	0.863
2.77893	0.858
2.81992	0.859
2.86092	0.858
2.90192	0.856
2.94291	0.858
2.98391	0.849
3.0249	0.842
3.0659	0.834
3.10689	0.822
3.14789	0.81
3.18889	0.786
3.22988	0.815
3.27088	0.81
3.31187	0.827
3.35287	0.839
3.39387	0.844
3.43486	0.861
3.47586	0.852
3.51685	0.856
3.55785	0.858
3.59885	0.861
3.63984	0.861
3.68084	0.864
3.72183	0.866
3.76283	0.868
3.80383	0.87
3.84482	0.87
3.88582	0.871
3.92681	0.871
3.96781	0.871
4.00881	0.871
4.0498	0.871
4.0908	0.871
4.13179	0.87
4.17279	0.864
4.21379	0.856
4.25478	0.856
4.29578	0.864
4.33677	0.863
4.37777	0.87
4.41877	0.875
4.45976	0.875
4.50076	0.875
4.54175	0.875
4.58275	0.876
4.62375	0.878
4.66474	0.88
4.70574	0.878
4.74673	0.882
4.78773	0.878
4.82872	0.873
4.86972	0.873
4.91072	0.876
4.95171	0.873
4.99271	0.871
5.0337	0.875
5.0747	0.875
5.1157	0.88
5.15669	0.88
5.19769	0.88
5.23868	0.878
5.27968	0.876
5.32068	0.873
5.36167	0.871
5.40267	0.871
5.44366	0.871
5.48466	0.875
5.52566	0.873
5.56665	0.866
5.60765	0.859
5.64864	0.878
5.68964	0.873
5.73064	0.871
5.77163	0.878
5.81263	0.873
5.85362	0.871
5.89462	0.871
5.93562	0.868
5.97661	0.871
6.01761	0.866
6.0586	0.87
6.0996	0.858
6.1406	0.832
6.18159	0.796
6.22259	0.717
6.26358	0.632
6.30458	0.601
6.34558	0.569
6.38657	0.526
6.42757	0.463
6.46856	0.495
6.50956	0.581
6.55056	0.618
6.59155	0.656
6.63255	0.77
6.67354	0.808
6.71454	0.832
6.75553	0.699
6.79653	0.538
6.83753	0.726
6.87852	0.834
6.91952	0.852
6.96051	0.851
7.00151	0.837
7.04251	0.822
7.0835	0.82
7.1245	0.839
7.16549	0.866
7.20649	0.871
7.24749	0.876
7.28848	0.863
7.32948	0.834
7.37047	0.668
7.41147	0.552
7.45247	0.589
7.49346	0.582
7.53446	0.719
7.57545	0.868
7.61645	0.916
7.65745	0.919
7.69844	0.919
7.73944	0.923
7.78043	0.921
7.82143	0.917
7.86243	0.89
7.90342	0.851
7.94442	0.885
7.98541	0.895
8.02641	0.907
8.06741	0.902
8.1084	0.902
8.1494	0.902
8.19039	0.897
8.23139	0.882
8.27239	0.856
8.31338	0.75
8.35438	0.47
8.39537	0.558
8.43637	0.745
8.47736	0.825
8.51836	0.875
8.55936	0.894
8.60035	0.882
8.64135	0.844
8.68234	0.815
8.72334	0.87
8.76434	0.882
8.80533	0.892
8.84633	0.892
8.88732	0.882
8.92832	0.873
8.96932	0.878
9.01031	0.878
9.05131	0.849
9.0923	0.723
9.1333	0.415
9.1743	0.251
9.21529	0.67
9.25629	0.796
9.29728	0.846
9.33828	0.87
9.37928	0.878
9.42027	0.888
9.46127	0.892
9.50226	0.897
9.54326	0.894
9.58426	0.888
9.62525	0.887
9.66625	0.888
9.70724	0.899
9.74824	0.902
9.78924	0.917
9.83023	0.916
9.87123	0.916
9.91222	0.919
9.95322	0.921
9.99422	0.929
10.0352	0.933
10.0762	0.936
10.1172	0.94
10.1582	0.947
10.1992	0.948
10.2402	0.948
10.2812	0.943
10.3222	0.947
10.3632	0.948
10.4042	0.948
10.4452	0.948
10.4862	0.943
10.5272	0.936
10.5682	0.931
10.6092	0.929
10.6502	0.929
10.6911	0.929
10.7321	0.924
10.7731	0.917
10.8141	0.912
10.8551	0.9
10.8961	0.888
10.9371	0.883
10.9781	0.876
11.0191	0.864
11.0601	0.815
11.1011	0.753
11.1421	0.789
11.1831	0.808
11.2241	0.793
11.2651	0.779
11.3061	0.75
11.3471	0.731
11.3881	0.711
11.4291	0.671
11.4701	0.622
11.5111	0.5
11.5521	0.299
11.5931	0.141
11.6341	0.295
11.675	0.504
11.716	0.574
11.757	0.608
11.798	0.652
11.839	0.692
11.88	0.724
11.921	0.752
11.962	0.758
12.003	0.762
12.044	0.743
12.085	0.728
12.126	0.723
12.167	0.735
12.208	0.738
12.249	0.721
12.29	0.69
12.331	0.661
12.372	0.647
12.413	0.61
12.454	0.533
12.495	0.365
12.536	0.15
12.577	0.022
12.618	0.03
12.659	0.105
12.6999	0.136
12.7409	0.1
12.7819	0.059
12.8229	0.023
12.8639	0.001
12.9049	0
12.9459	0.046
12.9869	0.218
13.0279	0.444
13.0689	0.558
13.1099	0.63
13.1509	0.658
13.1919	0.666
13.2329	0.676
13.2739	0.699
13.3149	0.717
13.3559	0.728
13.3969	0.729
13.4379	0.731
13.4789	0.731
13.5199	0.729
13.5609	0.721
13.6019	0.716
13.6429	0.705
13.6839	0.707
13.7248	0.712
13.7658	0.717
13.8068	0.721
13.8478	0.723
13.8888	0.721
13.9298	0.719
13.9708	0.716
14.0118	0.707
14.0528	0.7
14.0938	0.694
14.1348	0.687
14.1758	0.678
14.2168	0.666
14.2578	0.656
14.2988	0.644
14.3398	0.635
14.3808	0.629
14.4218	0.622
14.4628	0.615
14.5038	0.61
14.5448	0.606
14.5858	0.601
14.6268	0.593
14.6678	0.584
14.7087	0.574
14.7497	0.564
14.7907	0.552
14.8317	0.541
14.8727	0.529
14.9137	0.519
14.9547	0.528
14.9957	0.533
15.0367	0.516
15.0777	0.499
15.1187	0.488
15.1597	0.48
15.2007	0.475
15.2417	0.464
15.2827	0.454
15.3237	0.447
15.3647	0.439
15.4057	0.429
15.4467	0.423
15.4877	0.417
15.5287	0.406
15.5697	0.398
15.6107	0.388
15.6517	0.379
15.6927	0.374
15.7336	0.358
15.7746	0.347
15.8156	0.328
15.8566	0.338
