Infrared Spectrum: 2,4-DIMETHYL ANILINE HYDROCHLORIDE
Formula: C8 H11 N  * H Cl
CAS: 21436-96-4
State: SOLID (0.5% KBr PELLET)
Class: COBLENTZ
Instrument: Not specified, most likely a grating spectrometer.
Sampling: TRANSMISSION
Resolution: 4
Origin: STANDARD OIL OF OHIO
MICROMETERS	TRANSMITTANCE
2.031	0.573
2.06463	0.581
2.09827	0.586
2.1319	0.593
2.16554	0.598
2.19917	0.603
2.2328	0.606
2.26644	0.61
2.30007	0.611
2.3337	0.616
2.36734	0.625
2.40097	0.633
2.43461	0.638
2.46824	0.643
2.50187	0.648
2.53551	0.652
2.56914	0.658
2.60278	0.667
2.63641	0.672
2.67004	0.673
2.70368	0.678
2.73731	0.675
2.77095	0.653
2.80458	0.606
2.83821	0.554
2.87185	0.514
2.90548	0.492
2.93911	0.492
2.97275	0.517
3.00638	0.568
3.04002	0.61
3.07365	0.601
3.10728	0.557
3.14092	0.48
3.17455	0.406
3.20819	0.356
3.24182	0.255
3.27545	0.161
3.30909	0.127
3.34272	0.082
3.37635	0.045
3.40999	0.016
3.44362	0.01
3.47726	0.01
3.51089	0.01
3.54452	0.011
3.57816	0.018
3.61179	0.038
3.64543	0.08
3.67906	0.132
3.71269	0.171
3.74633	0.216
3.77996	0.252
3.8136	0.223
3.84723	0.171
3.88086	0.132
3.9145	0.142
3.94813	0.188
3.98176	0.278
4.0154	0.383
4.04903	0.485
4.08267	0.541
4.1163	0.583
4.14993	0.635
4.18357	0.67
4.2172	0.684
4.25084	0.697
4.28447	0.709
4.3181	0.731
4.35174	0.747
4.38537	0.756
4.419	0.759
4.45264	0.763
4.48627	0.761
4.51991	0.757
4.55354	0.761
4.58717	0.766
4.62081	0.776
4.65444	0.786
4.68808	0.786
4.72171	0.786
4.75534	0.786
4.78898	0.783
4.82261	0.783
4.85625	0.781
4.88988	0.773
4.92351	0.764
4.95715	0.746
4.99078	0.722
5.02441	0.697
5.05805	0.665
5.09168	0.636
5.12532	0.623
5.15895	0.623
5.19258	0.638
5.22622	0.655
5.25985	0.673
5.29349	0.689
5.32712	0.702
5.36075	0.719
5.39439	0.731
5.42802	0.747
5.46165	0.761
5.49529	0.778
5.52892	0.791
5.56256	0.803
5.59619	0.808
5.62982	0.81
5.66346	0.813
5.69709	0.813
5.73073	0.816
5.76436	0.821
5.79799	0.82
5.83163	0.821
5.86526	0.82
5.8989	0.82
5.93253	0.821
5.96616	0.828
5.9998	0.81
6.03343	0.774
6.06706	0.732
6.1007	0.667
6.13433	0.552
6.16797	0.546
6.2016	0.563
6.23523	0.507
6.26887	0.418
6.3025	0.312
6.33614	0.295
6.36977	0.346
6.4034	0.371
6.43704	0.433
6.47067	0.48
6.5043	0.485
6.53794	0.447
6.57157	0.396
6.60521	0.245
6.63884	0.129
6.67247	0.136
6.70611	0.29
6.73974	0.388
6.77338	0.442
6.80701	0.463
6.84064	0.467
6.87428	0.495
6.90791	0.552
6.94155	0.633
6.97518	0.719
7.00881	0.764
7.04245	0.788
7.07608	0.803
7.10971	0.818
7.14335	0.823
7.17698	0.801
7.21062	0.734
7.24425	0.719
7.27788	0.794
7.31152	0.84
7.34515	0.855
7.37879	0.867
7.41242	0.875
7.44605	0.882
7.47969	0.889
7.51332	0.887
7.54695	0.877
7.58059	0.87
7.61422	0.852
7.64786	0.818
7.68149	0.828
7.71512	0.853
7.74876	0.847
7.78239	0.826
7.81603	0.847
7.84966	0.853
7.88329	0.863
7.91693	0.862
7.95056	0.852
7.9842	0.85
8.01783	0.86
8.05146	0.86
8.0851	0.862
8.11873	0.862
8.15236	0.86
8.186	0.848
8.21963	0.825
8.25327	0.689
8.2869	0.606
8.32053	0.692
8.35417	0.746
8.3878	0.766
8.42144	0.806
8.45507	0.838
8.4887	0.85
8.52234	0.857
8.55597	0.86
8.5896	0.848
8.62324	0.788
8.65687	0.769
8.69051	0.788
8.72414	0.8
8.75777	0.803
8.79141	0.813
8.82504	0.8
8.85868	0.756
8.89231	0.742
8.92594	0.783
8.95958	0.81
8.99321	0.815
9.02684	0.805
9.06048	0.786
9.09411	0.764
9.12775	0.736
9.16138	0.719
9.19501	0.712
9.22865	0.715
9.26228	0.737
9.29592	0.761
9.32955	0.783
9.36318	0.788
9.39682	0.784
9.43045	0.773
9.46409	0.763
9.49772	0.744
9.53135	0.717
9.56499	0.685
9.59862	0.64
9.63225	0.618
9.66589	0.635
9.69952	0.675
9.73316	0.721
9.76679	0.747
9.80042	0.756
9.83406	0.776
9.86769	0.8
9.90133	0.821
9.93496	0.842
9.96859	0.85
10.0022	0.853
10.0359	0.858
10.0695	0.86
10.1031	0.858
10.1368	0.862
10.1704	0.872
10.204	0.88
10.2377	0.884
10.2713	0.889
10.3049	0.892
10.3386	0.89
10.3722	0.89
10.4058	0.89
10.4395	0.892
10.4731	0.889
10.5067	0.889
10.5404	0.887
10.574	0.884
10.6076	0.884
10.6413	0.887
10.6749	0.889
10.7085	0.887
10.7422	0.878
10.7758	0.868
10.8094	0.868
10.8431	0.875
10.8767	0.88
10.9103	0.884
10.944	0.887
10.9776	0.887
11.0112	0.889
11.0449	0.885
11.0785	0.885
11.1121	0.884
11.1458	0.88
11.1794	0.878
11.213	0.872
11.2467	0.87
11.2803	0.852
11.3139	0.842
11.3476	0.84
11.3812	0.838
11.4148	0.833
11.4485	0.821
11.4821	0.811
11.5158	0.833
11.5494	0.855
11.583	0.875
11.6167	0.889
11.6503	0.892
11.6839	0.892
11.7176	0.892
11.7512	0.89
11.7848	0.892
11.8185	0.892
11.8521	0.887
11.8857	0.88
11.9194	0.873
11.953	0.858
11.9866	0.833
12.0203	0.8
12.0539	0.757
12.0875	0.71
12.1212	0.658
12.1548	0.605
12.1884	0.573
12.2221	0.507
12.2557	0.453
12.2893	0.403
12.323	0.352
12.3566	0.339
12.3902	0.45
12.4239	0.568
12.4575	0.675
12.4911	0.742
12.5248	0.808
12.5584	0.84
12.592	0.862
12.6257	0.872
12.6593	0.882
12.6929	0.882
12.7266	0.88
12.7602	0.884
12.7938	0.884
12.8275	0.884
12.8611	0.88
12.8947	0.882
12.9284	0.882
12.962	0.884
12.9956	0.88
13.0293	0.882
13.0629	0.878
13.0965	0.877
13.1302	0.873
13.1638	0.868
13.1974	0.855
13.2311	0.838
13.2647	0.828
13.2983	0.821
13.332	0.826
13.3656	0.842
13.3992	0.853
13.4329	0.858
13.4665	0.865
13.5001	0.87
13.5338	0.875
13.5674	0.875
13.6011	0.875
13.6347	0.877
13.6683	0.875
13.702	0.877
13.7356	0.875
13.7692	0.873
13.8029	0.872
13.8365	0.87
13.8701	0.867
13.9038	0.833
13.9374	0.778
13.971	0.741
14.0047	0.768
14.0383	0.823
14.0719	0.847
14.1056	0.853
14.1392	0.862
14.1728	0.863
14.2065	0.86
14.2401	0.858
14.2737	0.85
14.3074	0.842
14.341	0.84
14.3746	0.848
14.4083	0.853
14.4419	0.862
14.4755	0.863
14.5092	0.865
14.5428	0.868
14.5764	0.87
14.6101	0.867
14.6437	0.868
14.6773	0.867
14.711	0.868
14.7446	0.868
14.7782	0.868
14.8119	0.868
14.8455	0.87
14.8791	0.868
14.9128	0.867
14.9464	0.865
14.98	0.86
15.0137	0.862
15.0473	0.867
15.0809	0.867
15.1146	0.87
15.1482	0.867
15.1818	0.865
15.2155	0.867
15.2491	0.868
15.2827	0.863
15.3164	0.867
15.35	0.863
15.3836	0.865
