Infrared Spectrum: GLUTAMINE, N,N-DIMETHYL-
Formula: C7 H14 N2 O3
CAS: 21432-98-4
State: SOLID (0.9 mg / 650 KBr DISC)
Class: COBLENTZ III
Instrument: PERKIN-ELMER 21 (GRATING)
Instrument parameters: FILTER CHANGE AT ABOUT 1090 CM^-^1.
Sampling: TRANSMISSION
Resolution: 2
Origin: SOUTHERN RESEARCH INSTITUTE
1/CM	TRANSMITTANCE
611.718	0.833
620.008	0.831
628.298	0.822
636.588	0.817
644.879	0.812
653.169	0.7949
661.459	0.794
669.749	0.7842
678.039	0.7688
686.329	0.7326
694.62	0.6846
702.91	0.5965
711.2	0.684
719.49	0.6516
727.78	0.6552
736.07	0.668
744.361	0.6627
752.651	0.5661
760.941	0.5942
769.231	0.5524
777.521	0.5904
785.811	0.6629
794.102	0.6355
802.392	0.6651
810.682	0.7407
818.972	0.744
827.262	0.7355
835.552	0.7142
843.843	0.6781
852.133	0.7159
860.423	0.7617
868.713	0.7603
877.003	0.7651
885.293	0.77
893.584	0.7717
901.874	0.79
910.164	0.7877
918.454	0.7838
926.744	0.7773
935.034	0.7671
943.325	0.7773
951.615	0.7758
959.905	0.774
968.195	0.7659
976.485	0.756
984.775	0.7602
993.065	0.767
1001.36	0.766
1009.65	0.7572
1017.94	0.7437
1026.23	0.7293
1034.52	0.7106
1042.81	0.6985
1051.1	0.6953
1059.39	0.6903
1067.68	0.6748
1075.97	0.671
1084.26	0.6695
1092.55	0.6685
1100.84	0.6523
1109.13	0.6116
1117.42	0.6256
1125.71	0.6806
1134	0.6837
1142.29	0.6718
1150.58	0.6463
1158.87	0.5867
1167.16	0.586
1175.45	0.6394
1183.74	0.707
1192.03	0.7309
1200.32	0.7399
1208.61	0.7457
1216.9	0.747
1225.19	0.749
1233.48	0.7402
1241.77	0.7343
1250.06	0.7197
1258.35	0.688
1266.64	0.6475
1274.93	0.6315
1283.22	0.6515
1291.51	0.6387
1299.8	0.5976
1308.09	0.5549
1316.38	0.5266
1324.67	0.5968
1332.96	0.61
1341.25	0.599
1349.54	0.5958
1357.83	0.5797
1366.12	0.557
1374.41	0.5409
1382.7	0.4764
1390.99	0.3816
1399.28	0.2374
1407.57	0.1583
1415.86	0.1566
1424.15	0.158
1432.44	0.2302
1440.73	0.3636
1449.02	0.4367
1457.31	0.4531
1465.6	0.5511
1473.89	0.5705
1482.19	0.5735
1490.48	0.5406
1498.77	0.538
1507.06	0.5207
1515.35	0.4421
1523.64	0.3985
1531.93	0.3206
1540.22	0.26
1548.51	0.272
1556.8	0.2759
1565.09	0.1911
1573.38	0.096
1581.67	0.0997
1589.96	0.0951
1598.25	0.0774
1606.54	0.0574
1614.83	0.048
1623.12	0.0635
1631.41	0.0784
1639.7	0.1059
1647.99	0.1346
1656.28	0.2463
1664.57	0.3145
1672.86	0.371
1681.15	0.4806
1689.44	0.5374
1697.73	0.6131
1706.02	0.6529
1714.31	0.6625
1722.6	0.6941
1730.89	0.7282
1739.18	0.7563
1747.47	0.7781
1755.76	0.807
1764.05	0.815
1772.34	0.82
1780.63	0.8329
1788.92	0.838
1797.21	0.842
1805.5	0.8468
1813.79	0.8572
1822.08	0.8597
1830.37	0.864
1838.66	0.8574
1846.95	0.873
1855.24	0.872
1863.53	0.874
1871.82	0.873
1880.11	0.874
1888.4	0.8774
1896.69	0.883
1904.98	0.8807
1913.27	0.8792
1921.56	0.881
1929.85	0.8909
1938.14	0.885
1946.43	0.8829
1954.72	0.88
1963.01	0.88
1971.3	0.881
1979.59	0.8761
1987.89	0.878
1996.18	0.8844
2004.47	0.8825
2012.76	0.883
2021.05	0.883
2029.34	0.883
2037.63	0.8815
2045.92	0.881
2054.21	0.8838
2062.5	0.887
2070.79	0.883
2079.08	0.885
2087.37	0.8802
2095.66	0.878
2103.95	0.8798
2112.24	0.877
2120.53	0.874
2128.82	0.878
2137.11	0.8798
2145.4	0.878
2153.69	0.883
2161.98	0.885
2170.27	0.8838
2178.56	0.884
2186.85	0.883
2195.14	0.891
2203.43	0.8915
2211.72	0.891
2220.01	0.8928
2228.3	0.892
2236.59	0.8912
2244.88	0.8862
2253.17	0.884
2261.46	0.893
2269.75	0.894
2278.04	0.894
2286.33	0.897
2294.62	0.8978
2302.91	0.9
2311.2	0.902
2319.49	0.905
2327.78	0.906
2336.07	0.903
2344.36	0.9042
2352.65	0.903
2360.94	0.903
2369.23	0.899
2377.52	0.897
2385.81	0.893
2394.1	0.893
2402.39	0.893
2410.68	0.893
2418.97	0.893
2427.26	0.893
2435.55	0.892
2443.84	0.8898
2452.13	0.89
2460.42	0.891
2468.71	0.889
2477	0.8862
2485.29	0.883
2493.58	0.8898
2501.88	0.891
2510.17	0.8902
2518.46	0.885
2526.75	0.8868
2535.04	0.889
2543.33	0.8862
2551.62	0.883
2559.91	0.8732
2568.2	0.876
2576.49	0.876
2584.78	0.8728
2593.07	0.873
2601.36	0.874
2609.65	0.8732
2617.94	0.871
2626.23	0.871
2634.52	0.8677
2642.81	0.8602
2651.1	0.8625
2659.39	0.863
2667.68	0.863
2675.97	0.863
2684.26	0.8632
2692.55	0.865
2700.84	0.861
2709.13	0.855
2717.42	0.85
2725.71	0.85
2734	0.848
2742.29	0.846
2750.58	0.844
2758.87	0.8412
2767.16	0.8312
2775.45	0.822
2783.74	0.8155
2792.03	0.8095
2800.32	0.806
2808.61	0.7945
2816.9	0.7922
2825.19	0.7852
2833.48	0.7802
2841.77	0.7742
2850.06	0.7635
2858.35	0.744
2866.64	0.7332
2874.93	0.7302
2883.22	0.726
2891.51	0.7222
2899.8	0.7137
2908.09	0.6907
2916.38	0.6752
2924.67	0.6622
2932.96	0.6552
2941.25	0.651
2949.54	0.6535
2957.83	0.6616
2966.12	0.6688
2974.41	0.6803
2982.7	0.6925
2990.99	0.697
2999.28	0.701
3007.58	0.6972
3015.87	0.695
3024.16	0.691
3032.45	0.689
3040.74	0.691
3049.03	0.69
3057.32	0.6908
3065.61	0.6895
3073.9	0.6812
3082.19	0.675
3090.48	0.676
3098.77	0.677
3107.06	0.675
3115.35	0.668
3123.64	0.6612
3131.93	0.6545
3140.22	0.6465
3148.51	0.6412
3156.8	0.6312
3165.09	0.6225
3173.38	0.6115
3181.67	0.5867
3189.96	0.5715
3198.25	0.561
3206.54	0.5532
3214.83	0.5372
3223.12	0.5192
3231.41	0.5027
3239.7	0.4897
3247.99	0.4727
3256.28	0.4596
3264.57	0.4478
3272.86	0.4412
3281.15	0.4322
3289.44	0.4202
3297.73	0.4105
3306.02	0.4062
3314.31	0.402
3322.6	0.3995
3330.89	0.3962
3339.18	0.3822
3347.47	0.3632
3355.76	0.3372
3364.05	0.3172
3372.34	0.3079
3380.63	0.292
3388.92	0.286
3397.21	0.2759
3405.5	0.2682
3413.79	0.263
3422.08	0.259
3430.37	0.26
3438.66	0.265
3446.95	0.268
3455.24	0.2652
3463.53	0.2638
3471.82	0.263
3480.11	0.2648
3488.4	0.276
3496.69	0.289
3504.98	0.3128
3513.27	0.3351
3521.57	0.3465
3529.86	0.3558
3538.15	0.3808
3546.44	0.4021
3554.73	0.4205
3563.02	0.4453
3571.31	0.4726
3579.6	0.4885
3587.89	0.5315
3596.18	0.5503
3604.47	0.5793
3612.76	0.5984
3621.05	0.6203
3629.34	0.659
3637.63	0.6986
3645.92	0.7268
3654.21	0.7455
3662.5	0.7638
3670.79	0.7865
3679.08	0.8065
3687.37	0.8275
3695.66	0.8418
3703.95	0.8495
3712.24	0.859
3720.53	0.859
3728.82	0.867
3737.11	0.8738
3745.4	0.889
3753.69	0.891
3761.98	0.8918
3770.27	0.893
3778.56	0.8928
3786.85	0.893
3795.14	0.894
3803.43	0.894
3811.72	0.8945
3820.01	0.894
3828.3	0.894
3836.59	0.893
3844.88	0.893
3853.17	0.893
3861.46	0.8892
3869.75	0.8908
3878.04	0.887
3886.33	0.884
3894.62	0.881
3902.91	0.8802
3911.2	0.88
