Infrared Spectrum: p-Nitrobenzaldehyde, azine
Formula: C14 H10 N4 O4
CAS: 2143-99-9
State: SOLID (SPLIT MULL), FLUOROLUBE FOR 3800-1330 CM^-^1, NUJOL FOR 1330-400 CM^-^1
Melting point: 304.5 C
Class: COBLENTZ II
Instrument: BECKMAN IR-9 (GRATING)
Instrument parameters: ORDER CHANGES: 670, 1200, 2000 CM^-^1
Sampling: TRANSMISSION
Resolution: 2
Origin: DOW CHEMICAL COMPANY
1/CM	TRANSMITTANCE
3798	0.5833
3789	0.5827
3780	0.582
3771	0.5812
3762	0.5816
3753	0.5823
3744	0.5839
3735	0.5856
3726	0.5875
3717	0.5887
3708	0.5896
3699	0.5905
3690	0.5915
3681	0.5927
3672	0.594
3663	0.5954
3654	0.5971
3645	0.5989
3636	0.6006
3627	0.602
3618	0.6035
3609	0.6049
3600	0.6062
3591	0.6075
3582	0.6087
3573	0.6099
3564	0.611
3555	0.6122
3546	0.6132
3537	0.6142
3528	0.6153
3519	0.6162
3510	0.6173
3501	0.618
3492	0.6187
3483	0.6193
3474	0.62
3465	0.6206
3456	0.6212
3447	0.6221
3438	0.623
3429	0.624
3420	0.625
3411	0.626
3402	0.6275
3393	0.6293
3384	0.631
3375	0.6329
3366	0.6347
3357	0.6364
3348	0.6381
3339	0.6398
3330	0.6415
3321	0.6433
3312	0.645
3303	0.6467
3294	0.6485
3285	0.6501
3276	0.6518
3267	0.6533
3258	0.6544
3249	0.6555
3240	0.6565
3231	0.6578
3222	0.6592
3213	0.6605
3204	0.6618
3195	0.6622
3186	0.6635
3177	0.6644
3168	0.666
3159	0.6674
3150	0.6687
3141	0.6696
3132	0.6694
3123	0.6533
3114	0.6571
3105	0.656
3096	0.6585
3087	0.6644
3078	0.67
3069	0.6704
3060	0.6694
3051	0.6735
3042	0.6833
3033	0.6858
3024	0.6848
3015	0.6854
3006	0.6878
2997	0.6889
2988	0.6895
2979	0.6898
2970	0.6901
2961	0.69
2952	0.683
2943	0.6824
2934	0.6857
2925	0.6892
2916	0.693
2907	0.6964
2898	0.6994
2889	0.7008
2880	0.7001
2871	0.696
2862	0.6914
2853	0.6878
2844	0.6907
2835	0.6971
2826	0.7061
2817	0.7115
2808	0.7154
2799	0.7184
2790	0.7211
2781	0.7232
2772	0.7251
2763	0.7269
2754	0.7286
2745	0.7301
2736	0.7318
2727	0.7334
2718	0.735
2709	0.7365
2700	0.7384
2691	0.7403
2682	0.7421
2673	0.7441
2664	0.7455
2655	0.7465
2646	0.7475
2637	0.7486
2628	0.7496
2619	0.7505
2610	0.7515
2601	0.7524
2592	0.7535
2583	0.7545
2574	0.7555
2565	0.7562
2556	0.7571
2547	0.7578
2538	0.7584
2529	0.7589
2520	0.7595
2511	0.7599
2502	0.7604
2493	0.7606
2484	0.7604
2475	0.7588
2466	0.7561
2457	0.7469
2448	0.7465
2439	0.7521
2430	0.7557
2421	0.7578
2412	0.7594
2403	0.7596
2394	0.7594
2385	0.7571
2376	0.7541
2367	0.7518
2358	0.7515
2349	0.7519
2340	0.7532
2331	0.7549
2322	0.7569
2313	0.7593
2304	0.7617
2295	0.7642
2286	0.7668
2277	0.7696
2268	0.7722
2259	0.7751
2250	0.7784
2241	0.7815
2232	0.7847
2223	0.7878
2214	0.7911
2205	0.7947
2196	0.7983
2187	0.8018
2178	0.8056
2169	0.8085
2160	0.8111
2151	0.8132
2142	0.8151
2133	0.8168
2124	0.8185
2115	0.8202
2106	0.8218
2097	0.8234
2088	0.8253
2079	0.8273
2070	0.8297
2061	0.8314
2052	0.8334
2043	0.834
2034	0.8351
2025	0.8389
2016	0.8414
2007	0.8423
1998	0.8273
1989	0.8451
1980	0.8454
1971	0.8459
1962	0.8463
1953	0.8458
1944	0.8421
1935	0.8365
1926	0.8484
1917	0.852
1908	0.852
1899	0.8523
1890	0.8521
1881	0.8521
1872	0.8525
1863	0.8571
1854	0.859
1845	0.8604
1836	0.861
1827	0.8614
1818	0.8591
1809	0.8512
1800	0.8582
1791	0.8627
1782	0.8657
1773	0.8678
1764	0.8684
1755	0.8683
1746	0.8677
1737	0.8668
1728	0.8535
1719	0.8593
1710	0.8708
1701	0.8733
1692	0.8665
1683	0.8635
1674	0.869
1665	0.8717
1656	0.8775
1647	0.8842
1638	0.8756
1629	0.8531
1620	0.8658
1611	0.8443
1602	0.4798
1593	0.636
1584	0.7999
1575	0.8542
1566	0.8531
1557	0.8497
1548	0.8354
1539	0.7451
1530	0.1539
1521	0.2112
1512	0.5957
1503	0.7332
1494	0.7518
1485	0.7975
1476	0.8174
1467	0.8217
1458	0.8247
1449	0.8193
1440	0.8245
1431	0.8274
1422	0.827
1413	0.7644
1404	0.8278
1395	0.8128
1386	0.7501
1377	0.7925
1368	0.7762
1359	0.6908
1350	0.0146
1341	0.3436
1332	0.1469
1323	0.4209
1314	0.5535
1305	0.7247
1296	0.6821
1287	0.7639
1278	0.7653
1269	0.7832
1260	0.8072
1251	0.8065
1242	0.8104
1233	0.8053
1224	0.7807
1215	0.6737
1206	0.7869
1197	0.7931
1188	0.7868
1179	0.7875
1170	0.7896
1161	0.7894
1152	0.7885
1143	0.7867
1134	0.7808
1125	0.7674
1116	0.6656
1107	0.5112
1098	0.7337
1089	0.7587
1080	0.7755
1071	0.7906
1062	0.8018
1053	0.8114
1044	0.8204
1035	0.8274
1026	0.83
1017	0.7558
1008	0.8153
999	0.8441
990	0.8418
981	0.8162
972	0.7561
963	0.8187
954	0.557
945	0.839
936	0.8514
927	0.8548
918	0.8571
909	0.8587
900	0.8575
891	0.8545
882	0.844
873	0.8385
864	0.816
855	0.5142
846	0.6195
837	0.4277
828	0.7965
819	0.8542
810	0.8543
801	0.8557
792	0.8606
783	0.8637
774	0.8644
765	0.8604
756	0.8414
747	0.2926
738	0.8346
729	0.8171
720	0.8353
711	0.8478
702	0.867
693	0.8532
684	0.4216
675	0.8693
666	0.8861
657	0.8857
648	0.885
639	0.8801
630	0.8586
621	0.8701
612	0.8703
603	0.8666
594	0.8664
585	0.8597
576	0.8559
567	0.8484
558	0.8164
549	0.6928
540	0.8246
531	0.7615
522	0.8149
513	0.805
504	0.7749
495	0.6722
486	0.6207
477	0.7615
468	0.7535
459	0.7314
450	0.7055
441	0.6576
432	0.5812
423	0.5137
414	0.4746
405	0.4721
