Infrared Spectrum: 1-(4-Fluorophenyl)imidazole
Formula: C 9 H 7 F N 2
CAS: 21441-24-7
State: gas
Origin: EPA-IR VAPOR PHASE LIBRARY
1/CM	ABSORBANCE
549.8	0.001963
559.445	0.0012576
569.09	0.0011615
578.734	0.0010083
588.379	0.001623
598.024	0.004973
607.669	0.008773
617.313	0.006323
626.958	0.002723
636.603	0.002553
646.248	0.003483
655.893	0.004963
665.537	0.004213
675.182	0.002653
684.827	0.001753
694.472	0.001953
704.116	0.003273
713.761	0.006113
723.406	0.008273
733.051	0.005583
742.695	0.002843
752.34	0.001573
761.985	0.001224
771.63	0.001443
781.275	0.002093
790.919	0.003303
800.564	0.006583
810.209	0.011503
819.854	0.012723
829.498	0.014133
839.143	0.016913
848.788	0.010933
858.433	0.004893
868.078	0.002243
877.722	0.001963
887.367	0.002083
897.012	0.004293
906.657	0.002663
916.301	0.0012025
925.946	0.000984
935.591	0.000688
945.236	0.0007941
954.88	0.002453
964.525	0.004663
974.17	0.002153
983.815	0.0009907
993.46	0.0006149
1003.1	0.0009404
1012.75	0.001963
1022.39	0.002023
1032.04	0.002403
1041.68	0.010813
1051.33	0.024483
1060.97	0.011123
1070.62	0.002373
1080.26	0.002763
1089.91	0.004213
1099.55	0.004863
1109.2	0.004833
1118.84	0.002773
1128.49	0.001803
1138.13	0.001393
1147.78	0.002733
1157.42	0.005373
1167.07	0.002143
1176.71	0.001483
1186.36	0.001523
1196	0.002833
1205.64	0.004953
1215.29	0.009953
1224.93	0.018743
1234.58	0.041893
1244.22	0.046483
1253.87	0.014433
1263.51	0.004243
1273.16	0.003023
1282.8	0.003263
1292.45	0.007183
1302.09	0.012483
1311.74	0.008273
1321.38	0.002433
1331.03	0.001333
1340.67	0.0010213
1350.32	0.0010451
1359.96	0.0010116
1369.61	0.0011374
1379.25	0.0010808
1388.9	0.0007819
1398.54	0.0007783
1408.18	0.00097
1417.83	0.0011748
1427.47	0.001533
1437.12	0.001993
1446.76	0.003153
1456.41	0.004673
1466.05	0.005183
1475.7	0.009133
1485.34	0.012503
1494.99	0.011373
1504.63	0.040423
1514.28	0.113403
1523.92	0.088363
1533.57	0.011873
1543.21	0.006033
1552.86	0.005023
1562.5	0.004353
1572.15	0.004593
1581.79	0.002893
1591.44	0.001823
1601.08	0.002283
1610.73	0.003163
1620.37	0.003283
1630.01	0.002423
1639.66	0.001983
1649.3	0.001803
1658.95	0.001913
1668.59	0.001453
1678.24	0.0012446
1687.88	0.001493
1697.53	0.002123
1707.17	0.001743
1716.82	0.0008225
1726.46	0.0007752
1736.11	0.0008765
1745.75	0.0011251
1755.4	0.0008661
1765.04	0.000742
1774.69	0.0005295
1784.33	0.0006155
1793.98	0.0005078
1803.62	0.0005379
1813.27	0.0005079
1822.91	0.0007058
1832.55	0.0007995
1842.2	0.0007656
1851.84	0.0008396
1861.49	0.001182
1871.13	0.001493
1880.78	0.001503
1890.42	0.000994
1900.07	0.0006967
1909.71	0.0006992
1919.36	0.0006046
1929	0.0005928
1938.65	0.0004753
1948.29	0.0004945
1957.94	0.0005331
1967.58	0.0005618
1977.23	0.0006013
1986.87	0.000601
1996.52	0.0005414
2006.16	0.0004627
2015.81	0.00032305
2025.45	0.0004212
2035.1	0.0005002
2044.74	0.0006945
2054.38	0.0008277
2064.03	0.00079
2073.67	0.0006362
2083.32	0.0004715
2092.96	0.0005371
2102.61	0.0004286
2112.25	0.0004997
2121.9	0.0004314
2131.54	0.0004235
2141.19	0.0005874
2150.83	0.0005257
2160.48	0.0004571
2170.12	0.0004951
2179.77	0.00039924
2189.41	0.0004969
2199.06	0.0005413
2208.7	0.0005227
2218.35	0.0005442
2227.99	0.0004477
2237.64	0.0004646
2247.28	0.0005226
2256.92	0.0005161
2266.57	0.0004968
2276.21	0.0005103
2285.86	0.000531
2295.5	0.0004343
2305.15	0.000518
2314.79	0.000489
2324.44	0.0005802
2334.08	0.0006746
2343.73	0.0005867
2353.37	0.0004379
2363.02	0.0004976
2372.66	0.0003807
2382.31	0.0005939
2391.95	0.0005785
2401.6	0.0006468
2411.24	0.0006401
2420.89	0.0006728
2430.53	0.0005078
2440.18	0.0005807
2449.82	0.0005868
2459.47	0.000575
2469.11	0.0007815
2478.75	0.0008717
2488.4	0.0007438
2498.04	0.0006882
2507.69	0.0006442
2517.33	0.0006783
2526.98	0.0006506
2536.62	0.0007807
2546.27	0.0008041
2555.91	0.0008775
2565.56	0.0008136
2575.2	0.0007597
2584.85	0.0008871
2594.49	0.0006158
2604.14	0.0006908
2613.78	0.0007302
2623.43	0.0006315
2633.07	0.0004392
2642.72	0.00043
2652.36	0.0004062
2662.01	0.0005197
2671.65	0.0005137
2681.29	0.000482
2690.94	0.0005181
2700.58	0.0005055
2710.23	0.0006069
2719.87	0.0007125
2729.52	0.0006478
2739.16	0.000734
2748.81	0.0006133
2758.45	0.0006609
2768.1	0.000553
2777.74	0.0006148
2787.39	0.0006851
2797.03	0.0006904
2806.68	0.0005456
2816.32	0.0005285
2825.97	0.0005066
2835.61	0.0006402
2845.26	0.0005019
2854.9	0.0005597
2864.55	0.0005257
2874.19	0.0005394
2883.84	0.0005933
2893.48	0.0005918
2903.12	0.0004861
2912.77	0.000488
2922.41	0.00038474
2932.06	0.000498
2941.7	0.00033005
2951.35	0.0004686
2960.99	0.0004367
2970.64	0.0002795
2980.28	0.0004217
2989.93	0.00036665
2999.57	0.0005735
3009.22	0.0006477
3018.86	0.000467
3028.51	0.00036579
3038.15	0.0007064
3047.8	0.0007366
3057.44	0.001673
3067.09	0.001803
3076.73	0.0010468
3086.38	0.0010377
3096.02	0.0009983
3105.67	0.0009818
3115.31	0.001523
3124.95	0.001813
3134.6	0.001383
3144.24	0.0011002
3153.89	0.0008264
3163.53	0.0005765
3173.18	0.0005216
3182.82	0.00038992
3192.47	0.0002696
3202.11	0.0002899
3211.76	0.000322686
3221.4	0.000198
3231.05	0.0002992
3240.69	0.0004325
3250.34	0.00030519
3259.98	0.0004532
3269.63	0.00038257
3279.27	0.0002406
3288.92	0.0002457
3298.56	0.0002413
3308.21	0.00037021
3317.85	0.000319456
3327.49	0.0002878
3337.14	0.0002529
3346.78	0.0003373
3356.43	0.00030713
3366.07	0.0002946
3375.72	0.0004511
3385.36	0.0004498
3395.01	0.0005688
3404.65	0.00035007
3414.3	0.000133
3423.94	0.000162
3433.59	0.00030424
3443.23	9.6e-05
3452.88	0.000213
3462.52	0.00037711
3472.17	0.0002251
3481.81	0.0002814
3491.46	0.0005111
3501.1	0.0004575
3510.75	0.0003001
3520.39	0.000198
3530.04	0.0004375
3539.68	0.00036068
3549.32	0.0002339
3558.97	0.000319837
3568.61	0.000109
3578.26	0.0002393
3587.9	0.000103
3597.55	0.0002869
3607.19	0.000196
3616.84	0.00035547
3626.48	0.000315123
3636.13	0.000141
3645.77	0.0002519
3655.42	0.0004689
3665.06	0.000186
3674.71	0.0004016
3684.35	0.0005581
3694	0.00033128
3703.64	0.000316649
3713.29	0.0004454
3722.93	0.0002203
3732.58	0.00036947
3742.22	0.00037248
3751.86	0.0004465
3761.51	0.00030829
3771.15	0.00036732
3780.8	0.00036767
3790.44	0.00032956
3800.09	0.00036399
3809.73	0.0004146
3819.38	0.000321109
3829.02	0.0004345
3838.67	0.0002216
3848.31	0.00031092
3857.96	0.00035163
3867.6	0.0003658
3877.25	0.000317397
3886.89	0.0005971
3896.54	0.000207
3906.18	0.000189
3915.83	0.0002157
3925.47	0.000477
3935.12	0.00038176
3944.76	0.00036488
3954.41	0.000191
3964.05	0.00037928
3973.69	0.000449
3983.34	0.00033198
3992.98	0.0004717
