Infrared Spectrum: 3-(Trifluoromethyl)phenoxyacetonitrile
Formula: C 9 H 6 F 3 N O
CAS: 2145-31-5
State: gas
Origin: EPA-IR VAPOR PHASE LIBRARY
1/CM	ABSORBANCE
549.8	0.00269
559.445	0.001076
569.09	0.001149
578.734	0.0012723
588.379	0.00297
598.024	0.00143289
607.669	0.003
617.313	0.00322
626.958	0.00296
636.603	0.00348
646.248	0.00731
655.893	0.01882
665.537	0.01248
675.182	0.00679
684.827	0.01642
694.472	0.03632
704.116	0.02266
713.761	0.00689
723.406	0.00421
733.051	0.01024
742.695	0.02483
752.34	0.01205
761.985	0.00579
771.63	0.01035
781.275	0.02215
790.919	0.03089
800.564	0.01921
810.209	0.0083
819.854	0.00558
829.498	0.00477
839.143	0.00587
848.788	0.01278
858.433	0.03418
868.078	0.0388
877.722	0.02861
887.367	0.03005
897.012	0.02675
906.657	0.02048
916.301	0.01497
925.946	0.00867
935.591	0.00648
945.236	0.00631
954.88	0.00649
964.525	0.00591
974.17	0.00512
983.815	0.00725
993.46	0.0097
1003.1	0.01352
1012.75	0.01819
1022.39	0.02976
1032.04	0.05589
1041.68	0.09759
1051.33	0.11484
1060.97	0.11743
1070.62	0.08027
1080.26	0.0432
1089.91	0.04177
1099.55	0.04157
1109.2	0.02401
1118.84	0.0261
1128.49	0.05324
1138.13	0.13752
1147.78	0.26833
1157.42	0.23097
1167.07	0.15093
1176.71	0.2199
1186.36	0.17536
1196	0.08465
1205.64	0.08116
1215.29	0.09318
1224.93	0.07186
1234.58	0.04743
1244.22	0.03167
1253.87	0.02586
1263.51	0.03596
1273.16	0.05509
1282.8	0.06499
1292.45	0.07566
1302.09	0.08951
1311.74	0.15207
1321.38	0.38667
1331.03	0.33757
1340.67	0.09679
1350.32	0.03932
1359.96	0.02664
1369.61	0.02022
1379.25	0.01495
1388.9	0.01111
1398.54	0.00964
1408.18	0.0112
1417.83	0.0173
1427.47	0.02413
1437.12	0.04256
1446.76	0.09349
1456.41	0.09762
1466.05	0.03496
1475.7	0.02017
1485.34	0.03145
1494.99	0.03778
1504.63	0.01991
1514.28	0.00855
1523.92	0.00518
1533.57	0.00477
1543.21	0.00464
1552.86	0.00536
1562.5	0.00757
1572.15	0.01256
1581.79	0.02326
1591.44	0.03686
1601.08	0.03465
1610.73	0.02943
1620.37	0.02182
1630.01	0.01096
1639.66	0.00626
1649.3	0.00495
1658.95	0.0048
1668.59	0.00446
1678.24	0.00384
1687.88	0.004
1697.53	0.00405
1707.17	0.00356
1716.82	0.00306
1726.46	0.0031
1736.11	0.00318
1745.75	0.00326
1755.4	0.00375
1765.04	0.00414
1774.69	0.00407
1784.33	0.00343
1793.98	0.00302
1803.62	0.00301
1813.27	0.00276
1822.91	0.00242
1832.55	0.00263
1842.2	0.00277
1851.84	0.00311
1861.49	0.00301
1871.13	0.00379
1880.78	0.00326
1890.42	0.00291
1900.07	0.0028
1909.71	0.00293
1919.36	0.00312
1929	0.00356
1938.65	0.0037
1948.29	0.00392
1957.94	0.00287
1967.58	0.00235
1977.23	0.0022815
1986.87	0.00248
1996.52	0.00235
2006.16	0.00246
2015.81	0.00271
2025.45	0.00302
2035.1	0.00325
2044.74	0.00404
2054.38	0.00472
2064.03	0.00572
2073.67	0.0055
2083.32	0.0048
2092.96	0.0041
2102.61	0.00396
2112.25	0.00341
2121.9	0.00311
2131.54	0.00293
2141.19	0.00259
2150.83	0.00237
2160.48	0.002183
2170.12	0.0026
2179.77	0.00247
2189.41	0.00261
2199.06	0.0028
2208.7	0.00307
2218.35	0.00311
2227.99	0.00354
2237.64	0.00434
2247.28	0.00537
2256.92	0.00514
2266.57	0.00446
2276.21	0.00371
2285.86	0.00358
2295.5	0.00297
2305.15	0.0031
2314.79	0.00301
2324.44	0.00303
2334.08	0.00312
2343.73	0.00361
2353.37	0.00314
2363.02	0.0029
2372.66	0.00253
2382.31	0.00305
2391.95	0.00283
2401.6	0.00277
2411.24	0.00275
2420.89	0.00282
2430.53	0.00266
2440.18	0.00307
2449.82	0.00284
2459.47	0.00299
2469.11	0.00301
2478.75	0.00326
2488.4	0.00338
2498.04	0.00275
2507.69	0.00303
2517.33	0.00293
2526.98	0.00278
2536.62	0.0023331
2546.27	0.00258
2555.91	0.00272
2565.56	0.00243
2575.2	0.0028
2584.85	0.0029
2594.49	0.00299
2604.14	0.00313
2613.78	0.0022256
2623.43	0.00287
2633.07	0.002259
2642.72	0.00307
2652.36	0.00256
2662.01	0.002117
2671.65	0.00273
2681.29	0.0017957
2690.94	0.0025
2700.58	0.0017687
2710.23	0.0019876
2719.87	0.0022677
2729.52	0.00256
2739.16	0.0021677
2748.81	0.0021289
2758.45	0.0022685
2768.1	0.0023377
2777.74	0.0023246
2787.39	0.002302
2797.03	0.0021171
2806.68	0.00257
2816.32	0.00258
2825.97	0.00305
2835.61	0.00304
2845.26	0.00247
2854.9	0.00273
2864.55	0.00347
2874.19	0.00529
2883.84	0.00571
2893.48	0.00444
2903.12	0.00446
2912.77	0.00488
2922.41	0.00742
2932.06	0.01126
2941.7	0.01216
2951.35	0.00804
2960.99	0.00473
2970.64	0.00451
2980.28	0.00574
2989.93	0.0059
2999.57	0.00316
3009.22	0.002122
3018.86	0.00285
3028.51	0.00353
3038.15	0.00431
3047.8	0.0053
3057.44	0.00547
3067.09	0.00565
3076.73	0.00748
3086.38	0.00834
3096.02	0.00598
3105.67	0.0046
3115.31	0.00369
3124.95	0.00266
3134.6	0.0020094
3144.24	0.0016915
3153.89	0.0018886
3163.53	0.0022108
3173.18	0.0018514
3182.82	0.0017661
3192.47	0.0023221
3202.11	0.00245
3211.76	0.0022835
3221.4	0.0021163
3231.05	0.0019389
3240.69	0.0022459
3250.34	0.0020626
3259.98	0.0018575
3269.63	0.0020913
3279.27	0.002003
3288.92	0.0017363
3298.56	0.0018915
3308.21	0.0017372
3317.85	0.0014662
3327.49	0.0017283
3337.14	0.00138891
3346.78	0.00247
3356.43	0.0020809
3366.07	0.0017043
3375.72	0.0013299
3385.36	0.0017545
3395.01	0.001497
3404.65	0.001192
3414.3	0.000665
3423.94	0.0022139
3433.59	0.00138696
3443.23	0.0016359
3452.88	0.0016455
3462.52	0.0018706
3472.17	0.0014937
3481.81	0.002104
3491.46	0.001227
3501.1	0.00133197
3510.75	0.00137744
3520.39	0.001106
3530.04	0.0018159
3539.68	0.001232
3549.32	0.0013292
3558.97	0.0015313
3568.61	0.0014699
3578.26	0.001049
3587.9	0.000855
3597.55	0.001122
3607.19	0.001243
3616.84	0.0015568
3626.48	0.00257
3636.13	0.0015925
3645.77	0.001106
3655.42	0.0016178
3665.06	0.0012523
3674.71	0.0022576
3684.35	0.000858
3694	0.000724
3703.64	0.0015112
3713.29	0.0013415
3722.93	0.0016519
3732.58	0.0018783
3742.22	0.00286
3751.86	0.0016078
3761.51	0.001808
3771.15	0.0017403
3780.8	0.0013028
3790.44	0.0016359
3800.09	0.0012674
3809.73	0.0014406
3819.38	0.0017785
3829.02	0.0013017
3838.67	0.0020969
3848.31	0.0013174
3857.96	0.0016157
3867.6	0.001701
3877.25	0.0017686
3886.89	0.0020839
3896.54	0.001235
3906.18	0.0016217
3915.83	0.0017508
3925.47	0.00263
3935.12	0.0022863
3944.76	0.0019479
3954.41	0.0015908
3964.05	0.000949
3973.69	0.0019399
3983.34	0.00235
3992.98	0.001893
