Infrared Spectrum: 2-Ethylbicyclo[2.2.1]heptane
Formula: C 9 H 16
CAS: 2146-41-0
State: gas
Instrument: HP-GC/MS/IRD
Origin: NIST Mass Spectrometry Data Center
1/CM	ABSORBANCE
550	6.3e-05
562	9.45e-05
574	8.55e-05
586	0.000117
598	0.000135
610	0.000153
622	0.0001035
634	0.000126
646	9.45e-05
658	0.0001035
670	0.000135
682	0.0001035
694	0.0001305
706	0.000144
718	0.000126
730	9.45e-05
742	0.000153
754	0.0001755
766	0.0003195
778	0.000369
790	0.000261
802	0.000261
814	0.0002835
826	0.0003285
838	0.000315
850	0.0002115
862	0.000198
874	0.0002025
886	0.0001935
898	0.000171
910	0.000234
922	0.0003735
934	0.00045
946	0.000477
958	0.0005175
970	0.0003825
982	0.000243
994	0.0001395
1006	0.0001665
1018	0.00018
1030	0.000153
1042	0.000108
1054	0.0001125
1066	0.000117
1078	0.000216
1090	0.000216
1102	0.000189
1114	0.000198
1126	0.000189
1138	0.0001755
1150	0.0001845
1162	0.0002475
1174	0.0003015
1186	0.000189
1198	0.000162
1210	0.000279
1222	0.0003105
1234	0.00027
1246	0.0003645
1258	0.0003735
1270	0.0003375
1282	0.000351
1294	0.0004185
1306	0.0005355
1318	0.000594
1330	0.0005175
1342	0.0003735
1354	0.0002565
1366	0.0004095
1378	0.000684
1390	0.000693
1402	0.0003375
1414	0.000288
1426	0.0004005
1438	0.000999
1450	0.002187
1462	0.002709
1474	0.001989
1486	0.001062
1498	0.000477
1510	0.0002295
1522	0.000162
1534	0.000144
1546	0.0001305
1558	0.0001575
1570	0.000108
1582	0.0001035
1594	7.2e-05
1606	8.1e-05
1618	8.1e-05
1630	7.2e-05
1642	8.55e-05
1654	0.000126
1666	8.55e-05
1678	7.2e-05
1690	6.75e-05
1702	8.55e-05
1714	4.5e-05
1726	3.15e-05
1738	5.4e-05
1750	2.7e-05
1762	2.7e-05
1774	3.15e-05
1786	2.25e-05
1798	2.25e-05
1810	1.35e-05
1822	4.5e-06
1834	3.15e-05
1846	3.15e-05
1858	3.15e-05
1870	1.8e-05
1882	1.35e-05
1894	9e-06
1906	2.25e-05
1918	3.6e-05
1930	9e-06
1942	1.8e-05
1954	1.8e-05
1966	1.35e-05
1978	3.15e-05
1990	4.5e-06
2002	0
2014	3.15e-05
2026	2.7e-05
2038	3.6e-05
2050	3.15e-05
2062	3.15e-05
2074	3.15e-05
2086	4.05e-05
2098	2.7e-05
2110	1.8e-05
2122	1.35e-05
2134	4.05e-05
2146	4.05e-05
2158	3.6e-05
2170	3.6e-05
2182	6.3e-05
2194	5.85e-05
2206	5.85e-05
2218	3.6e-05
2230	5.85e-05
2242	3.6e-05
2254	3.15e-05
2266	3.15e-05
2278	3.15e-05
2290	1.35e-05
2302	2.25e-05
2314	2.25e-05
2326	5.4e-05
2338	6.3e-05
2350	4.05e-05
2362	7.65e-05
2374	6.3e-05
2386	5.4e-05
2398	6.3e-05
2410	3.6e-05
2422	4.5e-05
2434	4.95e-05
2446	3.6e-05
2458	1.8e-05
2470	3.6e-05
2482	4.5e-05
2494	3.15e-05
2506	4.05e-05
2518	3.15e-05
2530	2.7e-05
2542	4.05e-05
2554	6.3e-05
2566	8.1e-05
2578	9e-05
2590	0.000117
2602	0.000144
2614	0.0001575
2626	0.000144
2638	0.000135
2650	0.0001035
2662	0.0001215
2674	0.000117
2686	0.000126
2698	0.0001575
2710	0.000171
2722	0.0001935
2734	0.000261
2746	0.000333
2758	0.0003285
2770	0.000378
2782	0.0004185
2794	0.000468
2806	0.000522
2818	0.0006795
2830	0.0009405
2842	0.0015885
2854	0.0038295
2866	0.0093825
2878	0.0148185
2890	0.0128475
2902	0.0089955
2914	0.0107235
2926	0.015606
2938	0.0245385
2950	0.039564
2962	0.0433935
2974	0.0242775
2986	0.00711
2998	0.002241
3010	0.00117
3022	0.000828
3034	0.000729
3046	0.000648
3058	0.000576
3070	0.000513
3082	0.0004275
3094	0.0003645
3106	0.000261
3118	0.000234
3130	0.000207
3142	0.000216
3154	0.000207
3166	0.000207
3178	0.00018
3190	0.000144
3202	0.0001035
3214	9.45e-05
3226	8.1e-05
3238	5.85e-05
3250	5.85e-05
3262	4.5e-05
3274	7.65e-05
3286	5.4e-05
3298	6.3e-05
3310	6.75e-05
3322	7.65e-05
3334	7.65e-05
3346	9.9e-05
3358	7.2e-05
3370	5.85e-05
3382	6.3e-05
3394	4.5e-05
3406	7.65e-05
3418	7.65e-05
3430	6.3e-05
3442	5.4e-05
3454	5.85e-05
3466	3.15e-05
3478	4.95e-05
3490	9e-06
3502	2.25e-05
3514	4.05e-05
3526	5.85e-05
3538	3.15e-05
3550	2.25e-05
3562	3.15e-05
3574	4.5e-05
3586	7.2e-05
3598	4.95e-05
3610	7.2e-05
3622	6.3e-05
3634	7.65e-05
3646	8.55e-05
3658	6.75e-05
3670	8.1e-05
3682	9.45e-05
3694	9e-05
3706	0.0001485
3718	0.0001305
3730	0.0001035
3742	0.000153
3754	0.0001305
3766	0.0001305
3778	0.0001125
3790	0.0001305
3802	0.0001395
3814	0.0001305
3826	0.000117
3838	0.0001485
