Infrared Spectrum: Ethylidienecyclopentane
Formula: C 7 H 12
CAS: 2146-38-5
State: gas
Instrument: HP-GC/MS/IRD
Origin: NIST Mass Spectrometry Data Center
1/CM	ABSORBANCE
550	0.000843
562	0.000594
574	0.000591
586	0.000753
598	0.000825
610	0.000615
622	0.000324
634	0.000282
646	0.000198
658	0.000222
670	9.3e-05
682	0.000204
694	0.000117
706	0.000183
718	0.000231
730	0.000309
742	0.000354
754	0.00027
766	0.000342
778	0.000585
790	0.001194
802	0.001785
814	0.00189
826	0.0015
838	0.001023
850	0.000663
862	0.000438
874	0.000414
886	0.000393
898	0.000405
910	0.00042
922	0.00057
934	0.000903
946	0.001008
958	0.001092
970	0.000903
982	0.00066
994	0.000429
1006	0.000708
1018	0.000978
1030	0.001041
1042	0.000714
1054	0.000489
1066	0.000471
1078	0.000459
1090	0.000399
1102	0.000312
1114	0.000306
1126	0.000405
1138	0.000393
1150	0.000378
1162	0.000417
1174	0.000453
1186	0.000558
1198	0.000549
1210	0.00048
1222	0.00048
1234	0.00045
1246	0.000339
1258	0.000348
1270	0.000507
1282	0.000699
1294	0.000741
1306	0.000588
1318	0.000444
1330	0.000375
1342	0.000495
1354	0.000624
1366	0.000762
1378	0.00102
1390	0.001017
1402	0.000792
1414	0.000894
1426	0.001539
1438	0.002145
1450	0.002373
1462	0.001818
1474	0.001209
1486	0.000783
1498	0.000537
1510	0.000516
1522	0.000516
1534	0.000483
1546	0.000468
1558	0.000378
1570	0.000324
1582	0.000273
1594	0.000288
1606	0.000267
1618	0.000297
1630	0.000252
1642	0.000231
1654	0.000183
1666	0.000258
1678	0.000294
1690	0.000279
1702	0.000153
1714	8.7e-05
1726	6e-05
1738	6.6e-05
1750	7.2e-05
1762	8.1e-05
1774	7.2e-05
1786	8.4e-05
1798	9e-05
1810	0.000138
1822	0.000183
1834	0.000219
1846	0.000195
1858	0.000171
1870	0.00015
1882	0.000105
1894	9.3e-05
1906	6e-05
1918	5.1e-05
1930	5.4e-05
1942	4.8e-05
1954	3.9e-05
1966	2.1e-05
1978	4.5e-05
1990	0
2002	3.9e-05
2014	3.9e-05
2026	5.1e-05
2038	7.2e-05
2050	6.3e-05
2062	5.1e-05
2074	3.3e-05
2086	3.3e-05
2098	4.8e-05
2110	4.2e-05
2122	3e-05
2134	3.9e-05
2146	2.7e-05
2158	3.9e-05
2170	4.8e-05
2182	7.2e-05
2194	4.8e-05
2206	4.2e-05
2218	3.9e-05
2230	5.7e-05
2242	9e-05
2254	0.000111
2266	7.5e-05
2278	8.1e-05
2290	8.1e-05
2302	8.1e-05
2314	0.000105
2326	9.9e-05
2338	0.000102
2350	0.000108
2362	8.7e-05
2374	6.6e-05
2386	4.5e-05
2398	8.1e-05
2410	7.2e-05
2422	8.7e-05
2434	6.6e-05
2446	5.1e-05
2458	4.5e-05
2470	5.7e-05
2482	7.8e-05
2494	4.5e-05
2506	3.6e-05
2518	3.6e-05
2530	2.7e-05
2542	4.5e-05
2554	3.6e-05
2566	6.6e-05
2578	8.7e-05
2590	0.000126
2602	8.7e-05
2614	9.9e-05
2626	7.5e-05
2638	8.4e-05
2650	7.2e-05
2662	6.3e-05
2674	7.2e-05
2686	0.000138
2698	0.00018
2710	0.000207
2722	0.000273
2734	0.00036
2746	0.000459
2758	0.000525
2770	0.000498
2782	0.000621
2794	0.000819
2806	0.001137
2818	0.001725
2830	0.003015
2842	0.004962
2854	0.007248
2866	0.011253
2878	0.013653
2890	0.013416
2902	0.012363
2914	0.01404
2926	0.017361
2938	0.021999
2950	0.027237
2962	0.03
2974	0.02112
2986	0.011253
2998	0.006942
3010	0.005451
3022	0.004509
3034	0.003696
3046	0.002976
3058	0.002073
3070	0.001263
3082	0.000855
3094	0.00057
3106	0.000429
3118	0.000288
3130	0.000258
3142	0.000243
3154	0.000198
3166	0.000204
3178	0.000165
3190	0.000168
3202	0.000114
3214	0.000108
3226	0.000138
3238	6e-05
3250	8.1e-05
3262	8.7e-05
3274	2.1e-05
3286	7.2e-05
3298	0.000111
3310	9e-05
3322	4.8e-05
3334	6e-05
3346	0.000117
3358	8.1e-05
3370	9.3e-05
3382	0.000135
3394	8.4e-05
3406	9.9e-05
3418	9.3e-05
3430	0.000132
3442	0.000138
3454	0.000126
3466	0.000123
3478	0.000129
3490	0.000117
3502	0.000162
3514	0.000171
3526	0.000216
3538	0.000201
3550	0.000201
3562	0.000165
3574	0.000192
3586	0.000165
3598	0.000159
3610	0.000177
3622	0.000135
3634	0.000177
3646	0.000171
3658	0.000195
3670	0.000168
3682	0.000165
3694	0.000225
3706	0.000189
3718	0.000243
3730	0.000207
3742	0.000177
3754	0.000174
3766	0.000219
3778	0.000255
3790	0.000231
3802	0.00027
3814	0.000261
3826	0.000243
3838	0.000264
