Infrared Spectrum: 2-Amino-6-chlorobenzoic acid
Formula: C 7 H 6 Cl N O 2
CAS: 2148-56-3
State: gas
Origin: EPA-IR VAPOR PHASE LIBRARY
1/CM	ABSORBANCE
549.8	0.014373
559.445	0.016363
569.09	0.019833
578.734	0.014973
588.379	0.012363
598.024	0.009163
607.669	0.009063
617.313	0.008003
626.958	0.007393
636.603	0.007613
646.248	0.007003
655.893	0.009293
665.537	0.014513
675.182	0.019093
684.827	0.016023
694.472	0.014753
704.116	0.017613
713.761	0.012893
723.406	0.008753
733.051	0.006993
742.695	0.007453
752.34	0.009393
761.985	0.013633
771.63	0.014253
781.275	0.014663
790.919	0.014263
800.564	0.014083
810.209	0.009823
819.854	0.007073
829.498	0.006033
839.143	0.005793
848.788	0.005483
858.433	0.005803
868.078	0.006133
877.722	0.007093
887.367	0.008053
897.012	0.011823
906.657	0.015263
916.301	0.012603
925.946	0.005663
935.591	0.003943
945.236	0.003123
954.88	0.003403
964.525	0.003223
974.17	0.002793
983.815	0.002773
993.46	0.003353
1003.1	0.003083
1012.75	0.003493
1022.39	0.005653
1032.04	0.008543
1041.68	0.010073
1051.33	0.009223
1060.97	0.009363
1070.62	0.014353
1080.26	0.024713
1089.91	0.033123
1099.55	0.027923
1109.2	0.016593
1118.84	0.012533
1128.49	0.010573
1138.13	0.009563
1147.78	0.008273
1157.42	0.011293
1167.07	0.015703
1176.71	0.026153
1186.36	0.028893
1196	0.021913
1205.64	0.015263
1215.29	0.013193
1224.93	0.012103
1234.58	0.009413
1244.22	0.008673
1253.87	0.009793
1263.51	0.013343
1273.16	0.016073
1282.8	0.016533
1292.45	0.014133
1302.09	0.016363
1311.74	0.023123
1321.38	0.029673
1331.03	0.028203
1340.67	0.019803
1350.32	0.015143
1359.96	0.013693
1369.61	0.011403
1379.25	0.009033
1388.9	0.006193
1398.54	0.004023
1408.18	0.003293
1417.83	0.003553
1427.47	0.005443
1437.12	0.013723
1446.76	0.025983
1456.41	0.031883
1466.05	0.021423
1475.7	0.008983
1485.34	0.004963
1494.99	0.004043
1504.63	0.004193
1514.28	0.004553
1523.92	0.005673
1533.57	0.007323
1543.21	0.009313
1552.86	0.013793
1562.5	0.020153
1572.15	0.023043
1581.79	0.023993
1591.44	0.029303
1601.08	0.039633
1610.73	0.053223
1620.37	0.049583
1630.01	0.028853
1639.66	0.013983
1649.3	0.007663
1658.95	0.005973
1668.59	0.006123
1678.24	0.007903
1687.88	0.010063
1697.53	0.011723
1707.17	0.015773
1716.82	0.030393
1726.46	0.052153
1736.11	0.057683
1745.75	0.041943
1755.4	0.031173
1765.04	0.027183
1774.69	0.025223
1784.33	0.016613
1793.98	0.008343
1803.62	0.005443
1813.27	0.003993
1822.91	0.002863
1832.55	0.002083
1842.2	0.001743
1851.84	0.001613
1861.49	0.001453
1871.13	0.001203
1880.78	0.0009296
1890.42	0.0010709
1900.07	0.001453
1909.71	0.001533
1919.36	0.001693
1929	0.001443
1938.65	0.0008768
1948.29	0.0009353
1957.94	0.0011247
1967.58	0.0009918
1977.23	0.0007954
1986.87	0.0008642
1996.52	0.0009156
2006.16	0.0007516
2015.81	0.0007094
2025.45	0.0007913
2035.1	0.0007318
2044.74	0.0006687
2054.38	0.0006118
2064.03	0.0006165
2073.67	0.0006953
2083.32	0.0006932
2092.96	0.0007097
2102.61	0.0007082
2112.25	0.0008024
2121.9	0.0006963
2131.54	0.0008886
2141.19	0.0007437
2150.83	0.0009177
2160.48	0.0007326
2170.12	0.0009564
2179.77	0.0010736
2189.41	0.0008754
2199.06	0.0006744
2208.7	0.0007477
2218.35	0.0007527
2227.99	0.0007254
2237.64	0.000605
2247.28	0.0005379
2256.92	0.0006139
2266.57	0.0006806
2276.21	0.0006454
2285.86	0.00066
2295.5	0.0010058
2305.15	0.0009692
2314.79	0.001393
2324.44	0.001753
2334.08	0.001373
2343.73	0.001273
2353.37	0.001443
2363.02	0.001743
2372.66	0.001623
2382.31	0.0007278
2391.95	0.0007878
2401.6	0.0007699
2411.24	0.0004792
2420.89	0.0007098
2430.53	0.000558
2440.18	0.000437
2449.82	0.0007164
2459.47	0.0005277
2469.11	0.000567
2478.75	0.0005461
2488.4	0.0006612
2498.04	0.000532
2507.69	0.0008182
2517.33	0.0006437
2526.98	0.0006066
2536.62	0.000467
2546.27	0.0005113
2555.91	0.0005703
2565.56	0.0004966
2575.2	0.0004496
2584.85	0.000653
2594.49	0.0006508
2604.14	0.0008655
2613.78	0.0008908
2623.43	0.0006942
2633.07	0.0005021
2642.72	0.000513
2652.36	0.0004468
2662.01	0.0005112
2671.65	0.0003
2681.29	0.0007324
2690.94	0.0005837
2700.58	0.000636
2710.23	0.0008374
2719.87	0.0004934
2729.52	0.0009157
2739.16	0.0009073
2748.81	0.0006283
2758.45	0.0004491
2768.1	0.0006257
2777.74	0.0007818
2787.39	0.0003422
2797.03	0.0002889
2806.68	0.000417
2816.32	0.0004304
2825.97	0.0004543
2835.61	0.0004496
2845.26	0.0006453
2854.9	0.0006861
2864.55	0.0008138
2874.19	0.001143
2883.84	0.0009127
2893.48	0.0005002
2903.12	0.0005759
2912.77	0.0005657
2922.41	0.0005082
2932.06	0.00021099
2941.7	0.0003762
2951.35	0.0002593
2960.99	0.0004065
2970.64	0.0006802
2980.28	0.0005253
2989.93	0.0006254
2999.57	0.0006843
3009.22	0.001163
3018.86	0.001583
3028.51	0.002243
3038.15	0.002563
3047.8	0.002393
3057.44	0.004143
3067.09	0.005563
3076.73	0.003913
3086.38	0.001983
3096.02	0.001343
3105.67	0.0009373
3115.31	0.0008508
3124.95	0.0011153
3134.6	0.0005345
3144.24	0.0006889
3153.89	0.0004191
3163.53	0.001373
3173.18	0.0006344
3182.82	0.0008707
3192.47	0.0007905
3202.11	0.0009395
3211.76	0.0008677
3221.4	0.001193
3231.05	0.0008063
3240.69	0.0008572
3250.34	0.0007721
3259.98	0.0008204
3269.63	0.0010873
3279.27	0.0007904
3288.92	0.0009366
3298.56	0.0008449
3308.21	0.0007031
3317.85	0.001143
3327.49	0.001723
3337.14	0.001703
3346.78	0.002663
3356.43	0.002733
3366.07	0.003753
3375.72	0.004783
3385.36	0.007013
3395.01	0.011083
3404.65	0.011053
3414.3	0.007083
3423.94	0.004213
3433.59	0.003393
3443.23	0.002343
3452.88	0.002243
3462.52	0.002253
3472.17	0.003283
3481.81	0.004733
3491.46	0.006463
3501.1	0.008823
3510.75	0.012813
3520.39	0.012933
3530.04	0.008863
3539.68	0.006243
3549.32	0.009233
3558.97	0.025283
3568.61	0.027973
3578.26	0.010773
3587.9	0.002583
3597.55	0.001753
3607.19	0.0011168
3616.84	0.0007079
3626.48	0.001193
3636.13	0.001163
3645.77	0.0007062
3655.42	0.0007262
3665.06	0.0003533
3674.71	0.0006061
3684.35	0.0006499
3694	0.0007536
3703.64	0.0007261
3713.29	0.0004758
3722.93	0.0004161
3732.58	0.0004134
3742.22	0.0002407
3751.86	0.0007446
3761.51	0.0002769
3771.15	0.0005937
3780.8	0.0005008
3790.44	0.0004555
3800.09	0.0007056
3809.73	0.0003768
3819.38	0.0004964
3829.02	0.0004118
3838.67	0.000496
3848.31	0.0004384
3857.96	0.0004829
3867.6	0.0006238
3877.25	3.56e-05
3886.89	0.0003804
3896.54	0.00012717
3906.18	0.0003183
3915.83	5.06e-05
3925.47	0.0005357
3935.12	0.0006404
3944.76	0.0006078
3954.41	0.00056
3964.05	0.0007109
3973.69	0.00015588
3983.34	0.000286
3992.98	0.0007961
