Infrared Spectrum: Dibenzo[f,h]pyrido[2,3-b]quinoxaline
Formula: C19 H11 N3
CAS: 215-66-7
State: SOLID (SPLIT MULL), FLUOROLUBE FOR 3800-1330 CM^-^1, NUJOL FOR 1330-400 CM^-^1
Melting point: 216 C
Class: COBLENTZ III
Instrument: DOW KBr FOREPRISM-GRATING
Instrument parameters: BLAZED AT 3.5, 12.0, 20.0 MICRON AND CHANGED AT 5.0, 7.5, 14.9 MICRON
Sampling: TRANSMISSION
Resolution: 2
Origin: DOW CHEMICAL COMPANY
1/CM	TRANSMITTANCE
381	0.7892
390	0.7853
399	0.7831
408	0.7893
417	0.7866
426	0.7677
435	0.6086
444	0.7665
453	0.7886
462	0.7923
471	0.7998
480	0.7349
489	0.754
498	0.8173
507	0.8232
516	0.8158
525	0.8108
534	0.8057
543	0.7925
552	0.4182
561	0.7741
570	0.795
579	0.6704
588	0.817
597	0.8106
606	0.6468
615	0.8179
624	0.8295
633	0.8249
642	0.8267
651	0.8254
660	0.8325
669	0.8338
678	0.8203
687	0.6713
696	0.7723
705	0.6721
714	0.563
723	0.6507
732	0.7493
741	0.7487
750	0.5647
759	0.1016
768	0.5757
777	0.3698
786	0.4748
795	0.7916
804	0.5167
813	0.7871
822	0.7846
831	0.7715
840	0.8338
849	0.8338
858	0.673
867	0.8258
876	0.8278
885	0.8168
894	0.8102
903	0.808
912	0.7941
921	0.8133
930	0.7952
939	0.768
948	0.6944
957	0.7524
966	0.6996
975	0.7584
984	0.7666
993	0.756
1002	0.7447
1011	0.6756
1020	0.4531
1029	0.7151
1038	0.5342
1047	0.7353
1056	0.7347
1065	0.6225
1074	0.7
1083	0.7216
1092	0.6981
1101	0.5559
1110	0.6716
1119	0.6435
1128	0.5775
1137	0.6735
1146	0.6781
1155	0.5182
1164	0.606
1173	0.6719
1182	0.6369
1191	0.5093
1200	0.4079
1209	0.5688
1218	0.6012
1227	0.5973
1236	0.6415
1245	0.6523
1254	0.6375
1263	0.6002
1272	0.6095
1281	0.5953
1290	0.5503
1299	0.4737
1308	0.5416
1317	0.5358
1326	0.7301
1335	0.6096
1344	0.4715
1353	0.4444
1362	0.5521
1371	0.7522
1380	0.6965
1389	0.7725
1398	0.8572
1407	0.8366
1416	0.7466
1425	0.7334
1434	0.6464
1443	0.3478
1452	0.7236
1461	0.841
1470	0.8328
1479	0.8509
1488	0.6749
1497	0.3415
1506	0.7935
1515	0.8815
1524	0.8586
1533	0.7713
1542	0.7159
1551	0.8681
1560	0.7883
1569	0.8453
1578	0.8027
1587	0.8005
1596	0.5863
1605	0.6393
1614	0.8085
1623	0.7778
1632	0.7958
1641	0.872
1650	0.8819
1659	0.8926
1668	0.9004
1677	0.905
1686	0.9076
1695	0.903
1704	0.8955
1713	0.8912
1722	0.8879
1731	0.887
1740	0.8865
1749	0.886
1758	0.8855
1767	0.8828
1776	0.8796
1785	0.8765
1794	0.8726
1803	0.868
1812	0.8637
1821	0.8609
1830	0.8551
1839	0.8496
1848	0.847
1857	0.8464
1866	0.8443
1875	0.8383
1884	0.8243
1893	0.8139
1902	0.8097
1911	0.8038
1920	0.7942
1929	0.7941
1938	0.7906
1947	0.7819
1956	0.7827
1965	0.7844
1974	0.7832
1983	0.7851
1992	0.8078
2001	0.8206
2010	0.8183
2019	0.8146
2028	0.8102
2037	0.8054
2046	0.8009
2055	0.7968
2064	0.7931
2073	0.7888
2082	0.7847
2091	0.7811
2100	0.7775
2109	0.7737
2118	0.77
2127	0.7659
2136	0.7619
2145	0.7578
2154	0.7536
2163	0.7492
2172	0.7449
2181	0.7406
2190	0.736
2199	0.7314
2208	0.7256
2217	0.7196
2226	0.7136
2235	0.7077
2244	0.7019
2253	0.6959
2262	0.6897
2271	0.6849
2280	0.6842
2289	0.6882
2298	0.6748
2307	0.6698
2316	0.6795
2325	0.6678
2334	0.659
2343	0.6583
2352	0.6575
2361	0.6539
2370	0.6512
2379	0.6486
2388	0.6458
2397	0.6424
2406	0.639
2415	0.6355
2424	0.6318
2433	0.6282
2442	0.6246
2451	0.6211
2460	0.6179
2469	0.6146
2478	0.6116
2487	0.6088
2496	0.606
2505	0.6032
2514	0.6002
2523	0.5971
2532	0.5941
2541	0.591
2550	0.5879
2559	0.5848
2568	0.5817
2577	0.5784
2586	0.5751
2595	0.5718
2604	0.5685
2613	0.5652
2622	0.562
2631	0.5586
2640	0.5554
2649	0.552
2658	0.5495
2667	0.5472
2676	0.5449
2685	0.5423
2694	0.5396
2703	0.536
2712	0.5321
2721	0.5282
2730	0.5243
2739	0.5204
2748	0.5165
2757	0.5126
2766	0.508
2775	0.5031
2784	0.4983
2793	0.4934
2802	0.4888
2811	0.4842
2820	0.4786
2829	0.4721
2838	0.465
2847	0.4591
2856	0.4571
2865	0.4553
2874	0.453
2883	0.448
2892	0.4408
2901	0.4327
2910	0.4236
2919	0.4168
2928	0.4152
2937	0.4162
2946	0.4165
2955	0.4166
2964	0.416
2973	0.4131
2982	0.4075
2991	0.3989
3000	0.3868
3009	0.3688
3018	0.3489
3027	0.357
3036	0.362
3045	0.3592
3054	0.3529
3063	0.3292
3072	0.3354
3081	0.3876
3090	0.3981
3099	0.3977
3108	0.3992
3117	0.3997
3126	0.3984
3135	0.3969
3144	0.3954
3153	0.3937
3162	0.3919
3171	0.3896
3180	0.3871
3189	0.3845
3198	0.3818
3207	0.3793
3216	0.377
3225	0.3746
3234	0.3726
3243	0.3705
3252	0.3686
3261	0.3659
3270	0.3631
3279	0.3605
3288	0.3581
3297	0.3557
3306	0.3526
3315	0.3493
3324	0.3471
3333	0.3467
3342	0.3477
3351	0.3487
3360	0.3487
3369	0.3477
3378	0.3467
3387	0.3457
3396	0.3447
3405	0.3438
3414	0.3427
3423	0.3413
3432	0.34
3441	0.3385
3450	0.3376
3459	0.3369
3468	0.3364
3477	0.3362
3486	0.3361
3495	0.3361
3504	0.3361
3513	0.336
3522	0.3356
3531	0.3351
3540	0.3342
3549	0.3332
3558	0.3324
3567	0.3313
3576	0.3301
3585	0.3289
3594	0.3279
3603	0.3269
3612	0.3257
3621	0.3245
3630	0.3232
3639	0.3217
3648	0.3205
3657	0.3193
3666	0.3182
3675	0.3169
3684	0.3157
3693	0.3145
3702	0.3133
3711	0.3122
3720	0.3111
3729	0.31
3738	0.3091
3747	0.3081
3756	0.306
3765	0.2992
3774	0.3031
3783	0.3023
3792	0.2987
