Infrared Spectrum: Methyl 2,5-dihydroxybenzoate
Formula: C 8 H 8 O 4
CAS: 2150-46-1
State: gas
Origin: EPA-IR VAPOR PHASE LIBRARY
1/CM	ABSORBANCE
549.8	0.0121015
559.445	0.0060915
569.09	0.0030915
578.734	0.0024815
588.379	0.0026115
598.024	0.0026415
607.669	0.0029715
617.313	0.0029715
626.958	0.0028915
636.603	0.0032415
646.248	0.0037215
655.893	0.0050015
665.537	0.0066815
675.182	0.0096515
684.827	0.0114415
694.472	0.0080315
704.116	0.0036915
713.761	0.0019315
723.406	0.0016515
733.051	0.0017515
742.695	0.0017015
752.34	0.0025515
761.985	0.0051115
771.63	0.0187415
781.275	0.0249115
790.919	0.0126915
800.564	0.0063015
810.209	0.0066715
819.854	0.0130315
829.498	0.0142815
839.143	0.0074415
848.788	0.0030415
858.433	0.0022115
868.078	0.0026215
877.722	0.0030115
887.367	0.0032915
897.012	0.0024015
906.657	0.0023015
916.301	0.0026715
925.946	0.0020615
935.591	0.0014715
945.236	0.0012515
954.88	0.0015715
964.525	0.0034315
974.17	0.0066615
983.815	0.0081315
993.46	0.0045315
1003.1	0.0018115
1012.75	0.0017715
1022.39	0.0020015
1032.04	0.0021815
1041.68	0.0030115
1051.33	0.0044615
1060.97	0.0100815
1070.62	0.0237815
1080.26	0.0272315
1089.91	0.0139115
1099.55	0.0086915
1109.2	0.0088215
1118.84	0.0110715
1128.49	0.0131415
1138.13	0.0115315
1147.78	0.0122715
1157.42	0.0233615
1167.07	0.0523315
1176.71	0.0660515
1186.36	0.0614515
1196	0.0626515
1205.64	0.0763415
1215.29	0.0967615
1224.93	0.0915115
1234.58	0.0558015
1244.22	0.0333515
1253.87	0.0268715
1263.51	0.0222415
1273.16	0.0268715
1282.8	0.0422715
1292.45	0.0629015
1302.09	0.0607815
1311.74	0.0351915
1321.38	0.0234415
1331.03	0.0291215
1340.67	0.0302415
1350.32	0.0228015
1359.96	0.0187115
1369.61	0.0213815
1379.25	0.0237715
1388.9	0.0207115
1398.54	0.0142415
1408.18	0.0100515
1417.83	0.0095615
1427.47	0.0121915
1437.12	0.0265715
1446.76	0.0328215
1456.41	0.0207515
1466.05	0.0219515
1475.7	0.0308315
1485.34	0.0500515
1494.99	0.0555815
1504.63	0.0341915
1514.28	0.0147415
1523.92	0.0075215
1533.57	0.0049415
1543.21	0.0037215
1552.86	0.0032415
1562.5	0.0033815
1572.15	0.0047115
1581.79	0.0074315
1591.44	0.0091415
1601.08	0.0092015
1610.73	0.0102715
1620.37	0.0120415
1630.01	0.0115115
1639.66	0.0084215
1649.3	0.0062315
1658.95	0.0062915
1668.59	0.0083015
1678.24	0.0159115
1687.88	0.0441815
1697.53	0.0704715
1707.17	0.0477615
1716.82	0.0167615
1726.46	0.0087515
1736.11	0.0085015
1745.75	0.0108115
1755.4	0.0102415
1765.04	0.0064115
1774.69	0.0038615
1784.33	0.0023215
1793.98	0.0015915
1803.62	0.0012715
1813.27	0.0011115
1822.91	0.0009049
1832.55	0.0008814
1842.2	0.0010074
1851.84	0.0012015
1861.49	0.0010915
1871.13	0.0009753
1880.78	0.0011215
1890.42	0.0012115
1900.07	0.0010094
1909.71	0.0005915
1919.36	0.0005436
1929	0.0004913
1938.65	0.0006084
1948.29	0.0006731
1957.94	0.0006875
1967.58	0.0007058
1977.23	0.0006971
1986.87	0.0007719
1996.52	0.0007249
2006.16	0.0007214
2015.81	0.0007527
2025.45	0.0007859
2035.1	0.0010096
2044.74	0.0011315
2054.38	0.0010715
2064.03	0.0009374
2073.67	0.0007342
2083.32	0.0006623
2092.96	0.0006199
2102.61	0.0005835
2112.25	0.000463
2121.9	0.0005271
2131.54	0.0006121
2141.19	0.000517
2150.83	0.0004868
2160.48	0.0003942
2170.12	0.0003861
2179.77	0.0003504
2189.41	0.0004375
2199.06	0.0004649
2208.7	0.0004757
2218.35	0.0004149
2227.99	0.0002587
2237.64	0.0002755
2247.28	0.0003246
2256.92	0.0004979
2266.57	0.000387
2276.21	0.0004517
2285.86	0.0004075
2295.5	0.000454
2305.15	0.0004471
2314.79	0.0001974
2324.44	0.0003296
2334.08	0.0003682
2343.73	0.000378
2353.37	0.0005551
2363.02	0.0005897
2372.66	0.0007035
2382.31	0.0007854
2391.95	0.000805
2401.6	0.000776
2411.24	0.0007525
2420.89	0.0006377
2430.53	0.000507
2440.18	0.0005394
2449.82	0.000486
2459.47	0.0005251
2469.11	0.0006528
2478.75	0.0007168
2488.4	0.000656
2498.04	0.0007568
2507.69	0.000694
2517.33	0.0005829
2526.98	0.000463
2536.62	0.0005509
2546.27	0.0004621
2555.91	0.0006318
2565.56	0.000598
2575.2	0.0006013
2584.85	0.0005689
2594.49	0.0005765
2604.14	0.0006576
2613.78	0.0006646
2623.43	0.0006678
2633.07	0.0007038
2642.72	0.000683
2652.36	0.000664
2662.01	0.0007139
2671.65	0.0006432
2681.29	0.0006166
2690.94	0.0007246
2700.58	0.0005631
2710.23	0.0006722
2719.87	0.0006447
2729.52	0.0007605
2739.16	0.0006896
2748.81	0.0007865
2758.45	0.0007565
2768.1	0.0008496
2777.74	0.0007812
2787.39	0.0008967
2797.03	0.0008333
2806.68	0.0007277
2816.32	0.0008454
2825.97	0.0010233
2835.61	0.0012115
2845.26	0.0015515
2854.9	0.0023315
2864.55	0.0022615
2874.19	0.0015215
2883.84	0.0014715
2893.48	0.0018515
2903.12	0.0022415
2912.77	0.0025415
2922.41	0.0026515
2932.06	0.0024315
2941.7	0.0030415
2951.35	0.0061115
2960.99	0.0133815
2970.64	0.0108715
2980.28	0.0038415
2989.93	0.0029915
2999.57	0.0035815
3009.22	0.0040215
3018.86	0.0041915
3028.51	0.0050515
3038.15	0.0052015
3047.8	0.0044315
3057.44	0.0040215
3067.09	0.0032815
3076.73	0.0032115
3086.38	0.0027815
3096.02	0.0024315
3105.67	0.0023015
3115.31	0.0023415
3124.95	0.0024115
3134.6	0.0023315
3144.24	0.0021815
3153.89	0.0020315
3163.53	0.0017415
3173.18	0.0018315
3182.82	0.0017115
3192.47	0.0019115
3202.11	0.0020115
3211.76	0.0022515
3221.4	0.0026215
3231.05	0.0033515
3240.69	0.0040215
3250.34	0.0057915
3259.98	0.0081715
3269.63	0.0107615
3279.27	0.0128215
3288.92	0.0135815
3298.56	0.0132815
3308.21	0.0122915
3317.85	0.0109315
3327.49	0.0095915
3337.14	0.0086915
3346.78	0.0077015
3356.43	0.0073115
3366.07	0.0067615
3375.72	0.0065715
3385.36	0.0060415
3395.01	0.0059115
3404.65	0.0051415
3414.3	0.0048215
3423.94	0.0043615
3433.59	0.0038515
3443.23	0.0034915
3452.88	0.0032315
3462.52	0.0028915
3472.17	0.0027115
3481.81	0.0029615
3491.46	0.0038115
3501.1	0.0052815
3510.75	0.0053915
3520.39	0.0038815
3530.04	0.0030715
3539.68	0.0024415
3549.32	0.0019215
3558.97	0.0013615
3568.61	0.0011315
3578.26	0.0010626
3587.9	0.001008
3597.55	0.0009964
3607.19	0.0010191
3616.84	0.0010715
3626.48	0.0016315
3636.13	0.0035615
3645.77	0.0102615
3655.42	0.0193515
3665.06	0.0132415
3674.71	0.0019315
3684.35	0.0007115
3694	0.0005407
3703.64	0.0002329
3713.29	0.0003011
3722.93	0.00018
3732.58	0.0002925
3742.22	0.0002268
3751.86	6.905e-05
3761.51	0.0001802
3771.15	8.986e-05
3780.8	0.0002939
3790.44	0.0002503
3800.09	0.0005145
3809.73	0.0003621
3819.38	0.0003897
3829.02	0.0003449
3838.67	0.000348
3848.31	0.0003882
3857.96	0.0004337
3867.6	0.0003579
3877.25	0.0002707
3886.89	0.0004468
3896.54	0.0001985
3906.18	0.00015268
3915.83	0.0002535
3925.47	0.0002799
3935.12	0.000278
3944.76	0.00017027
3954.41	9.572e-05
3964.05	0.0001173
3973.69	0.00013065
3983.34	0.0002787
3992.98	0.00016856
