Infrared Spectrum: ISOPROPYL-O-CHLOROCARBANILATE
Formula: C10 H12 Cl N O2
CAS: 2150-22-3
State: SOLUTION (10% CCl4 FOR 5000-1330, 10% CS2 FOR 1330-625 CM^-^1)
Class: COBLENTZ
Instrument: Not specified, most likely a prism, grating, or hybrid spectrometer.
Sampling: TRANSMISSION
Path length: 0.0127 CM, 0.0120 CM
Resolution: 4
Origin: DOW CHEMICAL COMPANY
MICROMETERS	TRANSMITTANCE
2.068	0.905
2.1091	0.905
2.1502	0.904
2.1913	0.905
2.23239	0.898
2.27349	0.886
2.31459	0.888
2.35569	0.892
2.39679	0.892
2.43789	0.89
2.47899	0.902
2.52008	0.904
2.56118	0.902
2.60228	0.912
2.64338	0.912
2.68448	0.902
2.72558	0.902
2.76667	0.905
2.80777	0.902
2.84887	0.883
2.88997	0.655
2.93107	0.594
2.97217	0.876
3.01327	0.88
3.05436	0.892
3.09546	0.888
3.13656	0.883
3.17766	0.871
3.21876	0.833
3.25986	0.803
3.30096	0.803
3.34205	0.525
3.38315	0.553
3.42425	0.775
3.46535	0.809
3.50645	0.878
3.54755	0.883
3.58864	0.885
3.62974	0.881
3.67084	0.883
3.71194	0.9
3.75304	0.893
3.79414	0.902
3.83524	0.89
3.87633	0.88
3.91743	0.886
3.95853	0.888
3.99963	0.89
4.04073	0.893
4.08183	0.898
4.12293	0.897
4.16402	0.893
4.20512	0.892
4.24622	0.888
4.28732	0.873
4.32842	0.869
4.36952	0.863
4.41062	0.868
4.45171	0.88
4.49281	0.893
4.53391	0.9
4.57501	0.9
4.61611	0.9
4.65721	0.902
4.6983	0.898
4.7394	0.893
4.7805	0.895
4.8216	0.902
4.8627	0.902
4.9038	0.9
4.9449	0.895
4.98599	0.902
5.02709	0.898
5.06819	0.892
5.10929	0.869
5.15039	0.866
5.19149	0.876
5.23259	0.863
5.27368	0.885
5.31478	0.873
5.35588	0.863
5.39698	0.852
5.43808	0.82
5.47918	0.808
5.52028	0.785
5.56137	0.738
5.60247	0.729
5.64357	0.71
5.68467	0.455
5.72577	0.154
5.76687	0.027
5.80796	0.119
5.84906	0.546
5.89016	0.638
5.93126	0.698
5.97236	0.782
6.01346	0.791
6.05456	0.77
6.09565	0.741
6.13675	0.705
6.17785	0.631
6.21895	0.344
6.26005	0.073
6.30115	0.198
6.34225	0.392
6.38334	0.393
6.42444	0.277
6.46554	0.198
6.50664	0.065
6.54774	0.018
6.58884	0.02
6.62993	0.049
6.67103	0.349
6.71213	0.529
6.75323	0.544
6.79433	0.363
6.83543	0.436
6.87653	0.364
6.91762	0.148
6.95872	0.126
6.99982	0.453
7.04092	0.585
7.08202	0.59
7.12312	0.664
7.16422	0.563
7.20531	0.419
7.24641	0.429
7.28751	0.363
7.32861	0.688
7.36971	0.705
7.41081	0.669
7.45191	0.614
7.493	0.587
7.5341	0.565
7.5752	0.493
7.6163	0.222
7.6574	0.109
7.6985	0.34
7.73959	0.4
7.78069	0.416
7.82179	0.595
7.86289	0.606
7.90399	0.549
7.94509	0.448
7.98619	0.244
8.02728	0.092
8.06838	0.159
8.10948	0.251
8.15058	0.078
8.19168	0.022
8.23278	0.006
8.27388	0.011
8.31497	0.114
8.35607	0.275
8.39717	0.296
8.43827	0.202
8.47937	0.118
8.52047	0.226
8.56157	0.381
8.60266	0.434
8.64376	0.455
8.68486	0.4
8.72596	0.311
8.76706	0.34
8.80816	0.392
8.84925	0.39
8.89035	0.352
8.93145	0.241
8.97255	0.082
9.01365	0.013
9.05475	0.044
9.09585	0.208
9.13694	0.467
9.17804	0.594
9.21914	0.642
9.26024	0.642
9.30134	0.501
9.34244	0.282
9.38354	0.191
9.42463	0.308
9.46573	0.566
9.50683	0.662
9.54793	0.551
9.58903	0.301
9.63013	0.121
9.67122	0.042
9.71232	0.101
9.75342	0.405
9.79452	0.563
9.83562	0.717
9.87672	0.784
9.91782	0.811
9.95891	0.84
10	0.852
10.0411	0.863
10.0822	0.869
10.1233	0.869
10.1644	0.869
10.2055	0.868
10.2466	0.861
10.2877	0.859
10.3288	0.873
10.3699	0.881
10.411	0.881
10.4521	0.881
10.4932	0.876
10.5343	0.859
10.5754	0.818
10.6165	0.755
10.6576	0.647
10.6987	0.577
10.7398	0.619
10.7809	0.488
10.822	0.4
10.8631	0.553
10.9042	0.748
10.9453	0.816
10.9864	0.851
11.0275	0.868
11.0686	0.875
11.1097	0.875
11.1508	0.871
11.1919	0.859
11.233	0.832
11.2741	0.796
11.3152	0.751
11.3563	0.739
11.3974	0.734
11.4385	0.732
11.4796	0.732
11.5207	0.732
11.5618	0.731
11.6029	0.708
11.644	0.681
11.6851	0.66
11.7262	0.683
11.7672	0.726
11.8083	0.78
11.8494	0.806
11.8905	0.83
11.9316	0.847
11.9727	0.859
12.0138	0.864
12.0549	0.863
12.096	0.861
12.1371	0.849
12.1782	0.833
12.2193	0.823
12.2604	0.803
12.3015	0.765
12.3426	0.696
12.3837	0.58
12.4248	0.501
12.4659	0.578
12.507	0.669
12.5481	0.729
12.5892	0.756
12.6303	0.767
12.6714	0.768
12.7125	0.763
12.7536	0.753
12.7947	0.731
12.8358	0.7
12.8769	0.645
12.918	0.559
12.9591	0.462
13.0002	0.309
13.0413	0.205
13.0824	0.155
13.1235	0.229
13.1646	0.32
13.2057	0.33
13.2468	0.265
13.2879	0.181
13.329	0.07
13.3701	0.015
13.4112	0.025
13.4523	0.135
13.4934	0.342
13.5345	0.568
13.5756	0.626
13.6167	0.672
13.6578	0.696
13.6989	0.71
13.74	0.72
13.7811	0.724
13.8222	0.727
13.8633	0.727
13.9044	0.727
13.9455	0.726
13.9866	0.72
14.0277	0.714
14.0688	0.707
14.1099	0.7
14.151	0.691
14.1921	0.676
14.2332	0.662
14.2743	0.636
14.3154	0.592
14.3565	0.505
14.3976	0.453
14.4387	0.378
14.4798	0.364
14.5208	0.422
14.5619	0.517
14.603	0.573
14.6441	0.59
14.6852	0.601
14.7263	0.602
14.7674	0.602
14.8085	0.595
14.8496	0.59
14.8907	0.583
14.9318	0.577
14.9729	0.571
15.014	0.563
15.0551	0.546
15.0962	0.537
15.1373	0.525
15.1784	0.513
15.2195	0.5
15.2606	0.493
15.3017	0.486
15.3428	0.479
15.3839	0.472
15.425	0.467
15.4661	0.464
15.5072	0.458
15.5483	0.452
15.5894	0.445
15.6305	0.441
15.6716	0.438
15.7127	0.429
15.7538	0.421
15.7949	0.412
15.836	0.409
15.8771	0.409
