Infrared Spectrum: 2-Mercaptoethyl ether
Formula: C 4 H 10 O S 2
CAS: 2150-02-9
State: gas
Origin: EPA-IR VAPOR PHASE LIBRARY
1/CM	ABSORBANCE
549.8	0.0009057
559.445	0.0004698
569.09	0.0007309
578.734	0.0005372
588.379	0.000775
598.024	0.0003426
607.669	0.0008213
617.313	0.0007604
626.958	0.0007341
636.603	0.0007407
646.248	0.001838
655.893	0.002528
665.537	0.003218
675.182	0.003188
684.827	0.002028
694.472	0.001438
704.116	0.001698
713.761	0.002738
723.406	0.003388
733.051	0.003258
742.695	0.003318
752.34	0.003728
761.985	0.004168
771.63	0.003278
781.275	0.002078
790.919	0.001558
800.564	0.001288
810.209	0.0010821
819.854	0.0011554
829.498	0.0011869
839.143	0.001308
848.788	0.001458
858.433	0.001678
868.078	0.002098
877.722	0.002388
887.367	0.002178
897.012	0.002218
906.657	0.002328
916.301	0.002498
925.946	0.002748
935.591	0.003358
945.236	0.003728
954.88	0.004108
964.525	0.004668
974.17	0.005108
983.815	0.005748
993.46	0.006398
1003.1	0.007378
1012.75	0.008908
1022.39	0.010818
1032.04	0.013348
1041.68	0.016268
1051.33	0.017578
1060.97	0.019418
1070.62	0.023248
1080.26	0.031658
1089.91	0.050618
1099.55	0.083418
1109.2	0.112798
1118.84	0.113188
1128.49	0.082468
1138.13	0.044678
1147.78	0.023938
1157.42	0.015218
1167.07	0.011528
1176.71	0.010078
1186.36	0.010518
1196	0.011898
1205.64	0.012158
1215.29	0.010598
1224.93	0.008948
1234.58	0.008338
1244.22	0.007698
1253.87	0.006758
1263.51	0.006738
1273.16	0.008808
1282.8	0.012258
1292.45	0.016358
1302.09	0.015328
1311.74	0.009968
1321.38	0.006488
1331.03	0.005568
1340.67	0.006718
1350.32	0.013178
1359.96	0.019638
1369.61	0.014378
1379.25	0.006498
1388.9	0.004068
1398.54	0.003798
1408.18	0.004508
1417.83	0.007638
1427.47	0.009568
1437.12	0.007758
1446.76	0.006458
1456.41	0.006858
1466.05	0.007528
1475.7	0.006058
1485.34	0.004008
1494.99	0.002598
1504.63	0.001768
1514.28	0.001358
1523.92	0.001148
1533.57	0.0008759
1543.21	0.000909
1552.86	0.000875
1562.5	0.0008501
1572.15	0.0007736
1581.79	0.0006667
1591.44	0.0006879
1601.08	0.000672
1610.73	0.0006487
1620.37	0.0006704
1630.01	0.0007068
1639.66	0.0006945
1649.3	0.0006377
1658.95	0.0007782
1668.59	0.0005703
1678.24	0.0006154
1687.88	0.0005212
1697.53	0.0006305
1707.17	0.0005751
1716.82	0.0006762
1726.46	0.0006226
1736.11	0.0006538
1745.75	0.0006594
1755.4	0.0006541
1765.04	0.0006297
1774.69	0.0006624
1784.33	0.0007046
1793.98	0.0006764
1803.62	0.0006797
1813.27	0.0006826
1822.91	0.0006963
1832.55	0.0007823
1842.2	0.000867
1851.84	0.0009331
1861.49	0.0009744
1871.13	0.0009645
1880.78	0.0009187
1890.42	0.0008136
1900.07	0.0007932
1909.71	0.0009043
1919.36	0.0007949
1929	0.0008821
1938.65	0.0008665
1948.29	0.0008896
1957.94	0.0009947
1967.58	0.0011136
1977.23	0.0011389
1986.87	0.0012442
1996.52	0.001388
2006.16	0.001338
2015.81	0.001378
2025.45	0.001318
2035.1	0.0012383
2044.74	0.0011679
2054.38	0.0011405
2064.03	0.0012036
2073.67	0.0011378
2083.32	0.0011461
2092.96	0.0010993
2102.61	0.0010747
2112.25	0.0011604
2121.9	0.0011192
2131.54	0.0010758
2141.19	0.0011321
2150.83	0.0011057
2160.48	0.0010417
2170.12	0.0009579
2179.77	0.0009085
2189.41	0.0009719
2199.06	0.0009256
2208.7	0.0008438
2218.35	0.0008434
2227.99	0.0007765
2237.64	0.0008619
2247.28	0.0007515
2256.92	0.0006717
2266.57	0.0007243
2276.21	0.0005883
2285.86	0.0007537
2295.5	0.0006856
2305.15	0.0005883
2314.79	0.0005926
2324.44	0.0006133
2334.08	0.0006735
2343.73	0.0006734
2353.37	0.0006992
2363.02	0.0005507
2372.66	0.000614
2382.31	0.0007007
2391.95	0.0006942
2401.6	0.0006744
2411.24	0.0006597
2420.89	0.0007623
2430.53	0.0005812
2440.18	0.0006931
2449.82	0.0007335
2459.47	0.0006216
2469.11	0.000736
2478.75	0.0006644
2488.4	0.0008026
2498.04	0.0007159
2507.69	0.0006887
2517.33	0.000683
2526.98	0.0007396
2536.62	0.0007356
2546.27	0.000674
2555.91	0.0007667
2565.56	0.0010881
2575.2	0.001548
2584.85	0.002398
2594.49	0.003018
2604.14	0.002348
2613.78	0.001378
2623.43	0.001328
2633.07	0.0012521
2642.72	0.0012179
2652.36	0.001398
2662.01	0.001428
2671.65	0.001608
2681.29	0.001788
2690.94	0.002118
2700.58	0.002228
2710.23	0.002638
2719.87	0.002878
2729.52	0.003098
2739.16	0.003118
2748.81	0.002768
2758.45	0.002868
2768.1	0.003398
2777.74	0.003828
2787.39	0.004428
2797.03	0.004698
2806.68	0.004898
2816.32	0.006048
2825.97	0.008388
2835.61	0.013688
2845.26	0.022148
2854.9	0.030998
2864.55	0.036318
2874.19	0.035058
2883.84	0.030788
2893.48	0.026328
2903.12	0.022028
2912.77	0.019108
2922.41	0.019708
2932.06	0.024658
2941.7	0.029408
2951.35	0.029168
2960.99	0.024608
2970.64	0.022358
2980.28	0.018718
2989.93	0.012158
2999.57	0.007438
3009.22	0.004428
3018.86	0.002928
3028.51	0.001868
3038.15	0.001538
3047.8	0.0012669
3057.44	0.0008673
3067.09	0.0008397
3076.73	0.0006858
3086.38	0.0008351
3096.02	0.0006817
3105.67	0.0005051
3115.31	0.0005461
3124.95	0.0004692
3134.6	0.0005015
3144.24	0.0004577
3153.89	0.0004771
3163.53	0.00038096
3173.18	0.0005853
3182.82	0.0005455
3192.47	0.00045
3202.11	0.0002535
3211.76	0.0007102
3221.4	0.000446
3231.05	0.0004984
3240.69	0.0004076
3250.34	0.00036528
3259.98	0.00032383
3269.63	0.00035407
3279.27	0.0003176
3288.92	0.0002518
3298.56	0.00036433
3308.21	0.0005046
3317.85	0.0002554
3327.49	0.00034274
3337.14	0.00032604
3346.78	0.00033944
3356.43	0.0004838
3366.07	0.000602
3375.72	0.00035874
3385.36	0.0004541
3395.01	0.0004239
3404.65	0.0002735
3414.3	4.2e-05
3423.94	0.00033445
3433.59	0.0003699
3443.23	0.0002313
3452.88	0.00032965
3462.52	0.00033481
3472.17	0.000293814
3481.81	0.0004693
3491.46	0.00028228
3501.1	0.000178
3510.75	0.0004002
3520.39	0.00033684
3530.04	0.000133
3539.68	0.0004271
3549.32	0.0006224
3558.97	0.0002509
3568.61	0.00022
3578.26	0.0002002
3587.9	0.000493
3597.55	0.0004362
3607.19	0.00030669
3616.84	0.0003982
3626.48	0.0004541
3636.13	0.0004253
3645.77	0.0005133
3655.42	0.0005979
3665.06	0.0005355
3674.71	0.000168
3684.35	0.0004633
3694	0.00031222
3703.64	0.0004738
3713.29	0.0004678
3722.93	0.00035581
3732.58	0.0005297
3742.22	0.00038588
3751.86	0.0006799
3761.51	0.0002627
3771.15	0.0003965
3780.8	0.00034533
3790.44	0.0002027
3800.09	0.0004493
3809.73	0.0005371
3819.38	0.0003885
3829.02	0.0004108
3838.67	0.000138
3848.31	0.0003881
3857.96	0.0005487
3867.6	0.0005159
3877.25	0.0005145
3886.89	0.0004948
3896.54	0.0005841
3906.18	0.0004059
3915.83	0.0005685
3925.47	0.0003861
3935.12	0.00032542
3944.76	0.0005603
3954.41	0.000636
3964.05	0.0004991
3973.69	0.0006806
3983.34	0.0005982
3992.98	0.0006215
