Infrared Spectrum: 2-(4-Bromophenyl)-5-phenyl-1,3,4-oxadiazole
Formula: C 14 H 9 Br N 2 O
CAS: 21510-43-0
State: gas
Origin: EPA-IR VAPOR PHASE LIBRARY
1/CM	ABSORBANCE
549.8	0.001965
559.445	0.001745
569.09	0.001555
578.734	0.0012923
588.379	0.0011887
598.024	0.0009691
607.669	0.0010947
617.313	0.0010159
626.958	0.001535
636.603	0.0012394
646.248	0.0011599
655.893	0.003055
665.537	0.005325
675.182	0.008735
684.827	0.022995
694.472	0.026825
704.116	0.018145
713.761	0.011135
723.406	0.021005
733.051	0.030345
742.695	0.009735
752.34	0.004115
761.985	0.005475
771.63	0.006985
781.275	0.003955
790.919	0.003825
800.564	0.004225
810.209	0.003525
819.854	0.008455
829.498	0.021305
839.143	0.014905
848.788	0.003815
858.433	0.003765
868.078	0.003715
877.722	0.002095
887.367	0.002315
897.012	0.002085
906.657	0.001242
916.301	0.002365
925.946	0.002255
935.591	0.002185
945.236	0.003245
954.88	0.009005
964.525	0.010855
974.17	0.004555
983.815	0.004535
993.46	0.007295
1003.1	0.014905
1012.75	0.065425
1022.39	0.016065
1032.04	0.010385
1041.68	0.008815
1051.33	0.021865
1060.97	0.040955
1070.62	0.059645
1080.26	0.023055
1089.91	0.007055
1099.55	0.008265
1109.2	0.005035
1118.84	0.002345
1128.49	0.001995
1138.13	0.001955
1147.78	0.001535
1157.42	0.001855
1167.07	0.002235
1176.71	0.007655
1186.36	0.006055
1196	0.001665
1205.64	0.0014259
1215.29	0.003495
1224.93	0.004735
1234.58	0.003165
1244.22	0.003455
1253.87	0.007215
1263.51	0.014625
1273.16	0.008555
1282.8	0.003225
1292.45	0.002355
1302.09	0.003485
1311.74	0.004235
1321.38	0.002265
1331.03	0.002855
1340.67	0.002705
1350.32	0.002005
1359.96	0.001825
1369.61	0.002005
1379.25	0.002885
1388.9	0.004435
1398.54	0.013495
1408.18	0.011815
1417.83	0.006275
1427.47	0.006135
1437.12	0.007225
1446.76	0.016565
1456.41	0.017605
1466.05	0.020895
1475.7	0.064485
1485.34	0.069805
1494.99	0.019225
1504.63	0.006235
1514.28	0.004475
1523.92	0.005265
1533.57	0.009715
1543.21	0.020945
1552.86	0.026015
1562.5	0.010555
1572.15	0.006465
1581.79	0.006905
1591.44	0.010725
1601.08	0.028895
1610.73	0.019575
1620.37	0.004785
1630.01	0.002545
1639.66	0.002525
1649.3	0.002915
1658.95	0.002415
1668.59	0.001825
1678.24	0.0013985
1687.88	0.001785
1697.53	0.001545
1707.17	0.0010503
1716.82	0.0009982
1726.46	0.0011091
1736.11	0.0014134
1745.75	0.0013796
1755.4	0.001915
1765.04	0.001835
1774.69	0.002005
1784.33	0.002525
1793.98	0.002205
1803.62	0.002665
1813.27	0.001635
1822.91	0.0013649
1832.55	0.0010426
1842.2	0.0012146
1851.84	0.0011857
1861.49	0.001121
1871.13	0.001485
1880.78	0.002165
1890.42	0.002665
1900.07	0.003015
1909.71	0.003015
1919.36	0.002135
1929	0.001745
1938.65	0.001875
1948.29	0.002095
1957.94	0.002155
1967.58	0.002315
1977.23	0.0014179
1986.87	0.0011467
1996.52	0.0010338
2006.16	0.0011562
2015.81	0.0012008
2025.45	0.0010176
2035.1	0.0010308
2044.74	0.0010161
2054.38	0.0011442
2064.03	0.0011925
2073.67	0.0009446
2083.32	0.0008715
2092.96	0.000796
2102.61	0.0007863
2112.25	0.000794
2121.9	0.0006558
2131.54	0.0007622
2141.19	0.00058432
2150.83	0.0007396
2160.48	0.0007913
2170.12	0.0008272
2179.77	0.0008592
2189.41	0.0008573
2199.06	0.0008028
2208.7	0.0007895
2218.35	0.0008869
2227.99	0.0010037
2237.64	0.0009092
2247.28	0.0009564
2256.92	0.0008922
2266.57	0.0008807
2276.21	0.0010805
2285.86	0.0010819
2295.5	0.0010725
2305.15	0.0009748
2314.79	0.0010662
2324.44	0.0012082
2334.08	0.0010823
2343.73	0.0009556
2353.37	0.0009309
2363.02	0.0009551
2372.66	0.0007931
2382.31	0.0007883
2391.95	0.0006943
2401.6	0.0009416
2411.24	0.000828
2420.89	0.0007726
2430.53	0.0007612
2440.18	0.0007751
2449.82	0.0008334
2459.47	0.0010121
2469.11	0.0008751
2478.75	0.0009251
2488.4	0.0009017
2498.04	0.0009269
2507.69	0.0010658
2517.33	0.001221
2526.98	0.0012773
2536.62	0.0011709
2546.27	0.0014452
2555.91	0.0010939
2565.56	0.0012532
2575.2	0.0011949
2584.85	0.0014175
2594.49	0.0013843
2604.14	0.001505
2613.78	0.001695
2623.43	0.001485
2633.07	0.001495
2642.72	0.0014146
2652.36	0.0012198
2662.01	0.0012291
2671.65	0.0010782
2681.29	0.0009204
2690.94	0.000842
2700.58	0.0008614
2710.23	0.0007582
2719.87	0.0010677
2729.52	0.0006506
2739.16	0.000774
2748.81	0.0010187
2758.45	0.0007743
2768.1	0.0007272
2777.74	0.0007757
2787.39	0.0007202
2797.03	0.0007447
2806.68	0.0005938
2816.32	0.0010512
2825.97	0.0009485
2835.61	0.0008488
2845.26	0.0011243
2854.9	0.0008899
2864.55	0.0009493
2874.19	0.0008881
2883.84	0.00108
2893.48	0.0012609
2903.12	0.0013021
2912.77	0.0010705
2922.41	0.0011056
2932.06	0.0008973
2941.7	0.0011588
2951.35	0.0010225
2960.99	0.001292
2970.64	0.0012928
2980.28	0.0012163
2989.93	0.0011312
2999.57	0.001495
3009.22	0.001685
3018.86	0.002465
3028.51	0.003115
3038.15	0.003795
3047.8	0.005735
3057.44	0.007755
3067.09	0.010275
3076.73	0.013115
3086.38	0.008855
3096.02	0.007705
3105.67	0.004675
3115.31	0.002755
3124.95	0.001735
3134.6	0.0013319
3144.24	0.0012733
3153.89	0.001495
3163.53	0.0007671
3173.18	0.0006483
3182.82	0.0004401
3192.47	0.0006707
3202.11	0.0007778
3211.76	0.0006695
3221.4	0.0006997
3231.05	0.0006379
3240.69	0.000359
3250.34	0.00057056
3259.98	0.0006818
3269.63	0.000203
3279.27	0.000349
3288.92	0.00055886
3298.56	0.0006467
3308.21	0.0007626
3317.85	8.1e-05
3327.49	0.0005877
3337.14	0.0006199
3346.78	0.00048041
3356.43	0.0007775
3366.07	0.00057177
3375.72	0.0006724
3385.36	0.0006504
3395.01	0.00051487
3404.65	0.0007322
3414.3	0.0008136
3423.94	0.0006772
3433.59	0.0007443
3443.23	0.0009701
3452.88	0.00055887
3462.52	0.0006681
3472.17	0.0007779
3481.81	0.00050731
3491.46	0.0007072
3501.1	0.00058424
3510.75	0.000171
3520.39	0.00056996
3530.04	0.0004336
3539.68	0.000491498
3549.32	0.000355
3558.97	0.0007223
3568.61	0.0007802
3578.26	0.000215
3587.9	0.000231
3597.55	0.0006522
3607.19	0.0007273
3616.84	0.000685
3626.48	0.0006764
3636.13	0.0007629
3645.77	0.0008143
3655.42	0.0008034
3665.06	0.0007547
3674.71	0.0006489
3684.35	0.0004962
3694	0.0004825
3703.64	0.0004138
3713.29	0.0007153
3722.93	0.00054685
3732.58	0.00054976
3742.22	0.0006358
3751.86	0.0006025
3761.51	0.0007871
3771.15	0.000298
3780.8	0.0003969
3790.44	0.0009782
3800.09	0.0004681
3809.73	0.0006621
3819.38	0.0007414
3829.02	0.00059
3838.67	0.000333
3848.31	0.000107
3857.96	0.0006526
3867.6	0.00056548
3877.25	0.0007922
3886.89	0.0005961
3896.54	0.00052967
3906.18	0.00056934
3915.83	0.000251
3925.47	0.0006472
3935.12	0.0006184
3944.76	0.0006138
3954.41	0.0004644
3964.05	0.0004344
3973.69	0.00053862
3983.34	0.0008105
3992.98	0.0006109
