Infrared Spectrum: 3-METHOXYESTRA-1,3,5(10),6,8,14-HEXAEN-17-ONE
Formula: C19 H18 O2
CAS: 21513-03-1
State: SOLID (KBr DISC)
Class: COBLENTZ III
Instrument: BECKMAN IR-7
Sampling: TRANSMISSION
Resolution: 4
Origin: THE WORCESTER FOUNDATION FOR EXPERIMENTAL BIOLOGY, Neal L. McNiven
1/CM	TRANSMITTANCE
602.915	1.034
611.66	1.034
620.406	1.034
629.151	1.034
637.897	1.034
646.642	1.034
655.388	1.034
664.133	1.035
672.879	1.034
681.624	1.031
690.37	1.029
699.115	1
707.86	1.023
716.606	1.026
725.351	1.011
734.097	0.926
742.842	0.913
751.588	0.973
760.333	0.946
769.079	0.8879
777.824	0.904
786.57	0.857
795.315	0.5931
804.06	0.5519
812.806	0.4956
821.551	0.402
830.297	0.904
839.042	0.884
847.788	0.6721
856.533	0.2948
865.279	0.866
874.024	0.908
882.77	0.894
891.515	0.853
900.26	0.877
909.006	0.842
917.751	0.663
926.497	0.808
935.242	0.795
943.988	0.7188
952.733	0.831
961.479	0.832
970.224	0.813
978.97	0.755
987.715	0.5681
996.46	0.768
1005.21	0.744
1013.95	0.661
1022.7	0.594
1031.44	0.2891
1040.19	0.546
1048.93	0.517
1057.68	0.716
1066.42	0.6411
1075.17	0.6558
1083.91	0.761
1092.66	0.746
1101.41	0.767
1110.15	0.753
1118.9	0.738
1127.64	0.658
1136.39	0.691
1145.13	0.555
1153.88	0.631
1162.62	0.509
1171.37	0.518
1180.11	0.392
1188.86	0.671
1197.61	0.4151
1206.35	0.4161
1215.1	0.69
1223.84	0.436
1232.59	0.557
1241.33	0.372
1250.08	0.3278
1258.82	0.4389
1267.57	0.616
1276.31	0.71
1285.06	0.497
1293.81	0.69
1302.55	0.55
1311.3	0.782
1320.04	0.787
1328.79	0.767
1337.53	0.756
1346.28	0.687
1355.02	0.697
1363.77	0.569
1372.51	0.5449
1381.26	0.529
1390.01	0.4841
1398.75	0.61
1407.5	0.52
1416.24	0.642
1424.99	0.4931
1433.73	0.621
1442.48	0.425
1451.22	0.389
1459.97	0.433
1468.71	0.494
1477.46	0.312
1486.21	0.65
1494.95	0.718
1503.7	0.618
1512.44	0.711
1521.19	0.757
1529.93	0.777
1538.68	0.765
1547.42	0.738
1556.17	0.71
1564.91	0.58
1573.66	0.659
1582.41	0.588
1591.15	0.449
1599.9	0.413
1608.64	0.428
1617.39	0.329
1626.13	0.594
1634.88	0.642
1643.62	0.718
1652.37	0.735
1661.11	0.724
1669.86	0.712
1678.61	0.709
1687.35	0.688
1696.1	0.65
1704.84	0.591
1713.59	0.581
1722.33	0.474
1731.08	0.27
1739.82	0.069
1748.57	0.193
1757.31	0.497
1766.06	0.698
1774.81	0.714
1783.55	0.753
1792.3	0.79
1801.04	0.794
1809.79	0.788
1818.53	0.788
1827.28	0.783
1836.02	0.78
1844.77	0.781
1853.51	0.783
1862.26	0.784
1871.01	0.781
1879.75	0.777
1888.5	0.76
1897.24	0.729
1905.99	0.753
1914.73	0.747
1923.48	0.752
1932.22	0.767
1940.97	0.764
1949.71	0.756
1958.46	0.754
1967.21	0.756
1975.95	0.758
1984.7	0.761
1993.44	0.761
2002.19	0.76
2010.93	0.76
2019.68	0.759
2028.42	0.759
2037.17	0.758
2045.91	0.7561
2054.66	0.756
2063.41	0.754
2072.15	0.753
2080.9	0.7519
2089.64	0.751
2098.39	0.7488
2107.13	0.748
2115.88	0.746
2124.62	0.7457
2133.37	0.7437
2142.11	0.743
2150.86	0.7396
2159.61	0.7365
2168.35	0.7335
2177.1	0.7305
2185.84	0.7274
2194.59	0.7234
2203.33	0.7193
2212.08	0.7153
2220.82	0.7113
2229.57	0.7072
2238.31	0.703
2247.06	0.701
2255.81	0.6971
2264.55	0.6951
2273.3	0.694
2282.04	0.692
2290.79	0.69
2299.53	0.6889
2308.28	0.687
2317.02	0.6848
2325.77	0.6816
2334.51	0.679
2343.26	0.6787
2352.01	0.678
2360.75	0.678
2369.5	0.6776
2378.24	0.6746
2386.99	0.6701
2395.73	0.6625
2404.48	0.6594
2413.22	0.658
2421.97	0.658
2430.71	0.657
2439.46	0.656
2448.21	0.656
2456.95	0.656
2465.7	0.6552
2474.44	0.654
2483.19	0.653
2491.93	0.6521
2500.68	0.651
2509.42	0.65
2518.17	0.6499
2526.91	0.648
2535.66	0.6469
2544.41	0.6437
2553.15	0.64
2561.9	0.639
2570.64	0.6377
2579.39	0.6367
2588.13	0.634
2596.88	0.6304
2605.62	0.6225
2614.37	0.621
2623.11	0.62
2631.86	0.619
2640.61	0.618
2649.35	0.617
2658.1	0.617
2666.84	0.616
2675.59	0.616
2684.33	0.616
2693.08	0.615
2701.82	0.6141
2710.57	0.613
2719.31	0.612
2728.06	0.609
2736.81	0.6069
2745.55	0.6039
2754.3	0.5998
2763.04	0.5958
2771.79	0.5884
2780.53	0.5755
2789.28	0.5677
2798.02	0.5627
2806.77	0.5523
2815.51	0.5439
2824.26	0.5171
2833.01	0.4609
2841.75	0.4985
2850.5	0.4871
2859.24	0.4495
2867.99	0.4273
2876.73	0.4296
2885.48	0.439
2894.22	0.4345
2902.97	0.3985
2911.71	0.3448
2920.46	0.3614
2929.21	0.3729
2937.95	0.326
2946.7	0.3505
2955.44	0.4224
2964.19	0.4887
2972.93	0.543
2981.68	0.5611
2990.42	0.5525
2999.17	0.537
3007.91	0.5415
3016.66	0.5446
3025.41	0.5523
3034.15	0.5526
3042.9	0.5398
3051.64	0.5332
3060.39	0.5103
3069.13	0.4898
3077.88	0.5114
3086.62	0.5378
3095.37	0.5436
3104.11	0.546
3112.86	0.544
3121.61	0.542
3130.35	0.542
3139.1	0.541
3147.84	0.5391
3156.59	0.539
3165.33	0.538
3174.08	0.537
3182.82	0.537
3191.57	0.536
3200.31	0.536
3209.06	0.536
3217.81	0.535
3226.55	0.5348
3235.3	0.534
3244.04	0.534
3252.79	0.534
3261.53	0.534
3270.28	0.5336
3279.02	0.5325
3287.77	0.5315
3296.51	0.5305
3305.26	0.529
3314.01	0.5274
3322.75	0.526
3331.5	0.526
3340.24	0.5233
3348.99	0.523
3357.73	0.5166
3366.48	0.514
3375.22	0.513
3383.97	0.511
3392.71	0.51
3401.46	0.509
3410.21	0.507
3418.95	0.505
3427.7	0.504
3436.44	0.503
3445.19	0.4998
3453.93	0.4906
3462.68	0.478
3471.42	0.4833
3480.17	0.5014
3488.91	0.5094
3497.66	0.5114
3506.41	0.5139
3515.15	0.5155
3523.9	0.518
3532.64	0.521
3541.39	0.522
3550.13	0.5227
3558.88	0.5237
3567.62	0.526
3576.37	0.5288
3585.11	0.529
3593.86	0.531
3602.61	0.531
3611.35	0.5329
3620.1	0.535
3628.84	0.537
3637.59	0.538
3646.33	0.539
3655.08	0.539
3663.82	0.539
3672.57	0.5388
3681.31	0.538
3690.06	0.537
3698.81	0.5367
3707.55	0.535
3716.3	0.536
3725.04	0.537
3733.79	0.537
3742.53	0.5355
3751.28	0.5344
3760.02	0.534
3768.77	0.534
3777.51	0.5333
3786.26	0.5323
3795.01	0.531
3803.75	0.531
3812.5	0.531
3821.24	0.531
3829.99	0.531
3838.73	0.531
3847.48	0.53
3856.22	0.529
3864.97	0.529
3873.71	0.528
3882.46	0.528
3891.21	0.528
3899.95	0.528
3908.7	0.528
3917.44	0.528
3926.19	0.528
3934.93	0.528
3943.68	0.528
3952.42	0.528
3961.17	0.528
3969.91	0.528
3978.66	0.528
3987.41	0.5286
3996.15	0.529
