Infrared Spectrum: Aniline, 2,4,6-triisopropyl-
Formula: C15 H25 N
CAS: 21524-36-7
State: LIQUID (NEAT)
Class: COBLENTZ III
Instrument: BECKMAN IR-4 (HYBRID PRISM-GRATING)
Instrument parameters: NaCl PRISM
Sampling: TRANSMISSION
Path length: CAPILLARY
Resolution: 2
Origin: MONSANTO (J. FREEMAN)
1/CM	TRANSMITTANCE
627.56	0.5556
636.283	0.5321
645.006	0.5164
653.729	0.5286
662.452	0.5443
671.175	0.5642
679.898	0.5789
688.621	0.6089
697.345	0.6287
706.068	0.6407
714.791	0.6626
723.514	0.6839
732.237	0.7053
740.96	0.7236
749.683	0.7207
758.406	0.5661
767.129	0.5049
775.852	0.6126
784.575	0.7067
793.298	0.754
802.021	0.7792
810.744	0.7587
819.467	0.8144
828.19	0.8486
836.914	0.8583
845.637	0.8532
854.36	0.7986
863.083	0.7549
871.806	0.3402
880.529	0.5258
889.252	0.7199
897.975	0.8506
906.698	0.8671
915.421	0.789
924.144	0.6612
932.867	0.8007
941.59	0.6967
950.313	0.7929
959.036	0.7855
967.759	0.8759
976.483	0.8979
985.206	0.9052
993.929	0.9035
1002.65	0.8986
1011.37	0.9051
1020.1	0.9026
1028.82	0.8928
1037.54	0.8561
1046.27	0.7421
1054.99	0.6504
1063.71	0.6917
1072.44	0.7427
1081.16	0.7164
1089.88	0.6231
1098.61	0.5631
1107.33	0.6437
1116.05	0.6464
1124.77	0.6406
1133.5	0.8136
1142.22	0.869
1150.94	0.8737
1159.67	0.873
1168.39	0.8386
1177.11	0.6097
1185.84	0.4468
1194.56	0.6753
1203.28	0.8148
1212.01	0.843
1220.73	0.8056
1229.45	0.6709
1238.17	0.7146
1246.9	0.5431
1255.62	0.3727
1264.34	0.574
1273.07	0.6667
1281.79	0.5405
1290.51	0.5174
1299.24	0.5095
1307.96	0.4572
1316.68	0.5087
1325.41	0.3534
1334.13	0.5361
1342.85	0.65
1351.57	0.5497
1360.3	0.4121
1369.02	0.3607
1377.74	0.5795
1386.47	0.326
1395.19	0.6243
1403.91	0.7294
1412.64	0.7
1421.36	0.6388
1430.08	0.5603
1438.8	0.3232
1447.53	0.1862
1456.25	0.2067
1464.97	0.1426
1473.7	0.1309
1482.42	0.4113
1491.14	0.5601
1499.87	0.6802
1508.59	0.6661
1517.31	0.6803
1526.04	0.7433
1534.76	0.8192
1543.48	0.8497
1552.2	0.8551
1560.93	0.8526
1569.65	0.8182
1578.37	0.777
1587.1	0.5926
1595.82	0.4399
1604.54	0.3277
1613.27	0.3953
1621.99	0.2541
1630.71	0.2608
1639.44	0.4455
1648.16	0.5627
1656.88	0.6808
1665.6	0.7849
1674.33	0.8273
1683.05	0.8615
1691.77	0.8912
1700.5	0.9131
1709.22	0.9301
1717.94	0.9437
1726.67	0.9506
1735.39	0.9508
1744.11	0.9453
1752.84	0.9319
1761.56	0.8852
1770.28	0.8533
1779	0.8862
1787.73	0.9216
1796.45	0.955
1805.17	0.9616
1813.9	0.966
1822.62	0.9682
1831.34	0.9697
1840.07	0.9705
1848.79	0.9713
1857.51	0.9721
1866.23	0.9725
1874.96	0.9726
1883.68	0.9726
1892.4	0.9723
1901.13	0.9721
1909.85	0.9718
1918.57	0.9717
1927.3	0.9716
1936.02	0.9715
1944.74	0.9716
1953.47	0.9721
1962.19	0.9731
1970.91	0.9746
1979.63	0.9736
1988.36	0.9714
1997.08	0.9702
2005.8	0.9712
2014.53	0.972
2023.25	0.9729
2031.97	0.9737
2040.7	0.9744
2049.42	0.9752
2058.14	0.9759
2066.87	0.9759
2075.59	0.9772
2084.31	0.9775
2093.03	0.9778
2101.76	0.9781
2110.48	0.9781
2119.2	0.9782
2127.93	0.9782
2136.65	0.978
2145.37	0.9778
2154.1	0.9774
2162.82	0.9767
2171.54	0.976
2180.27	0.9754
2188.99	0.9747
2197.71	0.9737
2206.43	0.9725
2215.16	0.9714
2223.88	0.9704
2232.6	0.9694
2241.33	0.9693
2250.05	0.9696
2258.77	0.9706
2267.5	0.9721
2276.22	0.9722
2284.94	0.9718
2293.66	0.9699
2302.39	0.9696
2311.11	0.9711
2319.83	0.9737
2328.56	0.9766
2337.28	0.9777
2346	0.9785
2354.73	0.9788
2363.45	0.9788
2372.17	0.9784
2380.9	0.9753
2389.62	0.9719
2398.34	0.9685
2407.06	0.9676
2415.79	0.9674
2424.51	0.9675
2433.23	0.9684
2441.96	0.9684
2450.68	0.967
2459.4	0.9648
2468.13	0.9633
2476.85	0.9621
2485.57	0.9618
2494.3	0.9621
2503.02	0.9633
2511.74	0.965
2520.46	0.9669
2529.19	0.967
2537.91	0.9644
2546.63	0.9598
2555.36	0.9527
2564.08	0.9454
2572.8	0.9376
2581.53	0.9293
2590.25	0.9232
2598.97	0.9217
2607.7	0.9234
2616.42	0.9279
2625.14	0.9334
2633.86	0.9349
2642.59	0.935
2651.31	0.9335
2660.03	0.9305
2668.76	0.9261
2677.48	0.9205
2686.2	0.9181
2694.93	0.9164
2703.65	0.9148
2712.37	0.9031
2721.1	0.8862
2729.82	0.8771
2738.54	0.8773
2747.26	0.8806
2755.99	0.8838
2764.71	0.8846
2773.43	0.8841
2782.16	0.8827
2790.88	0.8754
2799.6	0.8469
2808.33	0.8152
2817.05	0.7857
2825.77	0.7484
2834.49	0.7283
2843.22	0.4644
2851.94	0.2227
2860.66	0.215
2869.39	0.2124
2878.11	0.2093
2886.83	0.2057
2895.56	0.2001
2904.28	0.1843
2913	0.1528
2921.73	0.1047
2930.45	0.0917
2939.17	0.0902
2947.89	0.0918
2956.62	0.1466
2965.34	0.2286
2974.06	0.2994
2982.79	0.3699
2991.51	0.4399
3000.23	0.5056
3008.96	0.5392
3017.68	0.5619
3026.4	0.5873
3035.13	0.6145
3043.85	0.6395
3052.57	0.668
3061.29	0.6903
3070.02	0.713
3078.74	0.7709
3087.46	0.8014
3096.19	0.8424
3104.91	0.8719
3113.63	0.8774
3122.36	0.8796
3131.08	0.8794
3139.8	0.8786
3148.53	0.8763
3157.25	0.8732
3165.97	0.8687
3174.69	0.8633
3183.42	0.8566
3192.14	0.8494
3200.86	0.8426
3209.59	0.8415
3218.31	0.8413
3227.03	0.8432
3235.76	0.8508
3244.48	0.8594
3253.2	0.868
3261.92	0.8765
3270.65	0.885
3279.37	0.8862
3288.09	0.8847
3296.82	0.8809
3305.54	0.8736
3314.26	0.8655
3322.99	0.8519
3331.71	0.8196
3340.43	0.7739
3349.16	0.7284
3357.88	0.6831
3366.6	0.6381
3375.32	0.6126
3384.05	0.6125
3392.77	0.6323
3401.49	0.6581
3410.22	0.6838
3418.94	0.7093
3427.66	0.725
3436.39	0.7252
3445.11	0.714
3453.83	0.6966
3462.56	0.6794
3471.28	0.6629
3480	0.6588
3488.72	0.6814
3497.45	0.7215
3506.17	0.7615
3514.89	0.796
3523.62	0.8136
3532.34	0.8423
3541.06	0.8619
3549.79	0.8835
3558.51	0.8956
3567.23	0.9033
3575.96	0.9077
3584.68	0.9113
3593.4	0.9145
3602.12	0.9171
3610.85	0.9199
3619.57	0.9223
3628.29	0.9243
3637.02	0.9264
3645.74	0.9284
3654.46	0.93
3663.19	0.9315
3671.91	0.9329
3680.63	0.9337
3689.35	0.9344
3698.08	0.9351
3706.8	0.9354
3715.52	0.9355
3724.25	0.9356
3732.97	0.9357
3741.69	0.9359
3750.42	0.936
3759.14	0.9361
3767.86	0.9359
3776.59	0.9355
3785.31	0.9351
3794.03	0.9347
3802.75	0.9342
3811.48	0.9335
3820.2	0.9327
3828.92	0.9318
3837.65	0.931
3846.37	0.9298
3855.09	0.9286
3863.82	0.9275
3872.54	0.9263
3881.26	0.9251
3889.99	0.9237
