Infrared Spectrum: 1-Bromo-2,4,6-triisopropylbenzene
Formula: C 15 H 23 Br
CAS: 21524-34-5
State: gas
Instrument: HP-GC/MS/IRD
Origin: NIST Mass Spectrometry Data Center
1/CM	ABSORBANCE
550	0.0002484
562	0
574	4.14e-05
586	0.0003588
598	0.0005543
610	0.0008096
622	0.0005083
634	0.000391
646	0.0005313
658	0.0003956
670	0.0002852
682	0.0002599
694	0.0003795
706	0.0003105
718	0.0002691
730	0.0005175
742	0.0007383
754	0.000345
766	0.0003473
778	0.0003312
790	0.0003427
802	0.0003151
814	0.0003634
826	0.0003197
838	0.0002668
850	0.0004048
862	0.0005359
874	0.0017388
886	0.0007406
898	0.0004577
910	0.0004692
922	0.000713
934	0.0011109
946	0.0007222
958	0.0005589
970	0.000552
982	0.0005543
994	0.0009545
1006	0.0022839
1018	0.0042297
1030	0.001127
1042	0.0006785
1054	0.0012811
1066	0.0013547
1078	0.0009706
1090	0.0010327
1102	0.0012213
1114	0.0008349
1126	0.0006555
1138	0.0005267
1150	0.0007038
1162	0.0008165
1174	0.0006026
1186	0.0002185
1198	9.89e-05
1210	5.98e-05
1222	0.0001058
1234	0.0003036
1246	0.0004255
1258	0.0006049
1270	0.0004117
1282	0.0004347
1294	0.0006509
1306	0.0016376
1318	0.0016238
1330	0.0009821
1342	0.0008372
1354	0.0009177
1366	0.0021827
1378	0.0013593
1390	0.0017204
1402	0.0011569
1414	0.0019343
1426	0.002898
1438	0.0020217
1450	0.0018354
1462	0.0030038
1474	0.0024426
1486	0.0009683
1498	0.000598
1510	0.0004393
1522	0.0003887
1534	0.0004025
1546	0.0003496
1558	0.0005198
1570	0.0010074
1582	0.0008211
1594	0.0006647
1606	0.0002829
1618	0.0002277
1630	0.0002047
1642	0.0001771
1654	0.0001334
1666	0.0001495
1678	0.0001127
1690	0.0001058
1702	0.0001058
1714	9.89e-05
1726	0.000161
1738	0.0001472
1750	0.0002898
1762	0.0003197
1774	0.0001426
1786	0.0001196
1798	0.0001081
1810	0.0001219
1822	9.43e-05
1834	0.0001196
1846	8.28e-05
1858	8.51e-05
1870	7.13e-05
1882	7.36e-05
1894	9.43e-05
1906	9.2e-05
1918	7.36e-05
1930	8.51e-05
1942	9.2e-05
1954	8.51e-05
1966	8.28e-05
1978	6.67e-05
1990	5.75e-05
2002	6.67e-05
2014	7.13e-05
2026	6.9e-05
2038	5.52e-05
2050	4.14e-05
2062	6.21e-05
2074	2.3e-05
2086	6.67e-05
2098	5.98e-05
2110	2.53e-05
2122	6.67e-05
2134	6.9e-05
2146	3.91e-05
2158	3.45e-05
2170	5.98e-05
2182	5.29e-05
2194	4.83e-05
2206	6.44e-05
2218	6.9e-05
2230	6.21e-05
2242	7.82e-05
2254	5.29e-05
2266	4.83e-05
2278	2.53e-05
2290	3.45e-05
2302	7.82e-05
2314	4.14e-05
2326	3.22e-05
2338	3.91e-05
2350	2.99e-05
2362	3.68e-05
2374	4.83e-05
2386	4.83e-05
2398	5.06e-05
2410	4.83e-05
2422	9.2e-05
2434	4.37e-05
2446	6.67e-05
2458	7.59e-05
2470	8.74e-05
2482	8.51e-05
2494	0.0001104
2506	9.43e-05
2518	7.59e-05
2530	0.0001058
2542	0.0001058
2554	0.0001311
2566	0.0001587
2578	0.0001173
2590	0.0002139
2602	0.0002346
2614	0.0001656
2626	0.0001909
2638	0.0001978
2650	0.0001426
2662	0.0001679
2674	0.0001288
2686	0.000161
2698	0.000138
2710	0.0002369
2722	0.0003335
2734	0.0003243
2746	0.000322
2758	0.0003151
2770	0.0003749
2782	0.0003542
2794	0.0004301
2806	0.0004899
2818	0.000575
2830	0.0006463
2842	0.0009315
2854	0.0013938
2866	0.0025599
2878	0.0054464
2890	0.004807
2902	0.0045632
2914	0.0047357
2926	0.0057316
2938	0.008188
2950	0.0071714
2962	0.0152421
2974	0.0202676
2986	0.0057661
2998	0.0025231
3010	0.0014099
3022	0.0009361
3034	0.0009269
3046	0.0010948
3058	0.0010396
3070	0.0008234
3082	0.0005152
3094	0.0004232
3106	0.0004485
3118	0.0004071
3130	0.0004462
3142	0.0003864
3154	0.0003979
3166	0.0003174
3178	0.0003565
3190	0.0003979
3202	0.0004071
3214	0.0002254
3226	0.0003726
3238	0.0001771
3250	0.0001058
3262	0.0001426
3274	0.0001196
3286	0.0001771
3298	0.0001518
3310	8.74e-05
3322	0.0001886
3334	0.0001196
3346	0.0001725
3358	7.82e-05
3370	0.0001863
3382	0.0001932
3394	0.000161
3406	8.05e-05
3418	0.0001265
3430	0.0001587
3442	7.13e-05
3454	9.43e-05
3466	0.0001012
3478	0.0001127
3490	0.0001219
3502	0.0002024
3514	0.0001702
3526	0.0001035
3538	0.000115
3550	0.0001035
3562	0.0001265
3574	0.0001426
3586	0.0001288
3598	9.43e-05
3610	8.28e-05
3622	0.0001012
3634	8.05e-05
3646	0.0002047
3658	0.0001426
3670	5.52e-05
3682	9.43e-05
3694	0.0001426
3706	5.98e-05
3718	9.43e-05
3730	0.0001012
3742	0.0001449
3754	5.52e-05
3766	0.0001242
3778	0.0001794
3790	0.0001426
3802	0.0001679
3814	0.0001357
3826	0.0002461
3838	0.0001334
