Infrared Spectrum: 2-Chloro-p-acetophenetidide
Formula: C10 H12 Cl N O2
CAS: 2153-08-4
State: SOLID (SPLIT MULL)
Melting point: 146 C
Class: COBLENTZ II
Instrument: BECKMAN IR-9 (GRATING)
Instrument parameters: ORDER CHANGES: 670, 1200, 2000 CM^-^1
Sampling: TRANSMISSION
Resolution: 2
Origin: DOW CHEMICAL COMPANY
1/CM	TRANSMITTANCE
3792	0.751
3783	0.7514
3774	0.7519
3765	0.7525
3756	0.7531
3747	0.7537
3738	0.7544
3729	0.7554
3720	0.7564
3711	0.7574
3702	0.7584
3693	0.7594
3684	0.7603
3675	0.7608
3666	0.7615
3657	0.7621
3648	0.7626
3639	0.7631
3630	0.7636
3621	0.7638
3612	0.7642
3603	0.7642
3594	0.7626
3585	0.7537
3576	0.7549
3567	0.7641
3558	0.7649
3549	0.7654
3540	0.766
3531	0.7665
3522	0.7671
3513	0.7682
3504	0.7694
3495	0.7706
3486	0.7721
3477	0.7736
3468	0.7748
3459	0.7753
3450	0.7758
3441	0.7764
3432	0.7765
3423	0.7768
3414	0.7772
3405	0.7775
3396	0.778
3387	0.7778
3378	0.7775
3369	0.7761
3360	0.7708
3351	0.7611
3342	0.7496
3333	0.7312
3324	0.6818
3315	0.614
3306	0.5831
3297	0.5798
3288	0.5768
3279	0.5484
3270	0.5082
3261	0.5319
3252	0.6134
3243	0.6511
3234	0.6642
3225	0.6651
3216	0.6272
3207	0.5539
3198	0.5822
3189	0.6587
3180	0.689
3171	0.6938
3162	0.693
3153	0.6628
3144	0.4997
3135	0.5398
3126	0.6098
3117	0.6284
3108	0.5865
3099	0.5247
3090	0.5434
3081	0.5904
3072	0.6474
3063	0.6805
3054	0.7045
3045	0.721
3036	0.725
3027	0.7271
3018	0.7283
3009	0.7219
3000	0.7228
2991	0.7367
2982	0.7138
2973	0.6144
2964	0.6457
2955	0.6876
2946	0.7058
2937	0.6954
2928	0.6955
2919	0.7178
2910	0.7191
2901	0.7137
2892	0.7125
2883	0.7165
2874	0.7239
2865	0.7347
2856	0.7457
2847	0.7557
2838	0.7625
2829	0.7687
2820	0.7703
2811	0.7701
2802	0.7735
2793	0.7768
2784	0.7807
2775	0.7849
2766	0.7891
2757	0.7915
2748	0.7936
2739	0.7955
2730	0.7972
2721	0.799
2712	0.8007
2703	0.8024
2694	0.8041
2685	0.8051
2676	0.806
2667	0.8068
2658	0.8078
2649	0.8089
2640	0.8103
2631	0.8117
2622	0.8131
2613	0.8142
2604	0.815
2595	0.8158
2586	0.8165
2577	0.8169
2568	0.8168
2559	0.8167
2550	0.8165
2541	0.8168
2532	0.8174
2523	0.8178
2514	0.8184
2505	0.8187
2496	0.8191
2487	0.8194
2478	0.8198
2469	0.82
2460	0.8202
2451	0.8204
2442	0.8206
2433	0.8208
2424	0.8208
2415	0.8207
2406	0.8207
2397	0.8207
2388	0.8209
2379	0.821
2370	0.8212
2361	0.8214
2352	0.8213
2343	0.8206
2334	0.8199
2325	0.8195
2316	0.8195
2307	0.8197
2298	0.8218
2289	0.8241
2280	0.8263
2271	0.8289
2262	0.8325
2253	0.8347
2244	0.8365
2235	0.8383
2226	0.8401
2217	0.8417
2208	0.8434
2199	0.8449
2190	0.8466
2181	0.8482
2172	0.8498
2163	0.8509
2154	0.852
2145	0.853
2136	0.8541
2127	0.8552
2118	0.8563
2109	0.8574
2100	0.8586
2091	0.8598
2082	0.861
2073	0.8621
2064	0.8634
2055	0.8647
2046	0.866
2037	0.8671
2028	0.8685
2019	0.8691
2010	0.8695
2001	0.8699
1992	0.8705
1983	0.8706
1974	0.8709
1965	0.8714
1956	0.8728
1947	0.8755
1938	0.8782
1929	0.8808
1920	0.8821
1911	0.8801
1902	0.8743
1893	0.8686
1884	0.8668
1875	0.8716
1866	0.8781
1857	0.8793
1848	0.8785
1839	0.8804
1830	0.883
1821	0.8846
1812	0.8865
1803	0.887
1794	0.887
1785	0.8867
1776	0.8833
1767	0.8783
1758	0.8791
1749	0.884
1740	0.8828
1731	0.8784
1722	0.8675
1713	0.8501
1704	0.8294
1695	0.7772
1686	0.6171
1677	0.2195
1668	0.204
1659	0.4076
1650	0.6134
1641	0.6711
1632	0.6518
1623	0.4149
1614	0.4178
1605	0.6788
1596	0.7775
1587	0.8003
1578	0.7764
1569	0.4548
1560	0.3258
1551	0.5143
1542	0.6997
1533	0.7265
1524	0.6869
1515	0.1415
1506	0.5655
1497	0.7221
1488	0.7512
1479	0.4886
1470	0.7565
1461	0.7349
1452	0.7365
1443	0.7368
1434	0.7962
1425	0.7824
1416	0.665
1407	0.5322
1398	0.6676
1389	0.7055
1380	0.7749
1371	0.7618
1362	0.7275
1353	0.7364
1344	0.6771
1335	0.7199
1326	0.7486
1317	0.7185
1308	0.6012
1299	0.4172
1290	0.5647
1281	0.595
1272	0.6534
1263	0.6458
1254	0.3482
1245	0.0747
1236	0.1863
1227	0.3784
1218	0.6204
1209	0.6911
1200	0.6612
1191	0.6711
1182	0.745
1173	0.4744
1164	0.7762
1155	0.7728
1146	0.7456
1137	0.798
1128	0.7848
1119	0.6921
1110	0.741
1101	0.8035
1092	0.8167
1083	0.8147
1074	0.8028
1065	0.7917
1056	0.7321
1047	0.4367
1038	0.5774
1029	0.7621
1020	0.795
1011	0.7951
1002	0.8155
993	0.8192
984	0.8192
975	0.8093
966	0.6404
957	0.7769
948	0.7953
939	0.8105
930	0.7851
921	0.5831
912	0.7368
903	0.8122
894	0.8184
885	0.8151
876	0.8039
867	0.7424
858	0.6753
849	0.7922
840	0.5353
831	0.4978
822	0.3479
813	0.7332
804	0.5795
795	0.5393
786	0.7936
777	0.7942
768	0.7764
759	0.7472
750	0.6751
741	0.7203
732	0.7218
723	0.714
714	0.7458
705	0.7411
696	0.7858
687	0.7578
678	0.7511
669	0.7772
660	0.8044
651	0.8207
642	0.8273
633	0.8194
624	0.8266
615	0.8344
606	0.8321
597	0.8316
588	0.8264
579	0.8115
570	0.7605
561	0.721
552	0.6733
543	0.798
534	0.7853
525	0.7178
516	0.5565
507	0.7567
498	0.7644
489	0.7619
480	0.7593
471	0.7545
462	0.738
453	0.7003
444	0.6656
435	0.6291
426	0.5827
417	0.5607
408	0.5727
399	0.5939
