Infrared Spectrum: 2,2,5,5-Tetramethyl-1-pyrrolidinyloxy-3-carboxylic acid
Formula: C 9 H 16 N O 3
CAS: 2154-68-9
State: gas
Origin: EPA-IR VAPOR PHASE LIBRARY
1/CM	ABSORBANCE
549.8	0.002306
559.445	0.002406
569.09	0.002276
578.734	0.003186
588.379	0.004076
598.024	0.004176
607.669	0.003286
617.313	0.002656
626.958	0.003466
636.603	0.004916
646.248	0.005406
655.893	0.004626
665.537	0.002966
675.182	0.001676
684.827	0.0007126
694.472	0.0008464
704.116	0.0005174
713.761	0.0007612
723.406	0.0008901
733.051	0.0010118
742.695	0.0012236
752.34	0.0009815
761.985	0.0006921
771.63	0.0010078
781.275	0.0011505
790.919	0.0008138
800.564	0.0007334
810.209	0.0005593
819.854	0.0007529
829.498	0.0005759
839.143	0.0006507
848.788	0.00042741
858.433	0.0007329
868.078	0.00049961
877.722	0.0005113
887.367	0.0006101
897.012	0.0007076
906.657	0.0007235
916.301	0.0007129
925.946	0.0006736
935.591	0.0008198
945.236	0.000694
954.88	0.0008053
964.525	0.0007262
974.17	0.0009517
983.815	0.0011497
993.46	0.0010266
1003.1	0.0010951
1012.75	0.0011611
1022.39	0.0009329
1032.04	0.0013541
1041.68	0.001676
1051.33	0.002496
1060.97	0.002886
1070.62	0.002696
1080.26	0.002876
1089.91	0.005046
1099.55	0.007856
1109.2	0.010156
1118.84	0.014006
1128.49	0.013126
1138.13	0.008916
1147.78	0.006836
1157.42	0.005426
1167.07	0.005696
1176.71	0.005816
1186.36	0.004886
1196	0.003596
1205.64	0.002926
1215.29	0.002476
1224.93	0.002946
1234.58	0.003006
1244.22	0.003916
1253.87	0.003266
1263.51	0.002156
1273.16	0.002046
1282.8	0.002386
1292.45	0.003076
1302.09	0.003486
1311.74	0.003206
1321.38	0.002526
1331.03	0.001886
1340.67	0.001926
1350.32	0.002576
1359.96	0.004636
1369.61	0.007416
1379.25	0.007226
1388.9	0.005436
1398.54	0.002946
1408.18	0.001836
1417.83	0.001766
1427.47	0.001796
1437.12	0.001696
1446.76	0.002246
1456.41	0.003536
1466.05	0.003806
1475.7	0.002466
1485.34	0.0012452
1494.99	0.0008618
1504.63	0.0006342
1514.28	0.0006539
1523.92	0.0006319
1533.57	0.0005231
1543.21	0.0006199
1552.86	0.000539
1562.5	0.0005559
1572.15	0.0006124
1581.79	0.0005228
1591.44	0.0005657
1601.08	0.00050088
1610.73	0.0005723
1620.37	0.0006027
1630.01	0.00050438
1639.66	0.0005268
1649.3	0.00044795
1658.95	0.000615
1668.59	0.0006199
1678.24	0.0007404
1687.88	0.0006819
1697.53	0.0008153
1707.17	0.0010515
1716.82	0.001486
1726.46	0.002416
1736.11	0.003266
1745.75	0.004516
1755.4	0.008606
1765.04	0.019906
1774.69	0.024186
1784.33	0.011326
1793.98	0.004736
1803.62	0.003266
1813.27	0.002306
1822.91	0.001476
1832.55	0.0009986
1842.2	0.0008118
1851.84	0.0007144
1861.49	0.0007341
1871.13	0.0006086
1880.78	0.0006162
1890.42	0.0006127
1900.07	0.0006524
1909.71	0.0005517
1919.36	0.000552
1929	0.0005317
1938.65	0.0005277
1948.29	0.0005286
1957.94	0.0005097
1967.58	0.00049249
1977.23	0.00049753
1986.87	0.00047918
1996.52	0.0004225
2006.16	0.00047304
2015.81	0.00049181
2025.45	0.0005378
2035.1	0.0005214
2044.74	0.00047044
2054.38	0.00049548
2064.03	0.00048687
2073.67	0.00049071
2083.32	0.00050578
2092.96	0.00047444
2102.61	0.0005339
2112.25	0.00049333
2121.9	0.00049653
2131.54	0.00043529
2141.19	0.000549
2150.83	0.0005509
2160.48	0.00050417
2170.12	0.0005935
2179.77	0.000525
2189.41	0.0005022
2199.06	0.000619
2208.7	0.00047112
2218.35	0.0005066
2227.99	0.00050425
2237.64	0.0005352
2247.28	0.0005695
2256.92	0.00044719
2266.57	0.00048295
2276.21	0.0005393
2285.86	0.0005724
2295.5	0.0006591
2305.15	0.0006785
2314.79	0.0005943
2324.44	0.0006919
2334.08	0.0006428
2343.73	0.0006228
2353.37	0.0006823
2363.02	0.000741
2372.66	0.0007293
2382.31	0.0006416
2391.95	0.0005373
2401.6	0.00049847
2411.24	0.0005128
2420.89	0.00048439
2430.53	0.000536
2440.18	0.0005811
2449.82	0.0005137
2459.47	0.0005633
2469.11	0.00048754
2478.75	0.00039788
2488.4	0.000591
2498.04	0.0004243
2507.69	0.00045386
2517.33	0.0005394
2526.98	0.00044925
2536.62	0.0005149
2546.27	0.00045125
2555.91	0.00049362
2565.56	0.00047747
2575.2	0.0005293
2584.85	0.00042437
2594.49	0.0004655
2604.14	0.0006063
2613.78	0.0005197
2623.43	0.0005177
2633.07	0.00049887
2642.72	0.0005227
2652.36	0.0005425
2662.01	0.00051
2671.65	0.0005405
2681.29	0.0005606
2690.94	0.0005456
2700.58	0.00044541
2710.23	0.0005591
2719.87	0.0005442
2729.52	0.0006416
2739.16	0.0006454
2748.81	0.00046937
2758.45	0.0006021
2768.1	0.00045095
2777.74	0.0006601
2787.39	0.0006417
2797.03	0.0006931
2806.68	0.0007735
2816.32	0.000598
2825.97	0.0007063
2835.61	0.0008053
2845.26	0.0008649
2854.9	0.0010716
2864.55	0.001496
2874.19	0.002256
2883.84	0.002646
2893.48	0.002736
2903.12	0.002616
2912.77	0.002626
2922.41	0.003306
2932.06	0.004916
2941.7	0.005876
2951.35	0.004656
2960.99	0.004736
2970.64	0.008886
2980.28	0.012986
2989.93	0.010776
2999.57	0.005126
3009.22	0.001726
3018.86	0.0010152
3028.51	0.0007324
3038.15	0.0007426
3047.8	0.0006745
3057.44	0.0005828
3067.09	0.0003726
3076.73	0.00046378
3086.38	0.0006719
3096.02	0.0006151
3105.67	0.0006263
3115.31	0.0005614
3124.95	0.0005623
3134.6	0.00046944
3144.24	0.0005982
3153.89	0.0006206
3163.53	0.00044713
3173.18	0.00046035
3182.82	0.0005387
3192.47	0.0005105
3202.11	0.0006136
3211.76	0.00042906
3221.4	0.0003545
3231.05	0.0005119
3240.69	0.00039756
3250.34	0.00045378
3259.98	0.00050514
3269.63	0.00048743
3279.27	0.0003318
3288.92	0.0003264
3298.56	0.00045753
3308.21	0.000412235
3317.85	0.0003488
3327.49	0.0003798
3337.14	0.0003484
3346.78	0.0003598
3356.43	0.00047985
3366.07	0.0003139
3375.72	0.000352
3385.36	0.00047267
3395.01	0.0003906
3404.65	0.00042459
3414.3	0.00042693
3423.94	0.00042387
3433.59	0.00027
3443.23	0.0003545
3452.88	0.0005132
3462.52	0.00042426
3472.17	0.000259
3481.81	0.0006079
3491.46	0.000413581
3501.1	0.00050475
3510.75	0.0005277
3520.39	0.000595
3530.04	0.000573
3539.68	0.0006498
3549.32	0.000787
3558.97	0.004496
3568.61	0.010836
3578.26	0.005776
3587.9	0.0009483
3597.55	0.0003164
3607.19	0.0005248
3616.84	0.00045482
3626.48	0.00040125
3636.13	0.0003603
3645.77	0.0003478
3655.42	0.0003586
3665.06	0.000413998
3674.71	0.000363
3684.35	0.0003379
3694	0.00042263
3703.64	0.00047812
3713.29	0.0003898
3722.93	0.000249
3732.58	0.0003411
3742.22	0.000218
3751.86	0.0003601
3761.51	0.0003271
3771.15	0.00049841
3780.8	0.00046946
3790.44	0.00039846
3800.09	0.00045684
3809.73	0.00050211
3819.38	0.000129
3829.02	0.00046554
3838.67	0.00044074
3848.31	0.0003462
3857.96	0.000197
3867.6	0.0003716
3877.25	0.000292
3886.89	0.0003226
3896.54	0.00050325
3906.18	0.0003095
3915.83	0.0003087
3925.47	0.000111
3935.12	0.0003952
3944.76	0.000312
3954.41	0.000232
3964.05	0.00048653
3973.69	0.000242
3983.34	0.0003154
3992.98	0.00042076
