Infrared Spectrum: Busan
Formula: C 9 H 6 N 2 S 3
CAS: 21564-17-0
State: gas
Instrument: HP-GC/MS/IRD
Origin: NIST Mass Spectrometry Data Center
1/CM	ABSORBANCE
550	0.0008624
562	0.000539
574	0.0005264
586	0.0004354
598	0.0004704
610	0.0003976
622	0.0004704
634	0.000588
646	0.000707
658	0.0010654
670	0.0015442
682	0.0013874
694	0.0015008
706	0.0029848
718	0.0055146
730	0.005663
742	0.0042658
754	0.0084742
766	0.0027972
778	0.0009912
790	0.000553
802	0.0004172
814	0.0006412
826	0.001533
838	0.0012334
850	0.000812
862	0.0006034
874	0.0002926
886	0.0002128
898	9.94e-05
910	0.0001582
922	0.0002254
934	0.0002926
946	0.0004046
958	0.0008932
970	0.001512
982	0.0044142
994	0.0114632
1006	0.0121002
1018	0.005082
1030	0.0016492
1042	0.0010948
1054	0.0007938
1066	0.0012488
1078	0.0022694
1090	0.001225
1102	0.0007644
1114	0.0007154
1126	0.0010892
1138	0.0007294
1150	0.0008792
1162	0.0010934
1174	0.001246
1186	0.001666
1198	0.003927
1210	0.0063658
1222	0.0031612
1234	0.0039914
1246	0.0025046
1258	0.0010444
1270	0.0015316
1282	0.0017654
1294	0.0014084
1306	0.0019852
1318	0.0008778
1330	0.0005516
1342	0.0005726
1354	0.0007056
1366	0.0012516
1378	0.0016198
1390	0.0012796
1402	0.0015092
1414	0.0032886
1426	0.008337
1438	0.0052738
1450	0.0032088
1462	0.0060452
1474	0.005222
1486	0.0012922
1498	0.00049
1510	0.0001638
1522	5.6e-05
1534	7.42e-05
1546	0.0001106
1558	0.0003052
1570	0.0003682
1582	0.0002436
1594	0.000224
1606	0.0001974
1618	5.88e-05
1630	5.18e-05
1642	2.24e-05
1654	6.44e-05
1666	0.0001358
1678	0.0001722
1690	0.0003654
1702	0.0001666
1714	7.98e-05
1726	0.0001246
1738	6.02e-05
1750	4.9e-05
1762	0.000168
1774	0.0003276
1786	0.00028
1798	0.000147
1810	0.000252
1822	0.0002422
1834	8.68e-05
1846	6.44e-05
1858	0.000182
1870	0.0002212
1882	0.0001064
1894	0.000266
1906	0.0002912
1918	0.0001162
1930	0.0002828
1942	0.0003654
1954	0.0001288
1966	0.0001204
1978	0.0001442
1990	0.000252
2002	0.000336
2014	0.0004648
2026	0.0005824
2038	0.0005208
2050	0.0003052
2062	0.0001834
2074	0.0001456
2086	0.000112
2098	0.0001008
2110	0.0001134
2122	0.000105
2134	0.000217
2146	0.0004018
2158	0.0010542
2170	0.0008288
2182	0.000203
2194	0.000105
2206	6.3e-05
2218	3.64e-05
2230	9.8e-06
2242	1.96e-05
2254	4.9e-05
2266	4.34e-05
2278	4.2e-05
2290	3.08e-05
2302	4.62e-05
2314	5.6e-05
2326	1.82e-05
2338	7e-06
2350	0
2362	0
2374	0
2386	0
2398	2.52e-05
2410	4.34e-05
2422	2.8e-05
2434	7.56e-05
2446	4.76e-05
2458	6.44e-05
2470	0.0001008
2482	6.02e-05
2494	8.82e-05
2506	7.56e-05
2518	2.52e-05
2530	9.52e-05
2542	0.0001148
2554	9.24e-05
2566	9.24e-05
2578	0.0001554
2590	0.0001582
2602	0.0001512
2614	0.0001442
2626	8.12e-05
2638	0.0001134
2650	0.0001372
2662	0.0001554
2674	0.000119
2686	8.26e-05
2698	0.0001134
2710	0.0001834
2722	0.0001456
2734	0.0001316
2746	0.0001736
2758	0.0001064
2770	0.000154
2782	0.0001274
2794	0.0001008
2806	0.0001806
2818	0.000147
2830	0.0001526
2842	0.000203
2854	0.0001904
2866	0.0002072
2878	0.0001988
2890	0.0002156
2902	0.000203
2914	0.000252
2926	0.0002912
2938	0.0004018
2950	0.0007896
2962	0.0004368
2974	0.0002548
2986	0.000322
2998	0.0004998
3010	0.0007462
3022	0.0007476
3034	0.000658
3046	0.0006594
3058	0.0010878
3070	0.0027958
3082	0.0026334
3094	0.0010794
3106	0.0004746
3118	0.0004004
3130	0.0002954
3142	0.0001568
3154	0.0001288
3166	0.0001456
3178	0.0001736
3190	0.000182
3202	0.000203
3214	0.0001512
3226	0.000133
3238	0.0001792
3250	0.0002408
3262	0.0001414
3274	0.0001708
3286	0.0002408
3298	0.0001652
3310	0.0002058
3322	0.0002296
3334	0.0002562
3346	0.0002632
3358	0.000175
3370	0.0002366
3382	0.0002016
3394	0.000189
3406	0.0002618
3418	0.0001806
3430	0.0003024
3442	0.0002422
3454	0.0003052
3466	0.0002828
3478	0.0002534
3490	0.0002198
3502	0.0002716
3514	0.0003108
3526	0.0002324
3538	0.0002534
3550	0.0002688
3562	0.0002758
3574	0.000238
3586	0.0002492
3598	0.0002968
3610	0.000196
3622	0.0001918
3634	0.000315
3646	0.0002436
3658	0.000203
3670	0.0002772
3682	0.000301
3694	0.000266
3706	0.0003122
3718	0.0001764
3730	0.0001834
3742	0.0002044
3754	0.0002338
3766	0.0002618
3778	0.0002366
3790	0.0002744
3802	0.000315
3814	0.0002828
3826	0.00028
3838	0.0002226
