Infrared Spectrum: Lauryl acrylate
Formula: C 15 H 28 O 2
CAS: 2156-97-0
State: gas
Origin: EPA-IR VAPOR PHASE LIBRARY
1/CM	ABSORBANCE
549.9	0.001613
559.547	0.001053
569.193	0.000914
578.84	0.00071
588.486	0.000829
598.133	0.001
607.779	0.001752
617.426	0.00155
627.072	0.001276
636.719	0.001379
646.365	0.001677
656.012	0.002531
665.658	0.00375
675.305	0.0026612
684.951	0.001987
694.598	0.0022955
704.245	0.00386
713.891	0.00603
723.538	0.00667
733.184	0.00587
742.831	0.00481
752.477	0.00419
762.124	0.00418
771.77	0.00457
781.417	0.00618
791.063	0.01026
800.71	0.0178
810.356	0.02213
820.003	0.01564
829.649	0.01029
839.296	0.00805
848.943	0.00715
858.589	0.00703
868.236	0.00711
877.882	0.00722
887.529	0.00727
897.175	0.00744
906.822	0.0077
916.468	0.00824
926.115	0.00931
935.761	0.01166
945.408	0.01736
955.054	0.02835
964.701	0.03803
974.347	0.03885
983.994	0.04257
993.64	0.03531
1003.29	0.02493
1012.93	0.01974
1022.58	0.01963
1032.23	0.02504
1041.87	0.03896
1051.52	0.06246
1061.17	0.07858
1070.81	0.05941
1080.46	0.03687
1090.11	0.02195
1099.75	0.01424
1109.4	0.01121
1119.05	0.01102
1128.69	0.01252
1138.34	0.01626
1147.99	0.02536
1157.63	0.04695
1167.28	0.09923
1176.92	0.2247
1186.57	0.33689
1196.22	0.21451
1205.86	0.09493
1215.51	0.0514
1225.16	0.03999
1234.8	0.04426
1244.45	0.06764
1254.1	0.12013
1263.74	0.15235
1273.39	0.10258
1283.04	0.06534
1292.68	0.0716
1302.33	0.05823
1311.98	0.03162
1321.62	0.02048
1331.27	0.01602
1340.92	0.01507
1350.56	0.01622
1360.21	0.01566
1369.86	0.0156
1379.5	0.01917
1389.15	0.02313
1398.79	0.04054
1408.44	0.08507
1418.09	0.05203
1427.73	0.02385
1437.38	0.02184
1447.03	0.02843
1456.67	0.03833
1466.32	0.03963
1475.97	0.02596
1485.61	0.014
1495.26	0.00881
1504.91	0.00648
1514.55	0.00509
1524.2	0.00425
1533.85	0.00361
1543.49	0.00314
1553.14	0.00286
1562.79	0.0027129
1572.43	0.00283
1582.08	0.00335
1591.73	0.00432
1601.37	0.00611
1611.02	0.00894
1620.67	0.01247
1630.31	0.01604
1639.96	0.01659
1649.6	0.00864
1659.25	0.00533
1668.9	0.00488
1678.54	0.00575
1688.19	0.00814
1697.84	0.01292
1707.48	0.02154
1717.13	0.03897
1726.78	0.07681
1736.42	0.14647
1746.07	0.19992
1755.72	0.11902
1765.36	0.05492
1775.01	0.02607
1784.66	0.01389
1794.3	0.00851
1803.95	0.00578
1813.6	0.00413
1823.24	0.00333
1832.89	0.00285
1842.54	0.0025031
1852.18	0.0023363
1861.83	0.0022432
1871.47	0.0022338
1881.12	0.0020949
1890.77	0.0021425
1900.41	0.0024017
1910.06	0.00305
1919.71	0.00423
1929.35	0.00466
1939	0.00339
1948.65	0.0025392
1958.29	0.002027
1967.94	0.0017504
1977.59	0.001532
1987.23	0.001543
1996.88	0.001602
2006.53	0.00185689
2016.17	0.0021283
2025.82	0.0023774
2035.47	0.0024766
2045.11	0.0023979
2054.76	0.0024128
2064.41	0.0022071
2074.05	0.0021739
2083.7	0.0020498
2093.35	0.00183034
2102.99	0.0016891
2112.64	0.001514
2122.28	0.001437
2131.93	0.001355
2141.58	0.001307
2151.22	0.001282
2160.87	0.001281
2170.52	0.001207
2180.16	0.001124
2189.81	0.001133
2199.46	0.000992
2209.1	0.000925
2218.75	0.000981
2228.4	0.00095
2238.04	0.000925
2247.69	0.000987
2257.34	0.000943
2266.98	0.001011
2276.63	0.001143
2286.28	0.001129
2295.92	0.001133
2305.57	0.001168
2315.22	0.001251
2324.86	0.001261
2334.51	0.001354
2344.16	0.001444
2353.8	0.001639
2363.45	0.00182388
2373.09	0.001664
2382.74	0.001488
2392.39	0.001249
2402.03	0.001123
2411.68	0.001082
2421.33	0.000969
2430.97	0.000918
2440.62	0.000945
2450.27	0.000875
2459.91	0.000993
2469.56	0.001092
2479.21	0.001112
2488.85	0.001228
2498.5	0.001158
2508.15	0.001183
2517.79	0.001398
2527.44	0.001481
2537.09	0.001507
2546.73	0.001542
2556.38	0.001598
2566.03	0.001668
2575.67	0.001662
2585.32	0.00178783
2594.96	0.0019629
2604.61	0.0021365
2614.26	0.0022351
2623.9	0.0024813
2633.55	0.0027465
2643.2	0.00286
2652.84	0.00324
2662.49	0.00357
2672.14	0.00407
2681.78	0.00418
2691.43	0.0042
2701.08	0.00399
2710.72	0.00374
2720.37	0.00382
2730.02	0.00401
2739.66	0.00452
2749.31	0.00479
2758.96	0.00495
2768.6	0.00541
2778.25	0.0061
2787.9	0.00728
2797.54	0.00899
2807.19	0.01108
2816.84	0.01429
2826.48	0.0191
2836.13	0.02739
2845.77	0.04848
2855.42	0.10803
2865.07	0.1541
2874.71	0.11584
2884.36	0.09093
2894.01	0.08742
2903.65	0.11612
2913.3	0.1762
2922.95	0.29537
2932.59	0.42573
2942.24	0.33756
2951.89	0.20496
2961.53	0.16347
2971.18	0.13586
2980.83	0.07708
2990.47	0.04562
3000.12	0.02894
3009.77	0.01918
3019.41	0.01451
3029.06	0.01262
3038.71	0.01224
3048.35	0.01095
3058	0.00724
3067.64	0.00602
3077.29	0.0055
3086.94	0.00491
3096.58	0.00505
3106.23	0.00793
3115.88	0.00655
3125.52	0.00306
3135.17	0.0021497
3144.82	0.001767
3154.46	0.001574
3164.11	0.001429
3173.76	0.001231
3183.4	0.001168
3193.05	0.000819
3202.7	0.00076
3212.34	0.00047
3221.99	0.0007
3231.64	0.00022
3241.28	0.00047
3250.93	0.00033
3260.58	0.00024
3270.22	4e-05
3279.87	0.00012
3289.52	0.00025
3299.16	0.00021
3308.81	0.00021
3318.45	0.00026
3328.1	0.00033
3337.75	0.00023
3347.39	0.00039
3357.04	0.00055
3366.69	0.00047
3376.33	0.00039
3385.98	0.0006
3395.63	0.00024
3405.27	0.00048
3414.92	0.00044
3424.57	0.00062
3434.21	0.000806
3443.86	0.000792
3453.51	0.00123
3463.15	0.0019306
3472.8	0.0022755
3482.45	0.001403
3492.09	0.00079
3501.74	0.00053
3511.39	0.00013
3521.03	0.00017
3530.68	0.00016
3540.33	0.00023
3549.97	0.0001
3559.62	0.00024
3569.26	0.00029
3578.91	0.0003
3588.56	0.00026
3598.2	0.00034
3607.85	0.00045
3617.5	0.00045
3627.14	0.00055
3636.79	0.00059
3646.44	0.00058
3656.08	0.00059
3665.73	0.00055
3675.38	0.00053
3685.02	0.00065
3694.67	0.00048
3704.32	0.00066
3713.96	0.00062
3723.61	0.00053
3733.26	0.00051
3742.9	0.00072
3752.55	0.00062
3762.2	0.00063
3771.84	0.000832
3781.49	0.00066
3791.13	0.0006
3800.78	0.0006
3810.43	0.00083
3820.07	0.000836
3829.72	0.000987
3839.37	0.00076
3849.01	0.00067
3858.66	0.000834
3868.31	0.000791
3877.95	0.00077
3887.6	0.00067
3897.25	0.000936
3906.89	0.000878
3916.54	0.000856
3926.19	0.000951
3935.83	0.000983
3945.48	0.000991
3955.13	0.001126
3964.77	0.001082
3974.42	0.001186
3984.07	0.001309
3993.71	0.001247
