Infrared Spectrum: Pyridinium iodide, 2-[p-(dimethylamino) styryl]-1-methyl-
Formula: C16 H19 I N2
CAS: 2156-29-8
State: SOLID (SPLIT MULL), FLUOROLUBE FOR 3800-1330 CM^-^1, NUJOL FOR 1330-400 CM^-^1
Class: COBLENTZ III
Instrument: DOW KBr FOREPRISM-GRATING
Instrument parameters: BLAZED AT 3.5, 12.0, 20.0 MICRON AND CHANGED AT 5.0, 7.5, 14.9 MICRON
Sampling: TRANSMISSION
Resolution: 2
Origin: DOW CHEMICAL COMPANY
1/CM	TRANSMITTANCE
392	0.7201
401	0.7214
410	0.7212
419	0.7211
428	0.7355
437	0.7878
446	0.8088
455	0.818
464	0.8205
473	0.8225
482	0.8384
491	0.8114
500	0.8154
509	0.8723
518	0.8578
527	0.7749
536	0.7318
545	0.8725
554	0.8618
563	0.8894
572	0.8908
581	0.8909
590	0.8902
599	0.8932
608	0.8875
617	0.8856
626	0.8834
635	0.8821
644	0.8805
653	0.8785
662	0.8753
671	0.8765
680	0.8755
689	0.8716
698	0.8665
707	0.8557
716	0.8254
725	0.7645
734	0.7968
743	0.8445
752	0.848
761	0.8357
770	0.7935
779	0.5869
788	0.6992
797	0.7875
806	0.7186
815	0.2018
824	0.7534
833	0.7858
842	0.7544
851	0.8036
860	0.8282
869	0.8204
878	0.8056
887	0.8043
896	0.8026
905	0.7985
914	0.7893
923	0.7711
932	0.7131
941	0.5016
950	0.7199
959	0.6023
968	0.5742
977	0.7476
986	0.7575
995	0.7106
1004	0.7325
1013	0.7591
1022	0.7434
1031	0.7139
1040	0.6798
1049	0.6475
1058	0.6633
1067	0.6359
1076	0.5382
1085	0.7183
1094	0.7043
1103	0.6718
1112	0.6198
1121	0.6264
1130	0.5771
1139	0.5156
1148	0.4765
1157	0.3584
1166	0.1724
1175	0.1762
1184	0.2969
1193	0.1979
1202	0.7268
1211	0.6936
1220	0.502
1229	0.5254
1238	0.7034
1247	0.6522
1256	0.6471
1265	0.5669
1274	0.395
1283	0.4432
1292	0.6062
1301	0.5338
1310	0.4887
1319	0.348
1328	0.3694
1337	0.3112
1346	0.566
1355	0.5453
1364	0.4198
1373	0.2383
1382	0.4539
1391	0.6782
1400	0.6749
1409	0.6127
1418	0.63
1427	0.5916
1436	0.3991
1445	0.4729
1454	0.3695
1463	0.6747
1472	0.6247
1481	0.5669
1490	0.5555
1499	0.4742
1508	0.3242
1517	0.3102
1526	0.1866
1535	0.2934
1544	0.407
1553	0.3042
1562	0.1776
1571	0.5153
1580	0.3144
1589	0.1007
1598	0.1345
1607	0.5935
1616	0.7421
1625	0.6297
1634	0.8443
1643	0.8843
1652	0.8692
1661	0.8645
1670	0.8618
1679	0.8565
1688	0.8478
1697	0.8425
1706	0.8352
1715	0.8259
1724	0.8209
1733	0.8086
1742	0.7987
1751	0.7971
1760	0.7904
1769	0.7836
1778	0.7774
1787	0.7725
1796	0.7686
1805	0.7651
1814	0.7618
1823	0.7585
1832	0.7531
1841	0.7434
1850	0.7421
1859	0.744
1868	0.739
1877	0.7282
1886	0.7251
1895	0.7275
1904	0.7305
1913	0.7265
1922	0.7178
1931	0.7071
1940	0.7037
1949	0.7098
1958	0.7095
1967	0.7058
1976	0.7014
1985	0.6984
1994	0.6847
2003	0.6869
2012	0.6869
2021	0.6861
2030	0.6839
2039	0.6793
2048	0.6743
2057	0.6698
2066	0.666
2075	0.6619
2084	0.6581
2093	0.6543
2102	0.6514
2111	0.6486
2120	0.6461
2129	0.6433
2138	0.6398
2147	0.636
2156	0.6323
2165	0.6284
2174	0.6249
2183	0.6215
2192	0.6182
2201	0.6151
2210	0.6121
2219	0.6087
2228	0.6048
2237	0.601
2246	0.5974
2255	0.5946
2264	0.5924
2273	0.5906
2282	0.5883
2291	0.585
2300	0.5819
2309	0.5787
2318	0.5765
2327	0.5742
2336	0.572
2345	0.5699
2354	0.568
2363	0.566
2372	0.5638
2381	0.5612
2390	0.5589
2399	0.5564
2408	0.5546
2417	0.5527
2426	0.5509
2435	0.5489
2444	0.547
2453	0.5454
2462	0.544
2471	0.5419
2480	0.5394
2489	0.5362
2498	0.5332
2507	0.5306
2516	0.5284
2525	0.5262
2534	0.5258
2543	0.5259
2552	0.5256
2561	0.525
2570	0.5233
2579	0.5209
2588	0.5183
2597	0.5155
2606	0.5128
2615	0.5101
2624	0.5066
2633	0.5037
2642	0.5034
2651	0.5026
2660	0.5019
2669	0.4994
2678	0.4958
2687	0.4921
2696	0.4895
2705	0.4876
2714	0.4858
2723	0.482
2732	0.4775
2741	0.4734
2750	0.4695
2759	0.466
2768	0.461
2777	0.454
2786	0.4481
2795	0.4421
2804	0.4362
2813	0.4347
2822	0.4343
2831	0.4317
2840	0.4279
2849	0.4266
2858	0.4256
2867	0.4249
2876	0.4235
2885	0.419
2894	0.4119
2903	0.4098
2912	0.4108
2921	0.4105
2930	0.4088
2939	0.404
2948	0.401
2957	0.4029
2966	0.4034
2975	0.3928
2984	0.3789
2993	0.343
3002	0.3428
3011	0.3503
3020	0.3742
3029	0.3827
3038	0.384
3047	0.4148
3056	0.4024
3065	0.3774
3074	0.4377
3083	0.4393
3092	0.4381
3101	0.4426
3110	0.4438
3119	0.4397
3128	0.4356
3137	0.4317
3146	0.4319
3155	0.4365
3164	0.4362
3173	0.4346
3182	0.4332
3191	0.4317
3200	0.4301
3209	0.4285
3218	0.4273
3227	0.4258
3236	0.4242
3245	0.4226
3254	0.421
3263	0.4197
3272	0.4184
3281	0.4171
3290	0.4156
3299	0.4136
3308	0.4116
3317	0.4093
3326	0.4071
3335	0.4047
3344	0.4025
3353	0.4
3362	0.3974
3371	0.3949
3380	0.3924
3389	0.3903
3398	0.3884
3407	0.3866
3416	0.3849
3425	0.383
3434	0.3814
3443	0.3803
3452	0.3792
3461	0.378
3470	0.377
3479	0.3759
3488	0.3748
3497	0.3738
3506	0.3727
3515	0.3716
3524	0.3707
3533	0.3696
3542	0.3692
3551	0.3687
3560	0.3682
3569	0.3678
3578	0.3677
3587	0.3677
3596	0.3675
3605	0.3664
3614	0.3656
3623	0.3649
3632	0.3644
3641	0.3638
3650	0.363
3659	0.3616
3668	0.36
3677	0.3586
3686	0.3571
3695	0.3555
3704	0.3538
3713	0.3522
3722	0.3507
3731	0.3492
3740	0.3478
3749	0.3464
3758	0.345
3767	0.3437
3776	0.3424
3785	0.3409
3794	0.3397
