Infrared Spectrum: 1,1-DIPHENYL-2(N-METHYL-N'-PIPERAZINO) ETHANOL
Formula: C19 H24 N2 O
CAS: 21579-78-2
State: SOLUTION (7% IN CHCl3)
Class: COBLENTZ
Instrument: PERKIN-ELMER
Sampling: TRANSMISSION
Path length: 0.010 CM
Resolution: 4
Origin: ABBOTT LABORATORIES - WASHBURN
MICROMETERS	TRANSMITTANCE
2.024	0.92
2.06368	0.913
2.10337	0.917
2.14305	0.918
2.18274	0.9251
2.22242	0.9381
2.2621	0.941
2.30179	0.95
2.34147	0.946
2.38116	0.9512
2.42084	0.953
2.46053	0.946
2.50021	0.948
2.53989	0.9479
2.57958	0.951
2.61926	0.96
2.65895	0.956
2.69863	0.9581
2.73831	0.9599
2.778	0.9476
2.81768	0.9347
2.85737	0.9048
2.89705	0.8922
2.93673	0.8544
2.97642	0.8091
3.0161	0.7609
3.05579	0.741
3.09547	0.737
3.13515	0.766
3.17484	0.7922
3.21452	0.8241
3.25421	0.829
3.29389	0.8042
3.33358	0.7919
3.37326	0.7262
3.41294	0.6432
3.45263	0.517
3.49231	0.5831
3.532	0.625
3.57168	0.5618
3.61136	0.4962
3.65105	0.6753
3.69073	0.7681
3.73042	0.8595
3.7701	0.8823
3.80978	0.9179
3.84947	0.9379
3.88915	0.958
3.92884	0.9561
3.96852	0.946
4.00821	0.9229
4.04789	0.91
4.08757	0.9
4.12726	0.912
4.16694	0.9221
4.20663	0.9252
4.24631	0.9248
4.28599	0.9232
4.32568	0.9248
4.36536	0.9101
4.40505	0.907
4.44473	0.895
4.48441	0.89
4.5241	0.888
4.56378	0.887
4.60347	0.88
4.64315	0.875
4.68284	0.873
4.72252	0.868
4.7622	0.8652
4.80189	0.868
4.84157	0.865
4.88126	0.86
4.92094	0.86
4.96062	0.859
5.00031	0.855
5.03999	0.857
5.07968	0.8452
5.11936	0.8304
5.15904	0.8229
5.19873	0.8397
5.23841	0.842
5.2781	0.839
5.31778	0.83
5.35746	0.83
5.39715	0.8405
5.43683	0.845
5.47652	0.8399
5.5162	0.8269
5.55589	0.8201
5.59557	0.8318
5.63525	0.8386
5.67494	0.839
5.71462	0.8307
5.75431	0.834
5.79399	0.835
5.83367	0.832
5.87336	0.827
5.91304	0.827
5.95273	0.82
5.99241	0.815
6.03209	0.8091
6.07178	0.8141
6.11146	0.8128
6.15115	0.805
6.19083	0.802
6.23052	0.7915
6.2702	0.7305
6.30988	0.7697
6.34957	0.7948
6.38925	0.8104
6.42894	0.8255
6.46862	0.8199
6.5083	0.8248
6.54799	0.83
6.58767	0.8236
6.62736	0.8205
6.66704	0.7981
6.70672	0.6502
6.74641	0.6227
6.78609	0.7201
6.82578	0.6633
6.86546	0.4247
6.90515	0.3853
6.94483	0.409
6.98451	0.6564
7.0242	0.7258
7.06388	0.731
7.10357	0.7103
7.14325	0.6701
7.18293	0.6232
7.22262	0.5851
7.2623	0.5645
7.30199	0.5146
7.34167	0.5825
7.38135	0.6518
7.42104	0.6495
7.46072	0.6199
7.50041	0.678
7.54009	0.5626
7.57977	0.6145
7.61946	0.5757
7.65914	0.5955
7.69883	0.5483
7.73851	0.4182
7.7782	0.5057
7.81788	0.499
7.85756	0.6345
7.89725	0.6695
7.93693	0.678
7.97662	0.689
8.0163	0.706
8.05598	0.6998
8.09567	0.6828
8.13535	0.6767
8.17504	0.6777
8.21472	0.695
8.2544	0.7084
8.29409	0.7191
8.33377	0.7418
8.37346	0.7434
8.41314	0.6846
8.45283	0.6324
8.49251	0.5821
8.53219	0.5574
8.57188	0.5263
8.61156	0.3798
8.65125	0.365
8.69093	0.5137
8.73061	0.526
8.7703	0.4804
8.80998	0.5113
8.84967	0.4954
8.88935	0.5674
8.92903	0.5604
8.96872	0.4955
9.0084	0.5378
9.04809	0.5909
9.08777	0.61
9.12746	0.6013
9.16714	0.6065
9.20682	0.6331
9.24651	0.6151
9.28619	0.5649
9.32588	0.6655
9.36556	0.7012
9.40524	0.6872
9.44493	0.5686
9.48461	0.5058
9.5243	0.5357
9.56398	0.6122
9.60366	0.7154
9.64335	0.7452
9.68303	0.722
9.72272	0.6489
9.7624	0.6715
9.80208	0.6924
9.84177	0.665
9.88145	0.4317
9.92114	0.2526
9.96082	0.5101
10.0005	0.6631
10.0402	0.7304
10.0799	0.7599
10.1196	0.7753
10.1592	0.774
10.1989	0.7755
10.2386	0.786
10.2783	0.786
10.318	0.7667
10.3577	0.7514
10.3973	0.7173
10.437	0.6199
10.4767	0.6197
10.5164	0.7051
10.5561	0.7512
10.5958	0.7802
10.6355	0.792
10.6751	0.8
10.7148	0.805
10.7545	0.802
10.7942	0.77
10.8339	0.7077
10.8736	0.723
10.9132	0.7311
10.9529	0.7016
10.9926	0.678
11.0323	0.6937
11.072	0.7402
11.1117	0.7699
11.1513	0.79
11.191	0.7979
11.2307	0.796
11.2704	0.796
11.3101	0.7906
11.3498	0.7719
11.3894	0.7418
11.4291	0.6943
11.4688	0.6628
11.5085	0.6842
11.5482	0.7267
11.5879	0.7546
11.6276	0.7752
11.6672	0.788
11.7069	0.8044
11.7466	0.805
11.7863	0.807
11.826	0.8116
11.8657	0.8102
11.9053	0.807
11.945	0.812
11.9847	0.814
12.0244	0.814
12.0641	0.809
12.1038	0.807
12.1434	0.809
12.1831	0.799
12.2228	0.7899
12.2625	0.779
12.3022	0.7664
12.3419	0.752
12.3816	0.7441
12.4212	0.7342
12.4609	0.7414
12.5006	0.7445
12.5403	0.754
12.58	0.7582
12.6197	0.764
12.6593	0.7792
12.699	0.7963
12.7387	0.8125
12.7784	0.827
12.8181	0.8322
12.8578	0.839
12.8974	0.839
12.9371	0.839
12.9768	0.839
13.0165	0.839
13.0562	0.832
13.0959	0.8332
13.1355	0.839
13.1752	0.839
13.2149	0.839
13.2546	0.839
13.2943	0.839
13.334	0.839
13.3737	0.839
13.4133	0.839
13.453	0.839
13.4927	0.834
13.5324	0.839
13.5721	0.839
13.6118	0.8381
13.6514	0.835
13.6911	0.835
13.7308	0.839
13.7705	0.839
13.8102	0.837
13.8499	0.83
13.8895	0.825
13.9292	0.8107
13.9689	0.7993
14.0086	0.7864
14.0483	0.7585
14.088	0.72
14.1277	0.6506
14.1673	0.5272
14.207	0.3956
14.2467	0.3101
14.2864	0.2728
14.3261	0.2762
14.3658	0.3028
14.4054	0.3689
14.4451	0.4846
14.4848	0.5968
14.5245	0.6677
14.5642	0.7081
14.6039	0.749
14.6435	0.7723
14.6832	0.7847
14.7229	0.8028
14.7626	0.8146
14.8023	0.8322
14.842	0.8371
14.8817	0.842
14.9213	0.842
14.961	0.842
15.0007	0.8405
15.0404	0.8314
15.0801	0.7895
15.1198	0.6714
15.1594	0.5986
15.1991	0.585
15.2388	0.5852
15.2785	0.6002
15.3182	0.6357
15.3579	0.6773
15.3975	0.7076
