Infrared Spectrum: 9-Fluorenone oxime
Formula: C 13 H 9 N O
CAS: 2157-52-0
State: gas
Origin: EPA-IR VAPOR PHASE LIBRARY
1/CM	ABSORBANCE
549.8	0.0012223
559.445	0.0008676
569.09	0.00031013
578.734	0.000229593
588.379	0.0004822
598.024	0.0009334
607.669	0.001539
617.313	0.003329
626.958	0.005879
636.603	0.011739
646.248	0.009209
655.893	0.004609
665.537	0.010739
675.182	0.008069
684.827	0.003049
694.472	0.002999
704.116	0.003659
713.761	0.008659
723.406	0.035779
733.051	0.061959
742.695	0.025279
752.34	0.008909
761.985	0.007139
771.63	0.015749
781.275	0.021549
790.919	0.008769
800.564	0.003379
810.209	0.003199
819.854	0.003059
829.498	0.003279
839.143	0.003999
848.788	0.003779
858.433	0.004239
868.078	0.005519
877.722	0.005769
887.367	0.005799
897.012	0.009459
906.657	0.027069
916.301	0.058519
925.946	0.043579
935.591	0.010929
945.236	0.006529
954.88	0.006089
964.525	0.013319
974.17	0.032849
983.815	0.026959
993.46	0.005619
1003.1	0.002639
1012.75	0.002219
1022.39	0.001709
1032.04	0.002129
1041.68	0.001259
1051.33	0.0010142
1060.97	0.0010766
1070.62	0.0008871
1080.26	0.003139
1089.91	0.004799
1099.55	0.002689
1109.2	0.002469
1118.84	0.001269
1128.49	0.001489
1138.13	0.003449
1147.78	0.010609
1157.42	0.011629
1167.07	0.004729
1176.71	0.001599
1186.36	0.001459
1196	0.001969
1205.64	0.002279
1215.29	0.002389
1224.93	0.001819
1234.58	0.0009692
1244.22	0.0009783
1253.87	0.0011203
1263.51	0.000984
1273.16	0.001579
1282.8	0.002439
1292.45	0.003769
1302.09	0.015629
1311.74	0.025859
1321.38	0.009679
1331.03	0.004059
1340.67	0.004859
1350.32	0.012769
1359.96	0.024489
1369.61	0.010349
1379.25	0.001629
1388.9	0.0011201
1398.54	0.001259
1408.18	0.001609
1417.83	0.002809
1427.47	0.005339
1437.12	0.010959
1446.76	0.022439
1456.41	0.017109
1466.05	0.002969
1475.7	0.001969
1485.34	0.001479
1494.99	0.0008904
1504.63	0.0009045
1514.28	0.0009677
1523.92	0.0008076
1533.57	0.0007834
1543.21	0.0008175
1552.86	0.0010355
1562.5	0.001309
1572.15	0.002279
1581.79	0.004259
1591.44	0.005829
1601.08	0.009509
1610.73	0.009549
1620.37	0.003739
1630.01	0.002479
1639.66	0.002909
1649.3	0.001819
1658.95	0.0010244
1668.59	0.0011228
1678.24	0.001279
1687.88	0.0011591
1697.53	0.000745
1707.17	0.000912
1716.82	0.0011724
1726.46	0.001429
1736.11	0.001279
1745.75	0.0011578
1755.4	0.0010546
1765.04	0.0006866
1774.69	0.000578
1784.33	0.0006073
1793.98	0.0008624
1803.62	0.001739
1813.27	0.001969
1822.91	0.001539
1832.55	0.001759
1842.2	0.001869
1851.84	0.0011659
1861.49	0.0007724
1871.13	0.001175
1880.78	0.001979
1890.42	0.001839
1900.07	0.001619
1909.71	0.002579
1919.36	0.002179
1929	0.0011824
1938.65	0.002039
1948.29	0.002829
1957.94	0.001379
1967.58	0.0006011
1977.23	0.0004347
1986.87	0.00030524
1996.52	0.0003717
2006.16	0.0003971
2015.81	0.0003315
2025.45	0.0004217
2035.1	0.000437
2044.74	0.0003932
2054.38	0.0003718
2064.03	0.0003942
2073.67	0.0004641
2083.32	0.0003913
2092.96	0.0003318
2102.61	0.0004001
2112.25	0.0004214
2121.9	0.0004237
2131.54	0.0004107
2141.19	0.0004426
2150.83	0.0004283
2160.48	0.0003666
2170.12	0.0003516
2179.77	0.0003347
2189.41	0.0003652
2199.06	0.0003372
2208.7	0.0003409
2218.35	0.0003568
2227.99	0.0003508
2237.64	0.0004047
2247.28	0.0004813
2256.92	0.0005783
2266.57	0.000551
2276.21	0.0005197
2285.86	0.0003704
2295.5	0.0003995
2305.15	0.0007212
2314.79	0.0008416
2324.44	0.000666
2334.08	0.0005784
2343.73	0.0004911
2353.37	0.00032123
2363.02	0.0003676
2372.66	0.0003976
2382.31	0.0003749
2391.95	0.00030984
2401.6	0.0003689
2411.24	0.0003738
2420.89	0.00026665
2430.53	0.00031781
2440.18	0.000446
2449.82	0.0004641
2459.47	0.00028729
2469.11	0.0004054
2478.75	0.00031261
2488.4	0.0003542
2498.04	0.0004297
2507.69	0.0004242
2517.33	0.0004017
2526.98	0.0004068
2536.62	0.0005139
2546.27	0.000476
2555.91	0.0005692
2565.56	0.0005285
2575.2	0.0006003
2584.85	0.0005639
2594.49	0.0005424
2604.14	0.0005755
2613.78	0.0005252
2623.43	0.0005878
2633.07	0.0005687
2642.72	0.0005593
2652.36	0.0006133
2662.01	0.0009372
2671.65	0.0008623
2681.29	0.0006592
2690.94	0.0007842
2700.58	0.0008581
2710.23	0.0011094
2719.87	0.0007809
2729.52	0.0004332
2739.16	0.0003781
2748.81	0.0004077
2758.45	0.0003341
2768.1	0.0003989
2777.74	0.0004073
2787.39	0.0003908
2797.03	0.0003931
2806.68	0.0004199
2816.32	0.0003668
2825.97	0.00027449
2835.61	0.0004221
2845.26	0.0004151
2854.9	0.0003477
2864.55	0.0004313
2874.19	0.0004848
2883.84	0.0005334
2893.48	0.0006885
2903.12	0.0006585
2912.77	0.0007938
2922.41	0.0008047
2932.06	0.0007277
2941.7	0.0007158
2951.35	0.0006787
2960.99	0.0005824
2970.64	0.0005103
2980.28	0.0006515
2989.93	0.0008685
2999.57	0.001239
3009.22	0.001869
3018.86	0.003199
3028.51	0.005729
3038.15	0.007659
3047.8	0.009239
3057.44	0.015269
3067.09	0.025009
3076.73	0.021699
3086.38	0.012219
3096.02	0.005119
3105.67	0.004109
3115.31	0.002699
3124.95	0.0008159
3134.6	0.000582
3144.24	0.0007025
3153.89	0.0009353
3163.53	0.0009335
3173.18	0.0007004
3182.82	0.000561
3192.47	0.0005463
3202.11	0.0004805
3211.76	0.0003449
3221.4	0.0004249
3231.05	0.0004569
3240.69	0.000496
3250.34	0.0006158
3259.98	0.0006248
3269.63	0.0004502
3279.27	0.0003621
3288.92	0.00031553
3298.56	0.0003303
3308.21	0.0003337
3317.85	0.00024124
3327.49	0.0002184
3337.14	0.000204
3346.78	0.0002189
3356.43	0.0001986
3366.07	0.0002149
3375.72	0.0001997
3385.36	0.0002171
3395.01	0.000232206
3404.65	0.0002734
3414.3	7.2e-05
3423.94	0.0003873
3433.59	0.00025363
3443.23	0.000124
3452.88	0.0004243
3462.52	0.00024081
3472.17	0.00028297
3481.81	0.0001518
3491.46	0.00031944
3501.1	0.0002496
3510.75	0.00019
3520.39	0.0002486
3530.04	0.0003951
3539.68	0.00043
3549.32	0.0004442
3558.97	0.0004817
3568.61	0.0004608
3578.26	0.0005395
3587.9	0.0007047
3597.55	0.001319
3607.19	0.003339
3616.84	0.011249
3626.48	0.044539
3636.13	0.061399
3645.77	0.019119
3655.42	0.002459
3665.06	0.001459
3674.71	0.0008714
3684.35	0.0006565
3694	0.0003928
3703.64	0.0003807
3713.29	0.0003424
3722.93	0.0003728
3732.58	0.0003404
3742.22	0.00026613
3751.86	0.00032304
3761.51	0.0004506
3771.15	0.0003365
3780.8	0.0002
3790.44	0.00030507
3800.09	0.0003372
3809.73	0.0003849
3819.38	0.0004282
3829.02	0.00029057
3838.67	0.00026726
3848.31	0.0002131
3857.96	0.00031818
3867.6	0.00030432
3877.25	0.0001982
3886.89	0.0001633
3896.54	0.0001667
3906.18	1.6e-05
3915.83	0.0001819
3925.47	0.000233036
3935.12	0.000195
3944.76	9.8e-05
3954.41	0.0003614
3964.05	0.00027656
3973.69	0.0005363
3983.34	0.0004894
3992.98	0.0004902
