Infrared Spectrum: 2-Methyl-4-heptanol
Formula: C 8 H 18 O
CAS: 21570-35-4
State: gas
Instrument: HP-GC/MS/IRD
Origin: NIST Mass Spectrometry Data Center
1/CM	ABSORBANCE
550	0.0003133
562	0.00026
574	0.0001833
586	0.0002028
598	0.0001157
610	0.000104
622	0.0001157
634	0.0001066
646	4.81e-05
658	1.95e-05
670	3.9e-05
682	5.59e-05
694	3.77e-05
706	9.62e-05
718	0.0001157
730	5.2e-05
742	0.0001105
754	0.0001287
766	0.0001092
778	3.51e-05
790	6.76e-05
802	0.0001066
814	0.0002353
826	0.0004121
838	0.0005083
850	0.0004771
862	0.0003913
874	0.000325
886	0.0002821
898	0.0003575
910	0.000338
922	0.0004251
934	0.0005343
946	0.0006994
958	0.0007098
970	0.0006019
982	0.0007462
994	0.0012753
1006	0.0018356
1018	0.0017511
1030	0.0012844
1042	0.0010192
1054	0.0009386
1066	0.0009854
1078	0.0010348
1090	0.0010881
1102	0.0011388
1114	0.0011934
1126	0.0014183
1138	0.001547
1150	0.0013325
1162	0.0010153
1174	0.0008177
1186	0.0006643
1198	0.0007956
1210	0.0008801
1222	0.0009373
1234	0.000871
1246	0.0008437
1258	0.0009035
1270	0.0008814
1282	0.0008333
1294	0.0007046
1306	0.0005785
1318	0.0005993
1330	0.0006955
1342	0.0008463
1354	0.0010816
1366	0.0016341
1378	0.0019552
1390	0.0016939
1402	0.0010764
1414	0.000702
1426	0.0006682
1438	0.0008814
1450	0.0012103
1462	0.0015847
1474	0.0014612
1486	0.0007475
1498	0.0003809
1510	0.0002145
1522	0.0001794
1534	0.0001378
1546	0.0001313
1558	9.88e-05
1570	0.0001001
1582	0.0001183
1594	0.0001157
1606	0.0001183
1618	6.63e-05
1630	0.0001014
1642	7.54e-05
1654	6.5e-05
1666	5.98e-05
1678	5.2e-05
1690	5.07e-05
1702	3.9e-06
1714	4.29e-05
1726	2.86e-05
1738	6.5e-06
1750	3.9e-05
1762	3.51e-05
1774	2.73e-05
1786	2.47e-05
1798	4.94e-05
1810	4.03e-05
1822	3.64e-05
1834	2.73e-05
1846	4.68e-05
1858	5.46e-05
1870	4.16e-05
1882	2.99e-05
1894	5.2e-05
1906	3.64e-05
1918	4.68e-05
1930	7.8e-06
1942	2.08e-05
1954	5.46e-05
1966	4.81e-05
1978	4.16e-05
1990	2.99e-05
2002	3.25e-05
2014	2.08e-05
2026	3.64e-05
2038	2.6e-05
2050	2.86e-05
2062	2.86e-05
2074	2.99e-05
2086	3.12e-05
2098	0
2110	3.12e-05
2122	1.3e-05
2134	4.55e-05
2146	1.04e-05
2158	4.29e-05
2170	3.51e-05
2182	2.47e-05
2194	2.6e-05
2206	3.25e-05
2218	4.03e-05
2230	3.51e-05
2242	1.95e-05
2254	2.6e-05
2266	5.33e-05
2278	2.21e-05
2290	3.51e-05
2302	5.98e-05
2314	6.5e-05
2326	5.07e-05
2338	5.59e-05
2350	4.68e-05
2362	5.98e-05
2374	8.19e-05
2386	6.24e-05
2398	2.6e-05
2410	5.07e-05
2422	6.24e-05
2434	5.72e-05
2446	5.59e-05
2458	3.51e-05
2470	2.86e-05
2482	1.3e-05
2494	6.5e-05
2506	4.42e-05
2518	4.03e-05
2530	4.55e-05
2542	4.03e-05
2554	7.54e-05
2566	8.45e-05
2578	6.76e-05
2590	8.45e-05
2602	9.36e-05
2614	0.0001443
2626	0.0001222
2638	9.36e-05
2650	0.0001378
2662	0.0001274
2674	0.0002041
2686	0.0001508
2698	0.0001508
2710	0.0002028
2722	0.0002275
2734	0.0002847
2746	0.0003068
2758	0.0003068
2770	0.0003107
2782	0.0003796
2794	0.000442
2806	0.0005382
2818	0.0007267
2830	0.0009984
2842	0.0015457
2854	0.0022737
2866	0.0034138
2878	0.0052884
2890	0.0056186
2902	0.0057408
2914	0.00741
2926	0.009191
2938	0.0097305
2950	0.0095641
2962	0.012701
2974	0.0101322
2986	0.0036088
2998	0.0015769
3010	0.000897
3022	0.0006435
3034	0.0004862
3046	0.0004082
3058	0.0003081
3070	0.0002678
3082	0.0001872
3094	0.0002704
3106	0.0002262
3118	0.0001729
3130	0.0001859
3142	0.0001872
3154	0.0001716
3166	0.0001612
3178	0.0001235
3190	0.0001196
3202	0.0001365
3214	0.0001014
3226	8.58e-05
3238	6.37e-05
3250	5.98e-05
3262	1.95e-05
3274	2.34e-05
3286	6.11e-05
3298	4.16e-05
3310	2.21e-05
3322	7.54e-05
3334	3.12e-05
3346	2.08e-05
3358	7.02e-05
3370	6.89e-05
3382	4.94e-05
3394	7.02e-05
3406	0.0001131
3418	8.32e-05
3430	8.19e-05
3442	6.24e-05
3454	4.81e-05
3466	1.3e-06
3478	4.03e-05
3490	7.93e-05
3502	5.33e-05
3514	7.15e-05
3526	6.63e-05
3538	9.36e-05
3550	0.0001001
3562	6.89e-05
3574	0.0001027
3586	1.82e-05
3598	8.84e-05
3610	0.000143
3622	0.0002054
3634	0.0004095
3646	0.0005837
3658	0.0006253
3670	0.0003887
3682	0.0001651
3694	0.0001586
3706	0.0001053
3718	0.0001014
3730	0.0001365
3742	0.0001001
3754	0.0001183
3766	0.0001365
3778	0.0001547
3790	9.88e-05
3802	0.0001183
3814	0.000169
3826	0.000195
3838	0.0001859
