Infrared Spectrum: 2,4-Pentanedionedioxime
Formula: C 5 H 10 N 2 O 2
CAS: 2157-56-4
State: gas
Origin: EPA-IR VAPOR PHASE LIBRARY
1/CM	ABSORBANCE
549.8	0.001917
559.445	0.001837
569.09	0.002327
578.734	0.003057
588.379	0.003847
598.024	0.004687
607.669	0.007797
617.313	0.014277
626.958	0.013827
636.603	0.007967
646.248	0.005257
655.893	0.006117
665.537	0.006297
675.182	0.005667
684.827	0.004887
694.472	0.004437
704.116	0.004387
713.761	0.004567
723.406	0.004297
733.051	0.003907
742.695	0.003107
752.34	0.002917
761.985	0.002497
771.63	0.001997
781.275	0.002017
790.919	0.002137
800.564	0.002557
810.209	0.003897
819.854	0.003977
829.498	0.003447
839.143	0.003327
848.788	0.004297
858.433	0.005937
868.078	0.009407
877.722	0.012587
887.367	0.011167
897.012	0.007257
906.657	0.008607
916.301	0.011487
925.946	0.013517
935.591	0.015187
945.236	0.020767
954.88	0.024107
964.525	0.019217
974.17	0.011687
983.815	0.009577
993.46	0.009107
1003.1	0.008707
1012.75	0.009177
1022.39	0.009947
1032.04	0.010797
1041.68	0.010587
1051.33	0.008787
1060.97	0.006097
1070.62	0.003977
1080.26	0.002497
1089.91	0.001507
1099.55	0.0010069
1109.2	0.0011353
1118.84	0.00028305
1128.49	0.0005906
1138.13	0.001897
1147.78	0.001297
1157.42	0.003047
1167.07	0.003657
1176.71	0.004367
1186.36	0.005717
1196	0.006927
1205.64	0.006367
1215.29	0.005787
1224.93	0.008627
1234.58	0.010787
1244.22	0.008407
1253.87	0.006017
1263.51	0.004987
1273.16	0.005757
1282.8	0.010017
1292.45	0.010417
1302.09	0.007827
1311.74	0.008907
1321.38	0.010507
1331.03	0.012397
1340.67	0.015817
1350.32	0.016777
1359.96	0.014147
1369.61	0.012907
1379.25	0.011657
1388.9	0.007747
1398.54	0.004957
1408.18	0.004357
1417.83	0.004977
1427.47	0.005497
1437.12	0.005127
1446.76	0.004277
1456.41	0.003477
1466.05	0.002727
1475.7	0.002307
1485.34	0.002047
1494.99	0.001897
1504.63	0.001857
1514.28	0.001857
1523.92	0.001807
1533.57	0.001717
1543.21	0.001737
1552.86	0.001557
1562.5	0.001327
1572.15	0.0011813
1581.79	0.0010062
1591.44	0.0009581
1601.08	0.0011167
1610.73	0.0012202
1620.37	0.0012204
1630.01	0.001477
1639.66	0.002047
1649.3	0.002617
1658.95	0.002247
1668.59	0.001597
1678.24	0.00108
1687.88	0.0006991
1697.53	0.0006296
1707.17	0.000609
1716.82	0.0006611
1726.46	0.0005177
1736.11	0.0006452
1745.75	0.0006034
1755.4	0.0004971
1765.04	0.0004918
1774.69	0.0006068
1784.33	0.0006005
1793.98	0.000685
1803.62	0.0008653
1813.27	0.0007781
1822.91	0.0007591
1832.55	0.0006249
1842.2	0.0005456
1851.84	0.0005362
1861.49	0.0005232
1871.13	0.0005607
1880.78	0.0006311
1890.42	0.0004473
1900.07	0.00049
1909.71	0.0004553
1919.36	0.0004351
1929	0.0004495
1938.65	0.000389
1948.29	0.0003753
1957.94	0.000377
1967.58	0.000465
1977.23	0.000335
1986.87	0.0003866
1996.52	0.0004571
2006.16	0.0003815
2015.81	0.0003759
2025.45	0.00028564
2035.1	0.00029486
2044.74	0.000367
2054.38	0.00028188
2064.03	0.0003647
2073.67	0.00029031
2083.32	0.00026892
2092.96	0.00030574
2102.61	0.0003669
2112.25	0.00029984
2121.9	0.0003663
2131.54	0.0003444
2141.19	0.00030928
2150.83	0.0004223
2160.48	0.0003944
2170.12	0.0003776
2179.77	0.0004158
2189.41	0.0004957
2199.06	0.0003908
2208.7	0.0004637
2218.35	0.0004225
2227.99	0.0003646
2237.64	0.0003661
2247.28	0.0003998
2256.92	0.0003494
2266.57	0.00031938
2276.21	0.000387
2285.86	0.0004542
2295.5	0.0003946
2305.15	0.0004644
2314.79	0.0004764
2324.44	0.0004343
2334.08	0.000486
2343.73	0.0004162
2353.37	0.000435
2363.02	0.0005626
2372.66	0.0003995
2382.31	0.0004281
2391.95	0.0003829
2401.6	0.0003462
2411.24	0.000386
2420.89	0.0004604
2430.53	0.0003513
2440.18	0.00032134
2449.82	0.0003712
2459.47	0.0003723
2469.11	0.0003679
2478.75	0.0003861
2488.4	0.00031068
2498.04	0.0003712
2507.69	0.0004977
2517.33	0.000457
2526.98	0.0004981
2536.62	0.0006368
2546.27	0.0005619
2555.91	0.0006337
2565.56	0.0005875
2575.2	0.0006783
2584.85	0.0006754
2594.49	0.0006696
2604.14	0.0006028
2613.78	0.0007531
2623.43	0.0006302
2633.07	0.0006283
2642.72	0.000722
2652.36	0.0006869
2662.01	0.0008735
2671.65	0.0008053
2681.29	0.0009036
2690.94	0.0009004
2700.58	0.0007593
2710.23	0.0007192
2719.87	0.0005568
2729.52	0.0005593
2739.16	0.0005159
2748.81	0.0005591
2758.45	0.0004439
2768.1	0.0004592
2777.74	0.0003399
2787.39	0.0004674
2797.03	0.0003485
2806.68	0.0005967
2816.32	0.0006962
2825.97	0.0009967
2835.61	0.001277
2845.26	0.001337
2854.9	0.001627
2864.55	0.001647
2874.19	0.001827
2883.84	0.002147
2893.48	0.002867
2903.12	0.003567
2912.77	0.004227
2922.41	0.005797
2932.06	0.007297
2941.7	0.006997
2951.35	0.006097
2960.99	0.005127
2970.64	0.004317
2980.28	0.003687
2989.93	0.003197
2999.57	0.002907
3009.22	0.002537
3018.86	0.002117
3028.51	0.001777
3038.15	0.001787
3047.8	0.001617
3057.44	0.001727
3067.09	0.001487
3076.73	0.001357
3086.38	0.0010062
3096.02	0.000841
3105.67	0.0005154
3115.31	0.0005546
3124.95	0.0004296
3134.6	0.0005044
3144.24	0.0004661
3153.89	0.0005697
3163.53	0.0004092
3173.18	0.0004927
3182.82	0.00033338
3192.47	0.0003712
3202.11	0.00029507
3211.76	0.0002016
3221.4	0.0003746
3231.05	0.0001979
3240.69	0.00024655
3250.34	0.0004342
3259.98	0.0005723
3269.63	0.0007055
3279.27	0.0008092
3288.92	0.0009276
3298.56	0.0007494
3308.21	0.0004309
3317.85	0.00032957
3327.49	0.00029149
3337.14	0.000238142
3346.78	0.0002081
3356.43	0.0002491
3366.07	0.0001547
3375.72	0.0001638
3385.36	0.00028324
3395.01	0.00017
3404.65	0.0003372
3414.3	0.00025104
3423.94	0.0003635
3433.59	0.0003521
3443.23	0.00030338
3452.88	0.00025583
3462.52	0.0001633
3472.17	0.0001496
3481.81	0.00036
3491.46	0.0003947
3501.1	0.000114
3510.75	6.9e-05
3520.39	0.0001975
3530.04	0.0001999
3539.68	0.0003093
3549.32	0.00028725
3558.97	0.0004291
3568.61	0.0005195
3578.26	0.0006313
3587.9	0.0009692
3597.55	0.001377
3607.19	0.002507
3616.84	0.004977
3626.48	0.011987
3636.13	0.032577
3645.77	0.047257
3655.42	0.033287
3665.06	0.008797
3674.71	0.002937
3684.35	0.001617
3694	0.0009793
3703.64	0.0008508
3713.29	0.000395
3722.93	0.000129
3732.58	0.0005293
3742.22	0.000156
3751.86	0.00032136
3761.51	0.0002185
3771.15	0.00023084
3780.8	0.0002185
3790.44	8.1e-05
3800.09	0.00032855
3809.73	0.00029811
3819.38	0.00027127
3829.02	0.000244086
3838.67	4.6e-05
3848.31	0.000106
3857.96	0.00029443
3867.6	0.0002086
3877.25	0.00028944
3886.89	0.0002308
3896.54	0.00030079
3906.18	0.000403
3915.83	0.0003785
3925.47	0.00027994
3935.12	0.00031899
3944.76	0.00032148
3954.41	0.0002136
3964.05	0.0001884
3973.69	0.00028995
3983.34	0.0005529
3992.98	0.0005227
