Infrared Spectrum: Leptophos
Formula: C 13 H 10 Br Cl 2 O 2 P S
CAS: 21609-90-5
State: gas
Instrument: HP-GC/MS/IRD
Origin: NIST Mass Spectrometry Data Center
1/CM	ABSORBANCE
550	0.0050847
562	0.0036618
574	0.006851
586	0.0082977
598	0.0036873
610	0.0011509
622	0.0014178
634	0.0007701
646	0.0020842
658	0.0035581
670	0.0018275
682	0.0034459
694	0.0041599
706	0.0029682
718	0.0055097
730	0.0022729
742	0.0014535
754	0.0006154
766	0.0003009
778	0.0003196
790	0.0006817
802	0.0020417
814	0.0059109
826	0.0131937
838	0.0060469
850	0.0016847
862	0.000765
874	0.0011322
886	0.0023817
898	0.0007769
910	0.0004692
922	0.0010948
934	0.0035581
946	0.0138907
958	0.0054009
970	0.0020128
982	0.0006834
994	0.0002635
1006	0.0002006
1018	4.93e-05
1030	0.0001173
1042	0.0001683
1054	0.000612
1066	0.0033745
1078	0.009639
1090	0.0018938
1102	0.0023613
1114	0.0100793
1126	0.0036873
1138	0.0010285
1150	0.0005916
1162	0.0004488
1174	0.0006392
1186	0.0013838
1198	0.00153
1210	0.0031382
1222	0.0080937
1234	0.0096611
1246	0.0096492
1258	0.0095608
1270	0.0054706
1282	0.0020621
1294	0.0010778
1306	0.0011696
1318	0.0015453
1330	0.0040375
1342	0.0070788
1354	0.001785
1366	0.0008109
1378	0.00051
1390	0.0004522
1402	0.0006086
1414	0.000918
1426	0.0019669
1438	0.0063563
1450	0.0146183
1462	0.0134011
1474	0.004862
1486	0.0038607
1498	0.0012631
1510	0.0005814
1522	0.0004828
1534	0.0006069
1546	0.0010098
1558	0.0012818
1570	0.0015096
1582	0.0010081
1594	0.0005219
1606	0.0001921
1618	7.82e-05
1630	6.97e-05
1642	8.67e-05
1654	0.0001513
1666	0.0001513
1678	8.84e-05
1690	2.38e-05
1702	1.7e-05
1714	4.25e-05
1726	0.000136
1738	0.00017
1750	0.000153
1762	0.0001428
1774	0.0001649
1786	0.000102
1798	0.0001088
1810	0.0001989
1822	0.0001241
1834	8.33e-05
1846	6.8e-05
1858	2.38e-05
1870	4.08e-05
1882	9.86e-05
1894	0.0001513
1906	0.000153
1918	0.0001394
1930	0.0001224
1942	0.000136
1954	0.0001598
1966	0.0001564
1978	0.0001258
1990	8.33e-05
2002	3.57e-05
2014	2.55e-05
2026	1.7e-05
2038	3.74e-05
2050	3.06e-05
2062	4.76e-05
2074	5.61e-05
2086	4.93e-05
2098	4.25e-05
2110	4.25e-05
2122	6.29e-05
2134	9.86e-05
2146	0.0001292
2158	0.0001088
2170	0.0001003
2182	9.52e-05
2194	8.33e-05
2206	6.8e-05
2218	7.14e-05
2230	8.16e-05
2242	6.8e-05
2254	3.23e-05
2266	3.91e-05
2278	5.61e-05
2290	9.01e-05
2302	6.8e-05
2314	7.48e-05
2326	7.48e-05
2338	7.14e-05
2350	7.14e-05
2362	5.1e-05
2374	5.95e-05
2386	5.61e-05
2398	7.14e-05
2410	0.0001122
2422	8.16e-05
2434	9.35e-05
2446	9.86e-05
2458	9.01e-05
2470	9.69e-05
2482	0.0001105
2494	0.0001105
2506	0.0001105
2518	9.52e-05
2530	0.0001139
2542	4.59e-05
2554	0.0001241
2566	0.0001088
2578	6.97e-05
2590	9.35e-05
2602	6.12e-05
2614	6.63e-05
2626	5.61e-05
2638	3.91e-05
2650	6.63e-05
2662	7.99e-05
2674	7.31e-05
2686	0.0001003
2698	0.0001173
2710	9.52e-05
2722	6.29e-05
2734	1.87e-05
2746	3.91e-05
2758	4.08e-05
2770	8.16e-05
2782	0.000119
2794	0.0001275
2806	6.46e-05
2818	9.01e-05
2830	8.67e-05
2842	0.0001513
2854	0.0002295
2866	0.0001547
2878	0.0001224
2890	0.0001139
2902	0.000136
2914	0.0001394
2926	0.0002516
2938	0.0009248
2950	0.0008296
2962	0.0002006
2974	0.0002176
2986	0.0001972
2998	0.0002091
3010	0.0003196
3022	0.0004233
3034	0.0003689
3046	0.0003774
3058	0.0008806
3070	0.0019601
3082	0.0012325
3094	0.0010234
3106	0.0004862
3118	0.0002652
3130	0.0002346
3142	0.0002686
3154	0.0002125
3166	8.67e-05
3178	7.14e-05
3190	0.0001445
3202	0.0001071
3214	8.33e-05
3226	0.000119
3238	8.5e-05
3250	2.89e-05
3262	7.48e-05
3274	0.0001564
3286	0.0001615
3298	0.0001275
3310	0.0001156
3322	0.0001445
3334	0.0001224
3346	9.01e-05
3358	0.000136
3370	0.000153
3382	8.5e-05
3394	0.0001598
3406	0.0001139
3418	0.0002091
3430	0.0001989
3442	0.0002193
3454	0.0001496
3466	0.0001445
3478	0.000187
3490	0.0002363
3502	0.0001853
3514	0.0002108
3526	0.0002465
3538	0.0002448
3550	0.0002244
3562	0.0001649
3574	0.0002465
3586	0.0002686
3598	0.0001768
3610	0.0002193
3622	0.0002346
3634	0.0002091
3646	0.000153
3658	0.0002091
3670	0.0002125
3682	0.0002091
3694	0.0002261
3706	0.0001581
3718	0.0002618
3730	0.0002159
3742	0.0002125
3754	0.0001938
3766	0.0002159
3778	0.0001938
3790	0.0001989
3802	0.0001547
3814	0.0001564
3826	0.0001989
3838	0.0002448
