Infrared Spectrum: 1,2-Dichlorohexane
Formula: C 6 H 12 Cl 2
CAS: 2162-92-7
State: gas
Instrument: HP-GC/MS/IRD
Origin: NIST Mass Spectrometry Data Center
1/CM	ABSORBANCE
550	0.0004462
562	0.0001104
574	2.53e-05
586	6.9e-05
598	0.0001863
610	0.0003542
622	0.0007521
634	0.0012466
646	0.0022862
658	0.0048829
670	0.0058811
682	0.0031694
694	0.0020539
706	0.0026726
718	0.0043286
730	0.0072174
742	0.00736
754	0.0041929
766	0.0021436
778	0.0010649
790	0.0008648
802	0.00069
814	0.0005842
826	0.0003956
838	0.0002944
850	0.0002852
862	0.000322
874	0.0003772
886	0.0004531
898	0.0006578
910	0.0008211
922	0.001196
934	0.001495
946	0.0014237
958	0.001288
970	0.0010672
982	0.0009384
994	0.0007659
1006	0.0008855
1018	0.0007153
1030	0.0004117
1042	0.0003611
1054	0.0003496
1066	0.0004991
1078	0.0004968
1090	0.0005359
1102	0.0004761
1114	0.0003082
1126	0.0002553
1138	0.0001955
1150	0.0002783
1162	0.0007751
1174	0.0011569
1186	0.0011615
1198	0.0013593
1210	0.0014766
1222	0.0019136
1234	0.0022977
1246	0.0022149
1258	0.0022448
1270	0.0023184
1282	0.0021827
1294	0.0022586
1306	0.0023138
1318	0.0019067
1330	0.0015111
1342	0.0013639
1354	0.0010741
1366	0.000897
1378	0.0012121
1390	0.0013225
1402	0.0008188
1414	0.0008832
1426	0.0018492
1438	0.0036225
1450	0.0042826
1462	0.0037168
1474	0.0025599
1486	0.0011615
1498	0.0005612
1510	0.0003588
1522	0.0002944
1534	0.0001886
1546	0.0001541
1558	0.0001104
1570	0.0001035
1582	8.51e-05
1594	7.13e-05
1606	5.75e-05
1618	5.98e-05
1630	3.45e-05
1642	3.22e-05
1654	2.07e-05
1666	2.99e-05
1678	3.68e-05
1690	1.84e-05
1702	3.45e-05
1714	1.38e-05
1726	2.07e-05
1738	1.84e-05
1750	2.53e-05
1762	1.15e-05
1774	3.22e-05
1786	2.3e-05
1798	2.3e-05
1810	2.76e-05
1822	3.22e-05
1834	4.14e-05
1846	3.68e-05
1858	2.07e-05
1870	2.99e-05
1882	2.3e-05
1894	1.61e-05
1906	1.61e-05
1918	2.53e-05
1930	2.07e-05
1942	1.84e-05
1954	2.53e-05
1966	9.2e-06
1978	1.15e-05
1990	1.84e-05
2002	2.3e-05
2014	6.9e-06
2026	4.37e-05
2038	2.07e-05
2050	3.68e-05
2062	4.83e-05
2074	2.76e-05
2086	3.91e-05
2098	2.53e-05
2110	2.3e-05
2122	1.38e-05
2134	3.45e-05
2146	1.84e-05
2158	3.91e-05
2170	1.38e-05
2182	2.99e-05
2194	3.22e-05
2206	3.68e-05
2218	2.76e-05
2230	3.45e-05
2242	5.75e-05
2254	5.06e-05
2266	6.44e-05
2278	5.52e-05
2290	1.61e-05
2302	4.6e-05
2314	6.67e-05
2326	4.83e-05
2338	5.75e-05
2350	7.13e-05
2362	3.91e-05
2374	6.9e-05
2386	9.43e-05
2398	7.13e-05
2410	8.74e-05
2422	7.13e-05
2434	7.82e-05
2446	7.82e-05
2458	4.83e-05
2470	8.74e-05
2482	7.36e-05
2494	6.44e-05
2506	5.06e-05
2518	6.67e-05
2530	0.0001058
2542	0.0001058
2554	0.000115
2566	9.89e-05
2578	0.0001196
2590	0.0001173
2602	0.0001035
2614	0.0001518
2626	0.0001426
2638	0.000184
2650	0.0002093
2662	0.0002001
2674	0.0002323
2686	0.0002461
2698	0.0002737
2710	0.0002852
2722	0.000345
2734	0.0004117
2746	0.0004301
2758	0.0004278
2770	0.0004692
2782	0.0005152
2794	0.0006831
2806	0.0008464
2818	0.0010672
2830	0.0014904
2842	0.0023
2854	0.0039698
2866	0.0070288
2878	0.0094714
2890	0.0083743
2902	0.0070196
2914	0.0091356
2926	0.013938
2938	0.0190026
2950	0.0200261
2962	0.0217626
2974	0.0210358
2986	0.0092667
2998	0.0041193
3010	0.0029279
3022	0.0023414
3034	0.0014858
3046	0.0009361
3058	0.0007222
3070	0.0006348
3082	0.000552
3094	0.0005267
3106	0.0004439
3118	0.0004025
3130	0.000368
3142	0.0003243
3154	0.0002967
3166	0.0002967
3178	0.0002599
3190	0.0002162
3202	0.000184
3214	0.0001403
3226	0.000207
3238	0.0001633
3250	0.0001472
3262	7.59e-05
3274	0.0001035
3286	0.000115
3298	4.6e-05
3310	7.59e-05
3322	0.0001288
3334	3.45e-05
3346	9.89e-05
3358	0.0001127
3370	8.51e-05
3382	0.000115
3394	8.97e-05
3406	0.0001242
3418	7.13e-05
3430	3.91e-05
3442	0.0001196
3454	7.59e-05
3466	5.52e-05
3478	1.15e-05
3490	1.61e-05
3502	6.44e-05
3514	5.29e-05
3526	4.14e-05
3538	3.22e-05
3550	7.59e-05
3562	6.9e-06
3574	7.36e-05
3586	6.9e-05
3598	7.59e-05
3610	4.6e-05
3622	0.0001081
3634	9.2e-05
3646	8.51e-05
3658	0.0001265
3670	9.2e-05
3682	7.13e-05
3694	5.75e-05
3706	7.36e-05
3718	9.43e-05
3730	8.74e-05
3742	8.51e-05
3754	7.82e-05
3766	0.0001242
3778	0.0001035
3790	7.36e-05
3802	9.66e-05
3814	0.0001334
3826	7.59e-05
3838	0.0001104
