Infrared Spectrum: Benzoic acid, 2,5-dimethyl-, 2-(2-hydroxy-2-methylpropyl)-2-methylhydrazide
Formula: C14 H22 N2 O2
CAS: 21629-71-0
State: SOLID (SPLIT MULL), FLUOROLUBE FOR 3800-1330 CM^-^1, NUJOL FOR 1330-400 CM^-^1
Melting point: 115 C
Class: COBLENTZ III
Instrument: DOW KBr FOREPRISM-GRATING
Instrument parameters: BLAZED AT 3.5, 12.0, 20.0 MICRON AND CHANGED AT 5.0, 7.5, 14.9 MICRON
Sampling: TRANSMISSION
Resolution: 2
Origin: DOW CHEMICAL COMPANY
1/CM	TRANSMITTANCE
3800	0.7008
3791	0.7011
3782	0.7017
3773	0.7043
3764	0.7058
3755	0.7068
3746	0.7084
3737	0.71
3728	0.7118
3719	0.7132
3710	0.7165
3701	0.7175
3692	0.7168
3683	0.7153
3674	0.7189
3665	0.7217
3656	0.7239
3647	0.7255
3638	0.7271
3629	0.7292
3620	0.7311
3611	0.7325
3602	0.7337
3593	0.7347
3584	0.7325
3575	0.7306
3566	0.7342
3557	0.7375
3548	0.7389
3539	0.7407
3530	0.7425
3521	0.7438
3512	0.7443
3503	0.7448
3494	0.7449
3485	0.7451
3476	0.7447
3467	0.744
3458	0.7428
3449	0.7415
3440	0.7392
3431	0.7371
3422	0.7306
3413	0.7217
3404	0.7075
3395	0.6961
3386	0.6876
3377	0.6801
3368	0.6732
3359	0.6635
3350	0.6488
3341	0.6221
3332	0.574
3323	0.5359
3314	0.4954
3305	0.4466
3296	0.3571
3287	0.2927
3278	0.319
3269	0.3798
3260	0.4179
3251	0.4426
3242	0.4553
3233	0.444
3224	0.3856
3215	0.3014
3206	0.2096
3197	0.1622
3188	0.2051
3179	0.2624
3170	0.3129
3161	0.3554
3152	0.3968
3143	0.4372
3134	0.476
3125	0.5143
3116	0.5465
3107	0.5643
3098	0.5749
3089	0.5778
3080	0.5769
3071	0.5716
3062	0.5612
3053	0.54
3044	0.5053
3035	0.4721
3026	0.4681
3017	0.476
3008	0.5133
2999	0.5295
2990	0.4759
2981	0.4209
2972	0.4034
2963	0.3809
2954	0.2787
2945	0.481
2936	0.486
2927	0.4476
2918	0.4397
2909	0.5028
2900	0.5474
2891	0.5512
2882	0.5381
2873	0.5217
2864	0.509
2855	0.5603
2846	0.571
2837	0.5889
2828	0.6182
2819	0.6483
2810	0.6681
2801	0.6467
2792	0.6169
2783	0.6528
2774	0.69
2765	0.7111
2756	0.7248
2747	0.7283
2738	0.7271
2729	0.7258
2720	0.7311
2711	0.7394
2702	0.7469
2693	0.7518
2684	0.756
2675	0.7598
2666	0.763
2657	0.7661
2648	0.7686
2639	0.7706
2630	0.7724
2621	0.7741
2612	0.7754
2603	0.7764
2594	0.7765
2585	0.7768
2576	0.7808
2567	0.7837
2558	0.7825
2549	0.7805
2540	0.7799
2531	0.7828
2522	0.7861
2513	0.7881
2504	0.7876
2495	0.786
2486	0.7857
2477	0.7861
2468	0.7868
2459	0.7869
2450	0.7871
2441	0.7871
2432	0.7876
2423	0.7886
2414	0.7895
2405	0.7896
2396	0.7885
2387	0.7865
2378	0.7871
2369	0.7878
2360	0.7885
2351	0.7888
2342	0.7888
2333	0.7882
2324	0.7858
2315	0.7807
2306	0.7758
2297	0.7778
2288	0.7797
2279	0.7824
2270	0.7857
2261	0.7889
2252	0.7932
2243	0.7989
2234	0.8042
2225	0.8095
2216	0.8148
2207	0.8201
2198	0.825
2189	0.8259
2180	0.8268
2171	0.8286
2162	0.8307
2153	0.8327
2144	0.8348
2135	0.8348
2126	0.834
2117	0.8346
2108	0.8371
2099	0.8396
2090	0.8424
2081	0.8451
2072	0.8475
2063	0.8497
2054	0.8512
2045	0.8528
2036	0.8539
2027	0.8547
2018	0.8559
2009	0.8568
2000	0.8496
1991	0.8588
1982	0.8517
1973	0.8521
1964	0.8532
1955	0.8563
1946	0.8561
1937	0.8539
1928	0.8404
1919	0.8449
1910	0.853
1901	0.8513
1892	0.8506
1883	0.8523
1874	0.8527
1865	0.8514
1856	0.8474
1847	0.8481
1838	0.8507
1829	0.8563
1820	0.8568
1811	0.8564
1802	0.8525
1793	0.846
1784	0.8373
1775	0.8362
1766	0.835
1757	0.8346
1748	0.8346
1739	0.8348
1730	0.8344
1721	0.8332
1712	0.8292
1703	0.824
1694	0.8165
1685	0.7955
1676	0.7358
1667	0.5642
1658	0.0931
1649	0.0235
1640	0.3071
1631	0.5395
1622	0.6074
1613	0.4931
1604	0.5703
1595	0.6972
1586	0.7075
1577	0.6444
1568	0.7025
1559	0.6591
1550	0.4829
1541	0.3991
1532	0.3493
1523	0.469
1514	0.5708
1505	0.531
1496	0.5862
1487	0.6476
1478	0.6686
1469	0.6032
1460	0.5572
1451	0.5062
1442	0.4562
1433	0.5404
1424	0.5728
1415	0.5595
1406	0.5438
1397	0.5067
1388	0.5578
1379	0.5504
1370	0.6415
1361	0.4244
1352	0.5824
1343	0.4251
1334	0.486
1325	0.5688
1316	0.3887
1307	0.3474
1298	0.4398
1289	0.5837
1280	0.5622
1271	0.5175
1262	0.6393
1253	0.6749
1244	0.6755
1235	0.6146
1226	0.612
1217	0.6514
1208	0.6365
1199	0.6475
1190	0.718
1181	0.7199
1172	0.6965
1163	0.4878
1154	0.4562
1145	0.6558
1136	0.6921
1127	0.5992
1118	0.7008
1109	0.7312
1100	0.7456
1091	0.7211
1082	0.5981
1073	0.7345
1064	0.7568
1055	0.765
1046	0.7528
1037	0.6518
1028	0.6341
1019	0.6028
1010	0.7581
1001	0.7515
992	0.7565
983	0.7385
974	0.7353
965	0.7487
956	0.7712
947	0.6643
938	0.3374
929	0.5298
920	0.5841
911	0.7585
902	0.8081
893	0.7715
884	0.5741
875	0.6728
866	0.8256
857	0.8503
848	0.8568
839	0.8527
830	0.636
821	0.7749
812	0.6799
803	0.8491
794	0.829
785	0.825
776	0.3031
767	0.7408
758	0.7365
749	0.708
740	0.7454
731	0.6548
722	0.5566
713	0.5906
704	0.7494
695	0.6905
686	0.6796
677	0.5469
668	0.7021
659	0.7346
650	0.7375
641	0.7231
632	0.7142
623	0.7458
614	0.7751
605	0.7964
596	0.8183
587	0.8236
578	0.8165
569	0.8396
560	0.8453
551	0.8341
542	0.8496
533	0.8574
524	0.8568
515	0.8247
506	0.8355
497	0.8493
488	0.7783
479	0.7393
470	0.6129
461	0.6971
452	0.7421
443	0.8182
434	0.8188
425	0.8086
416	0.7934
407	0.793
398	0.7856
389	0.7692
