Infrared Spectrum: BENZOPHENONE, 2-HYDROXY-4-DECYCLOXY-
Formula: C23 H30 O3
CAS: 2162-63-2
State: SOLID (KBr PELLET)
Class: COBLENTZ
Instrument: Not specified, most likely a prism, grating, or hybrid spectrometer.
Sampling: TRANSMISSION
Resolution: 4
Origin: TENNESSEE EASTMAN COMPANY, RESEARCH LABORATORIES
MICROMETERS	TRANSMITTANCE
2.014	0.761
2.05484	0.76
2.09567	0.758
2.13651	0.76
2.17734	0.76
2.21818	0.76
2.25901	0.76
2.29985	0.763
2.34068	0.767
2.38152	0.772
2.42235	0.777
2.46319	0.784
2.50402	0.789
2.54486	0.794
2.58569	0.799
2.62653	0.801
2.66736	0.809
2.7082	0.813
2.74903	0.803
2.78987	0.785
2.8307	0.772
2.87154	0.755
2.91237	0.755
2.95321	0.799
2.99404	0.828
3.03488	0.839
3.07571	0.84
3.11655	0.849
3.15738	0.861
3.19822	0.861
3.23905	0.842
3.27989	0.847
3.32072	0.794
3.36156	0.443
3.40239	0.561
3.44323	0.568
3.48406	0.825
3.5249	0.88
3.56573	0.902
3.60657	0.91
3.6474	0.926
3.68824	0.945
3.72907	0.953
3.76991	0.96
3.81074	0.962
3.85158	0.974
3.89241	0.982
3.93325	0.991
3.97408	0.994
4.01492	0.998
4.05575	0.998
4.09659	0.996
4.13742	0.998
4.17826	0.998
4.21909	0.998
4.25993	0.998
4.30076	0.998
4.3416	0.981
4.38243	0.979
4.42327	0.979
4.4641	0.979
4.50494	0.982
4.54577	0.984
4.58661	0.982
4.62744	0.986
4.66828	0.988
4.70911	0.991
4.74995	0.993
4.79078	0.994
4.83162	0.996
4.87245	0.998
4.91329	0.998
4.95413	1
4.99496	0.998
5.0358	0.982
5.07663	0.984
5.11747	0.982
5.1583	0.984
5.19914	0.984
5.23997	0.984
5.28081	0.984
5.32164	0.986
5.36248	0.988
5.40331	0.988
5.44415	0.988
5.48498	0.988
5.52582	0.989
5.56665	0.988
5.60749	0.988
5.64832	0.986
5.68916	0.986
5.72999	0.977
5.77083	0.977
5.81166	0.962
5.8525	0.952
5.89333	0.941
5.93417	0.928
5.975	0.904
6.01584	0.852
6.05667	0.66
6.09751	0.383
6.13834	0.215
6.17918	0.231
6.22001	0.183
6.26085	0.421
6.30168	0.422
6.34252	0.702
6.38335	0.77
6.42419	0.803
6.46502	0.804
6.50586	0.803
6.54669	0.748
6.58753	0.7
6.62836	0.672
6.6692	0.792
6.71003	0.794
6.75087	0.546
6.7917	0.729
6.83254	0.761
6.87337	0.722
6.91421	0.797
6.95504	0.789
6.99588	0.77
7.03671	0.77
7.07755	0.773
7.11838	0.707
7.15922	0.623
7.20005	0.404
7.24089	0.325
7.28172	0.481
7.32256	0.477
7.36339	0.316
7.40423	0.131
7.44506	0.357
7.4859	0.551
7.52673	0.63
7.56757	0.647
7.6084	0.621
7.64924	0.613
7.69007	0.611
7.73091	0.57
7.77174	0.496
7.81258	0.344
7.85342	0.195
7.89425	0.077
7.93509	0.21
7.97592	0.41
8.01676	0.51
8.05759	0.515
8.09843	0.364
8.13926	0.465
8.1801	0.553
8.22093	0.568
8.26177	0.465
8.3026	0.261
8.34344	0.41
8.38427	0.58
8.42511	0.621
8.46594	0.63
8.50678	0.589
8.54761	0.607
8.58845	0.619
8.62928	0.643
8.67012	0.696
8.71095	0.7
8.75179	0.703
8.79262	0.688
8.83346	0.647
8.87429	0.539
8.91513	0.27
8.95596	0.339
8.9968	0.585
9.03763	0.648
9.07847	0.671
9.1193	0.681
9.16014	0.688
9.20097	0.691
9.24181	0.672
9.28264	0.66
9.32348	0.686
9.36431	0.696
9.40515	0.698
9.44598	0.69
9.48682	0.676
9.52765	0.671
9.56849	0.684
9.60932	0.681
9.65016	0.609
9.69099	0.547
9.73183	0.551
9.77266	0.563
9.8135	0.577
9.85433	0.645
9.89517	0.671
9.936	0.664
9.97684	0.654
10.0177	0.681
10.0585	0.696
10.0993	0.7
10.1402	0.693
10.181	0.671
10.2218	0.645
10.2627	0.583
10.3035	0.58
10.3444	0.69
10.3852	0.712
10.426	0.719
10.4669	0.722
10.5077	0.724
10.5485	0.724
10.5894	0.714
10.6302	0.618
10.671	0.476
10.7119	0.616
10.7527	0.688
10.7935	0.707
10.8344	0.707
10.8752	0.638
10.916	0.551
10.9569	0.621
10.9977	0.698
11.0386	0.722
11.0794	0.727
11.1202	0.731
11.1611	0.732
11.2019	0.736
11.2427	0.738
11.2836	0.741
11.3244	0.743
11.3652	0.744
11.4061	0.746
11.4469	0.739
11.4877	0.702
11.5286	0.592
11.5694	0.559
11.6102	0.662
11.6511	0.698
11.6919	0.698
11.7327	0.691
11.7736	0.693
11.8144	0.71
11.8553	0.71
11.8961	0.712
11.9369	0.71
11.9778	0.693
12.0186	0.666
12.0594	0.684
12.1003	0.714
12.1411	0.719
12.1819	0.707
12.2228	0.678
12.2636	0.638
12.3044	0.566
12.3453	0.448
12.3861	0.349
12.4269	0.297
12.4678	0.345
12.5086	0.457
12.5494	0.559
12.5903	0.604
12.6311	0.628
12.672	0.631
12.7128	0.642
12.7536	0.671
12.7945	0.693
12.8353	0.705
12.8761	0.717
12.917	0.726
12.9578	0.729
12.9986	0.734
13.0395	0.736
13.0803	0.738
13.1211	0.727
13.162	0.696
13.2028	0.695
13.2436	0.69
13.2845	0.652
13.3253	0.662
13.3661	0.715
13.407	0.739
13.4478	0.748
13.4887	0.751
13.5295	0.751
13.5703	0.755
13.6112	0.765
13.652	0.768
13.6928	0.772
13.7337	0.772
13.7745	0.758
13.8153	0.72
13.8562	0.714
13.897	0.727
13.9378	0.741
13.9787	0.744
14.0195	0.722
14.0603	0.698
14.1012	0.643
14.142	0.529
14.1829	0.45
14.2237	0.464
14.2645	0.606
14.3054	0.686
14.3462	0.726
14.387	0.739
14.4279	0.744
14.4687	0.744
14.5095	0.748
14.5504	0.756
14.5912	0.775
14.632	0.785
14.6729	0.791
14.7137	0.796
14.7545	0.797
14.7954	0.799
14.8362	0.799
14.877	0.799
14.9179	0.797
14.9587	0.787
14.9996	0.772
15.0404	0.767
15.0812	0.77
15.1221	0.77
15.1629	0.772
15.2037	0.767
15.2446	0.76
15.2854	0.748
15.3262	0.741
15.3671	0.722
15.4079	0.715
15.4487	0.705
15.4896	0.703
15.5304	0.7
15.5712	0.693
15.6121	0.686
15.6529	0.674
15.6937	0.664
15.7346	0.652
15.7754	0.636
15.8163	0.602
15.8571	0.565
15.8979	0.525
15.9388	0.496
15.9796	0.486
