Infrared Spectrum: 2-(Benzylamino)-5-nitropyridine
Formula: C12 H11 N3 O2
CAS: 21626-41-5
State: SOLID (SPLIT MULL), FLUOROLUBE FOR 3800-1330 CM^-^1, NUJOL FOR 1330-470 CM^-^1
Class: COBLENTZ III
Instrument: DOW KBr FOREPRISM-GRATING
Instrument parameters: BLAZED AT 3.5, 12.0, 20.0 MICRON AND CHANGED AT 5.0, 7.5, 14.9 MICRON
Sampling: TRANSMISSION
Resolution: 2
Origin: DOW CHEMICAL COMPANY
1/CM	TRANSMITTANCE
3798	0.7868
3789	0.784
3780	0.7818
3771	0.7833
3762	0.7865
3753	0.7889
3744	0.7908
3735	0.7919
3726	0.7928
3717	0.7936
3708	0.7939
3699	0.7939
3690	0.7938
3681	0.7933
3672	0.7934
3663	0.7936
3654	0.7938
3645	0.7939
3636	0.7947
3627	0.7954
3618	0.7961
3609	0.7968
3600	0.7972
3591	0.7975
3582	0.798
3573	0.7983
3564	0.7982
3555	0.798
3546	0.7978
3537	0.7976
3528	0.7972
3519	0.7967
3510	0.7961
3501	0.7955
3492	0.7955
3483	0.7956
3474	0.7958
3465	0.7968
3456	0.798
3447	0.799
3438	0.7998
3429	0.7995
3420	0.7993
3411	0.799
3402	0.7989
3393	0.7986
3384	0.7984
3375	0.7972
3366	0.7958
3357	0.7944
3348	0.793
3339	0.7911
3330	0.7889
3321	0.7857
3312	0.7807
3303	0.7737
3294	0.7641
3285	0.7518
3276	0.7334
3267	0.7046
3258	0.6648
3249	0.6052
3240	0.5102
3231	0.477
3222	0.4772
3213	0.5233
3204	0.5851
3195	0.6297
3186	0.6608
3177	0.6855
3168	0.6972
3159	0.6965
3150	0.6892
3141	0.6937
3132	0.6965
3123	0.698
3114	0.6984
3105	0.6951
3096	0.65
3087	0.6546
3078	0.6682
3069	0.6475
3060	0.6495
3051	0.6626
3042	0.6675
3033	0.6886
3024	0.7035
3015	0.7028
3006	0.6976
2997	0.6868
2988	0.6862
2979	0.7069
2970	0.728
2961	0.7421
2952	0.7428
2943	0.7368
2934	0.7318
2925	0.7312
2916	0.735
2907	0.741
2898	0.7471
2889	0.7443
2880	0.74
2871	0.7498
2862	0.7608
2853	0.7699
2844	0.7765
2835	0.7793
2826	0.7805
2817	0.7807
2808	0.7801
2799	0.7818
2790	0.7862
2781	0.7921
2772	0.7982
2763	0.8014
2754	0.803
2745	0.8044
2736	0.8061
2727	0.8081
2718	0.8101
2709	0.8124
2700	0.8147
2691	0.8167
2682	0.8186
2673	0.8204
2664	0.8213
2655	0.8221
2646	0.822
2637	0.8214
2628	0.8174
2619	0.813
2610	0.8125
2601	0.8131
2592	0.8133
2583	0.8134
2574	0.8148
2565	0.8171
2556	0.8194
2547	0.8228
2538	0.826
2529	0.8214
2520	0.816
2511	0.8187
2502	0.8221
2493	0.8252
2484	0.8249
2475	0.8231
2466	0.8202
2457	0.8164
2448	0.8199
2439	0.8256
2430	0.8275
2421	0.8248
2412	0.823
2403	0.8243
2394	0.8253
2385	0.8252
2376	0.825
2367	0.8225
2358	0.8201
2349	0.8175
2340	0.8151
2331	0.8158
2322	0.8168
2313	0.8178
2304	0.8199
2295	0.8227
2286	0.8256
2277	0.8284
2268	0.8317
2259	0.8352
2250	0.8388
2241	0.8423
2232	0.8452
2223	0.8471
2214	0.8493
2205	0.8513
2196	0.8533
2187	0.855
2178	0.8567
2169	0.8583
2160	0.8602
2151	0.8624
2142	0.8646
2133	0.8668
2124	0.8691
2115	0.8714
2106	0.8737
2097	0.8757
2088	0.8775
2079	0.8793
2070	0.8808
2061	0.8821
2052	0.8836
2043	0.8849
2034	0.8862
2025	0.8874
2016	0.8874
2007	0.887
1998	0.8873
1989	0.8894
1980	0.8913
1971	0.8928
1962	0.9005
1953	0.8924
1944	0.8908
1935	0.89
1926	0.8906
1917	0.888
1908	0.8832
1899	0.8896
1890	0.888
1881	0.8871
1872	0.8867
1863	0.8863
1854	0.8867
1845	0.8874
1836	0.8877
1827	0.8877
1818	0.8874
1809	0.8865
1800	0.8857
1791	0.8793
1782	0.882
1773	0.8838
1764	0.884
1755	0.8842
1746	0.8844
1737	0.8834
1728	0.8847
1719	0.8873
1710	0.8899
1701	0.8905
1692	0.8901
1683	0.89
1674	0.8917
1665	0.8828
1656	0.8677
1647	0.8628
1638	0.8573
1629	0.785
1620	0.4462
1611	0.0347
1602	0.3021
1593	0.5389
1584	0.31
1575	0.7146
1566	0.7698
1557	0.7442
1548	0.6797
1539	0.7819
1530	0.8147
1521	0.8131
1512	0.709
1503	0.4889
1494	0.4497
1485	0.7815
1476	0.8378
1467	0.8317
1458	0.6841
1449	0.8383
1440	0.8532
1431	0.6726
1422	0.6853
1413	0.8081
1404	0.8328
1395	0.8502
1386	0.8735
1377	0.7914
1368	0.8421
1359	0.7626
1350	0.462
1341	0.2029
1332	0.1278
1323	0.1927
1314	0.4112
1305	0.5532
1296	0.1189
1287	0.1266
1278	0.4777
1269	0.5596
1260	0.6134
1251	0.6668
1242	0.6695
1233	0.6537
1224	0.6628
1215	0.7089
1206	0.7168
1197	0.7272
1188	0.7318
1179	0.7358
1170	0.7228
1161	0.7232
1152	0.7275
1143	0.7347
1134	0.7243
1125	0.4014
1116	0.3591
1107	0.6798
1098	0.705
1089	0.6838
1080	0.6717
1071	0.6864
1062	0.7211
1053	0.7358
1044	0.7343
1035	0.6684
1026	0.7265
1017	0.7187
1008	0.6896
999	0.7138
990	0.7262
981	0.7126
972	0.7075
963	0.7291
954	0.7262
945	0.7308
936	0.7342
927	0.7318
918	0.7284
909	0.6725
900	0.72
891	0.7286
882	0.7319
873	0.7334
864	0.7211
855	0.7151
846	0.6948
837	0.7197
828	0.6849
819	0.6969
810	0.7134
801	0.7183
792	0.7207
783	0.7156
774	0.6793
765	0.7039
756	0.7218
747	0.5389
738	0.6742
729	0.7128
720	0.7093
711	0.6948
702	0.6608
693	0.5669
684	0.6911
675	0.6026
666	0.7162
657	0.7501
648	0.7601
639	0.7534
630	0.7562
621	0.7457
612	0.7493
603	0.7491
594	0.7462
585	0.7432
576	0.7396
567	0.7278
558	0.5881
549	0.5919
540	0.7061
531	0.7178
522	0.7199
513	0.6739
504	0.6983
495	0.7001
486	0.7088
477	0.7118
468	0.7119
459	0.7114
