Infrared Spectrum: 1,8-Dichlorooctane
Formula: C 8 H 16 Cl 2
CAS: 2162-99-4
State: gas
Origin: EPA-IR VAPOR PHASE LIBRARY
1/CM	ABSORBANCE
549.9	0.0005924
559.547	0.0008914
569.193	0.0005948
578.84	0.000517
588.486	0.00076044
598.133	0.0009033
607.779	0.0014204
617.426	0.002414
627.072	0.004154
636.719	0.007354
646.365	0.013784
656.012	0.024994
665.658	0.026954
675.305	0.014304
684.951	0.008934
694.598	0.008634
704.245	0.011364
713.891	0.018334
723.538	0.027474
733.184	0.034794
742.831	0.033314
752.477	0.023584
762.124	0.018484
771.77	0.013494
781.417	0.010694
791.063	0.009214
800.71	0.008024
810.356	0.007214
820.003	0.006554
829.649	0.005874
839.296	0.005394
848.943	0.005224
858.589	0.005064
868.236	0.004754
877.882	0.004624
887.529	0.004864
897.175	0.004964
906.822	0.004794
916.468	0.004584
926.115	0.004274
935.761	0.004054
945.408	0.004154
955.054	0.004424
964.701	0.004804
974.347	0.004924
983.994	0.005064
993.64	0.004884
1003.29	0.004254
1012.93	0.003764
1022.58	0.003714
1032.23	0.003934
1041.87	0.003944
1051.52	0.003724
1061.17	0.003304
1070.81	0.002544
1080.46	0.001854
1090.11	0.0014787
1099.75	0.0009925
1109.4	0.00068641
1119.05	0.000569
1128.69	0.0006124
1138.34	0.0006489
1147.99	0.0008443
1157.63	0.0008045
1167.28	0.0010453
1176.92	0.0010507
1186.57	0.0013117
1196.22	0.0016303
1205.86	0.002034
1215.51	0.002694
1225.16	0.003974
1234.8	0.005584
1244.45	0.008914
1254.1	0.013984
1263.74	0.017704
1273.39	0.020904
1283.04	0.028384
1292.68	0.035004
1302.33	0.034624
1311.98	0.030334
1321.62	0.022844
1331.27	0.015464
1340.92	0.012104
1350.56	0.012124
1360.21	0.010334
1369.86	0.007364
1379.5	0.004784
1389.15	0.003054
1398.79	0.002744
1408.44	0.003194
1418.09	0.004644
1427.73	0.008524
1437.38	0.015864
1447.03	0.028114
1456.67	0.031734
1466.32	0.022944
1475.97	0.011844
1485.61	0.005254
1495.26	0.002874
1504.91	0.001904
1514.55	0.0014388
1524.2	0.0010796
1533.85	0.0008105
1543.49	0.000677518
1553.14	0.000544
1562.79	0.000459
1572.43	0.00041
1582.08	0.000388
1591.73	0.00029
1601.37	0.00025
1611.02	0.000275
1620.67	0.000276
1630.31	0.000261
1639.96	0.000195
1649.6	0.000287
1659.25	0.000225
1668.9	0.00027
1678.54	0.000262
1688.19	0.000223
1697.84	0.000208
1707.48	0.000188
1717.13	0.000236
1726.78	0.000228
1736.42	0.000208
1746.07	0.000161
1755.72	0.000195
1765.36	0.000118
1775.01	0.000143
1784.66	0.00014
1794.3	9.5e-05
1803.95	0.000108
1813.6	0.000159
1823.24	0.000157
1832.89	0.000181
1842.54	0.000174
1852.18	0.000123
1861.83	0.000171
1871.47	0.000125
1881.12	8.9e-05
1890.77	0.000115
1900.41	0.000137
1910.06	0.000129
1919.71	8.5e-05
1929.35	0.000112
1939	0.000142
1948.65	9e-05
1958.29	0.000128
1967.94	0.000153
1977.59	0.000228
1987.23	0.000192
1996.88	0.000209
2006.53	0.000319
2016.17	0.000373
2025.82	0.000456
2035.47	0.000556
2045.11	0.0005898
2054.76	0.000541
2064.41	0.000502
2074.05	0.000465
2083.7	0.000453
2093.35	0.000452
2102.99	0.000505
2112.64	0.000458
2122.28	0.000415
2131.93	0.000384
2141.58	0.000422
2151.22	0.000474
2160.87	0.000468
2170.52	0.000534
2180.16	0.000521
2189.81	0.000507
2199.46	0.000523
2209.1	0.000488
2218.75	0.000483
2228.4	0.000474
2238.04	0.000427
2247.69	0.000472
2257.34	0.000491
2266.98	0.000508
2276.63	0.00054
2286.28	0.000549
2295.92	0.0006005
2305.57	0.0005924
2315.22	0.000538
2324.86	0.00049
2334.51	0.000547
2344.16	0.000528
2353.8	0.000559
2363.45	0.000526
2373.09	0.000532
2382.74	0.0006161
2392.39	0.00051
2402.03	0.000502
2411.68	0.000464
2421.33	0.000499
2430.97	0.000502
2440.62	0.00056
2450.27	0.000529
2459.91	0.000523
2469.56	0.000546
2479.21	0.000501
2488.85	0.000546
2498.5	0.0006362
2508.15	0.0006538
2517.79	0.00067196
2527.44	0.00076684
2537.09	0.0008406
2546.73	0.00072376
2556.38	0.000677051
2566.03	0.00068789
2575.67	0.0006877
2585.32	0.0008228
2594.96	0.0008926
2604.61	0.0009713
2614.26	0.0011037
2623.9	0.0012562
2633.55	0.0013617
2643.2	0.0014989
2652.84	0.001704
2662.49	0.001934
2672.14	0.002124
2681.78	0.002354
2691.43	0.002424
2701.08	0.002484
2710.72	0.002314
2720.37	0.002284
2730.02	0.002384
2739.66	0.002394
2749.31	0.002424
2758.96	0.002664
2768.6	0.002774
2778.25	0.003094
2787.9	0.003724
2797.54	0.004624
2807.19	0.005764
2816.84	0.007514
2826.48	0.010244
2836.13	0.015574
2845.77	0.027804
2855.42	0.052514
2865.07	0.076944
2874.71	0.071024
2884.36	0.052854
2894.01	0.047684
2903.65	0.060684
2913.3	0.085234
2922.95	0.128414
2932.59	0.183104
2942.24	0.202824
2951.89	0.155704
2961.53	0.115144
2971.18	0.078184
2980.83	0.047324
2990.47	0.043174
3000.12	0.046574
3009.77	0.023134
3019.41	0.011614
3029.06	0.007714
3038.71	0.005454
3048.35	0.004174
3058	0.003294
3067.64	0.002584
3077.29	0.002054
3086.94	0.0015707
3096.58	0.001309
3106.23	0.0011234
3115.88	0.0011517
3125.52	0.0008822
3135.17	0.0009356
3144.82	0.0009109
3154.46	0.0008023
3164.11	0.0008244
3173.76	0.000681964
3183.4	0.00074555
3193.05	0.000676881
3202.7	0.0006367
3212.34	0.000682212
3221.99	0.000481
3231.64	0.000504
3241.28	0.000296
3250.93	0.00045
3260.58	0.000413
3270.22	0.000435
3279.87	0.000229
3289.52	0.000478
3299.16	0.00035
3308.81	0.000279
3318.45	0.000332
3328.1	0.000313
3337.75	0.000209
3347.39	0.000326
3357.04	0.000393
3366.69	0.000457
3376.33	0.000458
3385.98	0.000408
3395.63	0.000335
3405.27	0.000299
3414.92	0.000228
3424.57	0.00029
3434.21	0.000327
3443.86	0.000227
3453.51	0.00011
3463.15	0.000338
3472.8	0.000116
3482.45	0.000158
3492.09	0.000196
3501.74	0.00012
3511.39	0.00013
3521.03	1.7e-05
3530.68	0.00017
3540.33	8e-05
3549.97	0.000232
3559.62	6e-06
3569.26	0.000128
3578.91	0.00019
3588.56	0.000309
3598.2	0.000344
3607.85	0.000365
3617.5	0.000346
3627.14	0.000517
3636.79	0.000479
3646.44	0.000405
3656.08	0.000526
3665.73	0.000526
3675.38	0.000471
3685.02	0.000481
3694.67	0.000496
3704.32	0.000412
3713.96	0.000428
3723.61	0.000542
3733.26	0.000476
3742.9	0.000476
3752.55	0.000476
3762.2	0.000321
3771.84	0.000414
3781.49	0.000497
3791.13	0.000535
3800.78	0.000405
3810.43	0.000517
3820.07	0.000491
3829.72	0.000472
3839.37	0.00042
3849.01	0.000424
3858.66	0.000474
3868.31	0.000379
3877.95	0.000556
3887.6	0.000473
3897.25	0.000554
3906.89	0.000505
3916.54	0.000418
3926.19	0.000484
3935.83	0.0006149
3945.48	0.0005953
3955.13	0.00073863
3964.77	0.00066962
3974.42	0.000534
3984.07	0.0006632
3993.71	0.0006348
