Infrared Spectrum: 4,6-Pyrimidinediol, 5-nitro-, (keto form)
Formula: C4 H3 N3 O4
CAS: 2164-83-2
State: SOLID (0.8 mg / 650 mg KBr DISC)
Class: COBLENTZ III
Instrument: PERKIN-ELMER 21 (GRATING)
Instrument parameters: FILTER CHANGE ABOUT 1020 CM^-^1
Sampling: TRANSMISSION
Resolution: 2
Origin: SOUTHERN RESEARCH INSTITUTE
1/CM	TRANSMITTANCE
599	0.2854
608	0.2594
617	0.2747
626	0.3347
635	0.4001
644	0.4625
653	0.5829
662	0.5984
671	0.5979
680	0.595
689	0.5906
698	0.5828
707	0.5704
716	0.5526
725	0.555
734	0.5363
743	0.577
752	0.5519
761	0.5252
770	0.4821
779	0.4173
788	0.1771
797	0.4416
806	0.5066
815	0.4728
824	0.4376
833	0.4745
842	0.5108
851	0.5178
860	0.4802
869	0.4051
878	0.2811
887	0.2615
896	0.2916
905	0.4992
914	0.6376
923	0.6496
932	0.6445
941	0.632
950	0.6259
959	0.619
968	0.6093
977	0.5984
986	0.5876
995	0.5706
1004	0.5465
1013	0.5304
1022	0.5496
1031	0.5481
1040	0.5111
1049	0.505
1058	0.5227
1067	0.5114
1076	0.4631
1085	0.4399
1094	0.4979
1103	0.4865
1112	0.4619
1121	0.4434
1130	0.4219
1139	0.3997
1148	0.3838
1157	0.3615
1166	0.3281
1175	0.2892
1184	0.2431
1193	0.2396
1202	0.3391
1211	0.3464
1220	0.3064
1229	0.2665
1238	0.2223
1247	0.1705
1256	0.1334
1265	0.1009
1274	0.0724
1283	0.0761
1292	0.0725
1301	0.028
1310	0.0622
1319	0.2183
1328	0.3832
1337	0.1649
1346	0.0718
1355	0.0876
1364	0.1957
1373	0.3028
1382	0.4185
1391	0.4659
1400	0.4897
1409	0.4812
1418	0.4332
1427	0.3741
1436	0.3231
1445	0.3272
1454	0.2028
1463	0.1295
1472	0.2864
1481	0.4561
1490	0.451
1499	0.394
1508	0.3837
1517	0.3314
1526	0.2498
1535	0.151
1544	0.0836
1553	0.1008
1562	0.1674
1571	0.2798
1580	0.3098
1589	0.3165
1598	0.2752
1607	0.1637
1616	0.1273
1625	0.1257
1634	0.1168
1643	0.0962
1652	0.0836
1661	0.0999
1670	0.0991
1679	0.1071
1688	0.125
1697	0.142
1706	0.1075
1715	0.1041
1724	0.1406
1733	0.1881
1742	0.2528
1751	0.3714
1760	0.4356
1769	0.5026
1778	0.5443
1787	0.5582
1796	0.5891
1805	0.6405
1814	0.6854
1823	0.7097
1832	0.7267
1841	0.7416
1850	0.7549
1859	0.7491
1868	0.73
1877	0.726
1886	0.7345
1895	0.7535
1904	0.7752
1913	0.7923
1922	0.7985
1931	0.8045
1940	0.8101
1949	0.8121
1958	0.8115
1967	0.8113
1976	0.8115
1985	0.8141
1994	0.8152
2003	0.8119
2012	0.8
2021	0.7851
2030	0.7815
2039	0.7832
2048	0.782
2057	0.7741
2066	0.7529
2075	0.7277
2084	0.7172
2093	0.7302
2102	0.7582
2111	0.7731
2120	0.7714
2129	0.7674
2138	0.7607
2147	0.751
2156	0.742
2165	0.7387
2174	0.738
2183	0.7377
2192	0.7369
2201	0.7344
2210	0.7301
2219	0.7258
2228	0.722
2237	0.7187
2246	0.7103
2255	0.7
2264	0.6893
2273	0.677
2282	0.6651
2291	0.654
2300	0.6426
2309	0.6299
2318	0.6197
2327	0.6127
2336	0.6104
2345	0.6095
2354	0.6099
2363	0.6101
2372	0.6098
2381	0.6084
2390	0.6064
2399	0.603
2408	0.5979
2417	0.5905
2426	0.5801
2435	0.5724
2444	0.5656
2453	0.5592
2462	0.5527
2471	0.5464
2480	0.5402
2489	0.5329
2498	0.5243
2507	0.5157
2516	0.5065
2525	0.4929
2534	0.4819
2543	0.48
2552	0.4787
2561	0.4724
2570	0.4575
2579	0.4373
2588	0.4124
2597	0.3989
2606	0.3963
2615	0.3954
2624	0.3938
2633	0.3883
2642	0.3793
2651	0.3721
2660	0.3652
2669	0.3587
2678	0.3518
2687	0.3424
2696	0.3286
2705	0.3133
2714	0.2999
2723	0.2889
2732	0.2788
2741	0.2692
2750	0.2608
2759	0.2519
2768	0.243
2777	0.2331
2786	0.2239
2795	0.2157
2804	0.2096
2813	0.2044
2822	0.1996
2831	0.1962
2840	0.1911
2849	0.1824
2858	0.1649
2867	0.1507
2876	0.1446
2885	0.1429
2894	0.1425
2903	0.1436
2912	0.1464
2921	0.1555
2930	0.1689
2939	0.1727
2948	0.1692
2957	0.1609
2966	0.1495
2975	0.1375
2984	0.1218
2993	0.1029
3002	0.1088
3011	0.115
3020	0.1248
3029	0.1375
3038	0.1443
3047	0.1677
3056	0.2031
3065	0.2258
3074	0.2468
3083	0.2649
3092	0.2797
3101	0.2913
3110	0.3084
3119	0.3234
3128	0.3421
3137	0.364
3146	0.3932
3155	0.4301
3164	0.4875
3173	0.5248
3182	0.5394
3191	0.5486
3200	0.5582
3209	0.5685
3218	0.5785
3227	0.5881
3236	0.5976
3245	0.6101
3254	0.6292
3263	0.6347
3272	0.6367
3281	0.6363
3290	0.6328
3299	0.6282
3308	0.6204
3317	0.611
3326	0.601
3335	0.5908
3344	0.5808
3353	0.57
3362	0.5587
3371	0.5499
3380	0.5421
3389	0.5358
3398	0.5305
3407	0.5275
3416	0.5273
3425	0.529
3434	0.5331
3443	0.5367
3452	0.539
3461	0.5406
3470	0.5424
3479	0.5486
3488	0.5561
3497	0.5652
3506	0.5769
3515	0.586
3524	0.5942
3533	0.6008
3542	0.6068
3551	0.6124
3560	0.6187
3569	0.6256
3578	0.6345
3587	0.6468
3596	0.6594
3605	0.66
3614	0.66
3623	0.6602
3632	0.6605
3641	0.6609
3650	0.6612
3659	0.6616
3668	0.6609
3677	0.6601
3686	0.6579
3695	0.6542
3704	0.6496
3713	0.6489
3722	0.6494
3731	0.6518
3740	0.6534
3749	0.6536
3758	0.6522
3767	0.6485
3776	0.6427
3785	0.6358
3794	0.6283
3803	0.6255
3812	0.6245
3821	0.6232
3830	0.622
3839	0.6206
3848	0.6192
3857	0.6177
3866	0.6161
3875	0.6147
3884	0.6134
3893	0.6124
3902	0.6115
3911	0.6107
3920	0.6102
3929	0.6095
3938	0.6069
3947	0.6042
