Infrared Spectrum: Aluminum Hydroxide
Formula: Al H 3 O 3
CAS: 21645-51-2
State: solid
Instrument: Bruker Tensor 37 FTIR
Resolution: 0.96450084
Origin: Pacific Northwest National Laboratory Under IARPA Contract
1/cm	Reflectance
7498.99	0.78819
7481.63	0.778924
7464.27	0.775636
7446.91	0.769152
7429.55	0.762009
7412.19	0.755454
7394.84	0.732959
7377.48	0.716081
7360.12	0.695057
7342.76	0.676083
7325.4	0.656439
7308.04	0.642459
7290.68	0.644099
7273.32	0.643476
7255.96	0.649148
7238.6	0.653408
7221.24	0.657869
7203.88	0.664644
7186.52	0.667956
7169.16	0.670196
7151.8	0.67142
7134.44	0.67383
7117.08	0.674182
7099.72	0.681224
7082.36	0.683356
7065	0.686194
7047.64	0.688495
7030.28	0.688938
7012.92	0.690588
6995.56	0.694465
6978.2	0.691702
6960.84	0.697053
6943.48	0.695793
6926.12	0.696286
6908.76	0.698046
6891.4	0.697245
6874.04	0.696406
6856.68	0.695466
6839.32	0.697353
6821.96	0.694768
6804.6	0.698364
6787.24	0.694385
6769.88	0.691251
6752.52	0.690661
6735.16	0.691961
6717.8	0.689615
6700.44	0.689981
6683.08	0.685225
6665.72	0.682527
6648.36	0.680859
6631	0.67778
6613.64	0.674409
6596.28	0.672467
6578.92	0.670083
6561.56	0.668731
6544.2	0.666129
6526.85	0.663626
6509.49	0.662858
6492.13	0.660456
6474.77	0.660273
6457.41	0.656528
6440.05	0.652824
6422.69	0.641659
6405.33	0.623386
6387.97	0.602319
6370.61	0.57439
6353.25	0.552781
6335.89	0.543896
6318.53	0.5433
6301.17	0.54318
6283.81	0.54657
6266.45	0.550327
6249.09	0.55387
6231.73	0.557814
6214.37	0.561531
6197.01	0.56362
6179.65	0.567209
6162.29	0.566523
6144.93	0.566122
6127.57	0.562224
6110.21	0.553464
6092.85	0.535659
6075.49	0.513739
6058.13	0.49901
6040.77	0.487631
6023.41	0.478353
6006.05	0.471577
5988.69	0.469721
5971.33	0.470796
5953.97	0.472866
5936.61	0.471053
5919.25	0.463111
5901.89	0.454025
5884.53	0.445138
5867.17	0.436413
5849.81	0.426849
5832.45	0.415573
5815.09	0.401779
5797.73	0.387285
5780.37	0.373857
5763.01	0.360985
5745.65	0.351226
5728.29	0.341339
5710.93	0.332846
5693.57	0.322159
5676.21	0.30832
5658.86	0.289818
5641.5	0.261276
5624.14	0.198058
5606.78	0.104167
5589.42	0.0440904
5572.06	0.0271154
5554.7	0.023456
5537.34	0.0221672
5519.98	0.0216579
5502.62	0.0217355
5485.26	0.021779
5467.9	0.0215893
5450.54	0.0216331
5433.18	0.0217989
5415.82	0.0229545
5398.46	0.0231028
5381.1	0.0233594
5363.74	0.0245509
5346.38	0.0255379
5329.02	0.0263689
5311.66	0.0277921
5294.3	0.0294329
5276.94	0.0310432
5259.58	0.0328925
5242.22	0.0351688
5224.86	0.03724
5207.5	0.0402104
5190.14	0.0437532
5172.78	0.0481925
5155.42	0.0523681
5138.06	0.0576003
5120.7	0.0630933
5103.34	0.0681613
5085.98	0.0728416
5068.62	0.0766512
5051.26	0.0793172
5033.9	0.0815439
5016.54	0.0821696
4999.18	0.0821975
4981.82	0.0824437
4964.46	0.0828992
4947.1	0.0832409
4929.74	0.0840981
4912.38	0.0837087
4895.02	0.0828744
4877.66	0.0809402
4860.3	0.0785664
4842.94	0.0755918
4825.58	0.0728792
4808.22	0.0711358
4790.86	0.0707813
4773.51	0.0713958
4756.15	0.0721185
4738.79	0.0728576
4721.43	0.0731482
4704.07	0.072451
4686.71	0.071037
4669.35	0.068157
4651.99	0.0652686
4634.63	0.0605025
4617.27	0.0508766
4599.91	0.0366239
4582.55	0.0264738
4565.19	0.0238473
4547.83	0.0215451
4530.47	0.0190981
4513.11	0.0186916
4495.75	0.019706
4478.39	0.0203235
4461.03	0.0203137
4443.67	0.0226074
4426.31	0.028355
4408.95	0.034197
4391.59	0.0320947
4374.23	0.0261341
4356.87	0.0214972
4339.51	0.0182896
4322.15	0.0167276
4304.79	0.01589
4287.43	0.0162358
4270.07	0.0164042
4252.71	0.0165872
4235.35	0.0169395
4217.99	0.0167441
4200.63	0.0160326
4183.27	0.0166382
4165.91	0.0168308
4148.55	0.0164025
4131.19	0.0170333
4113.83	0.017981
4096.47	0.0187133
4079.11	0.0196718
4061.75	0.0203743
4044.39	0.787331
4027.03	0.776733
4009.67	0.774608
3992.31	0.769723
3974.95	0.764727
3957.59	0.75534
3940.23	0.738546
3922.87	0.720111
3905.52	0.699693
3888.16	0.677634
3870.8	0.66183
3853.44	0.650571
3836.08	0.648898
3818.72	0.649706
3801.36	0.653604
3784	0.66164
3766.64	0.663029
3749.28	0.664825
3731.92	0.671321
3714.56	0.671126
3697.2	0.67423
3679.84	0.677895
3662.48	0.680652
3645.12	0.682526
3627.76	0.686381
3610.4	0.688454
3593.04	0.693965
3575.68	0.694261
3558.32	0.697087
3540.96	0.698808
3523.6	0.70046
3506.24	0.699258
3488.88	0.701639
3471.52	0.70135
3454.16	0.702936
3436.8	0.704424
3419.44	0.705017
3402.08	0.701963
3384.72	0.703679
3367.36	0.703262
3350	0.702174
3332.64	0.701142
3315.28	0.698837
3297.92	0.697308
3280.56	0.696436
3263.2	0.695519
3245.84	0.693811
3228.48	0.693045
3211.12	0.689682
3193.76	0.685671
3176.4	0.685142
3159.04	0.682209
3141.68	0.680017
3124.32	0.678403
3106.96	0.676125
3089.6	0.674792
3072.24	0.672571
3054.88	0.670651
3037.53	0.66808
3020.17	0.664836
3002.81	0.663284
2985.45	0.656851
2968.09	0.640744
2950.73	0.621387
2933.37	0.595589
2916.01	0.56872
2898.65	0.55123
2881.29	0.544678
2863.93	0.544745
2846.57	0.546884
2829.21	0.550009
2811.85	0.555144
2794.49	0.559571
2777.13	0.564854
2759.77	0.568327
2742.41	0.572196
2725.05	0.573826
2707.69	0.574596
2690.33	0.573505
2672.97	0.570039
2655.61	0.55973
2638.25	0.541214
2620.89	0.522231
2603.53	0.509979
2586.17	0.498895
2568.81	0.490667
2551.45	0.485244
2534.09	0.483869
2516.73	0.486064
2499.37	0.48685
2482.01	0.482719
2464.65	0.474126
2447.29	0.464904
2429.93	0.455694
2412.57	0.446695
2395.21	0.436324
2377.85	0.423792
2360.49	0.408991
2343.13	0.394315
2325.77	0.38053
2308.41	0.368055
2291.05	0.358106
2273.69	0.347971
2256.33	0.336576
2238.97	0.323714
2221.61	0.308076
2204.25	0.287046
2186.89	0.255351
2169.53	0.184024
2152.18	0.0811427
2134.82	0.0369462
2117.46	0.0251118
2100.1	0.022839
2082.74	0.0220422
2065.38	0.0219366
2048.02	0.0215664
2030.66	0.0215073
2013.3	0.0216254
1995.94	0.0215997
1978.58	0.0222334
1961.22	0.022586
1943.86	0.0231907
1926.5	0.0240592
1909.14	0.0247974
1891.78	0.0255551
1874.42	0.0270722
1857.06	0.0284276
1839.7	0.0301066
1822.34	0.0321163
1804.98	0.0342437
1787.62	0.0364442
1770.26	0.0389731
1752.9	0.0424552
1735.54	0.046542
1718.18	0.0509069
1700.82	0.0561268
1683.46	0.0616933
1666.1	0.0672741
1648.74	0.0729818
1631.38	0.077793
1614.02	0.0813899
1596.66	0.0842457
1579.3	0.0860115
1561.94	0.0864998
1544.58	0.0865141
1527.22	0.0867871
1509.86	0.0872378
1492.5	0.0874199
1475.14	0.0870373
1457.78	0.0867396
1440.42	0.0856756
1423.06	0.0835887
1405.7	0.0808561
1388.34	0.077693
1370.98	0.0750645
1353.62	0.0737692
1336.26	0.0737633
1318.9	0.0746578
1301.54	0.0754428
1284.19	0.0760937
1266.83	0.0762152
1249.47	0.0754472
1232.11	0.073186
1214.75	0.0696341
1197.39	0.0661487
1180.03	0.0593902
1162.67	0.0472385
1145.31	0.0320068
1127.95	0.0244069
1110.59	0.0232015
1093.23	0.02061
1075.87	0.0181363
1058.51	0.0181706
1041.15	0.0196313
1023.79	0.0197618
1006.43	0.0205674
989.068	0.0240577
971.709	0.0313574
954.349	0.0351932
936.989	0.0308116
919.629	0.0244955
902.269	0.0201205
884.91	0.017132
867.55	0.0156102
850.19	0.0153613
832.83	0.0154046
815.47	0.0158097
798.111	0.0158043
780.751	0.0157314
763.391	0.015523
746.031	0.0155423
728.671	0.0156113
711.312	0.0157985
693.952	0.0153237
676.592	0.0161766
659.232	0.017108
641.872	0.0177125
624.513	0.0185122
607.153	0.0197112
