Infrared Spectrum: 1,1-Bis(4-bromophenyl)-2,2-dichloroethylene
Formula: C 14 H 8 Br 2 Cl 2
CAS: 21655-73-2
State: gas
Origin: EPA-IR VAPOR PHASE LIBRARY
1/CM	ABSORBANCE
549.9	0.00263
559.547	0.0021687
569.193	0.0019399
578.84	0.0019906
588.486	0.0020017
598.133	0.0019129
607.779	0.00275
617.426	0.00369
627.072	0.00329
636.719	0.00324
646.365	0.00362
656.012	0.00427
665.658	0.01108
675.305	0.00699
684.951	0.00365
694.598	0.00364
704.245	0.00335
713.891	0.00625
723.538	0.00533
733.184	0.00359
742.831	0.00368
752.477	0.00434
762.124	0.00587
771.77	0.0123
781.417	0.0516
791.063	0.04529
800.71	0.02804
810.356	0.03016
820.003	0.03278
829.649	0.01251
839.296	0.0145
848.943	0.03872
858.589	0.10816
868.236	0.02345
877.882	0.00808
887.529	0.00509
897.175	0.0045
906.822	0.00368
916.468	0.00345
926.115	0.00317
935.761	0.00431
945.408	0.00389
955.054	0.00353
964.701	0.00811
974.347	0.02549
983.994	0.00547
993.64	0.0054
1003.29	0.01943
1012.93	0.12599
1022.58	0.01455
1032.23	0.00673
1041.87	0.0054
1051.52	0.00692
1061.17	0.01457
1070.81	0.06871
1080.46	0.03218
1090.11	0.01253
1099.75	0.01101
1109.4	0.00814
1119.05	0.00402
1128.69	0.00287
1138.34	0.002344
1147.99	0.0020141
1157.63	0.002036
1167.28	0.0019827
1176.92	0.00255
1186.57	0.0022853
1196.22	0.0019136
1205.86	0.0021478
1215.51	0.00352
1225.16	0.00366
1234.8	0.00264
1244.45	0.00296
1254.1	0.0033
1263.74	0.00248
1273.39	0.0022085
1283.04	0.0019804
1292.68	0.0019025
1302.33	0.0021485
1311.98	0.0023153
1321.62	0.0022481
1331.27	0.0029
1340.92	0.00286
1350.56	0.0024165
1360.21	0.00278
1369.86	0.00324
1379.5	0.00493
1389.15	0.01273
1398.79	0.01081
1408.44	0.00387
1418.09	0.00332
1427.73	0.00455
1437.38	0.0056
1447.03	0.00571
1456.67	0.00739
1466.32	0.00859
1475.97	0.02432
1485.61	0.07526
1495.26	0.04661
1504.91	0.0145
1514.55	0.00569
1524.2	0.00449
1533.85	0.00442
1543.49	0.00536
1553.14	0.00776
1562.79	0.01045
1572.43	0.01714
1582.08	0.02826
1591.73	0.01967
1601.37	0.00727
1611.02	0.00484
1620.67	0.00377
1630.31	0.00418
1639.96	0.0044
1649.6	0.00276
1659.25	0.00306
1668.9	0.0027
1678.54	0.0018605
1688.19	0.001651
1697.84	0.0016266
1707.48	0.0017735
1717.13	0.0018923
1726.78	0.001787
1736.42	0.0017848
1746.07	0.0018326
1755.72	0.0022024
1765.36	0.00282
1775.01	0.00449
1784.66	0.0021487
1794.3	0.00154383
1803.95	0.001395
1813.6	0.001375
1823.24	0.001355
1832.89	0.001331
1842.54	0.001292
1852.18	0.0013949
1861.83	0.0015966
1871.47	0.0017565
1881.12	0.00248
1890.77	0.00493
1900.41	0.00469
1910.06	0.0020251
1919.71	0.0016809
1929.35	0.0016097
1939	0.0014076
1948.65	0.001356
1958.29	0.001325
1967.94	0.001289
1977.59	0.001198
1987.23	0.001201
1996.88	0.001191
2006.53	0.001198
2016.17	0.001149
2025.82	0.00114
2035.47	0.001079
2045.11	0.001114
2054.76	0.001026
2064.41	0.001084
2074.05	0.001085
2083.7	0.001037
2093.35	0.001108
2102.99	0.001075
2112.64	0.001062
2122.28	0.001063
2131.93	0.001026
2141.58	0.001034
2151.22	0.001001
2160.87	0.000977
2170.52	0.001035
2180.16	0.000948
2189.81	0.001006
2199.46	0.000989
2209.1	0.000974
2218.75	0.001015
2228.4	0.000995
2238.04	0.001024
2247.69	0.000994
2257.34	0.001106
2266.98	0.001147
2276.63	0.001282
2286.28	0.001438
2295.92	0.0013969
2305.57	0.001229
2315.22	0.001188
2324.86	0.001046
2334.51	0.001007
2344.16	0.000993
2353.8	0.000996
2363.45	0.001039
2373.09	0.001112
2382.74	0.000984
2392.39	0.000915
2402.03	0.001031
2411.68	0.000953
2421.33	0.000878
2430.97	0.000873
2440.62	0.000867
2450.27	0.000896
2459.91	0.000949
2469.56	0.000954
2479.21	0.000922
2488.85	0.000935
2498.5	0.001102
2508.15	0.001111
2517.79	0.001103
2527.44	0.000971
2537.09	0.000986
2546.73	0.000986
2556.38	0.001088
2566.03	0.001106
2575.67	0.001091
2585.32	0.00099
2594.96	0.00111
2604.61	0.001033
2614.26	0.000788
2623.9	0.00068
2633.55	0.000752
2643.2	0.000784
2652.84	0.000815
2662.49	0.000693
2672.14	0.000684
2681.78	0.000639
2691.43	0.000621
2701.08	0.000544
2710.72	0.000462
2720.37	0.000597
2730.02	0.000595
2739.66	0.000538
2749.31	0.0007
2758.96	0.000477
2768.6	0.000558
2778.25	0.000648
2787.9	0.0006
2797.54	0.000668
2807.19	0.000574
2816.84	0.000496
2826.48	0.00038
2836.13	0.00037
2845.77	0.00043
2855.42	0.00034
2865.07	0.0004
2874.71	0.000547
2884.36	0.00032
2894.01	0.00024
2903.65	0.00024
2913.3	0.00023
2922.95	1e-05
2932.59	0.00015
2942.24	0.00016
2951.89	0.00014
2961.53	0.0003
2971.18	9e-05
2980.83	0.00021
2990.47	0.000472
3000.12	0.000587
3009.77	0.00072
3019.41	0.0019248
3029.06	0.00416
3038.71	0.00438
3048.35	0.00317
3058	0.00346
3067.64	0.00271
3077.29	0.00416
3086.94	0.00855
3096.58	0.00463
3106.23	0.001325
3115.88	0.000887
3125.52	0.000578
3135.17	0.000505
3144.82	0.0004
3154.46	0.00022
3164.11	0.00034
3173.76	0.00023
3183.4	0.0003
3193.05	0.00025
3202.7	0.00024
3212.34	0.00013
3221.99	0
3231.64	0.00019
3241.28	0.0002
3250.93	0.00014
3260.58	0.00021
3270.22	0.00023
3279.87	0.00031
3289.52	0.00026
3299.16	0.00037
3308.81	0.00026
3318.45	0.00035
3328.1	0.00021
3337.75	0.00045
3347.39	0.00042
3357.04	0.000523
3366.69	0.00038
3376.33	0.00054
3385.98	0.000517
3395.63	0.000492
3405.27	0.00031
3414.92	0.0004
3424.57	0.00045
3434.21	0.000532
3443.86	0.000468
3453.51	0.000588
3463.15	0.000542
3472.8	0.000701
3482.45	0.000645
3492.09	0.000547
3501.74	0.000706
3511.39	0.000664
3521.03	0.000667
3530.68	0.000681
3540.33	0.000606
3549.97	0.000691
3559.62	0.000834
3569.26	0.000624
3578.91	0.00072
3588.56	0.000796
3598.2	0.000635
3607.85	0.000843
3617.5	0.000865
3627.14	0.000809
3636.79	0.001185
3646.44	0.000938
3656.08	0.000911
3665.73	0.000864
3675.38	0.000823
3685.02	0.000926
3694.67	0.001001
3704.32	0.001142
3713.96	0.001107
3723.61	0.000989
3733.26	0.00101
3742.9	0.000983
3752.55	0.000983
3762.2	0.001038
3771.84	0.000819
3781.49	0.000888
3791.13	0.000797
3800.78	0.000826
3810.43	0.000875
3820.07	0.000833
3829.72	0.000799
3839.37	0.000904
3849.01	0.000839
3858.66	0.000861
3868.31	0.000939
3877.95	0.000904
3887.6	0.000862
3897.25	0.000802
3906.89	0.000935
3916.54	0.000884
3926.19	0.000796
3935.83	0.000806
3945.48	0.000872
3955.13	0.000843
3964.77	0.00081
3974.42	0.000869
3984.07	0.000804
3993.71	0.000788
