Infrared Spectrum: Diisopropyl cyanomethylphosphonate
Formula: C 8 H 16 N O 3 P
CAS: 21658-95-7
State: gas
Origin: EPA-IR VAPOR PHASE LIBRARY
1/CM	ABSORBANCE
549.8	0.01022
559.445	0.01339
569.09	0.01414
578.734	0.01179
588.379	0.00691
598.024	0.00416
607.669	0.00299
617.313	0.00381
626.958	0.00299
636.603	0.00268
646.248	0.00287
655.893	0.00336
665.537	0.00336
675.182	0.00413
684.827	0.005
694.472	0.00549
704.116	0.00691
713.761	0.0068
723.406	0.00659
733.051	0.00651
742.695	0.00725
752.34	0.00759
761.985	0.00825
771.63	0.00894
781.275	0.01005
790.919	0.00881
800.564	0.00676
810.209	0.00502
819.854	0.00575
829.498	0.00766
839.143	0.00511
848.788	0.00452
858.433	0.00518
868.078	0.00576
877.722	0.00855
887.367	0.01095
897.012	0.00942
906.657	0.00782
916.301	0.0077
925.946	0.00983
935.591	0.01304
945.236	0.01997
954.88	0.02455
964.525	0.02984
974.17	0.04907
983.815	0.09844
993.46	0.17105
1003.1	0.18712
1012.75	0.13471
1022.39	0.08334
1032.04	0.04278
1041.68	0.02224
1051.33	0.01492
1060.97	0.01111
1070.62	0.00808
1080.26	0.01015
1089.91	0.01139
1099.55	0.01798
1109.2	0.02866
1118.84	0.02632
1128.49	0.02472
1138.13	0.02363
1147.78	0.02008
1157.42	0.01748
1167.07	0.01597
1176.71	0.0161
1186.36	0.01092
1196	0.00713
1205.64	0.01012
1215.29	0.01514
1224.93	0.01665
1234.58	0.01368
1244.22	0.00837
1253.87	0.0088
1263.51	0.01265
1273.16	0.02434
1282.8	0.04882
1292.45	0.05125
1302.09	0.02649
1311.74	0.01299
1321.38	0.00859
1331.03	0.00724
1340.67	0.00795
1350.32	0.00962
1359.96	0.01189
1369.61	0.01305
1379.25	0.01767
1388.9	0.025
1398.54	0.01929
1408.18	0.00902
1417.83	0.00523
1427.47	0.00453
1437.12	0.00472
1446.76	0.00565
1456.41	0.00669
1466.05	0.00654
1475.7	0.00557
1485.34	0.00391
1494.99	0.00299
1504.63	0.00256
1514.28	0.0021825
1523.92	0.0025
1533.57	0.0020443
1543.21	0.0018004
1552.86	0.0020629
1562.5	0.0023
1572.15	0.0018477
1581.79	0.00213
1591.44	0.0020122
1601.08	0.0021429
1610.73	0.0022099
1620.37	0.00245
1630.01	0.00236
1639.66	0.00238
1649.3	0.00245
1658.95	0.00255
1668.59	0.00267
1678.24	0.00299
1687.88	0.00308
1697.53	0.003
1707.17	0.00354
1716.82	0.00358
1726.46	0.0034
1736.11	0.00351
1745.75	0.00329
1755.4	0.0031
1765.04	0.00317
1774.69	0.00268
1784.33	0.00268
1793.98	0.00247
1803.62	0.00243
1813.27	0.0021493
1822.91	0.00236
1832.55	0.0020737
1842.2	0.00226
1851.84	0.0022349
1861.49	0.0019638
1871.13	0.0021145
1880.78	0.0022127
1890.42	0.0020465
1900.07	0.0020707
1909.71	0.0018928
1919.36	0.0017782
1929	0.0018261
1938.65	0.0020198
1948.29	0.0015463
1957.94	0.0018238
1967.58	0.001595
1977.23	0.0016404
1986.87	0.0015581
1996.52	0.0018759
2006.16	0.0017772
2015.81	0.0018903
2025.45	0.001738
2035.1	0.0015951
2044.74	0.0015985
2054.38	0.0015222
2064.03	0.001461
2073.67	0.0016528
2083.32	0.0015601
2092.96	0.0015841
2102.61	0.0014865
2112.25	0.00133363
2121.9	0.0016295
2131.54	0.0014847
2141.19	0.001421
2150.83	0.0014343
2160.48	0.001687
2170.12	0.0016387
2179.77	0.0012477
2189.41	0.0014694
2199.06	0.0013708
2208.7	0.0016017
2218.35	0.0014811
2227.99	0.0019056
2237.64	0.0018735
2247.28	0.00258
2256.92	0.00323
2266.57	0.00237
2276.21	0.0020022
2285.86	0.0014481
2295.5	0.0017147
2305.15	0.0016536
2314.79	0.00129876
2324.44	0.001727
2334.08	0.0016037
2343.73	0.0012486
2353.37	0.0013813
2363.02	0.00127835
2372.66	0.0013641
2382.31	0.0015481
2391.95	0.0015331
2401.6	0.0017007
2411.24	0.001562
2420.89	0.0015426
2430.53	0.0015687
2440.18	0.0014471
2449.82	0.00155
2459.47	0.0013904
2469.11	0.0012609
2478.75	0.0018481
2488.4	0.00135666
2498.04	0.0013738
2507.69	0.0017171
2517.33	0.0013788
2526.98	0.0014568
2536.62	0.0015097
2546.27	0.0013792
2555.91	0.0015258
2565.56	0.0019046
2575.2	0.00132683
2584.85	0.0016035
2594.49	0.0014866
2604.14	0.001715
2613.78	0.00127281
2623.43	0.001852
2633.07	0.001889
2642.72	0.0014091
2652.36	0.0016812
2662.01	0.0016143
2671.65	0.0015168
2681.29	0.001674
2690.94	0.0014936
2700.58	0.0014528
2710.23	0.0016818
2719.87	0.0016103
2729.52	0.0017536
2739.16	0.0021906
2748.81	0.0019013
2758.45	0.0016121
2768.1	0.0018457
2777.74	0.0016906
2787.39	0.0020291
2797.03	0.0021005
2806.68	0.0018602
2816.32	0.0016161
2825.97	0.0022402
2835.61	0.00253
2845.26	0.0021796
2854.9	0.00258
2864.55	0.00273
2874.19	0.00428
2883.84	0.00624
2893.48	0.00607
2903.12	0.0059
2912.77	0.00644
2922.41	0.00842
2932.06	0.012
2941.7	0.0162
2951.35	0.01417
2960.99	0.01146
2970.64	0.01484
2980.28	0.02856
2989.93	0.03467
2999.57	0.02073
3009.22	0.00948
3018.86	0.00575
3028.51	0.00368
3038.15	0.00294
3047.8	0.00243
3057.44	0.00237
3067.09	0.00211
3076.73	0.0015168
3086.38	0.0017904
3096.02	0.00282
3105.67	0.0017805
3115.31	0.0019572
3124.95	0.0015428
3134.6	0.0017184
3144.24	0.0014375
3153.89	0.0020254
3163.53	0.0018258
3173.18	0.0020695
3182.82	0.0020685
3192.47	0.0017351
3202.11	0.0022061
3211.76	0.0015
3221.4	0.0016572
3231.05	0.0015481
3240.69	0.000987
3250.34	0.0018558
3259.98	0.001075
3269.63	0.0021765
3279.27	0.000976
3288.92	0.000983
3298.56	0.00127439
3308.21	0.0012477
3317.85	0.0016742
3327.49	0.001937
3337.14	0.001102
3346.78	0.001108
3356.43	0.0016555
3366.07	0.0012279
3375.72	0.00130798
3385.36	0.0013697
3395.01	0.0016557
3404.65	0.0015442
3414.3	0.0011715
3423.94	0.000868
3433.59	0.0014749
3443.23	0.0021741
3452.88	0.0011656
3462.52	0.0014959
3472.17	0.0014144
3481.81	0.001117
3491.46	0.0014656
3501.1	0.0013909
3510.75	0.0017106
3520.39	0.001465
3530.04	0.000939
3539.68	0.001116
3549.32	0.000988
3558.97	0.001157
3568.61	0.000959
3578.26	0.0012276
3587.9	0.0012971
3597.55	0.0013882
3607.19	0.000797
3616.84	0.0020255
3626.48	0.001051
3636.13	0.0021244
3645.77	0.00186
3655.42	0.0018344
3665.06	0.0015175
3674.71	0.000937
3684.35	0.001102
3694	0.00106
3703.64	0.000788
3713.29	0.0014034
3722.93	0.0013789
3732.58	0.001024
3742.22	0.000916
3751.86	0.0011615
3761.51	0.001067
3771.15	0.001155
3780.8	0.0020366
3790.44	0.0015501
3800.09	0.000713
3809.73	0.000825
3819.38	0.000334
3829.02	0.000991
3838.67	0.000836
3848.31	0.0018052
3857.96	0.000972
3867.6	0.00125029
3877.25	0.000931
3886.89	0.0014481
3896.54	0.00128831
3906.18	0.0014098
3915.83	0.001386
3925.47	0.0016985
3935.12	0.00131189
3944.76	0.0015671
3954.41	0.0017869
3964.05	0.0017251
3973.69	0.0016453
3983.34	0.0021843
3992.98	0.0019389
