Infrared Spectrum: cis-4-Decen-1-al
Formula: C 10 H 18 O
CAS: 21662-09-9
State: gas
Origin: EPA-IR VAPOR PHASE LIBRARY
1/CM	ABSORBANCE
549.8	0.003629
559.445	0.002429
569.09	0.003309
578.734	0.003589
588.379	0.004019
598.024	0.003449
607.669	0.002499
617.313	0.002419
626.958	0.002639
636.603	0.003169
646.248	0.003439
655.893	0.004399
665.537	0.005099
675.182	0.006329
684.827	0.007809
694.472	0.008449
704.116	0.010209
713.761	0.010659
723.406	0.009509
733.051	0.008199
742.695	0.006549
752.34	0.005139
761.985	0.004789
771.63	0.003679
781.275	0.002579
790.919	0.002679
800.564	0.001639
810.209	0.002059
819.854	0.002029
829.498	0.003269
839.143	0.004159
848.788	0.004069
858.433	0.004219
868.078	0.004169
877.722	0.003999
887.367	0.004339
897.012	0.003809
906.657	0.004589
916.301	0.004039
925.946	0.003579
935.591	0.003969
945.236	0.004479
954.88	0.005499
964.525	0.006239
974.17	0.006839
983.815	0.005789
993.46	0.005429
1003.1	0.005709
1012.75	0.005159
1022.39	0.006249
1032.04	0.006459
1041.68	0.007649
1051.33	0.008399
1060.97	0.007529
1070.62	0.006459
1080.26	0.005029
1089.91	0.003709
1099.55	0.002899
1109.2	0.003389
1118.84	0.003969
1128.49	0.002919
1138.13	0.002049
1147.78	0.001659
1157.42	0.002729
1167.07	0.002529
1176.71	0.003419
1186.36	0.003039
1196	0.004129
1205.64	0.003899
1215.29	0.004179
1224.93	0.003639
1234.58	0.003939
1244.22	0.003499
1253.87	0.003539
1263.51	0.003769
1273.16	0.003769
1282.8	0.004459
1292.45	0.004499
1302.09	0.005349
1311.74	0.007169
1321.38	0.007349
1331.03	0.007089
1340.67	0.007399
1350.32	0.007129
1359.96	0.006179
1369.61	0.005739
1379.25	0.007639
1388.9	0.009939
1398.54	0.009849
1408.18	0.010389
1417.83	0.010279
1427.47	0.010579
1437.12	0.010839
1446.76	0.012749
1456.41	0.014249
1466.05	0.012919
1475.7	0.008809
1485.34	0.005209
1494.99	0.003249
1504.63	0.002579
1514.28	0.001969
1523.92	0.001739
1533.57	0.001519
1543.21	0.001549
1552.86	0.0014033
1562.5	0.0014491
1572.15	0.0013861
1581.79	0.001609
1591.44	0.0014772
1601.08	0.0013677
1610.73	0.001499
1620.37	0.001719
1630.01	0.002289
1639.66	0.003009
1649.3	0.003779
1658.95	0.004419
1668.59	0.005109
1678.24	0.006419
1687.88	0.008419
1697.53	0.011419
1707.17	0.016129
1716.82	0.023999
1726.46	0.041339
1736.11	0.071979
1745.75	0.078599
1755.4	0.047889
1765.04	0.026529
1774.69	0.016749
1784.33	0.011489
1793.98	0.007809
1803.62	0.005669
1813.27	0.004299
1822.91	0.003249
1832.55	0.002629
1842.2	0.002129
1851.84	0.001979
1861.49	0.001619
1871.13	0.0014738
1880.78	0.001509
1890.42	0.0013261
1900.07	0.0012972
1909.71	0.0010922
1919.36	0.0011177
1929	0.0011251
1938.65	0.0009515
1948.29	0.0010938
1957.94	0.001044
1967.58	0.000934
1977.23	0.0010683
1986.87	0.000813
1996.52	0.0008984
2006.16	0.0010055
2015.81	0.0011481
2025.45	0.0009164
2035.1	0.0009845
2044.74	0.0009693
2054.38	0.000978
2064.03	0.0010842
2073.67	0.0011338
2083.32	0.0011431
2092.96	0.0009956
2102.61	0.0008031
2112.25	0.0008834
2121.9	0.0007893
2131.54	0.0009053
2141.19	0.0009806
2150.83	0.000974
2160.48	0.0010223
2170.12	0.0009606
2179.77	0.0008379
2189.41	0.0008602
2199.06	0.0008479
2208.7	0.0007692
2218.35	0.0008066
2227.99	0.000745
2237.64	0.0007948
2247.28	0.0008891
2256.92	0.0009151
2266.57	0.0009257
2276.21	0.0010234
2285.86	0.0009098
2295.5	0.0010669
2305.15	0.0009098
2314.79	0.0008397
2324.44	0.0009014
2334.08	0.0006432
2343.73	0.0007301
2353.37	0.0006457
2363.02	0.0009654
2372.66	0.0009416
2382.31	0.0009955
2391.95	0.0010163
2401.6	0.0008681
2411.24	0.0009012
2420.89	0.0009018
2430.53	0.001019
2440.18	0.0009427
2449.82	0.0009808
2459.47	0.0009314
2469.11	0.0010803
2478.75	0.0007943
2488.4	0.0008508
2498.04	0.0009788
2507.69	0.0006705
2517.33	0.0009931
2526.98	0.0010492
2536.62	0.0012997
2546.27	0.001302
2555.91	0.0010303
2565.56	0.001569
2575.2	0.0014615
2584.85	0.001759
2594.49	0.002009
2604.14	0.002219
2613.78	0.002609
2623.43	0.003229
2633.07	0.004029
2642.72	0.004389
2652.36	0.005359
2662.01	0.006439
2671.65	0.008629
2681.29	0.011039
2690.94	0.015069
2700.58	0.022509
2710.23	0.030609
2719.87	0.025389
2729.52	0.017819
2739.16	0.014259
2748.81	0.012219
2758.45	0.011259
2768.1	0.011199
2777.74	0.012069
2787.39	0.014889
2797.03	0.020029
2806.68	0.025089
2816.32	0.024989
2825.97	0.019999
2835.61	0.020319
2845.26	0.024739
2854.9	0.035719
2864.55	0.046959
2874.19	0.048819
2883.84	0.046309
2893.48	0.045779
2903.12	0.052299
2912.77	0.066399
2922.41	0.091779
2932.06	0.113749
2941.7	0.104349
2951.35	0.079449
2960.99	0.074869
2970.64	0.071489
2980.28	0.043539
2989.93	0.025149
2999.57	0.021289
3009.22	0.027099
3018.86	0.029049
3028.51	0.019249
3038.15	0.010009
3047.8	0.006139
3057.44	0.005009
3067.09	0.004649
3076.73	0.003559
3086.38	0.003279
3096.02	0.002779
3105.67	0.002429
3115.31	0.002469
3124.95	0.002109
3134.6	0.001789
3144.24	0.001789
3153.89	0.0014423
3163.53	0.001649
3173.18	0.0008058
3182.82	0.0012778
3192.47	0.0009264
3202.11	0.0011147
3211.76	0.0008921
3221.4	0.0011269
3231.05	0.000397
3240.69	0.0008578
3250.34	0.0009745
3259.98	0.0007015
3269.63	0.0006668
3279.27	0.000798
3288.92	0.0005942
3298.56	0.0008264
3308.21	0.00049373
3317.85	0.000504783
3327.49	0.0008002
3337.14	0.0009178
3346.78	0.0004138
3356.43	0.000283
3366.07	0.00057681
3375.72	0.0007035
3385.36	0.0009619
3395.01	0.0011466
3404.65	0.0007596
3414.3	0.0011468
3423.94	0.0009582
3433.59	0.0013294
3443.23	0.001739
3452.88	0.001829
3462.52	0.002069
3472.17	0.002289
3481.81	0.001569
3491.46	0.0012933
3501.1	0.0007602
3510.75	0.0007958
3520.39	0.0009476
3530.04	0.000704
3539.68	0.0006615
3549.32	0.0009727
3558.97	0.00078
3568.61	0.0004563
3578.26	0.0004401
3587.9	0.0004605
3597.55	0.00049092
3607.19	0.0009099
3616.84	0.0004806
3626.48	0.0008502
3636.13	0.000716
3645.77	0.00057399
3655.42	0.000391
3665.06	0.0006971
3674.71	0.0011973
3684.35	0.0006505
3694	0.000174
3703.64	0.0009903
3713.29	0.0009173
3722.93	0.00056431
3732.58	0.0004554
3742.22	0.0009378
3751.86	0.0011042
3761.51	0.00058735
3771.15	0.00057285
3780.8	0.0006669
3790.44	0.0004761
3800.09	0.0011221
3809.73	0.000766
3819.38	0.00054463
3829.02	0.000498231
3838.67	0.0008005
3848.31	0.0010427
3857.96	0.0004895
3867.6	0.001155
3877.25	0.0009628
3886.89	0.0011393
3896.54	0.0010818
3906.18	0.0007095
3915.83	0.0006234
3925.47	0.000331
3935.12	0.00050317
3944.76	0.000295
3954.41	0.0004185
3964.05	0.0006771
3973.69	0.0010429
3983.34	0.0010786
3992.98	0.0012607
