Infrared Spectrum: 3-Chlorobenzoylacetonitrile
Formula: C 9 H 6 Cl N O
CAS: 21667-62-9
State: gas
Origin: EPA-IR VAPOR PHASE LIBRARY
1/CM	ABSORBANCE
549.8	0.00263
559.445	0.00316
569.09	0.00487
578.734	0.00569
588.379	0.00433
598.024	0.00338
607.669	0.00376
617.313	0.003
626.958	0.0028
636.603	0.0031
646.248	0.0031
655.893	0.00411
665.537	0.00729
675.182	0.01146
684.827	0.00966
694.472	0.00976
704.116	0.00897
713.761	0.01065
723.406	0.01294
733.051	0.01077
742.695	0.00734
752.34	0.00577
761.985	0.00554
771.63	0.00819
781.275	0.01324
790.919	0.01314
800.564	0.01108
810.209	0.00742
819.854	0.00545
829.498	0.0036
839.143	0.003
848.788	0.00276
858.433	0.00303
868.078	0.00391
877.722	0.00455
887.367	0.0043
897.012	0.00433
906.657	0.00409
916.301	0.00421
925.946	0.00477
935.591	0.00457
945.236	0.00396
954.88	0.00277
964.525	0.0022071
974.17	0.0023601
983.815	0.0020798
993.46	0.00312
1003.1	0.005
1012.75	0.00553
1022.39	0.00652
1032.04	0.00818
1041.68	0.00654
1051.33	0.00475
1060.97	0.0041
1070.62	0.00495
1080.26	0.00908
1089.91	0.00793
1099.55	0.00759
1109.2	0.00735
1118.84	0.00666
1128.49	0.00525
1138.13	0.00639
1147.78	0.00706
1157.42	0.00718
1167.07	0.01148
1176.71	0.01839
1186.36	0.0152
1196	0.01851
1205.64	0.02557
1215.29	0.02193
1224.93	0.01866
1234.58	0.02002
1244.22	0.02844
1253.87	0.04147
1263.51	0.03397
1273.16	0.02264
1282.8	0.01758
1292.45	0.01166
1302.09	0.0102
1311.74	0.01096
1321.38	0.01137
1331.03	0.00804
1340.67	0.00509
1350.32	0.00391
1359.96	0.0036
1369.61	0.0032
1379.25	0.00369
1388.9	0.0044
1398.54	0.00634
1408.18	0.01171
1417.83	0.01843
1427.47	0.01468
1437.12	0.0067
1446.76	0.00453
1456.41	0.00479
1466.05	0.00629
1475.7	0.00749
1485.34	0.00479
1494.99	0.00347
1504.63	0.00292
1514.28	0.00274
1523.92	0.00279
1533.57	0.00321
1543.21	0.00395
1552.86	0.00642
1562.5	0.01121
1572.15	0.01378
1581.79	0.0107
1591.44	0.00772
1601.08	0.0056
1610.73	0.00381
1620.37	0.0039
1630.01	0.00352
1639.66	0.00316
1649.3	0.00286
1658.95	0.00343
1668.59	0.00402
1678.24	0.00618
1687.88	0.00848
1697.53	0.01571
1707.17	0.03553
1716.82	0.05372
1726.46	0.03777
1736.11	0.01587
1745.75	0.00912
1755.4	0.00653
1765.04	0.0049
1774.69	0.00361
1784.33	0.00323
1793.98	0.00324
1803.62	0.00298
1813.27	0.00289
1822.91	0.00258
1832.55	0.00267
1842.2	0.0023945
1851.84	0.0023004
1861.49	0.00259
1871.13	0.0024618
1880.78	0.0024893
1890.42	0.0023197
1900.07	0.002127
1909.71	0.0018718
1919.36	0.0019339
1929	0.0017732
1938.65	0.0019473
1948.29	0.0022665
1957.94	0.001926
1967.58	0.0014852
1977.23	0.00162462
1986.87	0.001418
1996.52	0.0016508
2006.16	0.0017627
2015.81	0.00157982
2025.45	0.001389
2035.1	0.001395
2044.74	0.001276
2054.38	0.00162349
2064.03	0.001417
2073.67	0.0014569
2083.32	0.00154889
2092.96	0.00162741
2102.61	0.0015576
2112.25	0.001336
2121.9	0.001368
2131.54	0.001323
2141.19	0.001409
2150.83	0.001189
2160.48	0.001181
2170.12	0.001069
2179.77	0.001343
2189.41	0.001375
2199.06	0.001251
2208.7	0.0016798
2218.35	0.0014773
2227.99	0.001147
2237.64	0.001439
2247.28	0.0017492
2256.92	0.0016655
2266.57	0.001458
2276.21	0.00141
2285.86	0.001068
2295.5	0.001227
2305.15	0.001122
2314.79	0.001323
2324.44	0.001062
2334.08	0.001177
2343.73	0.001197
2353.37	0.001253
2363.02	0.0015144
2372.66	0.001076
2382.31	0.001192
2391.95	0.001364
2401.6	0.0014739
2411.24	0.001067
2420.89	0.000815
2430.53	0.0015139
2440.18	0.0014387
2449.82	0.000938
2459.47	0.001083
2469.11	0.000837
2478.75	0.001017
2488.4	0.001053
2498.04	0.0014982
2507.69	0.001103
2517.33	0.001401
2526.98	0.001341
2536.62	0.00119
2546.27	0.001296
2555.91	0.001221
2565.56	0.001127
2575.2	0.00128
2584.85	0.001038
2594.49	0.001122
2604.14	0.001035
2613.78	0.001077
2623.43	0.000962
2633.07	0.000827
2642.72	0.000894
2652.36	0.00102
2662.01	0.00061
2671.65	0.000728
2681.29	0.000952
2690.94	0.000877
2700.58	0.001108
2710.23	0.001071
2719.87	0.001104
2729.52	0.000856
2739.16	0.00073
2748.81	0.00093
2758.45	0.000844
2768.1	0.001332
2777.74	0.000846
2787.39	0.000739
2797.03	0.001141
2806.68	0.001197
2816.32	0.001159
2825.97	0.001102
2835.61	0.001317
2845.26	0.001223
2854.9	0.001046
2864.55	0.000647
2874.19	0.000572
2883.84	0.000907
2893.48	0.001083
2903.12	0.001034
2912.77	0.0007
2922.41	0.000833
2932.06	0.0017267
2941.7	0.0017707
2951.35	0.000987
2960.99	0.000628
2970.64	0.00053
2980.28	0.001272
2989.93	0.00088
2999.57	0.00036
3009.22	0.001041
3018.86	0.00153443
3028.51	0.001415
3038.15	0.0016568
3047.8	0.001652
3057.44	0.001411
3067.09	0.00324
3076.73	0.0039
3086.38	0.00396
3096.02	0.00256
3105.67	0.0014929
3115.31	0.00161501
3124.95	0.00155378
3134.6	0.001452
3144.24	0.000831
3153.89	0.001294
3163.53	0.001271
3173.18	0.000545
3182.82	0.000596
3192.47	0.001321
3202.11	0.000653
3211.76	0.0018589
3221.4	0.000872
3231.05	0.001074
3240.69	0.000551
3250.34	0.000753
3259.98	0.001326
3269.63	0.000687
3279.27	0.000954
3288.92	0.000896
3298.56	0.001392
3308.21	0.0014972
3317.85	0.001663
3327.49	0.00087
3337.14	0.001227
3346.78	0.000545
3356.43	0.000627
3366.07	0.001266
3375.72	0.001171
3385.36	0.001437
3395.01	0.0014705
3404.65	0.001349
3414.3	0.001284
3423.94	0.0022043
3433.59	0.001181
3443.23	0.001373
3452.88	0.0018075
3462.52	0.000842
3472.17	0.0016854
3481.81	0.0014365
3491.46	0.0018611
3501.1	0.001236
3510.75	0.001288
3520.39	0.001196
3530.04	0.000867
3539.68	0.0016195
3549.32	0.0023022
3558.97	0.0018397
3568.61	0.001288
3578.26	0.001337
3587.9	0.0017991
3597.55	0.0005
3607.19	0.000815
3616.84	0.000977
3626.48	0.001336
3636.13	0.001355
3645.77	0.000624
3655.42	0.001384
3665.06	0.001077
3674.71	0.000688
3684.35	0.0009
3694	0.000823
3703.64	0.000716
3713.29	0.000809
3722.93	0.001241
3732.58	0.00154489
3742.22	0.000832
3751.86	0.00159533
3761.51	0.000832
3771.15	0.000985
3780.8	0.000547
3790.44	0.000743
3800.09	0.001296
3809.73	0.001082
3819.38	0.000807
3829.02	0.00037
3838.67	0.000557
3848.31	0.000685
3857.96	0.00088
3867.6	0.000996
3877.25	0
3886.89	0.001184
3896.54	0.001255
3906.18	0.001262
3915.83	0.0014416
3925.47	0.00012
3935.12	0.001223
3944.76	0.001096
3954.41	0.00152779
3964.05	0.0006
3973.69	0.0014929
3983.34	0.000968
3992.98	0.000857
