Infrared Spectrum: 2-Heptane isothiocyanate
Formula: C 8 H 15 N S
CAS: 21663-51-4
State: gas
Origin: EPA-IR VAPOR PHASE LIBRARY
1/CM	ABSORBANCE
549.8	0.011262
559.445	0.009742
569.09	0.007882
578.734	0.005992
588.379	0.004662
598.024	0.003352
607.669	0.002832
617.313	0.002422
626.958	0.002012
636.603	0.002382
646.248	0.002192
655.893	0.002202
665.537	0.001922
675.182	0.001972
684.827	0.002102
694.472	0.002232
704.116	0.002272
713.761	0.002452
723.406	0.002932
733.051	0.003612
742.695	0.002722
752.34	0.001892
761.985	0.002022
771.63	0.002262
781.275	0.001692
790.919	0.0012108
800.564	0.0010459
810.209	0.0011059
819.854	0.001592
829.498	0.001872
839.143	0.002492
848.788	0.003152
858.433	0.002942
868.078	0.002362
877.722	0.002432
887.367	0.002792
897.012	0.002962
906.657	0.002912
916.301	0.002482
925.946	0.002342
935.591	0.002662
945.236	0.003462
954.88	0.004192
964.525	0.004122
974.17	0.005242
983.815	0.006852
993.46	0.007032
1003.1	0.005342
1012.75	0.004432
1022.39	0.003742
1032.04	0.004062
1041.68	0.003762
1051.33	0.003232
1060.97	0.002722
1070.62	0.003182
1080.26	0.003542
1089.91	0.003402
1099.55	0.004392
1109.2	0.005762
1118.84	0.008432
1128.49	0.009522
1138.13	0.010712
1147.78	0.011582
1157.42	0.008142
1167.07	0.004772
1176.71	0.003892
1186.36	0.003572
1196	0.003972
1205.64	0.003372
1215.29	0.003392
1224.93	0.003322
1234.58	0.003552
1244.22	0.003562
1253.87	0.003372
1263.51	0.004602
1273.16	0.005502
1282.8	0.007002
1292.45	0.008052
1302.09	0.011192
1311.74	0.016942
1321.38	0.027582
1331.03	0.045152
1340.67	0.048492
1350.32	0.029512
1359.96	0.015892
1369.61	0.012442
1379.25	0.014192
1388.9	0.013302
1398.54	0.007252
1408.18	0.004532
1417.83	0.003992
1427.47	0.004502
1437.12	0.006602
1446.76	0.010202
1456.41	0.013282
1466.05	0.012652
1475.7	0.008372
1485.34	0.004512
1494.99	0.002892
1504.63	0.002242
1514.28	0.001912
1523.92	0.001662
1533.57	0.001442
1543.21	0.001321
1552.86	0.0011648
1562.5	0.0012678
1572.15	0.0012282
1581.79	0.0012072
1591.44	0.0012294
1601.08	0.0011772
1610.73	0.0012248
1620.37	0.0011386
1630.01	0.001092
1639.66	0.0010734
1649.3	0.0010645
1658.95	0.0010205
1668.59	0.0010639
1678.24	0.0011479
1687.88	0.0010978
1697.53	0.0010426
1707.17	0.0011457
1716.82	0.0010951
1726.46	0.0010788
1736.11	0.0011146
1745.75	0.0010479
1755.4	0.0010217
1765.04	0.0011061
1774.69	0.001147
1784.33	0.001152
1793.98	0.0013613
1803.62	0.0014151
1813.27	0.0014151
1822.91	0.001562
1832.55	0.001572
1842.2	0.001712
1851.84	0.001982
1861.49	0.002382
1871.13	0.002902
1880.78	0.003622
1890.42	0.004542
1900.07	0.005772
1909.71	0.007412
1919.36	0.009822
1929	0.012772
1938.65	0.016652
1948.29	0.021622
1957.94	0.028142
1967.58	0.036592
1977.23	0.047122
1986.87	0.060222
1996.52	0.077062
2006.16	0.099772
2015.81	0.129672
2025.45	0.164912
2035.1	0.199512
2044.74	0.225702
2054.38	0.237582
2064.03	0.231702
2073.67	0.206412
2083.32	0.167432
2092.96	0.130002
2102.61	0.103382
2112.25	0.086722
2121.9	0.075862
2131.54	0.068182
2141.19	0.062042
2150.83	0.055492
2160.48	0.047372
2170.12	0.038252
2179.77	0.030552
2189.41	0.024762
2199.06	0.020212
2208.7	0.016242
2218.35	0.013002
2227.99	0.010062
2237.64	0.007812
2247.28	0.006192
2256.92	0.005292
2266.57	0.004632
2276.21	0.003862
2285.86	0.003472
2295.5	0.002902
2305.15	0.002462
2314.79	0.001942
2324.44	0.001792
2334.08	0.001692
2343.73	0.001592
2353.37	0.001562
2363.02	0.0013389
2372.66	0.0013335
2382.31	0.0013778
2391.95	0.0013238
2401.6	0.0014281
2411.24	0.0013984
2420.89	0.0013178
2430.53	0.0013776
2440.18	0.0012792
2449.82	0.0012263
2459.47	0.001295
2469.11	0.0011983
2478.75	0.0012806
2488.4	0.0013705
2498.04	0.0013499
2507.69	0.0013419
2517.33	0.001602
2526.98	0.001472
2536.62	0.001482
2546.27	0.001662
2555.91	0.001782
2565.56	0.001982
2575.2	0.001972
2584.85	0.002022
2594.49	0.002052
2604.14	0.002032
2613.78	0.002032
2623.43	0.002032
2633.07	0.002092
2642.72	0.002122
2652.36	0.002342
2662.01	0.002442
2671.65	0.002762
2681.29	0.003022
2690.94	0.003442
2700.58	0.003862
2710.23	0.004172
2719.87	0.004622
2729.52	0.004642
2739.16	0.004342
2748.81	0.004052
2758.45	0.003652
2768.1	0.003262
2777.74	0.003242
2787.39	0.003452
2797.03	0.003602
2806.68	0.003862
2816.32	0.004682
2825.97	0.005722
2835.61	0.007542
2845.26	0.011232
2854.9	0.020062
2864.55	0.030442
2874.19	0.034062
2883.84	0.032762
2893.48	0.029162
2903.12	0.032412
2912.77	0.045012
2922.41	0.062782
2932.06	0.088272
2941.7	0.103082
2951.35	0.079442
2960.99	0.059722
2970.64	0.061872
2980.28	0.054902
2989.93	0.046972
2999.57	0.021172
3009.22	0.009392
3018.86	0.006282
3028.51	0.005052
3038.15	0.004292
3047.8	0.003512
3057.44	0.002892
3067.09	0.002592
3076.73	0.002392
3086.38	0.002252
3096.02	0.002182
3105.67	0.001632
3115.31	0.001692
3124.95	0.001472
3134.6	0.0013707
3144.24	0.0013371
3153.89	0.0011901
3163.53	0.0012842
3173.18	0.0009296
3182.82	0.0011001
3192.47	0.0011169
3202.11	0.0010889
3211.76	0.0008493
3221.4	0.0008163
3231.05	0.0006537
3240.69	0.0005393
3250.34	0.00048439
3259.98	0.00052189
3269.63	0.0003475
3279.27	0.00045336
3288.92	0.000303
3298.56	0.000169
3308.21	0.000153
3317.85	0.00033
3327.49	0.000291
3337.14	0.0003813
3346.78	0.000438695
3356.43	0.000415
3366.07	0.0003375
3375.72	0.0003405
3385.36	0.0003359
3395.01	0.00046921
3404.65	0.000189
3414.3	0.000268
3423.94	0.0005655
3433.59	0.0005608
3443.23	0.0003391
3452.88	0.000315
3462.52	0.00044035
3472.17	0.000286
3481.81	0.000254
3491.46	0.00042236
3501.1	0.0003581
3510.75	0.000262
3520.39	0.000228
3530.04	0.0003748
3539.68	0.000332
3549.32	0.000301
3558.97	0.0003715
3568.61	0.000288
3578.26	0.000192
3587.9	0.000289
3597.55	0.000268
3607.19	0.000219
3616.84	0.0004776
3626.48	0.0003778
3636.13	0.00044534
3645.77	0.000433222
3655.42	0.00046239
3665.06	0.00047508
3674.71	0.000542
3684.35	0.000317
3694	0.0004828
3703.64	0.0006202
3713.29	0.000440949
3722.93	0.0005668
3732.58	0.0003812
3742.22	0.000248
3751.86	0.000436201
3761.51	0.00049021
3771.15	0.000547
3780.8	0.000440427
3790.44	0.0005405
3800.09	0.0005833
3809.73	0.0005476
3819.38	0.0005974
3829.02	0.0003412
3838.67	0.0005922
3848.31	0.0006166
3857.96	0.0006979
3867.6	0.0005678
3877.25	0.0006401
3886.89	0.0009664
3896.54	0.0006282
3906.18	0.000825
3915.83	0.0006452
3925.47	0.0006857
3935.12	0.0007215
3944.76	0.0009641
3954.41	0.0008957
3964.05	0.0009902
3973.69	0.0012179
3983.34	0.001265
3992.98	0.001582
