Infrared Spectrum: 2,5-Dichlorobenzonitrile
Formula: C 7 H 3 Cl 2 N
CAS: 21663-61-6
State: gas
Origin: EPA-IR VAPOR PHASE LIBRARY
1/CM	ABSORBANCE
549.8	0.0069
559.445	0.00157
569.09	0.00223
578.734	0.003
588.379	0.00305
598.024	0.00322
607.669	0.01501
617.313	0.01983
626.958	0.00363
636.603	0.0009191
646.248	0.0008694
655.893	0.0013768
665.537	0.0013977
675.182	0.00161
684.827	0.00154
694.472	0.00265
704.116	0.0026
713.761	0.00213
723.406	0.00175
733.051	0.0011438
742.695	0.00185
752.34	0.00313
761.985	0.00152
771.63	0.0010579
781.275	0.0012817
790.919	0.00267
800.564	0.00585
810.209	0.01729
819.854	0.03736
829.498	0.02012
839.143	0.00789
848.788	0.00667
858.433	0.01764
868.078	0.01803
877.722	0.01456
887.367	0.01887
897.012	0.00831
906.657	0.0023
916.301	0.0009347
925.946	0.0011872
935.591	0.0007987
945.236	0.0011086
954.88	0.00161
964.525	0.0014063
974.17	0.000989
983.815	0.0008996
993.46	0.0011389
1003.1	0.00087
1012.75	0.0011822
1022.39	0.0013051
1032.04	0.0024
1041.68	0.00519
1051.33	0.01824
1060.97	0.0316
1070.62	0.01675
1080.26	0.01074
1089.91	0.02391
1099.55	0.0723
1109.2	0.06097
1118.84	0.01309
1128.49	0.00747
1138.13	0.0157
1147.78	0.01081
1157.42	0.0042
1167.07	0.00379
1176.71	0.00433
1186.36	0.00455
1196	0.00697
1205.64	0.00507
1215.29	0.0014052
1224.93	0.00157
1234.58	0.00197
1244.22	0.0041
1253.87	0.01361
1263.51	0.01437
1273.16	0.00383
1282.8	0.00235
1292.45	0.00232
1302.09	0.0011014
1311.74	0.0008569
1321.38	0.0008722
1331.03	0.001119
1340.67	0.00144
1350.32	0.00192
1359.96	0.00269
1369.61	0.00769
1379.25	0.01696
1388.9	0.01523
1398.54	0.00665
1408.18	0.00576
1417.83	0.00418
1427.47	0.00398
1437.12	0.0062
1446.76	0.02017
1456.41	0.06795
1466.05	0.07013
1475.7	0.03802
1485.34	0.01912
1494.99	0.00345
1504.63	0.0026
1514.28	0.00225
1523.92	0.00177
1533.57	0.00176
1543.21	0.00246
1552.86	0.00523
1562.5	0.00536
1572.15	0.00253
1581.79	0.00281
1591.44	0.00277
1601.08	0.00191
1610.73	0.0011392
1620.37	0.0013396
1630.01	0.00224
1639.66	0.003
1649.3	0.00225
1658.95	0.0012359
1668.59	0.0012625
1678.24	0.0012298
1687.88	0.0008244
1697.53	0.0006751
1707.17	0.0006993
1716.82	0.0006713
1726.46	0.0007325
1736.11	0.000897
1745.75	0.0012513
1755.4	0.00213
1765.04	0.00352
1774.69	0.0028
1784.33	0.001274
1793.98	0.0010972
1803.62	0.0010126
1813.27	0.0007164
1822.91	0.000775
1832.55	0.0008402
1842.2	0.0008689
1851.84	0.0006621
1861.49	0.0005736
1871.13	0.0006303
1880.78	0.0009583
1890.42	0.00212
1900.07	0.00299
1909.71	0.00215
1919.36	0.0007957
1929	0.0006267
1938.65	0.0005554
1948.29	0.00051977
1957.94	0.0005373
1967.58	0.0005769
1977.23	0.00051819
1986.87	0.00046937
1996.52	0.00053858
2006.16	0.00049174
2015.81	0.00053829
2025.45	0.00046203
2035.1	0.00045426
2044.74	0.00046064
2054.38	0.000448932
2064.03	0.0003782
2073.67	0.00043578
2083.32	0.00044122
2092.96	0.00046008
2102.61	0.00053909
2112.25	0.00052238
2121.9	0.00050669
2131.54	0.00047651
2141.19	0.00038
2150.83	0.00049494
2160.48	0.0005527
2170.12	0.00053121
2179.77	0.0003706
2189.41	0.0004017
2199.06	0.0003923
2208.7	0.00049528
2218.35	0.0006357
2227.99	0.0011117
2237.64	0.0013971
2247.28	0.0011031
2256.92	0.0007052
2266.57	0.0005797
2276.21	0.000628
2285.86	0.000591
2295.5	0.00048482
2305.15	0.0005539
2314.79	0.0005257
2324.44	0.0005428
2334.08	0.0006265
2343.73	0.0007431
2353.37	0.0009033
2363.02	0.0008086
2372.66	0.0005529
2382.31	0.0005672
2391.95	0.00050394
2401.6	0.0004249
2411.24	0.0003566
2420.89	0.00045184
2430.53	0.00047695
2440.18	0.00052616
2449.82	0.00048216
2459.47	0.0003972
2469.11	0.00048089
2478.75	0.0004898
2488.4	0.0004516
2498.04	0.0005907
2507.69	0.0006012
2517.33	0.000546
2526.98	0.0005495
2536.62	0.00045869
2546.27	0.0005922
2555.91	0.00045296
2565.56	0.0004122
2575.2	0.000388
2584.85	0.0004235
2594.49	0.00047461
2604.14	0.00043649
2613.78	0.00048467
2623.43	0.00053597
2633.07	0.00048287
2642.72	0.00053447
2652.36	0.0005548
2662.01	0.0005884
2671.65	0.000662
2681.29	0.0006109
2690.94	0.0006006
2700.58	0.0006039
2710.23	0.0007233
2719.87	0.0006716
2729.52	0.0005724
2739.16	0.0005923
2748.81	0.0006032
2758.45	0.00052301
2768.1	0.0003921
2777.74	0.00050219
2787.39	0.0006687
2797.03	0.000623
2806.68	0.0009378
2816.32	0.0007272
2825.97	0.0009184
2835.61	0.0007847
2845.26	0.0006981
2854.9	0.00049603
2864.55	0.0003432
2874.19	0.000327
2883.84	0.000252
2893.48	0.0003561
2903.12	0.000313
2912.77	0.000284
2922.41	0.000256
2932.06	0.000335
2941.7	0.0003866
2951.35	0.00047944
2960.99	0.00051469
2970.64	0.000217
2980.28	0.00029
2989.93	0.000259
2999.57	0.000259
3009.22	0.0003534
3018.86	0.00043287
3028.51	0.0003808
3038.15	0.0004214
3047.8	0.000325
3057.44	0.00052769
3067.09	0.0006893
3076.73	0.001172
3086.38	0.0008773
3096.02	0.0007276
3105.67	0.000302
3115.31	0.0006425
3124.95	0.0003746
3134.6	0.000253
3144.24	0.0003542
3153.89	0.0003482
3163.53	0.00043287
3173.18	0.000263
3182.82	0.000263
3192.47	0.000317
3202.11	0.000266
3211.76	5.6e-05
3221.4	0.000233
3231.05	0.000214
3240.69	0.000222
3250.34	0.000331
3259.98	0.00023
3269.63	0.000311
3279.27	0.000315
3288.92	0.000449614
3298.56	0.000143
3308.21	0.000318
3317.85	0.00017
3327.49	0.0004032
3337.14	0.000247
3346.78	0.000168
3356.43	0.00019
3366.07	0.000262
3375.72	0.00049626
3385.36	0.0004169
3395.01	0.000245
3404.65	0.00047331
3414.3	0.000393
3423.94	0.00052539
3433.59	0.0006009
3443.23	0.0005416
3452.88	0.00023
3462.52	0.00046445
3472.17	0.000614
3481.81	0.000272
3491.46	0.00049
3501.1	0.000194
3510.75	0.00045567
3520.39	0.000204
3530.04	0.000344
3539.68	0.000239
3549.32	0.000111
3558.97	0.000217
3568.61	0.0003426
3578.26	0.0004173
3587.9	0.000283
3597.55	0.000298
3607.19	0.000326
3616.84	0.00052069
3626.48	0.0003843
3636.13	0.000328
3645.77	0.0003537
3655.42	0.000247
3665.06	0.0004078
3674.71	0.0003721
3684.35	0.0003435
3694	0.0003554
3703.64	0.000448472
3713.29	0.000326
3722.93	0.0004104
3732.58	0.0004011
3742.22	0.000287
3751.86	0.000174
3761.51	0.000331
3771.15	0.0005464
3780.8	0.0004842
3790.44	0.0008544
3800.09	0.0006709
3809.73	0.0004513
3819.38	0.0004056
3829.02	0.0003538
3838.67	0.000237
3848.31	0.00022
3857.96	0.00014
3867.6	0.0005584
3877.25	0.000281
3886.89	0.0003998
3896.54	0.000214
3906.18	0.000227
3915.83	0.000305
3925.47	0.0006298
3935.12	0.0006301
3944.76	0.00048289
3954.41	0.00050671
3964.05	0.00032
3973.69	0.000291
3983.34	0.0005431
3992.98	0.000253
