Infrared Spectrum: Phenothiazine, 10-(3-dimethylaminopropyl)-2-methyl-, hydrochloride
Formula: C18 H23 Cl N2 S
CAS: 2167-87-5
State: SOLID (KBr DISC)
Class: COBLENTZ III
Instrument: PERKIN-ELMER 21 (GRATING)
Instrument parameters: NaCl PRISM
Sampling: TRANSMISSION
Resolution: 2
Origin: SMITH KLINE & FRENCH LABS.
1/CM	TRANSMITTANCE
673	0.8032
682	0.6682
691	0.8209
700	0.791
709	0.709
718	0.742
727	0.5756
736	0.4108
745	0.4522
754	0.1378
763	0.4531
772	0.7458
781	0.7558
790	0.7671
799	0.6691
808	0.2699
817	0.4308
826	0.4513
835	0.7493
844	0.7784
853	0.6934
862	0.5646
871	0.7967
880	0.799
889	0.7589
898	0.7886
907	0.7796
916	0.7504
925	0.7033
934	0.6154
943	0.5909
952	0.5384
961	0.4707
970	0.3161
979	0.609
988	0.6414
997	0.5101
1006	0.5095
1015	0.5834
1024	0.6125
1033	0.4106
1042	0.5473
1051	0.5335
1060	0.6274
1069	0.6382
1078	0.6445
1087	0.5838
1096	0.5751
1105	0.4097
1114	0.5175
1123	0.4056
1132	0.3482
1141	0.5012
1150	0.4443
1159	0.3058
1168	0.2768
1177	0.2972
1186	0.5379
1195	0.4406
1204	0.5785
1213	0.4918
1222	0.3497
1231	0.2439
1240	0.4229
1249	0.2816
1258	0.2017
1267	0.34
1276	0.2751
1285	0.2305
1294	0.2053
1303	0.281
1312	0.3484
1321	0.2789
1330	0.3081
1339	0.5283
1348	0.5937
1357	0.5651
1366	0.5163
1375	0.4182
1384	0.3487
1393	0.2927
1402	0.1957
1411	0.1648
1420	0.2346
1429	0.2419
1438	0.1294
1447	0.0899
1456	0.0628
1465	0.0816
1474	0.186
1483	0.2474
1492	0.3118
1501	0.6292
1510	0.6838
1519	0.6927
1528	0.6892
1537	0.6392
1546	0.598
1555	0.5242
1564	0.4148
1573	0.4102
1582	0.3805
1591	0.382
1600	0.495
1609	0.698
1618	0.7302
1627	0.7349
1636	0.7347
1645	0.735
1654	0.7421
1663	0.7394
1672	0.7357
1681	0.7284
1690	0.7216
1699	0.7194
1708	0.7187
1717	0.7181
1726	0.7167
1735	0.7152
1744	0.7133
1753	0.7111
1762	0.7077
1771	0.6995
1780	0.6922
1789	0.6927
1798	0.6998
1807	0.6967
1816	0.6842
1825	0.6828
1834	0.6888
1843	0.6723
1852	0.664
1861	0.6473
1870	0.6579
1879	0.6516
1888	0.6157
1897	0.5993
1906	0.603
1915	0.61
1924	0.609
1933	0.5942
1942	0.5945
1951	0.6095
1960	0.6093
1969	0.6065
1978	0.5965
1987	0.5941
1996	0.5913
2005	0.5854
2014	0.5787
2023	0.5713
2032	0.5633
2041	0.5546
2050	0.5461
2059	0.5382
2068	0.5302
2077	0.5217
2086	0.5131
2095	0.5041
2104	0.4951
2113	0.486
2122	0.4765
2131	0.4664
2140	0.4584
2149	0.4499
2158	0.4401
2167	0.4281
2176	0.4134
2185	0.3964
2194	0.3799
2203	0.3654
2212	0.3526
2221	0.3388
2230	0.3249
2239	0.3034
2248	0.2863
2257	0.274
2266	0.2617
2275	0.2492
2284	0.2366
2293	0.223
2302	0.2055
2311	0.179
2320	0.118
2329	0.1128
2338	0.1083
2347	0.1039
2356	0.1031
2365	0.1012
2374	0.0974
2383	0.0938
2392	0.0914
2401	0.0896
2410	0.0891
2419	0.0901
2428	0.0928
2437	0.0995
2446	0.1193
2455	0.1477
2464	0.1862
2473	0.2019
2482	0.2089
2491	0.2146
2500	0.2202
2509	0.2253
2518	0.2302
2527	0.2243
2536	0.2143
2545	0.21
2554	0.2125
2563	0.2202
2572	0.2301
2581	0.2696
2590	0.3088
2599	0.3474
2608	0.3773
2617	0.3897
2626	0.3978
2635	0.4053
2644	0.4153
2653	0.4307
2662	0.4698
2671	0.4944
2680	0.5186
2689	0.5399
2698	0.5515
2707	0.5552
2716	0.5551
2725	0.5538
2734	0.5523
2743	0.5503
2752	0.5468
2761	0.5421
2770	0.5371
2779	0.5313
2788	0.5217
2797	0.5093
2806	0.4969
2815	0.4615
2824	0.4081
2833	0.3639
2842	0.3554
2851	0.353
2860	0.3525
2869	0.3458
2878	0.3392
2887	0.3333
2896	0.3324
2905	0.3339
2914	0.3364
2923	0.3402
2932	0.3456
2941	0.352
2950	0.3982
2959	0.4462
2968	0.4493
2977	0.4485
2986	0.4459
2995	0.4461
3004	0.4538
3013	0.4685
3022	0.4739
3031	0.4764
3040	0.4783
3049	0.4812
3058	0.4864
3067	0.4985
3076	0.5517
3085	0.5535
3094	0.5524
3103	0.5505
3112	0.5475
3121	0.5442
3130	0.5415
3139	0.5388
3148	0.5357
3157	0.5324
3166	0.529
3175	0.5254
3184	0.5218
3193	0.5191
3202	0.5165
3211	0.5142
3220	0.5119
3229	0.5086
3238	0.5044
3247	0.4999
3256	0.4955
3265	0.4908
3274	0.4858
3283	0.4808
3292	0.4754
3301	0.4697
3310	0.4641
3319	0.4562
3328	0.4475
3337	0.4403
3346	0.4316
3355	0.4271
3364	0.4235
3373	0.4213
3382	0.4194
3391	0.4184
3400	0.4184
3409	0.4185
3418	0.4187
3427	0.4191
3436	0.4196
3445	0.4201
3454	0.4206
3463	0.4213
3472	0.4224
3481	0.4235
3490	0.4247
3499	0.4258
3508	0.4274
3517	0.4295
3526	0.4315
3535	0.4327
3544	0.4339
3553	0.4345
3562	0.4339
3571	0.4334
3580	0.4337
3589	0.4366
3598	0.4395
3607	0.4422
3616	0.4428
3625	0.443
3634	0.443
3643	0.4429
3652	0.4427
3661	0.4422
3670	0.4412
3679	0.4399
3688	0.4385
3697	0.4372
3706	0.4359
3715	0.4345
3724	0.4332
3733	0.4319
3742	0.4305
3751	0.4289
3760	0.4272
3769	0.4256
3778	0.4239
3787	0.4223
3796	0.4207
3805	0.4191
3814	0.4174
3823	0.4158
3832	0.4139
3841	0.412
3850	0.4101
3859	0.4083
3868	0.4064
3877	0.4045
3886	0.4027
3895	0.4009
3904	0.399
3913	0.3972
3922	0.3952
3931	0.3931
3940	0.3912
3949	0.3892
3958	0.3871
3967	0.3852
3976	0.3832
3985	0.3812
3994	0.3794
