Infrared Spectrum: TRIS(2,4-PENTANEDIONATO) COBALT
Formula: C15 H21 Co O6
CAS: 21679-46-9
State: SOLID (KBr WAFER)
Melting point: 240 C
Class: COBLENTZ
Instrument: BECKMAN IR-4 (HYBRID PRISM-GRATING)
Sampling: TRANSMISSION
Resolution: 4
Origin: MACKENZIE CHEMICAL WORKS, INC., LONG ISLAND, NEW YORK
MICROMETERS	TRANSMITTANCE
2.015	0.877
2.05	0.889
2.085	0.891
2.12	0.891
2.155	0.891
2.19	0.891
2.225	0.891
2.26	0.896
2.295	0.894
2.33	0.885
2.365	0.89
2.4	0.895
2.435	0.892
2.47	0.89
2.505	0.894
2.54	0.902
2.575	0.907
2.61	0.902
2.645	0.899
2.68	0.903
2.715	0.908
2.75	0.913
2.785	0.915
2.82	0.913
2.855	0.912
2.89	0.911
2.925	0.908
2.96	0.906
2.995	0.899
3.03	0.891
3.065	0.89
3.1	0.889
3.135	0.882
3.17	0.885
3.205	0.88
3.24	0.877
3.275	0.885
3.31	0.867
3.345	0.839
3.38	0.834
3.415	0.83
3.45	0.854
3.485	0.891
3.52	0.899
3.555	0.918
3.59	0.915
3.625	0.907
3.66	0.913
3.695	0.92
3.73	0.921
3.765	0.91
3.8	0.906
3.835	0.911
3.87	0.918
3.905	0.921
3.94	0.925
3.975	0.927
4.01	0.927
4.045	0.926
4.08	0.921
4.115	0.918
4.15	0.916
4.185	0.9
4.22	0.894
4.255	0.897
4.29	0.906
4.325	0.908
4.36	0.907
4.395	0.903
4.43	0.907
4.465	0.908
4.5	0.905
4.535	0.907
4.57	0.908
4.605	0.908
4.64	0.908
4.675	0.908
4.71	0.906
4.745	0.907
4.78	0.916
4.815	0.913
4.85	0.917
4.885	0.916
4.92	0.902
4.955	0.896
4.99	0.895
5.025	0.895
5.06	0.897
5.095	0.897
5.13	0.897
5.165	0.897
5.2	0.897
5.235	0.897
5.27	0.896
5.305	0.899
5.34	0.902
5.375	0.905
5.41	0.903
5.445	0.897
5.48	0.891
5.515	0.9
5.55	0.9
5.585	0.896
5.62	0.9
5.655	0.899
5.69	0.896
5.725	0.894
5.76	0.892
5.795	0.892
5.83	0.89
5.865	0.882
5.9	0.875
5.935	0.864
5.97	0.857
6.005	0.841
6.04	0.844
6.075	0.83
6.11	0.82
6.145	0.81
6.18	0.77
6.215	0.733
6.25	0.627
6.285	0.367
6.32	0.108
6.355	0.129
6.39	0.216
6.425	0.351
6.46	0.382
6.495	0.347
6.53	0.295
6.565	0.357
6.6	0.476
6.635	0.674
6.67	0.734
6.705	0.758
6.74	0.758
6.775	0.729
6.81	0.7
6.845	0.663
6.88	0.643
6.915	0.583
6.95	0.511
6.985	0.501
7.02	0.49
7.055	0.485
7.09	0.44
7.125	0.305
7.16	0.198
7.195	0.165
7.23	0.178
7.265	0.288
7.3	0.359
7.335	0.447
7.37	0.593
7.405	0.705
7.44	0.766
7.475	0.778
7.51	0.798
7.545	0.831
7.58	0.844
7.615	0.859
7.65	0.867
7.685	0.861
7.72	0.85
7.755	0.807
7.79	0.703
7.825	0.703
7.86	0.841
7.895	0.861
7.93	0.87
7.965	0.88
8	0.884
8.035	0.887
8.07	0.88
8.105	0.88
8.14	0.879
8.175	0.875
8.21	0.87
8.245	0.849
8.28	0.84
8.315	0.815
8.35	0.774
8.385	0.756
8.42	0.806
8.455	0.811
8.49	0.802
8.525	0.798
8.56	0.788
8.595	0.763
8.63	0.744
8.665	0.697
8.7	0.663
8.735	0.632
8.77	0.624
8.805	0.62
8.84	0.603
8.875	0.567
8.91	0.549
8.945	0.559
8.98	0.609
9.015	0.663
9.05	0.714
9.085	0.726
9.12	0.748
9.155	0.756
9.19	0.776
9.225	0.805
9.26	0.819
9.295	0.821
9.33	0.83
9.365	0.834
9.4	0.851
9.435	0.852
9.47	0.86
9.505	0.855
9.54	0.854
9.575	0.845
9.61	0.824
9.645	0.802
9.68	0.774
9.715	0.728
9.75	0.723
9.785	0.711
9.82	0.714
9.855	0.736
9.89	0.775
9.925	0.834
9.96	0.854
9.995	0.884
10.03	0.892
10.065	0.897
10.1	0.895
10.135	0.899
10.17	0.901
10.205	0.902
10.24	0.902
10.275	0.903
10.31	0.902
10.345	0.91
10.38	0.907
10.415	0.908
10.45	0.908
10.485	0.891
10.52	0.852
10.555	0.819
10.59	0.812
10.625	0.801
10.66	0.788
10.695	0.785
10.73	0.802
10.765	0.852
10.8	0.87
10.835	0.889
10.87	0.897
10.905	0.908
10.94	0.908
10.975	0.912
11.01	0.921
11.045	0.922
11.08	0.931
11.115	0.931
11.15	0.935
11.185	0.935
11.22	0.938
11.255	0.941
11.29	0.938
11.325	0.938
11.36	0.936
11.395	0.943
11.43	0.947
11.465	0.942
11.5	0.946
11.535	0.948
11.57	0.942
11.605	0.946
11.64	0.951
11.675	0.946
11.71	0.935
11.745	0.948
11.78	0.951
11.815	0.951
11.85	0.951
11.885	0.95
11.92	0.951
11.955	0.952
11.99	0.953
12.025	0.955
12.06	0.947
12.095	0.95
12.13	0.95
12.165	0.948
12.2	0.941
12.235	0.935
12.27	0.941
12.305	0.94
12.34	0.942
12.375	0.937
12.41	0.936
12.445	0.93
12.48	0.927
12.515	0.92
12.55	0.912
12.585	0.905
12.62	0.907
12.655	0.901
12.69	0.886
12.725	0.857
12.76	0.82
12.795	0.785
12.83	0.812
12.865	0.812
12.9	0.799
12.935	0.774
12.97	0.763
13.005	0.798
13.04	0.776
13.075	0.763
13.11	0.795
13.145	0.854
13.18	0.887
13.215	0.897
13.25	0.911
13.285	0.918
13.32	0.92
13.355	0.921
13.39	0.922
13.425	0.93
13.46	0.93
13.495	0.93
13.53	0.928
13.565	0.927
13.6	0.923
13.635	0.922
13.67	0.921
13.705	0.918
13.74	0.915
13.775	0.911
13.81	0.91
13.845	0.908
13.88	0.907
13.915	0.907
13.95	0.906
13.985	0.905
14.02	0.901
14.055	0.899
14.09	0.897
14.125	0.895
14.16	0.894
14.195	0.891
14.23	0.882
14.265	0.874
14.3	0.847
14.335	0.834
14.37	0.819
14.405	0.812
14.44	0.816
14.475	0.825
14.51	0.855
14.545	0.867
14.58	0.869
14.615	0.852
14.65	0.839
14.685	0.81
14.72	0.784
14.755	0.761
14.79	0.756
14.825	0.778
14.86	0.794
14.895	0.817
14.93	0.846
14.965	0.859
15	0.865
