Infrared Spectrum: Bromoxylenol blue
Formula: C23 H20 Br2 O5 S
CAS: 216771-60-7
State: SOLID (SPLIT MULL), FLUOROLUBE FOR 3800-1330 CM^-^1, NUJOL FOR 1330-460 CM^-^1
Class: COBLENTZ III
Instrument: DOW KBr FOREPRISM-GRATING
Instrument parameters: BLAZED AT 3.5, 12.0, 20.0 MICRON AND CHANGED AT 5.0, 7.5, 14.9 MICRON
Sampling: TRANSMISSION
Resolution: 2
Origin: DOW CHEMICAL COMPANY
1/CM	TRANSMITTANCE
456	0.6485
465	0.6468
474	0.6454
483	0.6408
492	0.6028
501	0.6014
510	0.6448
519	0.616
528	0.7158
537	0.7387
546	0.5679
555	0.6839
564	0.7318
573	0.5409
582	0.7861
591	0.8114
600	0.8084
609	0.7085
618	0.7689
627	0.7985
636	0.6179
645	0.7919
654	0.7942
663	0.5712
672	0.8096
681	0.6687
690	0.8263
699	0.8151
708	0.7858
717	0.7201
726	0.6551
735	0.6808
744	0.7337
753	0.7199
762	0.3098
771	0.7061
780	0.6696
789	0.5848
798	0.2434
807	0.226
816	0.5639
825	0.634
834	0.4665
843	0.7036
852	0.7583
861	0.7553
870	0.6184
879	0.6218
888	0.7369
897	0.557
906	0.6985
915	0.7067
924	0.7601
933	0.7554
942	0.6806
951	0.7178
960	0.7557
969	0.758
978	0.7704
987	0.7739
996	0.7494
1005	0.6915
1014	0.6738
1023	0.7065
1032	0.6565
1041	0.7069
1050	0.6712
1059	0.5876
1068	0.7226
1077	0.6248
1086	0.6568
1095	0.393
1104	0.5743
1113	0.6828
1122	0.6743
1131	0.5221
1140	0.558
1149	0.424
1158	0.4265
1167	0.5045
1176	0.1583
1185	0.0884
1194	0.4002
1203	0.5512
1212	0.4197
1221	0.4362
1230	0.5583
1239	0.5294
1248	0.3584
1257	0.4771
1266	0.6304
1275	0.572
1284	0.4082
1293	0.242
1302	0.4775
1311	0.5545
1320	0.5097
1329	0.3345
1338	0.3232
1347	0.5302
1356	0.6531
1365	0.7341
1374	0.6217
1383	0.7211
1392	0.6722
1401	0.5695
1410	0.7145
1419	0.7571
1428	0.7189
1437	0.6799
1446	0.6238
1455	0.6558
1464	0.5758
1473	0.4569
1482	0.5706
1491	0.8634
1500	0.8716
1509	0.8667
1518	0.8604
1527	0.8525
1536	0.8404
1545	0.8221
1554	0.7911
1563	0.7712
1572	0.8242
1581	0.7851
1590	0.8171
1599	0.7526
1608	0.7493
1617	0.8524
1626	0.8481
1635	0.8444
1644	0.845
1653	0.8468
1662	0.8431
1671	0.8383
1680	0.8286
1689	0.8184
1698	0.803
1707	0.7899
1716	0.7899
1725	0.8069
1734	0.8202
1743	0.8141
1752	0.8096
1761	0.8193
1770	0.8194
1779	0.815
1788	0.8119
1797	0.8091
1806	0.8061
1815	0.8032
1824	0.8021
1833	0.8048
1842	0.8051
1851	0.8015
1860	0.7988
1869	0.7967
1878	0.7939
1887	0.7922
1896	0.7908
1905	0.7895
1914	0.7883
1923	0.7861
1932	0.7836
1941	0.781
1950	0.7826
1959	0.7818
1968	0.778
1977	0.7732
1986	0.7687
1995	0.7668
2004	0.7682
2013	0.766
2022	0.7631
2031	0.7597
2040	0.7565
2049	0.7531
2058	0.75
2067	0.7471
2076	0.7444
2085	0.7415
2094	0.7388
2103	0.7358
2112	0.7328
2121	0.7297
2130	0.7267
2139	0.723
2148	0.7192
2157	0.7153
2166	0.7115
2175	0.7075
2184	0.7035
2193	0.6989
2202	0.6942
2211	0.6885
2220	0.6828
2229	0.6769
2238	0.6718
2247	0.6668
2256	0.6618
2265	0.6578
2274	0.6539
2283	0.65
2292	0.6468
2301	0.6437
2310	0.6419
2319	0.6418
2328	0.644
2337	0.6448
2346	0.6431
2355	0.6403
2364	0.6373
2373	0.6345
2382	0.6322
2391	0.6308
2400	0.6295
2409	0.6281
2418	0.6267
2427	0.6253
2436	0.6239
2445	0.6224
2454	0.621
2463	0.6195
2472	0.618
2481	0.6164
2490	0.6149
2499	0.6133
2508	0.6118
2517	0.6102
2526	0.6086
2535	0.607
2544	0.6054
2553	0.6038
2562	0.6022
2571	0.6005
2580	0.5987
2589	0.5969
2598	0.5952
2607	0.5934
2616	0.5917
2625	0.5896
2634	0.5874
2643	0.5851
2652	0.5829
2661	0.5806
2670	0.5786
2679	0.5766
2688	0.5747
2697	0.5728
2706	0.5709
2715	0.5689
2724	0.567
2733	0.5651
2742	0.5632
2751	0.5612
2760	0.5591
2769	0.5558
2778	0.5526
2787	0.5493
2796	0.5451
2805	0.5404
2814	0.5358
2823	0.5279
2832	0.5189
2841	0.5075
2850	0.5008
2859	0.5007
2868	0.5012
2877	0.4988
2886	0.4916
2895	0.4794
2904	0.457
2913	0.4474
2922	0.4487
2931	0.4657
2940	0.473
2949	0.4706
2958	0.4739
2967	0.4944
2976	0.4969
2985	0.4978
2994	0.4975
3003	0.4951
3012	0.49
3021	0.4872
3030	0.4878
3039	0.4887
3048	0.4846
3057	0.4804
3066	0.4793
3075	0.4803
3084	0.4817
3093	0.4832
3102	0.4845
3111	0.4842
3120	0.4825
3129	0.4793
3138	0.4762
3147	0.4734
3156	0.4707
3165	0.468
3174	0.4653
3183	0.4621
3192	0.4589
3201	0.4556
3210	0.4524
3219	0.4492
3228	0.4462
3237	0.4433
3246	0.4405
3255	0.4377
3264	0.4349
3273	0.432
3282	0.4292
3291	0.4266
3300	0.4239
3309	0.4212
3318	0.4186
3327	0.4159
3336	0.4127
3345	0.4095
3354	0.4058
3363	0.3991
3372	0.3925
3381	0.3828
3390	0.3706
3399	0.3584
3408	0.3412
3417	0.323
3426	0.3025
3435	0.2793
3444	0.2521
3453	0.2118
3462	0.2103
3471	0.3148
3480	0.3984
3489	0.4097
3498	0.4183
3507	0.4475
3516	0.4498
3525	0.4504
3534	0.4496
3543	0.4475
3552	0.4454
3561	0.4425
3570	0.439
3579	0.4355
3588	0.4322
3597	0.4294
3606	0.4266
3615	0.4241
3624	0.4217
3633	0.4193
3642	0.4172
3651	0.4152
3660	0.4132
3669	0.4112
3678	0.4093
3687	0.4073
3696	0.4054
3705	0.4034
3714	0.4016
3723	0.3998
3732	0.398
3741	0.396
3750	0.3942
3759	0.3924
3768	0.3903
3777	0.388
3786	0.3864
3795	0.3852
