Infrared Spectrum: 2-AMINO-4-(P-ACETAMIDOPHENYL)-THIAZOLE
Formula: C11 H11 N3 O S
CAS: 21674-96-4
State: SOLID (PELLET)
Melting point: 239-243 C
Class: COBLENTZ
Instrument: Not specified, most likely a prism, grating, or hybrid spectrometer.
Sampling: TRANSMISSION
Resolution: 4
Origin: TENNESSEE EASTMAN COMPANY, RESEARCH LABORATORIES
MICROMETERS	TRANSMITTANCE
1.989	0.803
2.02891	0.801
2.06882	0.801
2.10873	0.803
2.14864	0.806
2.18855	0.813
2.22846	0.821
2.26837	0.83
2.30828	0.84
2.34819	0.846
2.3881	0.85
2.42801	0.855
2.46792	0.858
2.50783	0.863
2.54774	0.868
2.58765	0.868
2.62756	0.868
2.66747	0.871
2.70738	0.866
2.74729	0.805
2.7872	0.71
2.82711	0.625
2.86702	0.565
2.90693	0.468
2.94684	0.238
2.98675	0.063
3.02666	0.058
3.06657	0.131
3.10648	0.27
3.14639	0.1
3.1863	0.08
3.22621	0.323
3.26612	0.296
3.30603	0.365
3.34594	0.46
3.38585	0.498
3.42576	0.341
3.46567	0.326
3.50558	0.478
3.54549	0.576
3.5854	0.653
3.62531	0.681
3.66522	0.743
3.70513	0.781
3.74504	0.816
3.78495	0.841
3.82486	0.883
3.86477	0.913
3.90468	0.92
3.94459	0.928
3.9845	0.945
4.02441	0.943
4.06432	0.943
4.10423	0.946
4.14414	0.95
4.18405	0.95
4.22396	0.953
4.26387	0.943
4.30378	0.935
4.34369	0.945
4.3836	0.953
4.42351	0.966
4.46342	0.971
4.50333	0.973
4.54324	0.97
4.58315	0.968
4.62306	0.971
4.66297	0.981
4.70288	0.98
4.74279	0.981
4.7827	0.985
4.82261	0.985
4.86252	0.983
4.90243	0.983
4.94234	0.983
4.98225	0.991
5.02216	0.993
5.06207	0.991
5.10198	0.991
5.14189	0.995
5.1818	0.996
5.22171	0.948
5.26162	0.99
5.30153	0.996
5.34144	0.99
5.38135	0.993
5.42126	0.981
5.46117	0.986
5.50108	0.988
5.54099	0.976
5.5809	0.953
5.62081	0.958
5.66072	0.946
5.70063	0.925
5.74054	0.851
5.78045	0.853
5.82036	0.821
5.86027	0.8
5.90018	0.685
5.94009	0.556
5.98	0.318
6.01991	0.081
6.05982	0.033
6.09973	0.016
6.13964	0.05
6.17955	0.161
6.21946	0.223
6.25937	0.265
6.29928	0.476
6.33919	0.54
6.3791	0.54
6.41901	0.413
6.45892	0.19
6.49883	0.2
6.53874	0.185
6.57865	0.093
6.61856	0.226
6.65847	0.238
6.69838	0.373
6.73829	0.168
6.7782	0.226
6.81811	0.441
6.85802	0.523
6.89793	0.441
6.93784	0.366
6.97775	0.311
7.01766	0.208
7.05757	0.108
7.09748	0.083
7.13739	0.116
7.1773	0.178
7.21721	0.261
7.25712	0.301
7.29703	0.306
7.33694	0.268
7.37685	0.198
7.41676	0.081
7.45667	0.058
7.49658	0.288
7.53649	0.456
7.5764	0.508
7.61631	0.568
7.65622	0.641
7.69613	0.588
7.73604	0.601
7.77595	0.653
7.81586	0.598
7.85577	0.586
7.89568	0.641
7.93559	0.616
7.9755	0.583
8.01541	0.57
8.05532	0.65
8.09523	0.716
8.13514	0.731
8.17505	0.743
8.21496	0.741
8.25487	0.721
8.29478	0.643
8.33469	0.453
8.3746	0.553
8.41451	0.7
8.45442	0.705
8.49433	0.681
8.53424	0.705
8.57415	0.711
8.61406	0.711
8.65397	0.703
8.69388	0.703
8.73379	0.713
8.7737	0.75
8.81361	0.766
8.85352	0.77
8.89343	0.761
8.93334	0.738
8.97325	0.716
9.01316	0.618
9.05307	0.576
9.09298	0.721
9.13289	0.731
9.1728	0.731
9.21271	0.731
9.25262	0.723
9.29253	0.72
9.33244	0.71
9.37235	0.7
9.41226	0.663
9.45217	0.6
9.49208	0.445
9.53199	0.336
9.5719	0.358
9.61181	0.503
9.65172	0.611
9.69163	0.638
9.73154	0.613
9.77145	0.386
9.81136	0.456
9.85127	0.573
9.89118	0.67
9.93109	0.721
9.971	0.755
10.0109	0.783
10.0508	0.798
10.0907	0.808
10.1306	0.823
10.1706	0.83
10.2105	0.841
10.2504	0.845
10.2903	0.838
10.3302	0.825
10.3701	0.851
10.41	0.865
10.4499	0.855
10.4898	0.798
10.5297	0.843
10.5697	0.875
10.6096	0.866
10.6495	0.793
10.6894	0.748
10.7293	0.805
10.7692	0.851
10.8091	0.876
10.849	0.883
10.8889	0.873
10.9288	0.808
10.9688	0.696
11.0087	0.826
11.0486	0.863
11.0885	0.878
11.1284	0.881
11.1683	0.885
11.2082	0.89
11.2481	0.886
11.288	0.89
11.3279	0.89
11.3679	0.885
11.4078	0.883
11.4477	0.88
11.4876	0.853
11.5275	0.803
11.5674	0.696
11.6073	0.505
11.6472	0.485
11.6871	0.67
11.727	0.738
11.767	0.738
11.8069	0.645
11.8468	0.453
11.8867	0.466
11.9266	0.465
11.9665	0.37
12.0064	0.353
12.0463	0.533
12.0862	0.683
12.1261	0.741
12.1661	0.755
12.206	0.755
12.2459	0.733
12.2858	0.696
12.3257	0.63
12.3656	0.546
12.4055	0.47
12.4454	0.458
12.4853	0.463
12.5252	0.466
12.5652	0.471
12.6051	0.491
12.645	0.511
12.6849	0.555
12.7248	0.583
12.7647	0.606
12.8046	0.64
12.8445	0.661
12.8844	0.683
12.9243	0.695
12.9643	0.705
13.0042	0.726
13.0441	0.741
13.084	0.745
13.1239	0.748
13.1638	0.756
13.2037	0.765
13.2436	0.771
13.2835	0.771
13.3234	0.768
13.3634	0.751
13.4033	0.703
13.4432	0.588
13.4831	0.46
13.523	0.525
13.5629	0.698
13.6028	0.765
13.6427	0.786
13.6826	0.793
13.7225	0.798
13.7625	0.798
13.8024	0.793
13.8423	0.773
13.8822	0.741
13.9221	0.693
13.962	0.613
14.0019	0.461
14.0418	0.323
14.0817	0.248
14.1216	0.238
14.1616	0.3
14.2015	0.345
14.2414	0.368
14.2813	0.4
14.3212	0.466
14.3611	0.52
14.401	0.571
14.4409	0.6
14.4808	0.601
14.5207	0.601
14.5607	0.601
14.6006	0.625
14.6405	0.655
14.6804	0.698
14.7203	0.715
14.7602	0.72
14.8001	0.72
14.84	0.718
14.8799	0.705
14.9198	0.68
14.9598	0.678
14.9997	0.696
15.0396	0.73
15.0795	0.75
15.1194	0.768
15.1593	0.781
15.1992	0.781
15.2391	0.783
15.279	0.781
15.3189	0.783
15.3589	0.783
15.3988	0.781
15.4387	0.78
15.4786	0.78
15.5185	0.776
15.5584	0.77
15.5983	0.761
15.6382	0.745
15.6781	0.731
15.718	0.72
15.758	0.715
15.7979	0.713
15.8378	0.713
15.8777	0.711
15.9176	0.711
