Infrared Spectrum: 4-Piperidinol, 1-[3-(-benzo[b]thienyl)propyl)-4-phenyl-, hydrochloride
Formula: C22 H26 Cl N O S
CAS: 21683-80-7
State: SOLID (OIL MULL)
Class: COBLENTZ III
Instrument: PERKIN-ELMER 21 (GRATING)
Instrument parameters: NaCl PRISM
Sampling: TRANSMISSION
Resolution: 2
Origin: SMITH KLINE & FRENCH LABS.
1/CM	TRANSMITTANCE
661	0.7521
670	0.7849
679	0.8128
688	0.8144
697	0.713
706	0.5157
715	0.7882
724	0.7087
733	0.8018
742	0.5086
751	0.7949
760	0.7098
769	0.2601
778	0.5051
787	0.8676
796	0.8946
805	0.8923
814	0.9138
823	0.9175
832	0.905
841	0.8677
850	0.7244
859	0.8465
868	0.8765
877	0.9092
886	0.8997
895	0.8911
904	0.8525
913	0.6779
922	0.8664
931	0.8307
940	0.8157
949	0.7496
958	0.3842
967	0.602
976	0.7744
985	0.7494
994	0.8327
1003	0.7967
1012	0.7957
1021	0.7903
1030	0.8324
1039	0.7639
1048	0.7408
1057	0.8079
1066	0.749
1075	0.6539
1084	0.8197
1093	0.8589
1102	0.8876
1111	0.8797
1120	0.8609
1129	0.8297
1138	0.7474
1147	0.8053
1156	0.811
1165	0.8061
1174	0.7821
1183	0.7871
1192	0.7673
1201	0.807
1210	0.806
1219	0.7283
1228	0.8336
1237	0.7913
1246	0.7348
1255	0.5685
1264	0.7389
1273	0.8113
1282	0.7885
1291	0.7317
1300	0.8032
1309	0.781
1318	0.7495
1327	0.7537
1336	0.7545
1345	0.7344
1354	0.688
1363	0.6246
1372	0.5233
1381	0.5724
1390	0.6144
1399	0.5997
1408	0.6784
1417	0.6388
1426	0.5847
1435	0.4364
1444	0.4079
1453	0.3016
1462	0.3406
1471	0.5543
1480	0.763
1489	0.7839
1498	0.7881
1507	0.8561
1516	0.872
1525	0.8755
1534	0.8751
1543	0.8733
1552	0.8768
1561	0.8827
1570	0.8847
1579	0.8815
1588	0.8773
1597	0.8715
1606	0.8694
1615	0.8769
1624	0.8818
1633	0.8839
1642	0.886
1651	0.8888
1660	0.8906
1669	0.8909
1678	0.8912
1687	0.8924
1696	0.8963
1705	0.9038
1714	0.9058
1723	0.9062
1732	0.9059
1741	0.9031
1750	0.8987
1759	0.8965
1768	0.9005
1777	0.9021
1786	0.8973
1795	0.8914
1804	0.8863
1813	0.8838
1822	0.8827
1831	0.8817
1840	0.8817
1849	0.8817
1858	0.8822
1867	0.8826
1876	0.8821
1885	0.881
1894	0.8808
1903	0.8804
1912	0.8796
1921	0.8786
1930	0.8777
1939	0.8767
1948	0.8721
1957	0.8671
1966	0.8662
1975	0.8703
1984	0.8745
1993	0.8736
2002	0.8717
2011	0.8686
2020	0.8657
2029	0.865
2038	0.8644
2047	0.865
2056	0.8657
2065	0.8657
2074	0.8651
2083	0.8629
2092	0.8593
2101	0.8545
2110	0.8535
2119	0.8526
2128	0.8516
2137	0.8506
2146	0.8455
2155	0.8417
2164	0.8401
2173	0.8387
2182	0.8358
2191	0.831
2200	0.8254
2209	0.8198
2218	0.8132
2227	0.8067
2236	0.7995
2245	0.7913
2254	0.7808
2263	0.7679
2272	0.7539
2281	0.7389
2290	0.7205
2299	0.6999
2308	0.6781
2317	0.6665
2326	0.6563
2335	0.6499
2344	0.6469
2353	0.64
2362	0.6365
2371	0.6356
2380	0.6254
2389	0.6084
2398	0.5918
2407	0.5755
2416	0.5596
2425	0.5421
2434	0.5261
2443	0.4972
2452	0.4539
2461	0.428
2470	0.3955
2479	0.3713
2488	0.3494
2497	0.3318
2506	0.3211
2515	0.3084
2524	0.2916
2533	0.282
2542	0.2831
2551	0.2912
2560	0.3245
2569	0.3576
2578	0.3904
2587	0.4262
2596	0.4465
2605	0.4568
2614	0.4594
2623	0.4569
2632	0.4512
2641	0.4481
2650	0.4545
2659	0.4934
2668	0.5336
2677	0.5713
2686	0.5878
2695	0.5968
2704	0.6039
2713	0.6097
2722	0.6144
2731	0.6181
2740	0.619
2749	0.6183
2758	0.6145
2767	0.6094
2776	0.6011
2785	0.5625
2794	0.4842
2803	0.4064
2812	0.329
2821	0.2523
2830	0.1759
2839	0.0906
2848	0.0694
2857	0.0632
2866	0.0611
2875	0.0573
2884	0.0495
2893	0.0384
2902	0.0364
2911	0.0392
2920	0.0587
2929	0.0786
2938	0.1424
2947	0.2231
2956	0.3021
2965	0.3806
2974	0.4586
2983	0.535
2992	0.5584
3001	0.571
3010	0.5794
3019	0.5849
3028	0.5888
3037	0.5925
3046	0.5947
3055	0.5979
3064	0.6033
3073	0.6067
3082	0.6093
3091	0.6098
3100	0.6101
3109	0.6097
3118	0.6092
3127	0.6082
3136	0.6064
3145	0.601
3154	0.5935
3163	0.5839
3172	0.5732
3181	0.5624
3190	0.5508
3199	0.5391
3208	0.5222
3217	0.5009
3226	0.4799
3235	0.4589
3244	0.438
3253	0.4173
3262	0.3966
3271	0.3761
3280	0.3557
3289	0.3441
3298	0.3479
3307	0.385
3316	0.4223
3325	0.4594
3334	0.4964
3343	0.5336
3352	0.5648
3361	0.5807
3370	0.5942
3379	0.6086
3388	0.6209
3397	0.6293
3406	0.6345
3415	0.6377
3424	0.6394
3433	0.6402
3442	0.6406
3451	0.6406
3460	0.6408
3469	0.6411
3478	0.6435
3487	0.6482
3496	0.649
3505	0.6496
3514	0.6498
3523	0.6499
3532	0.6512
3541	0.6494
3550	0.648
3559	0.6467
3568	0.6449
3577	0.6431
3586	0.6416
3595	0.6407
3604	0.6397
3613	0.6387
3622	0.6387
3631	0.6389
3640	0.6393
3649	0.6397
3658	0.6402
3667	0.6406
3676	0.6408
3685	0.641
3694	0.6408
3703	0.6406
3712	0.6403
3721	0.6401
3730	0.6393
3739	0.6386
3748	0.6379
3757	0.6372
3766	0.6364
3775	0.6357
3784	0.635
3793	0.6341
3802	0.6332
3811	0.6322
3820	0.6313
3829	0.6304
3838	0.6295
3847	0.6285
3856	0.6275
3865	0.6264
3874	0.6254
3883	0.6244
3892	0.6234
3901	0.6224
3910	0.6213
3919	0.6202
3928	0.6192
3937	0.6182
3946	0.617
3955	0.616
3964	0.6149
3973	0.6139
3982	0.6129
3991	0.6118
4000	0.611
