Infrared Spectrum: 2-FURAMIDE, N-BENZIMIDAZOLE-2-YL-
Formula: C12 H9 N3 O2
CAS: 21694-48-4
State: SOLID (OIL MULL)
Class: COBLENTZ III
Instrument: PERKIN-ELMER 21 (GRATING)
Instrument parameters: NaCl PRISM
Sampling: TRANSMISSION
Resolution: 2
Origin: SMITH KLINE & FRENCH LABS.
MICROMETERS	TRANSMITTANCE
2.014	0.28
2.04834	0.295
2.08268	0.319
2.11702	0.325
2.15136	0.343
2.1857	0.358
2.22005	0.369
2.25439	0.389
2.28873	0.403
2.32307	0.415
2.35741	0.427
2.39175	0.437
2.42609	0.459
2.46043	0.471
2.49477	0.492
2.52911	0.501
2.56346	0.518
2.5978	0.535
2.63214	0.549
2.66648	0.555
2.70082	0.57
2.73516	0.589
2.7695	0.604
2.80384	0.621
2.83818	0.628
2.87252	0.639
2.90687	0.657
2.94121	0.671
2.97555	0.677
3.00989	0.658
3.04423	0.556
3.07857	0.295
3.11291	0.364
3.14725	0.382
3.18159	0.405
3.21593	0.411
3.25028	0.412
3.28462	0.403
3.31896	0.422
3.3533	0.421
3.38764	0.39
3.42198	0.265
3.45632	0.058
3.49066	0.058
3.525	0.103
3.55934	0.087
3.59369	0.272
3.62803	0.499
3.66237	0.561
3.69671	0.596
3.73105	0.617
3.76539	0.632
3.79973	0.649
3.83407	0.686
3.86841	0.719
3.90275	0.734
3.9371	0.74
3.97144	0.752
4.00578	0.777
4.04012	0.785
4.07446	0.802
4.1088	0.812
4.14314	0.819
4.17748	0.839
4.21182	0.84
4.24616	0.846
4.28051	0.858
4.31485	0.852
4.34919	0.851
4.38353	0.856
4.41787	0.876
4.45221	0.881
4.48655	0.886
4.52089	0.892
4.55523	0.897
4.58957	0.895
4.62392	0.902
4.65826	0.907
4.6926	0.911
4.72694	0.913
4.76128	0.918
4.79562	0.918
4.82996	0.92
4.8643	0.924
4.89864	0.941
4.93298	0.936
4.96733	0.937
5.00167	0.937
5.03601	0.951
5.07035	0.947
5.10469	0.947
5.13903	0.957
5.17337	0.958
5.20771	0.953
5.24205	0.951
5.27639	0.948
5.31074	0.948
5.34508	0.947
5.37942	0.952
5.41376	0.952
5.4481	0.948
5.48244	0.951
5.51678	0.947
5.55112	0.943
5.58546	0.94
5.6198	0.959
5.65415	0.95
5.68849	0.934
5.72283	0.948
5.75717	0.945
5.79151	0.952
5.82585	0.952
5.86019	0.947
5.89453	0.922
5.92887	0.904
5.96321	0.868
5.99756	0.622
6.0319	0.166
6.06624	0.2
6.10058	0.322
6.13492	0.487
6.16926	0.228
6.2036	0.349
6.23794	0.667
6.27228	0.619
6.30662	0.287
6.34097	0.291
6.37531	0.171
6.40965	0.075
6.44399	0.075
6.47833	0.113
6.51267	0.292
6.54701	0.515
6.58135	0.57
6.61569	0.354
6.65003	0.194
6.68438	0.427
6.71872	0.572
6.75306	0.602
6.7874	0.466
6.82174	0.308
6.85608	0.08
6.89042	0.08
6.92476	0.095
6.9591	0.235
6.99344	0.291
7.02779	0.291
7.06213	0.343
7.09647	0.501
7.13081	0.584
7.16515	0.641
7.19949	0.657
7.23383	0.602
7.26817	0.44
7.30251	0.376
7.33685	0.445
7.3712	0.47
7.40554	0.488
7.43988	0.621
7.47422	0.689
7.50856	0.725
7.5429	0.729
7.57724	0.75
7.61158	0.761
7.64592	0.639
7.68026	0.308
7.71461	0.341
7.74895	0.28
7.78329	0.084
7.81763	0.113
7.85197	0.263
7.88631	0.252
7.92065	0.326
7.95499	0.65
7.98933	0.763
8.02367	0.78
8.05802	0.647
8.09236	0.518
8.1267	0.702
8.16104	0.66
8.19538	0.602
8.22972	0.746
8.26406	0.803
8.2984	0.812
8.33274	0.779
8.36708	0.718
8.40143	0.544
8.43577	0.378
8.47011	0.328
8.50445	0.445
8.53879	0.54
8.57313	0.442
8.60747	0.319
8.64181	0.488
8.67615	0.666
8.71049	0.762
8.74484	0.777
8.77918	0.784
8.81352	0.817
8.84786	0.839
8.8822	0.83
8.91654	0.746
8.95088	0.507
8.98522	0.421
9.01956	0.49
9.0539	0.352
9.08825	0.503
9.12259	0.717
9.15693	0.795
9.19127	0.84
9.22561	0.823
9.25995	0.635
9.29429	0.652
9.32863	0.802
9.36297	0.846
9.39731	0.867
9.43166	0.886
9.466	0.881
9.50034	0.89
9.53468	0.89
9.56902	0.89
9.60336	0.889
9.6377	0.866
9.67204	0.766
9.70638	0.584
9.74072	0.52
9.77507	0.588
9.80941	0.594
9.84375	0.499
9.87809	0.479
9.91243	0.647
9.94677	0.783
9.98111	0.767
10.0155	0.716
10.0498	0.756
10.0841	0.839
10.1185	0.868
10.1528	0.881
10.1872	0.883
10.2215	0.89
10.2558	0.879
10.2902	0.884
10.3245	0.878
10.3589	0.878
10.3932	0.878
10.4275	0.88
10.4619	0.88
10.4962	0.872
10.5306	0.859
10.5649	0.802
10.5992	0.676
10.6336	0.594
10.6679	0.626
10.7023	0.732
10.7366	0.786
10.771	0.812
10.8053	0.829
10.8396	0.844
10.874	0.853
10.9083	0.844
10.9427	0.841
10.977	0.851
11.0113	0.842
11.0457	0.802
11.08	0.646
11.1144	0.39
11.1487	0.596
11.183	0.741
11.2174	0.786
11.2517	0.797
11.2861	0.803
11.3204	0.756
11.3548	0.612
11.3891	0.728
11.4234	0.819
11.4578	0.861
11.4921	0.852
11.5265	0.842
11.5608	0.831
11.5951	0.795
11.6295	0.784
11.6638	0.775
11.6982	0.772
11.7325	0.757
11.7668	0.738
11.8012	0.706
11.8355	0.667
11.8699	0.595
11.9042	0.522
11.9385	0.518
11.9729	0.593
12.0072	0.699
12.0416	0.773
12.0759	0.796
12.1103	0.834
12.1446	0.852
12.1789	0.859
12.2133	0.869
12.2476	0.872
12.282	0.866
12.3163	0.864
12.3506	0.861
12.385	0.864
12.4193	0.858
12.4537	0.856
12.488	0.863
12.5223	0.853
12.5567	0.859
12.591	0.859
12.6254	0.859
12.6597	0.862
12.694	0.861
12.7284	0.861
12.7627	0.855
12.7971	0.859
12.8314	0.855
12.8658	0.851
12.9001	0.836
12.9344	0.814
12.9688	0.78
13.0031	0.717
13.0375	0.656
13.0718	0.613
13.1061	0.578
13.1405	0.557
13.1748	0.563
13.2092	0.565
13.2435	0.563
13.2778	0.509
13.3122	0.434
13.3465	0.388
13.3809	0.371
13.4152	0.342
13.4496	0.317
13.4839	0.3
13.5182	0.287
13.5526	0.28
13.5869	0.274
13.6213	0.269
13.6556	0.267
13.6899	0.266
13.7243	0.266
13.7586	0.265
13.793	0.291
13.8273	0.336
13.8616	0.409
13.896	0.5
13.9303	0.572
13.9647	0.633
13.999	0.68
14.0333	0.705
14.0677	0.721
14.102	0.73
14.1364	0.732
14.1707	0.732
14.2051	0.716
14.2394	0.704
14.2737	0.702
14.3081	0.702
14.3424	0.699
14.3768	0.689
14.4111	0.669
14.4454	0.649
14.4798	0.621
14.5141	0.607
14.5485	0.578
14.5828	0.56
14.6171	0.545
14.6515	0.539
14.6858	0.52
14.7202	0.511
14.7545	0.5
14.7889	0.498
14.8232	0.496
14.8575	0.503
14.8919	0.507
14.9262	0.514
14.9606	0.527
14.9949	0.532
15.0292	0.54
15.0636	0.529
15.0979	0.549
15.1323	0.57
15.1666	0.579
15.2009	0.58
15.2353	0.598
15.2696	0.599
15.304	0.599
15.3383	0.604
15.3726	0.607
15.407	0.606
15.4413	0.605
15.4757	0.598
