Infrared Spectrum: Triphenylene
Formula: C 18 H 12
CAS: 217-59-4
State: gas
Instrument: HP-GC/MS/IRD
Origin: NIST Mass Spectrometry Data Center
1/CM	ABSORBANCE
550	0.0002324
562	7.56e-05
574	0.0002436
586	0.0002716
598	0.00021
610	0.00042
622	0.0018228
634	0.000238
646	0.0001904
658	0.0001708
670	0.0002016
682	0.0002828
694	0.0003752
706	0.000686
718	0.0014784
730	0.0135912
742	0.020244
754	0.002128
766	0.000476
778	0.0002576
790	0.0001708
802	0.0001512
814	0.0001932
826	0.000462
838	0.0006496
850	0.0003108
862	5.6e-05
874	5.32e-05
886	0.0001764
898	5.88e-05
910	4.48e-05
922	2.8e-05
934	0.0001204
946	0.0002184
958	0.000154
970	0.0001708
982	0.0004592
994	0.0006356
1006	0.0007756
1018	0.0002352
1030	0.0001848
1042	0.0004928
1054	0.0011368
1066	0.0002016
1078	5.88e-05
1090	7e-05
1102	8.68e-05
1114	7.56e-05
1126	5.6e-05
1138	7.84e-05
1150	6.72e-05
1162	0.000196
1174	0.0001316
1186	9.8e-05
1198	0.0001288
1210	0.0001176
1222	0.0001512
1234	0.0007196
1246	0.0006076
1258	0.0001316
1270	8.68e-05
1282	9.52e-05
1294	0.0001596
1306	9.52e-05
1318	6.72e-05
1330	3.64e-05
1342	1.68e-05
1354	5.32e-05
1366	6.44e-05
1378	0.0001176
1390	0.0003612
1402	0.0003752
1414	0.0007812
1426	0.0025564
1438	0.0047768
1450	0.0007812
1462	0.0002604
1474	0.0003668
1486	0.0012404
1498	0.0022848
1510	0.000896
1522	0.0002436
1534	0.0001652
1546	0.0001736
1558	0.0001568
1570	0.0001652
1582	0.0003136
1594	0.0001652
1606	0.0001232
1618	0.0002856
1630	0.0001708
1642	0.0001596
1654	0.0002296
1666	0.0001792
1678	0.000378
1690	0.0001904
1702	0.0003836
1714	0.0004816
1726	0.0001568
1738	0.0002212
1750	0.0002352
1762	0.0001092
1774	0.0001064
1786	0.0003976
1798	0.000252
1810	0.0003668
1822	0.0003864
1834	0.0001652
1846	0.000112
1858	9.8e-05
1870	0.000238
1882	0.0003948
1894	0.0002856
1906	0.0006608
1918	0.0003864
1930	0.0004844
1942	0.0008484
1954	0.0001988
1966	6.72e-05
1978	5.88e-05
1990	5.04e-05
2002	3.36e-05
2014	2.8e-05
2026	3.36e-05
2038	3.92e-05
2050	3.08e-05
2062	1.12e-05
2074	2.24e-05
2086	1.12e-05
2098	5.04e-05
2110	5.04e-05
2122	3.36e-05
2134	3.36e-05
2146	1.12e-05
2158	1.4e-05
2170	1.4e-05
2182	1.4e-05
2194	3.36e-05
2206	3.92e-05
2218	3.36e-05
2230	4.76e-05
2242	3.36e-05
2254	3.36e-05
2266	2.52e-05
2278	5.04e-05
2290	4.2e-05
2302	4.76e-05
2314	6.16e-05
2326	4.76e-05
2338	0.0001344
2350	8.96e-05
2362	6.16e-05
2374	3.92e-05
2386	6.16e-05
2398	6.72e-05
2410	3.08e-05
2422	5.6e-05
2434	3.92e-05
2446	1.96e-05
2458	4.76e-05
2470	4.48e-05
2482	4.76e-05
2494	8.12e-05
2506	4.48e-05
2518	3.92e-05
2530	4.48e-05
2542	3.36e-05
2554	2.24e-05
2566	2.8e-05
2578	3.92e-05
2590	5.6e-05
2602	7.84e-05
2614	0.0001204
2626	7.84e-05
2638	3.08e-05
2650	1.96e-05
2662	4.76e-05
2674	1.68e-05
2686	2.52e-05
2698	1.12e-05
2710	1.4e-05
2722	3.08e-05
2734	0
2746	5.6e-06
2758	1.68e-05
2770	2.8e-05
2782	1.96e-05
2794	3.64e-05
2806	4.2e-05
2818	1.4e-05
2830	1.4e-05
2842	4.48e-05
2854	5.32e-05
2866	6.44e-05
2878	7.84e-05
2890	0.0001008
2902	9.24e-05
2914	0.0001008
2926	0.0001988
2938	0.0002016
2950	0.000112
2962	0.0001064
2974	0.0001484
2986	0.0001456
2998	0.0002296
3010	0.0005404
3022	0.0016268
3034	0.0023996
3046	0.0023436
3058	0.0029176
3070	0.0052388
3082	0.007336
3094	0.0047488
3106	0.0022176
3118	0.0014924
3130	0.0007952
3142	0.0003332
3154	0.00021
3166	0.0001624
3178	0.0001008
3190	0.0001204
3202	9.8e-05
3214	8.68e-05
3226	4.48e-05
3238	8.4e-06
3250	3.64e-05
3262	2.8e-05
3274	3.08e-05
3286	3.08e-05
3298	2.8e-05
3310	1.68e-05
3322	4.76e-05
3334	1.96e-05
3346	2.52e-05
3358	3.08e-05
3370	1.96e-05
3382	2.24e-05
3394	3.36e-05
3406	1.12e-05
3418	3.92e-05
3430	2.24e-05
3442	5.32e-05
3454	4.2e-05
3466	3.92e-05
3478	5.6e-05
3490	5.6e-05
3502	5.04e-05
3514	5.88e-05
3526	1.12e-05
3538	2.52e-05
3550	1.12e-05
3562	5.6e-05
3574	5.6e-05
3586	5.04e-05
3598	5.88e-05
3610	4.2e-05
3622	4.76e-05
3634	7e-05
3646	9.24e-05
3658	8.96e-05
3670	0.0001092
3682	6.16e-05
3694	8.96e-05
3706	7.56e-05
3718	8.68e-05
3730	7e-05
3742	8.96e-05
3754	5.32e-05
3766	8.96e-05
3778	7e-05
3790	0.0001148
3802	0.0001288
3814	0.0001176
3826	0.0001428
3838	0.0001484
