Infrared Spectrum: DIBENZO(b,k)CHRYSENE
Formula: C26 H16
CAS: 217-54-9
State: SOLID (KBr PELLET)
Melting point: 308 C
Class: COBLENTZ
Instrument: Not specified, most likely a prism, grating, or hybrid spectrometer.
Sampling: TRANSMISSION
Resolution: 4
Origin: UNION CARBIDE CORPORATION (CARBON PRODUCTS DIVISION)
MICROMETERS	TRANSMITTANCE
2.027	0.164
2.0602	0.168
2.09339	0.172
2.12659	0.172
2.15979	0.176
2.19298	0.183
2.22618	0.188
2.25938	0.201
2.29257	0.203
2.32577	0.205
2.35896	0.209
2.39216	0.216
2.42536	0.221
2.45855	0.225
2.49175	0.228
2.52495	0.229
2.55814	0.231
2.59134	0.232
2.62454	0.236
2.65773	0.239
2.69093	0.239
2.72413	0.243
2.75732	0.247
2.79052	0.25
2.82371	0.257
2.85691	0.26
2.89011	0.261
2.9233	0.261
2.9565	0.266
2.9897	0.27
3.02289	0.278
3.05609	0.288
3.08929	0.29
3.12248	0.294
3.15568	0.301
3.18888	0.308
3.22207	0.314
3.25527	0.321
3.28846	0.318
3.32166	0.314
3.35486	0.318
3.38805	0.32
3.42125	0.321
3.45445	0.324
3.48764	0.329
3.52084	0.332
3.55404	0.341
3.58723	0.349
3.62043	0.35
3.65363	0.354
3.68682	0.354
3.72002	0.361
3.75321	0.363
3.78641	0.367
3.81961	0.37
3.8528	0.374
3.886	0.378
3.9192	0.389
3.95239	0.391
3.98559	0.394
4.01879	0.399
4.05198	0.403
4.08518	0.407
4.11838	0.41
4.15157	0.414
4.18477	0.418
4.21796	0.419
4.25116	0.419
4.28436	0.418
4.31755	0.418
4.35075	0.426
4.38395	0.436
4.41714	0.442
4.45034	0.446
4.48354	0.448
4.51673	0.452
4.54993	0.456
4.58313	0.458
4.61632	0.464
4.64952	0.468
4.68272	0.47
4.71591	0.471
4.74911	0.475
4.7823	0.48
4.8155	0.486
4.8487	0.487
4.88189	0.488
4.91509	0.49
4.94829	0.496
4.98148	0.5
5.01468	0.504
5.04788	0.505
5.08107	0.511
5.11427	0.513
5.14747	0.517
5.18066	0.515
5.21386	0.515
5.24705	0.516
5.28025	0.519
5.31345	0.528
5.34664	0.532
5.37984	0.536
5.41304	0.536
5.44623	0.536
5.47943	0.541
5.51263	0.541
5.54582	0.54
5.57902	0.541
5.61222	0.54
5.64541	0.548
5.67861	0.548
5.7118	0.555
5.745	0.556
5.7782	0.56
5.81139	0.563
5.84459	0.568
5.87779	0.569
5.91098	0.565
5.94418	0.572
5.97738	0.576
6.01057	0.579
6.04377	0.581
6.07697	0.583
6.11016	0.581
6.14336	0.579
6.17655	0.58
6.20975	0.568
6.24295	0.569
6.27614	0.579
6.30934	0.583
6.34254	0.588
6.37573	0.598
6.40893	0.598
6.44213	0.594
6.47532	0.589
6.50852	0.605
6.54172	0.606
6.57491	0.608
6.60811	0.618
6.6413	0.625
6.6745	0.629
6.7077	0.629
6.74089	0.614
6.77409	0.598
6.80729	0.59
6.84048	0.614
6.87368	0.629
6.90688	0.633
6.94007	0.634
6.97327	0.64
7.00647	0.642
7.03966	0.638
7.07286	0.649
7.10605	0.67
7.13925	0.674
7.17245	0.679
7.20564	0.721
7.23884	0.71
7.27204	0.705
7.30523	0.689
7.33843	0.67
7.37163	0.637
7.40482	0.653
7.43802	0.664
7.47122	0.646
7.50441	0.665
7.53761	0.671
7.57081	0.679
7.604	0.679
7.6372	0.689
7.67039	0.695
7.70359	0.698
7.73679	0.701
7.76998	0.653
7.80318	0.653
7.83638	0.609
7.86957	0.617
7.90277	0.653
7.93597	0.657
7.96916	0.671
8.00236	0.685
8.03556	0.691
8.06875	0.697
8.10195	0.701
8.13514	0.701
8.16834	0.709
8.20154	0.71
8.23473	0.697
8.26793	0.665
8.30113	0.658
8.33432	0.69
8.36752	0.699
8.40072	0.699
8.43391	0.71
8.46711	0.721
8.50031	0.729
8.5335	0.723
8.5667	0.699
8.59989	0.702
8.63309	0.719
8.66629	0.727
8.69948	0.735
8.73268	0.742
8.76588	0.709
8.79907	0.73
8.83227	0.689
8.86547	0.697
8.89866	0.721
8.93186	0.734
8.96506	0.742
8.99825	0.747
9.03145	0.751
9.06464	0.75
9.09784	0.755
9.13104	0.758
9.16423	0.762
9.19743	0.762
9.23063	0.762
9.26382	0.762
9.29702	0.76
9.33022	0.76
9.36341	0.763
9.39661	0.767
9.42981	0.772
9.463	0.779
9.4962	0.784
9.52939	0.786
9.56259	0.786
9.59579	0.788
9.62898	0.79
9.66218	0.795
9.69538	0.799
9.72857	0.8
9.76177	0.807
9.79497	0.808
9.82816	0.811
9.86136	0.816
9.89456	0.814
9.92775	0.73
9.96095	0.734
9.99415	0.775
10.0273	0.786
10.0605	0.795
10.0937	0.804
10.1269	0.81
10.1601	0.811
10.1933	0.812
10.2265	0.815
10.2597	0.812
10.2929	0.81
10.3261	0.808
10.3593	0.808
10.3925	0.802
10.4257	0.667
10.4589	0.675
10.4921	0.706
10.5253	0.75
10.5585	0.784
10.5917	0.803
10.6249	0.811
10.6581	0.822
10.6913	0.822
10.7245	0.82
10.7577	0.831
10.7909	0.835
10.8241	0.843
10.8573	0.849
10.8904	0.852
10.9236	0.856
10.9568	0.86
10.99	0.867
11.0232	0.872
11.0564	0.872
11.0896	0.86
11.1228	0.617
11.156	0.414
11.1892	0.416
11.2224	0.539
11.2556	0.646
11.2888	0.669
11.322	0.332
11.3552	0.215
11.3884	0.22
11.4216	0.332
11.4548	0.509
11.488	0.596
11.5212	0.642
11.5544	0.686
11.5876	0.709
11.6208	0.729
11.654	0.739
11.6872	0.749
11.7204	0.762
11.7536	0.772
11.7868	0.78
11.8199	0.78
11.8531	0.749
11.8863	0.718
11.9195	0.73
11.9527	0.774
11.9859	0.783
12.0191	0.799
12.0523	0.802
12.0855	0.807
12.1187	0.814
12.1519	0.816
12.1851	0.822
12.2183	0.82
12.2515	0.768
12.2847	0.559
12.3179	0.367
12.3511	0.475
12.3843	0.6
12.4175	0.699
12.4507	0.73
12.4839	0.751
12.5171	0.771
12.5503	0.772
12.5835	0.783
12.6167	0.794
12.6499	0.791
12.6831	0.791
12.7163	0.8
12.7494	0.808
12.7826	0.811
12.8158	0.818
12.849	0.819
12.8822	0.826
12.9154	0.83
12.9486	0.83
12.9818	0.832
13.015	0.84
13.0482	0.841
13.0814	0.841
13.1146	0.833
13.1478	0.82
13.181	0.826
13.2142	0.839
13.2474	0.84
13.2806	0.839
13.3138	0.812
13.347	0.689
13.3802	0.519
13.4134	0.488
13.4466	0.589
13.4798	0.594
13.513	0.463
13.5462	0.309
13.5794	0.204
13.6126	0.204
13.6458	0.389
13.6789	0.509
13.7121	0.58
13.7453	0.628
13.7785	0.677
13.8117	0.691
13.8449	0.71
13.8781	0.73
13.9113	0.719
13.9445	0.501
13.9777	0.427
14.0109	0.479
14.0441	0.547
14.0773	0.602
14.1105	0.646
14.1437	0.646
14.1769	0.665
14.2101	0.691
14.2433	0.703
14.2765	0.71
14.3097	0.718
14.3429	0.719
14.3761	0.722
14.4093	0.725
14.4425	0.727
14.4757	0.727
14.5089	0.727
14.5421	0.727
14.5753	0.727
14.6084	0.723
14.6416	0.714
14.6748	0.693
14.708	0.686
14.7412	0.689
14.7744	0.698
14.8076	0.706
14.8408	0.707
14.874	0.707
14.9072	0.707
14.9404	0.698
14.9736	0.662
15.0068	0.634
15.04	0.69
15.0732	0.695
