Infrared Spectrum: METHYLPHOSPHONOSELENOIC DICHLORIDE
Formula: C H3 Cl2 P Se
CAS: 2171-82-6
State: LIQUID
Class: COBLENTZ
Instrument: Not specified, most likely a prism, grating, or hybrid spectrometer.
Sampling: TRANSMISSION
Path length: LIQUID FILM BETWEEN KBr PLATES
Resolution: 4
Origin: G. A. M. S.
1/CM	TRANSMITTANCE
611.294	0.873
620.47	0.874
629.647	0.868
638.823	0.856
648	0.846
657.176	0.837
666.353	0.836
675.529	0.834
684.706	0.829
693.882	0.825
703.059	0.819
712.235	0.806
721.412	0.791
730.588	0.766
739.765	0.71
748.941	0.593
758.118	0.349
767.294	0.5189
776.471	0.714
785.647	0.769
794.824	0.783
804	0.786
813.177	0.788
822.353	0.785
831.53	0.777
840.706	0.766
849.883	0.749
859.059	0.724
868.236	0.687
877.412	0.629
886.589	0.451
895.765	0.131
904.942	0.108
914.118	0.3189
923.295	0.642
932.471	0.686
941.648	0.703
950.824	0.71
960.001	0.712
969.177	0.723
978.354	0.738
987.53	0.746
996.707	0.749
1005.88	0.749
1015.06	0.748
1024.24	0.751
1033.41	0.754
1042.59	0.758
1051.77	0.761
1060.94	0.761
1070.12	0.761
1079.3	0.761
1088.47	0.758
1097.65	0.755
1106.82	0.749
1116	0.748
1125.18	0.755
1134.35	0.765
1143.53	0.768
1152.71	0.768
1161.88	0.768
1171.06	0.771
1180.24	0.777
1189.41	0.778
1198.59	0.777
1207.77	0.775
1216.94	0.775
1226.12	0.775
1235.3	0.775
1244.47	0.777
1253.65	0.774
1262.83	0.769
1272	0.761
1281.18	0.744
1290.35	0.5821
1299.53	0.6691
1308.71	0.761
1317.88	0.763
1327.06	0.78
1336.24	0.785
1345.41	0.783
1354.59	0.777
1363.77	0.763
1372.94	0.744
1382.12	0.712
1391.3	0.588
1400.47	0.452
1409.65	0.605
1418.83	0.686
1428	0.727
1437.18	0.758
1446.35	0.772
1455.53	0.78
1464.71	0.786
1473.88	0.789
1483.06	0.791
1492.24	0.791
1501.41	0.792
1510.59	0.791
1519.77	0.791
1528.94	0.791
1538.12	0.789
1547.3	0.789
1556.47	0.788
1565.65	0.786
1574.83	0.785
1584	0.783
1593.18	0.778
1602.36	0.769
1611.53	0.763
1620.71	0.755
1629.88	0.752
1639.06	0.754
1648.24	0.758
1657.41	0.763
1666.59	0.768
1675.77	0.769
1684.94	0.772
1694.12	0.774
1703.3	0.777
1712.47	0.78
1721.65	0.785
1730.83	0.789
1740	0.791
1749.18	0.794
1758.36	0.795
1767.53	0.797
1776.71	0.797
1785.89	0.797
1795.06	0.797
1804.24	0.799
1813.41	0.8
1822.59	0.802
1831.77	0.803
1840.94	0.805
1850.12	0.805
1859.3	0.806
1868.47	0.809
1877.65	0.809
1886.83	0.811
1896	0.809
1905.18	0.808
1914.36	0.809
1923.53	0.809
1932.71	0.809
1941.89	0.806
1951.06	0.802
1960.24	0.786
1969.42	0.803
1978.59	0.811
1987.77	0.809
1996.94	0.806
2006.12	0.803
2015.3	0.8
2024.47	0.795
2033.65	0.7889
2042.83	0.785
2052	0.785
2061.18	0.7891
2070.36	0.7951
2079.53	0.7971
2088.71	0.799
2097.89	0.799
2107.06	0.8
2116.24	0.8
2125.42	0.8
2134.59	0.799
2143.77	0.7989
2152.94	0.7949
2162.12	0.7938
2171.3	0.7908
2180.47	0.786
2189.65	0.785
2198.83	0.786
2208	0.789
2217.18	0.791
2226.36	0.792
2235.53	0.792
2244.71	0.7923
2253.89	0.794
2263.06	0.792
2272.24	0.7919
2281.42	0.791
2290.59	0.791
2299.77	0.791
2308.95	0.7918
2318.12	0.791
2327.3	0.791
2336.47	0.791
2345.65	0.792
2354.83	0.791
2364	0.791
2373.18	0.791
2382.36	0.791
2391.53	0.791
2400.71	0.7905
2409.89	0.789
2419.06	0.788
2428.24	0.788
2437.42	0.786
2446.59	0.786
2455.77	0.785
2464.95	0.783
2474.12	0.782
2483.3	0.78
2492.48	0.78
2501.65	0.778
2510.83	0.775
2520	0.7747
2529.18	0.772
2538.36	0.771
2547.53	0.771
2556.71	0.769
2565.89	0.769
2575.06	0.768
2584.24	0.768
2593.42	0.768
2602.59	0.766
2611.77	0.766
2620.95	0.766
2630.12	0.766
2639.3	0.768
2648.48	0.768
2657.65	0.768
2666.83	0.769
2676	0.769
2685.18	0.769
2694.36	0.771
2703.53	0.771
2712.71	0.772
2721.89	0.772
2731.06	0.772
2740.24	0.774
2749.42	0.774
2758.59	0.7744
2767.77	0.775
2776.95	0.775
2786.12	0.775
2795.3	0.775
2804.48	0.775
2813.65	0.775
2822.83	0.774
2832.01	0.7696
2841.18	0.765
2850.36	0.761
2859.53	0.76
2868.71	0.758
2877.89	0.756
2887.06	0.753
2896.24	0.7256
2905.42	0.6783
2914.59	0.6467
2923.77	0.6401
2932.95	0.6597
2942.12	0.6924
2951.3	0.7207
2960.48	0.726
2969.65	0.7249
2978.83	0.7135
2988.01	0.6918
2997.18	0.6581
3006.36	0.6248
3015.54	0.6233
3024.71	0.6488
3033.89	0.6713
3043.06	0.6986
3052.24	0.7218
3061.42	0.7266
3070.59	0.727
3079.77	0.726
3088.95	0.7204
3098.12	0.7157
3107.3	0.71
3116.48	0.707
3125.65	0.7034
3134.83	0.7003
3144.01	0.698
3153.18	0.698
3162.36	0.697
3171.54	0.697
3180.71	0.698
3189.89	0.7007
3199.07	0.701
3208.24	0.703
3217.42	0.704
3226.59	0.7067
3235.77	0.709
3244.95	0.712
3254.12	0.7147
3263.3	0.717
3272.48	0.718
3281.65	0.7225
3290.83	0.724
3300.01	0.7267
3309.18	0.7285
3318.36	0.729
3327.54	0.731
3336.71	0.731
3345.89	0.732
3355.07	0.734
3364.24	0.734
3373.42	0.734
3382.59	0.734
3391.77	0.7348
3400.95	0.735
3410.12	0.735
3419.3	0.735
3428.48	0.737
3437.65	0.737
3446.83	0.737
3456.01	0.737
3465.18	0.737
3474.36	0.737
3483.54	0.7378
3492.71	0.738
3501.89	0.738
3511.07	0.738
3520.24	0.7397
3529.42	0.74
3538.6	0.74
3547.77	0.741
3556.95	0.741
3566.12	0.741
3575.3	0.743
3584.48	0.743
3593.65	0.743
3602.83	0.743
3612.01	0.744
3621.18	0.744
3630.36	0.746
3639.54	0.746
3648.71	0.748
3657.89	0.749
3667.07	0.751
3676.24	0.752
3685.42	0.754
3694.6	0.755
3703.77	0.7569
3712.95	0.758
3722.13	0.76
3731.3	0.758
3740.48	0.758
3749.65	0.758
3758.83	0.758
3768.01	0.758
3777.18	0.758
3786.36	0.758
3795.54	0.757
3804.71	0.757
3813.89	0.757
3823.07	0.757
3832.24	0.757
3841.42	0.757
3850.6	0.757
3859.77	0.758
3868.95	0.758
3878.13	0.758
3887.3	0.758
3896.48	0.758
3905.66	0.757
3914.83	0.757
3924.01	0.757
3933.18	0.757
3942.36	0.7579
3951.54	0.757
3960.71	0.7571
3969.89	0.758
3979.07	0.7583
