Infrared Spectrum: 3,4-Dimethoxyphenethyl isothiocyanate
Formula: C 11 H 13 N O 2 S
CAS: 21714-25-0
State: gas
Origin: EPA-IR VAPOR PHASE LIBRARY
1/CM	ABSORBANCE
549.8	0.004136
559.445	0.003266
569.09	0.002286
578.734	0.003116
588.379	0.003306
598.024	0.002506
607.669	0.002176
617.313	0.002006
626.958	0.003036
636.603	0.002966
646.248	0.002766
655.893	0.002506
665.537	0.002106
675.182	0.001726
684.827	0.002106
694.472	0.002376
704.116	0.002346
713.761	0.001976
723.406	0.0012814
733.051	0.0013188
742.695	0.001916
752.34	0.002886
761.985	0.003746
771.63	0.003156
781.275	0.002546
790.919	0.003196
800.564	0.004006
810.209	0.004556
819.854	0.003956
829.498	0.002706
839.143	0.001736
848.788	0.002026
858.433	0.002296
868.078	0.002886
877.722	0.001876
887.367	0.002566
897.012	0.002816
906.657	0.003136
916.301	0.003026
925.946	0.003326
935.591	0.002616
945.236	0.002546
954.88	0.002176
964.525	0.003206
974.17	0.003426
983.815	0.003056
993.46	0.005246
1003.1	0.006956
1012.75	0.013426
1022.39	0.018526
1032.04	0.020946
1041.68	0.017446
1051.33	0.008956
1060.97	0.004746
1070.62	0.003976
1080.26	0.003366
1089.91	0.003536
1099.55	0.003576
1109.2	0.006166
1118.84	0.011276
1128.49	0.014686
1138.13	0.014766
1147.78	0.013816
1157.42	0.013026
1167.07	0.009686
1176.71	0.006836
1186.36	0.005266
1196	0.006396
1205.64	0.007056
1215.29	0.009286
1224.93	0.016386
1234.58	0.021646
1244.22	0.022896
1253.87	0.024456
1263.51	0.034266
1273.16	0.042806
1282.8	0.035736
1292.45	0.024796
1302.09	0.015996
1311.74	0.010916
1321.38	0.009386
1331.03	0.010726
1340.67	0.015146
1350.32	0.017306
1359.96	0.009786
1369.61	0.004966
1379.25	0.003616
1388.9	0.003396
1398.54	0.004426
1408.18	0.007746
1417.83	0.009926
1427.47	0.007576
1437.12	0.009286
1446.76	0.012586
1456.41	0.015036
1466.05	0.015816
1475.7	0.011006
1485.34	0.009936
1494.99	0.016796
1504.63	0.036556
1514.28	0.042986
1523.92	0.018346
1533.57	0.007546
1543.21	0.004476
1552.86	0.003616
1562.5	0.003846
1572.15	0.004886
1581.79	0.006336
1591.44	0.006026
1601.08	0.005226
1610.73	0.004776
1620.37	0.002976
1630.01	0.001646
1639.66	0.0013305
1649.3	0.0010219
1658.95	0.0012071
1668.59	0.0010147
1678.24	0.0010919
1687.88	0.0010308
1697.53	0.0008974
1707.17	0.0007803
1716.82	0.0008354
1726.46	0.0009943
1736.11	0.0007695
1745.75	0.0007603
1755.4	0.0007901
1765.04	0.0010068
1774.69	0.0009874
1784.33	0.0006696
1793.98	0.0008081
1803.62	0.0010683
1813.27	0.0008
1822.91	0.0009135
1832.55	0.0009802
1842.2	0.0010597
1851.84	0.0012539
1861.49	0.001506
1871.13	0.001366
1880.78	0.001626
1890.42	0.001786
1900.07	0.002066
1909.71	0.002356
1919.36	0.002886
1929	0.003706
1938.65	0.004286
1948.29	0.005346
1957.94	0.006916
1967.58	0.008476
1977.23	0.011386
1986.87	0.014946
1996.52	0.019996
2006.16	0.026396
2015.81	0.035606
2025.45	0.047866
2035.1	0.063026
2044.74	0.076716
2054.38	0.084176
2064.03	0.083796
2073.67	0.074006
2083.32	0.059906
2092.96	0.045586
2102.61	0.033966
2112.25	0.025416
2121.9	0.019956
2131.54	0.017326
2141.19	0.015996
2150.83	0.013986
2160.48	0.012556
2170.12	0.011816
2179.77	0.012366
2189.41	0.013266
2199.06	0.012836
2208.7	0.010446
2218.35	0.007826
2227.99	0.005626
2237.64	0.004106
2247.28	0.003536
2256.92	0.002796
2266.57	0.002546
2276.21	0.002106
2285.86	0.001786
2295.5	0.001726
2305.15	0.0012789
2314.79	0.0009625
2324.44	0.000795
2334.08	0.0008422
2343.73	0.0006908
2353.37	0.000737
2363.02	0.0007302
2372.66	0.0005752
2382.31	0.0005409
2391.95	0.0004578
2401.6	0.0005542
2411.24	0.0004736
2420.89	0.0006967
2430.53	0.0005789
2440.18	0.0005281
2449.82	0.0004629
2459.47	0.000513
2469.11	0.0004855
2478.75	0.000827
2488.4	0.0006148
2498.04	0.000626
2507.69	0.0007021
2517.33	0.0006169
2526.98	0.0008047
2536.62	0.0007711
2546.27	0.0008404
2555.91	0.001045
2565.56	0.001131
2575.2	0.0007561
2584.85	0.0008768
2594.49	0.0008482
2604.14	0.0006635
2613.78	0.000554
2623.43	0.0007046
2633.07	0.0005312
2642.72	0.0006386
2652.36	0.0008756
2662.01	0.0007632
2671.65	0.0007218
2681.29	0.0010286
2690.94	0.0008744
2700.58	0.0012098
2710.23	0.001406
2719.87	0.001556
2729.52	0.001696
2739.16	0.001936
2748.81	0.001866
2758.45	0.0013292
2768.1	0.001656
2777.74	0.001366
2787.39	0.001456
2797.03	0.001546
2806.68	0.002036
2816.32	0.002506
2825.97	0.003986
2835.61	0.007436
2845.26	0.008646
2854.9	0.006726
2864.55	0.005636
2874.19	0.005366
2883.84	0.007476
2893.48	0.007576
2903.12	0.007316
2912.77	0.009366
2922.41	0.012216
2932.06	0.014526
2941.7	0.020186
2951.35	0.022036
2960.99	0.019256
2970.64	0.012126
2980.28	0.008496
2989.93	0.007646
2999.57	0.009896
3009.22	0.010826
3018.86	0.006426
3028.51	0.005436
3038.15	0.004826
3047.8	0.004286
3057.44	0.003936
3067.09	0.003036
3076.73	0.002306
3086.38	0.001976
3096.02	0.002346
3105.67	0.001506
3115.31	0.001366
3124.95	0.0011585
3134.6	0.001036
3144.24	0.0006863
3153.89	0.0010691
3163.53	0.0007391
3173.18	0.0006368
3182.82	0.0008541
3192.47	0.0006998
3202.11	0.000796
3211.76	0.0002437
3221.4	0.0004316
3231.05	0.0006504
3240.69	0.000721
3250.34	0.0006581
3259.98	0.0004522
3269.63	4.4e-05
3279.27	0.0005704
3288.92	9.6e-05
3298.56	0.0006391
3308.21	0.00034985
3317.85	0.0002953
3327.49	0.0004439
3337.14	0.0007872
3346.78	0.0002809
3356.43	0.0006386
3366.07	0.0008657
3375.72	0.0006663
3385.36	0.0008488
3395.01	0.0008576
3404.65	0.0005674
3414.3	0.0006308
3423.94	0.0009725
3433.59	0.000825
3443.23	0.000689
3452.88	0.0011027
3462.52	0.0009342
3472.17	0.0007653
3481.81	0.0006551
3491.46	0.0005343
3501.1	0.0011966
3510.75	0.00042159
3520.39	0.000221
3530.04	0.0007525
3539.68	0.0006263
3549.32	0.000582
3558.97	0.000231
3568.61	0.0006787
3578.26	0.0007518
3587.9	0.0004721
3597.55	0.0004974
3607.19	0.001486
3616.84	0.0011901
3626.48	0.001024
3636.13	0.0009894
3645.77	0.0009966
3655.42	0.00016
3665.06	0.0007271
3674.71	0.00041796
3684.35	0.0004599
3694	0.00043196
3703.64	0.0009483
3713.29	0.0002834
3722.93	0.0007164
3732.58	0.0009322
3742.22	0.0005842
3751.86	0.0006534
3761.51	0.0005389
3771.15	0.0008294
3780.8	0.000827
3790.44	0.0008666
3800.09	0.0006209
3809.73	0.0010551
3819.38	0.0004943
3829.02	0.000962
3838.67	0.0010711
3848.31	0.0008314
3857.96	0.00039448
3867.6	0.001386
3877.25	0.0005423
3886.89	0.0008356
3896.54	0.0011015
3906.18	0.0009236
3915.83	0.0005602
3925.47	0.001406
3935.12	0.000938
3944.76	0.001081
3954.41	0.0012754
3964.05	0.0009005
3973.69	0.0011161
3983.34	0.0008447
3992.98	0.0010302
