Infrared Spectrum: Cyanazine
Formula: C 9 H 13 Cl N 6
CAS: 21725-46-2
State: gas
Instrument: HP-GC/MS/IRD
Origin: NIST Mass Spectrometry Data Center
1/CM	ABSORBANCE
550	0.0006384
562	0.0003472
574	0.0004312
586	0.0004312
598	0.0005376
610	0.000336
622	0.0002352
634	0.0001624
646	0.0001064
658	6.16e-05
670	0.0001344
682	0.0001792
694	0.0002688
706	0.0005768
718	0.0006552
730	0.000504
742	0.0004032
754	0.0002352
766	0.0003136
778	0.0003528
790	0.0004536
802	0.0011368
814	0.0025872
826	0.0008904
838	0.0006888
850	0.001008
862	0.0014504
874	0.0015232
886	0.0013944
898	0.0013832
910	0.0011424
922	0.0013216
934	0.0018312
946	0.0013552
958	0.0011648
970	0.0017136
982	0.002492
994	0.0028168
1006	0.0015736
1018	0.001036
1030	0.00112
1042	0.00168
1054	0.0020888
1066	0.0011984
1078	0.0008344
1090	0.0006832
1102	0.0006832
1114	0.0008848
1126	0.0017024
1138	0.0031136
1150	0.0029792
1162	0.002212
1174	0.002632
1186	0.004004
1198	0.0057568
1210	0.0063224
1222	0.0079408
1234	0.005012
1246	0.0028336
1258	0.002492
1270	0.004004
1282	0.004256
1294	0.0033712
1306	0.0044072
1318	0.0043288
1330	0.0051856
1342	0.0078064
1354	0.0063952
1366	0.0077224
1378	0.0082432
1390	0.0078568
1402	0.008428
1414	0.0079296
1426	0.0050904
1438	0.0045808
1450	0.0063
1462	0.0076328
1474	0.0108416
1486	0.0174496
1498	0.0222712
1510	0.0171472
1522	0.0116256
1534	0.015596
1546	0.0277088
1558	0.0320824
1570	0.0479584
1582	0.0526848
1594	0.0257992
1606	0.0090496
1618	0.004508
1630	0.0027664
1642	0.001848
1654	0.0013216
1666	0.0010528
1678	0.0008232
1690	0.0006272
1702	0.0004816
1714	0.0003752
1726	0.0003248
1738	0.000224
1750	0.0002184
1762	0.000168
1774	0.0001288
1786	0.0001512
1798	0.0001568
1810	0.0001568
1822	0.0001344
1834	0.0001512
1846	0.0001232
1858	0.0001176
1870	0.0001232
1882	0.0001288
1894	0.0001064
1906	9.52e-05
1918	7.84e-05
1930	8.96e-05
1942	7.28e-05
1954	2.24e-05
1966	5.04e-05
1978	1.68e-05
1990	3.92e-05
2002	3.36e-05
2014	2.8e-05
2026	1.68e-05
2038	1.12e-05
2050	2.8e-05
2062	5.6e-06
2074	1.12e-05
2086	2.24e-05
2098	3.36e-05
2110	3.36e-05
2122	4.48e-05
2134	0
2146	0
2158	2.8e-05
2170	3.92e-05
2182	1.68e-05
2194	3.36e-05
2206	5.04e-05
2218	5.04e-05
2230	2.24e-05
2242	6.16e-05
2254	6.16e-05
2266	7.28e-05
2278	6.16e-05
2290	9.52e-05
2302	8.4e-05
2314	0.000112
2326	0.0001064
2338	0.0001064
2350	0.0001176
2362	8.96e-05
2374	0.0001288
2386	0.000112
2398	0.0001344
2410	0.0001288
2422	0.0001456
2434	0.00014
2446	0.0001624
2458	0.0001344
2470	0.0001512
2482	0.0001456
2494	0.0001792
2506	0.0001848
2518	0.0001848
2530	0.000196
2542	0.0001792
2554	0.0001736
2566	0.0001176
2578	9.52e-05
2590	7.84e-05
2602	6.72e-05
2614	0.0001064
2626	7.84e-05
2638	0.000112
2650	9.52e-05
2662	0.0001008
2674	0.0001008
2686	0.0001008
2698	8.96e-05
2710	0.0001008
2722	0.000196
2734	0.000168
2746	0.0002128
2758	0.000168
2770	0.000224
2782	0.0002128
2794	0.0001904
2806	0.000168
2818	0.000168
2830	0.0002184
2842	0.0002576
2854	0.000308
2866	0.0004704
2878	0.0008736
2890	0.0011592
2902	0.0010808
2914	0.0012096
2926	0.0015008
2938	0.0022736
2950	0.0026208
2962	0.001736
2974	0.0021056
2986	0.0034328
2998	0.0026992
3010	0.001316
3022	0.0006608
3034	0.0003696
3046	0.0002296
3058	0.0002576
3070	0.000168
3082	0.0002128
3094	0.0001288
3106	0.0002072
3118	0.0002408
3130	0.0002744
3142	0.0002408
3154	0.0002352
3166	0.0002352
3178	0.0001344
3190	0.0001232
3202	0.0001456
3214	0.0001008
3226	0.0001848
3238	8.96e-05
3250	0.0001064
3262	6.72e-05
3274	8.4e-05
3286	6.72e-05
3298	6.72e-05
3310	8.4e-05
3322	0.0001232
3334	0.000168
3346	0.0001064
3358	0.0001344
3370	0.0001176
3382	0.0001288
3394	0.000224
3406	0.0003024
3418	0.000476
3430	0.0010584
3442	0.0026152
3454	0.004312
3466	0.0030632
3478	0.0010472
3490	0.0004312
3502	0.000308
3514	0.0001736
3526	0.0001568
3538	0.000112
3550	8.96e-05
3562	0.0001456
3574	0.000112
3586	0.0001288
3598	0.000112
3610	9.52e-05
3622	8.96e-05
3634	0.0001008
3646	8.4e-05
3658	7.28e-05
3670	7.84e-05
3682	0.0001064
3694	9.52e-05
3706	0.0001624
3718	0.000196
3730	0.0001064
3742	0.0001456
3754	0.0001064
3766	0.00014
3778	0.0001344
3790	0.0001232
3802	0.000168
3814	0.0001288
3826	0.0001232
3838	8.4e-05
