Infrared Spectrum: Acetanilide, 2'-carbamoyl-2-chloro-,
Formula: C9 H9 Cl N2 O2
CAS: 21721-78-8
State: SOLID (NUJOL MULL)
Class: COBLENTZ III
Instrument: PERKIN-ELMER 21 (GRATING)
Instrument parameters: FILTER AT ABOUT 10 MICRONS
Resolution: 2
Origin: ABBOTT LABORATORIES
1/CM	TRANSMITTANCE
667	0.6035
676	0.6199
685	0.6529
694	0.6515
703	0.6193
712	0.5568
721	0.4862
730	0.5069
739	0.5201
748	0.3974
757	0.284
766	0.3094
775	0.4142
784	0.7082
793	0.747
802	0.6866
811	0.7516
820	0.7538
829	0.7483
838	0.7407
847	0.7327
856	0.7251
865	0.7376
874	0.703
883	0.7401
892	0.7373
901	0.7196
910	0.6395
919	0.7038
928	0.7242
937	0.7217
946	0.6918
955	0.6663
964	0.7025
973	0.7036
982	0.6767
991	0.6744
1000	0.6975
1009	0.6886
1018	0.6785
1027	0.6669
1036	0.6399
1045	0.6616
1054	0.6647
1063	0.6589
1072	0.6534
1081	0.6339
1090	0.6224
1099	0.5967
1108	0.5168
1117	0.5994
1126	0.624
1135	0.5971
1144	0.5534
1153	0.5746
1162	0.5707
1171	0.5521
1180	0.5633
1189	0.5485
1198	0.5239
1207	0.4911
1216	0.4494
1225	0.4719
1234	0.4687
1243	0.462
1252	0.4278
1261	0.3911
1270	0.4289
1279	0.3568
1288	0.2264
1297	0.2838
1306	0.4735
1315	0.5186
1324	0.5057
1333	0.4735
1342	0.4346
1351	0.3906
1360	0.3047
1369	0.2022
1378	0.2116
1387	0.2139
1396	0.2234
1405	0.2642
1414	0.3371
1423	0.3253
1432	0.1969
1441	0.1232
1450	0.1223
1459	0.1793
1468	0.2974
1477	0.2566
1486	0.2037
1495	0.1395
1504	0.099
1513	0.1312
1522	0.2501
1531	0.4749
1540	0.4921
1549	0.3953
1558	0.303
1567	0.2275
1576	0.1433
1585	0.3287
1594	0.4567
1603	0.3198
1612	0.4673
1621	0.4234
1630	0.2205
1639	0.2246
1648	0.2662
1657	0.3163
1666	0.3742
1675	0.2642
1684	0.4276
1693	0.6407
1702	0.6617
1711	0.7251
1720	0.7578
1729	0.7821
1738	0.7944
1747	0.7998
1756	0.8026
1765	0.8024
1774	0.8036
1783	0.8068
1792	0.8042
1801	0.7998
1810	0.7957
1819	0.7954
1828	0.8003
1837	0.7993
1846	0.7987
1855	0.797
1864	0.7954
1873	0.7937
1882	0.7919
1891	0.7899
1900	0.788
1909	0.7863
1918	0.7846
1927	0.7825
1936	0.7788
1945	0.7735
1954	0.7712
1963	0.7728
1972	0.7742
1981	0.7755
1990	0.7758
1999	0.7754
2008	0.7743
2017	0.7716
2026	0.768
2035	0.7632
2044	0.7585
2053	0.7551
2062	0.7543
2071	0.7551
2080	0.7551
2089	0.7539
2098	0.7508
2107	0.7477
2116	0.7446
2125	0.7413
2134	0.738
2143	0.7356
2152	0.7336
2161	0.7317
2170	0.7299
2179	0.7281
2188	0.7263
2197	0.7248
2206	0.7236
2215	0.7224
2224	0.7205
2233	0.718
2242	0.713
2251	0.7081
2260	0.7035
2269	0.6999
2278	0.6978
2287	0.6957
2296	0.6943
2305	0.6934
2314	0.6925
2323	0.6915
2332	0.6906
2341	0.6894
2350	0.6878
2359	0.6861
2368	0.6841
2377	0.6822
2386	0.6823
2395	0.6826
2404	0.6832
2413	0.6838
2422	0.6841
2431	0.6843
2440	0.6832
2449	0.6817
2458	0.6786
2467	0.6756
2476	0.6726
2485	0.6696
2494	0.6669
2503	0.6642
2512	0.6615
2521	0.658
2530	0.6542
2539	0.6505
2548	0.6467
2557	0.6432
2566	0.6399
2575	0.6367
2584	0.6336
2593	0.6306
2602	0.6278
2611	0.625
2620	0.6219
2629	0.6186
2638	0.6152
2647	0.6116
2656	0.6071
2665	0.6028
2674	0.5982
2683	0.5934
2692	0.5887
2701	0.584
2710	0.5786
2719	0.5706
2728	0.5581
2737	0.5441
2746	0.5247
2755	0.5029
2764	0.469
2773	0.3883
2782	0.2964
2791	0.205
2800	0.1143
2809	0.0621
2818	0.0501
2827	0.0454
2836	0.0417
2845	0.0384
2854	0.036
2863	0.0356
2872	0.0368
2881	0.0457
2890	0.0609
2899	0.0642
2908	0.0846
2917	0.1375
2926	0.1901
2935	0.2424
2944	0.2944
2953	0.3658
2962	0.3925
2971	0.4002
2980	0.4028
2989	0.4023
2998	0.4017
3007	0.3993
3016	0.3967
3025	0.3937
3034	0.388
3043	0.3745
3052	0.3609
3061	0.3474
3070	0.334
3079	0.3208
3088	0.3075
3097	0.2944
3106	0.2813
3115	0.2683
3124	0.2564
3133	0.255
3142	0.2552
3151	0.2605
3160	0.2809
3169	0.3029
3178	0.3233
3187	0.3293
3196	0.3303
3205	0.33
3214	0.3295
3223	0.3286
3232	0.3253
3241	0.3139
3250	0.3025
3259	0.2911
3268	0.2797
3277	0.2698
3286	0.2681
3295	0.2681
3304	0.2903
3313	0.365
3322	0.4394
3331	0.5132
3340	0.5867
3349	0.6288
3358	0.6428
3367	0.6461
3376	0.6473
3385	0.6471
3394	0.6461
3403	0.6446
3412	0.6429
3421	0.6408
3430	0.6385
3439	0.6362
3448	0.6339
3457	0.6316
3466	0.6286
3475	0.6256
3484	0.6227
3493	0.6197
3502	0.6166
3511	0.6134
3520	0.6102
3529	0.6071
3538	0.6039
3547	0.6006
3556	0.5973
3565	0.5941
3574	0.5909
3583	0.5878
3592	0.5849
3601	0.583
3610	0.581
3619	0.5789
3628	0.5771
3637	0.5758
3646	0.5744
3655	0.573
3664	0.5716
3673	0.57
3682	0.5684
3691	0.5669
3700	0.5653
3709	0.5637
3718	0.5623
3727	0.5609
3736	0.5595
3745	0.5581
3754	0.5566
3763	0.5553
3772	0.5541
3781	0.5529
3790	0.5517
3799	0.5504
3808	0.5492
3817	0.5479
3826	0.5464
3835	0.5448
3844	0.5433
3853	0.5419
3862	0.5404
3871	0.5389
3880	0.5374
3889	0.536
3898	0.5348
3907	0.5334
3916	0.5319
3925	0.5301
3934	0.5283
3943	0.5265
3952	0.5248
3961	0.523
3970	0.5212
3979	0.5195
3988	0.5177
3997	0.5167
