Infrared Spectrum: 2-Bromo-5-chlorobenzoic acid
Formula: C 7 H 4 Br Cl O 2
CAS: 21739-93-5
State: gas
Origin: EPA-IR VAPOR PHASE LIBRARY
1/CM	ABSORBANCE
549.8	0.027449
559.445	0.036849
569.09	0.058099
578.734	0.071699
588.379	0.055029
598.024	0.039109
607.669	0.021899
617.313	0.015159
626.958	0.029339
636.603	0.054079
646.248	0.027689
655.893	0.009309
665.537	0.006199
675.182	0.006949
684.827	0.015559
694.472	0.035699
704.116	0.022309
713.761	0.006409
723.406	0.004249
733.051	0.004329
742.695	0.005089
752.34	0.006689
761.985	0.009739
771.63	0.016529
781.275	0.018429
790.919	0.012779
800.564	0.013649
810.209	0.030009
819.854	0.042049
829.498	0.018609
839.143	0.013479
848.788	0.007759
858.433	0.004529
868.078	0.004279
877.722	0.005699
887.367	0.011999
897.012	0.014379
906.657	0.006499
916.301	0.003509
925.946	0.002619
935.591	0.002819
945.236	0.003129
954.88	0.003069
964.525	0.003269
974.17	0.003109
983.815	0.003579
993.46	0.004149
1003.1	0.007309
1012.75	0.017769
1022.39	0.069039
1032.04	0.089799
1041.68	0.029309
1051.33	0.018899
1060.97	0.021629
1070.62	0.033419
1080.26	0.060199
1089.91	0.083579
1099.55	0.116819
1109.2	0.141029
1118.84	0.088239
1128.49	0.053849
1138.13	0.051289
1147.78	0.038039
1157.42	0.039689
1167.07	0.063499
1176.71	0.116289
1186.36	0.123649
1196	0.063619
1205.64	0.031029
1215.29	0.020169
1224.93	0.015629
1234.58	0.014869
1244.22	0.018369
1253.87	0.029019
1263.51	0.025339
1273.16	0.025879
1282.8	0.029019
1292.45	0.032989
1302.09	0.040299
1311.74	0.052719
1321.38	0.066899
1331.03	0.055739
1340.67	0.029009
1350.32	0.018929
1359.96	0.017119
1369.61	0.022659
1379.25	0.034789
1388.9	0.042459
1398.54	0.050589
1408.18	0.031419
1417.83	0.013409
1427.47	0.010679
1437.12	0.012799
1446.76	0.026839
1456.41	0.059379
1466.05	0.054109
1475.7	0.021099
1485.34	0.009569
1494.99	0.005569
1504.63	0.004069
1514.28	0.003669
1523.92	0.003589
1533.57	0.003899
1543.21	0.006389
1552.86	0.010209
1562.5	0.009269
1572.15	0.006699
1581.79	0.007229
1591.44	0.005749
1601.08	0.004179
1610.73	0.003589
1620.37	0.004249
1630.01	0.005569
1639.66	0.004879
1649.3	0.003349
1658.95	0.003139
1668.59	0.003429
1678.24	0.003499
1687.88	0.004239
1697.53	0.005539
1707.17	0.008259
1716.82	0.014039
1726.46	0.026699
1736.11	0.046659
1745.75	0.071229
1755.4	0.122489
1765.04	0.187729
1774.69	0.225049
1784.33	0.118439
1793.98	0.074359
1803.62	0.044349
1813.27	0.019389
1822.91	0.009559
1832.55	0.005659
1842.2	0.003819
1851.84	0.002959
1861.49	0.002329
1871.13	0.002329
1880.78	0.002869
1890.42	0.003799
1900.07	0.004259
1909.71	0.003039
1919.36	0.002179
1929	0.001889
1938.65	0.001609
1948.29	0.001499
1957.94	0.001549
1967.58	0.0012559
1977.23	0.0009629
1986.87	0.0010374
1996.52	0.0010069
2006.16	0.0011665
2015.81	0.0012979
2025.45	0.0012629
2035.1	0.0010855
2044.74	0.0009223
2054.38	0.0008227
2064.03	0.0007483
2073.67	0.0006698
2083.32	0.0006561
2092.96	0.0007854
2102.61	0.000929
2112.25	0.0008538
2121.9	0.0009847
2131.54	0.0010014
2141.19	0.0010067
2150.83	0.0011153
2160.48	0.0012807
2170.12	0.0011613
2179.77	0.0011608
2189.41	0.0011084
2199.06	0.0009534
2208.7	0.0010937
2218.35	0.0011195
2227.99	0.0010346
2237.64	0.0009289
2247.28	0.0008807
2256.92	0.0010692
2266.57	0.0009579
2276.21	0.0011181
2285.86	0.0010815
2295.5	0.0010025
2305.15	0.0013127
2314.79	0.001429
2324.44	0.0012804
2334.08	0.001419
2343.73	0.001399
2353.37	0.001649
2363.02	0.001809
2372.66	0.001559
2382.31	0.001182
2391.95	0.0009484
2401.6	0.0010439
2411.24	0.0011512
2420.89	0.0010944
2430.53	0.0010969
2440.18	0.0013083
2449.82	0.001042
2459.47	0.0009274
2469.11	0.0008597
2478.75	0.0009663
2488.4	0.0010223
2498.04	0.0008224
2507.69	0.000956
2517.33	0.0008682
2526.98	0.0008575
2536.62	0.0007934
2546.27	0.000787
2555.91	0.0006538
2565.56	0.0008928
2575.2	0.0009226
2584.85	0.0010975
2594.49	0.0007738
2604.14	0.0009241
2613.78	0.0008683
2623.43	0.0007796
2633.07	0.0006853
2642.72	0.0006564
2652.36	0.0006403
2662.01	0.0007314
2671.65	0.0006348
2681.29	0.0006914
2690.94	0.0005826
2700.58	0.0007528
2710.23	0.0006383
2719.87	0.0008833
2729.52	0.0006185
2739.16	0.0006323
2748.81	0.0005922
2758.45	0.00041967
2768.1	0.0005994
2777.74	0.000625
2787.39	0.0006581
2797.03	0.00111
2806.68	0.0011489
2816.32	0.0011895
2825.97	0.0011204
2835.61	0.0008919
2845.26	0.000862
2854.9	0.0007142
2864.55	0.0012069
2874.19	0.0011076
2883.84	0.0008573
2893.48	0.0007184
2903.12	0.0007633
2912.77	0.0006073
2922.41	0.0005512
2932.06	0.000659
2941.7	0.0007776
2951.35	0.0007386
2960.99	0.0009484
2970.64	0.0008773
2980.28	0.0010915
2989.93	0.0010721
2999.57	0.001025
3009.22	0.0009632
3018.86	0.0011619
3028.51	0.0012696
3038.15	0.0012322
3047.8	0.0007479
3057.44	0.001469
3067.09	0.002279
3076.73	0.003409
3086.38	0.002449
3096.02	0.001549
3105.67	0.0013633
3115.31	0.0010889
3124.95	0.0009314
3134.6	0.0006407
3144.24	0.0005769
3153.89	0.000394877
3163.53	0.000675
3173.18	0.00045353
3182.82	0.0003335
3192.47	0.0003466
3202.11	3.9e-05
3211.76	0.000218
3221.4	0.00018
3231.05	0.000146
3240.69	0.0003659
3250.34	0.000378
3259.98	0.00044059
3269.63	0.000237
3279.27	0.000208
3288.92	0.000102
3298.56	0.000276
3308.21	0.00044383
3317.85	0.0005202
3327.49	0.000181
3337.14	0.000389336
3346.78	0.00041707
3356.43	0.00028
3366.07	0.000275
3375.72	0.0003628
3385.36	0.0005735
3395.01	0.00045598
3404.65	0.000273
3414.3	0.0006169
3423.94	0.0008281
3433.59	0.0009901
3443.23	0.0010371
3452.88	0.0011395
3462.52	0.0012071
3472.17	0.001419
3481.81	0.002419
3491.46	0.003079
3501.1	0.003489
3510.75	0.003849
3520.39	0.004429
3530.04	0.005389
3539.68	0.006439
3549.32	0.010989
3558.97	0.044879
3568.61	0.101129
3578.26	0.071859
3587.9	0.025129
3597.55	0.006339
3607.19	0.003679
3616.84	0.002819
3626.48	0.001579
3636.13	0.0010166
3645.77	0.0008535
3655.42	0.0003725
3665.06	0.0005491
3674.71	0.0006111
3684.35	0.0005754
3694	0.0007212
3703.64	0.0008604
3713.29	0.0006697
3722.93	0.0007834
3732.58	0.00045214
3742.22	0.00039045
3751.86	0.000257
3761.51	0.00047017
3771.15	0.0003457
3780.8	0.0003512
3790.44	0.00043854
3800.09	0.00041875
3809.73	0.000151
3819.38	6.1e-05
3829.02	0.0003472
3838.67	0.000143
3848.31	0.000133
3857.96	0.0002987
3867.6	0.00048372
3877.25	0.000197
3886.89	0.0005037
3896.54	0.0002913
3906.18	0.0006748
3915.83	0.0004302
3925.47	0.000331
3935.12	0.000237
3944.76	0.00044375
3954.41	0.000199
3964.05	0.0007986
3973.69	0.000258
3983.34	0.000288
3992.98	0.0003501
