Infrared Spectrum: 5-Bromo-2-chlorobenzoic acid
Formula: C 7 H 4 Br Cl O 2
CAS: 21739-92-4
State: gas
Origin: EPA-IR VAPOR PHASE LIBRARY
1/CM	ABSORBANCE
549.9	0.054
559.547	0.06835
569.193	0.10115
578.84	0.14778
588.486	0.11614
598.133	0.06687
607.779	0.0386
617.426	0.02808
627.072	0.05889
636.719	0.11051
646.365	0.05075
656.012	0.01753
665.658	0.01297
675.305	0.01508
684.951	0.02758
694.598	0.05135
704.245	0.04517
713.891	0.01714
723.538	0.00831
733.184	0.0072
742.831	0.00799
752.477	0.01091
762.124	0.01619
771.77	0.02657
781.417	0.03597
791.063	0.02631
800.71	0.02818
810.356	0.06279
820.003	0.08651
829.649	0.03433
839.296	0.01191
848.943	0.00808
858.589	0.00708
868.236	0.0071
877.882	0.00911
887.529	0.01789
897.175	0.02365
906.822	0.01436
916.468	0.00775
926.115	0.0058756
935.761	0.0058414
945.408	0.00668
955.054	0.00688
964.701	0.0065142
974.347	0.00691
983.994	0.00759
993.64	0.00877
1003.29	0.01169
1012.93	0.01862
1022.58	0.03911
1032.23	0.1062
1041.87	0.17356
1051.52	0.12053
1061.17	0.07304
1070.81	0.0662
1080.46	0.08164
1090.11	0.12409
1099.75	0.18777
1109.4	0.22644
1119.05	0.19094
1128.69	0.10466
1138.34	0.0895
1147.99	0.09174
1157.63	0.09958
1167.28	0.1475
1176.92	0.20352
1186.57	0.20991
1196.22	0.10804
1205.86	0.05432
1215.51	0.03707
1225.16	0.02836
1234.8	0.02592
1244.45	0.03106
1254.1	0.05145
1263.74	0.0527
1273.39	0.05075
1283.04	0.05876
1292.68	0.06364
1302.33	0.07283
1311.98	0.09381
1321.62	0.1251
1331.27	0.11052
1340.92	0.05624
1350.56	0.03588
1360.21	0.03458
1369.86	0.04488
1379.5	0.06435
1389.15	0.08314
1398.79	0.10106
1408.44	0.06252
1418.09	0.02726
1427.73	0.02139
1437.38	0.0249
1447.03	0.04284
1456.67	0.09376
1466.32	0.11749
1475.97	0.05324
1485.61	0.01921
1495.26	0.00988
1504.91	0.00695
1514.55	0.00665
1524.2	0.00702
1533.85	0.00786
1543.49	0.01247
1553.14	0.0208
1562.79	0.01637
1572.43	0.01487
1582.08	0.01598
1591.73	0.01122
1601.37	0.00788
1611.02	0.00711
1620.67	0.00853
1630.31	0.01144
1639.96	0.01084
1649.6	0.00803
1659.25	0.00756
1668.9	0.00794
1678.54	0.00848
1688.19	0.00939
1697.84	0.01164
1707.48	0.01694
1717.13	0.02823
1726.78	0.05107
1736.42	0.08385
1746.07	0.14021
1755.72	0.24637
1765.36	0.32828
1775.01	0.40418
1784.66	0.19179
1794.3	0.12581
1803.95	0.07731
1813.6	0.03483
1823.24	0.01796
1832.89	0.01148
1842.54	0.00916
1852.18	0.00779
1861.83	0.00674
1871.47	0.0065554
1881.12	0.00728
1890.77	0.00881
1900.41	0.00972
1910.06	0.00764
1919.71	0.00539
1929.35	0.004757
1939	0.00445
1948.65	0.00437
1958.29	0.00438
1967.94	0.00419
1977.59	0.00411
1987.23	0.00418
1996.88	0.00436
2006.53	0.0044
2016.17	0.00412
2025.82	0.00373
2035.47	0.00345
2045.11	0.00328
2054.76	0.00322
2064.41	0.00321
2074.05	0.00329
2083.7	0.00334
2093.35	0.00334
2102.99	0.0035
2112.64	0.00361
2122.28	0.00365
2131.93	0.0038
2141.58	0.0039
2151.22	0.00378
2160.87	0.00373
2170.52	0.00367
2180.16	0.00367
2189.81	0.00367
2199.46	0.00364
2209.1	0.00362
2218.75	0.00361
2228.4	0.00361
2238.04	0.00355
2247.69	0.00342
2257.34	0.0034
2266.98	0.00348
2276.63	0.00367
2286.28	0.00384
2295.92	0.0039
2305.57	0.00389
2315.22	0.00396
2324.86	0.00401
2334.51	0.00401
2344.16	0.00408
2353.8	0.00428
2363.45	0.00434
2373.09	0.00403
2382.74	0.00354
2392.39	0.00329
2402.03	0.00327
2411.68	0.00333
2421.33	0.00344
2430.97	0.00351
2440.62	0.00346
2450.27	0.00333
2459.91	0.00318
2469.56	0.00308
2479.21	0.00308
2488.85	0.00302
2498.5	0.0031
2508.15	0.00323
2517.79	0.00322
2527.44	0.00302
2537.09	0.00277
2546.73	0.00268
2556.38	0.00263
2566.03	0.00254
2575.67	0.0026
2585.32	0.00264
2594.96	0.00261
2604.61	0.00252
2614.26	0.00245
2623.9	0.00245
2633.55	0.00239
2643.2	0.00224
2652.84	0.00216
2662.49	0.00212
2672.14	0.00207
2681.78	0.00204
2691.43	0.00201
2701.08	0.00207
2710.72	0.00204
2720.37	0.00197
2730.02	0.00188
2739.66	0.0017
2749.31	0.00167
2758.96	0.00149
2768.6	0.00141
2778.25	0.00147
2787.9	0.0017
2797.54	0.00222
2807.19	0.0023
2816.84	0.00245
2826.48	0.00232
2836.13	0.00196
2845.77	0.00168
2855.42	0.00159
2865.07	0.00178
2874.71	0.00184
2884.36	0.00169
2894.01	0.00141
2903.65	0.0013
2913.3	0.00112
2922.95	0.00114
2932.59	0.00112
2942.24	0.0015
2951.89	0.00144
2961.53	0.00151
2971.18	0.00139
2980.83	0.00151
2990.47	0.00124
3000.12	0.00131
3009.77	0.00105
3019.41	0.00094
3029.06	0.00088
3038.71	0.00059
3048.35	0.0006
3058	0.00092
3067.64	0.00265
3077.29	0.004685
3086.94	0.00359
3096.58	0.00198
3106.23	0.00129
3115.88	0.00104
3125.52	0.00091
3135.17	0.00072
3144.82	0.00061
3154.46	0.00054
3164.11	0.00049
3173.76	0.00027
3183.4	0.00013
3193.05	9e-05
3202.7	7e-05
3212.34	0.0001
3221.99	0.00021
3231.64	0.00024
3241.28	0.00029
3250.93	0.00032
3260.58	0.00032
3270.22	0.0004
3279.87	0.00035
3289.52	0.00051
3299.16	0.00054
3308.81	0.0007
3318.45	0.00074
3328.1	0.00081
3337.75	0.00086
3347.39	0.00098
3357.04	0.00109
3366.69	0.0011
3376.33	0.00109
3385.98	0.00118
3395.63	0.00127
3405.27	0.00136
3414.92	0.00149
3424.57	0.00185
3434.21	0.00227
3443.86	0.00291
3453.51	0.00271
3463.15	0.00267
3472.8	0.00302
3482.45	0.00373
3492.09	0.005033
3501.74	0.0060253
3511.39	0.00707
3521.03	0.00932
3530.68	0.0128
3540.33	0.01562
3549.97	0.02462
3559.62	0.08865
3569.26	0.19257
3578.91	0.12132
3588.56	0.04212
3598.2	0.01179
3607.85	0.00781
3617.5	0.0062899
3627.14	0.00455
3636.79	0.00374
3646.44	0.00336
3656.08	0.00319
3665.73	0.00312
3675.38	0.00296
3685.02	0.00332
3694.67	0.00368
3704.32	0.00358
3713.96	0.00328
3723.61	0.00314
3733.26	0.0031
3742.9	0.00308
3752.55	0.00287
3762.2	0.00295
3771.84	0.00299
3781.49	0.00303
3791.13	0.00319
3800.78	0.00304
3810.43	0.00292
3820.07	0.0028
3829.72	0.00287
3839.37	0.00287
3849.01	0.0029
3858.66	0.00287
3868.31	0.0029
3877.95	0.00325
3887.6	0.00329
3897.25	0.00337
3906.89	0.00322
3916.54	0.00315
3926.19	0.00303
3935.83	0.003
3945.48	0.003
3955.13	0.00291
3964.77	0.00292
3974.42	0.00294
3984.07	0.00299
3993.71	0.00295
