Infrared Spectrum: 5-Methoxyresorcinol
Formula: C 7 H 8 O 3
CAS: 2174-64-3
State: gas
Instrument: HP-GC/MS/IRD
Origin: NIST Mass Spectrometry Data Center
1/CM	ABSORBANCE
550	0.002667
562	0.0011718
574	0.0008778
586	0.0006552
598	0.000609
610	0.00084
622	0.0007602
634	0.000483
646	0.0005712
658	0.0018438
670	0.0036162
682	0.0019572
694	0.0005376
706	0.000147
718	0.0001218
730	7.56e-05
742	9.66e-05
754	0.0001386
766	0.0002562
778	0.000609
790	0.0011088
802	0.0023772
814	0.0042378
826	0.0047628
838	0.004179
850	0.0019194
862	0.0008232
874	0.0007182
886	0.0008064
898	0.0009996
910	0.000966
922	0.0010542
934	0.0016968
946	0.0028434
958	0.0021294
970	0.0011802
982	0.0026418
994	0.0066738
1006	0.0074886
1018	0.003444
1030	0.0021042
1042	0.0039144
1054	0.0063882
1066	0.0052122
1078	0.0027468
1090	0.0025746
1102	0.0036918
1114	0.007413
1126	0.0170856
1138	0.0346122
1150	0.0415926
1162	0.0236166
1174	0.009513
1186	0.0085638
1198	0.0117138
1210	0.014511
1222	0.0122472
1234	0.0054684
1246	0.0023646
1258	0.0024108
1270	0.0041202
1282	0.0055902
1294	0.0040446
1306	0.0025872
1318	0.0022428
1330	0.0020034
1342	0.002772
1354	0.0034062
1366	0.0022134
1378	0.0015204
1390	0.0016296
1402	0.0021294
1414	0.0024234
1426	0.002982
1438	0.0042714
1450	0.0052668
1462	0.0071904
1474	0.009513
1486	0.011088
1498	0.0115248
1510	0.0085848
1522	0.0043554
1534	0.002226
1546	0.0021882
1558	0.002646
1570	0.0043512
1582	0.008904
1594	0.0196308
1606	0.029085
1618	0.026985
1630	0.0207144
1642	0.0118524
1654	0.0054054
1666	0.0031626
1678	0.0018606
1690	0.001512
1702	0.0010416
1714	0.0009534
1726	0.0008358
1738	0.000525
1750	0.0005586
1762	0.0005628
1774	0.0003108
1786	0.000336
1798	0.0002856
1810	0.0003234
1822	0.0002394
1834	0.0001932
1846	0.0001008
1858	0.000147
1870	4.2e-05
1882	0.0001302
1894	8.4e-05
1906	7.56e-05
1918	5.88e-05
1930	0.000126
1942	8.82e-05
1954	0.0001344
1966	0.0001176
1978	0.0001638
1990	0.00021
2002	0.0002478
2014	0.000189
2026	0.0001386
2038	0.0001134
2050	0.0001428
2062	0.0001764
2074	0.0002226
2086	0.0003234
2098	0.0003486
2110	0.0003318
2122	0.0002898
2134	0.0002814
2146	0.000315
2158	0.0003066
2170	0.0002604
2182	0.0002436
2194	0.0001974
2206	0.0002394
2218	0.0002142
2230	0.0002058
2242	0.0001848
2254	0.0001764
2266	0.0001848
2278	0.0002814
2290	0.0003654
2302	0.0003822
2314	0.0003276
2326	0.0003066
2338	0.0003234
2350	0.0003024
2362	0.0003444
2374	0.0002982
2386	0.0002394
2398	0.0002016
2410	0.000189
2422	0.0002394
2434	0.0002562
2446	0.000294
2458	0.0002814
2470	0.000315
2482	0.000441
2494	0.0004788
2506	0.0003864
2518	0.0002268
2530	0.000147
2542	0.0001386
2554	0.0001218
2566	0.0001344
2578	0.000105
2590	0.000126
2602	0.0001218
2614	0.0001512
2626	0.0001386
2638	0.0001386
2650	7.98e-05
2662	9.24e-05
2674	7.14e-05
2686	7.14e-05
2698	6.3e-05
2710	7.98e-05
2722	7.98e-05
2734	0.0001302
2746	0.0001344
2758	0.0001722
2770	0.0002268
2782	0.0003066
2794	0.0004536
2806	0.0004956
2818	0.000504
2830	0.0007728
2842	0.001764
2854	0.0022596
2866	0.001302
2878	0.0008904
2890	0.0009954
2902	0.0013314
2914	0.0019068
2926	0.0020874
2938	0.0025998
2950	0.0033936
2962	0.0032844
2974	0.0019866
2986	0.0014448
2998	0.0020286
3010	0.0024864
3022	0.0015288
3034	0.0008442
3046	0.0008064
3058	0.0008862
3070	0.000756
3082	0.0005166
3094	0.0003906
3106	0.0002688
3118	0.0002604
3130	0.0002226
3142	0.0001638
3154	0.0001932
3166	0.0001344
3178	9.24e-05
3190	0.0001764
3202	0.0001344
3214	0.0001848
3226	0.0001302
3238	0.0001638
3250	0.0001092
3262	0.0001554
3274	0.0001092
3286	1.68e-05
3298	7.98e-05
3310	0.0001218
3322	0.000105
3334	0.0002058
3346	0.0002184
3358	0.0001974
3370	0.000231
3382	0.0001428
3394	0.0001596
3406	0.0001218
3418	0.000147
3430	0.0001974
3442	0.0001386
3454	0.0001218
3466	7.56e-05
3478	6.72e-05
3490	4.62e-05
3502	3.36e-05
3514	7.56e-05
3526	2.52e-05
3538	4.62e-05
3550	4.2e-05
3562	4.62e-05
3574	4.2e-05
3586	1.68e-05
3598	6.72e-05
3610	0.000126
3622	0.0006594
3634	0.0031752
3646	0.0115122
3658	0.0114996
3670	0.0022722
3682	0.000378
3694	0.0001386
3706	4.2e-06
3718	2.94e-05
3730	4.2e-06
3742	4.2e-06
3754	4.2e-06
3766	4.2e-06
3778	4.2e-06
3790	4.2e-05
3802	4.2e-06
3814	4.2e-06
3826	4.2e-06
3838	4.2e-06
