Infrared Spectrum: N-Propylmaleimide
Formula: C 7 H 9 N O 2
CAS: 21746-40-7
State: gas
Origin: EPA-IR VAPOR PHASE LIBRARY
1/CM	ABSORBANCE
549.8	0.0007873
559.445	0.00126
569.09	0.00165
578.734	0.0010226
588.379	0.00154
598.024	0.00277
607.669	0.00393
617.313	0.00504
626.958	0.00536
636.603	0.00347
646.248	0.00212
655.893	0.00214
665.537	0.00329
675.182	0.00759
684.827	0.02341
694.472	0.04847
704.116	0.04759
713.761	0.02012
723.406	0.00539
733.051	0.004
742.695	0.00541
752.34	0.00542
761.985	0.00339
771.63	0.00217
781.275	0.00251
790.919	0.0053
800.564	0.00981
810.209	0.0201
819.854	0.04326
829.498	0.08082
839.143	0.04143
848.788	0.01795
858.433	0.00989
868.078	0.00752
877.722	0.00736
887.367	0.0078
897.012	0.00711
906.657	0.00451
916.301	0.00274
925.946	0.0025
935.591	0.00206
945.236	0.00204
954.88	0.00206
964.525	0.00277
974.17	0.00585
983.815	0.0119
993.46	0.01378
1003.1	0.01046
1012.75	0.00724
1022.39	0.00681
1032.04	0.00607
1041.68	0.00608
1051.33	0.0053
1060.97	0.00372
1070.62	0.00503
1080.26	0.00804
1089.91	0.01412
1099.55	0.02569
1109.2	0.0344
1118.84	0.03954
1128.49	0.02674
1138.13	0.0124
1147.78	0.00634
1157.42	0.00688
1167.07	0.01158
1176.71	0.02187
1186.36	0.03032
1196	0.0259
1205.64	0.01395
1215.29	0.00636
1224.93	0.00406
1234.58	0.00407
1244.22	0.0045
1253.87	0.00579
1263.51	0.00724
1273.16	0.00867
1282.8	0.01027
1292.45	0.01409
1302.09	0.01892
1311.74	0.02219
1321.38	0.02422
1331.03	0.03123
1340.67	0.04869
1350.32	0.07451
1359.96	0.09916
1369.61	0.10313
1379.25	0.0968
1388.9	0.09918
1398.54	0.11899
1408.18	0.10857
1417.83	0.06208
1427.47	0.02688
1437.12	0.03274
1446.76	0.04597
1456.41	0.04029
1466.05	0.02353
1475.7	0.01311
1485.34	0.00804
1494.99	0.00556
1504.63	0.00445
1514.28	0.00369
1523.92	0.00311
1533.57	0.00281
1543.21	0.00292
1552.86	0.00324
1562.5	0.00394
1572.15	0.00485
1581.79	0.00656
1591.44	0.00775
1601.08	0.00644
1610.73	0.00398
1620.37	0.00321
1630.01	0.00344
1639.66	0.00394
1649.3	0.00487
1658.95	0.00619
1668.59	0.00899
1678.24	0.01553
1687.88	0.03039
1697.53	0.06107
1707.17	0.12928
1716.82	0.2733
1726.46	0.47565
1736.11	0.49103
1745.75	0.27835
1755.4	0.09039
1765.04	0.03343
1774.69	0.01933
1784.33	0.01337
1793.98	0.00947
1803.62	0.00886
1813.27	0.00985
1822.91	0.00925
1832.55	0.00648
1842.2	0.00386
1851.84	0.00275
1861.49	0.00265
1871.13	0.0028
1880.78	0.0029
1890.42	0.00274
1900.07	0.0022
1909.71	0.00211
1919.36	0.00206
1929	0.00171
1938.65	0.00147
1948.29	0.00125
1957.94	0.0011079
1967.58	0.0010906
1977.23	0.0009977
1986.87	0.0009043
1996.52	0.0009651
2006.16	0.0009267
2015.81	0.0010011
2025.45	0.0009314
2035.1	0.0010108
2044.74	0.0011016
2054.38	0.00134
2064.03	0.00153
2073.67	0.00165
2083.32	0.00185
2092.96	0.00196
2102.61	0.00205
2112.25	0.00176
2121.9	0.00151
2131.54	0.00128
2141.19	0.00125
2150.83	0.00129
2160.48	0.00123
2170.12	0.0011123
2179.77	0.001003
2189.41	0.0010284
2199.06	0.0008094
2208.7	0.0008861
2218.35	0.0008269
2227.99	0.0008996
2237.64	0.0008406
2247.28	0.0007716
2256.92	0.000737
2266.57	0.0007198
2276.21	0.000756
2285.86	0.0008844
2295.5	0.0010361
2305.15	0.0011738
2314.79	0.0010054
2324.44	0.0010765
2334.08	0.001081
2343.73	0.0010341
2353.37	0.0010061
2363.02	0.0009806
2372.66	0.0009685
2382.31	0.0009146
2391.95	0.0010299
2401.6	0.0009945
2411.24	0.001207
2420.89	0.0011089
2430.53	0.0010538
2440.18	0.000964
2449.82	0.0007585
2459.47	0.0006661
2469.11	0.0008115
2478.75	0.000978
2488.4	0.0010123
2498.04	0.0011065
2507.69	0.0011127
2517.33	0.0008523
2526.98	0.0007366
2536.62	0.00067
2546.27	0.000698
2555.91	0.000762
2565.56	0.0008046
2575.2	0.0008878
2584.85	0.0008518
2594.49	0.0005641
2604.14	0.0004015
2613.78	0.0003795
2623.43	0.0003615
2633.07	0.0003555
2642.72	0.0003683
2652.36	0.000355
2662.01	0.0006367
2671.65	0.0005207
2681.29	0.0007317
2690.94	0.0008387
2700.58	0.00089
2710.23	0.0008704
2719.87	0.0008869
2729.52	0.0009164
2739.16	0.0010967
2748.81	0.00139
2758.45	0.00134
2768.1	0.00135
2777.74	0.00138
2787.39	0.00135
2797.03	0.00143
2806.68	0.00157
2816.32	0.00182
2825.97	0.00226
2835.61	0.0027
2845.26	0.00333
2854.9	0.00423
2864.55	0.00667
2874.19	0.01244
2883.84	0.01961
2893.48	0.01954
2903.12	0.0149
2912.77	0.0146
2922.41	0.01857
2932.06	0.0277
2941.7	0.03886
2951.35	0.04121
2960.99	0.03949
2970.64	0.05179
2980.28	0.05286
2989.93	0.02772
2999.57	0.01098
3009.22	0.00611
3018.86	0.00474
3028.51	0.00418
3038.15	0.00343
3047.8	0.0028
3057.44	0.00238
3067.09	0.00174
3076.73	0.00151
3086.38	0.0017
3096.02	0.00163
3105.67	0.00145
3115.31	0.0011841
3124.95	0.0011901
3134.6	0.0009321
3144.24	0.0010083
3153.89	0.0009297
3163.53	0.0008914
3173.18	0.0007959
3182.82	0.0008303
3192.47	0.0007226
3202.11	0.0005033
3211.76	0.0006494
3221.4	0.000526
3231.05	0.000448
3240.69	0.00030306
3250.34	0.0003491
3259.98	0.00030457
3269.63	0.0004383
3279.27	0.00028459
3288.92	0.00025097
3298.56	0.0002704
3308.21	5.2e-05
3317.85	0.00031906
3327.49	0.0003349
3337.14	0.00028868
3346.78	0.0003523
3356.43	0.000117
3366.07	0.00024521
3375.72	0.00031526
3385.36	0.0004369
3395.01	0.0006511
3404.65	0.0004178
3414.3	0.0004088
3423.94	0.0006138
3433.59	0.0006581
3443.23	0.0012296
3452.88	0.00155
3462.52	0.00252
3472.17	0.00392
3481.81	0.0059
3491.46	0.00731
3501.1	0.00658
3510.75	0.00396
3520.39	0.00213
3530.04	0.00156
3539.68	0.00124
3549.32	0.0010338
3558.97	0.0008938
3568.61	0.0005014
3578.26	0.0006217
3587.9	0.0004247
3597.55	0.00026603
3607.19	0.0005764
3616.84	0.00031921
3626.48	0.000498
3636.13	0.0005101
3645.77	0.0005184
3655.42	0.0004109
3665.06	0.00024446
3674.71	0.0004406
3684.35	0.00032259
3694	0.00032164
3703.64	0.000404
3713.29	0.0004577
3722.93	0.0001719
3732.58	0.0004159
3742.22	0.0005638
3751.86	0.0004043
3761.51	0.0002488
3771.15	0.0004965
3780.8	0.0002758
3790.44	0.0006691
3800.09	0.0009205
3809.73	0.0009319
3819.38	0.0008547
3829.02	0.00027301
3838.67	0.0003901
3848.31	0.0001944
3857.96	0.00031759
3867.6	0.0004067
3877.25	0.0004874
3886.89	0.00024045
3896.54	0.00028787
3906.18	0.00032581
3915.83	0.000132
3925.47	0.0001953
3935.12	0.0003674
3944.76	0.0003316
3954.41	0.0004177
3964.05	0.0003926
3973.69	0.0004114
3983.34	0.0004559
3992.98	0.0006606
