Infrared Spectrum: 6,6-Dimethylfulvene
Formula: C 8 H 10
CAS: 2175-91-9
State: gas
Origin: EPA-IR VAPOR PHASE LIBRARY
1/CM	ABSORBANCE
549.8	0.00038602
559.445	0.0008763
569.09	0.00038108
578.734	0.0007955
588.379	0.0013827
598.024	0.004231
607.669	0.009771
617.313	0.016041
626.958	0.012601
636.603	0.009171
646.248	0.003481
655.893	0.0010458
665.537	0.0008114
675.182	0.0007129
684.827	0.0008921
694.472	0.0009602
704.116	0.0010651
713.761	0.0012335
723.406	0.001941
733.051	0.004441
742.695	0.011911
752.34	0.019711
761.985	0.051691
771.63	0.020341
781.275	0.011291
790.919	0.003801
800.564	0.002961
810.209	0.002781
819.854	0.002781
829.498	0.002971
839.143	0.005441
848.788	0.008291
858.433	0.009341
868.078	0.006281
877.722	0.003031
887.367	0.002271
897.012	0.002431
906.657	0.003461
916.301	0.004011
925.946	0.003521
935.591	0.002221
945.236	0.001411
954.88	0.001491
964.525	0.0009961
974.17	0.0012559
983.815	0.002901
993.46	0.002971
1003.1	0.002821
1012.75	0.0009854
1022.39	0.0008706
1032.04	0.0009106
1041.68	0.0009932
1051.33	0.0013847
1060.97	0.001791
1070.62	0.003811
1080.26	0.006861
1089.91	0.006601
1099.55	0.006361
1109.2	0.002831
1118.84	0.002021
1128.49	0.001951
1138.13	0.004001
1147.78	0.003601
1157.42	0.002311
1167.07	0.0006724
1176.71	0.0008081
1186.36	0.0007391
1196	0.000832
1205.64	0.0005639
1215.29	0.0003453
1224.93	0.0009596
1234.58	0.0012145
1244.22	0.002091
1253.87	0.002151
1263.51	0.001571
1273.16	0.0009204
1282.8	0.0009969
1292.45	0.0013434
1302.09	0.001831
1311.74	0.002431
1321.38	0.002931
1331.03	0.003151
1340.67	0.003721
1350.32	0.007421
1359.96	0.019981
1369.61	0.025751
1379.25	0.021391
1388.9	0.009571
1398.54	0.005201
1408.18	0.003891
1417.83	0.004441
1427.47	0.005911
1437.12	0.008341
1446.76	0.010661
1456.41	0.013421
1466.05	0.016601
1475.7	0.015691
1485.34	0.010481
1494.99	0.004591
1504.63	0.003781
1514.28	0.004041
1523.92	0.003691
1533.57	0.002721
1543.21	0.002341
1552.86	0.002421
1562.5	0.002531
1572.15	0.002731
1581.79	0.003311
1591.44	0.005551
1601.08	0.008311
1610.73	0.009211
1620.37	0.009561
1630.01	0.014701
1639.66	0.021651
1649.3	0.025521
1658.95	0.018271
1668.59	0.009471
1678.24	0.002381
1687.88	0.001421
1697.53	0.0012898
1707.17	0.0012642
1716.82	0.0011577
1726.46	0.0007941
1736.11	0.0005906
1745.75	0.0005763
1755.4	0.0005638
1765.04	0.0005695
1774.69	0.0008322
1784.33	0.001401
1793.98	0.001891
1803.62	0.002121
1813.27	0.001771
1822.91	0.0011163
1832.55	0.0008792
1842.2	0.0007423
1851.84	0.0007208
1861.49	0.0006156
1871.13	0.0006493
1880.78	0.0007538
1890.42	0.0008022
1900.07	0.0007249
1909.71	0.0007531
1919.36	0.0005974
1929	0.0006972
1938.65	0.0006554
1948.29	0.0006261
1957.94	0.0006237
1967.58	0.0008471
1977.23	0.0008064
1986.87	0.0008827
1996.52	0.0007045
2006.16	0.0005288
2015.81	0.0005619
2025.45	0.0005572
2035.1	0.0005022
2044.74	0.0005397
2054.38	0.0005516
2064.03	0.000713
2073.67	0.0007632
2083.32	0.0006423
2092.96	0.0006148
2102.61	0.0006841
2112.25	0.0005866
2121.9	0.0006406
2131.54	0.0006077
2141.19	0.0005896
2150.83	0.0005695
2160.48	0.0007259
2170.12	0.0006529
2179.77	0.0008518
2189.41	0.0008976
2199.06	0.0007334
2208.7	0.0008225
2218.35	0.0008947
2227.99	0.0008515
2237.64	0.0006912
2247.28	0.0006783
2256.92	0.0005986
2266.57	0.0006495
2276.21	0.0008399
2285.86	0.0008491
2295.5	0.0007014
2305.15	0.0006981
2314.79	0.0005909
2324.44	0.0005996
2334.08	0.000664
2343.73	0.0006335
2353.37	0.0005521
2363.02	0.0006517
2372.66	0.0005798
2382.31	0.00047184
2391.95	0.0006247
2401.6	0.0006745
2411.24	0.00047834
2420.89	0.000623
2430.53	0.00045459
2440.18	0.0006105
2449.82	0.000617
2459.47	0.0007652
2469.11	0.000807
2478.75	0.0007098
2488.4	0.0007725
2498.04	0.000702
2507.69	0.0007776
2517.33	0.0007617
2526.98	0.000661
2536.62	0.0006207
2546.27	0.0004939
2555.91	0.00043083
2565.56	0.0005116
2575.2	0.00047357
2584.85	0.00042863
2594.49	0.0006233
2604.14	0.0005225
2613.78	0.0008068
2623.43	0.0008064
2633.07	0.0009719
2642.72	0.0007973
2652.36	0.0006861
2662.01	0.0006153
2671.65	0.0005066
2681.29	0.0005891
2690.94	0.0006149
2700.58	0.0008378
2710.23	0.0009164
2719.87	0.0010087
2729.52	0.001541
2739.16	0.001421
2748.81	0.0013664
2758.45	0.0010151
2768.1	0.0008913
2777.74	0.001031
2787.39	0.0010859
2797.03	0.0013255
2806.68	0.0013878
2816.32	0.001801
2825.97	0.002001
2835.61	0.002751
2845.26	0.004311
2854.9	0.006741
2864.55	0.008631
2874.19	0.008931
2883.84	0.007981
2893.48	0.008101
2903.12	0.011381
2912.77	0.018691
2922.41	0.022061
2932.06	0.019521
2941.7	0.013141
2951.35	0.008261
2960.99	0.005971
2970.64	0.004791
2980.28	0.004811
2989.93	0.006011
2999.57	0.008061
3009.22	0.008341
3018.86	0.007321
3028.51	0.005761
3038.15	0.004841
3047.8	0.004891
3057.44	0.005601
3067.09	0.008431
3076.73	0.011911
3086.38	0.012851
3096.02	0.011921
3105.67	0.012031
3115.31	0.011581
3124.95	0.008481
3134.6	0.004191
3144.24	0.001571
3153.89	0.0009408
3163.53	0.0007722
3173.18	0.0007144
3182.82	0.0005906
3192.47	0.000397536
3202.11	0.000528
3211.76	0.0005159
3221.4	0.0005719
3231.05	0.0007141
3240.69	0.000273
3250.34	0.0006346
3259.98	0.00048383
3269.63	0.00040911
3279.27	0.0005793
3288.92	0.00041394
3298.56	0.000382
3308.21	0.0003282
3317.85	0.0005418
3327.49	0.000394436
3337.14	0.000671
3346.78	0.0003004
3356.43	0.0003386
3366.07	0.0003365
3375.72	0.00044839
3385.36	0.0003719
3395.01	0.0002981
3404.65	0.000173
3414.3	0.00038786
3423.94	0.000390207
3433.59	0.0003054
3443.23	0.000266
3452.88	0.000225
3462.52	0.0006028
3472.17	0.000411
3481.81	0.000255
3491.46	0.0003523
3501.1	0.0003718
3510.75	0.000142
3520.39	5.9e-05
3530.04	0.00043874
3539.68	0.0003517
3549.32	0.0003717
3558.97	0.0003102
3568.61	0.0006456
3578.26	0.0003793
3587.9	0.00017
3597.55	0.00043712
3607.19	0.0003499
3616.84	0.000159
3626.48	0.00028
3636.13	0.00041201
3645.77	0.0003711
3655.42	0.00040568
3665.06	0.000222
3674.71	0.0005304
3684.35	0.00014
3694	0.000229
3703.64	0.0003046
3713.29	0.0006108
3722.93	0.00048592
3732.58	7.5e-05
3742.22	0.00022
3751.86	0.0003363
3761.51	0.0003687
3771.15	0.0003701
3780.8	0.000394769
3790.44	0.0004116
3800.09	0.0003713
3809.73	0.00048204
3819.38	0.00042717
3829.02	0.0005412
3838.67	0.0003792
3848.31	0.0004967
3857.96	0.00048312
3867.6	0.0003245
3877.25	0.0008782
3886.89	0.0009818
3896.54	0.0009117
3906.18	0.0010436
3915.83	0.0006774
3925.47	0.0005853
3935.12	0.00043932
3944.76	0.0004052
3954.41	0.00046692
3964.05	0.0003568
3973.69	0.0007088
3983.34	0.00044573
3992.98	0.000396484
