Infrared Spectrum: FULVENE, 6,6-DIPHENYL
Formula: C18 H14
CAS: 2175-90-8
State: SOLID (KBr PELLET)
Melting point: 81-82 C
Class: COBLENTZ
Instrument: Not specified, most likely a prism, grating, or hybrid spectrometer.
Sampling: TRANSMISSION
Resolution: 4
Origin: TENNESSEE EASTMAN COMPANY, RESEARCH LABORATORIES
MICROMETERS	TRANSMITTANCE
2.053	0.831
2.09298	0.835
2.13296	0.835
2.17295	0.84
2.21293	0.843
2.25291	0.846
2.29289	0.85
2.33287	0.855
2.37286	0.855
2.41284	0.856
2.45282	0.858
2.4928	0.86
2.53278	0.863
2.57277	0.863
2.61275	0.865
2.65273	0.865
2.69271	0.868
2.73269	0.855
2.77268	0.82
2.81266	0.778
2.85264	0.747
2.89262	0.712
2.9326	0.697
2.97259	0.725
3.01257	0.772
3.05255	0.81
3.09253	0.825
3.13251	0.843
3.1725	0.86
3.21248	0.86
3.25246	0.808
3.29244	0.703
3.33242	0.823
3.37241	0.863
3.41239	0.86
3.45237	0.866
3.49235	0.873
3.53233	0.895
3.57232	0.906
3.6123	0.911
3.65228	0.915
3.69226	0.918
3.73224	0.921
3.77222	0.925
3.81221	0.926
3.85219	0.928
3.89217	0.928
3.93215	0.93
3.97213	0.933
4.01212	0.935
4.0521	0.935
4.09208	0.936
4.13206	0.938
4.17204	0.938
4.21203	0.945
4.25201	0.95
4.29199	0.93
4.33197	0.921
4.37195	0.938
4.41194	0.94
4.45192	0.945
4.4919	0.951
4.53188	0.955
4.57186	0.955
4.61185	0.956
4.65183	0.956
4.69181	0.956
4.73179	0.956
4.77177	0.958
4.81176	0.958
4.85174	0.958
4.89172	0.958
4.9317	0.958
4.97168	0.958
5.01167	0.958
5.05165	0.951
5.09163	0.923
5.13161	0.928
5.17159	0.946
5.21158	0.943
5.25156	0.93
5.29154	0.931
5.33152	0.941
5.3715	0.946
5.41149	0.955
5.45147	0.941
5.49145	0.915
5.53143	0.91
5.57141	0.936
5.6114	0.935
5.65138	0.923
5.69136	0.926
5.73134	0.915
5.77132	0.883
5.81131	0.881
5.85129	0.878
5.89127	0.848
5.93125	0.815
5.97123	0.757
6.01122	0.752
6.0512	0.808
6.09118	0.803
6.13116	0.797
6.17114	0.815
6.21113	0.811
6.25111	0.627
6.29109	0.612
6.33107	0.777
6.37105	0.727
6.41104	0.85
6.45102	0.871
6.491	0.89
6.53098	0.9
6.57096	0.891
6.61095	0.903
6.65093	0.82
6.69091	0.685
6.73089	0.83
6.77087	0.81
6.81085	0.798
6.85084	0.825
6.89082	0.615
6.9308	0.623
6.97078	0.888
7.01076	0.916
7.05075	0.92
7.09073	0.926
7.13071	0.908
7.17069	0.886
7.21067	0.901
7.25066	0.911
7.29064	0.88
7.33062	0.442
7.3706	0.747
7.41058	0.853
7.45057	0.878
7.49055	0.856
7.53053	0.71
7.57051	0.797
7.61049	0.843
7.65048	0.86
7.69046	0.868
7.73044	0.826
7.77042	0.865
7.8104	0.886
7.85039	0.886
7.89037	0.875
7.93035	0.903
7.97033	0.906
8.01031	0.911
8.0503	0.915
8.09028	0.915
8.13026	0.915
8.17024	0.911
8.21022	0.913
8.25021	0.91
8.29019	0.853
8.33017	0.88
8.37015	0.875
8.41013	0.848
8.45012	0.808
8.4901	0.821
8.53008	0.873
8.57006	0.873
8.61004	0.855
8.65003	0.856
8.69001	0.883
8.72999	0.89
8.76997	0.89
8.80995	0.891
8.84994	0.891
8.88992	0.891
8.9299	0.881
8.96988	0.878
9.00986	0.876
9.04985	0.876
9.08983	0.866
9.12981	0.74
9.16979	0.74
9.20977	0.765
9.24976	0.682
9.28974	0.658
9.32972	0.765
9.3697	0.83
9.40968	0.861
9.44967	0.863
9.48965	0.865
9.52963	0.863
9.56961	0.856
9.60959	0.845
9.64958	0.782
9.68956	0.665
9.72954	0.76
9.76952	0.81
9.8095	0.813
9.84948	0.811
9.88947	0.8
9.92945	0.742
9.96943	0.708
10.0094	0.69
10.0494	0.73
10.0894	0.793
10.1294	0.818
10.1693	0.841
10.2093	0.848
10.2493	0.843
10.2893	0.83
10.3293	0.863
10.3693	0.88
10.4092	0.89
10.4492	0.893
10.4892	0.893
10.5292	0.896
10.5692	0.898
10.6091	0.898
10.6491	0.883
10.6891	0.81
10.7291	0.672
10.7691	0.658
10.8091	0.818
10.849	0.868
10.889	0.861
10.929	0.85
10.969	0.841
11.009	0.828
11.0489	0.775
11.0889	0.815
11.1289	0.883
11.1689	0.906
11.2089	0.926
11.2489	0.933
11.2888	0.938
11.3288	0.941
11.3688	0.941
11.4088	0.941
11.4488	0.941
11.4887	0.941
11.5287	0.936
11.5687	0.931
11.6087	0.931
11.6487	0.93
11.6887	0.925
11.7286	0.918
11.7686	0.913
11.8086	0.901
11.8486	0.895
11.8886	0.901
11.9285	0.88
11.9685	0.8
12.0085	0.823
12.0485	0.881
12.0885	0.891
12.1285	0.895
12.1684	0.895
12.2084	0.895
12.2484	0.895
12.2884	0.895
12.3284	0.858
12.3683	0.828
12.4083	0.878
12.4483	0.896
12.4883	0.9
12.5283	0.898
12.5683	0.856
12.6082	0.7
12.6482	0.346
12.6882	0.237
12.7282	0.319
12.7682	0.59
12.8082	0.722
12.8481	0.768
12.8881	0.777
12.9281	0.777
12.9681	0.742
13.0081	0.632
13.048	0.582
13.088	0.59
13.128	0.517
13.168	0.359
13.208	0.377
13.248	0.565
13.2879	0.725
13.3279	0.806
13.3679	0.855
13.4079	0.878
13.4479	0.893
13.4878	0.901
13.5278	0.905
13.5678	0.906
13.6078	0.911
13.6478	0.91
13.6878	0.9
13.7277	0.876
13.7677	0.85
13.8077	0.851
13.8477	0.878
13.8877	0.89
13.9276	0.891
13.9676	0.876
14.0076	0.835
14.0476	0.775
14.0876	0.655
14.1276	0.497
14.1675	0.331
14.2075	0.199
14.2475	0.146
14.2875	0.126
14.3275	0.133
14.3674	0.241
14.4074	0.43
14.4474	0.599
14.4874	0.697
14.5274	0.753
14.5674	0.773
14.6073	0.773
14.6473	0.723
14.6873	0.658
14.7273	0.549
14.7673	0.462
14.8072	0.399
14.8472	0.391
14.8872	0.424
14.9272	0.474
14.9672	0.514
15.0072	0.554
15.0471	0.608
15.0871	0.657
15.1271	0.703
15.1671	0.725
15.2071	0.737
15.2471	0.743
15.287	0.747
15.327	0.747
15.367	0.742
15.407	0.738
15.447	0.733
15.4869	0.725
15.5269	0.72
15.5669	0.717
15.6069	0.703
15.6469	0.695
15.6869	0.685
15.7268	0.675
15.7668	0.668
15.8068	0.658
15.8468	0.648
15.8868	0.642
15.9267	0.63
15.9667	0.613
16.0067	0.605
