Infrared Spectrum: Pentachloropyridine
Formula: C 5 Cl 5 N
CAS: 2176-62-7
State: gas
Origin: EPA-IR VAPOR PHASE LIBRARY
1/CM	ABSORBANCE
549.8	0.002517
559.445	0.002007
569.09	0.003457
578.734	0.001477
588.379	0.0007427
598.024	0.0003206
607.669	0.0004457
617.313	0.0005282
626.958	0.0008337
636.603	0.0009096
646.248	0.001367
655.893	0.002767
665.537	0.010947
675.182	0.055737
684.827	0.075767
694.472	0.010457
704.116	0.006107
713.761	0.005387
723.406	0.002787
733.051	0.002697
742.695	0.001737
752.34	0.0012174
761.985	0.0011217
771.63	0.0011937
781.275	0.002037
790.919	0.003237
800.564	0.008977
810.209	0.055717
819.854	0.087067
829.498	0.018007
839.143	0.004197
848.788	0.003637
858.433	0.002767
868.078	0.002297
877.722	0.003387
887.367	0.004757
897.012	0.004757
906.657	0.002707
916.301	0.001647
925.946	0.001887
935.591	0.001777
945.236	0.001607
954.88	0.001567
964.525	0.0011906
974.17	0.001347
983.815	0.002257
993.46	0.001857
1003.1	0.001567
1012.75	0.001427
1022.39	0.0011229
1032.04	0.0007935
1041.68	0.0007156
1051.33	0.0009263
1060.97	0.001957
1070.62	0.007667
1080.26	0.021027
1089.91	0.021937
1099.55	0.006007
1109.2	0.001897
1118.84	0.0011686
1128.49	0.0008848
1138.13	0.0010234
1147.78	0.0010274
1157.42	0.0012001
1167.07	0.002287
1176.71	0.003427
1186.36	0.009537
1196	0.018367
1205.64	0.021797
1215.29	0.009867
1224.93	0.006227
1234.58	0.005907
1244.22	0.003937
1253.87	0.004127
1263.51	0.007847
1273.16	0.017807
1282.8	0.039617
1292.45	0.064367
1302.09	0.093567
1311.74	0.186417
1321.38	0.289647
1331.03	0.181587
1340.67	0.088397
1350.32	0.026747
1359.96	0.037897
1369.61	0.017377
1379.25	0.004077
1388.9	0.003787
1398.54	0.005867
1408.18	0.008787
1417.83	0.008907
1427.47	0.006897
1437.12	0.005397
1446.76	0.004027
1456.41	0.003507
1466.05	0.004227
1475.7	0.007227
1485.34	0.022387
1494.99	0.066007
1504.63	0.090757
1514.28	0.047667
1523.92	0.021087
1533.57	0.014187
1543.21	0.012587
1552.86	0.008477
1562.5	0.003547
1572.15	0.002507
1581.79	0.001887
1591.44	0.0011161
1601.08	0.00085
1610.73	0.0007972
1620.37	0.0008357
1630.01	0.0008634
1639.66	0.0006886
1649.3	0.0005531
1658.95	0.0004802
1668.59	0.0006081
1678.24	0.0005849
1687.88	0.000746
1697.53	0.0009771
1707.17	0.0011114
1716.82	0.0008218
1726.46	0.0004767
1736.11	0.0004722
1745.75	0.0004515
1755.4	0.0004268
1765.04	0.0004949
1774.69	0.0004052
1784.33	0.0004267
1793.98	0.0004005
1803.62	0.00037232
1813.27	0.00037471
1822.91	0.0004923
1832.55	0.0005333
1842.2	0.0006392
1851.84	0.0009482
1861.49	0.0011583
1871.13	0.001317
1880.78	0.001537
1890.42	0.001417
1900.07	0.001017
1909.71	0.000742
1919.36	0.00042
1929	0.0003519
1938.65	0.00032895
1948.29	0.0002759
1957.94	0.00035732
1967.58	0.00037057
1977.23	0.00036124
1986.87	0.0004066
1996.52	0.0004258
2006.16	0.00038465
2015.81	0.0004398
2025.45	0.0003921
2035.1	0.0004053
2044.74	0.00036244
2054.38	0.00030251
2064.03	0.000291486
2073.67	0.00035018
2083.32	0.0003842
2092.96	0.000438
2102.61	0.00037931
2112.25	0.0005585
2121.9	0.0006485
2131.54	0.0009567
2141.19	0.0010732
2150.83	0.0007997
2160.48	0.0004705
2170.12	0.0005808
2179.77	0.0007437
2189.41	0.0005906
2199.06	0.0004464
2208.7	0.0004021
2218.35	0.0003928
2227.99	0.0002431
2237.64	0.0002555
2247.28	0.0002258
2256.92	0.0002694
2266.57	0.0004492
2276.21	0.0004905
2285.86	0.0005007
2295.5	0.0004457
2305.15	0.0004222
2314.79	0.00032287
2324.44	0.00035558
2334.08	0.00033877
2343.73	0.00035015
2353.37	0.000383
2363.02	0.00036728
2372.66	0.0004327
2382.31	0.0006042
2391.95	0.0008281
2401.6	0.0010537
2411.24	0.0011171
2420.89	0.0008672
2430.53	0.000624
2440.18	0.0004172
2449.82	0.0003873
2459.47	0.0004307
2469.11	0.00032153
2478.75	0.0004653
2488.4	0.0005299
2498.04	0.0005952
2507.69	0.0005048
2517.33	0.0008459
2526.98	0.0012143
2536.62	0.0012109
2546.27	0.0005883
2555.91	0.0003416
2565.56	0.0002673
2575.2	0.00036567
2584.85	0.0002681
2594.49	0.0004545
2604.14	0.0004588
2613.78	0.00027986
2623.43	0.0002711
2633.07	0.00028406
2642.72	0.00035764
2652.36	0.0004737
2662.01	0.000451
2671.65	0.0006026
2681.29	0.0009197
2690.94	0.001347
2700.58	0.001777
2710.23	0.001537
2719.87	0.0009871
2729.52	0.0005998
2739.16	0.0006128
2748.81	0.0005381
2758.45	0.0004446
2768.1	0.0003782
2777.74	0.0002426
2787.39	0.00032228
2797.03	0.000209
2806.68	0.00032133
2816.32	0.000290958
2825.97	0.0002117
2835.61	0.0002736
2845.26	0.0002108
2854.9	0.000293836
2864.55	0.0002404
2874.19	0.0002566
2883.84	0.00031165
2893.48	0.000242
2903.12	0.0002329
2912.77	0.000111
2922.41	0.0002118
2932.06	0.0002661
2941.7	0.0001905
2951.35	0.0002735
2960.99	0.00034243
2970.64	0.0002643
2980.28	0.0002768
2989.93	0.0002564
2999.57	0.00035376
3009.22	0.00028285
3018.86	0.0003104
3028.51	0.0005354
3038.15	0.000294239
3047.8	0.0003875
3057.44	0.0002648
3067.09	0.0001963
3076.73	0.0004379
3086.38	0.0003978
3096.02	0.0002064
3105.67	0.0002429
3115.31	0.000282
3124.95	0.000137
3134.6	0.00031444
3144.24	0.0002201
3153.89	0.000137
3163.53	0.00031984
3173.18	0.00032711
3182.82	0.000294443
3192.47	0.00031171
3202.11	0.0002602
3211.76	0.0002561
3221.4	0.0003871
3231.05	0.0004296
3240.69	0.0003193
3250.34	0.00029721
3259.98	0.000295137
3269.63	0.0002743
3279.27	0.000457
3288.92	0.0004322
3298.56	0.0004781
3308.21	0.0003967
3317.85	0.000168
3327.49	0.0002046
3337.14	0.00031058
3346.78	0.0002657
3356.43	0.0002227
3366.07	0.0004084
3375.72	0.00036695
3385.36	0.0004531
3395.01	0.00037857
3404.65	0.0004413
3414.3	0.00028065
3423.94	0.0004107
3433.59	0.0004328
3443.23	7.2e-05
3452.88	0.0004165
3462.52	0.00028281
3472.17	0.000161
3481.81	0.00038553
3491.46	0.0006122
3501.1	0.0003976
3510.75	0.00030318
3520.39	0.00034677
3530.04	0.0005117
3539.68	0.0002247
3549.32	0.000394
3558.97	0.0004646
3568.61	0.0004733
3578.26	0.00031996
3587.9	0.0003525
3597.55	0.0005509
3607.19	0.0004826
3616.84	6.9e-05
3626.48	0.0004667
3636.13	0.00035704
3645.77	0.0005538
3655.42	0.00037823
3665.06	0.0003951
3674.71	0.00033287
3684.35	0.0003664
3694	0.00032651
3703.64	0.0001927
3713.29	0.0004037
3722.93	0.0005273
3732.58	0.0002059
3742.22	0.00035445
3751.86	0.0003938
3761.51	0.0005569
3771.15	0.000246
3780.8	0.00030069
3790.44	0.0004276
3800.09	0.0005361
3809.73	0.0005635
3819.38	0.00038667
3829.02	0.0002691
3838.67	0.0005075
3848.31	0.00037083
3857.96	0.0005078
3867.6	0.0004044
3877.25	0.0003318
3886.89	0.0002546
3896.54	0.00029858
3906.18	0.00031629
3915.83	0.000496
3925.47	0.00031914
3935.12	0.0004939
3944.76	0.0006414
3954.41	0.000546
3964.05	0.0004432
3973.69	0.000288034
3983.34	0.000394
3992.98	0.00037764
