Infrared Spectrum: Chrysene
Formula: C 18 H 12
CAS: 218-01-9
State: gas
Instrument: HP-GC/MS/IRD
Origin: NIST Mass Spectrometry Data Center
1/CM	ABSORBANCE
550	0.0003916
562	0.0006171
574	0.0010406
586	0.0007447
598	0.0003652
610	0.0003509
622	0.0003344
634	0.0002662
646	0.0003729
658	0.0005137
670	0.0006435
682	0.0019316
694	0.0005533
706	0.0005071
718	0.0005027
730	0.0008019
742	0.0030393
754	0.0108273
766	0.0054813
778	0.001089
790	0.001034
802	0.0040579
814	0.0039567
826	0.0007656
838	0.0006215
850	0.0012595
862	0.0015873
874	0.00121
886	0.0007227
898	0.0006996
910	0.0005577
922	0.0005896
934	0.0006457
946	0.0007249
958	0.0006424
970	0.0005621
982	0.0005005
994	0.0005456
1006	0.0006985
1018	0.0008921
1030	0.001595
1042	0.0007766
1054	0.000517
1066	0.000484
1078	0.0004884
1090	0.00044
1102	0.0003927
1114	0.000297
1126	0.0002409
1138	0.0002607
1150	0.0003586
1162	0.0001859
1174	0.0001254
1186	0.0004059
1198	0.0001518
1210	8.8e-06
1222	0.0002519
1234	0.0003267
1246	0.0004312
1258	0.0009493
1270	0.000561
1282	0.0001573
1294	0.0001617
1306	0.0002035
1318	0.0001452
1330	0.0001617
1342	0.0001749
1354	0.0001716
1366	0.0001903
1378	0.0002255
1390	0.0002222
1402	0.0002871
1414	0.0006347
1426	0.0012947
1438	0.0007304
1450	0.0004587
1462	0.0004147
1474	0.0007524
1486	0.0013266
1498	0.0006292
1510	0.0009306
1522	0.0008657
1534	0.0005181
1546	0.0004499
1558	0.0004114
1570	0.0003685
1582	0.0004741
1594	0.0007656
1606	0.000649
1618	0.0006985
1630	0.0004213
1642	0.0003113
1654	0.0002651
1666	0.0003014
1678	0.0006567
1690	0.0006534
1702	0.0003608
1714	0.0003344
1726	0.0003421
1738	0.0003938
1750	0.0005577
1762	0.0004378
1774	0.0004807
1786	0.0002937
1798	0.0003366
1810	0.0003872
1822	0.0003949
1834	0.0003366
1846	0.0001694
1858	0.0001606
1870	0.0001958
1882	0.0003993
1894	0.0004521
1906	0.0005467
1918	0.0004378
1930	0.0004103
1942	0.0006039
1954	0.0001782
1966	0.0001188
1978	0.0001111
1990	0.0001034
2002	0.0001034
2014	8.14e-05
2026	7.48e-05
2038	8.03e-05
2050	7.26e-05
2062	7.26e-05
2074	6.16e-05
2086	6.38e-05
2098	6.38e-05
2110	7.48e-05
2122	7.04e-05
2134	4.18e-05
2146	5.61e-05
2158	6.82e-05
2170	3.08e-05
2182	3.08e-05
2194	4.62e-05
2206	4.07e-05
2218	4.62e-05
2230	2.09e-05
2242	8.8e-06
2254	1.98e-05
2266	1.87e-05
2278	3.52e-05
2290	4.62e-05
2302	0.0001012
2314	6.49e-05
2326	6.71e-05
2338	7.37e-05
2350	8.58e-05
2362	3.74e-05
2374	2.75e-05
2386	5.94e-05
2398	6.93e-05
2410	7.59e-05
2422	5.17e-05
2434	6.27e-05
2446	7.04e-05
2458	6.27e-05
2470	6.38e-05
2482	9.57e-05
2494	8.03e-05
2506	5.94e-05
2518	6.49e-05
2530	8.91e-05
2542	9.35e-05
2554	5.17e-05
2566	7.04e-05
2578	5.5e-05
2590	4.51e-05
2602	5.17e-05
2614	4.73e-05
2626	6.93e-05
2638	8.03e-05
2650	9.02e-05
2662	4.73e-05
2674	5.39e-05
2686	5.72e-05
2698	6.49e-05
2710	9.02e-05
2722	7.59e-05
2734	5.83e-05
2746	3.63e-05
2758	9.68e-05
2770	7.81e-05
2782	0.0001188
2794	7.7e-05
2806	0.0001056
2818	0.0001034
2830	0.0001122
2842	9.57e-05
2854	0.0001408
2866	0.0001606
2878	0.0001111
2890	0.0001111
2902	0.0001177
2914	0.0002002
2926	0.0002574
2938	0.0002266
2950	0.000275
2962	0.0002409
2974	0.0002365
2986	0.0003047
2998	0.0005423
3010	0.0009537
3022	0.00143
3034	0.0019569
3046	0.0030701
3058	0.0049731
3070	0.005456
3082	0.0036069
3094	0.0030261
3106	0.001496
3118	0.0006281
3130	0.000363
3142	0.0002651
3154	0.0001177
3166	0.0001364
3178	0.0001034
3190	0.0001507
3202	0.0001507
3214	0.0001221
3226	0.0001221
3238	6.05e-05
3250	3.52e-05
3262	9.9e-05
3274	7.48e-05
3286	5.06e-05
3298	0.0001056
3310	5.5e-05
3322	4.07e-05
3334	3.3e-05
3346	4.4e-05
3358	4.62e-05
3370	4.07e-05
3382	7.37e-05
3394	2.42e-05
3406	7.26e-05
3418	7.04e-05
3430	3.74e-05
3442	4.84e-05
3454	9.68e-05
3466	2.31e-05
3478	7.04e-05
3490	4.4e-05
3502	9.57e-05
3514	7.15e-05
3526	7.26e-05
3538	7.26e-05
3550	4.62e-05
3562	4.51e-05
3574	1.54e-05
3586	1.76e-05
3598	2.53e-05
3610	0.0001199
3622	5.5e-06
3634	6.49e-05
3646	7.7e-05
3658	7.26e-05
3670	0.0001309
3682	9.57e-05
3694	0.0001012
3706	0.0001342
3718	7.81e-05
3730	0.0001375
3742	0.0001133
3754	0.0001056
3766	0.0001661
3778	9.57e-05
3790	0.0001298
3802	6.38e-05
3814	4.84e-05
3826	0.0001144
3838	0.0001342
