Infrared Spectrum: Purine, 7-benzyl-6-methoxy-
Formula: C13 H12 N4 O
CAS: 21802-76-6
State: SOLID (1 mg / 650 mg KBr DISC)
Class: COBLENTZ III
Instrument: PERKIN-ELMER 21 (GRATING)
Instrument parameters: FILTER CHANGE AT 1090 CM^-^1
Sampling: TRANSMISSION
Resolution: 2
Origin: SOUTHERN RESEARCH INSTITUTE, W.C. Coburn, Jr.
1/CM	TRANSMITTANCE
599.693	0.921
608.749	0.9184
617.806	0.9167
626.862	0.9004
635.919	0.8547
644.975	0.6446
654.031	0.7378
663.088	0.9707
672.144	0.9338
681.201	0.8982
690.257	0.8116
699.313	0.6986
708.37	0.513
717.426	0.4935
726.482	0.8327
735.539	0.7982
744.595	0.3306
753.652	0.6206
762.708	0.9215
771.764	0.9318
780.821	0.9066
789.877	0.8552
798.934	0.5513
807.99	0.9082
817.046	0.8916
826.103	0.844
835.159	0.873
844.216	0.8709
853.272	0.852
862.328	0.7644
871.385	0.6178
880.441	0.737
889.498	0.862
898.554	0.8481
907.61	0.8117
916.667	0.6924
925.723	0.7686
934.779	0.8136
943.836	0.7936
952.892	0.6694
961.949	0.7447
971.005	0.6331
980.061	0.8027
989.118	0.8207
998.174	0.8021
1007.23	0.7755
1016.29	0.7831
1025.34	0.7468
1034.4	0.6887
1043.46	0.7568
1052.51	0.7525
1061.57	0.7164
1070.63	0.6778
1079.68	0.5516
1088.74	0.6923
1097.79	0.6077
1106.85	0.4947
1115.91	0.1972
1124.96	0.3365
1134.02	0.7186
1143.08	0.7704
1152.13	0.6807
1161.19	0.5944
1170.25	0.4327
1179.3	0.5419
1188.36	0.6797
1197.41	0.7172
1206.47	0.5682
1215.53	0.6291
1224.58	0.4256
1233.64	0.653
1242.7	0.6762
1251.75	0.5116
1260.81	0.4052
1269.87	0.6056
1278.92	0.7319
1287.98	0.7025
1297.04	0.6448
1306.09	0.6066
1315.15	0.5058
1324.2	0.2771
1333.26	0.397
1342.32	0.4038
1351.37	0.2589
1360.43	0.1411
1369.49	0.4397
1378.54	0.2702
1387.6	0.6399
1396.66	0.4383
1405.71	0.2457
1414.77	0.6219
1423.82	0.7426
1432.88	0.7208
1441.94	0.6623
1450.99	0.5566
1460.05	0.556
1469.11	0.5701
1478.16	0.4581
1487.22	0.1495
1496.28	0.4728
1505.33	0.7057
1514.39	0.7797
1523.44	0.7584
1532.5	0.7232
1541.56	0.6311
1550.61	0.3161
1559.67	0.2049
1568.73	0.4871
1577.78	0.7154
1586.84	0.7145
1595.9	0.6546
1604.95	0.5079
1614.01	0.2873
1623.07	0.1614
1632.12	0.4893
1641.18	0.6299
1650.23	0.7507
1659.29	0.8413
1668.35	0.8561
1677.4	0.8559
1686.46	0.8639
1695.52	0.8756
1704.57	0.8847
1713.63	0.8776
1722.69	0.8785
1731.74	0.8667
1740.8	0.8624
1749.85	0.8629
1758.91	0.8693
1767.97	0.8581
1777.02	0.8465
1786.08	0.8401
1795.14	0.8297
1804.19	0.815
1813.25	0.7915
1822.31	0.7964
1831.36	0.8222
1840.42	0.8281
1849.47	0.8293
1858.53	0.824
1867.59	0.8296
1876.64	0.8294
1885.7	0.7875
1894.76	0.7471
1903.81	0.8209
1912.87	0.8287
1921.93	0.8223
1930.98	0.827
1940.04	0.8222
1949.1	0.8232
1958.15	0.8309
1967.21	0.8188
1976.26	0.8166
1985.32	0.8095
1994.38	0.8116
2003.43	0.8032
2012.49	0.8049
2021.55	0.8111
2030.6	0.81
2039.66	0.8085
2048.72	0.806
2057.77	0.8034
2066.83	0.7996
2075.88	0.7975
2084.94	0.8051
2094	0.8036
2103.05	0.8015
2112.11	0.7993
2121.17	0.7975
2130.22	0.7956
2139.28	0.7933
2148.34	0.7902
2157.39	0.787
2166.45	0.7839
2175.51	0.7799
2184.56	0.7759
2193.62	0.7729
2202.67	0.7731
2211.73	0.774
2220.79	0.7732
2229.84	0.7713
2238.9	0.7702
2247.96	0.767
2257.01	0.7627
2266.07	0.7586
2275.13	0.7597
2284.18	0.7638
2293.24	0.7593
2302.29	0.75
2311.35	0.7393
2320.41	0.7334
2329.46	0.7312
2338.52	0.7263
2347.58	0.7285
2356.63	0.7332
2365.69	0.7388
2374.75	0.7387
2383.8	0.7373
2392.86	0.7351
2401.91	0.732
2410.97	0.729
2420.03	0.7267
2429.08	0.7245
2438.14	0.7231
2447.2	0.7223
2456.25	0.722
2465.31	0.7217
2474.37	0.7211
2483.42	0.7197
2492.48	0.7175
2501.54	0.7146
2510.59	0.7097
2519.65	0.7077
2528.7	0.7077
2537.76	0.707
2546.82	0.7036
2555.87	0.6967
2564.93	0.6947
2573.99	0.6954
2583.04	0.696
2592.1	0.6959
2601.16	0.6961
2610.21	0.6954
2619.27	0.6952
2628.32	0.6951
2637.38	0.6952
2646.44	0.6948
2655.49	0.6949
2664.55	0.6923
2673.61	0.6891
2682.66	0.6872
2691.72	0.6854
2700.78	0.6819
2709.83	0.6789
2718.89	0.6769
2727.94	0.6756
2737	0.6761
2746.06	0.6756
2755.11	0.6732
2764.17	0.6751
2773.23	0.6728
2782.28	0.6741
2791.34	0.6637
2800.4	0.6604
2809.45	0.6568
2818.51	0.6403
2827.57	0.6285
2836.62	0.6255
2845.68	0.6265
2854.73	0.6244
2863.79	0.6211
2872.85	0.6172
2881.9	0.6129
2890.96	0.6056
2900.02	0.6017
2909.07	0.5933
2918.13	0.5688
2927.19	0.5475
2936.24	0.5364
2945.3	0.5579
2954.35	0.5908
2963.41	0.6048
2972.47	0.5947
2981.52	0.5673
2990.58	0.5686
2999.64	0.579
3008.69	0.5821
3017.75	0.5744
3026.81	0.5533
3035.86	0.5406
3044.92	0.5312
3053.97	0.5139
3063.03	0.4934
3072.09	0.5135
3081.14	0.6074
3090.2	0.6517
3099.26	0.6604
3108.31	0.6611
3117.37	0.6587
3126.43	0.6551
3135.48	0.6586
3144.54	0.659
3153.6	0.6554
3162.65	0.6574
3171.71	0.6558
3180.76	0.6499
3189.82	0.6506
3198.88	0.6516
3207.93	0.6462
3216.99	0.6424
3226.05	0.6426
3235.1	0.6412
3244.16	0.6333
3253.22	0.6307
3262.27	0.6323
3271.33	0.6303
3280.38	0.6259
3289.44	0.6285
3298.5	0.6299
3307.55	0.6199
3316.61	0.6169
3325.67	0.6149
3334.72	0.6125
3343.78	0.6083
3352.84	0.6039
3361.89	0.5992
3370.95	0.5951
3380.01	0.5972
3389.06	0.5821
3398.12	0.5753
3407.17	0.5721
3416.23	0.5708
3425.29	0.5687
3434.34	0.5644
3443.4	0.5689
3452.46	0.5724
3461.51	0.5753
3470.57	0.5755
3479.63	0.5754
3488.68	0.577
3497.74	0.5809
3506.79	0.5846
3515.85	0.5882
3524.91	0.5912
3533.96	0.5904
3543.02	0.5887
3552.08	0.5923
3561.13	0.6011
3570.19	0.6024
3579.25	0.6032
3588.3	0.6038
3597.36	0.6082
3606.41	0.6151
3615.47	0.6123
3624.53	0.6097
3633.58	0.6112
3642.64	0.6171
3651.7	0.6236
3660.75	0.6223
3669.81	0.6203
3678.87	0.6181
3687.92	0.6153
3696.98	0.6139
3706.04	0.6148
3715.09	0.6178
3724.15	0.6224
3733.2	0.6199
3742.26	0.6187
3751.32	0.6151
3760.37	0.6056
3769.43	0.6126
3778.49	0.613
3787.54	0.6138
3796.6	0.6154
3805.66	0.6167
3814.71	0.612
3823.77	0.6068
3832.82	0.6057
3841.88	0.6069
3850.94	0.6078
3859.99	0.6073
3869.05	0.6026
3878.11	0.6023
3887.16	0.6074
3896.22	0.6071
3905.28	0.6063
3914.33	0.6
3923.39	0.6071
3932.44	0.6088
3941.5	0.6053
3950.56	0.6009
3959.61	0.5985
3968.67	0.5951
3977.73	0.5978
3986.78	0.5993
3995.84	0.5993
4004.9	0.5971
4013.95	0.6036
