Infrared Spectrum: 4-Amino-3-chlorobenzonitrile
Formula: C 7 H 5 Cl N 2
CAS: 21803-75-8
State: gas
Origin: EPA-IR VAPOR PHASE LIBRARY
1/CM	ABSORBANCE
549.8	0.007032
559.445	0.007462
569.09	0.010122
578.734	0.013672
588.379	0.023532
598.024	0.015122
607.669	0.011732
617.313	0.010532
626.958	0.009882
636.603	0.012452
646.248	0.014422
655.893	0.015642
665.537	0.015232
675.182	0.015222
684.827	0.015292
694.472	0.018012
704.116	0.023082
713.761	0.027852
723.406	0.030492
733.051	0.027432
742.695	0.023052
752.34	0.023752
761.985	0.020182
771.63	0.012792
781.275	0.010652
790.919	0.012482
800.564	0.019862
810.209	0.031582
819.854	0.029692
829.498	0.019642
839.143	0.011842
848.788	0.009962
858.433	0.011932
868.078	0.013632
877.722	0.023342
887.367	0.032732
897.012	0.019972
906.657	0.009722
916.301	0.006642
925.946	0.006352
935.591	0.005962
945.236	0.005192
954.88	0.004592
964.525	0.004302
974.17	0.004162
983.815	0.004042
993.46	0.003692
1003.1	0.003962
1012.75	0.004492
1022.39	0.003162
1032.04	0.004442
1041.68	0.007372
1051.33	0.011782
1060.97	0.015372
1070.62	0.015052
1080.26	0.010862
1089.91	0.006392
1099.55	0.005202
1109.2	0.002682
1118.84	0.002272
1128.49	0.004072
1138.13	0.004832
1147.78	0.008992
1157.42	0.015262
1167.07	0.013512
1176.71	0.007812
1186.36	0.013532
1196	0.031502
1205.64	0.029402
1215.29	0.007232
1224.93	0.004242
1234.58	0.004422
1244.22	0.004252
1253.87	0.005132
1263.51	0.004672
1273.16	0.006472
1282.8	0.010602
1292.45	0.024042
1302.09	0.040842
1311.74	0.045962
1321.38	0.030062
1331.03	0.009072
1340.67	0.003692
1350.32	0.002732
1359.96	0.002282
1369.61	0.002032
1379.25	0.002502
1388.9	0.005262
1398.54	0.009232
1408.18	0.012652
1417.83	0.009412
1427.47	0.003912
1437.12	0.002612
1446.76	0.002812
1456.41	0.003622
1466.05	0.007152
1475.7	0.012632
1485.34	0.024482
1494.99	0.074142
1504.63	0.103662
1514.28	0.058252
1523.92	0.021872
1533.57	0.012332
1543.21	0.008522
1552.86	0.007742
1562.5	0.008602
1572.15	0.009062
1581.79	0.011112
1591.44	0.017962
1601.08	0.036102
1610.73	0.080112
1620.37	0.129602
1630.01	0.114662
1639.66	0.057882
1649.3	0.022322
1658.95	0.011082
1668.59	0.007342
1678.24	0.005202
1687.88	0.003192
1697.53	0.002622
1707.17	0.002832
1716.82	0.002852
1726.46	0.002962
1736.11	0.003032
1745.75	0.003602
1755.4	0.004082
1765.04	0.004362
1774.69	0.004372
1784.33	0.003322
1793.98	0.002002
1803.62	0.0016248
1813.27	0.001792
1822.91	0.0016248
1832.55	0.0015855
1842.2	0.0015813
1851.84	0.0015246
1861.49	0.001932
1871.13	0.003092
1880.78	0.003572
1890.42	0.003032
1900.07	0.0016687
1909.71	0.0014876
1919.36	0.0012676
1929	0.0013873
1938.65	0.0013861
1948.29	0.001572
1957.94	0.0015161
1967.58	0.0017433
1977.23	0.0015683
1986.87	0.0015668
1996.52	0.001772
2006.16	0.001802
2015.81	0.0016679
2025.45	0.001862
2035.1	0.001872
2044.74	0.001972
2054.38	0.001802
2064.03	0.001912
2073.67	0.001902
2083.32	0.001942
2092.96	0.0016574
2102.61	0.0014626
2112.25	0.0013747
2121.9	0.0016992
2131.54	0.0012367
2141.19	0.0014392
2150.83	0.0013027
2160.48	0.0013674
2170.12	0.0016017
2179.77	0.001892
2189.41	0.002092
2199.06	0.002222
2208.7	0.004002
2218.35	0.011772
2227.99	0.026472
2237.64	0.024212
2247.28	0.005742
2256.92	0.002442
2266.57	0.002142
2276.21	0.001912
2285.86	0.001331
2295.5	0.0016036
2305.15	0.0017065
2314.79	0.0014906
2324.44	0.0016236
2334.08	0.0016614
2343.73	0.001922
2353.37	0.002172
2363.02	0.0016568
2372.66	0.0015253
2382.31	0.0014697
2391.95	0.0015981
2401.6	0.0016707
2411.24	0.0011803
2420.89	0.0011248
2430.53	0.0010152
2440.18	0.00077454
2449.82	0.0012443
2459.47	0.0014919
2469.11	0.0012119
2478.75	0.0012835
2488.4	0.0014883
2498.04	0.0011886
2507.69	0.0013085
2517.33	0.001659
2526.98	0.0014589
2536.62	0.0014483
2546.27	0.002412
2555.91	0.002722
2565.56	0.002892
2575.2	0.002452
2584.85	0.002112
2594.49	0.002062
2604.14	0.002462
2613.78	0.003002
2623.43	0.002822
2633.07	0.002322
2642.72	0.001812
2652.36	0.001852
2662.01	0.0014525
2671.65	0.0011362
2681.29	0.0013144
2690.94	0.0014194
2700.58	0.001278
2710.23	0.0010879
2719.87	0.001064
2729.52	0.00076031
2739.16	0.00065
2748.81	0.0010269
2758.45	0.0006968
2768.1	0.0012758
2777.74	0.0012382
2787.39	0.0012383
2797.03	0.00079061
2806.68	0.0012224
2816.32	0.0012638
2825.97	0.0009025
2835.61	0.0009452
2845.26	0.00078922
2854.9	0.0006702
2864.55	0.0010217
2874.19	0.0012127
2883.84	0.0014259
2893.48	0.0012428
2903.12	0.0010119
2912.77	0.0013098
2922.41	0.0009973
2932.06	0.0014558
2941.7	0.0012429
2951.35	0.0010178
2960.99	0.000766882
2970.64	0.0009107
2980.28	0.0011215
2989.93	0.0015114
2999.57	0.001932
3009.22	0.0016401
3018.86	0.002012
3028.51	0.002892
3038.15	0.004942
3047.8	0.005232
3057.44	0.003722
3067.09	0.003872
3076.73	0.004112
3086.38	0.003112
3096.02	0.002462
3105.67	0.002102
3115.31	0.0014267
3124.95	0.0013073
3134.6	0.0012668
3144.24	0.0010186
3153.89	0.0015872
3163.53	0.0015736
3173.18	0.0014339
3182.82	0.002052
3192.47	0.002102
3202.11	0.002692
3211.76	0.002352
3221.4	0.001782
3231.05	0.0010096
3240.69	0.0014919
3250.34	0.0014078
3259.98	0.0011462
3269.63	0.0009958
3279.27	0.0012562
3288.92	0.000594
3298.56	0.0008704
3308.21	0.0010051
3317.85	0.0011534
3327.49	0.0010527
3337.14	0.000578
3346.78	0.0010035
3356.43	0.0007206
3366.07	0.00064
3375.72	0.002002
3385.36	0.003492
3395.01	0.007592
3404.65	0.014412
3414.3	0.026022
3423.94	0.029882
3433.59	0.023822
3443.23	0.013942
3452.88	0.007362
3462.52	0.003642
3472.17	0.004232
3481.81	0.004662
3491.46	0.007232
3501.1	0.011322
3510.75	0.013912
3520.39	0.014252
3530.04	0.012072
3539.68	0.009752
3549.32	0.007602
3558.97	0.004052
3568.61	0.002042
3578.26	0.0015297
3587.9	0.0011168
3597.55	0.0009973
3607.19	0.00061
3616.84	0.000218
3626.48	0.000627
3636.13	0.00078346
3645.77	0.00075249
3655.42	0.00075716
3665.06	0.000645
3674.71	0.000769915
3684.35	0.0010903
3694	0.000511
3703.64	0.00048
3713.29	0.000611
3722.93	0.000409
3732.58	0.0010046
3742.22	0.000514
3751.86	0.000335
3761.51	0.000771104
3771.15	0.0011237
3780.8	0.000762088
3790.44	0.0008643
3800.09	0.0013111
3809.73	0.0011503
3819.38	0.0012685
3829.02	0.0010157
3838.67	0.0013452
3848.31	0.0017525
3857.96	0.0014707
3867.6	0.001842
3877.25	0.0013394
3886.89	0.0010267
3896.54	0.0014821
3906.18	0.0017303
3915.83	0.0011246
3925.47	0.000613
3935.12	0.0014682
3944.76	0.0009822
3954.41	0.0010941
3964.05	0.0015738
3973.69	0.0016567
3983.34	0.0010843
3992.98	0.00082545
