Infrared Spectrum: 4,4'-Bis(2-hydroxyhexafluoroisopropyl)diphenyl
Formula: C 18 H 10 F 12 O 2
CAS: 2180-30-5
State: gas
Origin: EPA-IR VAPOR PHASE LIBRARY
1/CM	ABSORBANCE
549.8	0.01889
559.445	0.01327
569.09	0.01181
578.735	0.00755
588.38	0.00574
598.025	0.00514
607.67	0.00493
617.315	0.00497
626.96	0.00523
636.605	0.00485
646.251	0.00523
655.896	0.00535
665.541	0.01783
675.186	0.0097
684.831	0.00645
694.476	0.0121
704.121	0.05568
713.766	0.06423
723.411	0.02494
733.056	0.04192
742.701	0.03531
752.346	0.04615
761.991	0.01285
771.636	0.00758
781.281	0.00515
790.926	0.0064
800.571	0.00902
810.216	0.02769
819.861	0.08136
829.507	0.02938
839.152	0.01802
848.797	0.01754
858.442	0.00991
868.087	0.00874
877.732	0.00902
887.377	0.01172
897.022	0.01969
906.667	0.04752
916.312	0.14327
925.957	0.14259
935.602	0.09121
945.247	0.08485
954.892	0.067
964.537	0.09079
974.182	0.09484
983.827	0.0461
993.472	0.02776
1003.12	0.04349
1012.76	0.02527
1022.41	0.01714
1032.05	0.01719
1041.7	0.01757
1051.34	0.01655
1060.99	0.01861
1070.63	0.02409
1080.28	0.03813
1089.92	0.08136
1099.57	0.1353
1109.21	0.09043
1118.86	0.05065
1128.5	0.04792
1138.15	0.06444
1147.79	0.09269
1157.44	0.17208
1167.08	0.29065
1176.73	0.25735
1186.37	0.20536
1196.02	0.24283
1205.66	0.30411
1215.31	0.54394
1224.95	0.55917
1234.6	0.4569
1244.24	0.41846
1253.89	0.4399
1263.53	0.47098
1273.18	0.37311
1282.82	0.27586
1292.47	0.17471
1302.11	0.10178
1311.76	0.06764
1321.4	0.05996
1331.05	0.03605
1340.69	0.02632
1350.34	0.0259
1359.98	0.02772
1369.63	0.02968
1379.27	0.02243
1388.92	0.01478
1398.56	0.01372
1408.21	0.01251
1417.85	0.00925
1427.5	0.00683
1437.14	0.00556
1446.79	0.00515
1456.43	0.00541
1466.08	0.00672
1475.73	0.00919
1485.37	0.01367
1495.02	0.02886
1504.66	0.03941
1514.31	0.01587
1523.95	0.00897
1533.6	0.0062
1543.24	0.00544
1552.89	0.00575
1562.53	0.0057
1572.18	0.00503
1581.82	0.00466
1591.47	0.00531
1601.11	0.0084
1610.76	0.01347
1620.4	0.00651
1630.05	0.00372
1639.69	0.00356
1649.34	0.00439
1658.98	0.00374
1668.63	0.00352
1678.27	0.00399
1687.92	0.00347
1697.56	0.00286
1707.21	0.002664
1716.85	0.00285
1726.5	0.0026066
1736.14	0.0025351
1745.79	0.0025108
1755.43	0.0024319
1765.08	0.0026101
1774.72	0.00316
1784.37	0.00382
1794.01	0.00566
1803.66	0.00434
1813.3	0.0024987
1822.95	0.002083
1832.59	0.001832
1842.24	0.00177697
1851.88	0.00173709
1861.53	0.001911
1871.17	0.0018873
1880.82	0.0021189
1890.46	0.00271
1900.11	0.00329
1909.75	0.00464
1919.4	0.00493
1929.04	0.00358
1938.69	0.00268
1948.33	0.0019083
1957.98	0.0016062
1967.62	0.00169969
1977.27	0.0018925
1986.91	0.00173979
1996.56	0.00169799
2006.2	0.0015809
2015.85	0.001414
2025.49	0.001363
2035.14	0.001317
2044.78	0.001212
2054.43	0.001104
2064.07	0.001033
2073.72	0.001052
2083.36	0.001176
2093.01	0.001382
2102.65	0.0016059
2112.3	0.00171012
2121.94	0.0021503
2131.59	0.0024021
2141.23	0.0023561
2150.88	0.0020894
2160.52	0.0019322
2170.17	0.0018674
2179.81	0.0020837
2189.46	0.0022153
2199.1	0.0022076
2208.75	0.0020268
2218.39	0.0018038
2228.04	0.0016486
2237.68	0.0016269
2247.33	0.0015841
2256.97	0.001491
2266.62	0.001513
2276.26	0.001573
2285.91	0.001571
2295.55	0.0018745
2305.2	0.0020588
2314.84	0.0020843
2324.49	0.0024135
2334.13	0.00306
2343.78	0.00324
2353.42	0.00334
2363.07	0.00324
2372.72	0.00315
2382.36	0.00305
2392.01	0.00285
2401.65	0.0025257
2411.3	0.0023269
2420.94	0.0023039
2430.59	0.0022055
2440.23	0.0021993
2449.88	0.0020851
2459.52	0.0020442
2469.17	0.0019992
2478.81	0.0019508
2488.46	0.00174716
2498.1	0.001577
2507.75	0.001437
2517.39	0.001303
2527.04	0.001256
2536.68	0.001127
2546.33	0.001035
2555.97	0.000958
2565.62	0.000815
2575.26	0.000789
2584.91	0.000693
2594.55	0.000741
2604.2	0.000803
2613.84	0.000911
2623.49	0.000937
2633.13	0.000833
2642.78	0.000748
2652.42	0.00064
2662.07	0.00061
2671.71	0.00068
2681.36	0.00067
2691	0.000704
2700.65	0.000805
2710.29	0.000909
2719.94	0.000955
2729.58	0.000849
2739.23	0.001013
2748.87	0.000697
2758.52	0.00056
2768.16	0.00057
2777.81	0.00064
2787.45	0.00059
2797.1	0.00042
2806.74	0.00059
2816.39	0.00049
2826.03	0.00047
2835.68	0.00047
2845.32	0.00043
2854.97	0.00034
2864.61	0.00049
2874.26	0.00051
2883.9	0.000696
2893.55	0.000745
2903.19	0.00063
2912.84	0.00057
2922.48	0.00038
2932.13	0.00037
2941.77	0.00046
2951.42	0.0002
2961.06	0.00032
2970.71	0.0004
2980.35	0.00047
2990	0.00056
2999.64	0.000827
3009.29	0.001197
3018.93	0.0018585
3028.58	0.0024301
3038.22	0.00467
3047.87	0.01067
3057.51	0.00887
3067.16	0.0053
3076.8	0.00269
3086.45	0.00291
3096.09	0.00292
3105.74	0.00366
3115.38	0.00287
3125.03	0.00143
3134.67	0.001064
3144.32	0.000815
3153.96	0.0005
3163.61	0.00013
3173.25	0
3182.9	2e-05
3192.54	0.00012
3202.19	0.0001
3211.83	0.00021
3221.48	0.00023
3231.12	0.00023
3240.77	0.00044
3250.41	0.00052
3260.06	0.000914
3269.7	0.000847
3279.35	0.000995
3289	0.001012
3298.64	0.001156
3308.29	0.000903
3317.93	0.001006
3327.58	0.001128
3337.22	0.000953
3346.87	0.001123
3356.51	0.001114
3366.16	0.001134
3375.8	0.001217
3385.45	0.00104
3395.09	0.001131
3404.74	0.000985
3414.38	0.000938
3424.03	0.001081
3433.67	0.00105
3443.32	0.001024
3452.96	0.001017
3462.61	0.000939
3472.25	0.000892
3481.9	0.00098
3491.54	0.001048
3501.19	0.000924
3510.83	0.001045
3520.48	0.001053
3530.12	0.001037
3539.77	0.001189
3549.41	0.001176
3559.06	0.001411
3568.7	0.0018086
3578.35	0.0021136
3587.99	0.00296
3597.64	0.00497
3607.28	0.00973
3616.93	0.03288
3626.57	0.16024
3636.22	0.04865
3645.86	0.01615
3655.51	0.00727
3665.15	0.00451
3674.8	0.00348
3684.44	0.0026511
3694.09	0.0022661
3703.73	0.0019875
3713.38	0.0016691
3723.02	0.0018051
3732.67	0.0016065
3742.31	0.001349
3751.96	0.001447
3761.6	0.001349
3771.25	0.001419
3780.89	0.001239
3790.54	0.001334
3800.18	0.001491
3809.83	0.001387
3819.47	0.001518
3829.12	0.001519
3838.76	0.0017868
3848.41	0.0016067
3858.05	0.0017113
3867.7	0.0018283
3877.34	0.00172875
3886.99	0.00176415
3896.63	0.0019347
3906.28	0.0019247
3915.92	0.0018454
3925.57	0.0018132
3935.21	0.0018854
3944.86	0.00171887
3954.5	0.0018742
3964.15	0.0018196
3973.79	0.001633
3983.44	0.00173476
3993.08	0.0017899
