Infrared Spectrum: CIS-1-CYANO-1,3-BUTADIENE
Formula: C5 H5 N
CAS: 2180-69-0
State: LIQUID (NEAT)
Class: COBLENTZ III
Instrument: PERKIN-ELMER 521 (GRATING)
Sampling: TRANSMISSION
Path length: 0.0052 CM
Resolution: 4
Origin: STANDARD OIL OF OHIO
1/CM	TRANSMITTANCE
647.291	0.445
655.751	0.2236
664.211	0.032
672.672	0.032
681.132	0.3072
689.592	0.5384
698.052	0.588
706.513	0.6405
714.973	0.7128
723.433	0.7349
731.893	0.7301
740.354	0.7081
748.814	0.6482
757.274	0.4808
765.734	0.2466
774.195	0.0178
782.655	0.01
791.115	0.0765
799.575	0.3007
808.036	0.5309
816.496	0.6317
824.956	0.6985
833.416	0.7377
841.876	0.754
850.337	0.769
858.797	0.7642
867.257	0.7384
875.717	0.6607
884.178	0.397
892.638	0.5625
901.098	0.6065
909.558	0.5017
918.019	0.2587
926.479	0.0249
934.939	0.006
943.399	0.006
951.86	0.0078
960.32	0.0252
968.78	0.1518
977.24	0.3531
985.701	0.3429
994.161	0.1645
1002.62	0.027
1011.08	0.0586
1019.54	0.2794
1028	0.5357
1036.46	0.6298
1044.92	0.658
1053.38	0.643
1061.84	0.638
1070.3	0.643
1078.76	0.6497
1087.22	0.6722
1095.68	0.7088
1104.14	0.7093
1112.6	0.6948
1121.06	0.6698
1129.52	0.6238
1137.98	0.5318
1146.45	0.5327
1154.91	0.6497
1163.37	0.6992
1171.83	0.7569
1180.29	0.7823
1188.75	0.7921
1197.21	0.796
1205.67	0.7934
1214.13	0.7556
1222.59	0.568
1231.05	0.2543
1239.51	0.4548
1247.97	0.655
1256.43	0.7181
1264.89	0.723
1273.35	0.7113
1281.81	0.6947
1290.27	0.6417
1298.73	0.2486
1307.19	0.5214
1315.65	0.742
1324.11	0.8093
1332.57	0.8069
1341.03	0.7826
1349.49	0.6832
1357.95	0.4249
1366.41	0.4607
1374.87	0.7708
1383.33	0.8022
1391.79	0.803
1400.25	0.7855
1408.71	0.7491
1417.17	0.7088
1425.63	0.4195
1434.09	0.5462
1442.55	0.5617
1451.01	0.6143
1459.47	0.7381
1467.93	0.8379
1476.39	0.888
1484.85	0.8984
1493.31	0.9049
1501.78	0.9013
1510.24	0.8943
1518.7	0.8221
1527.16	0.7579
1535.62	0.549
1544.08	0.419
1552.54	0.3367
1561	0.2225
1569.46	0.052
1577.92	0.1728
1586.38	0.5538
1594.84	0.6648
1603.3	0.6596
1611.76	0.565
1620.22	0.3655
1628.68	0.1717
1637.14	0.5122
1645.6	0.7415
1654.06	0.794
1662.52	0.8169
1670.98	0.8409
1679.44	0.8623
1687.9	0.8813
1696.36	0.8692
1704.82	0.8315
1713.28	0.753
1721.74	0.6543
1730.2	0.5741
1738.66	0.5893
1747.12	0.6567
1755.58	0.7297
1764.04	0.7689
1772.5	0.7679
1780.96	0.7613
1789.42	0.8034
1797.88	0.8831
1806.34	0.9248
1814.8	0.9454
1823.26	0.9474
1831.72	0.9288
1840.18	0.8885
1848.64	0.8017
1857.11	0.6889
1865.57	0.5502
1874.03	0.5
1882.49	0.5162
1890.95	0.5493
1899.41	0.5999
1907.87	0.6798
1916.33	0.7444
1924.79	0.7925
1933.25	0.8347
1941.71	0.854
1950.17	0.8243
1958.63	0.791
1967.09	0.844
1975.55	0.8986
1984.01	0.9357
1992.47	0.9351
2000.93	0.9427
2009.39	0.9627
2017.85	0.9751
2026.31	0.9885
2034.77	0.9971
2043.23	1
2051.69	1.001
2060.15	0.9994
2068.61	0.9919
2077.07	1.001
2085.53	1.0041
2093.99	1.005
2102.45	0.998
2110.91	0.9919
2119.37	0.9899
2127.83	0.9935
2136.29	0.9804
2144.75	0.974
2153.21	0.9643
2161.67	0.8821
2170.13	0.8526
2178.59	0.9194
2187.05	0.8609
2195.51	0.7944
2203.97	0.3616
2212.44	0.0284
2220.9	0.0175
2229.36	0.3571
2237.82	0.3902
2246.28	0.5748
2254.74	0.8085
2263.2	0.9015
2271.66	0.9149
2280.12	0.914
2288.58	0.9158
2297.04	0.8952
2305.5	0.8188
2313.96	0.8308
2322.42	0.9043
2330.88	0.9405
2339.34	0.948
2347.8	0.9541
2356.26	0.967
2364.72	0.967
2373.18	0.967
2381.64	0.967
2390.1	0.9751
2398.56	0.9801
2407.02	0.9779
2415.48	0.976
2423.94	0.9679
2432.4	0.9473
2440.86	0.9249
2449.32	0.8966
2457.78	0.8879
2466.24	0.9429
2474.7	0.96
2483.16	0.9525
2491.62	0.9419
2500.08	0.9194
2508.54	0.9221
2517	0.9199
2525.46	0.907
2533.92	0.9239
2542.38	0.9516
2550.84	0.9568
2559.3	0.9489
2567.77	0.9491
2576.23	0.9525
2584.69	0.952
2593.15	0.9611
2601.61	0.9711
2610.07	0.976
2618.53	0.976
2626.99	0.977
2635.45	0.9749
2643.91	0.9604
2652.37	0.9475
2660.83	0.9503
2669.29	0.96
2677.75	0.96
2686.21	0.9534
2694.67	0.945
2703.13	0.938
2711.59	0.94
2720.05	0.9441
2728.51	0.9541
2736.97	0.9559
2745.43	0.9439
2753.89	0.9328
2762.35	0.9129
2770.81	0.911
2779.27	0.8929
2787.73	0.9108
2796.19	0.9219
2804.65	0.921
2813.11	0.919
2821.57	0.9149
2830.03	0.9038
2838.49	0.892
2846.95	0.8569
2855.41	0.8223
2863.87	0.7987
2872.33	0.7808
2880.79	0.778
2889.25	0.7697
2897.71	0.7502
2906.17	0.694
2914.63	0.6274
2923.1	0.5838
2931.56	0.6919
2940.02	0.7191
2948.48	0.7069
2956.94	0.68
2965.4	0.6246
2973.86	0.6507
2982.32	0.6237
2990.78	0.573
2999.24	0.4617
3007.7	0.3347
3016.16	0.4446
3024.62	0.5238
3033.08	0.5203
3041.54	0.4508
3050	0.3618
3058.46	0.2388
3066.92	0.1322
3075.38	0.0918
3083.84	0.2842
3092.3	0.2818
3100.76	0.3488
3109.22	0.5446
3117.68	0.6406
3126.14	0.6677
3134.6	0.6759
3143.06	0.67
3151.52	0.7218
3159.98	0.7461
3168.44	0.749
3176.9	0.7581
3185.36	0.769
3193.82	0.7735
3202.28	0.8041
3210.74	0.8236
3219.2	0.8342
3227.66	0.843
3236.12	0.8535
3244.58	0.8632
3253.04	0.87
3261.5	0.8775
3269.96	0.8861
3278.43	0.8909
3286.89	0.892
3295.35	0.892
3303.81	0.894
3312.27	0.892
3320.73	0.8909
3329.19	0.892
3337.65	0.8893
3346.11	0.8839
3354.57	0.882
3363.03	0.889
3371.49	0.889
3379.95	0.885
3388.41	0.887
3396.87	0.882
3405.33	0.8775
3413.79	0.875
3422.25	0.8655
3430.71	0.8605
3439.17	0.8469
3447.63	0.8399
3456.09	0.8329
3464.55	0.8217
3473.01	0.8089
3481.47	0.7978
3489.93	0.7783
3498.39	0.7624
3506.85	0.7418
3515.31	0.7269
3523.77	0.725
3532.23	0.7205
3540.69	0.725
3549.15	0.7291
3557.61	0.7456
3566.07	0.7511
3574.53	0.7896
3582.99	0.8111
3591.45	0.813
3599.91	0.817
3608.37	0.8159
3616.83	0.813
3625.3	0.813
3633.76	0.8139
3642.22	0.826
3650.68	0.8496
3659.14	0.8693
3667.6	0.9101
3676.06	0.9291
3684.52	0.9541
3692.98	0.96
3701.44	0.9645
3709.9	0.965
3718.36	0.965
3726.82	0.962
3735.28	0.9559
3743.74	0.9419
3752.2	0.9369
3760.66	0.9224
3769.12	0.9099
3777.58	0.907
3786.04	0.9214
3794.5	0.9525
3802.96	0.964
3811.42	0.957
3819.88	0.9539
3828.34	0.9459
3836.8	0.9486
3845.26	0.9708
3853.72	0.979
3862.18	0.9815
3870.64	0.981
3879.1	0.982
3887.56	0.982
3896.02	0.976
3904.48	0.9709
3912.94	0.965
3921.4	0.96
3929.86	0.957
3938.32	0.955
