Infrared Spectrum: TRANS-1-CYANO-1,3-BUTADIENE
Formula: C5 H5 N
CAS: 2180-68-9
State: LIQUID (NEAT)
Class: COBLENTZ III
Instrument: PERKIN-ELMER 521 (GRATING)
Sampling: TRANSMISSION
Path length: 0.0052 CM
Resolution: 4
Origin: STANDARD OIL OF OHIO
1/CM	TRANSMITTANCE
649.321	0.605
657.781	0.6179
666.241	0.6468
674.702	0.6955
683.162	0.7367
691.622	0.7585
700.082	0.7904
708.543	0.8146
717.003	0.825
725.463	0.832
733.923	0.8134
742.384	0.8337
750.844	0.8372
759.304	0.8322
767.764	0.8106
776.225	0.7901
784.685	0.7815
793.145	0.7255
801.605	0.6609
810.066	0.5527
818.526	0.2871
826.986	0.0381
835.446	0.011
843.906	0.1237
852.367	0.4284
860.827	0.5321
869.287	0.542
877.747	0.54
886.208	0.5538
894.668	0.5426
903.128	0.4597
911.588	0.2798
920.049	0.0153
928.509	0.0069
936.969	0.008
945.429	0.009
953.89	0.0055
962.35	0.018
970.81	0.0995
979.27	0.1016
987.731	0.0303
996.191	0.022
1004.65	0.0208
1013.11	0.0249
1021.57	0.1192
1030.03	0.2938
1038.49	0.3925
1046.95	0.4477
1055.41	0.4543
1063.87	0.4649
1072.33	0.4754
1080.79	0.509
1089.25	0.562
1097.71	0.5618
1106.17	0.5439
1114.63	0.5088
1123.09	0.474
1131.55	0.5069
1140.01	0.5644
1148.48	0.6204
1156.94	0.6644
1165.4	0.6586
1173.86	0.5774
1182.32	0.7078
1190.78	0.7423
1199.24	0.757
1207.7	0.7519
1216.16	0.7501
1224.62	0.754
1233.08	0.7399
1241.54	0.688
1250	0.4504
1258.46	0.3061
1266.92	0.5734
1275.38	0.5318
1283.84	0.3128
1292.3	0.2028
1300.76	0.3747
1309.22	0.543
1317.68	0.6361
1326.14	0.7095
1334.6	0.7601
1343.06	0.7595
1351.52	0.7465
1359.98	0.7686
1368.44	0.7744
1376.9	0.7674
1385.36	0.7489
1393.82	0.6503
1402.28	0.5312
1410.74	0.39
1419.2	0.2941
1427.66	0.7278
1436.12	0.7631
1444.58	0.793
1453.04	0.805
1461.5	0.8078
1469.96	0.8074
1478.42	0.8268
1486.88	0.8628
1495.34	0.9085
1503.81	0.9303
1512.27	0.9387
1520.73	0.9353
1529.19	0.9144
1537.65	0.8854
1546.11	0.8376
1554.57	0.6887
1563.03	0.5339
1571.49	0.3375
1579.95	0.0552
1588.41	0.0775
1596.87	0.3819
1605.33	0.503
1613.79	0.3159
1622.25	0.057
1630.71	0.1095
1639.17	0.3508
1647.63	0.6841
1656.09	0.7386
1664.55	0.7608
1673.01	0.798
1681.47	0.8283
1689.93	0.8455
1698.39	0.8443
1706.85	0.8109
1715.31	0.6785
1723.77	0.6152
1732.23	0.6783
1740.69	0.7504
1749.15	0.7835
1757.61	0.7914
1766.07	0.8283
1774.53	0.8496
1782.99	0.8274
1791.45	0.8235
1799.91	0.8554
1808.37	0.8793
1816.83	0.8736
1825.29	0.8146
1833.75	0.7058
1842.21	0.611
1850.67	0.5441
1859.14	0.4912
1867.6	0.4979
1876.06	0.5394
1884.52	0.5879
1892.98	0.6097
1901.44	0.6658
1909.9	0.7261
1918.36	0.7934
1926.82	0.8492
1935.28	0.872
1943.74	0.8545
1952.2	0.8375
1960.66	0.8507
1969.12	0.889
1977.58	0.9191
1986.04	0.9438
1994.5	0.925
2002.96	0.966
2011.42	0.969
2019.88	0.974
2028.34	0.976
2036.8	0.9675
2045.26	0.966
2053.72	0.9767
2062.18	0.979
2070.64	0.981
2079.1	0.981
2087.56	0.979
2096.02	0.983
2104.48	0.9768
2112.94	0.9663
2121.4	0.964
2129.86	0.9663
2138.32	0.964
2146.78	0.9595
2155.24	0.9433
2163.7	0.848
2172.16	0.8043
2180.62	0.8945
2189.08	0.8021
2197.54	0.7225
2206	0.2931
2214.47	0.0033
2222.93	0
2231.39	0.2644
2239.85	0.6456
2248.31	0.7674
2256.77	0.7358
2265.23	0.6917
2273.69	0.8752
2282.15	0.9259
2290.61	0.933
2299.07	0.924
2307.53	0.931
2315.99	0.9565
2324.45	0.961
2332.91	0.9635
2341.37	0.966
2349.83	0.9667
2358.29	0.971
2366.75	0.974
2375.21	0.981
2383.67	0.9855
2392.13	0.9845
2400.59	0.983
2409.05	0.9718
2417.51	0.9548
2425.97	0.9395
2434.43	0.96
2442.89	0.962
2451.35	0.9543
2459.81	0.9443
2468.27	0.9447
2476.73	0.9547
2485.19	0.966
2493.65	0.969
2502.11	0.951
2510.57	0.9283
2519.03	0.9158
2527.49	0.896
2535.95	0.894
2544.41	0.891
2552.87	0.886
2561.33	0.891
2569.8	0.891
2578.26	0.889
2586.72	0.8611
2595.18	0.8699
2603.64	0.9287
2612.1	0.94
2620.56	0.935
2629.02	0.932
2637.48	0.9365
2645.94	0.948
2654.4	0.9428
2662.86	0.9283
2671.32	0.9013
2679.78	0.9007
2688.24	0.908
2696.7	0.9175
2705.16	0.922
2713.62	0.9245
2722.08	0.927
2730.54	0.9235
2739	0.925
2747.46	0.9223
2755.92	0.9085
2764.38	0.906
2772.84	0.8985
2781.3	0.8933
2789.76	0.891
2798.22	0.883
2806.68	0.8763
2815.14	0.8695
2823.6	0.8533
2832.06	0.8165
2840.52	0.7663
2848.98	0.7513
2857.44	0.7106
2865.9	0.6523
2874.36	0.6023
2882.82	0.592
2891.28	0.6342
2899.74	0.6435
2908.2	0.6373
2916.66	0.6305
2925.13	0.6295
2933.59	0.63
2942.05	0.6223
2950.51	0.622
2958.97	0.6165
2967.43	0.5798
2975.89	0.5751
2984.35	0.6003
2992.81	0.5636
3001.27	0.4676
3009.73	0.2312
3018.19	0.2432
3026.65	0.2857
3035.11	0.395
3043.57	0.3375
3052.03	0.1511
3060.49	0.2271
3068.95	0.3932
3077.41	0.5002
3085.87	0.4578
3094.33	0.3636
3102.79	0.4868
3111.25	0.6541
3119.71	0.7057
3128.17	0.7282
3136.63	0.7442
3145.09	0.7485
3153.55	0.7448
3162.01	0.7385
3170.47	0.7345
3178.93	0.7542
3187.39	0.771
3195.85	0.7663
3204.31	0.7613
3212.77	0.7146
3221.23	0.5888
3229.69	0.693
3238.15	0.7932
3246.61	0.8122
3255.07	0.8195
3263.53	0.8315
3271.99	0.8485
3280.46	0.8515
3288.92	0.855
3297.38	0.857
3305.84	0.8575
3314.3	0.8525
3322.76	0.847
3331.22	0.8455
3339.68	0.845
3348.14	0.847
3356.6	0.8443
3365.06	0.838
3373.52	0.8323
3381.98	0.827
3390.44	0.8185
3398.9	0.81
3407.36	0.8038
3415.82	0.8
3424.28	0.7915
3432.74	0.7833
3441.2	0.768
3449.66	0.7613
3458.12	0.7395
3466.58	0.7168
3475.04	0.6873
3483.5	0.6718
3491.96	0.6575
3500.42	0.632
3508.88	0.6208
3517.34	0.613
3525.8	0.615
3534.26	0.6215
3542.72	0.6425
3551.18	0.6657
3559.64	0.7032
3568.1	0.7245
3576.56	0.7492
3585.02	0.7617
3593.48	0.7762
3601.94	0.7832
3610.4	0.7905
3618.86	0.7955
3627.33	0.8095
3635.79	0.8245
3644.25	0.8415
3652.71	0.8497
3661.17	0.8645
3669.63	0.9159
3678.09	0.9375
3686.55	0.9635
3695.01	0.9712
3703.47	0.981
3711.93	0.984
3720.39	0.981
3728.85	0.981
3737.31	0.981
3745.77	0.981
3754.23	0.981
3762.69	0.9837
3771.15	0.981
3779.61	0.973
3788.07	0.9491
3796.53	0.9223
3804.99	0.9402
3813.45	0.957
3821.91	0.951
3830.37	0.9385
3838.83	0.9377
3847.29	0.953
3855.75	0.9667
3864.21	0.9717
3872.67	0.972
3881.13	0.974
3889.59	0.974
3898.05	0.976
3906.51	0.974
3914.97	0.974
3923.43	0.971
3931.89	0.962
3940.35	0.9595
