Infrared Spectrum: 3-Chlorobenzo[b]thiophene-2-carbonyl chloride
Formula: C 9 H 4 Cl 2 O S
CAS: 21815-91-8
State: gas
Origin: EPA-IR VAPOR PHASE LIBRARY
1/CM	ABSORBANCE
549.8	0.002043
559.445	0.002373
569.09	0.002053
578.734	0.009023
588.379	0.034833
598.024	0.016623
607.669	0.002993
617.313	0.003283
626.958	0.005103
636.603	0.005723
646.248	0.002903
655.893	0.001623
665.537	0.002703
675.182	0.006693
684.827	0.008823
694.472	0.009513
704.116	0.019143
713.761	0.015643
723.406	0.020803
733.051	0.038563
742.695	0.064123
752.34	0.048883
761.985	0.025003
771.63	0.013803
781.275	0.024043
790.919	0.016283
800.564	0.004783
810.209	0.003673
819.854	0.003513
829.498	0.004043
839.143	0.006063
848.788	0.012083
858.433	0.011743
868.078	0.007253
877.722	0.009133
887.367	0.017723
897.012	0.041383
906.657	0.048813
916.301	0.040483
925.946	0.028943
935.591	0.027333
945.236	0.053903
954.88	0.041483
964.525	0.010703
974.17	0.005993
983.815	0.004023
993.46	0.003223
1003.1	0.004673
1012.75	0.006063
1022.39	0.005283
1032.04	0.001953
1041.68	0.001543
1051.33	0.002673
1060.97	0.003463
1070.62	0.007563
1080.26	0.005263
1089.91	0.003183
1099.55	0.002263
1109.2	0.002003
1118.84	0.009273
1128.49	0.016633
1138.13	0.019663
1147.78	0.042833
1157.42	0.077453
1167.07	0.064493
1176.71	0.043713
1186.36	0.012443
1196	0.004983
1205.64	0.005153
1215.29	0.003393
1224.93	0.001993
1234.58	0.006143
1244.22	0.015883
1253.87	0.019753
1263.51	0.007563
1273.16	0.004003
1282.8	0.003633
1292.45	0.006153
1302.09	0.017013
1311.74	0.027473
1321.38	0.013803
1331.03	0.004843
1340.67	0.004083
1350.32	0.003763
1359.96	0.003523
1369.61	0.002923
1379.25	0.002273
1388.9	0.001923
1398.54	0.002273
1408.18	0.004573
1417.83	0.013163
1427.47	0.014423
1437.12	0.006613
1446.76	0.007383
1456.41	0.014153
1466.05	0.014713
1475.7	0.033813
1485.34	0.067493
1494.99	0.055843
1504.63	0.030163
1514.28	0.012693
1523.92	0.006223
1533.57	0.005233
1543.21	0.005043
1552.86	0.004793
1562.5	0.004103
1572.15	0.003203
1581.79	0.003793
1591.44	0.006683
1601.08	0.006693
1610.73	0.003623
1620.37	0.002153
1630.01	0.002033
1639.66	0.002273
1649.3	0.002743
1658.95	0.002673
1668.59	0.002913
1678.24	0.002873
1687.88	0.003543
1697.53	0.005293
1707.17	0.006253
1716.82	0.008813
1726.46	0.012783
1736.11	0.023593
1745.75	0.034363
1755.4	0.030753
1765.04	0.057233
1774.69	0.124193
1784.33	0.062043
1793.98	0.017983
1803.62	0.013083
1813.27	0.012333
1822.91	0.007483
1832.55	0.004353
1842.2	0.003563
1851.84	0.003243
1861.49	0.003193
1871.13	0.003043
1880.78	0.002943
1890.42	0.002523
1900.07	0.003033
1909.71	0.003713
1919.36	0.002513
1929	0.001723
1938.65	0.002073
1948.29	0.002643
1957.94	0.0014248
1967.58	0.0010783
1977.23	0.0010208
1986.87	0.0012557
1996.52	0.0013069
2006.16	0.0011095
2015.81	0.0009998
2025.45	0.0010431
2035.1	0.0009902
2044.74	0.0011876
2054.38	0.0012378
2064.03	0.0011499
2073.67	0.0011589
2083.32	0.0009861
2092.96	0.001112
2102.61	0.0009849
2112.25	0.0008943
2121.9	0.0010489
2131.54	0.0007905
2141.19	0.0008625
2150.83	0.0007784
2160.48	0.0006549
2170.12	0.0010143
2179.77	0.000788
2189.41	0.0012896
2199.06	0.0010282
2208.7	0.0010174
2218.35	0.0010442
2227.99	0.0009719
2237.64	0.0011548
2247.28	0.0009324
2256.92	0.0010717
2266.57	0.0013214
2276.21	0.0009145
2285.86	0.0009578
2295.5	0.0012514
2305.15	0.0011774
2314.79	0.0013427
2324.44	0.0014879
2334.08	0.0011374
2343.73	0.0010277
2353.37	0.0010305
2363.02	0.0007983
2372.66	0.000828
2382.31	0.0011297
2391.95	0.0008745
2401.6	0.0007622
2411.24	0.0010435
2420.89	0.0009745
2430.53	0.0011302
2440.18	0.0006685
2449.82	0.0009621
2459.47	0.0007513
2469.11	0.0010324
2478.75	0.0009171
2488.4	0.0009329
2498.04	0.0011536
2507.69	0.0006539
2517.33	0.0009681
2526.98	0.0009633
2536.62	0.0009998
2546.27	0.001045
2555.91	0.0009518
2565.56	0.0014346
2575.2	0.0010948
2584.85	0.0014308
2594.49	0.0009247
2604.14	0.0012012
2613.78	0.001085
2623.43	0.001633
2633.07	0.001573
2642.72	0.0014179
2652.36	0.0013977
2662.01	0.001563
2671.65	0.0014765
2681.29	0.0008794
2690.94	0.0009938
2700.58	0.0007818
2710.23	0.0010515
2719.87	0.0011127
2729.52	0.0011452
2739.16	0.0015196
2748.81	0.0009286
2758.45	0.0008011
2768.1	0.0009254
2777.74	0.00062436
2787.39	0.0006335
2797.03	0.0008988
2806.68	0.0009498
2816.32	0.0009546
2825.97	0.00083
2835.61	0.000715
2845.26	0.000761
2854.9	0.000893
2864.55	0.0010212
2874.19	0.0010682
2883.84	0.0007476
2893.48	0.0007809
2903.12	0.0007998
2912.77	0.0010005
2922.41	0.0010887
2932.06	0.0010792
2941.7	0.0012289
2951.35	0.0008552
2960.99	0.0011853
2970.64	0.000353
2980.28	0.0010554
2989.93	0.0009942
2999.57	0.0013572
3009.22	0.0014111
3018.86	0.0014482
3028.51	0.002043
3038.15	0.001923
3047.8	0.001793
3057.44	0.003253
3067.09	0.008943
3076.73	0.011433
3086.38	0.005923
3096.02	0.002593
3105.67	0.002323
3115.31	0.002253
3124.95	0.001623
3134.6	0.001643
3144.24	0.0009299
3153.89	0.0012414
3163.53	0.0008283
3173.18	0.00063298
3182.82	0.000729
3192.47	0.0007413
3202.11	0.0008771
3211.76	0.0011298
3221.4	0.0009029
3231.05	0.00060447
3240.69	0.001105
3250.34	0.0010487
3259.98	0.0010977
3269.63	0.001266
3279.27	0.0009289
3288.92	0.0008193
3298.56	0.0014682
3308.21	0.0004626
3317.85	0.0008318
3327.49	0.0010126
3337.14	0.0009675
3346.78	0.0008034
3356.43	0.0008164
3366.07	0.00056734
3375.72	0.0007475
3385.36	0.0006895
3395.01	0.0013385
3404.65	0.0009537
3414.3	0.000413
3423.94	0.0008931
3433.59	0.0008653
3443.23	0.0007311
3452.88	0.001703
3462.52	0.0010609
3472.17	0.0013553
3481.81	0.0009579
3491.46	0.0007657
3501.1	0.001653
3510.75	0.0013511
3520.39	0.0012965
3530.04	0.001653
3539.68	0.001793
3549.32	0.0015167
3558.97	0.0014341
3568.61	0.0014337
3578.26	0.0010053
3587.9	0.0004714
3597.55	0.0006589
3607.19	0.000116
3616.84	0.0009537
3626.48	0.00056668
3636.13	0.0012645
3645.77	0.0006724
3655.42	0.000536852
3665.06	0.000957
3674.71	0.0007343
3684.35	0.0010575
3694	0.0008401
3703.64	0.0009918
3713.29	0
3722.93	0.0008356
3732.58	0.001017
3742.22	0.000565
3751.86	0.0008136
3761.51	0.0008207
3771.15	0.0004536
3780.8	0.00058745
3790.44	0.0014574
3800.09	0.000413
3809.73	0.0006899
3819.38	0.0006491
3829.02	0.0012638
3838.67	0.0013084
3848.31	0.0009016
3857.96	0.0006726
3867.6	0.0009245
3877.25	0.0012022
3886.89	0.000427
3896.54	0.000327
3906.18	0.0009228
3915.83	0.0008239
3925.47	0.0008925
3935.12	0.0009688
3944.76	0.00060593
3954.41	0.0011683
3964.05	0.00060081
3973.69	0.0006449
3983.34	0.000533066
3992.98	0.0004911
