Infrared Spectrum: 1,4-CYCLOHEXANEDIACETIC ACID, DIMETHYL ESTER
Formula: C12 H20 O4
CAS: 21810-40-2
State: SOLUTION (10% CCl4 FOR 3800-1330, 10% CS2 FOR 1330-450 CM^-^1)
Class: COBLENTZ III
Instrument: DOW KBr FOREPRISM-GRATING
Instrument parameters: BLAZED AT 3.5, 12.0, 20.0 MICRON AND CHANGED AT 5.0, 7.5, 14.9 MICRON
Sampling: TRANSMISSION
Path length: 0.011 CM, 0.011 CM
Resolution: 2
Origin: DOW CHEMICAL COMPANY
1/CM	TRANSMITTANCE
3784	0.9094
3775	0.9091
3766	0.9106
3757	0.9108
3748	0.911
3739	0.9113
3730	0.9122
3721	0.912
3712	0.9124
3703	0.9128
3694	0.911
3685	0.9081
3676	0.9037
3667	0.9049
3658	0.9063
3649	0.9057
3640	0.9052
3631	0.9057
3622	0.9053
3613	0.9056
3604	0.9057
3595	0.906
3586	0.9056
3577	0.9049
3568	0.9034
3559	0.9016
3550	0.9008
3541	0.8995
3532	0.898
3523	0.8971
3514	0.8974
3505	0.8976
3496	0.8972
3487	0.8955
3478	0.8904
3469	0.8805
3460	0.8661
3451	0.8504
3442	0.8428
3433	0.8536
3424	0.8721
3415	0.8867
3406	0.8986
3397	0.9014
3388	0.9022
3379	0.9028
3370	0.9041
3361	0.9028
3352	0.9027
3343	0.9029
3334	0.903
3325	0.9033
3316	0.9035
3307	0.904
3298	0.9042
3289	0.9045
3280	0.9052
3271	0.9064
3262	0.9065
3253	0.9061
3244	0.9051
3235	0.9049
3226	0.9034
3217	0.9044
3208	0.9035
3199	0.9036
3190	0.9005
3181	0.8963
3172	0.8929
3163	0.8917
3154	0.8901
3145	0.8881
3136	0.8883
3127	0.8873
3118	0.8864
3109	0.8853
3100	0.8859
3091	0.8858
3082	0.8801
3073	0.8794
3064	0.8727
3055	0.8678
3046	0.8625
3037	0.8563
3028	0.8318
3019	0.8105
3010	0.7982
3001	0.7888
2992	0.7753
2983	0.7402
2974	0.6432
2965	0.4983
2956	0.4297
2947	0.2759
2938	0.1243
2929	0.0674
2920	0.0649
2911	0.0703
2902	0.2395
2893	0.2695
2884	0.2454
2875	0.4125
2866	0.4487
2857	0.4
2848	0.2078
2839	0.3398
2830	0.6661
2821	0.7567
2812	0.7894
2803	0.8079
2794	0.8291
2785	0.8422
2776	0.8604
2767	0.866
2758	0.8648
2749	0.8627
2740	0.8609
2731	0.8593
2722	0.8585
2713	0.8582
2704	0.8588
2695	0.8625
2686	0.8668
2677	0.8664
2668	0.865
2659	0.864
2650	0.8675
2641	0.8775
2632	0.8834
2623	0.8827
2614	0.8821
2605	0.8812
2596	0.8808
2587	0.8814
2578	0.8831
2569	0.887
2560	0.8886
2551	0.8897
2542	0.8904
2533	0.8911
2524	0.8912
2515	0.8913
2506	0.891
2497	0.8903
2488	0.8865
2479	0.8814
2470	0.8756
2461	0.8732
2452	0.8746
2443	0.8783
2434	0.8821
2425	0.8849
2416	0.8865
2407	0.8866
2398	0.8861
2389	0.8879
2380	0.8911
2371	0.8943
2362	0.893
2353	0.8957
2344	0.8942
2335	0.8905
2326	0.8917
2317	0.8923
2308	0.8938
2299	0.8958
2290	0.8917
2281	0.8863
2272	0.881
2263	0.8818
2254	0.8827
2245	0.8842
2236	0.8846
2227	0.8845
2218	0.8845
2209	0.8846
2200	0.8847
2191	0.884
2182	0.8848
2173	0.8854
2164	0.8816
2155	0.8756
2146	0.8693
2137	0.8648
2128	0.8643
2119	0.8706
2110	0.8746
2101	0.876
2092	0.877
2083	0.8709
2074	0.8662
2065	0.866
2056	0.8687
2047	0.8698
2038	0.8726
2029	0.8751
2020	0.877
2011	0.8756
2002	0.8735
1993	0.8721
1984	0.8689
1975	0.8724
1966	0.8737
1957	0.8724
1948	0.8665
1939	0.8612
1930	0.8573
1921	0.8568
1912	0.8583
1903	0.8589
1894	0.8538
1885	0.8485
1876	0.8464
1867	0.8431
1858	0.8396
1849	0.8373
1840	0.8324
1831	0.823
1822	0.8101
1813	0.7958
1804	0.7745
1795	0.7467
1786	0.7071
1777	0.6464
1768	0.5589
1759	0.3686
1750	0.0934
1741	0.0001
1732	0.0001
1723	0.0091
1714	0.1757
1705	0.3998
1696	0.5648
1687	0.6411
1678	0.7123
1669	0.7507
1660	0.7635
1651	0.7603
1642	0.7783
1633	0.8111
1624	0.8239
1615	0.8278
1606	0.8479
1597	0.8684
1588	0.8324
1579	0.7875
1570	0.7671
1561	0.7637
1552	0.6945
1543	0.6484
1534	0.6842
1525	0.712
1516	0.7258
1507	0.7341
1498	0.7343
1489	0.7389
1480	0.7434
1471	0.6491
1462	0.3896
1453	0.4113
1444	0.3091
1435	0.505
1426	0.5216
1417	0.6001
1408	0.6588
1399	0.6534
1390	0.3632
1381	0.2779
1372	0.2324
1363	0.0681
1354	0.3385
1345	0.6811
1336	0.7538
1327	0.7554
1318	0.7135
1309	0.6055
1300	0.5779
1291	0.4179
1282	0.4305
1273	0.3699
1264	0.2492
1255	0.0941
1246	0.0142
1237	0.0001
1228	0.0002
1219	0.0006
1210	0.0197
1201	0.2431
1192	0.4465
1183	0.6272
1174	0.7038
1165	0.7348
1156	0.7392
1147	0.7343
1138	0.7701
1129	0.7824
1120	0.7237
1111	0.7316
1102	0.7175
1093	0.6935
1084	0.5368
1075	0.6021
1066	0.4672
1057	0.4409
1048	0.3251
1039	0.1032
1030	0.018
1021	0.1411
1012	0.3369
1003	0.3589
994	0.5966
985	0.6306
976	0.4745
967	0.4771
958	0.5704
949	0.7157
940	0.7462
931	0.7682
922	0.799
913	0.7724
904	0.672
895	0.6932
886	0.6556
877	0.6474
868	0.7368
859	0.746
850	0.6762
841	0.7031
832	0.7732
823	0.8121
814	0.7989
805	0.8557
796	0.8839
787	0.8872
778	0.882
769	0.8757
760	0.8889
751	0.8938
742	0.8936
733	0.8922
724	0.8929
715	0.8913
706	0.8898
697	0.89
688	0.8898
679	0.8882
670	0.8906
661	0.8237
652	0.7345
643	0.7202
634	0.7778
625	0.8021
616	0.7515
607	0.624
598	0.6243
589	0.7956
580	0.7352
571	0.846
562	0.8558
553	0.8531
544	0.8438
535	0.8236
526	0.8248
517	0.8161
508	0.8056
499	0.7838
490	0.7662
481	0.7602
472	0.7551
463	0.7456
454	0.733
