Infrared Spectrum: DIMETHYLSILANEDIOL, DIACETATE
Formula: C6 H12 O4 Si
CAS: 2182-66-3
State: SOLUTION (10% IN CCl4 FOR 3800-1300, 2% IN CS2 FOR 1300-650, AND 10% IN CCl4 FOR 650-250 CM^-^1)
Class: COBLENTZ III
Instrument: PERKIN-ELMER 521 (GRATING)
Instrument parameters: FILTERS AT 3150, 2500, 2000, 1150, 700, 410. GRATING CHANGES: 2000, 630 CM^-^1
Sampling: TRANSMISSION
Path length: 0.010 CM, 0.011 CM, AND 0.019 CM
Resolution: 2
Origin: DOW CORNING CORP.
1/CM	TRANSMITTANCE
227.027	0.584
236.428	0.586
245.828	0.59
255.229	0.605
264.63	0.585
274.031	0.562
283.431	0.534
292.832	0.455
302.233	0.39
311.634	0.381
321.034	0.462
330.435	0.452
339.836	0.707
349.236	0.723
358.637	0.702
368.038	0.608
377.439	0.304
386.839	0.452
396.24	0.303
405.641	0.428
415.041	0.731
424.442	0.766
433.843	0.772
443.244	0.767
452.644	0.758
462.045	0.766
471.446	0.772
480.847	0.772
490.247	0.787
499.648	0.792
509.049	0.792
518.449	0.79
527.85	0.786
537.251	0.782
546.652	0.787
556.052	0.788
565.453	0.772
574.854	0.738
584.254	0.544
593.655	0.285
603.056	0.539
612.457	0.651
621.857	0.5
631.258	0.707
640.659	0.723
650.06	0.848
659.46	0.836
668.861	0.852
678.262	0.862
687.662	0.855
697.063	0.847
706.464	0.838
715.865	0.807
725.265	0.723
734.666	0.743
744.067	0.728
753.467	0.69
762.868	0.724
772.269	0.793
781.67	0.804
791.07	0.787
800.471	0.696
809.872	0.4329
819.273	0.247
828.673	0.303
838.074	0.328
847.475	0.357
856.875	0.573
866.276	0.715
875.677	0.768
885.078	0.791
894.478	0.793
903.879	0.777
913.28	0.719
922.681	0.618
932.081	0.2989
941.482	0.174
950.883	0.4691
960.283	0.729
969.684	0.801
979.085	0.807
988.486	0.788
997.886	0.721
1007.29	0.486
1016.69	0.321
1026.09	0.575
1035.49	0.715
1044.89	0.676
1054.29	0.777
1063.69	0.806
1073.09	0.821
1082.49	0.83
1091.89	0.84
1101.29	0.847
1110.69	0.863
1120.1	0.867
1129.5	0.872
1138.9	0.869
1148.3	0.862
1157.7	0.857
1167.1	0.84
1176.5	0.817
1185.9	0.777
1195.3	0.709
1204.7	0.571
1214.1	0.451
1223.5	0.1089
1232.9	0.061
1242.31	0.14
1251.71	0.156
1261.11	0.204
1270.51	0.3711
1279.91	0.458
1289.31	0.457
1298.71	0.614
1308.11	0.643
1317.51	0.651
1326.91	0.663
1336.31	0.661
1345.71	0.619
1355.11	0.475
1364.51	0.032
1373.92	0.022
1383.32	0.3321
1392.72	0.467
1402.12	0.417
1411.52	0.436
1420.92	0.403
1430.32	0.347
1439.72	0.4511
1449.12	0.597
1458.52	0.675
1467.92	0.716
1477.32	0.753
1486.72	0.769
1496.12	0.781
1505.53	0.792
1514.93	0.807
1524.33	0.823
1533.73	0.83
1543.13	0.833
1552.53	0.828
1561.93	0.823
1571.33	0.828
1580.73	0.819
1590.13	0.801
1599.53	0.773
1608.93	0.767
1618.33	0.768
1627.73	0.753
1637.14	0.706
1646.54	0.694
1655.94	0.706
1665.34	0.689
1674.74	0.652
1684.14	0.576
1693.54	0.514
1702.94	0.446
1712.34	0.2679
1721.74	0.001
1731.14	0.001
1740.54	0.001
1749.94	0.026
1759.34	0.233
1768.75	0.415
1778.15	0.572
1787.55	0.657
1796.95	0.697
1806.35	0.734
1815.75	0.756
1825.15	0.763
1834.55	0.797
1843.95	0.798
1853.35	0.793
1862.75	0.788
1872.15	0.795
1881.55	0.81
1890.96	0.834
1900.36	0.848
1909.76	0.854
1919.16	0.85
1928.56	0.852
1937.96	0.848
1947.36	0.838
1956.76	0.828
1966.16	0.834
1975.56	0.84
1984.96	0.838
1994.36	0.843
2003.76	0.8551
2013.16	0.8589
2022.57	0.868
2031.97	0.869
2041.37	0.876
2050.77	0.878
2060.17	0.878
2069.57	0.8696
2078.97	0.867
2088.37	0.867
2097.77	0.871
2107.17	0.869
2116.57	0.869
2125.97	0.869
2135.37	0.869
2144.77	0.865
2154.18	0.8599
2163.58	0.8552
2172.98	0.857
2182.38	0.858
2191.78	0.858
2201.18	0.8594
2210.58	0.8644
2219.98	0.867
2229.38	0.868
2238.78	0.868
2248.18	0.868
2257.58	0.863
2266.98	0.869
2276.38	0.871
2285.79	0.8641
2295.19	0.863
2304.59	0.8571
2313.99	0.8653
2323.39	0.869
2332.79	0.869
2342.19	0.8703
2351.59	0.868
2360.99	0.867
2370.39	0.867
2379.79	0.867
2389.19	0.867
2398.59	0.867
2407.99	0.868
2417.4	0.8693
2426.8	0.865
2436.2	0.86
2445.6	0.857
2455	0.8538
2464.4	0.852
2473.8	0.854
2483.2	0.852
2492.6	0.8508
2502	0.852
2511.4	0.857
2520.8	0.862
2530.2	0.862
2539.6	0.862
2549.01	0.8607
2558.41	0.8638
2567.81	0.8668
2577.21	0.869
2586.61	0.8709
2596.01	0.867
2605.41	0.864
2614.81	0.863
2624.21	0.8614
2633.61	0.86
2643.01	0.859
2652.41	0.8545
2661.81	0.85
2671.22	0.8526
2680.62	0.8607
2690.02	0.865
2699.42	0.865
2708.82	0.8621
2718.22	0.862
2727.62	0.864
2737.02	0.865
2746.42	0.8626
2755.82	0.859
2765.22	0.8587
2774.62	0.8547
2784.02	0.85
2793.42	0.854
2802.83	0.854
2812.23	0.8546
2821.63	0.8524
2831.03	0.8493
2840.43	0.8454
2849.83	0.849
2859.23	0.848
2868.63	0.844
2878.03	0.8389
2887.43	0.8287
2896.83	0.8112
2906.23	0.786
2915.63	0.8043
2925.03	0.7996
2934.44	0.7736
2943.84	0.783
2953.24	0.7547
2962.64	0.6726
2972.04	0.63
2981.44	0.6704
2990.84	0.7377
3000.24	0.78
3009.64	0.7643
3019.04	0.742
3028.44	0.7672
3037.84	0.8091
3047.24	0.8174
3056.64	0.8268
3066.05	0.8317
3075.45	0.835
3084.85	0.838
3094.25	0.8405
3103.65	0.8436
3113.05	0.8487
3122.45	0.8547
3131.85	0.855
3141.25	0.8578
3150.65	0.86
3160.05	0.862
3169.45	0.862
3178.85	0.8618
3188.25	0.86
3197.66	0.86
3207.06	0.863
3216.46	0.864
3225.86	0.865
3235.26	0.867
3244.66	0.868
3254.06	0.869
3263.46	0.869
3272.86	0.869
3282.26	0.869
3291.66	0.869
3301.06	0.868
3310.46	0.868
3319.86	0.8681
3329.27	0.869
3338.67	0.871
3348.07	0.871
3357.47	0.871
3366.87	0.871
3376.27	0.871
3385.67	0.869
3395.07	0.869
3404.47	0.8637
3413.87	0.8526
3423.27	0.8352
3432.67	0.83
3442.07	0.828
3451.48	0.83
3460.88	0.8471
3470.28	0.8631
3479.68	0.8743
3489.08	0.8795
3498.48	0.8823
3507.88	0.884
3517.28	0.887
3526.68	0.888
3536.08	0.888
3545.48	0.89
3554.88	0.891
3564.28	0.892
3573.68	0.893
3583.09	0.902
3592.49	0.8911
3601.89	0.891
3611.29	0.891
3620.69	0.896
3630.09	0.8924
3639.49	0.8857
3648.89	0.892
3658.29	0.8848
3667.69	0.8934
3677.09	0.897
3686.49	0.897
3695.89	0.89
3705.29	0.8923
3714.7	0.8832
3724.1	0.8838
3733.5	0.887
3742.9	0.888
3752.3	0.887
3761.7	0.883
3771.1	0.882
