Infrared Spectrum: 2,2'-Dichlorobenzil
Formula: C 14 H 8 Cl 2 O 2
CAS: 21854-95-5
State: gas
Origin: EPA-IR VAPOR PHASE LIBRARY
1/CM	ABSORBANCE
549.9	0.002
559.547	0.00181
569.193	0.0016962
578.84	0.00186
588.486	0.0017095
598.133	0.00194
607.779	0.00307
617.426	0.00628
627.072	0.02556
636.719	0.0338
646.365	0.00742
656.012	0.00405
665.658	0.00429
675.305	0.00638
684.951	0.01047
694.598	0.00839
704.245	0.00643
713.891	0.00855
723.538	0.01278
733.184	0.02667
742.831	0.05875
752.477	0.04408
762.124	0.01453
771.77	0.00828
781.417	0.0088
791.063	0.00722
800.71	0.00445
810.356	0.00321
820.003	0.0035
829.649	0.00551
839.296	0.0121
848.943	0.02745
858.589	0.02193
868.236	0.01986
877.882	0.03579
887.529	0.01163
897.175	0.00599
906.822	0.0039
916.468	0.00213
926.115	0.0015228
935.761	0.0015824
945.408	0.00235
955.054	0.00246
964.701	0.0014087
974.347	0.0013361
983.994	0.001452
993.64	0.0014903
1003.29	0.0017777
1012.93	0.00261
1022.58	0.00502
1032.23	0.01083
1041.87	0.01655
1051.52	0.01637
1061.17	0.02227
1070.81	0.01196
1080.46	0.00907
1090.11	0.00626
1099.75	0.00373
1109.4	0.00371
1119.05	0.00506
1128.69	0.00749
1138.34	0.00762
1147.99	0.00492
1157.63	0.00966
1167.28	0.00946
1176.92	0.01099
1186.57	0.02604
1196.22	0.04508
1205.86	0.02684
1215.51	0.01109
1225.16	0.00615
1234.8	0.00692
1244.45	0.00926
1254.1	0.01149
1263.74	0.02944
1273.39	0.02492
1283.04	0.01189
1292.68	0.00636
1302.33	0.00498
1311.98	0.00341
1321.62	0.00217
1331.27	0.0015781
1340.92	0.0013558
1350.56	0.0012332
1360.21	0.0012488
1369.86	0.0013007
1379.5	0.0012763
1389.15	0.0014677
1398.79	0.00197
1408.44	0.00362
1418.09	0.00712
1427.73	0.01723
1437.38	0.03084
1447.03	0.01484
1456.67	0.01024
1466.32	0.01451
1475.97	0.01095
1485.61	0.00546
1495.26	0.00305
1504.91	0.00198
1514.55	0.0015848
1524.2	0.0015728
1533.85	0.00182
1543.49	0.00274
1553.14	0.00501
1562.79	0.00956
1572.43	0.01306
1582.08	0.01913
1591.73	0.02695
1601.37	0.01112
1611.02	0.00541
1620.67	0.00389
1630.31	0.00321
1639.96	0.00359
1649.6	0.00522
1659.25	0.00874
1668.9	0.01381
1678.54	0.02698
1688.19	0.05366
1697.84	0.05862
1707.48	0.05398
1717.13	0.0381
1726.78	0.02041
1736.42	0.00987
1746.07	0.00546
1755.72	0.00341
1765.36	0.00249
1775.01	0.00197
1784.66	0.00184
1794.3	0.00199
1803.95	0.00241
1813.6	0.00235
1823.24	0.00196
1832.89	0.0016534
1842.54	0.0014587
1852.18	0.0011482
1861.83	0.000799221
1871.47	0.0007248
1881.12	0.0007549
1890.77	0.0009473
1900.41	0.0010333
1910.06	0.001516
1919.71	0.00215
1929.35	0.00218
1939	0.0017059
1948.65	0.0017775
1958.29	0.00186
1967.94	0.0009725
1977.59	0.000548
1987.23	0.000498
1996.88	0.00047
2006.53	0.000441
2016.17	0.000482
2025.82	0.000463
2035.47	0.000447
2045.11	0.000458
2054.76	0.00041
2064.41	0.000444
2074.05	0.00045
2083.7	0.000489
2093.35	0.000457
2102.99	0.000452
2112.64	0.000449
2122.28	0.000465
2131.93	0.000447
2141.58	0.000484
2151.22	0.000483
2160.87	0.000471
2170.52	0.000444
2180.16	0.000408
2189.81	0.0004
2199.46	0.000381
2209.1	0.000382
2218.75	0.000404
2228.4	0.000406
2238.04	0.000402
2247.69	0.000408
2257.34	0.000478
2266.98	0.000471
2276.63	0.000525
2286.28	0.000578
2295.92	0.000609
2305.57	0.000572
2315.22	0.0007043
2324.86	0.00084403
2334.51	0.000608
2344.16	0.000496
2353.8	0.000467
2363.45	0.000435
2373.09	0.000427
2382.74	0.000397
2392.39	0.000433
2402.03	0.000443
2411.68	0.000407
2421.33	0.000484
2430.97	0.000557
2440.62	0.000464
2450.27	0.000412
2459.91	0.000416
2469.56	0.000507
2479.21	0.00044
2488.85	0.000553
2498.5	0.000549
2508.15	0.00044
2517.79	0.000449
2527.44	0.000433
2537.09	0.00049
2546.73	0.000538
2556.38	0.000559
2566.03	0.000573
2575.67	0.000588
2585.32	0.000508
2594.96	0.000514
2604.61	0.000549
2614.26	0.000516
2623.9	0.000561
2633.55	0.000559
2643.2	0.000565
2652.84	0.000519
2662.49	0.000427
2672.14	0.000406
2681.78	0.000476
2691.43	0.000404
2701.08	0.000464
2710.72	0.000609
2720.37	0.000558
2730.02	0.000512
2739.66	0.000453
2749.31	0.000376
2758.96	0.000488
2768.6	0.000495
2778.25	0.000388
2787.9	0.000394
2797.54	0.00033
2807.19	0.000281
2816.84	0.000409
2826.48	0.000363
2836.13	0.000493
2845.77	0.000538
2855.42	0.000423
2865.07	0.000419
2874.71	0.000341
2884.36	0.000385
2894.01	0.000343
2903.65	0.000285
2913.3	0.000304
2922.95	0.000269
2932.59	0.000343
2942.24	0.000289
2951.89	0.000372
2961.53	0.000412
2971.18	0.000658
2980.83	0.00089881
2990.47	0.0009693
3000.12	0.0009934
3009.77	0.0010434
3019.41	0.0012928
3029.06	0.0011682
3038.71	0.0014228
3048.35	0.00195
3058	0.00485
3067.64	0.01106
3077.29	0.01548
3086.94	0.00873
3096.58	0.00326
3106.23	0.0016021
3115.88	0.0011549
3125.52	0.0013292
3135.17	0.0013784
3144.82	0.0011065
3154.46	0.000555
3164.11	0.000379
3173.76	0.000258
3183.4	0.000177
3193.05	0.000151
3202.7	0.000117
3212.34	0.000202
3221.99	8e-05
3231.64	0.000155
3241.28	2.3e-05
3250.93	0.00013
3260.58	9.1e-05
3270.22	0.000239
3279.87	4.1e-05
3289.52	4.3e-05
3299.16	0.000201
3308.81	0.000344
3318.45	0.00047
3328.1	0.000454
3337.75	0.000632
3347.39	0.0007768
3357.04	0.00079491
3366.69	0.0009393
3376.33	0.0010099
3385.98	0.0009051
3395.63	0.0009028
3405.27	0.0007
3414.92	0.0007857
3424.57	0.00048
3434.21	0.000461
3443.86	0.000398
3453.51	0.000283
3463.15	0.00027
3472.8	0.000335
3482.45	0.000307
3492.09	0.000223
3501.74	0.000249
3511.39	0.000333
3521.03	0.000264
3530.68	0.000537
3540.33	0.00033
3549.97	0.000305
3559.62	0.000392
3569.26	0.00037
3578.91	0.000279
3588.56	0.000485
3598.2	0.000389
3607.85	0.000404
3617.5	0.00039
3627.14	0.000309
3636.79	0.000404
3646.44	0.000512
3656.08	0.000449
3665.73	0.000456
3675.38	0.000437
3685.02	0.000529
3694.67	0.000491
3704.32	0.000532
3713.96	0.000578
3723.61	0.00055
3733.26	0.000613
3742.9	0.000508
3752.55	0.000544
3762.2	0.000587
3771.84	0.000619
3781.49	0.000653
3791.13	0.000681
3800.78	0.000659
3810.43	0.000586
3820.07	0.000511
3829.72	0.000545
3839.37	0.000607
3849.01	0.000581
3858.66	0.000593
3868.31	0.00051
3877.95	0.000557
3887.6	0.000644
3897.25	0.000642
3906.89	0.000566
3916.54	0.000515
3926.19	0.000545
3935.83	0.000471
3945.48	0.000644
3955.13	0.000619
3964.77	0.000437
3974.42	0.000457
3984.07	0.000528
3993.71	0.000496
