Infrared Spectrum: PROPANE, 2,2-BIS[4-(2,3-DIBROMOPROPOXY)-3,5-DIBROMOPHENYL-]-
Formula: C21 H20 Br8 O2
CAS: 21850-44-2
Class: COBLENTZ III
Instrument: PERKIN-ELMER 283
Sampling: TRANSMISSION
Path length: HOT PRESSED FILM
Resolution: 4
Origin: PERKIN-ELMER
1/CM	TRANSMITTANCE
199.805	0.021
209.552	0.019
219.298	0.023
229.045	0.015
238.791	0.025
248.538	0.024
258.285	0.038
268.031	0.099
277.778	0.17
287.525	0.253
297.271	0.332
307.018	0.404
316.764	0.457
326.511	0.525
336.258	0.592
346.004	0.654
355.751	0.719
365.497	0.768
375.244	0.804
384.991	0.835
394.737	0.86
404.484	0.883
414.231	0.899
423.977	0.912
433.724	0.913
443.47	0.934
453.217	0.937
462.964	0.927
472.71	0.93
482.457	0.931
492.203	0.944
501.95	0.954
511.697	0.956
521.443	0.945
531.19	0.939
540.937	0.923
550.683	0.888
560.43	0.838
570.176	0.666
579.923	0.591
589.67	0.822
599.416	0.838
609.163	0.846
618.909	0.862
628.656	0.805
638.403	0.761
648.149	0.754
657.896	0.751
667.643	0.804
677.389	0.856
687.136	0.912
696.882	0.91
706.629	0.855
716.376	0.825
726.122	0.663
735.869	0.2999
745.616	0.655
755.362	0.89
765.109	0.922
774.855	0.902
784.602	0.835
794.349	0.768
804.095	0.891
813.842	0.926
823.588	0.924
833.335	0.895
843.082	0.862
852.828	0.873
862.575	0.6489
872.322	0.417
882.068	0.636
891.815	0.809
901.561	0.851
911.308	0.71
921.055	0.853
930.801	0.856
940.548	0.836
950.294	0.871
960.041	0.804
969.788	0.516
979.534	0.401
989.281	0.46
999.028	0.583
1008.77	0.648
1018.52	0.593
1028.27	0.561
1038.01	0.79
1047.76	0.794
1057.51	0.769
1067.25	0.5671
1077	0.811
1086.75	0.771
1096.49	0.79
1106.24	0.741
1115.99	0.818
1125.73	0.808
1135.48	0.769
1145.23	0.695
1154.97	0.827
1164.72	0.835
1174.47	0.763
1184.21	0.756
1193.96	0.743
1203.71	0.715
1213.45	0.579
1223.2	0.459
1232.95	0.463
1242.69	0.3439
1252.44	0.241
1262.19	0.335
1271.93	0.221
1281.68	0.4241
1291.43	0.677
1301.17	0.783
1310.92	0.794
1320.67	0.804
1330.41	0.802
1340.16	0.844
1349.91	0.835
1359.65	0.658
1369.4	0.54
1379.15	0.482
1388.89	0.366
1398.64	0.7381
1408.39	0.803
1418.13	0.623
1427.88	0.5889
1437.63	0.433
1447.37	0.204
1457.12	0.287
1466.87	0.144
1476.61	0.5511
1486.36	0.8
1496.1	0.843
1505.85	0.857
1515.6	0.849
1525.34	0.743
1535.09	0.4949
1544.84	0.6791
1554.58	0.846
1564.33	0.877
1574.08	0.856
1583.82	0.742
1593.57	0.873
1603.32	0.904
1613.06	0.909
1622.81	0.909
1632.56	0.912
1642.3	0.908
1652.05	0.906
1661.8	0.913
1671.54	0.913
1681.29	0.912
1691.04	0.909
1700.78	0.908
1710.53	0.904
1720.28	0.896
1730.02	0.866
1739.77	0.772
1749.52	0.752
1759.26	0.826
1769.01	0.86
1778.76	0.874
1788.5	0.896
1798.25	0.909
1808	0.913
1817.74	0.91
1827.49	0.912
1837.24	0.913
1846.98	0.912
1856.73	0.912
1866.48	0.914
1876.22	0.914
1885.97	0.914
1895.72	0.914
1905.46	0.914
1915.21	0.912
1924.96	0.909
1934.7	0.908
1944.45	0.904
1954.2	0.904
1963.94	0.905
1973.69	0.905
1983.44	0.906
1993.18	0.905
2002.93	0.903
2012.68	0.901
2022.42	0.904
2032.17	0.902
2041.92	0.902
2051.66	0.901
2061.41	0.9029
2071.16	0.904
2080.9	0.906
2090.65	0.9015
2100.4	0.901
2110.14	0.9
2119.89	0.899
2129.64	0.9
2139.38	0.904
2149.13	0.9044
2158.87	0.906
2168.62	0.909
2178.37	0.906
2188.11	0.905
2197.86	0.904
2207.61	0.904
2217.35	0.902
2227.1	0.901
2236.85	0.9
2246.59	0.9
2256.34	0.897
2266.09	0.896
2275.83	0.895
2285.58	0.893
2295.33	0.892
2305.07	0.891
2314.82	0.89
2324.57	0.891
2334.31	0.891
2344.06	0.8936
2353.81	0.895
2363.55	0.896
2373.3	0.8976
2383.05	0.899
2392.79	0.899
2402.54	0.897
2412.29	0.8967
2422.03	0.896
2431.78	0.893
2441.53	0.892
2451.27	0.89
2461.02	0.891
2470.77	0.888
2480.51	0.887
2490.26	0.887
2500.01	0.8855
2509.75	0.883
2519.5	0.884
2529.25	0.8872
2538.99	0.8922
2548.74	0.893
2558.49	0.895
2568.23	0.892
2577.98	0.893
2587.73	0.8928
2597.47	0.892
2607.22	0.892
2616.97	0.891
2626.71	0.8908
2636.46	0.89
2646.21	0.89
2655.95	0.888
2665.7	0.888
2675.45	0.887
2685.19	0.886
2694.94	0.884
2704.69	0.8839
2714.43	0.883
2724.18	0.88
2733.93	0.882
2743.67	0.883
2753.42	0.883
2763.17	0.882
2772.91	0.8831
2782.66	0.883
2792.4	0.882
2802.15	0.8789
2811.9	0.8737
2821.64	0.8609
2831.39	0.8569
2841.14	0.853
2850.88	0.8479
2860.63	0.824
2870.38	0.7389
2880.12	0.7615
2889.87	0.7992
2899.62	0.8027
2909.36	0.7728
2919.11	0.7457
2928.86	0.7017
2938.6	0.671
2948.35	0.677
2958.1	0.6494
2967.84	0.514
2977.59	0.5665
2987.34	0.7151
2997.08	0.812
3006.83	0.844
3016.58	0.848
3026.32	0.848
3036.07	0.849
3045.82	0.8599
3055.56	0.8621
3065.31	0.857
3075.06	0.861
3084.8	0.865
3094.55	0.874
3104.3	0.8799
3114.04	0.883
3123.79	0.883
3133.54	0.883
3143.28	0.883
3153.03	0.883
3162.78	0.883
3172.52	0.883
3182.27	0.883
3192.02	0.884
3201.76	0.883
3211.51	0.883
3221.26	0.882
3231	0.88
3240.75	0.882
3250.5	0.882
3260.24	0.878
3269.99	0.879
3279.74	0.878
3289.48	0.878
3299.23	0.879
3308.98	0.879
3318.72	0.877
3328.47	0.882
3338.22	0.882
3347.96	0.8782
3357.71	0.8772
3367.46	0.88
3377.2	0.8816
3386.95	0.883
3396.7	0.88
3406.44	0.879
3416.19	0.882
3425.93	0.88
3435.68	0.8786
3445.43	0.879
3455.17	0.8788
3464.92	0.878
3474.67	0.874
3484.41	0.873
3494.16	0.8765
3503.91	0.877
3513.65	0.8777
3523.4	0.8827
3533.15	0.883
3542.89	0.8827
3552.64	0.882
3562.39	0.8833
3572.13	0.882
3581.88	0.886
3591.63	0.884
3601.37	0.882
3611.12	0.882
3620.87	0.882
3630.61	0.884
3640.36	0.886
3650.11	0.886
3659.85	0.886
3669.6	0.884
3679.35	0.883
3689.09	0.884
3698.84	0.886
3708.59	0.886
3718.33	0.884
3728.08	0.883
3737.83	0.882
3747.57	0.88
3757.32	0.8826
3767.07	0.884
3776.81	0.884
3786.56	0.883
3796.31	0.8834
3806.05	0.882
3815.8	0.882
3825.55	0.879
3835.29	0.879
3845.04	0.879
3854.79	0.875
3864.53	0.875
3874.28	0.875
3884.03	0.875
3893.77	0.877
3903.52	0.875
3913.27	0.8785
3923.01	0.8795
3932.76	0.8785
3942.51	0.878
3952.25	0.878
3962	0.88
3971.75	0.882
3981.49	0.879
3991.24	0.881
4000.99	0.88
