Infrared Spectrum: 2-Phthalimidopropionic acid
Formula: C 11 H 9 N O 4
CAS: 21860-84-4
State: gas
Origin: EPA-IR VAPOR PHASE LIBRARY
1/CM	ABSORBANCE
549.8	0.00535
559.445	0.00616
569.09	0.00394
578.734	0.0020687
588.379	0.00406
598.024	0.00441
607.669	0.00505
617.313	0.00347
626.958	0.00269
636.603	0.0016121
646.248	0.0016499
655.893	0.00231
665.537	0.0014021
675.182	0.0020033
684.827	0.0020607
694.472	0.0018381
704.116	0.00435
713.761	0.00896
723.406	0.00779
733.051	0.00446
742.695	0.0041
752.34	0.00236
761.985	0.00165
771.63	0.0015821
781.275	0.0015669
790.919	0.00269
800.564	0.00271
810.209	0.001497
819.854	0.00373
829.498	0.0018578
839.143	0.0013479
848.788	0.00221
858.433	0.00267
868.078	0.0019583
877.722	0.00345
887.367	0.00363
897.012	0.00254
906.657	0.00326
916.301	0.00356
925.946	0.00242
935.591	0.0019594
945.236	0.0018191
954.88	0.0017328
964.525	0.00124583
974.17	0.0014775
983.815	0.0018958
993.46	0.0018842
1003.1	0.00223
1012.75	0.00373
1022.39	0.00538
1032.04	0.00276
1041.68	0.00354
1051.33	0.00469
1060.97	0.00566
1070.62	0.00807
1080.26	0.00969
1089.91	0.0064
1099.55	0.00706
1109.2	0.00635
1118.84	0.00904
1128.49	0.01122
1138.13	0.00856
1147.78	0.00553
1157.42	0.00594
1167.07	0.00588
1176.71	0.00539
1186.36	0.00343
1196	0.00498
1205.64	0.00371
1215.29	0.0013806
1224.93	0.00222
1234.58	0.0027
1244.22	0.00356
1253.87	0.00359
1263.51	0.00405
1273.16	0.00343
1282.8	0.00365
1292.45	0.00274
1302.09	0.00367
1311.74	0.00432
1321.38	0.00581
1331.03	0.00697
1340.67	0.00776
1350.32	0.0087
1359.96	0.01127
1369.61	0.01781
1379.25	0.03037
1388.9	0.02164
1398.54	0.00782
1408.18	0.0044
1417.83	0.00382
1427.47	0.00358
1437.12	0.0027
1446.76	0.00297
1456.41	0.00315
1466.05	0.00349
1475.7	0.00314
1485.34	0.0020923
1494.99	0.0017946
1504.63	0.001561
1514.28	0.0015517
1523.92	0.0019729
1533.57	0.0018985
1543.21	0.0014208
1552.86	0.0018155
1562.5	0.0014682
1572.15	0.0013684
1581.79	0.001583
1591.44	0.0016926
1601.08	0.0020382
1610.73	0.00265
1620.37	0.0021481
1630.01	0.0018899
1639.66	0.0019366
1649.3	0.0018783
1658.95	0.0020976
1668.59	0.00238
1678.24	0.0020393
1687.88	0.00279
1697.53	0.0033
1707.17	0.00527
1716.82	0.00837
1726.46	0.01952
1736.11	0.04618
1745.75	0.03703
1755.4	0.01172
1765.04	0.00855
1774.69	0.01487
1784.33	0.02903
1793.98	0.02057
1803.62	0.00757
1813.27	0.00475
1822.91	0.00356
1832.55	0.00325
1842.2	0.00267
1851.84	0.00222
1861.49	0.0018307
1871.13	0.0020054
1880.78	0.0019317
1890.42	0.0017467
1900.07	0.0017548
1909.71	0.0018066
1919.36	0.0018214
1929	0.0016866
1938.65	0.0019362
1948.29	0.0015844
1957.94	0.0017747
1967.58	0.0016486
1977.23	0.0017799
1986.87	0.0015771
1996.52	0.0018343
2006.16	0.0015949
2015.81	0.0015921
2025.45	0.0015564
2035.1	0.00178
2044.74	0.0013155
2054.38	0.0015843
2064.03	0.0015595
2073.67	0.0013413
2083.32	0.0015503
2092.96	0.0012955
2102.61	0.0016651
2112.25	0.0015694
2121.9	0.00127001
2131.54	0.0015055
2141.19	0.0015341
2150.83	0.00125633
2160.48	0.0015628
2170.12	0.0014877
2179.77	0.0014035
2189.41	0.001706
2199.06	0.00122281
2208.7	0.0013964
2218.35	0.0017621
2227.99	0.0014664
2237.64	0.0013833
2247.28	0.0016582
2256.92	0.0013425
2266.57	0.0016723
2276.21	0.0016209
2285.86	0.0013916
2295.5	0.0016238
2305.15	0.0016972
2314.79	0.0016971
2324.44	0.0018933
2334.08	0.001558
2343.73	0.0017813
2353.37	0.0016584
2363.02	0.0013814
2372.66	0.0014399
2382.31	0.0015456
2391.95	0.0017272
2401.6	0.0020419
2411.24	0.0018753
2420.89	0.0016904
2430.53	0.0014855
2440.18	0.0016791
2449.82	0.0017706
2459.47	0.0015548
2469.11	0.001831
2478.75	0.00120642
2488.4	0.00123674
2498.04	0.0015627
2507.69	0.0018082
2517.33	0.0017248
2526.98	0.0015023
2536.62	0.0015872
2546.27	0.00126139
2555.91	0.0013255
2565.56	0.00123927
2575.2	0.0013092
2584.85	0.0016581
2594.49	0.00124239
2604.14	0.001631
2613.78	0.0016368
2623.43	0.0015036
2633.07	0.0018306
2642.72	0.0014648
2652.36	0.0016324
2662.01	0.0014985
2671.65	0.0014225
2681.29	0.0015837
2690.94	0.001586
2700.58	0.0014551
2710.23	0.0012968
2719.87	0.0013997
2729.52	0.0014944
2739.16	0.0011624
2748.81	0.0014748
2758.45	0.0014403
2768.1	0.001128
2777.74	0.0015946
2787.39	0.0018037
2797.03	0.0015386
2806.68	0.0013439
2816.32	0.0014242
2825.97	0.0014342
2835.61	0.0011209
2845.26	0.0014779
2854.9	0.0015967
2864.55	0.0014705
2874.19	0.0018207
2883.84	0.0020072
2893.48	0.0018525
2903.12	0.0019013
2912.77	0.002145
2922.41	0.0021832
2932.06	0.00307
2941.7	0.00289
2951.35	0.00313
2960.99	0.00272
2970.64	0.0019467
2980.28	0.0017084
2989.93	0.0015405
2999.57	0.00266
3009.22	0.0017408
3018.86	0.001677
3028.51	0.0013464
3038.15	0.0011539
3047.8	0.0017502
3057.44	0.0015931
3067.09	0.0015221
3076.73	0.0018917
3086.38	0.0028
3096.02	0.00233
3105.67	0.001713
3115.31	0.0016886
3124.95	0.0011084
3134.6	0.0019142
3144.24	0.0014109
3153.89	0.0015356
3163.53	0.0020807
3173.18	0.0018366
3182.82	0.00234
3192.47	0.0017439
3202.11	0.001048
3211.76	0.0015797
3221.4	0.0019243
3231.05	0.002055
3240.69	0.001015
3250.34	0.000795
3259.98	0.0016756
3269.63	0.0011253
3279.27	0.00124237
3288.92	0.0014627
3298.56	0.00128547
3308.21	0.000901
3317.85	0.0018102
3327.49	0.000687
3337.14	0.000785
3346.78	0.0013688
3356.43	0.0016684
3366.07	0.0011152
3375.72	0.0011253
3385.36	0.0015639
3395.01	0.000479
3404.65	0.001683
3414.3	0.0014814
3423.94	0.0017207
3433.59	0.001983
3443.23	0.0015591
3452.88	0.0019895
3462.52	0.001631
3472.17	0.0021154
3481.81	0.0020435
3491.46	0.0017323
3501.1	0.0021631
3510.75	0.00221
3520.39	0.0018475
3530.04	0.00124592
3539.68	0.0017585
3549.32	0.0013334
3558.97	0.0017511
3568.61	0.00574
3578.26	0.00816
3587.9	0.00516
3597.55	0.0021882
3607.19	0.0015678
3616.84	0.00238
3626.48	0.001051
3636.13	0.000809
3645.77	0.000923
3655.42	0.0014552
3665.06	0.00123493
3674.71	0.0015885
3684.35	0.0011097
3694	0.0017924
3703.64	0.000833
3713.29	0.001773
3722.93	0.0015591
3732.58	0.0018431
3742.22	0.0016054
3751.86	0.001298
3761.51	0.00113
3771.15	0.00119936
3780.8	0.00219
3790.44	0.0015989
3800.09	0.0012613
3809.73	0.00128166
3819.38	0.001095
3829.02	0.0020463
3838.67	0.001025
3848.31	0.0017036
3857.96	0.000339
3867.6	0.00128379
3877.25	0.0019885
3886.89	0.00248
3896.54	0.000535
3906.18	0.00024
3915.83	0.001007
3925.47	0.0017058
3935.12	0.001062
3944.76	0.001103
3954.41	0.0018258
3964.05	0.0019793
3973.69	0.0015298
3983.34	0.0018805
3992.98	0.0018984
