Infrared Spectrum: Acetic acid, compound with octadecylamine
Formula: C20 H43 N O2
CAS: 2190-04-7
State: SOLID (SPLIT MULL), FLUOROLUBE FOR 3800-1330 CM^-^1, NUJOL FOR 1330-400 CM^-^1
Class: COBLENTZ II
Instrument: DOW KBr FOREPRISM-GRATING
Instrument parameters: BLAZED AT 3.5, 12.0, 20.0 MICRON AND CHANGED AT 5.0, 7.5, 14.9 MICRON
Sampling: TRANSMISSION
Resolution: 2
Origin: DOW CHEMICAL COMPANY
1/CM	TRANSMITTANCE
3786	0.8448
3777	0.8515
3768	0.8525
3759	0.8504
3750	0.8567
3741	0.8571
3732	0.849
3723	0.8523
3714	0.8571
3705	0.845
3696	0.8453
3687	0.8512
3678	0.8568
3669	0.8538
3660	0.8487
3651	0.8488
3642	0.8485
3633	0.8506
3624	0.853
3615	0.8544
3606	0.8502
3597	0.8474
3588	0.8478
3579	0.8485
3570	0.853
3561	0.8493
3552	0.8483
3543	0.8483
3534	0.8475
3525	0.8465
3516	0.8434
3507	0.8404
3498	0.8378
3489	0.8375
3480	0.838
3471	0.8385
3462	0.8392
3453	0.8398
3444	0.8404
3435	0.8409
3426	0.8415
3417	0.8421
3408	0.8428
3399	0.8434
3390	0.8441
3381	0.8448
3372	0.8457
3363	0.8465
3354	0.8473
3345	0.8481
3336	0.8485
3327	0.8484
3318	0.8484
3309	0.8483
3300	0.8478
3291	0.8471
3282	0.8466
3273	0.8454
3264	0.8437
3255	0.8421
3246	0.8403
3237	0.8382
3228	0.8362
3219	0.834
3210	0.8314
3201	0.8285
3192	0.8251
3183	0.8212
3174	0.8186
3165	0.8145
3156	0.8083
3147	0.8008
3138	0.7943
3129	0.7876
3120	0.7783
3111	0.7675
3102	0.7562
3093	0.7414
3084	0.7274
3075	0.7137
3066	0.7
3057	0.6858
3048	0.6708
3039	0.6536
3030	0.638
3021	0.6256
3012	0.6208
3003	0.6182
2994	0.6134
2985	0.5955
2976	0.5581
2967	0.4924
2958	0.4543
2949	0.4259
2940	0.2881
2931	0.1867
2922	0.0529
2913	0.1792
2904	0.3542
2895	0.3892
2886	0.4338
2877	0.4469
2868	0.4423
2859	0.226
2850	0.2084
2841	0.3882
2832	0.5098
2823	0.5499
2814	0.563
2805	0.5718
2796	0.5805
2787	0.589
2778	0.5976
2769	0.6062
2760	0.6159
2751	0.6255
2742	0.6338
2733	0.6399
2724	0.6399
2715	0.6383
2706	0.6367
2697	0.635
2688	0.6336
2679	0.6329
2670	0.6328
2661	0.634
2652	0.6378
2643	0.6462
2634	0.6539
2625	0.6603
2616	0.6657
2607	0.6687
2598	0.6701
2589	0.6686
2580	0.6656
2571	0.6655
2562	0.6695
2553	0.6761
2544	0.6846
2535	0.6961
2526	0.7065
2517	0.7095
2508	0.7115
2499	0.7149
2490	0.7215
2481	0.7274
2472	0.7337
2463	0.741
2454	0.7486
2445	0.7555
2436	0.761
2427	0.7653
2418	0.7705
2409	0.7756
2400	0.7808
2391	0.7853
2382	0.7901
2373	0.7919
2364	0.7934
2355	0.7945
2346	0.8033
2337	0.794
2328	0.7967
2319	0.8007
2310	0.8058
2301	0.8106
2292	0.8137
2283	0.8147
2274	0.8156
2265	0.818
2256	0.8206
2247	0.8218
2238	0.8208
2229	0.8182
2220	0.8151
2211	0.8107
2202	0.8032
2193	0.7991
2184	0.8012
2175	0.8095
2166	0.8217
2157	0.824
2148	0.8286
2139	0.8336
2130	0.8396
2121	0.8457
2112	0.8541
2103	0.8689
2094	0.8696
2085	0.8704
2076	0.8715
2067	0.8759
2058	0.8804
2049	0.8849
2040	0.8896
2031	0.8928
2022	0.8944
2013	0.8953
2004	0.896
1995	0.8915
1986	0.8894
1977	0.8912
1968	0.8968
1959	0.9096
1950	0.9011
1941	0.9001
1932	0.8994
1923	0.9
1914	0.9009
1905	0.9018
1896	0.9023
1887	0.9021
1878	0.9018
1869	0.9025
1860	0.9042
1851	0.9055
1842	0.9067
1833	0.9052
1824	0.9033
1815	0.9035
1806	0.9051
1797	0.9065
1788	0.9047
1779	0.9047
1770	0.9028
1761	0.9011
1752	0.9048
1743	0.9071
1734	0.9087
1725	0.9066
1716	0.9042
1707	0.9031
1698	0.9023
1689	0.8918
1680	0.882
1671	0.8528
1662	0.7638
1653	0.6341
1644	0.5623
1635	0.6889
1626	0.7488
1617	0.7911
1608	0.8108
1599	0.8175
1590	0.8111
1581	0.7858
1572	0.7494
1563	0.7024
1554	0.5717
1545	0.4405
1536	0.4798
1527	0.4223
1518	0.3724
1509	0.4385
1500	0.5226
1491	0.6066
1482	0.6668
1473	0.6701
1464	0.5966
1455	0.6989
1446	0.7261
1437	0.6976
1428	0.6378
1419	0.5719
1410	0.3837
1401	0.5192
1392	0.5507
1383	0.5753
1374	0.6287
1365	0.7332
1356	0.7545
1347	0.7295
1338	0.7042
1329	0.7332
1320	0.7468
1311	0.7475
1302	0.7515
1293	0.7634
1284	0.7718
1275	0.7758
1266	0.7817
1257	0.7819
1248	0.7885
1239	0.7867
1230	0.7915
1221	0.7917
1212	0.7955
1203	0.7986
1194	0.7947
1185	0.8028
1176	0.775
1167	0.8075
1158	0.8057
1149	0.8106
1140	0.8139
1131	0.8122
1122	0.8125
1113	0.8158
1104	0.8125
1095	0.81
1086	0.8089
1077	0.8061
1068	0.7789
1059	0.7884
1050	0.7893
1041	0.7899
1032	0.7899
1023	0.7793
1014	0.7422
1005	0.7339
996	0.7871
987	0.7947
978	0.7967
969	0.798
960	0.7974
951	0.7934
942	0.8096
933	0.8065
924	0.7842
915	0.7657
906	0.8075
897	0.8053
888	0.8028
879	0.8098
870	0.8145
861	0.8145
852	0.8057
843	0.8099
834	0.8115
825	0.8093
816	0.808
807	0.8069
798	0.7993
789	0.8008
780	0.8012
771	0.7889
762	0.7885
753	0.7654
744	0.766
735	0.7331
726	0.5746
717	0.7228
708	0.7696
699	0.7764
690	0.7768
681	0.7751
672	0.7701
663	0.7584
654	0.7258
645	0.6565
636	0.7471
627	0.7549
618	0.7303
609	0.7474
600	0.7504
591	0.7491
582	0.7458
573	0.7434
564	0.7412
555	0.7391
546	0.7369
537	0.7349
528	0.7293
519	0.7181
510	0.7306
501	0.7308
492	0.6843
483	0.7146
474	0.7098
465	0.6997
456	0.7128
447	0.7114
438	0.6691
429	0.6765
420	0.688
411	0.6905
402	0.6878
393	0.6851
384	0.6834
