Infrared Spectrum: Acetamide, 2-(N-methylanilino)-,
Formula: C9 H12 N2 O
CAS: 21911-76-2
State: SOLID (NUJOL MULL)
Class: COBLENTZ III
Instrument: PERKIN-ELMER 21 (GRATING)
Instrument parameters: FILTER AT ABOUT 10 MICRONS
Resolution: 2
Origin: ABBOTT LABORATORIES
1/CM	TRANSMITTANCE
664	0.5137
673	0.4643
682	0.3354
691	0.1752
700	0.3793
709	0.3284
718	0.301
727	0.296
736	0.2592
745	0.128
754	0.1735
763	0.5667
772	0.6264
781	0.7126
790	0.7322
799	0.7347
808	0.7245
817	0.7058
826	0.6809
835	0.6217
844	0.5587
853	0.5919
862	0.4618
871	0.758
880	0.7691
889	0.7601
898	0.7572
907	0.7426
916	0.7255
925	0.6957
934	0.6262
943	0.3877
952	0.7126
961	0.714
970	0.6886
979	0.6707
988	0.6601
997	0.6436
1006	0.5872
1015	0.6733
1024	0.6159
1033	0.5719
1042	0.6842
1051	0.66
1060	0.6326
1069	0.5742
1078	0.4909
1087	0.3509
1096	0.3803
1105	0.5952
1114	0.495
1123	0.3666
1132	0.6738
1141	0.656
1150	0.5499
1159	0.61
1168	0.6079
1177	0.5495
1186	0.3999
1195	0.4733
1204	0.2598
1213	0.3326
1222	0.5254
1231	0.4757
1240	0.2412
1249	0.3645
1258	0.5564
1267	0.5597
1276	0.536
1285	0.4967
1294	0.4421
1303	0.3451
1312	0.2303
1321	0.1457
1330	0.3791
1339	0.1767
1348	0.3329
1357	0.1988
1366	0.1269
1375	0.1662
1384	0.1725
1393	0.1122
1402	0.3946
1411	0.4047
1420	0.3503
1429	0.2972
1438	0.1998
1447	0.1517
1456	0.1194
1465	0.1289
1474	0.2447
1483	0.3199
1492	0.2264
1501	0.1203
1510	0.3176
1519	0.4554
1528	0.461
1537	0.4498
1546	0.4248
1555	0.3643
1564	0.3161
1573	0.2783
1582	0.277
1591	0.1776
1600	0.1227
1609	0.2295
1618	0.2287
1627	0.1704
1636	0.1127
1645	0.0947
1654	0.1155
1663	0.1702
1672	0.2486
1681	0.3305
1690	0.3448
1699	0.44
1708	0.5367
1717	0.6085
1726	0.6333
1735	0.6849
1744	0.7213
1753	0.7353
1762	0.7487
1771	0.7663
1780	0.7667
1789	0.7647
1798	0.7595
1807	0.7494
1816	0.7547
1825	0.7586
1834	0.7599
1843	0.76
1852	0.7581
1861	0.7555
1870	0.7521
1879	0.746
1888	0.7397
1897	0.7322
1906	0.7129
1915	0.7106
1924	0.7257
1933	0.7274
1942	0.7278
1951	0.7275
1960	0.7271
1969	0.7264
1978	0.7249
1987	0.7234
1996	0.7211
2005	0.7184
2014	0.7149
2023	0.7115
2032	0.7088
2041	0.7062
2050	0.7036
2059	0.7002
2068	0.6961
2077	0.6921
2086	0.6881
2095	0.6838
2104	0.6793
2113	0.6752
2122	0.6712
2131	0.6669
2140	0.6615
2149	0.658
2158	0.656
2167	0.6557
2176	0.6547
2185	0.6532
2194	0.6511
2203	0.6473
2212	0.6435
2221	0.6392
2230	0.6346
2239	0.631
2248	0.6277
2257	0.6244
2266	0.6214
2275	0.6185
2284	0.6156
2293	0.6134
2302	0.6114
2311	0.6097
2320	0.6091
2329	0.6084
2338	0.6078
2347	0.6072
2356	0.6059
2365	0.604
2374	0.5998
2383	0.5957
2392	0.5913
2401	0.5873
2410	0.5848
2419	0.5841
2428	0.5832
2437	0.5822
2446	0.5809
2455	0.5786
2464	0.576
2473	0.5735
2482	0.5711
2491	0.5678
2500	0.5599
2509	0.5518
2518	0.5461
2527	0.5439
2536	0.5419
2545	0.5389
2554	0.5356
2563	0.5308
2572	0.5262
2581	0.5215
2590	0.517
2599	0.5135
2608	0.5107
2617	0.5081
2626	0.5068
2635	0.5056
2644	0.5047
2653	0.5039
2662	0.5025
2671	0.5001
2680	0.4917
2689	0.4814
2698	0.4761
2707	0.4739
2716	0.4721
2725	0.4701
2734	0.4605
2743	0.4451
2752	0.4296
2761	0.4077
2770	0.3853
2779	0.3654
2788	0.3471
2797	0.3031
2806	0.2097
2815	0.1169
2824	0.0387
2833	0.0282
2842	0.025
2851	0.0231
2860	0.0215
2869	0.0206
2878	0.0198
2887	0.0195
2896	0.0191
2905	0.019
2914	0.0197
2923	0.021
2932	0.0453
2941	0.0732
2950	0.101
2959	0.1285
2968	0.1526
2977	0.1691
2986	0.1787
2995	0.1846
3004	0.187
3013	0.1872
3022	0.1867
3031	0.1841
3040	0.1795
3049	0.174
3058	0.1662
3067	0.1586
3076	0.1514
3085	0.1446
3094	0.138
3103	0.132
3112	0.1264
3121	0.123
3130	0.1203
3139	0.1197
3148	0.1244
3157	0.1462
3166	0.1685
3175	0.1908
3184	0.2044
3193	0.2041
3202	0.2026
3211	0.1997
3220	0.1929
3229	0.1843
3238	0.1715
3247	0.1588
3256	0.146
3265	0.1334
3274	0.122
3283	0.121
3292	0.1303
3301	0.1676
3310	0.2405
3319	0.3129
3328	0.385
3337	0.4567
3346	0.4967
3355	0.5163
3364	0.5389
3373	0.5495
3382	0.5524
3391	0.5517
3400	0.55
3409	0.5473
3418	0.5436
3427	0.5398
3436	0.5354
3445	0.531
3454	0.5265
3463	0.5219
3472	0.5174
3481	0.5131
3490	0.5091
3499	0.5051
3508	0.5007
3517	0.4962
3526	0.4918
3535	0.4871
3544	0.4826
3553	0.4789
3562	0.4752
3571	0.4715
3580	0.4689
3589	0.4667
3598	0.4646
3607	0.4625
3616	0.4606
3625	0.4593
3634	0.4581
3643	0.4568
3652	0.4556
3661	0.4546
3670	0.4536
3679	0.4518
3688	0.4495
3697	0.4471
3706	0.4448
3715	0.4424
3724	0.44
3733	0.4377
3742	0.4352
3751	0.4327
3760	0.4303
3769	0.4276
3778	0.4251
3787	0.4226
3796	0.4201
3805	0.4176
3814	0.4155
3823	0.4135
3832	0.4114
3841	0.4093
3850	0.4073
3859	0.4059
3868	0.4045
3877	0.4032
3886	0.4019
3895	0.4002
3904	0.3983
3913	0.3964
3922	0.3945
3931	0.3926
3940	0.3907
3949	0.3888
3958	0.387
3967	0.3851
3976	0.3833
3985	0.3814
3994	0.3796
