Infrared Spectrum: 2-Methylthiopyrazine
Formula: C 5 H 6 N 2 S
CAS: 21948-70-9
State: gas
Origin: EPA-IR VAPOR PHASE LIBRARY
1/CM	ABSORBANCE
549.8	0.0012048
559.445	0.0005779
569.09	0.0015171
578.734	0.001956
588.379	0.0009522
598.024	0.002106
607.669	0.002016
617.313	0.002446
626.958	0.002356
636.603	0.002056
646.248	0.001756
655.893	0.001636
665.537	0.001626
675.182	0.0014595
684.827	0.0012355
694.472	0.002236
704.116	0.002956
713.761	0.003806
723.406	0.005676
733.051	0.008716
742.695	0.014716
752.34	0.023106
761.985	0.025716
771.63	0.020336
781.275	0.007236
790.919	0.003956
800.564	0.007456
810.209	0.018056
819.854	0.032216
829.498	0.058836
839.143	0.036126
848.788	0.020636
858.433	0.008416
868.078	0.004576
877.722	0.004136
887.367	0.004566
897.012	0.004616
906.657	0.004856
916.301	0.004806
925.946	0.005156
935.591	0.006026
945.236	0.008466
954.88	0.011296
964.525	0.013296
974.17	0.015886
983.815	0.024026
993.46	0.047926
1003.1	0.054996
1012.75	0.058256
1022.39	0.033376
1032.04	0.036916
1041.68	0.045466
1051.33	0.043906
1060.97	0.019116
1070.62	0.016626
1080.26	0.018576
1089.91	0.027566
1099.55	0.047036
1109.2	0.094436
1118.84	0.191916
1128.49	0.253486
1138.13	0.229636
1147.78	0.135676
1157.42	0.071816
1167.07	0.043816
1176.71	0.034236
1186.36	0.025556
1196	0.019426
1205.64	0.016406
1215.29	0.013996
1224.93	0.009736
1234.58	0.006956
1244.22	0.007476
1253.87	0.006726
1263.51	0.012746
1273.16	0.029246
1282.8	0.028576
1292.45	0.021676
1302.09	0.016806
1311.74	0.023606
1321.38	0.024676
1331.03	0.019636
1340.67	0.012026
1350.32	0.015156
1359.96	0.030096
1369.61	0.068166
1379.25	0.102436
1388.9	0.089586
1398.54	0.044836
1408.18	0.022906
1417.83	0.018596
1427.47	0.026006
1437.12	0.041726
1446.76	0.069536
1456.41	0.088016
1466.05	0.070386
1475.7	0.035136
1485.34	0.036686
1494.99	0.065326
1504.63	0.093196
1514.28	0.092016
1523.92	0.050476
1533.57	0.018176
1543.21	0.014156
1552.86	0.021396
1562.5	0.021886
1572.15	0.014806
1581.79	0.006266
1591.44	0.005286
1601.08	0.005066
1610.73	0.004676
1620.37	0.003966
1630.01	0.003586
1639.66	0.003336
1649.3	0.004556
1658.95	0.004806
1668.59	0.004186
1678.24	0.002856
1687.88	0.002546
1697.53	0.002066
1707.17	0.002196
1716.82	0.002376
1726.46	0.002636
1736.11	0.003986
1745.75	0.004926
1755.4	0.005396
1765.04	0.005336
1774.69	0.005786
1784.33	0.005106
1793.98	0.003976
1803.62	0.002566
1813.27	0.002076
1822.91	0.002016
1832.55	0.002226
1842.2	0.002646
1851.84	0.002556
1861.49	0.002846
1871.13	0.003366
1880.78	0.003746
1890.42	0.004936
1900.07	0.006226
1909.71	0.006446
1919.36	0.005146
1929	0.003366
1938.65	0.002066
1948.29	0.001756
1957.94	0.0013414
1967.58	0.0013385
1977.23	0.0014287
1986.87	0.001223
1996.52	0.0014633
2006.16	0.0015206
2015.81	0.0014092
2025.45	0.0014811
2035.1	0.0015993
2044.74	0.0015099
2054.38	0.0012132
2064.03	0.0011463
2073.67	0.0011073
2083.32	0.0011005
2092.96	0.0010569
2102.61	0.0012559
2112.25	0.0010099
2121.9	0.0011148
2131.54	0.0011961
2141.19	0.0012376
2150.83	0.001133
2160.48	0.0012121
2170.12	0.0014224
2179.77	0.0013641
2189.41	0.0012221
2199.06	0.0014127
2208.7	0.0012883
2218.35	0.0012824
2227.99	0.0013396
2237.64	0.0014435
2247.28	0.001726
2256.92	0.001906
2266.57	0.002296
2276.21	0.002926
2285.86	0.003286
2295.5	0.003166
2305.15	0.003286
2314.79	0.003166
2324.44	0.003036
2334.08	0.002816
2343.73	0.002526
2353.37	0.002136
2363.02	0.001646
2372.66	0.0014276
2382.31	0.001756
2391.95	0.002106
2401.6	0.001936
2411.24	0.001886
2420.89	0.001508
2430.53	0.0012546
2440.18	0.0009698
2449.82	0.0010645
2459.47	0.0011502
2469.11	0.0010355
2478.75	0.0011326
2488.4	0.0008438
2498.04	0.0009808
2507.69	0.0010387
2517.33	0.0007987
2526.98	0.0008954
2536.62	0.00070765
2546.27	0.0005502
2555.91	0.00062664
2565.56	0.0007737
2575.2	0.0008345
2584.85	0.000593
2594.49	0.0011694
2604.14	0.0012277
2613.78	0.0013736
2623.43	0.001452
2633.07	0.0010072
2642.72	0.0012919
2652.36	0.0014347
2662.01	0.001836
2671.65	0.0014264
2681.29	0.001293
2690.94	0.0011335
2700.58	0.0011541
2710.23	0.0008197
2719.87	0.0010944
2729.52	0.0015347
2739.16	0.0014292
2748.81	0.0011613
2758.45	0.0005918
2768.1	0.0008146
2777.74	0.0011576
2787.39	0.0013392
2797.03	0.0013262
2806.68	0.001716
2816.32	0.002306
2825.97	0.003726
2835.61	0.005176
2845.26	0.005976
2854.9	0.006776
2864.55	0.006166
2874.19	0.006296
2883.84	0.005796
2893.48	0.005326
2903.12	0.005896
2912.77	0.008016
2922.41	0.018466
2932.06	0.046536
2941.7	0.049796
2951.35	0.034446
2960.99	0.013266
2970.64	0.010916
2980.28	0.012496
2989.93	0.015336
2999.57	0.016686
3009.22	0.015826
3018.86	0.014306
3028.51	0.014666
3038.15	0.024196
3047.8	0.053206
3057.44	0.090246
3067.09	0.086496
3076.73	0.048616
3086.38	0.020086
3096.02	0.009556
3105.67	0.006716
3115.31	0.006016
3124.95	0.005486
3134.6	0.003576
3144.24	0.002656
3153.89	0.001646
3163.53	0.001324
3173.18	0.001568
3182.82	0.0014197
3192.47	0.0010033
3202.11	0.0008763
3211.76	0.0011587
3221.4	0.0011726
3231.05	0.0014024
3240.69	0.0007263
3250.34	0.0011185
3259.98	0.000501
3269.63	0.0008229
3279.27	0.001015
3288.92	0.0008287
3298.56	0.000452
3308.21	0.000573
3317.85	0.0007751
3327.49	0.000616104
3337.14	0.00070073
3346.78	0.000288
3356.43	0.0011856
3366.07	0.0008988
3375.72	0.0005
3385.36	0.000453
3395.01	0.000241
3404.65	0.0005817
3414.3	0.0008179
3423.94	0.0010343
3433.59	0.0008814
3443.23	0.0008709
3452.88	0.0005742
3462.52	0.001355
3472.17	0.0009351
3481.81	0.0012705
3491.46	0.0008806
3501.1	0.000371
3510.75	0.000305
3520.39	0.0008931
3530.04	0.0005205
3539.68	0.0008908
3549.32	0.0007876
3558.97	0.000781
3568.61	0.000274
3578.26	0.0008884
3587.9	0.0007821
3597.55	6.8e-05
3607.19	0.000311
3616.84	0.0005522
3626.48	0.00064739
3636.13	0.000348
3645.77	0.0008774
3655.42	0.000391
3665.06	0.00071564
3674.71	0.0005412
3684.35	0.0009129
3694	0.00067154
3703.64	0.000408
3713.29	0.00068295
3722.93	0.0009677
3732.58	0.0014018
3742.22	0.000117
3751.86	0.0009164
3761.51	0.00067272
3771.15	0.000366
3780.8	7.8e-05
3790.44	0.0010405
3800.09	0.0011988
3809.73	0.0013739
3819.38	0.001636
3829.02	0.0013739
3838.67	0.001119
3848.31	0.00071197
3857.96	0.000385
3867.6	0.0008974
3877.25	0.0008235
3886.89	0.0010244
3896.54	0.0007189
3906.18	0.000288
3915.83	0.000462
3925.47	0.0005798
3935.12	0.0009125
3944.76	0.0007362
3954.41	0.0009126
3964.05	0.0010503
3973.69	0.0012101
3983.34	0.0008582
3992.98	0.0007067
