Infrared Spectrum: 1-Nonene-3-ol
Formula: C 9 H 18 O
CAS: 21964-44-3
State: gas
Instrument: HP-GC/MS/IRD
Origin: NIST Mass Spectrometry Data Center
1/CM	ABSORBANCE
550	0.0007276
562	0.0002312
574	0.0001768
586	0.0002312
598	0.000221
610	0.0001938
622	7.14e-05
634	0.0001836
646	0.0003128
658	0.0004216
670	0.0005916
682	0.0007956
694	0.0006528
706	0.0005338
718	0.0007276
730	0.0007854
742	0.000493
754	0.000357
766	0.000289
778	0.0002686
790	0.0002108
802	0.000272
814	0.0002244
826	0.0003536
838	0.000544
850	0.0007684
862	0.000969
874	0.0011424
886	0.0014314
898	0.0020298
910	0.0035496
922	0.0068952
934	0.0052666
946	0.0032334
958	0.0033932
970	0.0043146
982	0.006205
994	0.0071638
1006	0.0059704
1018	0.005882
1030	0.006069
1042	0.005474
1054	0.0044846
1066	0.003723
1078	0.003213
1090	0.0029376
1102	0.002703
1114	0.0026248
1126	0.0026962
1138	0.002431
1150	0.0017782
1162	0.0013906
1174	0.0014246
1186	0.001683
1198	0.0019074
1210	0.0021488
1222	0.0023562
1234	0.0024786
1246	0.0025296
1258	0.0024854
1270	0.0024344
1282	0.002329
1294	0.0022474
1306	0.0022542
1318	0.0022712
1330	0.0024616
1342	0.002669
1354	0.0027982
1366	0.002771
1378	0.002652
1390	0.0022406
1402	0.002006
1414	0.0026894
1426	0.0030498
1438	0.0027608
1450	0.0029818
1462	0.0033422
1474	0.0024072
1486	0.0011696
1498	0.000646
1510	0.000425
1522	0.000289
1534	0.0002346
1546	0.0001734
1558	0.0001292
1570	0.0001462
1582	0.000153
1594	0.0002006
1606	0.0002108
1618	0.0002924
1630	0.0004998
1642	0.0007548
1654	0.0004862
1666	0.0002278
1678	0.0001598
1690	0.0001292
1702	0.0001054
1714	9.86e-05
1726	5.44e-05
1738	2.38e-05
1750	3.4e-06
1762	1.02e-05
1774	1.36e-05
1786	1.02e-05
1798	2.38e-05
1810	5.78e-05
1822	0.0001088
1834	0.0002618
1846	0.0005202
1858	0.0004624
1870	0.0001938
1882	0.0001054
1894	7.48e-05
1906	5.44e-05
1918	5.78e-05
1930	5.44e-05
1942	5.78e-05
1954	5.78e-05
1966	9.86e-05
1978	0.0001088
1990	8.16e-05
2002	6.46e-05
2014	6.8e-05
2026	9.18e-05
2038	9.18e-05
2050	5.44e-05
2062	6.8e-05
2074	8.16e-05
2086	7.48e-05
2098	4.42e-05
2110	6.8e-05
2122	6.12e-05
2134	3.74e-05
2146	4.42e-05
2158	4.42e-05
2170	6.8e-05
2182	6.12e-05
2194	4.08e-05
2206	3.4e-05
2218	4.42e-05
2230	4.76e-05
2242	6.46e-05
2254	5.78e-05
2266	7.14e-05
2278	6.8e-05
2290	7.14e-05
2302	6.46e-05
2314	6.8e-05
2326	7.48e-05
2338	7.82e-05
2350	9.86e-05
2362	6.46e-05
2374	7.82e-05
2386	8.5e-05
2398	6.8e-05
2410	7.82e-05
2422	7.14e-05
2434	9.52e-05
2446	7.48e-05
2458	8.16e-05
2470	8.16e-05
2482	5.78e-05
2494	7.14e-05
2506	0.000102
2518	7.48e-05
2530	0.0001088
2542	0.0001496
2554	0.0001224
2566	0.000153
2578	0.0001768
2590	0.000204
2602	0.0002142
2614	0.0002278
2626	0.0002414
2638	0.0002924
2650	0.0003366
2662	0.000391
2674	0.0004114
2686	0.0004386
2698	0.0004046
2710	0.0004114
2722	0.0004726
2734	0.0005372
2746	0.0005746
2758	0.0005678
2770	0.0006732
2782	0.0008296
2794	0.001054
2806	0.0013498
2818	0.0018496
2830	0.002754
2842	0.0048858
2854	0.0098056
2866	0.0144228
2878	0.0141032
2890	0.0117844
2902	0.012257
2914	0.018564
2926	0.0292502
2938	0.0338538
2950	0.02499
2962	0.0192678
2974	0.0152422
2986	0.0076364
2998	0.0047464
3010	0.0035802
3022	0.0027812
3034	0.001836
3046	0.0014314
3058	0.0013838
3070	0.001717
3082	0.0026996
3094	0.0027982
3106	0.001292
3118	0.0006086
3130	0.0004488
3142	0.0003502
3154	0.0002652
3166	0.0002482
3178	0.0002278
3190	0.0001768
3202	0.0001598
3214	8.84e-05
3226	7.82e-05
3238	8.16e-05
3250	3.74e-05
3262	6.8e-05
3274	4.42e-05
3286	7.14e-05
3298	5.78e-05
3310	8.16e-05
3322	4.42e-05
3334	8.84e-05
3346	6.46e-05
3358	9.18e-05
3370	0.0001326
3382	8.84e-05
3394	0.000119
3406	0.0001292
3418	0.000136
3430	0.0001292
3442	0.0001394
3454	0.0001326
3466	0.0001394
3478	8.84e-05
3490	7.48e-05
3502	5.78e-05
3514	0.0001088
3526	0.0001054
3538	0.0001156
3550	0.0001054
3562	0.0001632
3574	0.000153
3586	0.000187
3598	0.000255
3610	0.0003434
3622	0.0006222
3634	0.0013464
3646	0.002618
3658	0.0018666
3670	0.0007684
3682	0.0004284
3694	0.000306
3706	0.000238
3718	0.000187
3730	0.0002108
3742	0.0001666
3754	0.0002074
3766	0.0001836
3778	0.0001938
3790	0.0001632
3802	0.000187
3814	0.0001428
3826	0.000204
3838	0.0001666
