Infrared Spectrum: 1,13-Tetradecadiene
Formula: C 14 H 26
CAS: 21964-49-8
State: gas
Instrument: HP-GC/MS/IRD
Origin: NIST Mass Spectrometry Data Center
1/CM	ABSORBANCE
550	0.000602
562	0.000224
574	7e-05
586	0.000154
598	0.000448
610	0.001232
622	0.002198
634	0.002548
646	0.001442
658	0.000784
670	0.000434
682	0.000364
694	0.00049
706	0.000896
718	0.001582
730	0.001456
742	0.00105
754	0.0007
766	0.000476
778	0.000364
790	0.000294
802	0.00035
814	0.000434
826	0.000686
838	0.000938
850	0.0014
862	0.002044
874	0.00287
886	0.004634
898	0.009352
910	0.020664
922	0.014896
934	0.007252
946	0.00483
958	0.004088
970	0.004256
982	0.006552
994	0.009114
1006	0.005628
1018	0.003276
1030	0.002282
1042	0.00161
1054	0.001162
1066	0.000938
1078	0.000714
1090	0.00063
1102	0.00049
1114	0.000462
1126	0.000476
1138	0.00049
1150	0.000448
1162	0.000546
1174	0.000644
1186	0.000602
1198	0.000714
1210	0.000672
1222	0.000742
1234	0.000798
1246	0.000896
1258	0.001022
1270	0.001204
1282	0.001568
1294	0.002058
1306	0.002366
1318	0.002156
1330	0.002282
1342	0.003164
1354	0.003864
1366	0.002828
1378	0.00168
1390	0.001288
1402	0.001624
1414	0.00259
1426	0.003374
1438	0.005922
1450	0.00917
1462	0.009128
1474	0.004704
1486	0.001694
1498	0.000784
1510	0.000462
1522	0.00035
1534	0.000392
1546	0.000406
1558	0.000322
1570	0.000294
1582	0.000364
1594	0.000602
1606	0.00119
1618	0.002478
1630	0.005698
1642	0.009352
1654	0.003598
1666	0.001218
1678	0.000588
1690	0.000252
1702	0.00014
1714	5.6e-05
1726	2.8e-05
1738	0
1750	0
1762	0
1774	4.2e-05
1786	0.000112
1798	0.000294
1810	0.000756
1822	0.001792
1834	0.001876
1846	0.00077
1858	0.000294
1870	0.00014
1882	5.6e-05
1894	5.6e-05
1906	1.4e-05
1918	1.4e-05
1930	1.4e-05
1942	2.8e-05
1954	7e-05
1966	0.000196
1978	0.000224
1990	0.000126
2002	8.4e-05
2014	0.000112
2026	0.000154
2038	0.00014
2050	0.00014
2062	0.000112
2074	9.8e-05
2086	8.4e-05
2098	5.6e-05
2110	5.6e-05
2122	5.6e-05
2134	2.8e-05
2146	8.4e-05
2158	9.8e-05
2170	0.000112
2182	7e-05
2194	8.4e-05
2206	9.8e-05
2218	9.8e-05
2230	9.8e-05
2242	0.000112
2254	0.000112
2266	0.00014
2278	0.000126
2290	0.00014
2302	0.000182
2314	0.000112
2326	0.000112
2338	0.000126
2350	0.000112
2362	0.000112
2374	0.000112
2386	9.8e-05
2398	9.8e-05
2410	4.2e-05
2422	9.8e-05
2434	0.00014
2446	0.000126
2458	0.000168
2470	0.00014
2482	0.000196
2494	0.000224
2506	0.000252
2518	0.000322
2530	0.000378
2542	0.000406
2554	0.000378
2566	0.000378
2578	0.000392
2590	0.000504
2602	0.000546
2614	0.000658
2626	0.0007
2638	0.00084
2650	0.000952
2662	0.001022
2674	0.00119
2686	0.001274
2698	0.00119
2710	0.001078
2722	0.001078
2734	0.001176
2746	0.001274
2758	0.001428
2770	0.001722
2782	0.002086
2794	0.00266
2806	0.003654
2818	0.005236
2830	0.00805
2842	0.01484
2854	0.034272
2866	0.047992
2878	0.029568
2890	0.024066
2902	0.03458
2914	0.060186
2926	0.114226
2938	0.129486
2950	0.06006
2962	0.025746
2974	0.016772
2986	0.01505
2998	0.012796
3010	0.011144
3022	0.006804
3034	0.00504
3046	0.004774
3058	0.00574
3070	0.008498
3082	0.01407
3094	0.00994
3106	0.003766
3118	0.002128
3130	0.0014
3142	0.001036
3154	0.000882
3166	0.000644
3178	0.00056
3190	0.000448
3202	0.000364
3214	0.000294
3226	0.00028
3238	0.000238
3250	0.000252
3262	0.000238
3274	0.000238
3286	0.000196
3298	0.000196
3310	0.000126
3322	0.000126
3334	0.000182
3346	0.00014
3358	0.000154
3370	0.000196
3382	0.000112
3394	0.000126
3406	0.000182
3418	0.000154
3430	0.000238
3442	0.000154
3454	7e-05
3466	0.000182
3478	0.000168
3490	0.00014
3502	0.000112
3514	8.4e-05
3526	8.4e-05
3538	0.000126
3550	9.8e-05
3562	8.4e-05
3574	0.000168
3586	0.00014
3598	0.000182
3610	0.000224
3622	0.000224
3634	0.00028
3646	0.000322
3658	0.00021
3670	0.000252
3682	0.000238
3694	0.00028
3706	0.000308
3718	0.00028
3730	0.000224
3742	0.000294
3754	0.000322
3766	0.000238
3778	0.000266
3790	0.000266
3802	0.00035
3814	0.000224
3826	0.000224
3838	0.000308
