Infrared Spectrum: 4-Chloro-4'-nitrodiphenyl sulfide
Formula: C 12 H 8 Cl N O 2 S
CAS: 21969-11-9
State: gas
Origin: EPA-IR VAPOR PHASE LIBRARY
1/CM	ABSORBANCE
549.8	0.0121341
559.445	0.0097441
569.09	0.0027841
578.734	0.0019941
588.379	0.0023741
598.024	0.0024341
607.669	0.0024241
617.313	0.0020341
626.958	0.0013541
636.603	0.0012741
646.248	0.0013541
655.893	0.0022741
665.537	0.0045341
675.182	0.0083241
684.827	0.0087741
694.472	0.0071241
704.116	0.0052141
713.761	0.0059341
723.406	0.0140541
733.051	0.0251841
742.695	0.0351741
752.34	0.0183841
761.985	0.0073841
771.63	0.0049641
781.275	0.0050841
790.919	0.0071641
800.564	0.0125741
810.209	0.0234141
819.854	0.0537541
829.498	0.0497041
839.143	0.0509541
848.788	0.115814
858.433	0.0610641
868.078	0.0113041
877.722	0.0051741
887.367	0.0033441
897.012	0.0024041
906.657	0.0021841
916.301	0.0021241
925.946	0.0021741
935.591	0.0023241
945.236	0.0027241
954.88	0.0026441
964.525	0.0023541
974.17	0.0018641
983.815	0.0020441
993.46	0.0030241
1003.1	0.0150041
1012.75	0.0990541
1022.39	0.0188641
1032.04	0.0053141
1041.68	0.0051141
1051.33	0.0076141
1060.97	0.0140041
1070.62	0.0250641
1080.26	0.0605141
1089.91	0.110204
1099.55	0.103074
1109.2	0.0433741
1118.84	0.0159641
1128.49	0.0068641
1138.13	0.0041241
1147.78	0.0029841
1157.42	0.0029641
1167.07	0.0048741
1176.71	0.0143041
1186.36	0.0087841
1196	0.0058041
1205.64	0.0057141
1215.29	0.0074841
1224.93	0.0100441
1234.58	0.0066941
1244.22	0.0065441
1253.87	0.0075141
1263.51	0.0078041
1273.16	0.0078841
1282.8	0.0076341
1292.45	0.0087241
1302.09	0.0106141
1311.74	0.0154441
1321.38	0.0324941
1331.03	0.106184
1340.67	0.228854
1350.32	0.176314
1359.96	0.114254
1369.61	0.0587941
1379.25	0.0381641
1388.9	0.0357541
1398.54	0.0231341
1408.18	0.0148341
1417.83	0.0148941
1427.47	0.0149041
1437.12	0.0148141
1446.76	0.0162141
1456.41	0.0216441
1466.05	0.0595841
1475.7	0.158454
1485.34	0.0644241
1494.99	0.0274041
1504.63	0.0322241
1514.28	0.0535241
1523.92	0.0992641
1533.57	0.158484
1543.21	0.142384
1552.86	0.0763341
1562.5	0.0494641
1572.15	0.0658841
1581.79	0.0798241
1591.44	0.0839441
1601.08	0.0614841
1610.73	0.0299841
1620.37	0.0145041
1630.01	0.0113341
1639.66	0.0117141
1649.3	0.0105941
1658.95	0.0082041
1668.59	0.0058541
1678.24	0.0041241
1687.88	0.0029141
1697.53	0.0021341
1707.17	0.0017641
1716.82	0.0016941
1726.46	0.0016141
1736.11	0.0016441
1745.75	0.0015241
1755.4	0.0018641
1765.04	0.0030341
1774.69	0.0045641
1784.33	0.0044641
1793.98	0.0027741
1803.62	0.0019041
1813.27	0.0017341
1822.91	0.0015941
1832.55	0.0018041
1842.2	0.0018241
1851.84	0.0014741
1861.49	0.0014841
1871.13	0.0018841
1880.78	0.0027041
1890.42	0.0041341
1900.07	0.0055141
1909.71	0.0051741
1919.36	0.0039241
1929	0.0023841
1938.65	0.0013941
1948.29	0.0010145
1957.94	0.0010941
1967.58	0.0009352
1977.23	0.0006519
1986.87	0.0005451
1996.52	0.0004445
2006.16	0.0004608
2015.81	0.0004842
2025.45	0.0004974
2035.1	0.0004516
2044.74	0.0004038
2054.38	0.0003342
2064.03	0.0003672
2073.67	0.0004686
2083.32	0.0004853
2092.96	0.0004775
2102.61	0.0004046
2112.25	0.0005092
2121.9	0.0005753
2131.54	0.000421
2141.19	0.0002993
2150.83	0.0002607
2160.48	0.0003539
2170.12	0.0003555
2179.77	0.0005525
2189.41	0.0005745
2199.06	0.0006086
2208.7	0.000754
2218.35	0.0009581
2227.99	0.0006818
2237.64	0.0004938
2247.28	0.0004271
2256.92	0.0006858
2266.57	0.0009704
2276.21	0.0011641
2285.86	0.0012841
2295.5	0.0011841
2305.15	0.0010252
2314.79	0.000747
2324.44	0.0006904
2334.08	0.000464
2343.73	0.0005296
2353.37	0.0006554
2363.02	0.0006672
2372.66	0.0009673
2382.31	0.0012041
2391.95	0.0012441
2401.6	0.0008909
2411.24	0.0008818
2420.89	0.0008546
2430.53	0.0011141
2440.18	0.0015041
2449.82	0.0017941
2459.47	0.0016141
2469.11	0.0012041
2478.75	0.0010172
2488.4	0.0011041
2498.04	0.0011041
2507.69	0.0010641
2517.33	0.0009363
2526.98	0.0010641
2536.62	0.0013941
2546.27	0.0016841
2555.91	0.0015041
2565.56	0.0015241
2575.2	0.0015741
2584.85	0.0018941
2594.49	0.0015541
2604.14	0.0008291
2613.78	0.0007683
2623.43	0.0007438
2633.07	0.0007872
2642.72	0.0009734
2652.36	0.0012641
2662.01	0.0015541
2671.65	0.0014941
2681.29	0.0016041
2690.94	0.0016341
2700.58	0.0015241
2710.23	0.0009548
2719.87	0.0006811
2729.52	0.000604
2739.16	0.0005833
2748.81	0.0007122
2758.45	0.0007201
2768.1	0.0007667
2777.74	0.0006399
2787.39	0.0008244
2797.03	0.0010741
2806.68	0.0010941
2816.32	0.0009955
2825.97	0.0011041
2835.61	0.0013941
2845.26	0.0018641
2854.9	0.0024141
2864.55	0.0029941
2874.19	0.0029641
2883.84	0.0026641
2893.48	0.0022241
2903.12	0.0020641
2912.77	0.0020441
2922.41	0.0022841
2932.06	0.0020741
2941.7	0.0016841
2951.35	0.0012841
2960.99	0.0008762
2970.64	0.0006693
2980.28	0.0004781
2989.93	0.0006846
2999.57	0.000885
3009.22	0.0009832
3018.86	0.0014541
3028.51	0.0019741
3038.15	0.0018041
3047.8	0.0023141
3057.44	0.0038041
3067.09	0.0050141
3076.73	0.0070441
3086.38	0.0081541
3096.02	0.0042441
3105.67	0.0017041
3115.31	0.000817
3124.95	0.0005677
3134.6	0.0003878
3144.24	0.000376
3153.89	0.0004748
3163.53	0.0006203
3173.18	0.0007228
3182.82	0.0007597
3192.47	0.0005906
3202.11	0.0005203
3211.76	0.0003659
3221.4	8.725e-05
3231.05	0.0002059
3240.69	0.0002297
3250.34	0.0002124
3259.98	0.00010859
3269.63	0.00013827
3279.27	0.0002974
3288.92	0.0003027
3298.56	9.296e-05
3308.21	0.0002725
3317.85	0.00013038
3327.49	0.00010682
3337.14	0.0002844
3346.78	0.00013353
3356.43	0.0002479
3366.07	0.0002898
3375.72	0.0002072
3385.36	0.0002494
3395.01	0.0002608
3404.65	0.0002542
3414.3	0.0001593
3423.94	0.00010124
3433.59	0.00011193
3443.23	8.074e-05
3452.88	0.00012445
3462.52	0.0001846
3472.17	6.38e-05
3481.81	0.0002089
3491.46	1.21e-05
3501.1	0.00013487
3510.75	0.0001586
3520.39	0.0001565
3530.04	0.0001489
3539.68	0.0002829
3549.32	0.00011178
3558.97	0.0002888
3568.61	0.0003084
3578.26	0.000176
3587.9	0.00013667
3597.55	0.0003017
3607.19	0.0002786
3616.84	0.0001946
3626.48	0.0002265
3636.13	0.0002732
3645.77	0.0003905
3655.42	0.00013704
3665.06	0.0003648
3674.71	0.0002879
3684.35	0.0004002
3694	0.0004558
3703.64	0.0003929
3713.29	0.000816
3722.93	0.0006033
3732.58	0.0005086
3742.22	0.0003946
3751.86	0.0001992
3761.51	8.832e-05
3771.15	0.0001919
3780.8	0.0001996
3790.44	0.0002734
3800.09	0.0004928
3809.73	0.0004895
3819.38	0.000406
3829.02	0.0006592
3838.67	0.0004628
3848.31	0.0002036
3857.96	0.0002231
3867.6	0.0002144
3877.25	0.0003954
3886.89	9.499e-05
3896.54	0.000195
3906.18	0.0002975
3915.83	0.0001831
3925.47	0.000268
3935.12	0.0001825
3944.76	0.0002865
3954.41	0.0001947
3964.05	0.0004143
3973.69	0.000284
3983.34	0.0004174
3992.98	0.0001796
