Infrared Spectrum: 2,4,6-Trimethylpiperidine
Formula: C8 H17 N
CAS: 21974-48-1
State: LIQUID (NEAT)
Class: COBLENTZ III
Instrument: DOW KBr FOREPRISM-GRATING
Instrument parameters: BLAZED AT 3.5, 12.0, 20.0 MICRON AND CHANGED AT 5.0, 7.5, 14.9 MICRON
Sampling: TRANSMISSION
Path length: 0.0001 CM
Resolution: 2
Origin: DOW CHEMICAL COMPANY
1/CM	TRANSMITTANCE
3800	0.8782
3791	0.8798
3782	0.8817
3773	0.8838
3764	0.8835
3755	0.8831
3746	0.8841
3737	0.887
3728	0.889
3719	0.8908
3710	0.8918
3701	0.8925
3692	0.8908
3683	0.8832
3674	0.8811
3665	0.8727
3656	0.8792
3647	0.8854
3638	0.8871
3629	0.8878
3620	0.8883
3611	0.8875
3602	0.8865
3593	0.8847
3584	0.8828
3575	0.8803
3566	0.8775
3557	0.8741
3548	0.8705
3539	0.8668
3530	0.8627
3521	0.8582
3512	0.8538
3503	0.8494
3494	0.8452
3485	0.8411
3476	0.8346
3467	0.8271
3458	0.8195
3449	0.8121
3440	0.8094
3431	0.8089
3422	0.809
3413	0.8068
3404	0.8043
3395	0.8015
3386	0.7976
3377	0.7897
3368	0.7834
3359	0.7821
3350	0.7818
3341	0.7787
3332	0.7728
3323	0.7628
3314	0.7248
3305	0.7097
3296	0.6865
3287	0.6435
3278	0.6127
3269	0.6172
3260	0.6512
3251	0.691
3242	0.7237
3233	0.7434
3224	0.7518
3215	0.7533
3206	0.7511
3197	0.7469
3188	0.7426
3179	0.7399
3170	0.7457
3161	0.7556
3152	0.7656
3143	0.7714
3134	0.7718
3125	0.7712
3116	0.7708
3107	0.7739
3098	0.7821
3089	0.7915
3080	0.7945
3071	0.7928
3062	0.788
3053	0.7821
3044	0.7761
3035	0.7649
3026	0.7512
3017	0.7198
3008	0.675
2999	0.623
2990	0.4817
2981	0.1787
2972	0.0145
2963	0.0007
2954	0.0005
2945	0.0005
2936	0
2927	0.0006
2918	0.0015
2909	0.0024
2900	0.0032
2891	0.0029
2882	0.0054
2873	0.0079
2864	0.0066
2855	0.0375
2846	0.0553
2837	0.0488
2828	0.0386
2819	0.0818
2810	0.0758
2801	0.0372
2792	0.0469
2783	0.0734
2774	0.0942
2765	0.199
2756	0.3004
2747	0.3989
2738	0.3905
2729	0.3616
2720	0.35
2711	0.317
2702	0.262
2693	0.3506
2684	0.4656
2675	0.5301
2666	0.5414
2657	0.5925
2648	0.6195
2639	0.6104
2630	0.6005
2621	0.5899
2612	0.3059
2603	0.4709
2594	0.5988
2585	0.5406
2576	0.6431
2567	0.7432
2558	0.7864
2549	0.8104
2540	0.8143
2531	0.8036
2522	0.8121
2513	0.8305
2504	0.836
2495	0.8349
2486	0.8311
2477	0.8176
2468	0.8038
2459	0.8165
2450	0.8271
2441	0.8371
2432	0.8447
2423	0.8441
2414	0.841
2405	0.8418
2396	0.8421
2387	0.8428
2378	0.8445
2369	0.8478
2360	0.8514
2351	0.8549
2342	0.8549
2333	0.8478
2324	0.8415
2315	0.8358
2306	0.8351
2297	0.841
2288	0.8437
2279	0.8459
2270	0.8486
2261	0.8516
2252	0.8541
2243	0.8548
2234	0.8514
2225	0.8488
2216	0.8471
2207	0.8471
2198	0.8474
2189	0.8496
2180	0.8528
2171	0.8567
2162	0.8583
2153	0.8584
2144	0.8566
2135	0.8523
2126	0.8504
2117	0.8528
2108	0.8535
2099	0.8542
2090	0.8556
2081	0.857
2072	0.8571
2063	0.8571
2054	0.8563
2045	0.8564
2036	0.8571
2027	0.8578
2018	0.8593
2009	0.8635
2000	0.8683
1991	0.8689
1982	0.8668
1973	0.865
1964	0.863
1955	0.8605
1946	0.8567
1937	0.8518
1928	0.8478
1919	0.8475
1910	0.8505
1901	0.849
1892	0.8457
1883	0.8438
1874	0.843
1865	0.8421
1856	0.8409
1847	0.841
1838	0.8444
1829	0.8465
1820	0.8478
1811	0.8473
1802	0.8471
1793	0.8473
1784	0.8474
1775	0.8471
1766	0.8523
1757	0.8455
1748	0.8443
1739	0.8425
1730	0.8399
1721	0.8355
1712	0.8317
1703	0.8281
1694	0.8183
1685	0.8104
1676	0.8065
1667	0.8035
1658	0.8101
1649	0.8144
1640	0.8126
1631	0.808
1622	0.7999
1613	0.6865
1604	0.7432
1595	0.7868
1586	0.7997
1577	0.7853
1568	0.7618
1559	0.798
1550	0.8081
1541	0.8092
1532	0.7985
1523	0.7896
1514	0.7778
1505	0.7578
1496	0.7124
1487	0.6165
1478	0.424
1469	0.1421
1460	0.0267
1451	0.0244
1442	0.0879
1433	0.2239
1424	0.1632
1415	0.5564
1406	0.6075
1397	0.6017
1388	0.3875
1379	0.0613
1370	0.0353
1361	0.4066
1352	0.5064
1343	0.4637
1334	0.4393
1325	0.4075
1316	0.0089
1307	0.3575
1298	0.5333
1289	0.6458
1280	0.5341
1271	0.6229
1262	0.5653
1253	0.7232
1244	0.7588
1235	0.7728
1226	0.7934
1217	0.7799
1208	0.7478
1199	0.4409
1190	0.1075
1181	0.232
1172	0.5358
1163	0.3647
1154	0.3852
1145	0.423
1136	0.2684
1127	0.2481
1118	0.1716
1109	0.3471
1100	0.5277
1091	0.6657
1082	0.7651
1073	0.7615
1064	0.7418
1055	0.7326
1046	0.6451
1037	0.7036
1028	0.4822
1019	0.6058
1010	0.7401
1001	0.7224
992	0.5615
983	0.5058
974	0.7148
965	0.7474
956	0.6701
947	0.7598
938	0.7634
929	0.7575
920	0.7808
911	0.7558
902	0.7891
893	0.7724
884	0.7389
875	0.6608
866	0.5766
857	0.532
848	0.6054
839	0.6743
830	0.755
821	0.7387
812	0.6692
803	0.5906
794	0.5223
785	0.4844
776	0.3442
767	0.2634
758	0.1714
749	0.0674
740	0.0295
731	0.0857
722	0.2267
713	0.3482
704	0.5188
695	0.6344
686	0.7117
677	0.7765
668	0.8145
659	0.8565
650	0.8124
641	0.7305
632	0.8182
623	0.8482
614	0.8758
605	0.876
596	0.7641
587	0.8465
578	0.8153
569	0.7193
560	0.7389
551	0.2129
542	0.7433
533	0.7991
524	0.8268
515	0.7936
506	0.6925
497	0.5945
488	0.5298
479	0.6678
470	0.7596
461	0.7761
452	0.7728
