Infrared Spectrum: 4-Propyl-4-heptanol
Formula: C 10 H 22 O
CAS: 2198-72-3
State: gas
Instrument: HP-GC/MS/IRD
Origin: NIST Mass Spectrometry Data Center
1/CM	ABSORBANCE
550	0.000258
562	0.0002236
574	0.0003053
586	0.000215
598	0.0002279
610	0.000129
622	7.31e-05
634	6.88e-05
646	0.0001204
658	0.0001462
670	4.3e-06
682	7.31e-05
694	0.0001505
706	9.89e-05
718	0.0002494
730	0.0004257
742	0.0007826
754	0.0006923
766	0.0006192
778	0.000602
790	0.0006923
802	0.0006837
814	0.0004859
826	0.0004386
838	0.0005891
850	0.0014233
862	0.0019952
874	0.0014448
886	0.0011266
898	0.0015179
910	0.0016727
922	0.0009847
934	0.0006235
946	0.000645
958	0.0009718
970	0.0021629
982	0.0040334
994	0.003956
1006	0.0024639
1018	0.0015609
1030	0.0010105
1042	0.0009804
1054	0.0010449
1066	0.0012642
1078	0.0014319
1090	0.0016383
1102	0.0017372
1114	0.0020554
1126	0.0031046
1138	0.0043043
1150	0.0052202
1162	0.0045709
1174	0.0028423
1186	0.0018361
1198	0.0015265
1210	0.0017286
1222	0.0020124
1234	0.0021672
1246	0.0022403
1258	0.0023607
1270	0.0025026
1282	0.0025757
1294	0.0024467
1306	0.0022661
1318	0.0021844
1330	0.0020296
1342	0.0019694
1354	0.002279
1366	0.0028552
1378	0.003483
1390	0.0030788
1402	0.0019651
1414	0.0015695
1426	0.0017372
1438	0.0027219
1450	0.0041882
1462	0.0054653
1474	0.0041323
1486	0.0017114
1498	0.0008729
1510	0.0006278
1522	0.0004902
1534	0.0004214
1546	0.0003311
1558	0.0002752
1570	0.0002451
1582	0.0002021
1594	0.0002021
1606	0.0001634
1618	0.0001806
1630	0.0001591
1642	0.0001462
1654	0.0001161
1666	0.0001032
1678	8.17e-05
1690	0.0001032
1702	9.46e-05
1714	5.16e-05
1726	1.29e-05
1738	2.15e-05
1750	1.29e-05
1762	4.3e-06
1774	4.3e-06
1786	3.87e-05
1798	2.58e-05
1810	1.72e-05
1822	3.87e-05
1834	1.72e-05
1846	1.72e-05
1858	1.72e-05
1870	1.72e-05
1882	1.72e-05
1894	1.72e-05
1906	2.15e-05
1918	1.29e-05
1930	8.6e-06
1942	2.58e-05
1954	1.72e-05
1966	1.72e-05
1978	3.44e-05
1990	5.59e-05
2002	3.44e-05
2014	1.72e-05
2026	4.73e-05
2038	5.16e-05
2050	4.73e-05
2062	4.73e-05
2074	3.87e-05
2086	4.73e-05
2098	1.72e-05
2110	4.3e-05
2122	2.15e-05
2134	2.15e-05
2146	3.87e-05
2158	2.58e-05
2170	4.3e-05
2182	3.87e-05
2194	3.01e-05
2206	4.73e-05
2218	2.58e-05
2230	1.72e-05
2242	1.72e-05
2254	3.87e-05
2266	4.3e-05
2278	1.72e-05
2290	3.87e-05
2302	4.73e-05
2314	4.3e-05
2326	5.16e-05
2338	7.74e-05
2350	6.45e-05
2362	0.0001118
2374	0.0001075
2386	9.46e-05
2398	7.31e-05
2410	8.17e-05
2422	7.74e-05
2434	7.31e-05
2446	6.02e-05
2458	3.44e-05
2470	1.72e-05
2482	3.44e-05
2494	4.3e-05
2506	6.02e-05
2518	5.59e-05
2530	8.6e-05
2542	7.31e-05
2554	8.17e-05
2566	0.0001118
2578	0.0001333
2590	0.0001763
2602	0.0001935
2614	0.0002236
2626	0.0002021
2638	0.0002451
2650	0.0002494
2662	0.0002623
2674	0.0002838
2686	0.0002881
2698	0.000344
2710	0.0004042
2722	0.0004816
2734	0.0007138
2746	0.0008385
2758	0.0007439
2770	0.0007482
2782	0.0008514
2794	0.0010363
2806	0.0013287
2818	0.0017587
2830	0.0024467
2842	0.0039216
2854	0.0063726
2866	0.0091375
2878	0.0162411
2890	0.0164733
2902	0.0136697
2914	0.0175698
2926	0.0227728
2938	0.0306676
2950	0.0299237
2962	0.0395557
2974	0.0342409
2986	0.0116573
2998	0.0055126
3010	0.0036464
3022	0.0028251
3034	0.0022403
3046	0.0016985
3058	0.0013373
3070	0.0010406
3082	0.0008643
3094	0.0007654
3106	0.0006966
3118	0.0005418
3130	0.0005246
3142	0.0004472
3154	0.0004128
3166	0.0003913
3178	0.0003311
3190	0.0003096
3202	0.0002537
3214	0.0001548
3226	0.0001247
3238	8.17e-05
3250	9.89e-05
3262	9.89e-05
3274	9.03e-05
3286	6.88e-05
3298	6.88e-05
3310	3.87e-05
3322	6.88e-05
3334	3.44e-05
3346	3.44e-05
3358	3.44e-05
3370	6.02e-05
3382	6.45e-05
3394	7.31e-05
3406	0.0001032
3418	0.0001118
3430	0.0001032
3442	0.0001161
3454	0.0001333
3466	9.89e-05
3478	9.46e-05
3490	3.44e-05
3502	9.46e-05
3514	6.88e-05
3526	4.73e-05
3538	6.45e-05
3550	6.88e-05
3562	4.3e-05
3574	9.03e-05
3586	6.02e-05
3598	0.000129
3610	0.0001849
3622	0.0005332
3634	0.0013201
3646	0.0014319
3658	0.0005203
3670	0.0002279
3682	0.0001548
3694	0.0001806
3706	0.0001032
3718	0.0001032
3730	0.0001161
3742	0.000129
3754	0.0001462
3766	0.0001548
3778	0.000172
3790	0.0001333
3802	0.000215
3814	0.0001548
3826	0.0001892
3838	0.0001978
