Infrared Spectrum: BENZENAMINE,4-AMINO-N,N-DIETHYL-,HYDROCHLORIDE
Formula: C10 H17 Cl N2
CAS: 2198-58-5
State: SOLID (KBr DISC)
Class: COBLENTZ III
Instrument: PERKIN-ELMER 157
Sampling: TRANSMISSION
Resolution: 2
Origin: BRITISH PETROLEUM CO. LTD., ENGLAND
1/CM	TRANSMITTANCE
668	0.3988
677	0.416
686	0.4363
695	0.4618
704	0.6266
713	0.5603
722	0.5958
731	0.5556
740	0.604
749	0.6396
758	0.6631
767	0.6845
776	0.7043
785	0.7023
794	0.6434
803	0.6927
812	0.6272
821	0.4855
830	0.2224
839	0.0283
848	0.1797
857	0.5927
866	0.6775
875	0.6784
884	0.7039
893	0.6957
902	0.6492
911	0.4322
920	0.5276
929	0.6824
938	0.6971
947	0.6969
956	0.693
965	0.6713
974	0.6703
983	0.6463
992	0.6166
1001	0.5801
1010	0.4253
1019	0.1121
1028	0.3586
1037	0.3975
1046	0.517
1055	0.4953
1064	0.531
1073	0.6477
1082	0.6395
1091	0.537
1100	0.4981
1109	0.526
1118	0.4518
1127	0.3793
1136	0.4507
1145	0.4039
1154	0.144
1163	0.3948
1172	0.5571
1181	0.2685
1190	0.5646
1199	0.5159
1208	0.6878
1217	0.692
1226	0.6865
1235	0.6801
1244	0.6571
1253	0.6433
1262	0.5822
1271	0.5151
1280	0.4592
1289	0.3735
1298	0.2014
1307	0.0435
1316	0.2737
1325	0.3916
1334	0.4375
1343	0.6282
1352	0.6501
1361	0.5712
1370	0.3619
1379	0.1721
1388	0.2675
1397	0.4505
1406	0.3051
1415	0.3222
1424	0.3699
1433	0.4976
1442	0.3623
1451	0.2131
1460	0.2189
1469	0.156
1478	0.063
1487	0.1933
1496	0.3433
1505	0.2052
1514	0.0631
1523	0.0956
1532	0.1907
1541	0.458
1550	0.5411
1559	0.6066
1568	0.6367
1577	0.64
1586	0.6143
1595	0.5588
1604	0.235
1613	0.0498
1622	0.0883
1631	0.0963
1640	0.1022
1649	0.4608
1658	0.5652
1667	0.6735
1676	0.7648
1685	0.7888
1694	0.8024
1703	0.8249
1712	0.8381
1721	0.842
1730	0.8578
1739	0.8605
1748	0.859
1757	0.8554
1766	0.8469
1775	0.8489
1784	0.8577
1793	0.8631
1802	0.8655
1811	0.8643
1820	0.859
1829	0.8444
1838	0.8422
1847	0.8413
1856	0.8359
1865	0.8257
1874	0.8154
1883	0.7924
1892	0.7559
1901	0.7394
1910	0.7914
1919	0.8225
1928	0.8309
1937	0.8354
1946	0.8349
1955	0.8337
1964	0.8321
1973	0.83
1982	0.8272
1991	0.8231
2000	0.8156
2009	0.8061
2018	0.7975
2027	0.7953
2036	0.7939
2045	0.793
2054	0.7927
2063	0.7928
2072	0.7936
2081	0.7947
2090	0.7939
2099	0.7856
2108	0.7772
2117	0.7706
2126	0.767
2135	0.7623
2144	0.7563
2153	0.7489
2162	0.7394
2171	0.7266
2180	0.7206
2189	0.7182
2198	0.7171
2207	0.7159
2216	0.713
2225	0.7075
2234	0.7033
2243	0.7022
2252	0.7011
2261	0.6997
2270	0.6958
2279	0.6872
2288	0.6755
2297	0.6723
2306	0.6678
2315	0.6563
2324	0.6395
2333	0.6233
2342	0.6081
2351	0.5883
2360	0.5623
2369	0.5489
2378	0.5378
2387	0.524
2396	0.504
2405	0.4953
2414	0.4847
2423	0.4425
2432	0.3948
2441	0.351
2450	0.2494
2459	0.1847
2468	0.183
2477	0.2204
2486	0.2611
2495	0.2777
2504	0.2025
2513	0.1262
2522	0.1071
2531	0.1066
2540	0.1182
2549	0.124
2558	0.1191
2567	0.0972
2576	0.0741
2585	0.0591
2594	0.045
2603	0.0411
2612	0.0396
2621	0.0233
2630	0.0213
2639	0.0214
2648	0.0292
2657	0.0353
2666	0.0387
2675	0.0405
2684	0.0428
2693	0.05
2702	0.0643
2711	0.0924
2720	0.1203
2729	0.1277
2738	0.1287
2747	0.1295
2756	0.1402
2765	0.1889
2774	0.2381
2783	0.282
2792	0.2736
2801	0.2352
2810	0.1969
2819	0.1589
2828	0.1212
2837	0.1091
2846	0.1081
2855	0.1086
2864	0.1163
2873	0.1254
2882	0.1327
2891	0.129
2900	0.1216
2909	0.1244
2918	0.1614
2927	0.1928
2936	0.1955
2945	0.1908
2954	0.1746
2963	0.1604
2972	0.163
2981	0.2152
2990	0.3589
2999	0.4112
3008	0.423
3017	0.4268
3026	0.43
3035	0.4336
3044	0.449
3053	0.4635
3062	0.4699
3071	0.4724
3080	0.4727
3089	0.4716
3098	0.4694
3107	0.4562
3116	0.4332
3125	0.3887
3134	0.3443
3143	0.3003
3152	0.2565
3161	0.2129
3170	0.1697
3179	0.1266
3188	0.0838
3197	0.0608
3206	0.0636
3215	0.0897
3224	0.1161
3233	0.1422
3242	0.1682
3251	0.2007
3260	0.1965
3269	0.1642
3278	0.132
3287	0.1
3296	0.0728
3305	0.0705
3314	0.0746
3323	0.0791
3332	0.081
3341	0.0759
3350	0.065
3359	0.0541
3368	0.051
3377	0.0675
3386	0.1105
3395	0.1532
3404	0.1958
3413	0.2381
3422	0.2802
3431	0.322
3440	0.3636
3449	0.4078
3458	0.4479
3467	0.4568
3476	0.4756
3485	0.5054
3494	0.5132
3503	0.521
3512	0.5288
3521	0.5378
3530	0.5475
3539	0.5567
3548	0.5656
3557	0.572
3566	0.5746
3575	0.577
3584	0.5788
3593	0.5794
3602	0.5798
3611	0.5797
3620	0.5796
3629	0.5794
3638	0.5786
3647	0.5779
3656	0.5774
3665	0.578
3674	0.5793
3683	0.5807
3692	0.5821
3701	0.5833
3710	0.5816
3719	0.5781
3728	0.575
3737	0.5733
3746	0.5725
3755	0.5722
3764	0.5721
3773	0.5716
3782	0.5712
3791	0.5707
3800	0.5692
3809	0.5672
3818	0.565
3827	0.5622
3836	0.5594
3845	0.5567
3854	0.5539
3863	0.5506
3872	0.547
3881	0.5444
3890	0.5441
3899	0.544
3908	0.5439
3917	0.5438
3926	0.5434
3935	0.5416
3944	0.5395
3953	0.5377
3962	0.537
3971	0.5365
3980	0.5359
3989	0.5354
3998	0.5349
