Infrared Spectrum: 4-Nonene
Formula: C 9 H 18
CAS: 2198-23-4
State: gas
Instrument: HP-GC/MS/IRD
Origin: NIST Mass Spectrometry Data Center
1/CM	ABSORBANCE
550	5.85e-05
562	3.51e-05
574	0.0001209
586	0.0001092
598	0.0002496
610	0.0002223
622	0.0001521
634	0.0001287
646	0.0002067
658	0.0002886
670	0.0003393
682	0.000546
694	0.0007293
706	0.0009204
718	0.0009399
730	0.0009516
742	0.0009594
754	0.0009594
766	0.0008892
778	0.0007215
790	0.0005811
802	0.0003939
814	0.000429
826	0.0003861
838	0.000429
850	0.0004758
862	0.0005187
874	0.0006396
886	0.0007176
898	0.0007254
910	0.0007332
922	0.0009321
934	0.0012753
946	0.0023634
958	0.004602
970	0.0052533
982	0.0030576
994	0.0014781
1006	0.0010062
1018	0.0008853
1030	0.0008034
1042	0.0008463
1054	0.0009867
1066	0.0010686
1078	0.0010374
1090	0.0010374
1102	0.0009165
1114	0.0005577
1126	0.0003471
1138	0.0003432
1150	0.0002925
1162	0.0002379
1174	0.0002067
1186	0.0002769
1198	0.0003237
1210	0.0003471
1222	0.0004251
1234	0.0004602
1246	0.0006084
1258	0.0007488
1270	0.0008658
1282	0.0009048
1294	0.0010413
1306	0.0011388
1318	0.0011934
1330	0.0014352
1342	0.0017745
1354	0.0013845
1366	0.0013416
1378	0.0019383
1390	0.0019656
1402	0.0013884
1414	0.0012324
1426	0.0016224
1438	0.0027963
1450	0.0040248
1462	0.004524
1474	0.0033774
1486	0.0018018
1498	0.0009711
1510	0.0006123
1522	0.0004407
1534	0.0003744
1546	0.0002964
1558	0.0002574
1570	0.0002457
1582	0.0002184
1594	0.000156
1606	0.0002067
1618	0.0002106
1630	0.000234
1642	0.0002613
1654	0.000312
1666	0.0003159
1678	0.0002808
1690	0.0002496
1702	0.0002301
1714	0.000234
1726	0.0002106
1738	0.0002184
1750	0.000195
1762	0.0001833
1774	0.0001677
1786	0.0001521
1798	0.0001209
1810	0.0001248
1822	0.0001287
1834	0.0001365
1846	0.0001014
1858	9.36e-05
1870	6.63e-05
1882	7.02e-05
1894	8.58e-05
1906	6.24e-05
1918	3.12e-05
1930	3.12e-05
1942	5.07e-05
1954	1.95e-05
1966	7.8e-06
1978	1.56e-05
1990	0
2002	4.29e-05
2014	4.68e-05
2026	7.02e-05
2038	7.8e-05
2050	8.19e-05
2062	6.24e-05
2074	3.9e-05
2086	4.29e-05
2098	4.68e-05
2110	3.51e-05
2122	3.51e-05
2134	4.29e-05
2146	4.68e-05
2158	2.73e-05
2170	3.9e-05
2182	2.34e-05
2194	5.85e-05
2206	3.9e-05
2218	2.73e-05
2230	4.68e-05
2242	3.51e-05
2254	5.46e-05
2266	6.24e-05
2278	4.68e-05
2290	5.46e-05
2302	6.24e-05
2314	6.63e-05
2326	7.41e-05
2338	0.0001014
2350	6.63e-05
2362	8.97e-05
2374	9.75e-05
2386	0.0001014
2398	0.0001014
2410	0.0001326
2422	8.97e-05
2434	9.36e-05
2446	9.75e-05
2458	7.8e-05
2470	4.29e-05
2482	5.07e-05
2494	6.24e-05
2506	7.41e-05
2518	0.0001131
2530	0.0001599
2542	0.000195
2554	0.0001872
2566	0.0001833
2578	0.0001833
2590	0.0002067
2602	0.0002301
2614	0.0002496
2626	0.000273
2638	0.0003432
2650	0.0003861
2662	0.0004524
2674	0.0004836
2686	0.0004524
2698	0.000468
2710	0.0004563
2722	0.0005382
2734	0.0006864
2746	0.0008073
2758	0.000819
2770	0.0009282
2782	0.0011115
2794	0.001404
2806	0.0017667
2818	0.0024219
2830	0.0037947
2842	0.0069342
2854	0.0115362
2866	0.0154869
2878	0.0182754
2890	0.0175071
2902	0.0181233
2914	0.0251238
2926	0.0350883
2938	0.0387972
2950	0.0325377
2962	0.0334503
2974	0.0308295
2986	0.0158223
2998	0.0095043
3010	0.0076986
3022	0.0062829
3034	0.0043251
3046	0.0028119
3058	0.0019305
3070	0.0015015
3082	0.0012597
3094	0.0010374
3106	0.0009165
3118	0.0007956
3130	0.0006825
3142	0.0006552
3154	0.0005226
3166	0.0004914
3178	0.0004719
3190	0.0004329
3202	0.0003861
3214	0.000312
3226	0.0002535
3238	0.000195
3250	0.0001911
3262	0.0001716
3274	0.0001599
3286	0.0001248
3298	0.0001248
3310	0.0001365
3322	0.0001365
3334	0.0001404
3346	0.000117
3358	0.0001443
3370	0.0001365
3382	0.0001404
3394	8.19e-05
3406	0.0001014
3418	0.0001209
3430	9.75e-05
3442	8.97e-05
3454	7.02e-05
3466	0.0001053
3478	8.97e-05
3490	3.51e-05
3502	3.51e-05
3514	7.41e-05
3526	6.24e-05
3538	4.68e-05
3550	7.02e-05
3562	4.29e-05
3574	6.63e-05
3586	7.8e-05
3598	7.02e-05
3610	8.19e-05
3622	6.63e-05
3634	9.75e-05
3646	9.36e-05
3658	0.0001014
3670	0.0001014
3682	0.0001014
3694	0.000117
3706	0.000156
3718	0.0001092
3730	0.000117
3742	0.0001287
3754	0.0001365
3766	0.000117
3778	0.0001404
3790	0.0001287
3802	0.0001521
3814	0.000156
3826	0.0001677
3838	0.0001287
