Infrared Spectrum: 3,4-Dimethylacetanilide
Formula: C 10 H 13 N O
CAS: 2198-54-1
State: gas
Origin: EPA-IR VAPOR PHASE LIBRARY
1/CM	ABSORBANCE
549.9	0.02504
559.547	0.02154
569.193	0.01717
578.84	0.01402
588.486	0.0113
598.133	0.01071
607.779	0.01195
617.426	0.01262
627.072	0.01467
636.719	0.01962
646.365	0.01556
656.012	0.00857
665.658	0.00706
675.305	0.00647
684.951	0.00628
694.598	0.0084
704.245	0.01047
713.891	0.00762
723.538	0.0052825
733.184	0.0050644
742.831	0.0054629
752.477	0.00685
762.124	0.0084
771.77	0.00913
781.417	0.01228
791.063	0.0208
800.71	0.02907
810.356	0.03101
820.003	0.02871
829.649	0.01866
839.296	0.01421
848.943	0.01698
858.589	0.0162
868.236	0.01632
877.882	0.01855
887.529	0.01708
897.175	0.01309
906.822	0.01035
916.468	0.00918
926.115	0.00925
935.761	0.00983
945.408	0.0108
955.054	0.0121
964.701	0.01445
974.347	0.01788
983.994	0.02343
993.64	0.03006
1003.29	0.03789
1012.93	0.04215
1022.58	0.03395
1032.23	0.02443
1041.87	0.0212
1051.52	0.01974
1061.17	0.0188
1070.81	0.01705
1080.46	0.014
1090.11	0.01143
1099.75	0.01007
1109.4	0.01024
1119.05	0.0112
1128.69	0.01058
1138.34	0.00983
1147.99	0.01047
1157.63	0.01317
1167.28	0.01524
1176.92	0.01609
1186.57	0.02027
1196.22	0.03426
1205.86	0.07692
1215.51	0.12496
1225.16	0.15516
1234.8	0.11753
1244.45	0.06539
1254.1	0.05318
1263.74	0.04954
1273.39	0.06642
1283.04	0.08737
1292.68	0.1187
1302.33	0.14793
1311.98	0.10572
1321.62	0.05445
1331.27	0.03232
1340.92	0.02807
1350.56	0.03661
1360.21	0.06872
1369.86	0.10705
1379.5	0.10868
1389.15	0.11176
1398.79	0.14478
1408.44	0.13868
1418.09	0.08279
1427.73	0.06447
1437.38	0.06965
1447.03	0.08478
1456.67	0.09773
1466.32	0.10037
1475.97	0.11293
1485.61	0.16363
1495.26	0.26865
1504.91	0.3642
1514.55	0.30832
1524.2	0.16809
1533.85	0.09195
1543.49	0.06267
1553.14	0.05121
1562.79	0.05007
1572.43	0.0556
1582.08	0.0688
1591.73	0.07888
1601.37	0.06888
1611.02	0.0713
1620.67	0.07087
1630.31	0.03496
1639.96	0.01849
1649.6	0.01696
1659.25	0.01898
1668.9	0.02327
1678.54	0.03253
1688.19	0.04959
1697.84	0.07954
1707.48	0.17347
1717.13	0.3428
1726.78	0.3175
1736.42	0.1821
1746.07	0.10084
1755.72	0.06328
1765.36	0.03923
1775.01	0.02455
1784.66	0.01744
1794.3	0.01261
1803.95	0.00976
1813.6	0.00818
1823.24	0.00749
1832.89	0.00731
1842.54	0.00766
1852.18	0.00789
1861.83	0.00755
1871.47	0.00715
1881.12	0.00695
1890.77	0.00647
1900.41	0.0056727
1910.06	0.0049788
1919.71	0.004622
1929.35	0.004508
1939	0.004414
1948.65	0.004235
1958.29	0.00385
1967.94	0.00356
1977.59	0.00345
1987.23	0.0034
1996.88	0.00352
2006.53	0.00356
2016.17	0.00348
2025.82	0.0034
2035.47	0.00335
2045.11	0.00325
2054.76	0.00314
2064.41	0.00298
2074.05	0.00286
2083.7	0.00279
2093.35	0.00272
2102.99	0.00283
2112.64	0.00308
2122.28	0.00338
2131.93	0.00363
2141.58	0.00365
2151.22	0.00358
2160.87	0.00347
2170.52	0.00336
2180.16	0.00322
2189.81	0.00314
2199.46	0.00314
2209.1	0.0031
2218.75	0.00297
2228.4	0.00294
2238.04	0.00294
2247.69	0.00293
2257.34	0.00282
2266.98	0.00276
2276.63	0.00278
2286.28	0.00278
2295.92	0.00274
2305.57	0.00275
2315.22	0.00284
2324.86	0.00293
2334.51	0.00288
2344.16	0.00279
2353.8	0.00274
2363.45	0.00276
2373.09	0.00285
2382.74	0.00306
2392.39	0.0033
2402.03	0.00344
2411.68	0.00335
2421.33	0.00319
2430.97	0.00303
2440.62	0.00305
2450.27	0.00301
2459.91	0.00289
2469.56	0.00267
2479.21	0.00255
2488.85	0.00243
2498.5	0.00237
2508.15	0.0023
2517.79	0.00223
2527.44	0.00218
2537.09	0.0022
2546.73	0.00222
2556.38	0.00216
2566.03	0.00213
2575.67	0.00207
2585.32	0.00207
2594.96	0.00203
2604.61	0.00199
2614.26	0.00191
2623.9	0.00195
2633.55	0.00194
2643.2	0.00195
2652.84	0.002
2662.49	0.00201
2672.14	0.00216
2681.78	0.00224
2691.43	0.00228
2701.08	0.00241
2710.72	0.00265
2720.37	0.00306
2730.02	0.003893
2739.66	0.0049611
2749.31	0.004357
2758.96	0.00345
2768.6	0.00336
2778.25	0.00316
2787.9	0.00296
2797.54	0.00322
2807.19	0.00369
2816.84	0.004549
2826.48	0.00587
2836.13	0.00786
2845.77	0.01125
2855.42	0.017
2865.07	0.02733
2874.71	0.03842
2884.36	0.03835
2894.01	0.03385
2903.65	0.03345
2913.3	0.03968
2922.95	0.0598
2932.59	0.08618
2942.24	0.07725
2951.89	0.05721
2961.53	0.04751
2971.18	0.04559
2980.83	0.04438
2990.47	0.03719
3000.12	0.03385
3009.77	0.03912
3019.41	0.04731
3029.06	0.04614
3038.71	0.03841
3048.35	0.03336
3058	0.02713
3067.64	0.02083
3077.29	0.01648
3086.94	0.01341
3096.58	0.01068
3106.23	0.00864
3115.88	0.00743
3125.52	0.00597
3135.17	0.004192
3144.82	0.00269
3154.46	0.00157
3164.11	0.00122
3173.76	0.00077
3183.4	0.00053
3193.05	0.00031
3202.7	0.00021
3212.34	6e-05
3221.99	0.00018
3231.64	0.00011
3241.28	0.00014
3250.93	0.00013
3260.58	8e-05
3270.22	9e-05
3279.87	0.00017
3289.52	0.00017
3299.16	0.0002
3308.81	0.00012
3318.45	0.00025
3328.1	0.00054
3337.75	0.0005
3347.39	0.00072
3357.04	0.00078
3366.69	0.00099
3376.33	0.0015
3385.98	0.00257
3395.63	0.004338
3405.27	0.00723
3414.92	0.01033
3424.57	0.01232
3434.21	0.01232
3443.86	0.01298
3453.51	0.0166
3463.15	0.02078
3472.8	0.01675
3482.45	0.00805
3492.09	0.004433
3501.74	0.00302
3511.39	0.00214
3521.03	0.00182
3530.68	0.00169
3540.33	0.00151
3549.97	0.00154
3559.62	0.00161
3569.26	0.00167
3578.91	0.00176
3588.56	0.00167
3598.2	0.00159
3607.85	0.00156
3617.5	0.00158
3627.14	0.00147
3636.79	0.00162
3646.44	0.00163
3656.08	0.0016
3665.73	0.00167
3675.38	0.0017
3685.02	0.00172
3694.67	0.0016
3704.32	0.00168
3713.96	0.00174
3723.61	0.00166
3733.26	0.00173
3742.9	0.00183
3752.55	0.00184
3762.2	0.00195
3771.84	0.00193
3781.49	0.00194
3791.13	0.00197
3800.78	0.00197
3810.43	0.00206
3820.07	0.0021
3829.72	0.00218
3839.37	0.00222
3849.01	0.00223
3858.66	0.00226
3868.31	0.00225
3877.95	0.00236
3887.6	0.00236
3897.25	0.00245
3906.89	0.00236
3916.54	0.0025
3926.19	0.00244
3935.83	0.00251
3945.48	0.00246
3955.13	0.00255
3964.77	0.00255
3974.42	0.00242
3984.07	0.00243
3993.71	0.0024
