Infrared Spectrum: 2,2'-(p-HYDROXYPHENYLAMINO) DIETHANOL
Formula: C10 H15 N O3
CAS: 2198-51-8
State: SOLID (MINERAL OIL MULL)
Melting point: 140-141 C
Class: COBLENTZ
Instrument: Not specified, most likely a prism, grating, or hybrid spectrometer.
Sampling: TRANSMISSION
Resolution: 4
Origin: WYANDOTTE CHEMICALS CORP., WYANDOTTE, MICHIGAN, USA
MICROMETERS	TRANSMITTANCE
2.019	0.516
2.05618	0.524
2.09337	0.534
2.13055	0.539
2.16774	0.547
2.20492	0.556
2.2421	0.551
2.27929	0.561
2.31647	0.576
2.35366	0.6
2.39084	0.603
2.42802	0.607
2.46521	0.626
2.50239	0.64
2.53958	0.662
2.57676	0.694
2.61394	0.708
2.65113	0.737
2.68831	0.756
2.7255	0.772
2.76268	0.784
2.79986	0.8
2.83705	0.753
2.87423	0.652
2.91142	0.548
2.9486	0.413
2.98578	0.221
3.02297	0.074
3.06015	0.038
3.09734	0.04
3.13452	0.043
3.17171	0.043
3.20889	0.034
3.24607	0.048
3.28326	0.046
3.32044	0.037
3.35763	0.013
3.39481	0.017
3.43199	0.013
3.46918	0.02
3.50636	0.031
3.54355	0.083
3.58073	0.165
3.61791	0.215
3.6551	0.218
3.69228	0.227
3.72947	0.268
3.76665	0.303
3.80383	0.325
3.84102	0.35
3.8782	0.39
3.91539	0.431
3.95257	0.466
3.98975	0.479
4.02694	0.502
4.06412	0.522
4.10131	0.544
4.13849	0.561
4.17567	0.581
4.21286	0.6
4.25004	0.607
4.28723	0.613
4.32441	0.638
4.36159	0.669
4.39878	0.688
4.43596	0.697
4.47315	0.694
4.51033	0.717
4.54751	0.725
4.5847	0.737
4.62188	0.75
4.65907	0.758
4.69625	0.764
4.73343	0.77
4.77062	0.778
4.8078	0.786
4.84499	0.776
4.88217	0.784
4.91935	0.773
4.95654	0.789
4.99372	0.8
5.03091	0.817
5.06809	0.804
5.10527	0.851
5.14246	0.846
5.17964	0.857
5.21683	0.86
5.25401	0.846
5.2912	0.835
5.32838	0.84
5.36556	0.817
5.40275	0.716
5.43993	0.798
5.47712	0.865
5.5143	0.897
5.55148	0.899
5.58867	0.906
5.62585	0.913
5.66304	0.919
5.70022	0.905
5.7374	0.897
5.77459	0.92
5.81177	0.917
5.84896	0.891
5.88614	0.919
5.92332	0.903
5.96051	0.896
5.99769	0.891
6.03488	0.851
6.07206	0.829
6.10924	0.756
6.14643	0.64
6.18361	0.722
6.2208	0.736
6.25798	0.84
6.29516	0.818
6.33235	0.795
6.36953	0.727
6.40672	0.624
6.4439	0.545
6.48108	0.255
6.51827	0.124
6.55545	0.094
6.59264	0.117
6.62982	0.195
6.667	0.186
6.70419	0.103
6.74137	0.102
6.77856	0.041
6.81574	0.043
6.85292	0.057
6.89011	0.075
6.92729	0.168
6.96448	0.305
7.00166	0.356
7.03884	0.41
7.07603	0.451
7.11321	0.431
7.1504	0.303
7.18758	0.155
7.22476	0.08
7.26195	0.151
7.29913	0.213
7.33632	0.131
7.3735	0.114
7.41069	0.195
7.44787	0.263
7.48505	0.347
7.52224	0.418
7.55942	0.42
7.59661	0.426
7.63379	0.475
7.67097	0.553
7.70816	0.516
7.74534	0.534
7.78253	0.621
7.81971	0.596
7.85689	0.37
7.89408	0.269
7.93126	0.227
7.96845	0.32
8.00563	0.17
8.04281	0.066
8.08	0.043
8.11718	0.043
8.15437	0.035
8.19155	0.079
8.22873	0.134
8.26592	0.127
8.3031	0.196
8.34029	0.291
8.37747	0.348
8.41465	0.265
8.45184	0.187
8.48902	0.13
8.52621	0.238
8.56339	0.403
8.60057	0.488
8.63776	0.522
8.67494	0.544
8.71213	0.57
8.74931	0.582
8.78649	0.528
8.82368	0.438
8.86086	0.499
8.89805	0.537
8.93523	0.548
8.97241	0.516
9.0096	0.41
9.04678	0.418
9.08397	0.479
9.12115	0.541
9.15833	0.573
9.19552	0.559
9.2327	0.511
9.26989	0.426
9.30707	0.277
9.34425	0.172
9.38144	0.097
9.41862	0.08
9.45581	0.097
9.49299	0.096
9.53018	0.058
9.56736	0.035
9.60454	0.079
9.64173	0.196
9.67891	0.286
9.7161	0.198
9.75328	0.075
9.79046	0.082
9.82765	0.226
9.86483	0.355
9.90202	0.415
9.9392	0.358
9.97638	0.347
10.0136	0.463
10.0508	0.516
10.0879	0.441
10.1251	0.254
10.1623	0.198
10.1995	0.333
10.2367	0.438
10.2739	0.508
10.311	0.553
10.3482	0.586
10.3854	0.603
10.4226	0.618
10.4598	0.635
10.497	0.643
10.5341	0.643
10.5713	0.655
10.6085	0.657
10.6457	0.652
10.6829	0.669
10.7201	0.68
10.7572	0.682
10.7944	0.668
10.8316	0.598
10.8688	0.595
10.906	0.668
10.9432	0.674
10.9804	0.644
11.0175	0.586
11.0547	0.516
11.0919	0.438
11.1291	0.502
11.1663	0.637
11.2035	0.677
11.2406	0.689
11.2778	0.689
11.315	0.689
11.3522	0.686
11.3894	0.677
11.4266	0.663
11.4637	0.637
11.5009	0.617
11.5381	0.589
11.5753	0.55
11.6125	0.465
11.6497	0.382
11.6868	0.223
11.724	0.124
11.7612	0.116
11.7984	0.213
11.8356	0.313
11.8728	0.356
11.91	0.386
11.9471	0.398
11.9843	0.395
12.0215	0.398
12.0587	0.395
12.0959	0.386
12.1331	0.333
12.1702	0.206
12.2074	0.08
12.2446	0.038
12.2818	0.035
12.319	0.103
12.3562	0.179
12.3933	0.209
12.4305	0.235
12.4677	0.3
12.5049	0.396
12.5421	0.404
12.5793	0.367
12.6165	0.348
12.6536	0.339
12.6908	0.348
12.728	0.362
12.7652	0.351
12.8024	0.339
12.8396	0.333
12.8767	0.345
12.9139	0.378
12.9511	0.393
12.9883	0.415
13.0255	0.427
13.0627	0.438
13.0998	0.437
13.137	0.435
13.1742	0.435
13.2114	0.431
13.2486	0.426
13.2858	0.431
13.3229	0.427
13.3601	0.42
13.3973	0.421
13.4345	0.413
13.4717	0.412
13.5089	0.41
13.5461	0.41
13.5832	0.412
13.6204	0.418
13.6576	0.421
13.6948	0.418
13.732	0.415
13.7692	0.418
13.8063	0.412
13.8435	0.401
13.8807	0.396
13.9179	0.406
13.9551	0.413
13.9923	0.406
14.0294	0.417
14.0666	0.396
14.1038	0.373
14.141	0.327
14.1782	0.297
14.2154	0.263
14.2525	0.243
14.2897	0.237
14.3269	0.24
14.3641	0.241
14.4013	0.248
14.4385	0.248
14.4757	0.266
14.5128	0.277
14.55	0.293
14.5872	0.302
14.6244	0.328
14.6616	0.337
14.6988	0.348
14.7359	0.356
14.7731	0.362
14.8103	0.367
14.8475	0.358
14.8847	0.358
14.9219	0.358
14.959	0.376
14.9962	0.384
15.0334	0.378
15.0706	0.378
15.1078	0.387
15.145	0.395
15.1821	0.401
15.2193	0.415
15.2565	0.427
15.2937	0.426
15.3309	0.417
15.3681	0.42
15.4053	0.413
15.4424	0.423
15.4796	0.412
15.5168	0.415
15.554	0.418
15.5912	0.424
15.6284	0.421
15.6655	0.424
15.7027	0.434
15.7399	0.427
15.7771	0.432
15.8143	0.427
15.8515	0.448
15.8886	0.431
15.9258	0.431
15.963	0.434
