Infrared Spectrum: 2-BROMO-4-TERT-BUTYLPHENOL
Formula: C10 H13 O Br
CAS: 2198-66-5
State: SOLUTION (10% CCl4 FOR 2.5-7.5, 10% CS2 FOR 7.5-16 MICRON)
Class: COBLENTZ
Instrument: Not specified, most likely a prism, grating, or hybrid spectrometer.
Sampling: TRANSMISSION
Path length: 0.01 CM, 0.01 CM
Resolution: 4
MICROMETERS	TRANSMITTANCE
2.043	0.949
2.07885	0.949
2.11471	0.949
2.15056	0.949
2.18641	0.95
2.22227	0.949
2.25812	0.947
2.29397	0.94
2.32982	0.94
2.36568	0.943
2.40153	0.945
2.43738	0.943
2.47324	0.942
2.50909	0.936
2.54494	0.931
2.5808	0.935
2.61665	0.931
2.6525	0.928
2.68835	0.928
2.72421	0.928
2.76006	0.891
2.79591	0.747
2.83177	0.573
2.86762	0.668
2.90347	0.859
2.93933	0.9
2.97518	0.921
3.01103	0.924
3.04688	0.924
3.08274	0.921
3.11859	0.919
3.15444	0.917
3.1903	0.912
3.22615	0.898
3.262	0.875
3.29786	0.85
3.33371	0.798
3.36956	0.392
3.40542	0.421
3.44127	0.563
3.47712	0.668
3.51297	0.821
3.54883	0.887
3.58468	0.901
3.62053	0.907
3.65639	0.91
3.69224	0.91
3.72809	0.912
3.76395	0.912
3.7998	0.912
3.83565	0.914
3.8715	0.914
3.90736	0.914
3.94321	0.914
3.97906	0.914
4.01492	0.914
4.05077	0.914
4.08662	0.914
4.12248	0.912
4.15833	0.907
4.19418	0.903
4.23003	0.901
4.26589	0.901
4.30174	0.907
4.33759	0.91
4.37345	0.915
4.4093	0.915
4.44515	0.915
4.48101	0.915
4.51686	0.915
4.55271	0.915
4.58857	0.915
4.62442	0.915
4.66027	0.915
4.69612	0.919
4.73198	0.917
4.76783	0.917
4.80368	0.917
4.83954	0.915
4.87539	0.915
4.91124	0.915
4.9471	0.914
4.98295	0.912
5.0188	0.91
5.05465	0.91
5.09051	0.912
5.12636	0.912
5.16221	0.912
5.19807	0.912
5.23392	0.908
5.26977	0.901
5.30563	0.896
5.34148	0.9
5.37733	0.901
5.41318	0.905
5.44904	0.907
5.48489	0.908
5.52074	0.908
5.5566	0.91
5.59245	0.907
5.6283	0.903
5.66416	0.894
5.70001	0.887
5.73586	0.885
5.77172	0.891
5.80757	0.898
5.84342	0.9
5.87927	0.9
5.91513	0.901
5.95098	0.901
5.98683	0.905
6.02269	0.905
6.05854	0.898
6.09439	0.898
6.13025	0.892
6.1661	0.817
6.20195	0.675
6.2378	0.622
6.27366	0.754
6.30951	0.738
6.34536	0.736
6.38122	0.747
6.41707	0.757
6.45292	0.761
6.48878	0.763
6.52463	0.77
6.56048	0.747
6.59634	0.671
6.63219	0.547
6.66804	0.15
6.70389	0.303
6.73975	0.41
6.7756	0.421
6.81145	0.468
6.84731	0.554
6.88316	0.684
6.91901	0.796
6.95487	0.801
6.99072	0.81
7.02657	0.808
7.06242	0.707
7.09828	0.67
7.13413	0.687
7.16998	0.733
7.20584	0.782
7.24169	0.75
7.27754	0.471
7.3134	0.554
7.34925	0.759
7.3851	0.807
7.42095	0.785
7.45681	0.554
7.49266	0.6
7.52851	0.735
7.56437	0.759
7.60022	0.775
7.63607	0.773
7.67193	0.617
7.70778	0.391
7.74363	0.27
7.77949	0.31
7.81534	0.396
7.85119	0.201
7.88704	0.312
7.9229	0.422
7.95875	0.507
7.9946	0.67
8.03046	0.743
8.06631	0.768
8.10216	0.764
8.13802	0.731
8.17387	0.633
8.20972	0.464
8.24557	0.259
8.28143	0.329
8.31728	0.407
8.35313	0.278
8.38899	0.145
8.42484	0.056
8.46069	0.082
8.49655	0.375
8.5324	0.561
8.56825	0.638
8.6041	0.664
8.63996	0.678
8.67581	0.721
8.71166	0.749
8.74752	0.754
8.78337	0.77
8.81922	0.789
8.85508	0.808
8.89093	0.817
8.92678	0.807
8.96264	0.761
8.99849	0.733
9.03434	0.747
9.07019	0.796
9.10605	0.817
9.1419	0.826
9.17775	0.838
9.21361	0.854
9.24946	0.863
9.28531	0.868
9.32117	0.87
9.35702	0.871
9.39287	0.871
9.42872	0.871
9.46458	0.868
9.50043	0.856
9.53628	0.791
9.57214	0.691
9.60799	0.556
9.64384	0.545
9.6797	0.728
9.71555	0.789
9.7514	0.808
9.78725	0.822
9.82311	0.84
9.85896	0.854
9.89481	0.864
9.93067	0.871
9.96652	0.877
10.0024	0.885
10.0382	0.887
10.0741	0.878
10.1099	0.873
10.1458	0.87
10.1816	0.868
10.2175	0.868
10.2533	0.868
10.2892	0.868
10.3251	0.868
10.3609	0.868
10.3968	0.868
10.4326	0.868
10.4685	0.868
10.5043	0.863
10.5402	0.854
10.576	0.847
10.6119	0.843
10.6477	0.842
10.6836	0.845
10.7194	0.843
10.7553	0.843
10.7911	0.84
10.827	0.835
10.8628	0.84
10.8987	0.854
10.9346	0.868
10.9704	0.871
11.0063	0.873
11.0421	0.875
11.078	0.875
11.1138	0.873
11.1497	0.871
11.1855	0.87
11.2214	0.863
11.2572	0.852
11.2931	0.814
11.3289	0.759
11.3648	0.608
11.4006	0.512
11.4365	0.466
11.4723	0.547
11.5082	0.657
11.5441	0.715
11.5799	0.743
11.6158	0.773
11.6516	0.8
11.6875	0.822
11.7233	0.838
11.7592	0.849
11.795	0.856
11.8309	0.857
11.8667	0.854
11.9026	0.849
11.9384	0.824
11.9743	0.794
12.0101	0.747
12.046	0.675
12.0818	0.563
12.1177	0.431
12.1536	0.131
12.1894	0.135
12.2253	0.347
12.2611	0.519
12.297	0.624
12.3328	0.685
12.3687	0.736
12.4045	0.768
12.4404	0.796
12.4762	0.821
12.5121	0.843
12.5479	0.856
12.5838	0.864
12.6196	0.873
12.6555	0.877
12.6914	0.88
12.7272	0.884
12.7631	0.884
12.7989	0.884
12.8348	0.884
12.8706	0.887
12.9065	0.885
12.9423	0.885
12.9782	0.885
13.014	0.885
13.0499	0.885
13.0857	0.885
13.1216	0.885
13.1574	0.885
13.1933	0.885
13.2291	0.885
13.265	0.884
13.3009	0.884
13.3367	0.884
13.3726	0.884
13.4084	0.885
13.4443	0.885
13.4801	0.885
13.516	0.885
13.5518	0.885
13.5877	0.885
13.6235	0.885
13.6594	0.884
13.6952	0.882
13.7311	0.882
13.7669	0.88
13.8028	0.877
13.8386	0.875
13.8745	0.863
13.9104	0.835
13.9462	0.778
13.9821	0.7
14.0179	0.649
14.0538	0.643
14.0896	0.633
14.1255	0.596
14.1613	0.556
14.1972	0.501
14.233	0.484
14.2689	0.505
14.3047	0.578
14.3406	0.642
14.3764	0.691
14.4123	0.728
14.4481	0.773
14.484	0.803
14.5199	0.819
14.5557	0.833
14.5916	0.843
14.6274	0.849
14.6633	0.854
14.6991	0.857
14.735	0.861
14.7708	0.863
14.8067	0.864
14.8425	0.864
14.8784	0.866
14.9142	0.866
14.9501	0.863
14.9859	0.859
15.0218	0.857
15.0577	0.857
15.0935	0.856
15.1294	0.856
15.1652	0.852
15.2011	0.847
15.2369	0.845
15.2728	0.842
15.3086	0.838
15.3445	0.833
15.3803	0.829
15.4162	0.826
15.452	0.822
15.4879	0.817
15.5237	0.812
15.5596	0.808
15.5954	0.803
15.6313	0.8
15.6672	0.794
15.703	0.789
15.7389	0.784
15.7747	0.778
15.8106	0.775
15.8464	0.766
15.8823	0.763
15.9181	0.759
15.954	0.757
15.9898	0.761
