Infrared Spectrum: 5-Aminononane
Formula: C 9 H 21 N
CAS: 2198-45-0
State: gas
Instrument: HP-GC/MS/IRD
Origin: NIST Mass Spectrometry Data Center
1/CM	ABSORBANCE
550	0.0006498
562	0.000228
574	0.0002166
586	0.0002318
598	0.0003078
610	0.0002394
622	0.000152
634	0.000228
646	0.0002888
658	0.000456
670	0.000532
682	0.0006308
694	0.0007828
706	0.0011856
718	0.001748
730	0.00247
742	0.0032224
754	0.004104
766	0.0052098
778	0.0058216
790	0.0052326
802	0.0041572
814	0.0028196
826	0.0018278
838	0.0012768
850	0.0009424
862	0.0008018
874	0.0005776
886	0.000456
898	0.0004522
910	0.000361
922	0.000209
934	0.0001368
946	0.0001482
958	0.0002128
970	0.0003192
982	0.0003838
994	0.0004864
1006	0.000494
1018	0.0007296
1030	0.0011248
1042	0.0010412
1054	0.0007714
1066	0.0005358
1078	0.000437
1090	0.0004104
1102	0.0003534
1114	0.000551
1126	0.0007714
1138	0.0009082
1150	0.0006726
1162	0.0003686
1174	0.0002926
1186	0.000266
1198	0.0003344
1210	0.0003572
1222	0.0004028
1234	0.0004446
1246	0.0004788
1258	0.0004332
1270	0.0003648
1282	0.000456
1294	0.0006384
1306	0.0007448
1318	0.0008208
1330	0.001121
1342	0.0016986
1354	0.0019646
1366	0.002185
1378	0.0026068
1390	0.0021774
1402	0.0010716
1414	0.0008322
1426	0.0009956
1438	0.0017366
1450	0.002945
1462	0.0037658
1474	0.0028728
1486	0.0013604
1498	0.0007714
1510	0.0005358
1522	0.0004446
1534	0.0003724
1546	0.0003762
1558	0.000399
1570	0.000513
1582	0.0006992
1594	0.001102
1606	0.0018658
1618	0.0024548
1630	0.0019532
1642	0.0010336
1654	0.0005092
1666	0.0002736
1678	0.0001824
1690	0.0001178
1702	9.12e-05
1714	6.84e-05
1726	6.46e-05
1738	1.52e-05
1750	3.42e-05
1762	3.04e-05
1774	4.94e-05
1786	1.9e-05
1798	2.28e-05
1810	2.66e-05
1822	3.04e-05
1834	3.42e-05
1846	3.04e-05
1858	7.6e-06
1870	2.66e-05
1882	1.9e-05
1894	0
1906	4.56e-05
1918	2.28e-05
1930	1.52e-05
1942	1.52e-05
1954	2.28e-05
1966	3.8e-06
1978	2.28e-05
1990	4.18e-05
2002	5.32e-05
2014	7.22e-05
2026	4.94e-05
2038	9.5e-05
2050	7.98e-05
2062	9.88e-05
2074	0.0001064
2086	7.6e-05
2098	6.84e-05
2110	0.0001064
2122	0.0001064
2134	8.74e-05
2146	0.000114
2158	0.0001102
2170	0.0001368
2182	0.0001178
2194	0.0001254
2206	0.0001254
2218	0.0001102
2230	0.000152
2242	0.0001406
2254	0.0001368
2266	0.0001748
2278	0.0001596
2290	0.0001406
2302	0.0001634
2314	0.0001862
2326	0.0001786
2338	0.0002052
2350	0.0001672
2362	0.000209
2374	0.00019
2386	0.0001786
2398	0.0001596
2410	0.0001786
2422	0.000152
2434	0.0001748
2446	0.0001748
2458	0.0001444
2470	0.0001634
2482	0.0001824
2494	0.0001634
2506	0.000171
2518	0.0001824
2530	0.0002432
2542	0.0002242
2554	0.0002812
2566	0.0002812
2578	0.000323
2590	0.000323
2602	0.0003838
2614	0.0004218
2626	0.0004598
2638	0.0004788
2650	0.000532
2662	0.000608
2674	0.0006498
2686	0.0006954
2698	0.0006878
2710	0.0006878
2722	0.0007486
2734	0.0008968
2746	0.0009956
2758	0.0009918
2770	0.0010678
2782	0.0012312
2794	0.001482
2806	0.0019722
2818	0.002717
2830	0.0039824
2842	0.0064866
2854	0.010811
2866	0.0151658
2878	0.0162944
2890	0.014934
2902	0.0161044
2914	0.023883
2926	0.0344964
2938	0.0369854
2950	0.0269534
2962	0.0263568
2974	0.0223706
2986	0.0089262
2998	0.004484
3010	0.0029602
3022	0.0021888
3034	0.0016302
3046	0.001235
3058	0.0009652
3070	0.000817
3082	0.000722
3094	0.0006574
3106	0.0005852
3118	0.0004978
3130	0.0004636
3142	0.0004294
3154	0.0003914
3166	0.0003458
3178	0.0003268
3190	0.0003534
3202	0.0002964
3214	0.0002546
3226	0.0001976
3238	0.0001748
3250	0.0001596
3262	0.0002014
3274	0.0001672
3286	0.0001558
3298	0.0002432
3310	0.000247
3322	0.0003838
3334	0.0004028
3346	0.000342
3358	0.0002242
3370	0.0002508
3382	0.0002166
3394	0.0001748
3406	0.0001976
3418	0.0001482
3430	0.0001406
3442	0.0001938
3454	0.0001178
3466	0.0001634
3478	0.0001254
3490	0.0001748
3502	0.0002014
3514	0.00019
3526	0.0001292
3538	0.0001596
3550	0.00019
3562	0.0001672
3574	0.0001672
3586	0.0002356
3598	0.0001824
3610	0.0001748
3622	0.0002014
3634	0.000228
3646	0.000209
3658	0.0002052
3670	0.0002242
3682	0.0002052
3694	0.0001748
3706	0.0002166
3718	0.000247
3730	0.0001862
3742	0.000228
3754	0.000247
3766	0.000228
3778	0.0001558
3790	0.0001938
3802	0.0001938
3814	0.0002014
3826	0.0002394
3838	0.0002394
