Infrared Spectrum: 1,2-Dichlorobenzene-d4
Formula: C 6 Cl 2 D 4
CAS: 2199-69-1
State: gas
Instrument: HP-GC/MS/IRD
Origin: NIST Mass Spectrometry Data Center
1/CM	ABSORBANCE
550	0.0005112
562	0.0026388
574	0.0074448
586	0.0076698
598	0.002907
610	0.0008442
622	0.0030114
634	0.0045882
646	0.0018414
658	0.0003474
670	0.0002826
682	0.000513
694	0.0020538
706	0.0048078
718	0.0035892
730	0.0007182
742	0.0004158
754	0.000297
766	0.0005238
778	0.0002322
790	0.0001044
802	0.0001188
814	4.68e-05
826	0.000117
838	0.0002016
850	0.0001674
862	0.0001008
874	4.5e-05
886	1.08e-05
898	0.0001656
910	0.0002574
922	0.0002772
934	0.000207
946	0.000162
958	0.0001098
970	0.0002844
982	0.0006426
994	0.0008226
1006	0.0014544
1018	0.0066708
1030	0.0100242
1042	0.0070524
1054	0.0103212
1066	0.0127062
1078	0.00477
1090	0.0006606
1102	0.0004608
1114	0.0004644
1126	0.0003384
1138	0.0002736
1150	0.0004968
1162	0.0008262
1174	0.0006696
1186	0.0004428
1198	0.0001998
1210	0.000162
1222	0.0001962
1234	0.0002124
1246	0.0004158
1258	0.000918
1270	0.0009324
1282	0.0015156
1294	0.0021114
1306	0.003411
1318	0.0054522
1330	0.0055764
1342	0.0072864
1354	0.0165438
1366	0.0161784
1378	0.0032868
1390	0.000846
1402	0.0006066
1414	0.0005472
1426	0.000459
1438	0.0003924
1450	0.00036
1462	0.0003816
1474	0.0003528
1486	0.0002772
1498	0.000252
1510	0.0007416
1522	0.0024138
1534	0.0049392
1546	0.0052542
1558	0.0030096
1570	0.001278
1582	0.0010548
1594	0.0004914
1606	0.0003582
1618	0.0002538
1630	0.0001386
1642	8.82e-05
1654	0.0001368
1666	0.0001656
1678	0.0001656
1690	0.0001962
1702	0.0001494
1714	0.0001206
1726	0.0001458
1738	0.0001422
1750	0.0001026
1762	8.1e-05
1774	9e-05
1786	8.1e-05
1798	8.28e-05
1810	6.12e-05
1822	0.0001116
1834	0.0001134
1846	9.54e-05
1858	4.68e-05
1870	5.58e-05
1882	4.68e-05
1894	4.68e-05
1906	6.3e-05
1918	5.22e-05
1930	5.58e-05
1942	3.6e-05
1954	3.06e-05
1966	3.6e-05
1978	4.14e-05
1990	0.0001134
2002	7.56e-05
2014	4.86e-05
2026	5.58e-05
2038	3.96e-05
2050	5.22e-05
2062	4.5e-05
2074	5.4e-05
2086	3.24e-05
2098	1.26e-05
2110	5.4e-06
2122	9e-06
2134	1.8e-05
2146	3.06e-05
2158	5.4e-05
2170	7.2e-05
2182	6.48e-05
2194	4.14e-05
2206	5.4e-05
2218	6.12e-05
2230	8.82e-05
2242	0.0001098
2254	0.0002088
2266	0.0006606
2278	0.0018162
2290	0.0019566
2302	0.0011484
2314	0.0007578
2326	0.0004284
2338	0.000198
2350	0.0001476
2362	0.0001764
2374	0.0002034
2386	0.0001728
2398	0.0001062
2410	8.1e-05
2422	8.64e-05
2434	6.3e-05
2446	3.78e-05
2458	3.24e-05
2470	5.04e-05
2482	5.4e-05
2494	5.04e-05
2506	9.54e-05
2518	0.0001098
2530	0.0001026
2542	8.1e-05
2554	5.94e-05
2566	6.48e-05
2578	5.22e-05
2590	4.5e-05
2602	7.2e-05
2614	3.06e-05
2626	3.24e-05
2638	3.06e-05
2650	4.68e-05
2662	3.6e-06
2674	4.32e-05
2686	3.24e-05
2698	3.6e-05
2710	3.06e-05
2722	3.42e-05
2734	4.86e-05
2746	5.22e-05
2758	3.96e-05
2770	5.04e-05
2782	7.92e-05
2794	0.0001008
2806	7.02e-05
2818	8.82e-05
2830	3.6e-05
2842	3.06e-05
2854	5.94e-05
2866	3.6e-05
2878	2.34e-05
2890	3.24e-05
2902	4.86e-05
2914	8.1e-05
2926	6.66e-05
2938	5.22e-05
2950	5.76e-05
2962	5.58e-05
2974	7.02e-05
2986	6.12e-05
2998	5.04e-05
3010	0.0001026
3022	6.3e-05
3034	8.46e-05
3046	1.08e-05
3058	1.26e-05
3070	8.64e-05
3082	3.96e-05
3094	5.58e-05
3106	3.78e-05
3118	6.3e-05
3130	9.72e-05
3142	0.0001152
3154	9e-05
3166	2.88e-05
3178	6.48e-05
3190	3.6e-05
3202	9.36e-05
3214	3.6e-06
3226	6.3e-05
3238	1.8e-05
3250	6.48e-05
3262	3.96e-05
3274	5.04e-05
3286	9.36e-05
3298	0.0001602
3310	0.0001836
3322	0.0002466
3334	0.0002034
3346	0.0001836
3358	8.64e-05
3370	0.0001242
3382	6.3e-05
3394	6.66e-05
3406	2.88e-05
3418	9.36e-05
3430	5.22e-05
3442	0.0001224
3454	0.0001386
3466	9.18e-05
3478	0.0001458
3490	8.64e-05
3502	5.4e-05
3514	0.000126
3526	0.0001116
3538	9.9e-05
3550	8.46e-05
3562	0.000162
3574	9.36e-05
3586	0.0001332
3598	0.0001098
3610	0.00018
3622	0.0001476
3634	0.000108
3646	0.0001926
3658	0.0001134
3670	0.0001206
3682	0.0001422
3694	9.72e-05
3706	0.0001296
3718	5.94e-05
3730	0.0001188
3742	0.0002016
3754	0.0001206
3766	0.0001152
3778	0.0001836
3790	0.0001242
3802	0.0001422
3814	0.0001278
3826	0.0001764
3838	0.0001746
