Infrared Spectrum: 3-Acetyl-6-bromocoumarin
Formula: C 11 H 7 Br O 3
CAS: 2199-93-1
State: gas
Origin: EPA-IR VAPOR PHASE LIBRARY
1/CM	ABSORBANCE
549.8	0.012219
559.445	0.009179
569.09	0.002979
578.734	0.002919
588.379	0.003029
598.024	0.002499
607.669	0.001479
617.313	0.0009391
626.958	0.001639
636.603	0.0007429
646.248	0.001319
655.893	0.003979
665.537	0.004229
675.182	0.001439
684.827	0.00069
694.472	0.0010976
704.116	0.0009414
713.761	0.0010622
723.406	0.001319
733.051	0.001899
742.695	0.002799
752.34	0.002369
761.985	0.002949
771.63	0.003819
781.275	0.002119
790.919	0.001389
800.564	0.0012001
810.209	0.004549
819.854	0.012549
829.498	0.005999
839.143	0.003299
848.788	0.004669
858.433	0.002469
868.078	0.002229
877.722	0.001899
887.367	0.001889
897.012	0.001889
906.657	0.003169
916.301	0.003759
925.946	0.005069
935.591	0.007499
945.236	0.014139
954.88	0.024779
964.525	0.017549
974.17	0.009929
983.815	0.006309
993.46	0.003749
1003.1	0.002969
1012.75	0.003249
1022.39	0.002219
1032.04	0.002639
1041.68	0.002079
1051.33	0.002439
1060.97	0.006649
1070.62	0.007829
1080.26	0.002869
1089.91	0.004249
1099.55	0.004789
1109.2	0.007259
1118.84	0.005869
1128.49	0.005389
1138.13	0.005919
1147.78	0.002299
1157.42	0.003429
1167.07	0.005069
1176.71	0.008889
1186.36	0.018959
1196	0.060059
1205.64	0.026749
1215.29	0.015239
1224.93	0.036949
1234.58	0.034419
1244.22	0.011209
1253.87	0.005949
1263.51	0.004799
1273.16	0.005299
1282.8	0.002489
1292.45	0.002029
1302.09	0.002589
1311.74	0.003139
1321.38	0.002649
1331.03	0.003059
1340.67	0.005919
1350.32	0.008569
1359.96	0.010279
1369.61	0.014739
1379.25	0.004549
1388.9	0.003439
1398.54	0.004639
1408.18	0.006469
1417.83	0.006219
1427.47	0.004449
1437.12	0.003879
1446.76	0.003569
1456.41	0.004459
1466.05	0.008399
1475.7	0.011469
1485.34	0.005789
1494.99	0.004029
1504.63	0.003649
1514.28	0.003219
1523.92	0.002899
1533.57	0.004239
1543.21	0.009239
1552.86	0.028509
1562.5	0.031499
1572.15	0.008529
1581.79	0.005849
1591.44	0.007719
1601.08	0.012539
1610.73	0.025749
1620.37	0.016779
1630.01	0.005419
1639.66	0.004539
1649.3	0.003659
1658.95	0.003599
1668.59	0.004719
1678.24	0.005909
1687.88	0.007409
1697.53	0.013689
1707.17	0.025979
1716.82	0.020069
1726.46	0.011469
1736.11	0.010809
1745.75	0.017959
1755.4	0.058559
1765.04	0.146219
1774.69	0.078729
1784.33	0.020779
1793.98	0.007929
1803.62	0.004979
1813.27	0.004329
1822.91	0.004039
1832.55	0.003179
1842.2	0.002839
1851.84	0.002399
1861.49	0.002509
1871.13	0.002419
1880.78	0.002629
1890.42	0.003339
1900.07	0.003479
1909.71	0.003129
1919.36	0.002499
1929	0.001999
1938.65	0.001769
1948.29	0.001479
1957.94	0.0011104
1967.58	0.0011439
1977.23	0.001329
1986.87	0.0009379
1996.52	0.0011983
2006.16	0.0011449
2015.81	0.001159
2025.45	0.0011204
2035.1	0.0011889
2044.74	0.0012197
2054.38	0.001539
2064.03	0.001509
2073.67	0.001389
2083.32	0.001279
2092.96	0.001299
2102.61	0.0010035
2112.25	0.0011271
2121.9	0.0011224
2131.54	0.0010244
2141.19	0.0010993
2150.83	0.0010285
2160.48	0.0009788
2170.12	0.0011022
2179.77	0.0010734
2189.41	0.0012285
2199.06	0.0010121
2208.7	0.001309
2218.35	0.001309
2227.99	0.000979
2237.64	0.0005109
2247.28	0.0010361
2256.92	0.000917
2266.57	0.0011091
2276.21	0.0009487
2285.86	0.0008307
2295.5	0.0011579
2305.15	0.0007951
2314.79	0.0008385
2324.44	0.0010688
2334.08	0.0011031
2343.73	0.0011515
2353.37	0.001015
2363.02	0.0011059
2372.66	0.0010325
2382.31	0.0008484
2391.95	0.0012346
2401.6	0.0008415
2411.24	0.0009604
2420.89	0.0008635
2430.53	0.0012413
2440.18	0.0008686
2449.82	0.001419
2459.47	0.0011137
2469.11	0.0012116
2478.75	0.0010842
2488.4	0.0010073
2498.04	0.0010692
2507.69	0.0010496
2517.33	0.0012664
2526.98	0.0010329
2536.62	0.0009651
2546.27	0.0009264
2555.91	0.0010685
2565.56	0.001086
2575.2	0.0008814
2584.85	0.0011978
2594.49	0.0010582
2604.14	0.000966
2613.78	0.0012289
2623.43	0.001429
2633.07	0.0010297
2642.72	0.0010391
2652.36	0.0008639
2662.01	0.0008964
2671.65	0.0009704
2681.29	0.0009628
2690.94	0.0009996
2700.58	0.0010234
2710.23	0.0011503
2719.87	0.0008914
2729.52	0.001379
2739.16	0.0006738
2748.81	0.0007918
2758.45	0.0009072
2768.1	0.0008486
2777.74	0.0006615
2787.39	0.0006712
2797.03	0.0010235
2806.68	0.001309
2816.32	0.0005918
2825.97	0.000865
2835.61	0.0010633
2845.26	0.0006964
2854.9	0.0012069
2864.55	0.0005442
2874.19	0.0011335
2883.84	0.0011519
2893.48	0.0011321
2903.12	0.0006924
2912.77	0.0005985
2922.41	0.0010579
2932.06	0.001559
2941.7	0.001669
2951.35	0.0008809
2960.99	0.0009048
2970.64	0.0010362
2980.28	0.001379
2989.93	0.001659
2999.57	0.001499
3009.22	0.002199
3018.86	0.002009
3028.51	0.0011407
3038.15	0.0009017
3047.8	0.0008446
3057.44	0.0008778
3067.09	0.0010871
3076.73	0.0008467
3086.38	0.0007914
3096.02	0.0012451
3105.67	0.0010049
3115.31	0.0009715
3124.95	0.0008978
3134.6	0.0012311
3144.24	0.0007377
3153.89	0.0010215
3163.53	0.0007128
3173.18	0.0006372
3182.82	0.00055
3192.47	0.0006521
3202.11	0.0009237
3211.76	0.0010857
3221.4	0.0007036
3231.05	0.0006802
3240.69	0.0006285
3250.34	0.0006293
3259.98	0.0009736
3269.63	0.001134
3279.27	0.000272262
3288.92	0.0011884
3298.56	0.0005779
3308.21	0.0009109
3317.85	0.0008568
3327.49	0.0005352
3337.14	0.00031154
3346.78	0.0006682
3356.43	0.000644
3366.07	0.0003407
3375.72	0.0007781
3385.36	0.001399
3395.01	0.0012253
3404.65	0.0010855
3414.3	0.001269
3423.94	0.0011251
3433.59	0.0010749
3443.23	0.0009397
3452.88	0.0008815
3462.52	0.000722
3472.17	0.0008872
3481.81	0.001389
3491.46	0.001419
3501.1	0.001609
3510.75	0.002309
3520.39	0.002259
3530.04	0.0011344
3539.68	0.0011153
3549.32	0.0006823
3558.97	0.0004814
3568.61	0.0005775
3578.26	0.0007719
3587.9	0.0006751
3597.55	0.0007917
3607.19	0.0008085
3616.84	0.0012603
3626.48	0.0011666
3636.13	0.0009398
3645.77	0.0009321
3655.42	0
3665.06	0.0009384
3674.71	0.0005736
3684.35	0.0009302
3694	0.0001742
3703.64	0.0008697
3713.29	0.0002337
3722.93	0.000729
3732.58	0.0009004
3742.22	0.000128
3751.86	0.0012491
3761.51	0.0007276
3771.15	0.00033625
3780.8	0.0006191
3790.44	0.000811
3800.09	0.0008777
3809.73	0.0011309
3819.38	0.00035152
3829.02	0.001078
3838.67	0.00034359
3848.31	0.0005356
3857.96	0.0006069
3867.6	0.0009064
3877.25	0.0004002
3886.89	0.0008883
3896.54	0.0004205
3906.18	0.0010915
3915.83	0.0009315
3925.47	0.000504
3935.12	0.0005029
3944.76	0.001479
3954.41	0.0006705
3964.05	0.0009672
3973.69	0.00066
3983.34	0.00029058
3992.98	0.0005154
