Infrared Spectrum: 1-Allyl-2-(1H)pyridinone
Formula: C 8 H 9 N O
CAS: 21997-30-8
State: gas
Origin: EPA-IR VAPOR PHASE LIBRARY
1/CM	ABSORBANCE
549.8	0.002386
559.445	0.002626
569.09	0.003036
578.734	0.003896
588.379	0.003326
598.024	0.001896
607.669	0.001276
617.313	0.001526
626.958	0.002436
636.603	0.003236
646.248	0.002906
655.893	0.001886
665.537	0.001436
675.182	0.0012035
684.827	0.0011782
694.472	0.001576
704.116	0.004306
713.761	0.007846
723.406	0.008846
733.051	0.009026
742.695	0.014926
752.34	0.025516
761.985	0.015946
771.63	0.007746
781.275	0.003646
790.919	0.002146
800.564	0.001546
810.209	0.002056
819.854	0.004226
829.498	0.008076
839.143	0.010546
848.788	0.006716
858.433	0.005586
868.078	0.007246
877.722	0.006756
887.367	0.003796
897.012	0.003716
906.657	0.005966
916.301	0.011656
925.946	0.014776
935.591	0.012306
945.236	0.008386
954.88	0.006186
964.525	0.004796
974.17	0.005246
983.815	0.006496
993.46	0.007676
1003.1	0.006346
1012.75	0.003846
1022.39	0.003046
1032.04	0.002276
1041.68	0.002176
1051.33	0.002126
1060.97	0.002226
1070.62	0.002186
1080.26	0.003106
1089.91	0.003536
1099.55	0.003826
1109.2	0.003556
1118.84	0.006256
1128.49	0.013136
1138.13	0.019326
1147.78	0.018596
1157.42	0.013816
1167.07	0.008396
1176.71	0.005266
1186.36	0.003026
1196	0.003496
1205.64	0.005636
1215.29	0.006716
1224.93	0.009186
1234.58	0.013706
1244.22	0.013496
1253.87	0.008306
1263.51	0.004606
1273.16	0.004606
1282.8	0.004776
1292.45	0.005586
1302.09	0.006896
1311.74	0.008406
1321.38	0.011416
1331.03	0.015226
1340.67	0.016316
1350.32	0.012206
1359.96	0.006666
1369.61	0.003896
1379.25	0.004496
1388.9	0.008616
1398.54	0.009416
1408.18	0.006876
1417.83	0.007426
1427.47	0.008376
1437.12	0.007126
1446.76	0.006606
1456.41	0.008536
1466.05	0.008426
1475.7	0.005136
1485.34	0.003826
1494.99	0.004616
1504.63	0.005796
1514.28	0.008746
1523.92	0.018316
1533.57	0.030746
1543.21	0.029336
1552.86	0.014936
1562.5	0.006316
1572.15	0.005286
1581.79	0.007086
1591.44	0.011226
1601.08	0.021756
1610.73	0.033196
1620.37	0.032186
1630.01	0.020836
1639.66	0.016456
1649.3	0.018386
1658.95	0.026936
1668.59	0.051206
1678.24	0.110876
1687.88	0.182156
1697.53	0.175036
1707.17	0.085746
1716.82	0.028306
1726.46	0.013336
1736.11	0.008286
1745.75	0.006436
1755.4	0.005666
1765.04	0.004806
1774.69	0.003806
1784.33	0.003026
1793.98	0.002676
1803.62	0.002656
1813.27	0.002536
1822.91	0.002676
1832.55	0.002926
1842.2	0.003156
1851.84	0.002956
1861.49	0.002686
1871.13	0.002056
1880.78	0.001576
1890.42	0.0011779
1900.07	0.0011427
1909.71	0.0010759
1919.36	0.0010652
1929	0.0010631
1938.65	0.001286
1948.29	0.001696
1957.94	0.001486
1967.58	0.0010905
1977.23	0.0009168
1986.87	0.0008915
1996.52	0.0008291
2006.16	0.0009453
2015.81	0.0008038
2025.45	0.0007423
2035.1	0.0006648
2044.74	0.0005621
2054.38	0.0004926
2064.03	0.0005145
2073.67	0.0005268
2083.32	0.0004913
2092.96	0.0004794
2102.61	0.0004676
2112.25	0.0005575
2121.9	0.0005175
2131.54	0.0005833
2141.19	0.000553
2150.83	0.0006035
2160.48	0.0005539
2170.12	0.0006853
2179.77	0.0006734
2189.41	0.0006356
2199.06	0.0006831
2208.7	0.0007955
2218.35	0.0008147
2227.99	0.0007753
2237.64	0.0007095
2247.28	0.0007166
2256.92	0.0008041
2266.57	0.0008356
2276.21	0.0008907
2285.86	0.0007688
2295.5	0.0007152
2305.15	0.0007276
2314.79	0.0006998
2324.44	0.0008556
2334.08	0.0010645
2343.73	0.001296
2353.37	0.001256
2363.02	0.001256
2372.66	0.001306
2382.31	0.0012388
2391.95	0.0009351
2401.6	0.0008723
2411.24	0.0008316
2420.89	0.0008958
2430.53	0.0009287
2440.18	0.00087
2449.82	0.0008042
2459.47	0.0006921
2469.11	0.000775
2478.75	0.0006099
2488.4	0.0005868
2498.04	0.0006934
2507.69	0.0007803
2517.33	0.0008151
2526.98	0.0009256
2536.62	0.0010797
2546.27	0.0010339
2555.91	0.0009694
2565.56	0.0010025
2575.2	0.0009016
2584.85	0.0008317
2594.49	0.0008727
2604.14	0.0007351
2613.78	0.000713
2623.43	0.0007037
2633.07	0.0006277
2642.72	0.0006265
2652.36	0.0005847
2662.01	0.0006149
2671.65	0.0006226
2681.29	0.0006799
2690.94	0.0006887
2700.58	0.0005417
2710.23	0.0006306
2719.87	0.000633
2729.52	0.00052
2739.16	0.0005399
2748.81	0.0006428
2758.45	0.0006399
2768.1	0.0007468
2777.74	0.0007717
2787.39	0.0006995
2797.03	0.000706
2806.68	0.0007695
2816.32	0.0008209
2825.97	0.0009042
2835.61	0.0011019
2845.26	0.001246
2854.9	0.001306
2864.55	0.001476
2874.19	0.001596
2883.84	0.001606
2893.48	0.002096
2903.12	0.002646
2912.77	0.004176
2922.41	0.006716
2932.06	0.008456
2941.7	0.007876
2951.35	0.005666
2960.99	0.004076
2970.64	0.003576
2980.28	0.004136
2989.93	0.005056
2999.57	0.005016
3009.22	0.004326
3018.86	0.004656
3028.51	0.005486
3038.15	0.006316
3047.8	0.005936
3057.44	0.004646
3067.09	0.004506
3076.73	0.005896
3086.38	0.008446
3096.02	0.009216
3105.67	0.006486
3115.31	0.003166
3124.95	0.001556
3134.6	0.001296
3144.24	0.001396
3153.89	0.001246
3163.53	0.0011323
3173.18	0.0005972
3182.82	0.0004218
3192.47	0.0006253
3202.11	0.0006032
3211.76	0.0006805
3221.4	0.0007405
3231.05	0.0006999
3240.69	0.0005721
3250.34	0.0005083
3259.98	0.0004752
3269.63	0.0006293
3279.27	0.0005804
3288.92	0.0008041
3298.56	0.0008694
3308.21	0.0007239
3317.85	0.0005315
3327.49	0.0005827
3337.14	0.000434
3346.78	0.0007415
3356.43	0.0011976
3366.07	0.001326
3375.72	0.001456
3385.36	0.0012045
3395.01	0.0007638
3404.65	0.0005193
3414.3	0.0003591
3423.94	0.0002278
3433.59	0.0002099
3443.23	0.0002071
3452.88	0.000246422
3462.52	0.0003485
3472.17	0.0003077
3481.81	0.0001884
3491.46	0.0002317
3501.1	0.00026337
3510.75	0.000112
3520.39	0.0003773
3530.04	0.0003479
3539.68	0.00027107
3549.32	0.0002222
3558.97	8.2e-05
3568.61	0.0001644
3578.26	0.0001612
3587.9	0.00028352
3597.55	0.00028955
3607.19	0.00028384
3616.84	0.00030812
3626.48	0.0002083
3636.13	7.6e-05
3645.77	0.0001976
3655.42	0.000251076
3665.06	0.00032595
3674.71	0.0001841
3684.35	0.000366
3694	0.000245161
3703.64	0.0003475
3713.29	0.00033175
3722.93	0.0001867
3732.58	0.0002194
3742.22	0.00028449
3751.86	0.00031077
3761.51	0.00032517
3771.15	0.00031774
3780.8	0.0001922
3790.44	0.00030758
3800.09	0.000144
3809.73	0.0005861
3819.38	0.00026476
3829.02	0.0001775
3838.67	0.0002038
3848.31	0.000250039
3857.96	0.0005107
3867.6	0.00030118
3877.25	0.000111
3886.89	0.0002343
3896.54	0.0003542
3906.18	0.0003505
3915.83	0.0003681
3925.47	0.0003565
3935.12	0.000461
3944.76	0.0004995
3954.41	0.00027753
3964.05	0.0003537
3973.69	0.00031012
3983.34	0.00031463
3992.98	0.0003673
