Infrared Spectrum: HEXULOSONIC ACID, L-XYLO-,HYDRATE
Formula: C6 H10 O7  * H2 O
CAS: 219905-82-5
State: SOLID (SPLIT MULL)
Melting point: 162 C (DECOMP.)
Class: COBLENTZ III
Instrument: DOW KBr FOREPRISM-GRATING
Instrument parameters: BLAZED AT 3.5, 12.0, 20.0 MICRON AND CHANGED AT 5.0, 7.5, 14.9 MICRON
Sampling: TRANSMISSION
Resolution: 2
Origin: DOW CHEMICAL COMPANY
1/CM	TRANSMITTANCE
457	0.7358
466	0.7385
475	0.7492
484	0.771
493	0.7847
502	0.7601
511	0.4696
520	0.458
529	0.6925
538	0.6958
547	0.6771
556	0.6375
565	0.5705
574	0.4757
583	0.3272
592	0.4836
601	0.41
610	0.2777
619	0.3799
628	0.3296
637	0.2755
646	0.2729
655	0.311
664	0.3247
673	0.3709
682	0.3832
691	0.3793
700	0.3686
709	0.3338
718	0.2325
727	0.1427
736	0.305
745	0.3031
754	0.4212
763	0.4904
772	0.5787
781	0.6753
790	0.6981
799	0.6838
808	0.6551
817	0.6344
826	0.543
835	0.368
844	0.4158
853	0.8871
862	0.9586
871	0.966
880	0.9506
889	0.891
898	0.4642
907	0.8019
916	0.9305
925	0.8874
934	0.7698
943	0.6408
952	0.5653
961	0.5585
970	0.5048
979	0.2919
988	0.4383
997	0.2318
1006	0.5451
1015	0.4558
1024	0.238
1033	0.0398
1042	0.01
1051	0.0484
1060	0.246
1069	0.0607
1078	0.0684
1087	0.2701
1096	0.2107
1105	0.2055
1114	0.1399
1123	0.1995
1132	0.2232
1141	0.262
1150	0.2545
1159	0.1308
1168	0.0214
1177	0.0109
1186	0.0554
1195	0.3257
1204	0.5702
1213	0.5799
1222	0.521
1231	0.527
1240	0.2051
1249	0.2113
1258	0.2041
1267	0.4062
1276	0.5778
1285	0.6787
1294	0.7418
1303	0.6244
1312	0.4316
1321	0.6956
1330	0.7485
1339	0.4564
1348	0.3132
1357	0.4168
1366	0.4246
1375	0.2967
1384	0.3926
1393	0.4907
1402	0.4223
1411	0.4223
1420	0.4793
1429	0.5095
1438	0.4635
1447	0.3909
1456	0.4225
1465	0.4475
1474	0.7155
1483	0.7725
1492	0.7944
1501	0.8032
1510	0.8186
1519	0.8324
1528	0.8378
1537	0.8366
1546	0.8312
1555	0.8258
1564	0.8247
1573	0.8218
1582	0.8086
1591	0.7906
1600	0.7651
1609	0.7346
1618	0.6894
1627	0.6131
1636	0.5456
1645	0.4116
1654	0.3347
1663	0.4448
1672	0.5354
1681	0.5201
1690	0.4758
1699	0.4342
1708	0.3132
1717	0.1925
1726	0.0439
1735	0.0127
1744	0.0689
1753	0.1212
1762	0.2062
1771	0.372
1780	0.7085
1789	0.8004
1798	0.8332
1807	0.8475
1816	0.8437
1825	0.8449
1834	0.8521
1843	0.8508
1852	0.8488
1861	0.8474
1870	0.8445
1879	0.8343
1888	0.8294
1897	0.8324
1906	0.8306
1915	0.8206
1924	0.8094
1933	0.7997
1942	0.7908
1951	0.7804
1960	0.7708
1969	0.7632
1978	0.7586
1987	0.7574
1996	0.7721
2005	0.775
2014	0.7728
2023	0.7711
2032	0.7691
2041	0.7661
2050	0.7611
2059	0.7536
2068	0.7458
2077	0.7386
2086	0.7315
2095	0.7234
2104	0.7145
2113	0.7062
2122	0.7004
2131	0.6969
2140	0.695
2149	0.6918
2158	0.688
2167	0.683
2176	0.6778
2185	0.6724
2194	0.6654
2203	0.6575
2212	0.6484
2221	0.6382
2230	0.6255
2239	0.6125
2248	0.5996
2257	0.5866
2266	0.5737
2275	0.5607
2284	0.5474
2293	0.5351
2302	0.5224
2311	0.5083
2320	0.4944
2329	0.4836
2338	0.4754
2347	0.4702
2356	0.4666
2365	0.4624
2374	0.457
2383	0.4504
2392	0.4434
2401	0.4358
2410	0.4298
2419	0.4237
2428	0.4167
2437	0.4101
2446	0.4041
2455	0.3979
2464	0.3918
2473	0.3875
2482	0.3862
2491	0.3877
2500	0.3897
2509	0.3923
2518	0.3954
2527	0.3971
2536	0.3945
2545	0.3894
2554	0.3912
2563	0.4007
2572	0.4024
2581	0.3988
2590	0.3958
2599	0.393
2608	0.3939
2617	0.3962
2626	0.3982
2635	0.3973
2644	0.3925
2653	0.3839
2662	0.3747
2671	0.3649
2680	0.3548
2689	0.3452
2698	0.3368
2707	0.3328
2716	0.3339
2725	0.3389
2734	0.3373
2743	0.3305
2752	0.3216
2761	0.3109
2770	0.2998
2779	0.2871
2788	0.2735
2797	0.2591
2806	0.2454
2815	0.2319
2824	0.2182
2833	0.2071
2842	0.2012
2851	0.1994
2860	0.2021
2869	0.2071
2878	0.204
2887	0.1975
2896	0.1979
2905	0.1987
2914	0.1864
2923	0.1799
2932	0.2045
2941	0.1921
2950	0.1542
2959	0.1765
2968	0.2396
2977	0.2406
2986	0.2341
2995	0.224
3004	0.2119
3013	0.1998
3022	0.187
3031	0.1729
3040	0.1572
3049	0.1433
3058	0.1301
3067	0.1175
3076	0.1042
3085	0.0905
3094	0.0785
3103	0.0672
3112	0.0568
3121	0.0455
3130	0.0364
3139	0.0298
3148	0.0242
3157	0.0201
3166	0.0179
3175	0.0172
3184	0.017
3193	0.017
3202	0.0162
3211	0.0152
3220	0.0134
3229	0.0117
3238	0.0097
3247	0.0074
3256	0.0054
3265	0.0034
3274	0.0014
3283	0.0003
3292	0.0002
3301	0
3310	0.0033
3319	0.0104
3328	0.0155
3337	0.0202
3346	0.0249
3355	0.0278
3364	0.03
3373	0.0307
3382	0.0296
3391	0.0262
3400	0.0198
3409	0.0124
3418	0.0054
3427	0.0028
3436	0.0044
3445	0.0093
3454	0.0163
3463	0.0268
3472	0.0438
3481	0.0596
3490	0.0812
3499	0.1189
3508	0.1964
3517	0.2525
3526	0.3432
3535	0.4256
3544	0.5241
3553	0.5839
3562	0.7288
3571	0.815
3580	0.8645
3589	0.8954
3598	0.9258
3607	0.9556
3616	0.9778
3625	0.997
3634	1.0165
3643	1.0345
3652	1.0471
3661	1.0547
3670	1.0568
3679	1.0528
3688	1.0487
3697	1.0467
3706	1.0438
3715	1.0403
3724	1.0368
3733	1.0318
3742	1.021
3751	1.0142
3760	1.008
3769	1.0021
3778	0.9978
3787	0.9927
3796	0.9877
