Infrared Spectrum: 3-Chloro-4-methoxytoluene
Formula: C 8 H 9 Cl O
CAS: 22002-44-4
State: gas
Origin: EPA-IR VAPOR PHASE LIBRARY
1/CM	ABSORBANCE
549.8	0.003748
559.445	0.005918
569.09	0.006588
578.734	0.004348
588.379	0.002968
598.024	0.001608
607.669	0.0011658
617.313	0.0010864
626.958	0.0008197
636.603	0.0006324
646.248	0.0007102
655.893	0.0006741
665.537	0.0012398
675.182	0.003728
684.827	0.005418
694.472	0.004158
704.116	0.001968
713.761	0.002578
723.406	0.005418
733.051	0.011908
742.695	0.013788
752.34	0.007658
761.985	0.003318
771.63	0.002418
781.275	0.004538
790.919	0.010908
800.564	0.019328
810.209	0.019548
819.854	0.014728
829.498	0.007828
839.143	0.004118
848.788	0.003558
858.433	0.006598
868.078	0.013828
877.722	0.016828
887.367	0.013958
897.012	0.005608
906.657	0.002348
916.301	0.001888
925.946	0.001938
935.591	0.002068
945.236	0.002278
954.88	0.002398
964.525	0.003178
974.17	0.004778
983.815	0.006798
993.46	0.009688
1003.1	0.015178
1012.75	0.024558
1022.39	0.030148
1032.04	0.024428
1041.68	0.016518
1051.33	0.020538
1060.97	0.039528
1070.62	0.044618
1080.26	0.027158
1089.91	0.011428
1099.55	0.006338
1109.2	0.003608
1118.84	0.003608
1128.49	0.005608
1138.13	0.007808
1147.78	0.008388
1157.42	0.006228
1167.07	0.004688
1176.71	0.006288
1186.36	0.007308
1196	0.008078
1205.64	0.012188
1215.29	0.013898
1224.93	0.014038
1234.58	0.024628
1244.22	0.056538
1253.87	0.087238
1263.51	0.090978
1273.16	0.077858
1282.8	0.060928
1292.45	0.042218
1302.09	0.020878
1311.74	0.007738
1321.38	0.004378
1331.03	0.003368
1340.67	0.003168
1350.32	0.003198
1359.96	0.003438
1369.61	0.003658
1379.25	0.004368
1388.9	0.006338
1398.54	0.008108
1408.18	0.008618
1417.83	0.009528
1427.47	0.013468
1437.12	0.018988
1446.76	0.019558
1456.41	0.019068
1466.05	0.022258
1475.7	0.025828
1485.34	0.047028
1494.99	0.112428
1504.63	0.126488
1514.28	0.056108
1523.92	0.015238
1533.57	0.008258
1543.21	0.006298
1552.86	0.005528
1562.5	0.005368
1572.15	0.005488
1581.79	0.005908
1591.44	0.007348
1601.08	0.009648
1610.73	0.008768
1620.37	0.004908
1630.01	0.002748
1639.66	0.001978
1649.3	0.001628
1658.95	0.001368
1668.59	0.0012771
1678.24	0.0012242
1687.88	0.001146
1697.53	0.0012172
1707.17	0.001478
1716.82	0.001808
1726.46	0.002518
1736.11	0.002658
1745.75	0.002268
1755.4	0.001708
1765.04	0.001378
1774.69	0.0011559
1784.33	0.0011482
1793.98	0.001558
1803.62	0.001558
1813.27	0.0012249
1822.91	0.0009428
1832.55	0.0009743
1842.2	0.0012759
1851.84	0.001598
1861.49	0.001578
1871.13	0.001558
1880.78	0.001304
1890.42	0.0010319
1900.07	0.000787
1909.71	0.0007662
1919.36	0.0007182
1929	0.0007266
1938.65	0.0007512
1948.29	0.0007897
1957.94	0.001002
1967.58	0.0011772
1977.23	0.001608
1986.87	0.002148
1996.52	0.002398
2006.16	0.002598
2015.81	0.002628
2025.45	0.002508
2035.1	0.001948
2044.74	0.001428
2054.38	0.0012063
2064.03	0.0011957
2073.67	0.0011013
2083.32	0.0010254
2092.96	0.0011045
2102.61	0.0010674
2112.25	0.0008177
2121.9	0.0008063
2131.54	0.000866
2141.19	0.0008737
2150.83	0.0009022
2160.48	0.0008332
2170.12	0.0006491
2179.77	0.0006501
2189.41	0.0005075
2199.06	0.0005437
2208.7	0.0005922
2218.35	0.0006822
2227.99	0.0009272
2237.64	0.0010129
2247.28	0.0010167
2256.92	0.0007372
2266.57	0.0007896
2276.21	0.0007353
2285.86	0.0007434
2295.5	0.0005742
2305.15	0.0007112
2314.79	0.0006849
2324.44	0.0007486
2334.08	0.0008374
2343.73	0.0008857
2353.37	0.0008235
2363.02	0.000729
2372.66	0.0007438
2382.31	0.0007284
2391.95	0.0007024
2401.6	0.0006194
2411.24	0.000532
2420.89	0.0005988
2430.53	0.0005851
2440.18	0.0006386
2449.82	0.0006792
2459.47	0.0006484
2469.11	0.000837
2478.75	0.0008214
2488.4	0.0008272
2498.04	0.0009732
2507.69	0.0012563
2517.33	0.001618
2526.98	0.001938
2536.62	0.001978
2546.27	0.001828
2555.91	0.001428
2565.56	0.0009915
2575.2	0.0009218
2584.85	0.0008358
2594.49	0.0008206
2604.14	0.000858
2613.78	0.0007253
2623.43	0.0007508
2633.07	0.0008602
2642.72	0.0007981
2652.36	0.0008184
2662.01	0.0005635
2671.65	0.0006308
2681.29	0.0006771
2690.94	0.0006499
2700.58	0.000682
2710.23	0.0007195
2719.87	0.0008531
2729.52	0.0010526
2739.16	0.001618
2748.81	0.001888
2758.45	0.001678
2768.1	0.001388
2777.74	0.001458
2787.39	0.001728
2797.03	0.002178
2806.68	0.002888
2816.32	0.004108
2825.97	0.006628
2835.61	0.011828
2845.26	0.015728
2854.9	0.014308
2864.55	0.012198
2874.19	0.013328
2883.84	0.013808
2893.48	0.014698
2903.12	0.016808
2912.77	0.019978
2922.41	0.024538
2932.06	0.032258
2941.7	0.035668
2951.35	0.031298
2960.99	0.025148
2970.64	0.017378
2980.28	0.013708
2989.93	0.014048
2999.57	0.018158
3009.22	0.022078
3018.86	0.018798
3028.51	0.015788
3038.15	0.016538
3047.8	0.014478
3057.44	0.010228
3067.09	0.008298
3076.73	0.007388
3086.38	0.006218
3096.02	0.004638
3105.67	0.003328
3115.31	0.002498
3124.95	0.002008
3134.6	0.001348
3144.24	0.0011737
3153.89	0.0008521
3163.53	0.0007637
3173.18	0.0008195
3182.82	0.0006284
3192.47	0.0007532
3202.11	0.0004808
3211.76	0.0005249
3221.4	0.00041019
3231.05	0.0005145
3240.69	0.0004602
3250.34	0.0004776
3259.98	0.0003938
3269.63	0.0004521
3279.27	0.00038744
3288.92	0.000221
3298.56	0.0003238
3308.21	0.0003132
3317.85	0.00041554
3327.49	0.0003904
3337.14	0.00036782
3346.78	0.0003047
3356.43	0.0004672
3366.07	0.0003207
3375.72	0.0003148
3385.36	0.00038469
3395.01	0.00037823
3404.65	0.000341691
3414.3	0.0002898
3423.94	5.1e-05
3433.59	0.00036436
3443.23	0.00033552
3452.88	0.000338947
3462.52	0.0002879
3472.17	0.00043099
3481.81	0.00042131
3491.46	0.00043152
3501.1	0.00041289
3510.75	0.00036652
3520.39	0.0004492
3530.04	0.00042278
3539.68	0.000326
3549.32	0.00019
3558.97	0.000188
3568.61	0.00033372
3578.26	0.0003197
3587.9	0.0002909
3597.55	0.00036389
3607.19	0.000154
3616.84	0.00019
3626.48	0.000343855
3636.13	0.0002867
3645.77	0.0002791
3655.42	0.0002871
3665.06	0.00042926
3674.71	0.0006198
3684.35	0.0002505
3694	0.00043242
3703.64	0.000208
3713.29	0.00035631
3722.93	0.0004671
3732.58	0.0006605
3742.22	0.00039482
3751.86	0.0002708
3761.51	0.0004533
3771.15	0.00043186
3780.8	0.0002519
3790.44	0.0005195
3800.09	0.0003074
3809.73	0.0002904
3819.38	0.000285
3829.02	0.000339835
3838.67	0.0002802
3848.31	0.0005164
3857.96	0.00036069
3867.6	0.000342171
3877.25	0.0006117
3886.89	0.0005074
3896.54	0.00041121
3906.18	0.0005691
3915.83	0.00043577
3925.47	0.00040726
3935.12	0.0006922
3944.76	0.0004563
3954.41	0.0005831
3964.05	0.0006447
3973.69	0.0006127
3983.34	0.0005578
3992.98	0.0006748
