Infrared Spectrum: 3,3-Dimethyl-2-hexanol
Formula: C 8 H 18 O
CAS: 22025-20-3
State: gas
Instrument: HP-GC/MS/IRD
Origin: NIST Mass Spectrometry Data Center
1/CM	ABSORBANCE
550	0.0005568
562	0.0004536
574	0.0004656
586	0.0002112
598	0.0002448
610	0.0001152
622	9.6e-05
634	0.0002376
646	0.0001248
658	0.000132
670	7.2e-05
682	0.0001176
694	0.000276
706	0.0001536
718	0.0001248
730	8.4e-05
742	7.92e-05
754	0.0001272
766	0.000264
778	0.00036
790	0.0003192
802	0.0001656
814	0.000204
826	0.000312
838	0.0002736
850	0.0002616
862	0.0002712
874	0.0005088
886	0.0011328
898	0.001836
910	0.0022152
922	0.0023184
934	0.0017808
946	0.0009048
958	0.0005328
970	0.000648
982	0.0010176
994	0.0018192
1006	0.0029088
1018	0.0033384
1030	0.0030144
1042	0.0028848
1054	0.0029568
1066	0.003516
1078	0.0051264
1090	0.0072528
1102	0.0065928
1114	0.0034944
1126	0.0016056
1138	0.0010728
1150	0.0010992
1162	0.0013704
1174	0.001596
1186	0.0015984
1198	0.0015072
1210	0.0014784
1222	0.001596
1234	0.0019632
1246	0.002364
1258	0.0022392
1270	0.00174
1282	0.00138
1294	0.0011976
1306	0.0010632
1318	0.0009192
1330	0.0010632
1342	0.0014064
1354	0.002232
1366	0.0039192
1378	0.00534
1390	0.0048768
1402	0.0028464
1414	0.0013752
1426	0.001056
1438	0.0015096
1450	0.0025104
1462	0.0034968
1474	0.0033888
1486	0.0020664
1498	0.0009048
1510	0.0004512
1522	0.0002952
1534	0.000252
1546	0.000204
1558	0.0001584
1570	0.000156
1582	0.0001608
1594	0.0001128
1606	0.0001152
1618	8.4e-05
1630	0.0001008
1642	7.68e-05
1654	7.68e-05
1666	6.24e-05
1678	7.2e-05
1690	3.84e-05
1702	4.8e-06
1714	4.32e-05
1726	4.56e-05
1738	6.72e-05
1750	7.68e-05
1762	0.0001272
1774	0.0001344
1786	0.000156
1798	8.4e-05
1810	6.72e-05
1822	5.04e-05
1834	3.12e-05
1846	2.4e-05
1858	1.68e-05
1870	3.84e-05
1882	4.32e-05
1894	4.32e-05
1906	4.8e-05
1918	5.52e-05
1930	5.76e-05
1942	6e-05
1954	3.84e-05
1966	5.52e-05
1978	6e-05
1990	4.8e-05
2002	5.52e-05
2014	4.08e-05
2026	5.76e-05
2038	4.56e-05
2050	6.48e-05
2062	6.24e-05
2074	6.48e-05
2086	5.04e-05
2098	5.04e-05
2110	6e-05
2122	5.76e-05
2134	5.28e-05
2146	7.2e-05
2158	5.28e-05
2170	6.72e-05
2182	6.48e-05
2194	7.92e-05
2206	5.76e-05
2218	5.52e-05
2230	6e-05
2242	7.68e-05
2254	6.24e-05
2266	0.0001056
2278	7.68e-05
2290	7.92e-05
2302	8.64e-05
2314	8.4e-05
2326	4.08e-05
2338	3.12e-05
2350	6e-05
2362	6.72e-05
2374	8.16e-05
2386	0.0001008
2398	6.72e-05
2410	8.16e-05
2422	9.36e-05
2434	9.6e-05
2446	8.4e-05
2458	4.08e-05
2470	6.72e-05
2482	5.76e-05
2494	5.04e-05
2506	5.28e-05
2518	9.12e-05
2530	6.96e-05
2542	8.16e-05
2554	7.2e-05
2566	8.16e-05
2578	9.12e-05
2590	0.0001512
2602	0.0001728
2614	0.0001944
2626	0.0002712
2638	0.0002928
2650	0.0003336
2662	0.0003384
2674	0.0003264
2686	0.0002664
2698	0.0002856
2710	0.0002832
2722	0.0003816
2734	0.0004392
2746	0.0004416
2758	0.0004968
2770	0.0005352
2782	0.0006096
2794	0.00072
2806	0.000864
2818	0.001044
2830	0.001368
2842	0.002064
2854	0.0035304
2866	0.0062256
2878	0.0090744
2890	0.0103248
2902	0.0098856
2914	0.0097056
2926	0.010968
2938	0.0129744
2950	0.0149664
2962	0.0201096
2974	0.024
2986	0.0169896
2998	0.0074208
3010	0.0029016
3022	0.0014208
3034	0.0010296
3046	0.0008496
3058	0.0007968
3070	0.000672
3082	0.0006384
3094	0.0005256
3106	0.0004392
3118	0.000396
3130	0.0003648
3142	0.0003312
3154	0.0003744
3166	0.0003264
3178	0.0003624
3190	0.000348
3202	0.0003216
3214	0.0002208
3226	0.0001824
3238	0.0001224
3250	0.0001008
3262	7.68e-05
3274	5.76e-05
3286	8.64e-05
3298	6.24e-05
3310	6.72e-05
3322	9.6e-05
3334	9.6e-05
3346	0.0001272
3358	0.0001056
3370	5.76e-05
3382	6.72e-05
3394	8.16e-05
3406	2.88e-05
3418	0.0001392
3430	8.16e-05
3442	0.000144
3454	0.000144
3466	0.0001368
3478	0.0001392
3490	8.88e-05
3502	0.0001032
3514	8.4e-05
3526	5.76e-05
3538	0.0001032
3550	7.2e-05
3562	0.0001128
3574	0.0001608
3586	9.12e-05
3598	3.12e-05
3610	0.0001248
3622	0.0002184
3634	0.0005328
3646	0.0011424
3658	0.0016656
3670	0.0012552
3682	0.0004608
3694	0.0001872
3706	0.0001536
3718	0.000156
3730	0.0001224
3742	0.0001248
3754	0.0001008
3766	0.00012
3778	4.08e-05
3790	0.0001248
3802	0.000108
3814	0.0001368
3826	8.64e-05
3838	7.68e-05
