Infrared Spectrum: 3,4-Methylenedioxybenzhydrazide
Formula: C 8 H 8 N 2 O 3
CAS: 22026-39-7
State: gas
Origin: EPA-IR VAPOR PHASE LIBRARY
1/CM	ABSORBANCE
549.8	0.00248
559.445	0.0025
569.09	0.00292
578.734	0.00446
588.379	0.00355
598.024	0.00251
607.669	0.00201
617.313	0.00226
626.958	0.00188
636.603	0.00189
646.248	0.00184
655.893	0.00166
665.537	0.00238
675.182	0.00287
684.827	0.00255
694.472	0.00198
704.116	0.00223
713.761	0.00295
723.406	0.00303
733.051	0.00273
742.695	0.00391
752.34	0.00532
761.985	0.00485
771.63	0.0037
781.275	0.00319
790.919	0.00371
800.564	0.00573
810.209	0.00764
819.854	0.00737
829.498	0.00633
839.143	0.00549
848.788	0.0053
858.433	0.00592
868.078	0.00577
877.722	0.00623
887.367	0.00722
897.012	0.00757
906.657	0.00805
916.301	0.00753
925.946	0.00854
935.591	0.01294
945.236	0.01815
954.88	0.01568
964.525	0.0079
974.17	0.00403
983.815	0.00294
993.46	0.00259
1003.1	0.00277
1012.75	0.00393
1022.39	0.00608
1032.04	0.01058
1041.68	0.01885
1051.33	0.02161
1060.97	0.01518
1070.62	0.00815
1080.26	0.00577
1089.91	0.00499
1099.55	0.00681
1109.2	0.00667
1118.84	0.00623
1128.49	0.00462
1138.13	0.00329
1147.78	0.0021
1157.42	0.0023
1167.07	0.00394
1176.71	0.0066
1186.36	0.00645
1196	0.00451
1205.64	0.00457
1215.29	0.00607
1224.93	0.01218
1234.58	0.02464
1244.22	0.0415
1253.87	0.05349
1263.51	0.03338
1273.16	0.0212
1282.8	0.02501
1292.45	0.02065
1302.09	0.00995
1311.74	0.00563
1321.38	0.00473
1331.03	0.00574
1340.67	0.00945
1350.32	0.01104
1359.96	0.00601
1369.61	0.00379
1379.25	0.00382
1388.9	0.00396
1398.54	0.0047
1408.18	0.00649
1417.83	0.01017
1427.47	0.01828
1437.12	0.03463
1446.76	0.0526
1456.41	0.05588
1466.05	0.03949
1475.7	0.02798
1485.34	0.02467
1494.99	0.02024
1504.63	0.01571
1514.28	0.01146
1523.92	0.00535
1533.57	0.00347
1543.21	0.00256
1552.86	0.00221
1562.5	0.00221
1572.15	0.0025
1581.79	0.00308
1591.44	0.00423
1601.08	0.00643
1610.73	0.00836
1620.37	0.01055
1630.01	0.01127
1639.66	0.00961
1649.3	0.00681
1658.95	0.00571
1668.59	0.00684
1678.24	0.00996
1687.88	0.02065
1697.53	0.03471
1707.17	0.0272
1716.82	0.01081
1726.46	0.00678
1736.11	0.00496
1745.75	0.00334
1755.4	0.00242
1765.04	0.0022
1774.69	0.00177
1784.33	0.00153
1793.98	0.0012
1803.62	0.0010857
1813.27	0.0010701
1822.91	0.00127
1832.55	0.00127
1842.2	0.00123
1851.84	0.0011522
1861.49	0.0011752
1871.13	0.00124
1880.78	0.00127
1890.42	0.0011168
1900.07	0.0008871
1909.71	0.0007757
1919.36	0.0007303
1929	0.0006702
1938.65	0.000631
1948.29	0.0006426
1957.94	0.000541
1967.58	0.0005805
1977.23	0.0006141
1986.87	0.0005485
1996.52	0.0005436
2006.16	0.0007146
2015.81	0.0006956
2025.45	0.0006872
2035.1	0.0007462
2044.74	0.0007655
2054.38	0.000823
2064.03	0.0008011
2073.67	0.0007403
2083.32	0.0006232
2092.96	0.0005044
2102.61	0.000446
2112.25	0.0004619
2121.9	0.0003858
2131.54	0.0004649
2141.19	0.0003745
2150.83	0.00041
2160.48	0.0004413
2170.12	0.0003598
2179.77	0.0003392
2189.41	0.0004344
2199.06	0.0004433
2208.7	0.0003907
2218.35	0.0004369
2227.99	0.0005722
2237.64	0.0004638
2247.28	0.0004174
2256.92	0.000443
2266.57	0.0004042
2276.21	0.0005205
2285.86	0.0004294
2295.5	0.0004792
2305.15	0.0004842
2314.79	0.0004664
2324.44	0.0003979
2334.08	0.0003926
2343.73	0.0003443
2353.37	0.0003356
2363.02	0.0003583
2372.66	0.00027373
2382.31	0.0004657
2391.95	0.00027224
2401.6	0.0003747
2411.24	0.0003518
2420.89	0.0003127
2430.53	0.0003461
2440.18	0.0005531
2449.82	0.0004815
2459.47	0.0003732
2469.11	0.0004735
2478.75	0.0003911
2488.4	0.000338
2498.04	0.0004671
2507.69	0.000394
2517.33	0.000467
2526.98	0.0003525
2536.62	0.0005489
2546.27	0.000569
2555.91	0.0006181
2565.56	0.0005251
2575.2	0.0006267
2584.85	0.0007551
2594.49	0.0007741
2604.14	0.0007159
2613.78	0.0005786
2623.43	0.0005057
2633.07	0.0003712
2642.72	0.0002943
2652.36	0.0005874
2662.01	0.000572
2671.65	0.0005114
2681.29	0.0006687
2690.94	0.0006309
2700.58	0.0007175
2710.23	0.0006397
2719.87	0.0007019
2729.52	0.0005566
2739.16	0.0006334
2748.81	0.0007217
2758.45	0.0009162
2768.1	0.00159
2777.74	0.00233
2787.39	0.0016
2797.03	0.0010709
2806.68	0.0008672
2816.32	0.0010586
2825.97	0.00122
2835.61	0.00148
2845.26	0.00202
2854.9	0.0025
2864.55	0.00377
2874.19	0.00546
2883.84	0.00621
2893.48	0.00559
2903.12	0.00562
2912.77	0.00613
2922.41	0.00598
2932.06	0.00523
2941.7	0.00492
2951.35	0.00424
2960.99	0.0039
2970.64	0.0029
2980.28	0.00216
2989.93	0.00169
2999.57	0.00171
3009.22	0.00237
3018.86	0.00299
3028.51	0.00255
3038.15	0.00174
3047.8	0.00148
3057.44	0.00135
3067.09	0.00138
3076.73	0.00153
3086.38	0.00176
3096.02	0.0010416
3105.67	0.0006181
3115.31	0.0005443
3124.95	0.0005634
3134.6	0.0003385
3144.24	0.0003313
3153.89	0.0004123
3163.53	0.0005895
3173.18	0.00027371
3182.82	0.0004264
3192.47	0.0004884
3202.11	0.0007251
3211.76	0.0006515
3221.4	0.0005668
3231.05	0.0005265
3240.69	0.0003019
3250.34	0.0004739
3259.98	0.00024856
3269.63	0.0003027
3279.27	0.000547
3288.92	0.0005059
3298.56	0.0004118
3308.21	0.000558
3317.85	0.0007088
3327.49	0.0007633
3337.14	0.0006637
3346.78	0.0007693
3356.43	0.0006589
3366.07	0.0008631
3375.72	0.0005989
3385.36	0.0008656
3395.01	0.0006157
3404.65	0.0005658
3414.3	0.0006325
3423.94	0.0009076
3433.59	0.00135
3443.23	0.00187
3452.88	0.00237
3462.52	0.00385
3472.17	0.00505
3481.81	0.00385
3491.46	0.00205
3501.1	0.00135
3510.75	0.0007159
3520.39	0.0006
3530.04	0.0005761
3539.68	0.000328
3549.32	0.0003249
3558.97	0.0004122
3568.61	0.0004288
3578.26	0.0005401
3587.9	0.000481
3597.55	0.0003308
3607.19	0.0003902
3616.84	0.00019201
3626.48	0.00023867
3636.13	0.0002881
3645.77	0.00027941
3655.42	0.0003517
3665.06	0.0002851
3674.71	0.00027759
3684.35	0.00027133
3694	0.0003601
3703.64	0.00024376
3713.29	0.0001585
3722.93	0.0001563
3732.58	0.0003677
3742.22	0.000399
3751.86	0.0003765
3761.51	0.00027408
3771.15	0.0004481
3780.8	0.0003832
3790.44	0.0003046
3800.09	0.0001561
3809.73	0.00026767
3819.38	0.0003509
3829.02	0.0003247
3838.67	0.00027828
3848.31	0.0003944
3857.96	0.0003807
3867.6	0.00020123
3877.25	0.00025685
3886.89	0.0002851
3896.54	0.0004248
3906.18	0.0002917
3915.83	0.0005408
3925.47	8e-05
3935.12	0.0003889
3944.76	0.0003081
3954.41	0.0004475
3964.05	0.0003816
3973.69	0.0003705
3983.34	0.00022485
3992.98	0.0005466
