Infrared Spectrum: 5-Methyl-1-hexyne
Formula: C 7 H 12
CAS: 2203-80-7
State: gas
Instrument: HP-GC/MS/IRD
Origin: NIST Mass Spectrometry Data Center
1/CM	ABSORBANCE
550	0.0007084
562	0.0006601
574	0.000437
586	0.0005497
598	0.0010258
610	0.0032752
622	0.0102143
634	0.0229586
646	0.0095174
658	0.002461
670	0.0006256
682	0.000391
694	0.0001656
706	0.0001978
718	5.52e-05
730	9.43e-05
742	0.0001035
754	0.0001449
766	9.66e-05
778	6.21e-05
790	7.59e-05
802	5.29e-05
814	0.0001035
826	8.51e-05
838	6.21e-05
850	7.82e-05
862	2.3e-05
874	5.06e-05
886	0.0001081
898	8.51e-05
910	0.0001817
922	0.0003772
934	0.0004508
946	0.0002599
958	0.0001196
970	8.05e-05
982	7.82e-05
994	0
1006	1.15e-05
1018	0.0001633
1030	0.0001886
1042	0.0001058
1054	0.0001012
1066	9.66e-05
1078	9.2e-05
1090	0.000161
1102	0.0003427
1114	0.0005635
1126	0.0005244
1138	0.0003818
1150	0.0004738
1162	0.0007659
1174	0.0007498
1186	0.0004577
1198	0.0004393
1210	0.000598
1222	0.0010327
1234	0.0030406
1246	0.0051014
1258	0.0040411
1270	0.0012558
1282	0.0006325
1294	0.000598
1306	0.0008671
1318	0.0010971
1330	0.0011132
1342	0.001012
1354	0.0012765
1366	0.0017986
1378	0.0023046
1390	0.0021942
1402	0.0013064
1414	0.0007452
1426	0.0011362
1438	0.0018975
1450	0.0025691
1462	0.0028428
1474	0.002622
1486	0.0015709
1498	0.0007475
1510	0.0003772
1522	0.0002093
1534	0.0001518
1546	0.0001334
1558	8.51e-05
1570	0.0001219
1582	0.0001035
1594	0.0001127
1606	0.0001081
1618	0.0001012
1630	0.0001357
1642	0.0001196
1654	9.43e-05
1666	7.13e-05
1678	7.82e-05
1690	7.82e-05
1702	7.82e-05
1714	5.75e-05
1726	6.21e-05
1738	5.29e-05
1750	5.29e-05
1762	5.06e-05
1774	4.37e-05
1786	2.76e-05
1798	4.14e-05
1810	5.06e-05
1822	5.06e-05
1834	5.75e-05
1846	4.83e-05
1858	4.37e-05
1870	4.6e-05
1882	6.9e-05
1894	4.37e-05
1906	3.45e-05
1918	3.91e-05
1930	3.45e-05
1942	0
1954	3.68e-05
1966	4.6e-05
1978	2.53e-05
1990	1.38e-05
2002	4.6e-05
2014	4.83e-05
2026	1.61e-05
2038	5.29e-05
2050	8.74e-05
2062	9.66e-05
2074	0.0001173
2086	0.0002208
2098	0.0005405
2110	0.0010419
2122	0.0010994
2134	0.0005497
2146	0.0001932
2158	7.82e-05
2170	5.52e-05
2182	6.67e-05
2194	3.22e-05
2206	5.29e-05
2218	3.45e-05
2230	3.45e-05
2242	0
2254	3.45e-05
2266	4.83e-05
2278	3.45e-05
2290	2.76e-05
2302	2.53e-05
2314	3.22e-05
2326	3.22e-05
2338	0
2350	2.76e-05
2362	3.91e-05
2374	2.76e-05
2386	8.28e-05
2398	5.98e-05
2410	7.13e-05
2422	3.45e-05
2434	9.66e-05
2446	3.91e-05
2458	4.37e-05
2470	6.67e-05
2482	6.9e-05
2494	3.68e-05
2506	6.21e-05
2518	9.66e-05
2530	5.29e-05
2542	7.82e-05
2554	7.59e-05
2566	9.89e-05
2578	7.82e-05
2590	0.0001403
2602	0.0001311
2614	0.0001817
2626	0.0002116
2638	0.000207
2650	0.000184
2662	0.0002231
2674	0.0002576
2686	0.0002898
2698	0.0003565
2710	0.0002783
2722	0.0003634
2734	0.000414
2746	0.000437
2758	0.000437
2770	0.0004347
2782	0.0004876
2794	0.0005451
2806	0.0007084
2818	0.0008533
2830	0.0012167
2842	0.0019527
2854	0.0033994
2866	0.0056097
2878	0.0075394
2890	0.0078315
2902	0.007935
2914	0.010396
2926	0.014559
2938	0.0177284
2950	0.0193867
2962	0.023
2974	0.0180665
2986	0.0071346
2998	0.0024127
3010	0.0011868
3022	0.0007383
3034	0.0006325
3046	0.0005543
3058	0.0005106
3070	0.0004876
3082	0.0004301
3094	0.0003818
3106	0.0003082
3118	0.0003289
3130	0.0003473
3142	0.0003174
3154	0.0003174
3166	0.0003197
3178	0.0002898
3190	0.000299
3202	0.0002576
3214	0.0001794
3226	0.0002116
3238	0.0002254
3250	0.0002553
3262	0.0004209
3274	0.0007452
3286	0.0012535
3298	0.0026542
3310	0.00414
3322	0.0074014
3334	0.006946
3346	0.0023575
3358	0.0010235
3370	0.0004945
3382	0.0002783
3394	0.0001449
3406	0.0001472
3418	8.05e-05
3430	0.0001196
3442	8.28e-05
3454	3.91e-05
3466	3.22e-05
3478	5.75e-05
3490	8.51e-05
3502	2.3e-05
3514	3.91e-05
3526	7.36e-05
3538	9.66e-05
3550	5.29e-05
3562	4.37e-05
3574	6.67e-05
3586	4.14e-05
3598	9.43e-05
3610	5.29e-05
3622	0.0001104
3634	0.0001081
3646	0.0001173
3658	7.13e-05
3670	8.05e-05
3682	9.2e-05
3694	9.2e-05
3706	2.3e-05
3718	9.2e-05
3730	5.06e-05
3742	7.36e-05
3754	0.0001127
3766	0.0001173
3778	0.0001104
3790	7.82e-05
3802	0.0001058
3814	5.06e-05
3826	9.89e-05
3838	0.0001771
