Infrared Spectrum: Acetylpyrazine
Formula: C 6 H 6 N 2 O
CAS: 22047-25-2
State: gas
Origin: EPA-IR VAPOR PHASE LIBRARY
1/CM	ABSORBANCE
549.8	0.0007484
559.445	0.00158
569.09	0.00792
578.734	0.03214
588.379	0.04344
598.024	0.03347
607.669	0.00991
617.313	0.01232
626.958	0.01038
636.603	0.00529
646.248	0.00141
655.893	0.000193
665.537	0.0002666
675.182	0.000129
684.827	0.0002932
694.472	0.0008164
704.116	0.0007859
713.761	0.0007877
723.406	0.001275
733.051	0.00152
742.695	0.00389
752.34	0.00636
761.985	0.00561
771.63	0.00512
781.275	0.0035
790.919	0.00201
800.564	0.00177
810.209	0.00206
819.854	0.00449
829.498	0.0127
839.143	0.02161
848.788	0.02698
858.433	0.01652
868.078	0.00698
877.722	0.00331
887.367	0.00227
897.012	0.00252
906.657	0.00237
916.301	0.00388
925.946	0.00848
935.591	0.02278
945.236	0.037
954.88	0.03878
964.525	0.02607
974.17	0.01454
983.815	0.01022
993.46	0.01339
1003.1	0.02993
1012.75	0.05072
1022.39	0.05367
1032.04	0.03221
1041.68	0.02319
1051.33	0.01964
1060.97	0.01362
1070.62	0.01378
1080.26	0.0211
1089.91	0.04277
1099.55	0.06736
1109.2	0.06541
1118.84	0.03295
1128.49	0.01406
1138.13	0.01424
1147.78	0.02695
1157.42	0.03147
1167.07	0.0225
1176.71	0.0083
1186.36	0.00417
1196	0.00253
1205.64	0.00228
1215.29	0.0023
1224.93	0.00341
1234.58	0.00578
1244.22	0.00989
1253.87	0.02624
1263.51	0.06344
1273.16	0.0985
1282.8	0.09714
1292.45	0.04894
1302.09	0.02246
1311.74	0.00814
1321.38	0.00583
1331.03	0.00803
1340.67	0.01814
1350.32	0.04864
1359.96	0.06911
1369.61	0.06093
1379.25	0.03003
1388.9	0.02489
1398.54	0.02821
1408.18	0.02769
1417.83	0.02442
1427.47	0.01804
1437.12	0.01315
1446.76	0.00969
1456.41	0.01067
1466.05	0.01056
1475.7	0.00871
1485.34	0.0051
1494.99	0.00461
1504.63	0.00501
1514.28	0.00523
1523.92	0.00554
1533.57	0.00623
1543.21	0.00768
1552.86	0.01128
1562.5	0.01653
1572.15	0.01539
1581.79	0.00876
1591.44	0.00383
1601.08	0.00321
1610.73	0.00364
1620.37	0.00354
1630.01	0.00398
1639.66	0.00413
1649.3	0.00509
1658.95	0.0069
1668.59	0.01138
1678.24	0.01368
1687.88	0.02259
1697.53	0.05306
1707.17	0.14181
1716.82	0.16765
1726.46	0.16099
1736.11	0.04969
1745.75	0.01639
1755.4	0.01005
1765.04	0.00972
1774.69	0.00825
1784.33	0.00599
1793.98	0.00396
1803.62	0.0034
1813.27	0.00285
1822.91	0.00216
1832.55	0.0013145
1842.2	0.00141
1851.84	0.00139
1861.49	0.00177
1871.13	0.00213
1880.78	0.00253
1890.42	0.00278
1900.07	0.00297
1909.71	0.00335
1919.36	0.00359
1929	0.00389
1938.65	0.00379
1948.29	0.00291
1957.94	0.00179
1967.58	0.0010848
1977.23	0.0011414
1986.87	0.0009565
1996.52	0.0009597
2006.16	0.0007371
2015.81	0.0007331
2025.45	0.0006942
2035.1	0.0009307
2044.74	0.0010206
2054.38	0.0011493
2064.03	0.0010158
2073.67	0.0012098
2083.32	0.0008863
2092.96	0.0007015
2102.61	0.0007082
2112.25	0.0007269
2121.9	0.0006831
2131.54	0.0007789
2141.19	0.0007505
2150.83	0.0006762
2160.48	0.00034768
2170.12	0.0006066
2179.77	0.0004821
2189.41	0.0005583
2199.06	0.0006267
2208.7	0.0005174
2218.35	0.0006291
2227.99	0.000583
2237.64	0.0008686
2247.28	0.0006738
2256.92	0.00040695
2266.57	0.0004159
2276.21	0.00042132
2285.86	0.0007632
2295.5	0.0011099
2305.15	0.0011666
2314.79	0.00139
2324.44	0.00137
2334.08	0.001062
2343.73	0.0006411
2353.37	0.0008704
2363.02	0.0006813
2372.66	0.0008496
2382.31	0.000708
2391.95	0.0007237
2401.6	0.0006184
2411.24	0.0007297
2420.89	0.0006311
2430.53	0.0007878
2440.18	0.0006936
2449.82	0.0007805
2459.47	0.0009327
2469.11	0.000643
2478.75	0.0006775
2488.4	0.0007437
2498.04	0.0009228
2507.69	0.0006947
2517.33	0.0006696
2526.98	0.0005539
2536.62	0.0005625
2546.27	0.0008215
2555.91	0.0008652
2565.56	0.0007523
2575.2	0.0005728
2584.85	0.0006343
2594.49	0.000478
2604.14	0.000612
2613.78	0.0006484
2623.43	0.0006275
2633.07	0.0008625
2642.72	0.0009794
2652.36	0.0010668
2662.01	0.0005987
2671.65	0.000832
2681.29	0.0009007
2690.94	0.0006901
2700.58	0.0004868
2710.23	0.0004108
2719.87	0.0006926
2729.52	0.0007077
2739.16	0.000635
2748.81	0.0009429
2758.45	0.000941
2768.1	0.0008099
2777.74	0.0008369
2787.39	0.0006626
2797.03	0.0009464
2806.68	0.0009936
2816.32	0.0010263
2825.97	0.0010851
2835.61	0.0010656
2845.26	0.0013259
2854.9	0.0010574
2864.55	0.0009192
2874.19	0.0010909
2883.84	0.0012906
2893.48	0.00179
2903.12	0.0021
2912.77	0.00298
2922.41	0.00363
2932.06	0.00414
2941.7	0.00416
2951.35	0.00414
2960.99	0.00426
2970.64	0.00477
2980.28	0.00536
2989.93	0.00568
2999.57	0.00616
3009.22	0.00868
3018.86	0.01004
3028.51	0.0098
3038.15	0.01099
3047.8	0.02329
3057.44	0.03696
3067.09	0.03924
3076.73	0.02304
3086.38	0.01395
3096.02	0.00726
3105.67	0.0044
3115.31	0.00324
3124.95	0.00286
3134.6	0.00216
3144.24	0.00186
3153.89	0.001153
3163.53	0.0010598
3173.18	0.001068
3182.82	0.0007281
3192.47	0.0011533
3202.11	0.000928
3211.76	0.0005816
3221.4	0.0007045
3231.05	0.0007255
3240.69	0.0003049
3250.34	0.000668
3259.98	0.0005624
3269.63	0.000937
3279.27	0.0010469
3288.92	0.0008421
3298.56	0.0006085
3308.21	0.001012
3317.85	0.0008045
3327.49	0.0009465
3337.14	0.000724
3346.78	0.0003088
3356.43	0.0006641
3366.07	0.0010088
3375.72	0.000594
3385.36	0.00149
3395.01	0.00178
3404.65	0.00347
3414.3	0.00478
3423.94	0.00462
3433.59	0.00256
3443.23	0.00135
3452.88	0.0013163
3462.52	0.0011081
3472.17	0.0009262
3481.81	0.0009276
3491.46	0.0007479
3501.1	0.0006518
3510.75	0.0007621
3520.39	0.0005781
3530.04	0.00036962
3539.68	0.0005468
3549.32	0.0004416
3558.97	0.0010476
3568.61	0.0006933
3578.26	0.0004528
3587.9	0.0006261
3597.55	0.000337671
3607.19	0.0009367
3616.84	0.000483
3626.48	0.0006794
3636.13	0.000189
3645.77	0.0004712
3655.42	0.00032272
3665.06	0.0007001
3674.71	0.0002879
3684.35	0.0006682
3694	0.0006076
3703.64	0.0005664
3713.29	0.0006396
3722.93	0.00040033
3732.58	0.0007289
3742.22	0.0007666
3751.86	0.000679
3761.51	0.0008017
3771.15	0.0011351
3780.8	0.0008052
3790.44	0.0010896
3800.09	0.0005305
3809.73	0.0005532
3819.38	0.0007363
3829.02	0.0009632
3838.67	0.0007789
3848.31	0.0012348
3857.96	0.0009701
3867.6	0.0007725
3877.25	0.0011375
3886.89	0.0005653
3896.54	0.0008638
3906.18	0.0005527
3915.83	0.0002501
3925.47	0.0009607
3935.12	0.0008133
3944.76	0.0006481
3954.41	0.0005708
3964.05	0.001028
3973.69	0.0009443
3983.34	0.001016
3992.98	0.0007153
