Infrared Spectrum: 2-Benzyloxyphenylacetic acid
Formula: C 15 H 14 O 3
CAS: 22047-88-7
State: gas
Origin: EPA-IR VAPOR PHASE LIBRARY
1/CM	ABSORBANCE
551.7	0.00923
563.274	0.00872
574.848	0.01131
586.421	0.02295
597.995	0.02826
609.569	0.02156
621.143	0.0192
632.717	0.01518
644.291	0.01159
655.864	0.01033
667.438	0.0108
679.012	0.01346
690.586	0.01884
702.16	0.01796
713.734	0.01451
725.307	0.01841
736.881	0.02613
748.455	0.0372
760.029	0.02019
771.603	0.00899
783.177	0.00634
794.75	0.00519
806.324	0.00442
817.898	0.00439
829.472	0.00514
841.046	0.00606
852.619	0.00665
864.193	0.00748
875.767	0.006
887.341	0.00523
898.915	0.00574
910.489	0.00643
922.062	0.00599
933.636	0.00545
945.21	0.00491
956.784	0.00529
968.358	0.00694
979.932	0.01043
991.505	0.01498
1003.08	0.0211
1014.65	0.02742
1026.23	0.02359
1037.8	0.01586
1049.37	0.01598
1060.95	0.0109
1072.52	0.01239
1084.1	0.01799
1095.67	0.03311
1107.24	0.06631
1118.82	0.0774
1130.39	0.05134
1141.97	0.03384
1153.54	0.02152
1165.11	0.01785
1176.69	0.02416
1188.26	0.02253
1199.83	0.02197
1211.41	0.03392
1222.98	0.05554
1234.56	0.0629
1246.13	0.06091
1257.7	0.03691
1269.28	0.02373
1280.85	0.02226
1292.42	0.02234
1304	0.02012
1315.57	0.01774
1327.15	0.01443
1338.72	0.01397
1350.29	0.01587
1361.87	0.01953
1373.44	0.02176
1385.02	0.01454
1396.59	0.00805
1408.16	0.00742
1419.74	0.0084
1431.31	0.00891
1442.88	0.01339
1454.46	0.0277
1466.03	0.01726
1477.61	0.01693
1489.18	0.04151
1500.75	0.03877
1512.33	0.01359
1523.9	0.00564
1535.48	0.00394
1547.05	0.00365
1558.62	0.00423
1570.2	0.0063
1581.77	0.01279
1593.34	0.01634
1604.92	0.01474
1616.49	0.0053
1628.07	0.00331
1639.64	0.00284
1651.21	0.00266
1662.79	0.00283
1674.36	0.00311
1685.93	0.00354
1697.51	0.00417
1709.08	0.00535
1720.66	0.00747
1732.23	0.0118
1743.8	0.02016
1755.38	0.03282
1766.95	0.05611
1778.53	0.08027
1790.1	0.06006
1801.67	0.03285
1813.25	0.01661
1824.82	0.00909
1836.39	0.00564
1847.97	0.00416
1859.54	0.00362
1871.12	0.00335
1882.69	0.00333
1894.26	0.00309
1905.84	0.00253
1917.41	0.00249
1928.99	0.00295
1940.56	0.00281
1952.13	0.00278
1963.71	0.00246
1975.28	0.00206
1986.85	0.00208
1998.43	0.00206
2010	0.002
2021.58	0.00195
2033.15	0.00189
2044.72	0.00175
2056.3	0.00157
2067.87	0.00147
2079.44	0.00138
2091.02	0.00133
2102.59	0.00125
2114.17	0.00116
2125.74	0.00108
2137.31	0.0011
2148.89	0.00106
2160.46	0.00103
2172.04	0.00106
2183.61	0.00111
2195.18	0.00115
2206.76	0.00126
2218.33	0.00131
2229.9	0.00126
2241.48	0.00115
2253.05	0.00116
2264.63	0.00117
2276.2	0.00118
2287.77	0.00115
2299.35	0.00114
2310.92	0.00121
2322.5	0.0013
2334.07	0.00124
2345.64	0.0012
2357.22	0.00114
2368.79	0.00112
2380.36	0.00108
2391.94	0.0011
2403.51	0.0011
2415.09	0.00113
2426.66	0.00121
2438.23	0.00124
2449.81	0.00131
2461.38	0.00138
2472.96	0.00144
2484.53	0.00134
2496.1	0.00119
2507.68	0.00113
2519.25	0.00113
2530.82	0.00117
2542.4	0.00112
2553.97	0.00104
2565.55	0.00101
2577.12	0.00104
2588.69	0.00103
2600.27	0.00104
2611.84	0.00101
2623.41	0.0009384
2634.99	0.0009693
2646.56	0.0008974
2658.14	0.0008649
2669.71	0.0009248
2681.28	0.0008925
2692.86	0.0009122
2704.43	0.0009653
2716.01	0.00104
2727.58	0.00115
2739.15	0.00107
2750.73	0.0009379
2762.3	0.0009031
2773.87	0.0009838
2785.45	0.00105
2797.02	0.00114
2808.6	0.00133
2820.17	0.00166
2831.74	0.00204
2843.32	0.00247
2854.89	0.00311
2866.47	0.00475
2878.04	0.00661
2889.61	0.00687
2901.19	0.00611
2912.76	0.0066
2924.33	0.00797
2935.91	0.01007
2947.48	0.00958
2959.06	0.00721
2970.63	0.00509
2982.2	0.00376
2993.78	0.00325
3005.35	0.00385
3016.92	0.00642
3028.5	0.0134
3040.07	0.01731
3051.65	0.01311
3063.22	0.0157
3074.79	0.02202
3086.37	0.01467
3097.94	0.0082
3109.52	0.00539
3121.09	0.00316
3132.66	0.00177
3144.24	0.00132
3155.81	0.0012
3167.38	0.00129
3178.96	0.0012
3190.53	0.000987
3202.11	0.0009148
3213.68	0.0009004
3225.25	0.0008547
3236.83	0.0008953
3248.4	0.0008266
3259.98	0.0008533
3271.55	0.0007975
3283.12	0.0007573
3294.7	0.0008705
3306.27	0.000807
3317.84	0.0008126
3329.42	0.0009612
3340.99	0.0008922
3352.57	0.0009651
3364.14	0.0009316
3375.71	0.0009998
3387.29	0.00103
3398.86	0.00112
3410.43	0.00121
3422.01	0.00122
3433.58	0.00135
3445.16	0.00139
3456.73	0.00165
3468.3	0.00165
3479.88	0.00179
3491.45	0.00184
3503.03	0.00186
3514.6	0.00197
3526.17	0.00226
3537.75	0.00283
3549.32	0.00453
3560.89	0.0102
3572.47	0.0302
3584.04	0.01708
3595.62	0.00484
3607.19	0.00253
3618.76	0.00171
3630.34	0.00142
3641.91	0.00136
3653.49	0.00126
3665.06	0.00121
3676.63	0.00107
3688.21	0.00114
3699.78	0.00108
3711.35	0.000994
3722.93	0.0009799
3734.5	0.0009372
3746.08	0.0009193
3757.65	0.0009662
3769.22	0.0008683
3780.8	0.0009481
3792.37	0.000936
3803.94	0.0009372
3815.52	0.0009611
3827.09	0.0009519
3838.67	0.0009598
3850.24	0.0009266
3861.81	0.00106
3873.39	0.0011
3884.96	0.00105
3896.54	0.0011
3908.11	0.00107
3919.68	0.00107
3931.26	0.0011
3942.83	0.00111
3954.4	0.00104
3965.98	0.00105
3977.55	0.00103
3989.13	0.00102
4000.7	0.0009837
