Infrared Spectrum: 1-(M-CHLOROPHENYL)-1-(P-CHLOROPHENYL)-ETHYLENE
Formula: C14 H10 Cl2
CAS: 22057-88-1
State: LIQUID
Class: COBLENTZ
Instrument: Not specified, most likely a grating spectrometer.
Sampling: TRANSMISSION
Path length: 0.00125 CM
Resolution: 4
Origin: ABBOTT LABORATORIES
MICROMETERS	TRANSMITTANCE
1.973	0.919
2.00678	0.919
2.04057	0.918
2.07435	0.911
2.10814	0.916
2.14192	0.908
2.1757	0.901
2.20949	0.908
2.24327	0.911
2.27705	0.908
2.31084	0.906
2.34462	0.906
2.37841	0.905
2.41219	0.898
2.44597	0.885
2.47976	0.895
2.51354	0.903
2.54733	0.909
2.58111	0.913
2.61489	0.913
2.64868	0.913
2.68246	0.909
2.71624	0.908
2.75003	0.903
2.78381	0.9
2.8176	0.9
2.85138	0.901
2.88516	0.901
2.91895	0.903
2.95273	0.906
2.98652	0.906
3.0203	0.903
3.05408	0.908
3.08787	0.911
3.12165	0.901
3.15543	0.892
3.18922	0.86
3.223	0.762
3.25679	0.752
3.29057	0.792
3.32435	0.692
3.35814	0.712
3.39192	0.728
3.42571	0.79
3.45949	0.839
3.49327	0.864
3.52706	0.819
3.56084	0.884
3.59462	0.898
3.62841	0.901
3.66219	0.908
3.69598	0.906
3.72976	0.909
3.76354	0.909
3.79733	0.909
3.83111	0.906
3.8649	0.906
3.89868	0.906
3.93246	0.906
3.96625	0.906
4.00003	0.906
4.03381	0.906
4.0676	0.908
4.10138	0.906
4.13517	0.906
4.16895	0.908
4.20273	0.908
4.23652	0.914
4.2703	0.916
4.30409	0.914
4.33787	0.906
4.37165	0.903
4.40544	0.905
4.43922	0.903
4.47301	0.901
4.50679	0.901
4.54057	0.903
4.57436	0.905
4.60814	0.906
4.64192	0.906
4.67571	0.906
4.70949	0.906
4.74328	0.906
4.77706	0.905
4.81084	0.903
4.84463	0.901
4.87841	0.901
4.9122	0.901
4.94598	0.901
4.97976	0.898
5.01355	0.897
5.04733	0.897
5.08111	0.893
5.1149	0.882
5.14868	0.861
5.18247	0.868
5.21625	0.845
5.25003	0.807
5.28382	0.856
5.3176	0.855
5.35139	0.861
5.38517	0.874
5.41895	0.895
5.45274	0.866
5.48652	0.837
5.5203	0.824
5.55409	0.836
5.58787	0.839
5.62166	0.831
5.65544	0.847
5.68922	0.868
5.72301	0.879
5.75679	0.882
5.79058	0.885
5.82436	0.887
5.85814	0.879
5.89193	0.858
5.92571	0.858
5.95949	0.856
5.99328	0.834
6.02706	0.784
6.06085	0.827
6.09463	0.848
6.12841	0.84
6.1622	0.773
6.19598	0.63
6.22977	0.514
6.26355	0.233
6.29733	0.554
6.33112	0.516
6.3649	0.429
6.39868	0.385
6.43247	0.66
6.46625	0.768
6.50004	0.816
6.53382	0.834
6.5676	0.832
6.60139	0.827
6.63517	0.784
6.66896	0.5
6.70274	0.112
6.73652	0.244
6.77031	0.292
6.80409	0.326
6.83787	0.536
6.87166	0.638
6.90544	0.691
6.93923	0.76
6.97301	0.75
7.00679	0.622
7.04058	0.479
7.07436	0.397
7.10815	0.453
7.14193	0.466
7.17571	0.438
7.2095	0.506
7.24328	0.659
7.27706	0.729
7.31085	0.662
7.34463	0.744
7.37842	0.794
7.4122	0.794
7.44598	0.808
7.47977	0.815
7.51355	0.77
7.54734	0.625
7.58112	0.565
7.6149	0.599
7.64869	0.717
7.68247	0.736
7.71625	0.694
7.75004	0.681
7.78382	0.784
7.81761	0.779
7.85139	0.773
7.88517	0.771
7.91896	0.757
7.95274	0.778
7.98653	0.749
8.02031	0.691
8.05409	0.649
8.08788	0.627
8.12166	0.652
8.15544	0.683
8.18923	0.686
8.22301	0.646
8.2568	0.586
8.29058	0.602
8.32436	0.68
8.35815	0.728
8.39193	0.734
8.42572	0.609
8.4595	0.565
8.49328	0.585
8.52707	0.652
8.56085	0.707
8.59463	0.71
8.62842	0.697
8.6622	0.609
8.69599	0.509
8.72977	0.694
8.76355	0.744
8.79734	0.749
8.83112	0.709
8.86491	0.636
8.89869	0.524
8.93247	0.469
8.96626	0.493
9.00004	0.424
9.03382	0.34
9.06761	0.299
9.10139	0.228
9.13518	0.122
9.16896	0.064
9.20274	0.131
9.23653	0.215
9.27031	0.279
9.3041	0.389
9.33788	0.498
9.37166	0.559
9.40545	0.556
9.43923	0.551
9.47302	0.546
9.5068	0.578
9.54058	0.569
9.57437	0.551
9.60815	0.618
9.64193	0.692
9.67572	0.752
9.7095	0.789
9.74329	0.813
9.77707	0.815
9.81085	0.807
9.84464	0.443
9.87842	0.117
9.91221	0.538
9.94599	0.702
9.97977	0.768
10.0136	0.705
10.0473	0.737
10.0811	0.845
10.1149	0.863
10.1487	0.856
10.1825	0.858
10.2163	0.853
10.25	0.845
10.2838	0.839
10.3176	0.84
10.3514	0.839
10.3852	0.831
10.419	0.836
10.4527	0.85
10.4865	0.856
10.5203	0.845
10.5541	0.837
10.5879	0.832
10.6217	0.839
10.6554	0.85
10.6892	0.856
10.723	0.852
10.7568	0.842
10.7906	0.834
10.8244	0.797
10.8582	0.763
10.8919	0.702
10.9257	0.575
10.9595	0.472
10.9933	0.413
11.0271	0.382
11.0609	0.371
11.0946	0.381
11.1284	0.411
11.1622	0.44
11.196	0.45
11.2298	0.413
11.2636	0.379
11.2973	0.374
11.3311	0.393
11.3649	0.453
11.3987	0.524
11.4325	0.567
11.4663	0.565
11.5	0.479
11.5338	0.353
11.5676	0.372
11.6014	0.509
11.6352	0.609
11.669	0.659
11.7027	0.683
11.7365	0.68
11.7703	0.66
11.8041	0.596
11.8379	0.477
11.8717	0.286
11.9055	0.146
11.9392	0.101
11.973	0.07
12.0068	0.104
12.0406	0.181
12.0744	0.244
12.1082	0.3
12.1419	0.355
12.1757	0.422
12.2095	0.52
12.2433	0.602
12.2771	0.67
12.3109	0.707
12.3446	0.733
12.3784	0.734
12.4122	0.731
12.446	0.718
12.4798	0.675
12.5136	0.516
12.5473	0.356
12.5811	0.215
12.6149	0.167
12.6487	0.152
12.6825	0.168
12.7163	0.233
12.75	0.303
12.7838	0.355
12.8176	0.414
12.8514	0.398
12.8852	0.398
12.919	0.434
12.9528	0.25
12.9865	0.249
13.0203	0.421
13.0541	0.614
13.0879	0.652
13.1217	0.575
13.1555	0.45
13.1892	0.443
13.223	0.485
13.2568	0.475
13.2906	0.546
13.3244	0.652
13.3582	0.721
13.3919	0.75
13.4257	0.758
13.4595	0.749
13.4933	0.739
13.5271	0.688
13.5609	0.659
13.5946	0.668
13.6284	0.673
13.6622	0.643
13.696	0.594
13.7298	0.617
13.7636	0.623
13.7973	0.602
13.8311	0.59
13.8649	0.602
13.8987	0.596
13.9325	0.532
13.9663	0.483
14.0001	0.409
14.0338	0.352
14.0676	0.329
14.1014	0.352
14.1352	0.395
14.169	0.422
14.2028	0.413
14.2365	0.392
14.2703	0.379
14.3041	0.369
14.3379	0.339
14.3717	0.353
14.4055	0.377
14.4392	0.387
14.473	0.385
14.5068	0.371
14.5406	0.372
14.5744	0.414
14.6082	0.471
14.6419	0.495
14.6757	0.5
14.7095	0.504
14.7433	0.517
14.7771	0.554
14.8109	0.594
14.8446	0.622
14.8784	0.63
14.9122	0.646
14.946	0.647
14.9798	0.66
15.0136	0.663
15.0474	0.663
15.0811	0.663
15.1149	0.663
15.1487	0.651
15.1825	0.638
15.2163	0.633
15.2501	0.631
15.2838	0.635
15.3176	0.628
15.3514	0.623
15.3852	0.607
15.419	0.598
