Infrared Spectrum: 3-Methylbenzo[b]thiophene-2-carboxaldehyde
Formula: C 10 H 8 O S
CAS: 22053-74-3
State: gas
Origin: EPA-IR VAPOR PHASE LIBRARY
1/CM	ABSORBANCE
549.8	0.002722
559.445	0.002592
569.09	0.001722
578.734	0.002022
588.379	0.001482
598.024	0.001149
607.669	0.002022
617.313	0.002502
626.958	0.003352
636.603	0.001642
646.248	0.002722
655.893	0.002342
665.537	0.005112
675.182	0.008112
684.827	0.004682
694.472	0.002192
704.116	0.002082
713.761	0.005572
723.406	0.010092
733.051	0.013132
742.695	0.012632
752.34	0.017302
761.985	0.008472
771.63	0.002372
781.275	0.0012483
790.919	0.001622
800.564	0.00062997
810.209	0.0012762
819.854	0.001812
829.498	0.001812
839.143	0.0011328
848.788	0.002052
858.433	0.003032
868.078	0.006202
877.722	0.006462
887.367	0.003852
897.012	0.001992
906.657	0.001852
916.301	0.0011565
925.946	0.002172
935.591	0.0013703
945.236	0.0012119
954.88	0.0010766
964.525	0.0014031
974.17	0.001722
983.815	0.002322
993.46	0.002542
1003.1	0.002612
1012.75	0.002552
1022.39	0.003202
1032.04	0.003992
1041.68	0.003242
1051.33	0.003592
1060.97	0.004722
1070.62	0.003812
1080.26	0.004652
1089.91	0.002662
1099.55	0.003162
1109.2	0.004512
1118.84	0.003622
1128.49	0.004272
1138.13	0.005542
1147.78	0.003712
1157.42	0.009072
1167.07	0.012122
1176.71	0.011122
1186.36	0.013242
1196	0.015692
1205.64	0.013882
1215.29	0.009152
1224.93	0.001852
1234.58	0.003002
1244.22	0.002402
1253.87	0.004972
1263.51	0.006572
1273.16	0.002862
1282.8	0.001932
1292.45	0.001742
1302.09	0.003082
1311.74	0.004642
1321.38	0.004272
1331.03	0.005482
1340.67	0.008102
1350.32	0.007232
1359.96	0.003882
1369.61	0.004602
1379.25	0.006572
1388.9	0.004752
1398.54	0.003352
1408.18	0.003262
1417.83	0.004102
1427.47	0.006202
1437.12	0.006412
1446.76	0.005342
1456.41	0.004442
1466.05	0.003772
1475.7	0.003822
1485.34	0.004242
1494.99	0.005582
1504.63	0.008272
1514.28	0.014422
1523.92	0.018402
1533.57	0.013442
1543.21	0.007462
1552.86	0.007052
1562.5	0.008432
1572.15	0.005192
1581.79	0.003582
1591.44	0.003752
1601.08	0.003412
1610.73	0.002462
1620.37	0.001772
1630.01	0.001852
1639.66	0.002092
1649.3	0.003312
1658.95	0.004912
1668.59	0.009422
1678.24	0.033942
1687.88	0.089172
1697.53	0.083412
1707.17	0.032142
1716.82	0.006782
1726.46	0.003712
1736.11	0.002672
1745.75	0.002552
1755.4	0.002202
1765.04	0.002412
1774.69	0.002242
1784.33	0.002022
1793.98	0.0013215
1803.62	0.001582
1813.27	0.001692
1822.91	0.0015047
1832.55	0.0013775
1842.2	0.002112
1851.84	0.002212
1861.49	0.001822
1871.13	0.002012
1880.78	0.001812
1890.42	0.001582
1900.07	0.001752
1909.71	0.001702
1919.36	0.0012388
1929	0.001722
1938.65	0.002082
1948.29	0.0013385
1957.94	0.0010432
1967.58	0.0010507
1977.23	0.0007319
1986.87	0.0008368
1996.52	0.0011991
2006.16	0.0010088
2015.81	0.000846
2025.45	0.0009463
2035.1	0.0012292
2044.74	0.0010326
2054.38	0.0009753
2064.03	0.0008494
2073.67	0.0008983
2083.32	0.0008363
2092.96	0.0009692
2102.61	0.0010644
2112.25	0.0007938
2121.9	0.0009645
2131.54	0.0008352
2141.19	0.0008768
2150.83	0.0008867
2160.48	0.0010957
2170.12	0.0008511
2179.77	0.0009809
2189.41	0.0007139
2199.06	0.0009841
2208.7	0.0007722
2218.35	0.0007429
2227.99	0.0009915
2237.64	0.0009801
2247.28	0.0009539
2256.92	0.0008379
2266.57	0.0007882
2276.21	0.0010455
2285.86	0.0010228
2295.5	0.0007978
2305.15	0.0009974
2314.79	0.0009313
2324.44	0.0010799
2334.08	0.0009339
2343.73	0.0008061
2353.37	0.0009481
2363.02	0.0011509
2372.66	0.0009822
2382.31	0.0008589
2391.95	0.0011223
2401.6	0.0010198
2411.24	0.0012786
2420.89	0.0010268
2430.53	0.0009351
2440.18	0.0009981
2449.82	0.0010225
2459.47	0.0009165
2469.11	0.0012704
2478.75	0.0007234
2488.4	0.0011562
2498.04	0.0011768
2507.69	0.0011926
2517.33	0.000858
2526.98	0.0010944
2536.62	0.0012275
2546.27	0.0009691
2555.91	0.0014473
2565.56	0.0014492
2575.2	0.0010553
2584.85	0.0013612
2594.49	0.0008931
2604.14	0.0008693
2613.78	0.0014353
2623.43	0.0014909
2633.07	0.0008893
2642.72	0.001045
2652.36	0.0014381
2662.01	0.0014979
2671.65	0.001682
2681.29	0.0014795
2690.94	0.00152
2700.58	0.002032
2710.23	0.003212
2719.87	0.006172
2729.52	0.008342
2739.16	0.007922
2748.81	0.005472
2758.45	0.003862
2768.1	0.003032
2777.74	0.002672
2787.39	0.002772
2797.03	0.003582
2806.68	0.005202
2816.32	0.007622
2825.97	0.012002
2835.61	0.011672
2845.26	0.007012
2854.9	0.003792
2864.55	0.003442
2874.19	0.003492
2883.84	0.003492
2893.48	0.002702
2903.12	0.002332
2912.77	0.002782
2922.41	0.004162
2932.06	0.005312
2941.7	0.004192
2951.35	0.003462
2960.99	0.002512
2970.64	0.002232
2980.28	0.001622
2989.93	0.002312
2999.57	0.002812
3009.22	0.002522
3018.86	0.002302
3028.51	0.002962
3038.15	0.002512
3047.8	0.003632
3057.44	0.005292
3067.09	0.009252
3076.73	0.010102
3086.38	0.006102
3096.02	0.002532
3105.67	0.001842
3115.31	0.001902
3124.95	0.0013645
3134.6	0.0008543
3144.24	0.0009553
3153.89	0.0014447
3163.53	0.0010751
3173.18	0.0009669
3182.82	0.00037
3192.47	0.000968
3202.11	0.0010598
3211.76	0.0006577
3221.4	0.0010102
3231.05	0.000546603
3240.69	0.00059329
3250.34	0.0011505
3259.98	0.0009257
3269.63	0.00053729
3279.27	0.0006776
3288.92	0.00058082
3298.56	0.0006884
3308.21	0.0008884
3317.85	0.0009931
3327.49	0.0009948
3337.14	0.0014449
3346.78	0.0013716
3356.43	0.001552
3366.07	0.001912
3375.72	0.0011769
3385.36	0.0014113
3395.01	0.0009302
3404.65	0.0012505
3414.3	0.0008436
3423.94	0.0008184
3433.59	0.0010957
3443.23	0.0011252
3452.88	0.0006833
3462.52	0.0010418
3472.17	0.0008725
3481.81	0.0011307
3491.46	0.0012085
3501.1	0.0010097
3510.75	0.0007841
3520.39	0.0008923
3530.04	0.000435
3539.68	0.000411
3549.32	0.0006934
3558.97	0.0006448
3568.61	0.0007879
3578.26	0.0012212
3587.9	0.0011058
3597.55	0.0007056
3607.19	0.0007167
3616.84	0.00062042
3626.48	0.0005251
3636.13	0.000665
3645.77	0.0012076
3655.42	0.0010227
3665.06	0.0007982
3674.71	0.00111
3684.35	0.0008268
3694	0.000438
3703.64	0.0010295
3713.29	0.0004747
3722.93	0.0008085
3732.58	0.0010047
3742.22	0.0008412
3751.86	0.000431
3761.51	0.0009482
3771.15	0.0004896
3780.8	0.0008286
3790.44	0.0015337
3800.09	0.0004772
3809.73	0.0006798
3819.38	0.000421
3829.02	0.0004588
3838.67	0.0011272
3848.31	0.000298
3857.96	0.0011809
3867.6	0.0008902
3877.25	0.0008528
3886.89	0.0011907
3896.54	0.000719
3906.18	0.0007489
3915.83	0.0005134
3925.47	0.00019
3935.12	0.0007272
3944.76	0.0010772
3954.41	0.0007511
3964.05	0.00064055
3973.69	0.0004539
3983.34	0.0007575
3992.98	0.0004565
