Infrared Spectrum: CYCLOHEXANONE--2-CARBOXYLIC ACID, BENZYL ESTER
Formula: C14 H16 O3
CAS: 2205-32-5
State: LIQUID (NEAT)
Class: COBLENTZ III
Instrument: PERKIN-ELMER 21 (GRATING)
Instrument parameters: NaCl PRISM, FILTER CHANGE AT 1080 CM^-^1
Sampling: TRANSMISSION
Path length: CAPILLARY
Resolution: 2
Origin: SOUTHERN RESEARCH INSTITUTE (W.C. COBURN, JR.)
1/CM	TRANSMITTANCE
614.677	0.768
623.842	0.771
633.008	0.771
642.173	0.7621
651.338	0.7794
660.504	0.793
669.669	0.7616
678.834	0.7418
687.999	0.5744
697.165	0.3511
706.33	0.676
715.495	0.6671
724.661	0.5509
733.826	0.3921
742.991	0.381
752.157	0.4009
761.322	0.5827
770.487	0.6038
779.653	0.658
788.818	0.631
797.983	0.5729
807.149	0.5158
816.314	0.4932
825.479	0.4534
834.644	0.4666
843.81	0.5636
852.975	0.6151
862.14	0.6531
871.306	0.6518
880.471	0.6302
889.636	0.6424
898.802	0.603
907.967	0.5577
917.132	0.5582
926.298	0.6071
935.463	0.6078
944.628	0.5769
953.794	0.563
962.959	0.55
972.124	0.524
981.289	0.5795
990.455	0.6009
999.62	0.5795
1008.79	0.5673
1017.95	0.5348
1027.12	0.4561
1036.28	0.5112
1045.45	0.5103
1054.61	0.356
1063.78	0.403
1072.94	0.3709
1082.11	0.2949
1091.27	0.4614
1100.44	0.518
1109.6	0.5229
1118.77	0.54
1127.93	0.4795
1137.1	0.4571
1146.27	0.3842
1155.43	0.3509
1164.6	0.3033
1173.76	0.2193
1182.93	0.3065
1192.09	0.3611
1201.26	0.3089
1210.42	0.1714
1219.59	0.1262
1228.75	0.2056
1237.92	0.2985
1247.08	0.3037
1256.25	0.1748
1265.41	0.1702
1274.58	0.3084
1283.74	0.323
1292.91	0.1799
1302.08	0.1849
1311.24	0.3308
1320.41	0.3772
1329.57	0.4042
1338.74	0.4078
1347.9	0.4156
1357.07	0.327
1366.23	0.3728
1375.4	0.4248
1384.56	0.4153
1393.73	0.3488
1402.89	0.3341
1412.06	0.423
1421.22	0.4273
1430.39	0.4422
1439.55	0.5021
1448.72	0.4219
1457.89	0.3441
1467.05	0.4481
1476.22	0.6738
1485.38	0.7155
1494.55	0.641
1503.71	0.5331
1512.88	0.7153
1522.04	0.7286
1531.21	0.724
1540.37	0.7067
1549.54	0.7037
1558.7	0.6893
1567.87	0.6706
1577.03	0.6145
1586.2	0.5243
1595.37	0.434
1604.53	0.322
1613.7	0.263
1622.86	0.34
1632.03	0.332
1641.19	0.2759
1650.36	0.2021
1659.52	0.2207
1668.69	0.3462
1677.85	0.4156
1687.02	0.42
1696.18	0.3371
1705.35	0.2131
1714.51	0.2056
1723.68	0.219
1732.84	0.2078
1742.01	0.2077
1751.18	0.2635
1760.34	0.3915
1769.51	0.5596
1778.67	0.6506
1787.84	0.6913
1797	0.7025
1806.17	0.713
1815.33	0.735
1824.5	0.7564
1833.66	0.7664
1842.83	0.774
1851.99	0.7746
1861.16	0.7676
1870.32	0.765
1879.49	0.7686
1888.66	0.7753
1897.82	0.781
1906.99	0.787
1916.15	0.788
1925.32	0.788
1934.48	0.785
1943.65	0.7749
1952.81	0.7698
1961.98	0.766
1971.14	0.7681
1980.31	0.779
1989.47	0.781
1998.64	0.785
2007.8	0.792
2016.97	0.796
2026.13	0.797
2035.3	0.798
2044.47	0.797
2053.63	0.796
2062.8	0.796
2071.96	0.795
2081.13	0.795
2090.29	0.795
2099.46	0.795
2108.62	0.795
2117.79	0.793
2126.95	0.7949
2136.12	0.784
2145.28	0.797
2154.45	0.797
2163.61	0.792
2172.78	0.795
2181.95	0.795
2191.11	0.7948
2200.28	0.796
2209.44	0.791
2218.61	0.791
2227.77	0.789
2236.94	0.792
2246.1	0.791
2255.27	0.791
2264.43	0.787
2273.6	0.788
2282.76	0.788
2291.93	0.787
2301.09	0.785
2310.26	0.7869
2319.42	0.788
2328.59	0.792
2337.76	0.7891
2346.92	0.788
2356.09	0.7811
2365.25	0.778
2374.42	0.775
2383.58	0.775
2392.75	0.774
2401.91	0.766
2411.08	0.762
2420.24	0.763
2429.41	0.762
2438.57	0.761
2447.74	0.761
2456.9	0.759
2466.07	0.758
2475.24	0.754
2484.4	0.749
2493.57	0.745
2502.73	0.742
2511.9	0.738
2521.06	0.734
2530.23	0.7509
2539.39	0.744
2548.56	0.7341
2557.72	0.731
2566.89	0.727
2576.05	0.737
2585.22	0.7341
2594.38	0.728
2603.55	0.723
2612.71	0.721
2621.88	0.7161
2631.05	0.7121
2640.21	0.712
2649.38	0.712
2658.54	0.712
2667.71	0.714
2676.87	0.706
2686.04	0.706
2695.2	0.7041
2704.37	0.703
2713.53	0.697
2722.7	0.693
2731.86	0.6871
2741.03	0.681
2750.19	0.68
2759.36	0.676
2768.53	0.669
2777.69	0.66
2786.86	0.6341
2796.02	0.613
2805.19	0.5961
2814.35	0.574
2823.52	0.5534
2832.68	0.5231
2841.85	0.4663
2851.01	0.4291
2860.18	0.4329
2869.34	0.445
2878.51	0.446
2887.67	0.446
2896.84	0.442
2906	0.4162
2915.17	0.3682
2924.34	0.3282
2933.5	0.322
2942.67	0.335
2951.83	0.3608
2961	0.4106
2970.16	0.4577
2979.33	0.5148
2988.49	0.5359
2997.66	0.543
3006.82	0.543
3015.99	0.536
3025.15	0.5112
3034.32	0.4921
3043.48	0.4919
3052.65	0.5049
3061.81	0.514
3070.98	0.52
3080.15	0.5308
3089.31	0.5569
3098.48	0.5738
3107.64	0.59
3116.81	0.601
3125.97	0.608
3135.14	0.6159
3144.3	0.613
3153.47	0.616
3162.63	0.617
3171.8	0.622
3180.96	0.624
3190.13	0.624
3199.29	0.626
3208.46	0.63
3217.63	0.633
3226.79	0.634
3235.96	0.631
3245.12	0.617
3254.29	0.631
3263.45	0.629
3272.62	0.63
3281.78	0.631
3290.95	0.633
3300.11	0.6369
3309.28	0.639
3318.44	0.642
3327.61	0.642
3336.77	0.642
3345.94	0.643
3355.1	0.6441
3364.27	0.646
3373.44	0.646
3382.6	0.651
3391.77	0.651
3400.93	0.651
3410.1	0.6481
3419.26	0.648
3428.43	0.6481
3437.59	0.651
3446.76	0.65
3455.92	0.652
3465.09	0.656
3474.25	0.654
3483.42	0.6539
3492.58	0.656
3501.75	0.66
3510.92	0.664
3520.08	0.672
3529.25	0.668
3538.41	0.6799
3547.58	0.687
3556.74	0.686
3565.91	0.6969
3575.07	0.703
3584.24	0.712
3593.4	0.718
3602.57	0.723
3611.73	0.7269
3620.9	0.731
3630.06	0.734
3639.23	0.741
3648.39	0.744
3657.56	0.742
3666.73	0.746
3675.89	0.746
3685.06	0.746
3694.22	0.7331
3703.39	0.7446
3712.55	0.7649
3721.72	0.766
3730.88	0.766
3740.05	0.766
3749.21	0.768
3758.38	0.768
3767.54	0.767
3776.71	0.761
3785.87	0.759
3795.04	0.758
3804.21	0.766
3813.37	0.765
3822.54	0.766
3831.7	0.765
3840.87	0.762
3850.03	0.762
3859.2	0.761
3868.36	0.758
3877.53	0.758
3886.69	0.755
3895.86	0.753
3905.02	0.755
3914.19	0.757
3923.35	0.757
3932.52	0.754
3941.68	0.753
3950.85	0.744
3960.02	0.744
3969.18	0.751
3978.35	0.75
3987.51	0.75
3996.68	0.751
4005.84	0.751
