Infrared Spectrum: cis-1,2-Dimethylcyclohexane
Formula: C 8 H 16
CAS: 2207-01-4
State: gas
Instrument: HP-GC/MS/IRD
Origin: NIST Mass Spectrometry Data Center
1/CM	ABSORBANCE
550	0.0001518
562	0.0001584
574	0.000264
586	0.0004026
598	0.0005874
610	0.0004488
622	0.0002904
634	0.0001782
646	0.000264
658	0.000132
670	0.0001452
682	0.0002112
694	0.000198
706	0.000231
718	0.0002574
730	0.0002838
742	0.000264
754	0.0002178
766	0.000198
778	0.0001518
790	0.0002178
802	0.0003762
814	0.0004224
826	0.0005016
838	0.0006336
850	0.0004752
862	0.000363
874	0.0003894
886	0.0004026
898	0.0003168
910	0.0003366
922	0.0004158
934	0.0005676
946	0.0006402
958	0.0005478
970	0.0005742
982	0.0007062
994	0.000891
1006	0.000957
1018	0.0007986
1030	0.0004422
1042	0.0003894
1054	0.0004092
1066	0.000462
1078	0.000693
1090	0.0008514
1102	0.0006666
1114	0.0004356
1126	0.0003696
1138	0.0006006
1150	0.0009636
1162	0.001056
1174	0.0007128
1186	0.0003234
1198	0.0002904
1210	0.0003762
1222	0.0004356
1234	0.0005676
1246	0.0006204
1258	0.0005874
1270	0.0004686
1282	0.000495
1294	0.0005478
1306	0.0006336
1318	0.0005478
1330	0.0006468
1342	0.0006666
1354	0.0011682
1366	0.0022836
1378	0.0038874
1390	0.0036102
1402	0.00165
1414	0.0008514
1426	0.0013794
1438	0.0034386
1450	0.0060522
1462	0.006402
1474	0.0040392
1486	0.0019074
1498	0.0007326
1510	0.0001386
1522	0.0001518
1534	0.0002244
1546	0.0001518
1558	5.94e-05
1570	0.0002904
1582	0.0003498
1594	0.0003234
1606	0.0003102
1618	0.0002706
1630	0.0002574
1642	0.0002376
1654	6.6e-05
1666	0.0001584
1678	0.0001122
1690	0.0001584
1702	2.64e-05
1714	5.28e-05
1726	0.0001782
1738	0.0001056
1750	3.96e-05
1762	0.0001188
1774	0.0001122
1786	0.0001254
1798	9.9e-05
1810	0.0001386
1822	0.0001452
1834	0.0001386
1846	9.9e-05
1858	0.000198
1870	0.0001452
1882	0.0001782
1894	0.0001386
1906	0.000165
1918	0.0001584
1930	0.000198
1942	0.0001518
1954	0.0002046
1966	0.000165
1978	0.0002046
1990	0.0001452
2002	0.0001782
2014	0.0001914
2026	0.0001914
2038	0.0001716
2050	0.0001716
2062	0.0001584
2074	0.0001782
2086	0.000165
2098	0.0001716
2110	0.000165
2122	0.000165
2134	0.0001716
2146	0.0002178
2158	0.000198
2170	0.0002046
2182	0.0002046
2194	0.000198
2206	0.0001584
2218	0.0001782
2230	0.000165
2242	0.0001584
2254	0.0001716
2266	0.0002178
2278	0.0002178
2290	0.0001584
2302	0.0001452
2314	0.0001122
2326	9.9e-05
2338	0.0001056
2350	0.0001452
2362	1.98e-05
2374	9.9e-05
2386	0.0002112
2398	0.0002508
2410	0.0002442
2422	0.000231
2434	0.000264
2446	0.0002574
2458	0.0002904
2470	0.0002376
2482	0.0002442
2494	0.000264
2506	0.000264
2518	0.0002706
2530	0.0003168
2542	0.0003498
2554	0.0003696
2566	0.0003762
2578	0.0004818
2590	0.0006138
2602	0.000693
2614	0.000726
2626	0.0007722
2638	0.000858
2650	0.0010692
2662	0.0012474
2674	0.0011484
2686	0.000957
2698	0.0008778
2710	0.0009108
2722	0.0009636
2734	0.0009504
2746	0.0009504
2758	0.0009834
2770	0.0010626
2782	0.0012408
2794	0.0014322
2806	0.0017226
2818	0.0021648
2830	0.003102
2842	0.006732
2854	0.0161172
2866	0.025212
2878	0.0267696
2890	0.0254562
2902	0.025806
2914	0.0392898
2926	0.057585
2938	0.057651
2950	0.0405768
2962	0.0302346
2974	0.0212124
2986	0.010197
2998	0.0037026
3010	0.0018876
3022	0.0013464
3034	0.001155
3046	0.0011616
3058	0.001155
3070	0.0011286
3082	0.0011022
3094	0.0011022
3106	0.001023
3118	0.000858
3130	0.000858
3142	0.0007062
3154	0.0006534
3166	0.0005874
3178	0.0005808
3190	0.0005346
3202	0.0004752
3214	0.0004158
3226	0.0004224
3238	0.0004422
3250	0.0003696
3262	0.0003564
3274	0.00033
3286	0.0003432
3298	0.0003828
3310	0.0003564
3322	0.0003432
3334	0.0003168
3346	0.0002904
3358	0.000297
3370	0.0002904
3382	0.0003036
3394	0.000297
3406	0.0002904
3418	0.000297
3430	0.0002904
3442	0.0002772
3454	0.0003102
3466	0.000363
3478	0.0002706
3490	0.0003102
3502	0.0003168
3514	0.0003366
3526	0.0002508
3538	0.0003102
3550	0.000231
3562	0.0002706
3574	0.0002574
3586	0.0001782
3598	0.0002706
3610	0.0001584
3622	0.0002574
3634	0.0002838
3646	0.0002508
3658	0.00033
3670	0.0002508
3682	0.0003366
3694	0.0003564
3706	0.0003696
3718	0.0003234
3730	0.0003168
3742	0.0002508
3754	0.0003564
3766	0.0004092
3778	0.000429
3790	0.0004356
3802	0.0003564
3814	0.0004686
3826	0.000429
3838	0.0004092
