Infrared Spectrum: 5,5-Dimethoxy-1,2,3,4-tetrachlorocyclopentadiene
Formula: C 7 H 6 Cl 4 O 2
CAS: 2207-27-4
State: gas
Origin: EPA-IR VAPOR PHASE LIBRARY
1/CM	ABSORBANCE
549.8	0.0008175
559.445	0.00275
569.09	0.00509
578.734	0.00496
588.379	0.00258
598.024	0.00209
607.669	0.00177
617.313	0.00166
626.958	0.00218
636.603	0.00222
646.248	0.00286
655.893	0.00919
665.537	0.01414
675.182	0.00388
684.827	0.00209
694.472	0.00204
704.116	0.00215
713.761	0.00257
723.406	0.00359
733.051	0.00694
742.695	0.01813
752.34	0.04669
761.985	0.06938
771.63	0.07443
781.275	0.05112
790.919	0.01815
800.564	0.0089
810.209	0.00588
819.854	0.00408
829.498	0.00366
839.143	0.00344
848.788	0.00343
858.433	0.00285
868.078	0.00225
877.722	0.00245
887.367	0.00245
897.012	0.00256
906.657	0.00313
916.301	0.00329
925.946	0.0038
935.591	0.00517
945.236	0.00709
954.88	0.0087
964.525	0.01228
974.17	0.02671
983.815	0.04175
993.46	0.02946
1003.1	0.01488
1012.75	0.01079
1022.39	0.00973
1032.04	0.01014
1041.68	0.01326
1051.33	0.02109
1060.97	0.03578
1070.62	0.05019
1080.26	0.06025
1089.91	0.07946
1099.55	0.11578
1109.2	0.12237
1118.84	0.09131
1128.49	0.0852
1138.13	0.08343
1147.78	0.07524
1157.42	0.07662
1167.07	0.0697
1176.71	0.06904
1186.36	0.08207
1196	0.11534
1205.64	0.15972
1215.29	0.14481
1224.93	0.0589
1234.58	0.03927
1244.22	0.04334
1253.87	0.03138
1263.51	0.01903
1273.16	0.01376
1282.8	0.01007
1292.45	0.00791
1302.09	0.00647
1311.74	0.00533
1321.38	0.00471
1331.03	0.0044
1340.67	0.00398
1350.32	0.00382
1359.96	0.00362
1369.61	0.00344
1379.25	0.00353
1388.9	0.0036
1398.54	0.00375
1408.18	0.00395
1417.83	0.00427
1427.47	0.00464
1437.12	0.00714
1446.76	0.01318
1456.41	0.01359
1466.05	0.01235
1475.7	0.0093
1485.34	0.00628
1494.99	0.00464
1504.63	0.00389
1514.28	0.00356
1523.92	0.00331
1533.57	0.00338
1543.21	0.00365
1552.86	0.00439
1562.5	0.00535
1572.15	0.00902
1581.79	0.01301
1591.44	0.01468
1601.08	0.04423
1610.73	0.0767
1620.37	0.02684
1630.01	0.00416
1639.66	0.00251
1649.3	0.00216
1658.95	0.002
1668.59	0.00191
1678.24	0.002
1687.88	0.00199
1697.53	0.00192
1707.17	0.00173
1716.82	0.00153
1726.46	0.0013589
1736.11	0.0014267
1745.75	0.0013746
1755.4	0.0013402
1765.04	0.001403
1774.69	0.00148
1784.33	0.0014677
1793.98	0.0013834
1803.62	0.0013601
1813.27	0.00152
1822.91	0.00159
1832.55	0.00165
1842.2	0.00155
1851.84	0.00151
1861.49	0.00153
1871.13	0.00157
1880.78	0.00157
1890.42	0.0013466
1900.07	0.0012293
1909.71	0.0010592
1919.36	0.0011171
1929	0.0011587
1938.65	0.0012131
1948.29	0.0012907
1957.94	0.0014037
1967.58	0.00152
1977.23	0.00147
1986.87	0.0014571
1996.52	0.0015
2006.16	0.0014576
2015.81	0.0015
2025.45	0.0017
2035.1	0.00196
2044.74	0.00208
2054.38	0.00215
2064.03	0.00212
2073.67	0.00202
2083.32	0.00176
2092.96	0.00167
2102.61	0.00162
2112.25	0.00158
2121.9	0.00156
2131.54	0.00151
2141.19	0.00153
2150.83	0.00166
2160.48	0.00151
2170.12	0.00151
2179.77	0.0012958
2189.41	0.0013153
2199.06	0.0012564
2208.7	0.0012098
2218.35	0.0013222
2227.99	0.0012777
2237.64	0.0013334
2247.28	0.0011603
2256.92	0.0012407
2266.57	0.0011697
2276.21	0.0010896
2285.86	0.0009539
2295.5	0.0010613
2305.15	0.0010984
2314.79	0.0011296
2324.44	0.0011784
2334.08	0.0012857
2343.73	0.0013081
2353.37	0.00157
2363.02	0.0012631
2372.66	0.001327
2382.31	0.0014372
2391.95	0.0013451
2401.6	0.0009925
2411.24	0.0013026
2420.89	0.0010881
2430.53	0.0010752
2440.18	0.0009127
2449.82	0.0007561
2459.47	0.0007645
2469.11	0.0008908
2478.75	0.000738
2488.4	0.0007966
2498.04	0.0008656
2507.69	0.0008084
2517.33	0.0008177
2526.98	0.0006978
2536.62	0.0007782
2546.27	0.0007091
2555.91	0.0006753
2565.56	0.000609
2575.2	0.000678
2584.85	0.0009214
2594.49	0.0008691
2604.14	0.0009178
2613.78	0.0009076
2623.43	0.0009761
2633.07	0.0008475
2642.72	0.0007282
2652.36	0.000903
2662.01	0.0008007
2671.65	0.000799
2681.29	0.0007655
2690.94	0.0008621
2700.58	0.0007262
2710.23	0.0007132
2719.87	0.0008117
2729.52	0.0008772
2739.16	0.0009745
2748.81	0.0008648
2758.45	0.0007745
2768.1	0.0009475
2777.74	0.0010276
2787.39	0.0013975
2797.03	0.00171
2806.68	0.00234
2816.32	0.00318
2825.97	0.00491
2835.61	0.01148
2845.26	0.02481
2854.9	0.01733
2864.55	0.00709
2874.19	0.00497
2883.84	0.00544
2893.48	0.007
2903.12	0.00948
2912.77	0.01164
2922.41	0.01125
2932.06	0.01507
2941.7	0.03054
2951.35	0.04313
2960.99	0.04295
2970.64	0.02361
2980.28	0.01634
2989.93	0.01698
2999.57	0.01938
3009.22	0.02233
3018.86	0.0171
3028.51	0.01029
3038.15	0.00726
3047.8	0.00571
3057.44	0.00468
3067.09	0.0041
3076.73	0.0037
3086.38	0.00339
3096.02	0.00307
3105.67	0.00263
3115.31	0.00223
3124.95	0.00192
3134.6	0.00161
3144.24	0.00166
3153.89	0.0014007
3163.53	0.0010632
3173.18	0.0011966
3182.82	0.0012367
3192.47	0.0009045
3202.11	0.0007371
3211.76	0.0009084
3221.4	0.00056545
3231.05	0.0005755
3240.69	0.0004011
3250.34	0.00052036
3259.98	0.0004136
3269.63	0.0006653
3279.27	0.0007161
3288.92	0.0004221
3298.56	0.00048436
3308.21	0.000366
3317.85	0.000312
3327.49	0.00053717
3337.14	0.0004157
3346.78	0.000348
3356.43	0.00046845
3366.07	0.0004389
3375.72	0.00054524
3385.36	0.0003704
3395.01	0.000479311
3404.65	0.000376
3414.3	0.00044
3423.94	0.000227
3433.59	0.00052947
3443.23	0.0004934
3452.88	0.00029
3462.52	0.0005789
3472.17	0.000469406
3481.81	0.0005943
3491.46	0.0006875
3501.1	0.00056321
3510.75	0.00048242
3520.39	0.00050483
3530.04	0.000266
3539.68	0.00046642
3549.32	0.0004147
3558.97	0.000454
3568.61	0.0004365
3578.26	0.0004188
3587.9	0.0006964
3597.55	0.0004011
3607.19	0.0004082
3616.84	0.00051495
3626.48	0.000668
3636.13	0.00048816
3645.77	0.000147
3655.42	0.0007562
3665.06	0.00050884
3674.71	0.00052881
3684.35	0.00048556
3694	0.00046505
3703.64	0.00052988
3713.29	0.0004227
3722.93	0.00051489
3732.58	0.0003
3742.22	0.0003845
3751.86	0.00046259
3761.51	0.000348
3771.15	0.0004594
3780.8	0.00051057
3790.44	0.00046167
3800.09	0.0004344
3809.73	0.00054875
3819.38	0.000429
3829.02	0.0004454
3838.67	0.00050801
3848.31	0.0004305
3857.96	0.0007025
3867.6	0.0004356
3877.25	0.0006763
3886.89	0.00058
3896.54	0.0006637
3906.18	0.0006005
3915.83	0.0004815
3925.47	0.0007838
3935.12	0.0008273
3944.76	0.0006475
3954.41	0.0005195
3964.05	0.000469305
3973.69	0.0005514
3983.34	0.0008251
3992.98	0.00046408
