Infrared Spectrum: trans-1,4-Dimethylcyclohexane
Formula: C 8 H 16
CAS: 2207-04-7
State: gas
Instrument: HP-GC/MS/IRD
Origin: NIST Mass Spectrometry Data Center
1/CM	ABSORBANCE
550	8.64e-05
562	7.56e-05
574	3.78e-05
586	9.72e-05
598	8.1e-05
610	7.02e-05
622	7.56e-05
634	0.0001242
646	5.4e-05
658	0.0001188
670	0.000108
682	0.0001458
694	0.0001674
706	0.0001296
718	1.62e-05
730	5.94e-05
742	7.02e-05
754	8.64e-05
766	0.0001134
778	9.72e-05
790	0.0001296
802	0.0001458
814	0.000108
826	0.0002052
838	0.000135
850	0.0001836
862	0.0002646
874	0.00027
886	0.000297
898	0.0003186
910	0.0004104
922	0.0003834
934	0.0003348
946	0.0004104
958	0.0003186
970	0.0002214
982	0.0004158
994	0.0006102
1006	0.0005346
1018	0.0006318
1030	0.0005616
1042	0.0004266
1054	0.0001836
1066	0.000135
1078	0.0001836
1090	0.0004752
1102	0.0006804
1114	0.0005346
1126	0.0002754
1138	0.000162
1150	0.0001296
1162	0.000135
1174	0.0001512
1186	0.0001728
1198	0.0001728
1210	0.0002538
1222	0.0003618
1234	0.000594
1246	0.0008262
1258	0.0008478
1270	0.0005022
1282	0.0002808
1294	0.000351
1306	0.0004374
1318	0.0003078
1330	0.0003618
1342	0.0004914
1354	0.0007182
1366	0.0012042
1378	0.0021222
1390	0.0018684
1402	0.000621
1414	0.0004698
1426	0.001053
1438	0.003213
1450	0.0059076
1462	0.005616
1474	0.0030294
1486	0.0012906
1498	0.0005292
1510	0.0002592
1522	0.000162
1534	0.0001242
1546	9.18e-05
1558	0.0001836
1570	0.0001782
1582	0.0001458
1594	0.000135
1606	0.0001404
1618	0.0001674
1630	0.0001512
1642	0.0001728
1654	0.000216
1666	0.0001944
1678	0.0001836
1690	0.0001566
1702	0.0001242
1714	9.18e-05
1726	9.18e-05
1738	8.64e-05
1750	9.18e-05
1762	7.56e-05
1774	9.72e-05
1786	5.94e-05
1798	6.48e-05
1810	7.02e-05
1822	7.02e-05
1834	5.94e-05
1846	4.32e-05
1858	4.32e-05
1870	5.4e-05
1882	8.1e-05
1894	7.56e-05
1906	4.32e-05
1918	3.24e-05
1930	3.78e-05
1942	3.24e-05
1954	3.78e-05
1966	3.24e-05
1978	2.16e-05
1990	1.08e-05
2002	3.78e-05
2014	3.24e-05
2026	2.7e-05
2038	1.62e-05
2050	2.7e-05
2062	4.32e-05
2074	3.78e-05
2086	3.78e-05
2098	3.78e-05
2110	3.24e-05
2122	3.78e-05
2134	2.16e-05
2146	1.62e-05
2158	0
2170	3.24e-05
2182	0
2194	2.7e-05
2206	2.16e-05
2218	3.78e-05
2230	2.7e-05
2242	3.24e-05
2254	5.94e-05
2266	8.1e-05
2278	5.4e-05
2290	4.86e-05
2302	2.16e-05
2314	2.7e-05
2326	1.62e-05
2338	2.7e-05
2350	3.78e-05
2362	9.18e-05
2374	0.000108
2386	0.0001026
2398	0.0001188
2410	0.000135
2422	0.000108
2434	8.64e-05
2446	0.0001242
2458	0.0001026
2470	9.18e-05
2482	0.000108
2494	8.64e-05
2506	9.72e-05
2518	0.000108
2530	0.0001458
2542	0.0001566
2554	0.000162
2566	0.0001512
2578	0.0001836
2590	0.0002808
2602	0.0004536
2614	0.0004698
2626	0.000513
2638	0.0005886
2650	0.000621
2662	0.0005724
2674	0.0005346
2686	0.0005346
2698	0.0005184
2710	0.0005508
2722	0.0006642
2734	0.0007722
2746	0.0008154
2758	0.0007884
2770	0.000783
2782	0.0008478
2794	0.0010962
2806	0.001539
2818	0.0022572
2830	0.004239
2842	0.0111078
2854	0.0171504
2866	0.0192564
2878	0.0191592
2890	0.019926
2902	0.0260712
2914	0.0453654
2926	0.0504522
2938	0.0385614
2950	0.0286092
2962	0.0257364
2974	0.0139806
2986	0.0037314
2998	0.0012744
3010	0.0008262
3022	0.0007074
3034	0.000675
3046	0.0007128
3058	0.0007398
3070	0.0007128
3082	0.0006426
3094	0.0005994
3106	0.0005454
3118	0.00054
3130	0.0005562
3142	0.0005832
3154	0.0006048
3166	0.000594
3178	0.000486
3190	0.0002916
3202	0.0002214
3214	0.0001728
3226	0.0001782
3238	0.0001998
3250	9.72e-05
3262	0.0001458
3274	0.0001134
3286	0.0001458
3298	9.18e-05
3310	0.000162
3322	0.0001836
3334	0.0001836
3346	0.0001404
3358	0.0001566
3370	0.0001242
3382	0.0001458
3394	0.0001242
3406	0.0001296
3418	0.0001026
3430	9.18e-05
3442	1.08e-05
3454	3.78e-05
3466	2.7e-05
3478	5.4e-05
3490	5.94e-05
3502	7.02e-05
3514	8.1e-05
3526	7.02e-05
3538	9.18e-05
3550	7.56e-05
3562	5.94e-05
3574	7.02e-05
3586	2.7e-05
3598	7.02e-05
3610	8.64e-05
3622	9.18e-05
3634	0.000135
3646	9.18e-05
3658	7.56e-05
3670	0.0001458
3682	0.0001242
3694	0.0001296
3706	0.000135
3718	0.0001404
3730	0.0001134
3742	0.0001188
3754	0.0001998
3766	0.000108
3778	0.000162
3790	0.0001944
3802	0.0002268
3814	0.0002268
3826	0.000189
3838	0.0001566
