Infrared Spectrum: trans-1,3-Dimethylcyclohexane
Formula: C 8 H 16
CAS: 2207-03-6
State: gas
Instrument: HP-GC/MS/IRD
Origin: NIST Mass Spectrometry Data Center
1/CM	ABSORBANCE
550	0.000162
562	0.00036
574	0.000492
586	0.00036
598	0.000294
610	0.000348
622	0.000504
634	0.000522
646	0.000348
658	0.000336
670	0.000168
682	0.00027
694	0.000198
706	0.000258
718	0.00027
730	0.000216
742	0.000258
754	0.000234
766	0.000252
778	0.000216
790	0.000228
802	0.000258
814	0.000294
826	0.00048
838	0.000798
850	0.000876
862	0.000582
874	0.000414
886	0.000276
898	0.000198
910	0.000222
922	0.000294
934	0.000408
946	0.00057
958	0.00066
970	0.000696
982	0.000522
994	0.000366
1006	0.00015
1018	0.000174
1030	0.00015
1042	0.000228
1054	0.000348
1066	0.000414
1078	0.000486
1090	0.000624
1102	0.000558
1114	0.000414
1126	0.000378
1138	0.00033
1150	0.000468
1162	0.000708
1174	0.000612
1186	0.00039
1198	0.000378
1210	0.000438
1222	0.000438
1234	0.000474
1246	0.00063
1258	0.000804
1270	0.000858
1282	0.000714
1294	0.000582
1306	0.00072
1318	0.00096
1330	0.001392
1342	0.00123
1354	0.001224
1366	0.002034
1378	0.00351
1390	0.00312
1402	0.001314
1414	0.000756
1426	0.001326
1438	0.00327
1450	0.005898
1462	0.006444
1474	0.004194
1486	0.001914
1498	0.00069
1510	0.00015
1522	0.000126
1534	0.00021
1546	0.000138
1558	4.2e-05
1570	0.000282
1582	0.000348
1594	0.00036
1606	0.000372
1618	0.000282
1630	0.000276
1642	0.000252
1654	7.2e-05
1666	0.000204
1678	0.000144
1690	0.00018
1702	4.8e-05
1714	8.4e-05
1726	0.000198
1738	6.6e-05
1750	4.2e-05
1762	0.000114
1774	0.000126
1786	0.000126
1798	0.00015
1810	0.00018
1822	0.000186
1834	0.000192
1846	0.00012
1858	0.000198
1870	0.000138
1882	0.000204
1894	0.00021
1906	0.000228
1918	0.000168
1930	0.000204
1942	0.000192
1954	0.000198
1966	0.000204
1978	0.000204
1990	0.000174
2002	0.00018
2014	0.000198
2026	0.000216
2038	0.000216
2050	0.000198
2062	0.000174
2074	0.000204
2086	0.00021
2098	0.000228
2110	0.00024
2122	0.000228
2134	0.000228
2146	0.000222
2158	0.000258
2170	0.000264
2182	0.00027
2194	0.000258
2206	0.000228
2218	0.000204
2230	0.000216
2242	0.000216
2254	0.00021
2266	0.000216
2278	0.000204
2290	0.000204
2302	0.000186
2314	0.000162
2326	0.000174
2338	0.000126
2350	0.000138
2362	6.6e-05
2374	0.000132
2386	0.000264
2398	0.000336
2410	0.000318
2422	0.00033
2434	0.000306
2446	0.000336
2458	0.00033
2470	0.000336
2482	0.0003
2494	0.000342
2506	0.000372
2518	0.00039
2530	0.00036
2542	0.000384
2554	0.00042
2566	0.000444
2578	0.000552
2590	0.000654
2602	0.000744
2614	0.00081
2626	0.000846
2638	0.0009
2650	0.001044
2662	0.001128
2674	0.00111
2686	0.00099
2698	0.00087
2710	0.000882
2722	0.001008
2734	0.001146
2746	0.001134
2758	0.001104
2770	0.001206
2782	0.001356
2794	0.001644
2806	0.002058
2818	0.002742
2830	0.004668
2842	0.010614
2854	0.015894
2866	0.017862
2878	0.020574
2890	0.02733
2902	0.038316
2914	0.05037
2926	0.059598
2938	0.04947
2950	0.03747
2962	0.031656
2974	0.020298
2986	0.006888
2998	0.002526
3010	0.001536
3022	0.001278
3034	0.001176
3046	0.001248
3058	0.001296
3070	0.001266
3082	0.001224
3094	0.001152
3106	0.001032
3118	0.000906
3130	0.000834
3142	0.00081
3154	0.000774
3166	0.000744
3178	0.000696
3190	0.000606
3202	0.000504
3214	0.000438
3226	0.000402
3238	0.000408
3250	0.000456
3262	0.000462
3274	0.000486
3286	0.000456
3298	0.000438
3310	0.00039
3322	0.000414
3334	0.000402
3346	0.000462
3358	0.00039
3370	0.000402
3382	0.000378
3394	0.00039
3406	0.000378
3418	0.000384
3430	0.000348
3442	0.000288
3454	0.000342
3466	0.000318
3478	0.000264
3490	0.000288
3502	0.000282
3514	0.000318
3526	0.00027
3538	0.000324
3550	0.000312
3562	0.000282
3574	0.000348
3586	0.000198
3598	0.000294
3610	0.000216
3622	0.00027
3634	0.00033
3646	0.000258
3658	0.000342
3670	0.000276
3682	0.000384
3694	0.000402
3706	0.000426
3718	0.000426
3730	0.000348
3742	0.000258
3754	0.000366
3766	0.000462
3778	0.000516
3790	0.000462
3802	0.000444
3814	0.00054
3826	0.000552
3838	0.000444
