Infrared Spectrum: 1H-Benzotriazole, 4,6-difluoro-
Formula: C6 H3 F2 N3
CAS: 2208-25-5
State: SOLID (0.8 mg / 650 mg KBr DISC)
Class: COBLENTZ III
Instrument: PERKIN-ELMER 21 (GRATING)
Instrument parameters: FILTER CHANGE ABOUT 1020 CM^-^1
Resolution: 2
Origin: SOUTHERN RESEARCH INSTITUTE
1/CM	TRANSMITTANCE
601	0.7077
610.027	0.7074
619.055	0.7064
628.082	0.7035
637.109	0.6949
646.136	0.6813
655.164	0.614
664.191	0.5168
673.218	0.7194
682.246	0.7215
691.273	0.7198
700.3	0.7185
709.327	0.7167
718.355	0.7152
727.382	0.7145
736.409	0.7125
745.436	0.7108
754.464	0.706
763.491	0.7177
772.518	0.714
781.546	0.6968
790.573	0.6709
799.6	0.6396
808.627	0.5986
817.655	0.4843
826.682	0.3014
835.709	0.313
844.737	0.318
853.764	0.5103
862.791	0.6066
871.818	0.666
880.846	0.6899
889.873	0.6983
898.9	0.7154
907.928	0.7298
916.955	0.7373
925.982	0.7397
935.009	0.7379
944.037	0.7294
953.064	0.7098
962.091	0.6732
971.119	0.4814
980.146	0.6802
989.173	0.5894
998.2	0.4536
1007.23	0.6006
1016.25	0.4301
1025.28	0.623
1034.31	0.7889
1043.34	0.7995
1052.36	0.7886
1061.39	0.7625
1070.42	0.7419
1079.45	0.7156
1088.47	0.6544
1097.5	0.6048
1106.53	0.3984
1115.56	0.4498
1124.58	0.6401
1133.61	0.4597
1142.64	0.243
1151.66	0.5027
1160.69	0.7521
1169.72	0.7461
1178.75	0.6735
1187.77	0.4579
1196.8	0.806
1205.83	0.753
1214.86	0.6785
1223.88	0.6505
1232.91	0.3956
1241.94	0.2267
1250.96	0.6218
1259.99	0.7929
1269.02	0.8105
1278.05	0.7827
1287.07	0.8217
1296.1	0.8288
1305.13	0.8233
1314.16	0.81
1323.18	0.7813
1332.21	0.7165
1341.24	0.6319
1350.26	0.312
1359.29	0.3237
1368.32	0.6918
1377.35	0.6223
1386.37	0.5142
1395.4	0.4911
1404.43	0.6122
1413.46	0.548
1422.48	0.4776
1431.51	0.4805
1440.54	0.5483
1449.56	0.5384
1458.59	0.6419
1467.62	0.7424
1476.65	0.7602
1485.67	0.7798
1494.7	0.791
1503.73	0.7622
1512.76	0.6981
1521.78	0.5978
1530.81	0.4717
1539.84	0.4477
1548.86	0.6359
1557.89	0.7526
1566.92	0.7655
1575.95	0.7302
1584.97	0.6656
1594	0.5199
1603.03	0.2414
1612.06	0.3063
1621.08	0.5641
1630.11	0.4994
1639.14	0.3888
1648.16	0.4104
1657.19	0.6163
1666.22	0.6959
1675.25	0.7263
1684.27	0.7361
1693.3	0.784
1702.33	0.7963
1711.36	0.7968
1720.38	0.7966
1729.41	0.805
1738.44	0.8106
1747.46	0.8113
1756.49	0.8128
1765.52	0.8154
1774.55	0.8181
1783.57	0.8232
1792.6	0.8276
1801.63	0.8295
1810.66	0.8308
1819.68	0.8326
1828.71	0.8363
1837.74	0.8384
1846.76	0.8415
1855.79	0.8417
1864.82	0.8456
1873.85	0.8489
1882.87	0.8512
1891.9	0.8522
1900.93	0.8526
1909.96	0.8525
1918.98	0.8522
1928.01	0.8515
1937.04	0.8508
1946.06	0.8503
1955.09	0.8505
1964.12	0.8519
1973.15	0.8561
1982.17	0.8619
1991.2	0.8617
2000.23	0.8586
2009.26	0.8561
2018.28	0.855
2027.31	0.8542
2036.34	0.8538
2045.36	0.8525
2054.39	0.8512
2063.42	0.8498
2072.45	0.8475
2081.47	0.8452
2090.5	0.8432
2099.53	0.8408
2108.56	0.8381
2117.58	0.836
2126.61	0.8362
2135.64	0.8386
2144.67	0.8417
2153.69	0.8407
2162.72	0.8385
2171.75	0.8363
2180.77	0.8325
2189.8	0.8281
2198.83	0.8226
2207.86	0.8168
2216.88	0.8109
2225.91	0.8061
2234.94	0.8018
2243.97	0.7974
2252.99	0.793
2262.02	0.7885
2271.05	0.7788
2280.07	0.7659
2289.1	0.7527
2298.13	0.7389
2307.16	0.7249
2316.18	0.7175
2325.21	0.7128
2334.24	0.7104
2343.27	0.7078
2352.29	0.7052
2361.32	0.7044
2370.35	0.7
2379.37	0.6903
2388.4	0.6778
2397.43	0.6647
2406.46	0.6495
2415.48	0.6357
2424.51	0.6241
2433.54	0.6147
2442.57	0.606
2451.59	0.5983
2460.62	0.5917
2469.65	0.5848
2478.67	0.5777
2487.7	0.5686
2496.73	0.5597
2505.76	0.5519
2514.78	0.5493
2523.81	0.548
2532.84	0.5466
2541.87	0.5453
2550.89	0.537
2559.92	0.5245
2568.95	0.5111
2577.97	0.4974
2587	0.4869
2596.03	0.4804
2605.06	0.4772
2614.08	0.4746
2623.11	0.4738
2632.14	0.4723
2641.17	0.4683
2650.19	0.46
2659.22	0.4511
2668.25	0.4423
2677.27	0.4347
2686.3	0.427
2695.33	0.4187
2704.36	0.409
2713.38	0.399
2722.41	0.3886
2731.44	0.3751
2740.47	0.3698
2749.49	0.3676
2758.52	0.367
2767.55	0.3664
2776.57	0.3679
2785.6	0.371
2794.63	0.3813
2803.66	0.3964
2812.68	0.4109
2821.71	0.4328
2830.74	0.4443
2839.77	0.4508
2848.79	0.4542
2857.82	0.4532
2866.85	0.4496
2875.87	0.4446
2884.9	0.4357
2893.93	0.429
2902.96	0.4185
2911.98	0.4188
2921.01	0.4266
2930.04	0.4401
2939.07	0.4578
2948.09	0.4628
2957.12	0.4591
2966.15	0.4547
2975.17	0.4486
2984.2	0.4395
2993.23	0.4266
3002.26	0.4127
3011.28	0.4127
3020.31	0.4155
3029.34	0.4216
3038.37	0.4302
3047.39	0.4324
3056.42	0.4296
3065.45	0.4125
3074.47	0.3929
3083.5	0.3806
3092.53	0.3841
3101.56	0.3933
3110.58	0.4092
3119.61	0.4323
3128.64	0.4534
3137.67	0.4659
3146.69	0.4747
3155.72	0.4881
3164.75	0.5078
3173.78	0.5384
3182.8	0.5571
3191.83	0.5668
3200.86	0.5762
3209.88	0.5855
3218.91	0.5984
3227.94	0.629
3236.97	0.6475
3245.99	0.6626
3255.02	0.6715
3264.05	0.6748
3273.08	0.6767
3282.1	0.6885
3291.13	0.6903
3300.16	0.6918
3309.18	0.6967
3318.21	0.7005
3327.24	0.6995
3336.27	0.6987
3345.29	0.6975
3354.32	0.6954
3363.35	0.693
3372.38	0.6911
3381.4	0.6898
3390.43	0.6894
3399.46	0.689
3408.48	0.6885
3417.51	0.6881
3426.54	0.6879
3435.57	0.6885
3444.59	0.6911
3453.62	0.6923
3462.65	0.6925
3471.68	0.6933
3480.7	0.6951
3489.73	0.6968
3498.76	0.6999
3507.78	0.7035
3516.81	0.7097
3525.84	0.716
3534.87	0.7219
3543.89	0.7247
3552.92	0.7258
3561.95	0.7343
3570.98	0.7448
3580	0.7577
3589.03	0.7641
3598.06	0.7662
3607.08	0.7725
3616.11	0.7821
3625.14	0.7934
3634.17	0.8044
3643.19	0.8108
3652.22	0.8113
3661.25	0.8115
3670.28	0.8118
3679.3	0.8124
3688.33	0.8129
3697.36	0.8133
3706.38	0.8142
3715.41	0.815
3724.44	0.8158
3733.47	0.8165
3742.49	0.8172
3751.52	0.8192
3760.55	0.8208
3769.58	0.8218
3778.6	0.8227
3787.63	0.823
3796.66	0.8226
3805.68	0.8211
3814.71	0.8196
3823.74	0.818
3832.77	0.816
3841.79	0.815
3850.82	0.8143
3859.85	0.814
3868.88	0.8141
3877.9	0.8145
3886.93	0.8155
3895.96	0.8151
3904.98	0.8134
