Infrared Spectrum: Benzimidazole, 4-amino-5, 7-difluoro-
Formula: C7 H5 N3 F2
CAS: 2208-26-6
State: SOLID (1 mg / 650 mg KBr DISC)
Class: COBLENTZ III
Instrument: PERKIN-ELMER 21 (GRATING)
Instrument parameters: FILTER CHANGE ABOUT 1020 CM^-^1
Sampling: TRANSMISSION
Resolution: 2
Origin: SOUTHERN RESEARCH INSTITUTE
1/CM	TRANSMITTANCE
599	0.8797
608	0.8762
617	0.8685
626	0.863
635	0.8521
644	0.8369
653	0.8309
662	0.8208
671	0.7448
680	0.6409
689	0.8175
698	0.8091
707	0.7922
716	0.7718
725	0.7501
734	0.8253
743	0.8277
752	0.8142
761	0.807
770	0.7921
779	0.7599
788	0.7197
797	0.6842
806	0.6572
815	0.6487
824	0.6129
833	0.6181
842	0.5352
851	0.658
860	0.7894
869	0.8232
878	0.8263
887	0.8174
896	0.7761
905	0.7138
914	0.7366
923	0.739
932	0.7414
941	0.7746
950	0.82
959	0.8279
968	0.833
977	0.8487
986	0.8452
995	0.8385
1004	0.8303
1013	0.8235
1022	0.8173
1031	0.8082
1040	0.7854
1049	0.8194
1058	0.8243
1067	0.8207
1076	0.8135
1085	0.8041
1094	0.7855
1103	0.7487
1112	0.6606
1121	0.3541
1130	0.7911
1139	0.8064
1148	0.7875
1157	0.7481
1166	0.6101
1175	0.7254
1184	0.7591
1193	0.7751
1202	0.7013
1211	0.6249
1220	0.7504
1229	0.8282
1238	0.8275
1247	0.8216
1256	0.8075
1265	0.7803
1274	0.7505
1283	0.5965
1292	0.7963
1301	0.8231
1310	0.82
1319	0.811
1328	0.7813
1337	0.7473
1346	0.6998
1355	0.6188
1364	0.697
1373	0.6502
1382	0.6347
1391	0.6321
1400	0.4667
1409	0.2467
1418	0.2361
1427	0.5534
1436	0.7528
1445	0.8101
1454	0.821
1463	0.8181
1472	0.8011
1481	0.7706
1490	0.7327
1499	0.6534
1508	0.3827
1517	0.4795
1526	0.6849
1535	0.5859
1544	0.4706
1553	0.4533
1562	0.6766
1571	0.755
1580	0.7608
1589	0.7489
1598	0.7138
1607	0.6138
1616	0.6402
1625	0.6716
1634	0.62
1643	0.5817
1652	0.6013
1661	0.728
1670	0.7459
1679	0.7656
1688	0.7813
1697	0.7946
1706	0.7993
1715	0.802
1724	0.8066
1733	0.8153
1742	0.8245
1751	0.8316
1760	0.8355
1769	0.8383
1778	0.8416
1787	0.8486
1796	0.8521
1805	0.8521
1814	0.847
1823	0.8398
1832	0.8353
1841	0.8367
1850	0.8448
1859	0.8545
1868	0.8586
1877	0.8589
1886	0.8594
1895	0.8599
1904	0.8593
1913	0.858
1922	0.8567
1931	0.8555
1940	0.8544
1949	0.8539
1958	0.8537
1967	0.853
1976	0.852
1985	0.8525
1994	0.856
2003	0.8522
2012	0.8459
2021	0.846
2030	0.8483
2039	0.8474
2048	0.8449
2057	0.8431
2066	0.8413
2075	0.8393
2084	0.8373
2093	0.835
2102	0.8326
2111	0.8302
2120	0.8282
2129	0.8269
2138	0.8264
2147	0.8254
2156	0.8243
2165	0.8231
2174	0.8217
2183	0.8203
2192	0.8189
2201	0.8175
2210	0.8154
2219	0.8132
2228	0.8109
2237	0.8069
2246	0.8025
2255	0.7981
2264	0.7928
2273	0.7863
2282	0.7788
2291	0.7691
2300	0.7602
2309	0.7517
2318	0.7433
2327	0.735
2336	0.7268
2345	0.7206
2354	0.7179
2363	0.7176
2372	0.7153
2381	0.7056
2390	0.6942
2399	0.6826
2408	0.67
2417	0.6528
2426	0.63
2435	0.6145
2444	0.6146
2453	0.6209
2462	0.6203
2471	0.6118
2480	0.5976
2489	0.5773
2498	0.5558
2507	0.5329
2516	0.5051
2525	0.4744
2534	0.4644
2543	0.4531
2552	0.4263
2561	0.4056
2570	0.4066
2579	0.4499
2588	0.4785
2597	0.4656
2606	0.4414
2615	0.4363
2624	0.4285
2633	0.4082
2642	0.3879
2651	0.3683
2660	0.3478
2669	0.3262
2678	0.3164
2687	0.3129
2696	0.3143
2705	0.3157
2714	0.3154
2723	0.3125
2732	0.3096
2741	0.3077
2750	0.3103
2759	0.3178
2768	0.3311
2777	0.3533
2786	0.3799
2795	0.3857
2804	0.3838
2813	0.3948
2822	0.4137
2831	0.4131
2840	0.4119
2849	0.417
2858	0.445
2867	0.4714
2876	0.5004
2885	0.5275
2894	0.5541
2903	0.5597
2912	0.5496
2921	0.5139
2930	0.4772
2939	0.4274
2948	0.3846
2957	0.3791
2966	0.3811
2975	0.3959
2984	0.4125
2993	0.4319
3002	0.4607
3011	0.4944
3020	0.541
3029	0.5652
3038	0.5719
3047	0.573
3056	0.569
3065	0.5554
3074	0.5399
3083	0.5305
3092	0.5252
3101	0.5307
3110	0.5702
3119	0.6296
3128	0.6862
3137	0.7057
3146	0.7115
3155	0.7151
3164	0.715
3173	0.7117
3182	0.705
3191	0.6919
3200	0.6705
3209	0.6456
3218	0.6486
3227	0.6758
3236	0.7083
3245	0.7125
3254	0.704
3263	0.6961
3272	0.6954
3281	0.6909
3290	0.6742
3299	0.6533
3308	0.6276
3317	0.5945
3326	0.5436
3335	0.5158
3344	0.5177
3353	0.5388
3362	0.5776
3371	0.6564
3380	0.6958
3389	0.7081
3398	0.7095
3407	0.7094
3416	0.7064
3425	0.7021
3434	0.6946
3443	0.686
3452	0.6765
3461	0.6649
3470	0.6484
3479	0.6268
3488	0.6029
3497	0.5795
3506	0.5938
3515	0.65
3524	0.7078
3533	0.7394
3542	0.7561
3551	0.7631
3560	0.7704
3569	0.7768
3578	0.782
3587	0.789
3596	0.7978
3605	0.8037
3614	0.8097
3623	0.8171
3632	0.824
3641	0.831
3650	0.8378
3659	0.8406
3668	0.8424
3677	0.8422
3686	0.8404
3695	0.8398
3704	0.8396
3713	0.8396
3722	0.8398
3731	0.8402
3740	0.8406
3749	0.8412
3758	0.8418
3767	0.8428
3776	0.8441
3785	0.8486
3794	0.8544
3803	0.8581
3812	0.8567
3821	0.8532
3830	0.8484
3839	0.8449
3848	0.8435
3857	0.8435
3866	0.8435
3875	0.8433
3884	0.8432
3893	0.8439
3902	0.8447
3911	0.8457
3920	0.8468
3929	0.8476
3938	0.8483
3947	0.8465
3956	0.8433
3965	0.8404
3974	0.8411
3983	0.8435
3992	0.8407
