Infrared Spectrum: 3-(2-Methylphenyl)propionic acid
Formula: C 10 H 12 O 2
CAS: 22084-89-5
State: gas
Origin: EPA-IR VAPOR PHASE LIBRARY
1/CM	ABSORBANCE
549.8	0.012975
559.445	0.017315
569.09	0.019275
578.734	0.022355
588.379	0.020645
598.024	0.013055
607.669	0.012635
617.313	0.013715
626.958	0.013505
636.603	0.011735
646.248	0.009445
655.893	0.006755
665.537	0.005535
675.182	0.004925
684.827	0.004755
694.472	0.004475
704.116	0.004635
713.761	0.006735
723.406	0.011735
733.051	0.017585
742.695	0.021315
752.34	0.019225
761.985	0.010165
771.63	0.004635
781.275	0.003685
790.919	0.003715
800.564	0.003305
810.209	0.002115
819.854	0.001745
829.498	0.001775
839.143	0.001375
848.788	0.0011599
858.433	0.0012549
868.078	0.0012156
877.722	0.001535
887.367	0.001685
897.012	0.002085
906.657	0.002195
916.301	0.002105
925.946	0.002325
935.591	0.003005
945.236	0.003745
954.88	0.003685
964.525	0.003405
974.17	0.003455
983.815	0.004125
993.46	0.004575
1003.1	0.004895
1012.75	0.005655
1022.39	0.006455
1032.04	0.006945
1041.68	0.007725
1051.33	0.009315
1060.97	0.009565
1070.62	0.010265
1080.26	0.016335
1089.91	0.026275
1099.55	0.038215
1109.2	0.050145
1118.84	0.060745
1128.49	0.057825
1138.13	0.040685
1147.78	0.026165
1157.42	0.019345
1167.07	0.016565
1176.71	0.015975
1186.36	0.016065
1196	0.015335
1205.64	0.012945
1215.29	0.010855
1224.93	0.009605
1234.58	0.008695
1244.22	0.007925
1253.87	0.008195
1263.51	0.008265
1273.16	0.008115
1282.8	0.007905
1292.45	0.007745
1302.09	0.007325
1311.74	0.006995
1321.38	0.006905
1331.03	0.007125
1340.67	0.007805
1350.32	0.009095
1359.96	0.011595
1369.61	0.014725
1379.25	0.016555
1388.9	0.013385
1398.54	0.008245
1408.18	0.006025
1417.83	0.006065
1427.47	0.007015
1437.12	0.007495
1446.76	0.008675
1456.41	0.010545
1466.05	0.010055
1475.7	0.008075
1485.34	0.009305
1494.99	0.010335
1504.63	0.005865
1514.28	0.002735
1523.92	0.001805
1533.57	0.001585
1543.21	0.001425
1552.86	0.001285
1562.5	0.001355
1572.15	0.001475
1581.79	0.002135
1591.44	0.002375
1601.08	0.002885
1610.73	0.002405
1620.37	0.001365
1630.01	0.0009845
1639.66	0.0009741
1649.3	0.0010332
1658.95	0.001185
1668.59	0.001385
1678.24	0.001795
1687.88	0.002175
1697.53	0.002715
1707.17	0.003865
1716.82	0.005825
1726.46	0.009285
1736.11	0.015365
1745.75	0.024305
1755.4	0.038355
1765.04	0.064805
1774.69	0.091395
1784.33	0.078895
1793.98	0.048265
1803.62	0.028105
1813.27	0.016045
1822.91	0.009165
1832.55	0.005435
1842.2	0.003395
1851.84	0.002395
1861.49	0.001935
1871.13	0.001705
1880.78	0.001635
1890.42	0.001595
1900.07	0.001955
1909.71	0.001745
1919.36	0.001305
1929	0.001385
1938.65	0.001585
1948.29	0.001325
1957.94	0.000869
1967.58	0.0006278
1977.23	0.0006931
1986.87	0.0006215
1996.52	0.0006214
2006.16	0.0005069
2015.81	0.0006126
2025.45	0.0005607
2035.1	0.0004593
2044.74	0.0004568
2054.38	0.0003992
2064.03	0.0003935
2073.67	0.0003709
2083.32	0.0004352
2092.96	0.0003684
2102.61	0.0004555
2112.25	0.0004077
2121.9	0.0003951
2131.54	0.0004218
2141.19	0.0004494
2150.83	0.0005016
2160.48	0.0004774
2170.12	0.0004772
2179.77	0.0004965
2189.41	0.0005202
2199.06	0.0005171
2208.7	0.0004561
2218.35	0.0005895
2227.99	0.0005769
2237.64	0.0006373
2247.28	0.0005488
2256.92	0.0004705
2266.57	0.000468
2276.21	0.0004311
2285.86	0.0004608
2295.5	0.00030639
2305.15	0.00034367
2314.79	0.000481
2324.44	0.000614
2334.08	0.0004317
2343.73	0.0004417
2353.37	0.0003923
2363.02	0.00034048
2372.66	0.0003729
2382.31	0.000257032
2391.95	0.0004362
2401.6	0.000391
2411.24	0.0004332
2420.89	0.0004249
2430.53	0.0004496
2440.18	0.0004934
2449.82	0.0004619
2459.47	0.0003642
2469.11	0.00028773
2478.75	0.0003649
2488.4	0.00034572
2498.04	0.0004696
2507.69	0.00032829
2517.33	0.0002247
2526.98	0.00031848
2536.62	0.0002223
2546.27	0.00032071
2555.91	0.0003974
2565.56	0.00034202
2575.2	0.0003904
2584.85	0.0003035
2594.49	0.00035019
2604.14	0.000295
2613.78	0.00027298
2623.43	0.00025153
2633.07	0.00031525
2642.72	0.00031397
2652.36	0.0002996
2662.01	0.00028772
2671.65	0.0004095
2681.29	0.00030741
2690.94	0.0004485
2700.58	0.0004147
2710.23	0.0004954
2719.87	0.0003685
2729.52	0.0004607
2739.16	0.0005661
2748.81	0.0006792
2758.45	0.0005648
2768.1	0.0005189
2777.74	0.0006382
2787.39	0.0004905
2797.03	0.0006964
2806.68	0.000708
2816.32	0.0007612
2825.97	0.001142
2835.61	0.001625
2845.26	0.002095
2854.9	0.002945
2864.55	0.004285
2874.19	0.006145
2883.84	0.007325
2893.48	0.007195
2903.12	0.007065
2912.77	0.007785
2922.41	0.010545
2932.06	0.013795
2941.7	0.014735
2951.35	0.013855
2960.99	0.012765
2970.64	0.011725
2980.28	0.010865
2989.93	0.009145
2999.57	0.007725
3009.22	0.009015
3018.86	0.013495
3028.51	0.014135
3038.15	0.010145
3047.8	0.008695
3057.44	0.010955
3067.09	0.014155
3076.73	0.013235
3086.38	0.007515
3096.02	0.004065
3105.67	0.002995
3115.31	0.002095
3124.95	0.001465
3134.6	0.0009075
3144.24	0.0008381
3153.89	0.0007529
3163.53	0.0004441
3173.18	0.00029619
3182.82	0.000260527
3192.47	0.0004734
3202.11	0.0003962
3211.76	0.00024591
3221.4	0.00029056
3231.05	0.000255126
3240.69	0.0001864
3250.34	0.000108
3259.98	9.3e-05
3269.63	0.000163
3279.27	9.4e-05
3288.92	0.00029235
3298.56	9.5e-05
3308.21	0.0004998
3317.85	0.00028559
3327.49	0.000109
3337.14	0.0004111
3346.78	0.0002256
3356.43	0.00033395
3366.07	0.00030833
3375.72	0.00035241
3385.36	0.0003861
3395.01	0.0004355
3404.65	0.0002141
3414.3	0.0002225
3423.94	0.0002331
3433.59	0.0005515
3443.23	0.000124
3452.88	0.00035017
3462.52	0.0004713
3472.17	0.0003982
3481.81	0.000417
3491.46	0.0007043
3501.1	0.0007734
3510.75	0.0011355
3520.39	0.001425
3530.04	0.001995
3539.68	0.002365
3549.32	0.003365
3558.97	0.007055
3568.61	0.032585
3578.26	0.037475
3587.9	0.008945
3597.55	0.002995
3607.19	0.002105
3616.84	0.001505
3626.48	0.0010181
3636.13	0.0006848
3645.77	0.0006599
3655.42	0.0005748
3665.06	0.00033098
3674.71	0.000403
3684.35	0.0003782
3694	0.0002297
3703.64	0.0004631
3713.29	0.00030762
3722.93	0.0001877
3732.58	0.0004753
3742.22	0.0002279
3751.86	0.0003927
3761.51	0.0004666
3771.15	0.0004007
3780.8	0.00030049
3790.44	0.0003412
3800.09	0.00026692
3809.73	0.000389
3819.38	0.000104
3829.02	0.0003865
3838.67	0.0004206
3848.31	0.0003676
3857.96	0.000406
3867.6	0.0005881
3877.25	0.000654
3886.89	0.0005282
3896.54	0.0004729
3906.18	0.0003818
3915.83	0.0005617
3925.47	0.0003855
3935.12	0.00034273
3944.76	0.0004852
3954.41	0.00033827
3964.05	0.0003685
3973.69	0.0005039
3983.34	0.0005192
3992.98	0.0005521
