Infrared Spectrum: Benzoic acid, 2-(dimethylamino) ethyl ester
Formula: C11 H15 N O2
CAS: 2208-05-1
State: SOLUTION (10% CCl4 FOR 3800-1330, 10% CS2 FOR 1330-400 CM^-^1) VS SOLVENT
Class: COBLENTZ III
Instrument: DOW KBr FOREPRISM-GRATING
Instrument parameters: BLAZED AT 3.5, 12.0, 20.0 MICRON AND CHANGED AT 5.0, 7.5, 14.9 MICRON
Sampling: TRANSMISSION
Path length: 0.010 CM, 0.011 CM
Resolution: 2
Origin: DOW CHEMICAL COMPANY
1/CM	TRANSMITTANCE
3800	0.875
3791	0.8741
3782	0.8732
3773	0.8728
3764	0.8727
3755	0.8728
3746	0.873
3737	0.8745
3728	0.8758
3719	0.8751
3710	0.8736
3701	0.8711
3692	0.8685
3683	0.8637
3674	0.8546
3665	0.8524
3656	0.8554
3647	0.8571
3638	0.8588
3629	0.859
3620	0.8593
3611	0.8584
3602	0.857
3593	0.8554
3584	0.8528
3575	0.8471
3566	0.8468
3557	0.8498
3548	0.8491
3539	0.8495
3530	0.8497
3521	0.8488
3512	0.8475
3503	0.8468
3494	0.8464
3485	0.8484
3476	0.8543
3467	0.8642
3458	0.8738
3449	0.8786
3440	0.8763
3431	0.863
3422	0.8511
3413	0.8397
3404	0.8431
3395	0.8452
3386	0.8457
3377	0.8467
3368	0.8498
3359	0.8545
3350	0.8599
3341	0.8658
3332	0.8721
3323	0.8753
3314	0.8756
3305	0.8753
3296	0.8751
3287	0.8699
3278	0.8604
3269	0.8552
3260	0.8511
3251	0.8475
3242	0.8442
3233	0.8411
3224	0.8387
3215	0.8361
3206	0.8327
3197	0.8304
3188	0.8285
3179	0.8268
3170	0.8209
3161	0.8151
3152	0.8143
3143	0.818
3134	0.82
3125	0.8204
3116	0.82
3107	0.8135
3098	0.7886
3089	0.7282
3080	0.7392
3071	0.7121
3062	0.6398
3053	0.6675
3044	0.7375
3035	0.7203
3026	0.6918
3017	0.7467
3008	0.7515
2999	0.6371
2990	0.4958
2981	0.3546
2972	0.2672
2963	0.2946
2954	0.2978
2945	0.2396
2936	0.3048
2927	0.3924
2918	0.4802
2909	0.5156
2900	0.506
2891	0.4933
2882	0.4907
2873	0.5055
2864	0.457
2855	0.4175
2846	0.4508
2837	0.523
2828	0.421
2819	0.1839
2810	0.2954
2801	0.3623
2792	0.3803
2783	0.2885
2774	0.1798
2765	0.1542
2756	0.3157
2747	0.4784
2738	0.5457
2729	0.5933
2720	0.6084
2711	0.6014
2702	0.6775
2693	0.7324
2684	0.7614
2675	0.7757
2666	0.7858
2657	0.7932
2648	0.7975
2639	0.7971
2630	0.7961
2621	0.8046
2612	0.8094
2603	0.8181
2594	0.8184
2585	0.8154
2576	0.816
2567	0.8197
2558	0.821
2549	0.8209
2540	0.8187
2531	0.8165
2522	0.8154
2513	0.8141
2504	0.8136
2495	0.8131
2486	0.8141
2477	0.8157
2468	0.8195
2459	0.823
2450	0.8258
2441	0.8286
2432	0.8302
2423	0.8313
2414	0.8325
2405	0.8325
2396	0.8317
2387	0.8303
2378	0.8288
2369	0.8286
2360	0.8299
2351	0.8324
2342	0.8408
2333	0.8511
2324	0.8545
2315	0.8577
2306	0.8561
2297	0.8518
2288	0.8471
2279	0.8425
2270	0.8396
2261	0.8391
2252	0.8392
2243	0.837
2234	0.834
2225	0.8308
2216	0.8291
2207	0.8335
2198	0.8355
2189	0.8374
2180	0.8395
2171	0.8413
2162	0.843
2153	0.8432
2144	0.8431
2135	0.8421
2126	0.8399
2117	0.8362
2108	0.8314
2099	0.8271
2090	0.8241
2081	0.8254
2072	0.8278
2063	0.8299
2054	0.8313
2045	0.832
2036	0.8315
2027	0.8302
2018	0.8298
2009	0.8315
2000	0.8378
1991	0.8267
1982	0.8075
1973	0.8021
1964	0.7687
1955	0.8021
1946	0.8085
1937	0.8128
1928	0.8062
1919	0.7999
1910	0.7893
1901	0.81
1892	0.8263
1883	0.8291
1874	0.8314
1865	0.8337
1856	0.8355
1847	0.8355
1838	0.8292
1829	0.8188
1820	0.7801
1811	0.7828
1802	0.7996
1793	0.7822
1784	0.7601
1775	0.7488
1766	0.7572
1757	0.7375
1748	0.5648
1739	0.2756
1730	0
1721	0.0003
1712	0.0988
1703	0.4974
1694	0.6021
1685	0.619
1676	0.6832
1667	0.7468
1658	0.7468
1649	0.7317
1640	0.7354
1631	0.7765
1622	0.7784
1613	0.7569
1604	0.4242
1595	0.744
1586	0.5754
1577	0.7604
1568	0.795
1559	0.8021
1550	0.8069
1541	0.819
1532	0.8132
1523	0.7991
1514	0.7788
1505	0.77
1496	0.7341
1487	0.6776
1478	0.6019
1469	0.271
1460	0.2242
1451	0.0866
1442	0.4565
1433	0.6594
1424	0.7172
1415	0.7312
1406	0.6951
1397	0.5037
1388	0.6047
1379	0.6755
1370	0.4848
1361	0.6401
1352	0.7058
1343	0.5558
1334	0.4748
1325	0.5681
1316	0.1446
1307	0.4092
1298	0.35
1289	0.1658
1280	0.0001
1271	0
1262	0.0204
1253	0.1346
1244	0.1804
1235	0.4954
1226	0.6136
1217	0.668
1208	0.6637
1199	0.6252
1190	0.6107
1181	0.617
1172	0.2795
1163	0.5559
1154	0.4248
1145	0.5578
1136	0.5444
1127	0.33
1118	0.0001
1109	0.0144
1100	0.1582
1091	0.3205
1082	0.4148
1073	0.4483
1064	0.2158
1055	0.4016
1046	0.4424
1037	0.3959
1028	0.1854
1019	0.5243
1010	0.6104
1001	0.6793
992	0.7153
983	0.6974
974	0.5875
965	0.5839
956	0.4869
947	0.622
938	0.7491
929	0.7265
920	0.8271
911	0.8443
902	0.8512
893	0.8575
884	0.8415
875	0.7941
866	0.7581
857	0.7496
848	0.7465
839	0.7156
830	0.6534
821	0.7614
812	0.8146
803	0.7825
794	0.814
785	0.7458
776	0.6383
767	0.7607
758	0.8261
749	0.8485
740	0.8501
731	0.8156
722	0.6934
713	0.0351
704	0.1814
695	0.6336
686	0.4644
677	0.7268
668	0.7506
659	0.8691
650	0.8612
641	0.8847
632	0.8946
623	0.8952
614	0.8868
605	0.8848
596	0.889
587	0.8902
578	0.8853
569	0.8825
560	0.8666
551	0.8432
542	0.8243
533	0.7891
524	0.7964
515	0.8377
506	0.8557
497	0.8573
488	0.8448
479	0.8378
470	0.848
461	0.8511
452	0.8412
443	0.8411
434	0.8494
425	0.8554
416	0.8614
407	0.8643
398	0.8641
389	0.8642
