Infrared Spectrum: 4-Carbomethoxytetrahydro-3-thiophenone
Formula: C 6 H 8 O 3 S
CAS: 22097-90-1
State: gas
Origin: EPA-IR VAPOR PHASE LIBRARY
1/CM	ABSORBANCE
549.8	0.00041756
559.445	0.00041911
569.09	0.0008741
578.734	0.0008899
588.379	0.0010312
598.024	0.0009661
607.669	0.0007535
617.313	0.0008869
626.958	0.0006723
636.603	0.0007817
646.248	0.00121
655.893	0.000951
665.537	0.0012066
675.182	0.001624
684.827	0.001324
694.472	0.0012976
704.116	0.001744
713.761	0.001594
723.406	0.0010392
733.051	0.0009598
742.695	0.0010399
752.34	0.0010195
761.985	0.0012884
771.63	0.0012496
781.275	0.0011429
790.919	0.001444
800.564	0.001564
810.209	0.002254
819.854	0.002624
829.498	0.002704
839.143	0.002404
848.788	0.002164
858.433	0.002024
868.078	0.002184
877.722	0.002234
887.367	0.002554
897.012	0.002434
906.657	0.001924
916.301	0.001414
925.946	0.0012838
935.591	0.0012264
945.236	0.001394
954.88	0.00132
964.525	0.001604
974.17	0.002644
983.815	0.003684
993.46	0.004624
1003.1	0.006734
1012.75	0.009704
1022.39	0.010084
1032.04	0.007544
1041.68	0.004704
1051.33	0.003504
1060.97	0.002614
1070.62	0.002164
1080.26	0.002634
1089.91	0.003554
1099.55	0.005874
1109.2	0.010344
1118.84	0.017294
1128.49	0.025874
1138.13	0.030134
1147.78	0.031364
1157.42	0.029814
1167.07	0.027014
1176.71	0.023884
1186.36	0.021544
1196	0.022064
1205.64	0.023374
1215.29	0.024454
1224.93	0.024794
1234.58	0.025654
1244.22	0.028334
1253.87	0.028994
1263.51	0.028824
1273.16	0.030324
1282.8	0.028234
1292.45	0.021554
1302.09	0.014554
1311.74	0.009614
1321.38	0.007844
1331.03	0.008134
1340.67	0.009404
1350.32	0.010644
1359.96	0.009674
1369.61	0.005784
1379.25	0.003494
1388.9	0.003054
1398.54	0.003614
1408.18	0.004944
1417.83	0.006184
1427.47	0.008364
1437.12	0.014094
1446.76	0.010794
1456.41	0.005464
1466.05	0.003694
1475.7	0.002904
1485.34	0.002174
1494.99	0.001784
1504.63	0.001564
1514.28	0.0013151
1523.92	0.0013084
1533.57	0.001374
1543.21	0.0013168
1552.86	0.001514
1562.5	0.001374
1572.15	0.001334
1581.79	0.0011873
1591.44	0.0010504
1601.08	0.0010116
1610.73	0.000883
1620.37	0.000826
1630.01	0.0008889
1639.66	0.0008949
1649.3	0.0010261
1658.95	0.0010192
1668.59	0.0013015
1678.24	0.001484
1687.88	0.002084
1697.53	0.002934
1707.17	0.004474
1716.82	0.007444
1726.46	0.012614
1736.11	0.022584
1745.75	0.039224
1755.4	0.057474
1765.04	0.055804
1774.69	0.034414
1784.33	0.018044
1793.98	0.008514
1803.62	0.004184
1813.27	0.002374
1822.91	0.001564
1832.55	0.0012265
1842.2	0.0010563
1851.84	0.0009229
1861.49	0.0008204
1871.13	0.0007787
1880.78	0.0006979
1890.42	0.0006968
1900.07	0.0005974
1909.71	0.0006603
1919.36	0.0007546
1929	0.0006517
1938.65	0.0007856
1948.29	0.0008279
1957.94	0.0009414
1967.58	0.0009805
1977.23	0.0009573
1986.87	0.0009171
1996.52	0.0009452
2006.16	0.0010059
2015.81	0.001064
2025.45	0.0010168
2035.1	0.0010905
2044.74	0.0009424
2054.38	0.000869
2064.03	0.0007721
2073.67	0.0007963
2083.32	0.0007695
2092.96	0.0007132
2102.61	0.0006712
2112.25	0.0006536
2121.9	0.00071
2131.54	0.0005548
2141.19	0.0006158
2150.83	0.000509
2160.48	0.0005576
2170.12	0.0005099
2179.77	0.0004798
2189.41	0.0004655
2199.06	0.0004273
2208.7	0.0003032
2218.35	0.00040526
2227.99	0.00041328
2237.64	0.00037124
2247.28	0.0004301
2256.92	0.00040317
2266.57	0.00036173
2276.21	0.0003096
2285.86	0.00037842
2295.5	0.0004391
2305.15	0.00038454
2314.79	0.00041692
2324.44	0.00037444
2334.08	0.00038874
2343.73	0.00041227
2353.37	0.00038111
2363.02	0.00038331
2372.66	0.000333184
2382.31	0.00039138
2391.95	0.00036237
2401.6	0.00031537
2411.24	0.0005207
2420.89	0.000479
2430.53	0.00037103
2440.18	0.0002975
2449.82	0.00034072
2459.47	0.00032214
2469.11	0.00032274
2478.75	0.000299
2488.4	0.000308
2498.04	0.0002869
2507.69	0.0002277
2517.33	0.0002738
2526.98	0.00036824
2536.62	0.0003043
2546.27	0.000212
2555.91	0.000285
2565.56	0.00035008
2575.2	0.0003471
2584.85	0.00038797
2594.49	0.00035293
2604.14	0.00033528
2613.78	0.0002734
2623.43	0.000436
2633.07	0.00032117
2642.72	0.00045
2652.36	0.0002939
2662.01	0.000332352
2671.65	0.00021
2681.29	0.0002293
2690.94	0.00034404
2700.58	0.000146
2710.23	0.0002822
2719.87	0.00039328
2729.52	0.0002543
2739.16	0.000221
2748.81	0.00037687
2758.45	0.0003007
2768.1	0.00037564
2777.74	0.000203
2787.39	0.0004826
2797.03	0.00042109
2806.68	0.0006161
2816.32	0.0005437
2825.97	0.0010861
2835.61	0.001504
2845.26	0.002454
2854.9	0.002654
2864.55	0.001744
2874.19	0.001414
2883.84	0.001634
2893.48	0.002164
2903.12	0.002854
2912.77	0.003504
2922.41	0.004734
2932.06	0.005864
2941.7	0.007404
2951.35	0.010774
2960.99	0.015314
2970.64	0.009604
2980.28	0.005374
2989.93	0.004494
2999.57	0.004714
3009.22	0.004224
3018.86	0.003744
3028.51	0.003244
3038.15	0.002834
3047.8	0.002184
3057.44	0.001614
3067.09	0.0013063
3076.73	0.0012684
3086.38	0.0011041
3096.02	0.0011002
3105.67	0.0009216
3115.31	0.0008752
3124.95	0.000746
3134.6	0.0004408
3144.24	0.000509
3153.89	0.00038915
3163.53	0.0005616
3173.18	0.00039566
3182.82	0.0005331
3192.47	0.0003013
3202.11	0.00036978
3211.76	0.0002626
3221.4	0.0004799
3231.05	0.00036855
3240.69	0.0003196
3250.34	0.0002443
3259.98	0.0002648
3269.63	0.0002429
3279.27	0.0002
3288.92	0.0002704
3298.56	0.00034982
3308.21	0.000155
3317.85	9.5e-05
3327.49	0.000142
3337.14	0.0002421
3346.78	0.00041776
3356.43	0.0002728
3366.07	0.000219
3375.72	0.000124
3385.36	0.000135
3395.01	0.00040946
3404.65	0.0002947
3414.3	9.5e-05
3423.94	0.000141
3433.59	0.0003016
3443.23	0.000148
3452.88	0.000207
3462.52	0.0005205
3472.17	0.00036517
3481.81	0.0006519
3491.46	0.000674
3501.1	0.0006548
3510.75	0.0007764
3520.39	0.0007363
3530.04	0.0005337
3539.68	0.0005085
3549.32	0.00034332
3558.97	0.000161
3568.61	0.000302
3578.26	0.0002766
3587.9	0.00036179
3597.55	0.0002362
3607.19	0.00015
3616.84	0.0003056
3626.48	0.0004305
3636.13	0.000253
3645.77	0.0002391
3655.42	0.0005673
3665.06	0.0002919
3674.71	0.000202
3684.35	0.0004667
3694	0.000199
3703.64	5.6e-05
3713.29	0.0002915
3722.93	0.00039018
3732.58	0.0003091
3742.22	0.00042187
3751.86	0.0002384
3761.51	0.000198
3771.15	0.000133
3780.8	0.0002719
3790.44	0.000325865
3800.09	0.0002892
3809.73	0.000153
3819.38	8.5e-05
3829.02	0.0004286
3838.67	0.00042375
3848.31	6.8e-05
3857.96	0.0002303
3867.6	0.0004663
3877.25	0.0002392
3886.89	0.000208
3896.54	0.000181
3906.18	0.00017
3915.83	0.0004396
3925.47	0.0004374
3935.12	0.0002821
3944.76	0.00016
3954.41	0.00033738
3964.05	0.00031851
3973.69	0.000332523
3983.34	0.00021
3992.98	0.0004477
