Infrared Spectrum: 4-PYRIMIDINOL, 6-AMINO-2-METHYL-5-NITROSO-
Formula: C5 H6 N4 O2
CAS: 2209-72-5
State: SOLID (SPLIT MULL), FLUOROLUBE FOR 3800-1330 CM^-^1, NUJOL FOR 1330-450 CM^-^1
Class: COBLENTZ III
Instrument: DOW KBr FOREPRISM-GRATING
Instrument parameters: BLAZED AT 3.5, 12.0, 20.0 MICRON AND CHANGED AT 5.0, 7.5, 14.9 MICRON
Sampling: TRANSMISSION
Resolution: 2
Origin: DOW CHEMICAL COMPANY
1/CM	TRANSMITTANCE
457	0.8703
466	0.8634
475	0.8473
484	0.8148
493	0.7445
502	0.8233
511	0.8164
520	0.8089
529	0.8068
538	0.7584
547	0.6728
556	0.6437
565	0.6074
574	0.873
583	0.8799
592	0.8624
601	0.8728
610	0.8231
619	0.8734
628	0.7149
637	0.8154
646	0.8386
655	0.8088
664	0.6557
673	0.5034
682	0.4822
691	0.6769
700	0.6515
709	0.5737
718	0.4315
727	0.343
736	0.28
745	0.2579
754	0.349
763	0.5184
772	0.6465
781	0.624
790	0.3152
799	0.5528
808	0.525
817	0.7442
826	0.7208
835	0.6484
844	0.5865
853	0.4997
862	0.51
871	0.6007
880	0.6341
889	0.6571
898	0.6691
907	0.6567
916	0.6876
925	0.6851
934	0.6575
943	0.6303
952	0.5978
961	0.5435
970	0.4395
979	0.33
988	0.3503
997	0.5159
1006	0.5846
1015	0.5696
1024	0.4466
1033	0.3887
1042	0.4555
1051	0.5357
1060	0.4677
1069	0.3477
1078	0.2091
1087	0.1877
1096	0.3153
1105	0.4841
1114	0.4643
1123	0.3516
1132	0.258
1141	0.2705
1150	0.5345
1159	0.5718
1168	0.4951
1177	0.3216
1186	0.1781
1195	0.2591
1204	0.385
1213	0.4937
1222	0.4998
1231	0.4892
1240	0.4295
1249	0.3359
1258	0.3178
1267	0.1734
1276	0.0699
1285	0.1794
1294	0.1836
1303	0.2667
1312	0.4102
1321	0.373
1330	0.2984
1339	0.1704
1348	0.3034
1357	0.3699
1366	0.4512
1375	0.4531
1384	0.4708
1393	0.4599
1402	0.4303
1411	0.3528
1420	0.3007
1429	0.2578
1438	0.2287
1447	0.1525
1456	0.0862
1465	0.1015
1474	0.1953
1483	0.2932
1492	0.3121
1501	0.354
1510	0.3314
1519	0.2472
1528	0.1854
1537	0.1979
1546	0.2888
1555	0.2843
1564	0.233
1573	0.1609
1582	0.1102
1591	0.091
1600	0.0867
1609	0.1126
1618	0.1188
1627	0.1196
1636	0.1291
1645	0.1284
1654	0.1335
1663	0.1473
1672	0.1606
1681	0.1286
1690	0.0964
1699	0.1152
1708	0.1954
1717	0.2781
1726	0.4559
1735	0.7256
1744	0.7886
1753	0.8286
1762	0.8436
1771	0.8623
1780	0.8696
1789	0.8767
1798	0.88
1807	0.8748
1816	0.8645
1825	0.857
1834	0.8566
1843	0.8635
1852	0.8621
1861	0.8549
1870	0.8544
1879	0.8457
1888	0.8471
1897	0.8398
1906	0.8305
1915	0.8307
1924	0.8275
1933	0.82
1942	0.8111
1951	0.804
1960	0.7986
1969	0.7944
1978	0.7892
1987	0.7825
1996	0.7737
2005	0.7911
2014	0.7886
2023	0.786
2032	0.7826
2041	0.7761
2050	0.7668
2059	0.76
2068	0.7536
2077	0.7469
2086	0.7401
2095	0.7364
2104	0.7348
2113	0.7289
2122	0.7211
2131	0.7147
2140	0.7086
2149	0.7025
2158	0.6961
2167	0.6899
2176	0.6835
2185	0.6774
2194	0.6712
2203	0.6651
2212	0.6592
2221	0.6531
2230	0.6451
2239	0.6367
2248	0.628
2257	0.6188
2266	0.6101
2275	0.606
2284	0.6041
2293	0.6016
2302	0.599
2311	0.596
2320	0.5918
2329	0.5877
2338	0.5844
2347	0.5812
2356	0.5773
2365	0.5728
2374	0.5682
2383	0.5631
2392	0.5581
2401	0.5532
2410	0.5473
2419	0.5467
2428	0.5458
2437	0.541
2446	0.5362
2455	0.5307
2464	0.5245
2473	0.5185
2482	0.5125
2491	0.5045
2500	0.4984
2509	0.4924
2518	0.4865
2527	0.4804
2536	0.4745
2545	0.4684
2554	0.4621
2563	0.4556
2572	0.4492
2581	0.4427
2590	0.4362
2599	0.4295
2608	0.4229
2617	0.4162
2626	0.4096
2635	0.4029
2644	0.3962
2653	0.3895
2662	0.3829
2671	0.376
2680	0.3695
2689	0.3603
2698	0.3504
2707	0.3405
2716	0.3299
2725	0.3192
2734	0.3083
2743	0.2961
2752	0.2852
2761	0.2752
2770	0.2672
2779	0.2679
2788	0.2721
2797	0.2684
2806	0.259
2815	0.2437
2824	0.2341
2833	0.2272
2842	0.2203
2851	0.2132
2860	0.2071
2869	0.2019
2878	0.1973
2887	0.1927
2896	0.1876
2905	0.1815
2914	0.1754
2923	0.1678
2932	0.1616
2941	0.1591
2950	0.1626
2959	0.1689
2968	0.1731
2977	0.1768
2986	0.1814
2995	0.1865
3004	0.1932
3013	0.1931
3022	0.1867
3031	0.1765
3040	0.1691
3049	0.1654
3058	0.1698
3067	0.176
3076	0.1834
3085	0.1924
3094	0.2002
3103	0.2088
3112	0.2179
3121	0.222
3130	0.2233
3139	0.2245
3148	0.2255
3157	0.2255
3166	0.2243
3175	0.2194
3184	0.2139
3193	0.216
3202	0.2338
3211	0.2505
3220	0.2525
3229	0.2457
3238	0.2339
3247	0.2119
3256	0.1889
3265	0.1712
3274	0.1762
3283	0.2151
3292	0.256
3301	0.2759
3310	0.2914
3319	0.3249
3328	0.3841
3337	0.4079
3346	0.4234
3355	0.4234
3364	0.4188
3373	0.4116
3382	0.4056
3391	0.4059
3400	0.4094
3409	0.414
3418	0.4132
3427	0.407
3436	0.3995
3445	0.3939
3454	0.3949
3463	0.3987
3472	0.4066
3481	0.4153
3490	0.4242
3499	0.433
3508	0.4415
3517	0.4481
3526	0.4543
3535	0.4587
3544	0.4627
3553	0.4727
3562	0.4701
3571	0.4707
3580	0.4765
3589	0.477
3598	0.481
3607	0.4805
3616	0.4779
3625	0.4796
3634	0.4819
3643	0.4776
3652	0.4746
3661	0.474
3670	0.468
3679	0.4625
3688	0.4594
3697	0.4612
3706	0.4581
3715	0.4545
3724	0.4495
3733	0.4442
3742	0.4388
3751	0.4332
3760	0.4275
3769	0.424
3778	0.4238
3787	0.4222
3796	0.4166
