Infrared Spectrum: ACRYLAMIDE, N-ISOPROPYL-
Formula: C6 H11 N O
CAS: 2210-25-5
State: SOLID (PELLET)
Class: COBLENTZ
Instrument: Not specified, most likely a prism, grating, or hybrid spectrometer.
Sampling: TRANSMISSION
Resolution: 4
Origin: TENNESSEE EASTMAN COMPANY, RESEARCH LABORATORIES
MICROMETERS	TRANSMITTANCE
2.02	0.788
2.05988	0.777
2.09975	0.77
2.13963	0.77
2.17951	0.768
2.21939	0.757
2.25926	0.748
2.29914	0.742
2.33902	0.74
2.37889	0.738
2.41877	0.737
2.45865	0.735
2.49853	0.735
2.5384	0.737
2.57828	0.74
2.61816	0.74
2.65803	0.742
2.69791	0.742
2.73779	0.732
2.77767	0.697
2.81754	0.645
2.85742	0.594
2.8973	0.55
2.93717	0.52
2.97705	0.482
3.01693	0.259
3.05681	0.031
3.09668	0.081
3.13656	0.352
3.17644	0.474
3.21631	0.557
3.25619	0.425
3.29607	0.449
3.33595	0.569
3.37582	0.209
3.4157	0.419
3.45558	0.539
3.49545	0.589
3.53533	0.71
3.57521	0.692
3.61509	0.707
3.65496	0.765
3.69484	0.76
3.73472	0.755
3.77459	0.782
3.81447	0.798
3.85435	0.8
3.89423	0.805
3.9341	0.805
3.97398	0.808
4.01386	0.811
4.05373	0.811
4.09361	0.813
4.13349	0.818
4.17337	0.82
4.21324	0.82
4.25312	0.813
4.293	0.811
4.33287	0.816
4.37275	0.826
4.41263	0.828
4.45251	0.833
4.49238	0.833
4.53226	0.831
4.57214	0.835
4.61201	0.835
4.65189	0.831
4.69177	0.835
4.73165	0.836
4.77152	0.836
4.8114	0.835
4.85128	0.835
4.89115	0.833
4.93103	0.833
4.97091	0.833
5.01079	0.836
5.05066	0.833
5.09054	0.825
5.13042	0.815
5.17029	0.758
5.21017	0.768
5.25005	0.818
5.28993	0.82
5.3298	0.825
5.36968	0.828
5.40956	0.828
5.44943	0.828
5.48931	0.813
5.52919	0.811
5.56907	0.805
5.60894	0.8
5.64882	0.775
5.6887	0.76
5.72857	0.742
5.76845	0.722
5.80833	0.703
5.84821	0.683
5.88808	0.627
5.92796	0.52
5.96784	0.342
6.00771	0.064
6.04759	0.016
6.08747	0.024
6.12735	0.074
6.16722	0.029
6.2071	0.019
6.24698	0.138
6.28685	0.342
6.32673	0.264
6.36661	0.136
6.40649	0.039
6.44636	0.009
6.48624	0.024
6.52612	0.124
6.56599	0.247
6.60587	0.364
6.64575	0.465
6.68563	0.499
6.7255	0.495
6.76538	0.382
6.80526	0.179
6.84513	0.144
6.88501	0.171
6.92489	0.312
6.96477	0.337
7.00464	0.256
7.04452	0.141
7.0844	0.109
7.12427	0.207
7.16415	0.332
7.20403	0.304
7.24391	0.437
7.28378	0.452
7.32366	0.279
7.36354	0.53
7.40341	0.594
7.44329	0.612
7.48317	0.615
7.52305	0.572
7.56292	0.452
7.6028	0.64
7.64268	0.485
7.68255	0.5
7.72243	0.753
7.76231	0.78
7.80219	0.772
7.84206	0.772
7.88194	0.755
7.92182	0.663
7.96169	0.457
8.00157	0.088
8.04145	0.036
8.08133	0.307
8.1212	0.603
8.16108	0.717
8.20096	0.768
8.24083	0.801
8.28071	0.82
8.32059	0.835
8.36047	0.836
8.40034	0.826
8.44022	0.717
8.4801	0.429
8.51997	0.221
8.55985	0.252
8.59973	0.299
8.63961	0.41
8.67948	0.59
8.71936	0.655
8.75924	0.672
8.79911	0.484
8.83899	0.376
8.87887	0.627
8.91875	0.752
8.95862	0.795
8.9985	0.825
9.03838	0.838
9.07825	0.845
9.11813	0.846
9.15801	0.846
9.19789	0.843
9.23776	0.815
9.27764	0.757
9.31752	0.564
9.35739	0.48
9.39727	0.499
9.43715	0.71
9.47703	0.793
9.5169	0.82
9.55678	0.831
9.59666	0.838
9.63653	0.845
9.67641	0.845
9.71629	0.846
9.75617	0.846
9.79604	0.846
9.83592	0.843
9.8758	0.83
9.91567	0.801
9.95555	0.72
9.99543	0.51
10.0353	0.251
10.0752	0.212
10.1151	0.211
10.1549	0.326
10.1948	0.422
10.2347	0.494
10.2746	0.559
10.3144	0.296
10.3543	0.151
10.3942	0.158
10.4341	0.522
10.474	0.655
10.5138	0.727
10.5537	0.778
10.5936	0.821
10.6335	0.85
10.6733	0.853
10.7132	0.85
10.7531	0.818
10.793	0.75
10.8328	0.693
10.8727	0.549
10.9126	0.42
10.9525	0.524
10.9924	0.657
11.0322	0.683
11.0721	0.723
11.112	0.78
11.1519	0.801
11.1917	0.811
11.2316	0.818
11.2715	0.821
11.3114	0.825
11.3513	0.826
11.3911	0.828
11.431	0.83
11.4709	0.83
11.5108	0.83
11.5506	0.83
11.5905	0.83
11.6304	0.826
11.6703	0.818
11.7101	0.8
11.75	0.728
11.7899	0.622
11.8298	0.665
11.8697	0.762
11.9095	0.788
11.9494	0.801
11.9893	0.806
12.0292	0.806
12.069	0.806
12.1089	0.805
12.1488	0.8
12.1887	0.79
12.2285	0.772
12.2684	0.732
12.3083	0.579
12.3482	0.341
12.3881	0.392
12.4279	0.574
12.4678	0.66
12.5077	0.702
12.5476	0.727
12.5874	0.73
12.6273	0.73
12.6672	0.732
12.7071	0.73
12.747	0.727
12.7868	0.718
12.8267	0.71
12.8666	0.703
12.9065	0.688
12.9463	0.67
12.9862	0.67
13.0261	0.66
13.066	0.635
13.1058	0.628
13.1457	0.613
13.1856	0.602
13.2255	0.585
13.2654	0.569
13.3052	0.552
13.3451	0.532
13.385	0.519
13.4249	0.492
13.4647	0.467
13.5046	0.439
13.5445	0.412
13.5844	0.379
13.6242	0.331
13.6641	0.304
13.704	0.267
13.7439	0.229
13.7838	0.194
13.8236	0.183
13.8635	0.169
13.9034	0.159
13.9433	0.153
13.9831	0.149
14.023	0.151
14.0629	0.158
14.1028	0.179
14.1427	0.202
14.1825	0.231
14.2224	0.264
14.2623	0.291
14.3022	0.319
14.342	0.341
14.3819	0.369
14.4218	0.391
14.4617	0.409
14.5015	0.419
14.5414	0.432
14.5813	0.442
14.6212	0.454
14.6611	0.464
14.7009	0.469
14.7408	0.47
14.7807	0.474
14.8206	0.474
14.8604	0.472
14.9003	0.467
14.9402	0.429
14.9801	0.387
15.0199	0.354
15.0598	0.344
15.0997	0.346
15.1396	0.352
15.1795	0.364
15.2193	0.369
15.2592	0.376
15.2991	0.376
15.339	0.374
15.3788	0.367
15.4187	0.359
15.4586	0.352
15.4985	0.347
15.5384	0.339
15.5782	0.334
15.6181	0.327
15.658	0.319
15.6979	0.311
15.7377	0.301
15.7776	0.296
15.8175	0.286
15.8574	0.277
15.8972	0.271
15.9371	0.262
15.977	0.257
