Infrared Spectrum: 2-Decen-1-ol
Formula: C 10 H 20 O
CAS: 22104-80-9
State: gas
Origin: EPA-IR VAPOR PHASE LIBRARY
1/CM	ABSORBANCE
549.8	0.00292
559.445	0.00217
569.09	0.00199
578.734	0.00225
588.379	0.00198
598.024	0.00242
607.669	0.00266
617.313	0.00247
626.958	0.00337
636.603	0.0031
646.248	0.00306
655.893	0.00266
665.537	0.00254
675.182	0.00271
684.827	0.00284
694.472	0.00343
704.116	0.00499
713.761	0.0068
723.406	0.00811
733.051	0.00734
742.695	0.0061
752.34	0.00574
761.985	0.00535
771.63	0.00517
781.275	0.00514
790.919	0.00483
800.564	0.00493
810.209	0.00427
819.854	0.00437
829.498	0.00445
839.143	0.00503
848.788	0.00533
858.433	0.00567
868.078	0.00716
877.722	0.00745
887.367	0.00937
897.012	0.01084
906.657	0.0127
916.301	0.01528
925.946	0.0194
935.591	0.02529
945.236	0.03447
954.88	0.05242
964.525	0.08117
974.17	0.08563
983.815	0.07589
993.46	0.08075
1003.1	0.08963
1012.75	0.08296
1022.39	0.06106
1032.04	0.04391
1041.68	0.03708
1051.33	0.03451
1060.97	0.03411
1070.62	0.03682
1080.26	0.04085
1089.91	0.03693
1099.55	0.0289
1109.2	0.02161
1118.84	0.01776
1128.49	0.01475
1138.13	0.01311
1147.78	0.0128
1157.42	0.01267
1167.07	0.01361
1176.71	0.01458
1186.36	0.01593
1196	0.01629
1205.64	0.0175
1215.29	0.01737
1224.93	0.0164
1234.58	0.01618
1244.22	0.01558
1253.87	0.01591
1263.51	0.01541
1273.16	0.01594
1282.8	0.0168
1292.45	0.01865
1302.09	0.02027
1311.74	0.02092
1321.38	0.021
1331.03	0.02237
1340.67	0.0263
1350.32	0.03104
1359.96	0.03541
1369.61	0.04254
1379.25	0.05103
1388.9	0.04687
1398.54	0.03269
1408.18	0.02321
1417.83	0.01844
1427.47	0.01751
1437.12	0.02352
1446.76	0.03196
1456.41	0.03789
1466.05	0.03713
1475.7	0.02496
1485.34	0.01371
1494.99	0.00847
1504.63	0.00619
1514.28	0.00485
1523.92	0.0039
1533.57	0.00324
1543.21	0.00309
1552.86	0.00257
1562.5	0.00234
1572.15	0.00235
1581.79	0.00206
1591.44	0.00198
1601.08	0.00192
1610.73	0.00202
1620.37	0.00202
1630.01	0.00237
1639.66	0.00289
1649.3	0.00454
1658.95	0.00796
1668.59	0.00965
1678.24	0.00505
1687.88	0.00288
1697.53	0.00227
1707.17	0.00244
1716.82	0.00233
1726.46	0.00233
1736.11	0.00215
1745.75	0.002
1755.4	0.00206
1765.04	0.00204
1774.69	0.00189
1784.33	0.00171
1793.98	0.00152
1803.62	0.00152
1813.27	0.00129
1822.91	0.00121
1832.55	0.00111
1842.2	0.0013
1851.84	0.00118
1861.49	0.00109
1871.13	0.00106
1880.78	0.00105
1890.42	0.00129
1900.07	0.00132
1909.71	0.00117
1919.36	0.00117
1929	0.00123
1938.65	0.00126
1948.29	0.00142
1957.94	0.00139
1967.58	0.00143
1977.23	0.00162
1986.87	0.00179
1996.52	0.00181
2006.16	0.00168
2015.81	0.00188
2025.45	0.00191
2035.1	0.00179
2044.74	0.00177
2054.38	0.00169
2064.03	0.00158
2073.67	0.00155
2083.32	0.00154
2092.96	0.00142
2102.61	0.0014
2112.25	0.00114
2121.9	0.00116
2131.54	0.00116
2141.19	0.00124
2150.83	0.00137
2160.48	0.00138
2170.12	0.0012
2179.77	0.00117
2189.41	0.00124
2199.06	0.00118
2208.7	0.00126
2218.35	0.00126
2227.99	0.00123
2237.64	0.00126
2247.28	0.0013
2256.92	0.00135
2266.57	0.00139
2276.21	0.00152
2285.86	0.00157
2295.5	0.00159
2305.15	0.00154
2314.79	0.00165
2324.44	0.00156
2334.08	0.00165
2343.73	0.00175
2353.37	0.00183
2363.02	0.00173
2372.66	0.00186
2382.31	0.00189
2391.95	0.00172
2401.6	0.0017
2411.24	0.00169
2420.89	0.00166
2430.53	0.00162
2440.18	0.00164
2449.82	0.00158
2459.47	0.00164
2469.11	0.00158
2478.75	0.00166
2488.4	0.00166
2498.04	0.00182
2507.69	0.00188
2517.33	0.00193
2526.98	0.00216
2536.62	0.00217
2546.27	0.00222
2555.91	0.00233
2565.56	0.00253
2575.2	0.0026
2584.85	0.00278
2594.49	0.00296
2604.14	0.00316
2613.78	0.00328
2623.43	0.00368
2633.07	0.00378
2642.72	0.00423
2652.36	0.00459
2662.01	0.00512
2671.65	0.00568
2681.29	0.00599
2690.94	0.0059
2700.58	0.00579
2710.23	0.0059
2719.87	0.00604
2729.52	0.00688
2739.16	0.00799
2748.81	0.00853
2758.45	0.00893
2768.1	0.00979
2777.74	0.01119
2787.39	0.01302
2797.03	0.01509
2806.68	0.01828
2816.32	0.02329
2825.97	0.03091
2835.61	0.04516
2845.26	0.07648
2854.9	0.13695
2864.55	0.1876
2874.19	0.17889
2883.84	0.15322
2893.48	0.13676
2903.12	0.15709
2912.77	0.21732
2922.41	0.33698
2932.06	0.45028
2941.7	0.38171
2951.35	0.24427
2960.99	0.19861
2970.64	0.17897
2980.28	0.10543
2989.93	0.06508
2999.57	0.04983
3009.22	0.04239
3018.86	0.0379
3028.51	0.03223
3038.15	0.02484
3047.8	0.01818
3057.44	0.01348
3067.09	0.01041
3076.73	0.00867
3086.38	0.0072
3096.02	0.00621
3105.67	0.00549
3115.31	0.00481
3124.95	0.0045
3134.6	0.00396
3144.24	0.00367
3153.89	0.00338
3163.53	0.00309
3173.18	0.00292
3182.82	0.00243
3192.47	0.00239
3202.11	0.00227
3211.76	0.00197
3221.4	0.00165
3231.05	0.00163
3240.69	0.00136
3250.34	0.00111
3259.98	0.0008913
3269.63	0.00104
3279.27	0.00127
3288.92	0.0008462
3298.56	0.00102
3308.21	0.00104
3317.85	0.00117
3327.49	0.0013
3337.14	0.00103
3346.78	0.00136
3356.43	0.00138
3366.07	0.00154
3375.72	0.00135
3385.36	0.00131
3395.01	0.00169
3404.65	0.0015
3414.3	0.00131
3423.94	0.00155
3433.59	0.00152
3443.23	0.00148
3452.88	0.00158
3462.52	0.00168
3472.17	0.00152
3481.81	0.00132
3491.46	0.00162
3501.1	0.00146
3510.75	0.00143
3520.39	0.00128
3530.04	0.00134
3539.68	0.0016
3549.32	0.00142
3558.97	0.00121
3568.61	0.00167
3578.26	0.00159
3587.9	0.00198
3597.55	0.0026
3607.19	0.00326
3616.84	0.00469
3626.48	0.00656
3636.13	0.00954
3645.77	0.01452
3655.42	0.01831
3665.06	0.018
3674.71	0.01336
3684.35	0.00832
3694	0.00536
3703.64	0.00406
3713.29	0.00304
3722.93	0.0027
3732.58	0.00208
3742.22	0.00215
3751.86	0.00225
3761.51	0.00213
3771.15	0.00227
3780.8	0.00212
3790.44	0.00221
3800.09	0.00179
3809.73	0.00202
3819.38	0.00207
3829.02	0.00208
3838.67	0.0022
3848.31	0.00206
3857.96	0.00242
3867.6	0.00248
3877.25	0.00232
3886.89	0.00228
3896.54	0.00201
3906.18	0.00187
3915.83	0.00194
3925.47	0.00153
3935.12	0.00203
3944.76	0.0017
3954.41	0.0019
3964.05	0.00185
3973.69	0.00164
3983.34	0.00172
3992.98	0.00178
