Infrared Spectrum: 2-Nonen-1-ol
Formula: C 9 H 18 O
CAS: 22104-79-6
State: gas
Origin: EPA-IR VAPOR PHASE LIBRARY
1/CM	ABSORBANCE
549.8	0.000582
559.445	0.0003512
569.09	0.0003923
578.734	0.0005402
588.379	0
598.024	0.00030108
607.669	0.00033503
617.313	0.0006542
626.958	0.0004151
636.603	0.0006958
646.248	0.0006175
655.893	0.0005708
665.537	0.0003467
675.182	0.0005148
684.827	0.0004896
694.472	0.0007894
704.116	0.0010276
713.761	0.001252
723.406	0.001662
733.051	0.001542
742.695	0.0012065
752.34	0.001242
761.985	0.0011427
771.63	0.0009611
781.275	0.0010117
790.919	0.0011292
800.564	0.0009638
810.209	0.0011444
819.854	0.0009058
829.498	0.0010781
839.143	0.0010727
848.788	0.001342
858.433	0.001262
868.078	0.001532
877.722	0.001712
887.367	0.001832
897.012	0.002272
906.657	0.002742
916.301	0.003382
925.946	0.004322
935.591	0.005942
945.236	0.008122
954.88	0.012492
964.525	0.018062
974.17	0.019332
983.815	0.017812
993.46	0.019502
1003.1	0.021682
1012.75	0.018142
1022.39	0.013502
1032.04	0.010562
1041.68	0.008962
1051.33	0.008242
1060.97	0.008102
1070.62	0.008392
1080.26	0.009442
1089.91	0.008632
1099.55	0.006602
1109.2	0.005082
1118.84	0.003892
1128.49	0.003622
1138.13	0.003232
1147.78	0.002702
1157.42	0.002812
1167.07	0.002872
1176.71	0.003252
1186.36	0.003402
1196	0.003752
1205.64	0.003682
1215.29	0.003722
1224.93	0.003602
1234.58	0.003522
1244.22	0.003282
1253.87	0.003472
1263.51	0.003472
1273.16	0.003632
1282.8	0.003622
1292.45	0.004012
1302.09	0.004322
1311.74	0.004602
1321.38	0.004632
1331.03	0.004912
1340.67	0.005692
1350.32	0.006692
1359.96	0.007832
1369.61	0.009512
1379.25	0.011512
1388.9	0.010832
1398.54	0.007512
1408.18	0.005282
1417.83	0.004182
1427.47	0.003962
1437.12	0.005052
1446.76	0.006732
1456.41	0.007782
1466.05	0.007672
1475.7	0.005512
1485.34	0.003142
1494.99	0.001872
1504.63	0.001462
1514.28	0.0011374
1523.92	0.0009391
1533.57	0.0007625
1543.21	0.0006862
1552.86	0.0005386
1562.5	0.0004949
1572.15	0.0004595
1581.79	0.0004848
1591.44	0.0004848
1601.08	0.0004767
1610.73	0.0005239
1620.37	0.0004097
1630.01	0.0005648
1639.66	0.0006996
1649.3	0.0010724
1658.95	0.001912
1668.59	0.002252
1678.24	0.001176
1687.88	0.000652
1697.53	0.0005469
1707.17	0.0005186
1716.82	0.0005539
1726.46	0.0005146
1736.11	0.0004659
1745.75	0.0003764
1755.4	0.0003843
1765.04	0.000408
1774.69	0.0004409
1784.33	0.00031876
1793.98	0.0003956
1803.62	0.00032362
1813.27	0.00030954
1822.91	0.000246921
1832.55	0.00027064
1842.2	0.0003468
1851.84	0.00029136
1861.49	0.000405
1871.13	0.00031137
1880.78	0.00030521
1890.42	0.00029146
1900.07	0.0003537
1909.71	0.0003691
1919.36	0.00027364
1929	0.00032294
1938.65	0.00032738
1948.29	0.0003716
1957.94	0.0004257
1967.58	0.0004279
1977.23	0.0004336
1986.87	0.0004613
1996.52	0.0004672
2006.16	0.000487
2015.81	0.000487
2025.45	0.0004652
2035.1	0.0004007
2044.74	0.0004174
2054.38	0.000419
2064.03	0.0004069
2073.67	0.0003854
2083.32	0.0003581
2092.96	0.000365
2102.61	0.0003546
2112.25	0.00032177
2121.9	0.00030732
2131.54	0.00032891
2141.19	0.00029194
2150.83	0.0004163
2160.48	0.0003103
2170.12	0.00033738
2179.77	0.00033217
2189.41	0.00029496
2199.06	0.0004281
2208.7	0.0003973
2218.35	0.0003852
2227.99	0.0003421
2237.64	0.000348
2247.28	0.0004163
2256.92	0.0003821
2266.57	0.00035
2276.21	0.00033401
2285.86	0.0003743
2295.5	0.000433
2305.15	0.0004519
2314.79	0.0003823
2324.44	0.0004938
2334.08	0.0004503
2343.73	0.0005021
2353.37	0.0006316
2363.02	0.0005306
2372.66	0.0004635
2382.31	0.0004834
2391.95	0.000658
2401.6	0.0004447
2411.24	0.0004653
2420.89	0.0004654
2430.53	0.000418
2440.18	0.0004596
2449.82	0.0004244
2459.47	0.0003789
2469.11	0.0004809
2478.75	0.0004852
2488.4	0.0004616
2498.04	0.0003626
2507.69	0.0005267
2517.33	0.0005263
2526.98	0.0005557
2536.62	0.0005982
2546.27	0.0005702
2555.91	0.0006157
2565.56	0.0007606
2575.2	0.0006103
2584.85	0.0006697
2594.49	0.000698
2604.14	0.0006929
2613.78	0.0008132
2623.43	0.0008045
2633.07	0.0009783
2642.72	0.0008985
2652.36	0.0010549
2662.01	0.0011144
2671.65	0.001231
2681.29	0.001352
2690.94	0.001382
2700.58	0.0012163
2710.23	0.001362
2719.87	0.001402
2729.52	0.001552
2739.16	0.001792
2748.81	0.001962
2758.45	0.001972
2768.1	0.002192
2777.74	0.002452
2787.39	0.002872
2797.03	0.003392
2806.68	0.004052
2816.32	0.004992
2825.97	0.006602
2835.61	0.009422
2845.26	0.015712
2854.9	0.026642
2864.55	0.036812
2874.19	0.037572
2883.84	0.033182
2893.48	0.029242
2903.12	0.032322
2912.77	0.043802
2922.41	0.065412
2932.06	0.085832
2941.7	0.076692
2951.35	0.052302
2960.99	0.043752
2970.64	0.040452
2980.28	0.024922
2989.93	0.014902
2999.57	0.011382
3009.22	0.009732
3018.86	0.008662
3028.51	0.007572
3038.15	0.005832
3047.8	0.004112
3057.44	0.002942
3067.09	0.002482
3076.73	0.002032
3086.38	0.001812
3096.02	0.001472
3105.67	0.001362
3115.31	0.0011764
3124.95	0.0010845
3134.6	0.0012189
3144.24	0.0009509
3153.89	0.0008167
3163.53	0.0007794
3173.18	0.0007575
3182.82	0.0007805
3192.47	0.0007719
3202.11	0.000583
3211.76	0.0005739
3221.4	0.000585
3231.05	0.00031738
3240.69	0.00031235
3250.34	0.000362
3259.98	0.00031354
3269.63	0.00026416
3279.27	0.0003568
3288.92	0.0004164
3298.56	0.0004594
3308.21	0.00029652
3317.85	0.0001951
3327.49	0.000496
3337.14	0.0003628
3346.78	0.0003963
3356.43	0.0002041
3366.07	0.0004206
3375.72	0.00031375
3385.36	0.0003828
3395.01	0.0005432
3404.65	0.0005797
3414.3	0.00028695
3423.94	0.0004369
3433.59	0.00027593
3443.23	0.00025234
3452.88	0.0004019
3462.52	0.0005316
3472.17	0.0004551
3481.81	0.0003696
3491.46	0.0003571
3501.1	0.0003882
3510.75	0.0004215
3520.39	0.0003455
3530.04	0.000249192
3539.68	0.0003835
3549.32	0.0003613
3558.97	0.00029072
3568.61	0.000251713
3578.26	0.00031421
3587.9	0.0005461
3597.55	0.0004723
3607.19	0.0007633
3616.84	0.0010074
3626.48	0.001452
3636.13	0.002212
3645.77	0.003242
3655.42	0.004172
3665.06	0.004292
3674.71	0.002952
3684.35	0.001962
3694	0.001342
3703.64	0.0008999
3713.29	0.0008965
3722.93	0.0005806
3732.58	0.0004564
3742.22	0.00031464
3751.86	0.0003766
3761.51	0.0003915
3771.15	0.000567
3780.8	0.00027684
3790.44	0.0005755
3800.09	0.0006554
3809.73	0.0006454
3819.38	0.0005491
3829.02	0.0004265
3838.67	0.0005813
3848.31	0.0003987
3857.96	0.0002948
3867.6	0.00031627
3877.25	0.0004865
3886.89	0.0006685
3896.54	0.00030843
3906.18	0.0003626
3915.83	0.0005626
3925.47	0.0002104
3935.12	0.0003926
3944.76	0.0004369
3954.41	0.0003805
3964.05	0.0003738
3973.69	0.00033131
3983.34	0.0002089
3992.98	0.0003964
