Infrared Spectrum: TRANS-2-CHLORO-2-BUTENE
Formula: C4 H7 Cl
CAS: 2211-68-9
Class: COBLENTZ
Instrument: Not specified, most likely a prism, grating, or hybrid spectrometer.
Sampling: TRANSMISSION
Path length: 0.0025 CM
Resolution: 4
Origin: W.T. BOLLETER
MICROMETERS	TRANSMITTANCE
14.53	0.674
14.6	0.66
14.67	0.632
14.74	0.566
14.81	0.49
14.88	0.39
14.95	0.321
15.02	0.346
15.09	0.415
15.1601	0.486
15.2301	0.527
15.3001	0.552
15.3701	0.57
15.4401	0.573
15.5101	0.564
15.5801	0.534
15.6501	0.49
15.7201	0.417
15.7901	0.341
15.8601	0.246
15.9301	0.182
16.0001	0.14
16.0701	0.101
16.1401	0.074
16.2101	0.047
16.2801	0.04
16.3502	0.03
16.4202	0.028
16.4902	0.028
16.5602	0.026
16.6302	0.026
16.7002	0.028
16.7702	0.033
16.8402	0.049
16.9102	0.092
16.9802	0.143
17.0502	0.245
17.1202	0.319
17.1902	0.396
17.2602	0.461
17.3302	0.518
17.4002	0.561
17.4703	0.602
17.5403	0.644
17.6103	0.666
17.6803	0.694
17.7503	0.708
17.8203	0.73
17.8903	0.74
17.9603	0.754
18.0303	0.77
18.1003	0.783
18.1703	0.793
18.2403	0.799
18.3103	0.799
18.3803	0.797
18.4503	0.793
18.5203	0.788
18.5903	0.781
18.6604	0.779
18.7304	0.783
18.8004	0.781
18.8704	0.776
18.9404	0.76
19.0104	0.735
19.0804	0.715
19.1504	0.715
19.2204	0.733
19.2904	0.758
19.3604	0.779
19.4304	0.801
19.5004	0.817
19.5704	0.829
19.6404	0.838
19.7104	0.843
19.7804	0.847
19.8505	0.849
19.9205	0.849
19.9905	0.847
20.0605	0.843
20.1305	0.838
20.2005	0.836
20.2705	0.831
20.3405	0.825
20.4105	0.818
20.4805	0.815
20.5505	0.808
20.6205	0.801
20.6905	0.79
20.7605	0.779
20.8305	0.76
20.9005	0.737
20.9705	0.724
21.0406	0.694
21.1106	0.664
21.1806	0.628
21.2506	0.582
21.3206	0.518
21.3906	0.442
21.4606	0.364
21.5306	0.246
21.6006	0.179
21.6706	0.126
21.7406	0.097
21.8106	0.09
21.8806	0.106
21.9506	0.152
22.0206	0.236
22.0906	0.36
22.1606	0.419
22.2307	0.477
22.3007	0.525
22.3707	0.557
22.4407	0.587
22.5107	0.618
22.5807	0.63
22.6507	0.642
22.7207	0.648
22.7907	0.65
22.8607	0.653
22.9307	0.658
23.0007	0.669
23.0707	0.678
23.1407	0.687
23.2107	0.705
23.2807	0.737
23.3508	0.751
23.4208	0.765
23.4908	0.788
23.5608	0.799
23.6308	0.802
23.7008	0.808
23.7708	0.811
23.8408	0.813
23.9108	0.813
23.9808	0.813
24.0508	0.809
24.1208	0.802
24.1908	0.792
24.2608	0.785
24.3308	0.779
24.4008	0.776
24.4708	0.777
24.5409	0.781
24.6109	0.786
24.6809	0.795
24.7509	0.802
24.8209	0.817
24.8909	0.841
24.9609	0.861
25.0309	0.865
25.1009	0.865
25.1709	0.863
25.2409	0.859
25.3109	0.854
25.3809	0.847
25.4509	0.838
25.5209	0.831
25.5909	0.817
25.6609	0.802
25.731	0.79
25.801	0.785
25.871	0.781
25.941	0.777
26.011	0.779
26.081	0.786
26.151	0.792
26.221	0.801
26.291	0.802
26.361	0.802
26.431	0.801
26.501	0.801
26.571	0.801
26.641	0.802
26.711	0.808
26.781	0.82
26.851	0.829
26.9211	0.85
26.9911	0.868
27.0611	0.884
27.1311	0.898
27.2011	0.911
27.2711	0.923
27.3411	0.928
27.4111	0.932
27.4811	0.936
27.5511	0.941
27.6211	0.944
27.6911	0.948
27.7611	0.952
27.8311	0.953
27.9011	0.953
27.9711	0.952
28.0412	0.952
28.1112	0.944
28.1812	0.937
28.2512	0.928
28.3212	0.923
28.3912	0.916
28.4612	0.909
28.5312	0.895
28.6012	0.87
28.6712	0.852
28.7412	0.825
28.8112	0.799
28.8812	0.77
28.9512	0.735
29.0212	0.701
29.0912	0.674
29.1612	0.65
29.2313	0.634
29.3013	0.625
29.3713	0.619
29.4413	0.619
29.5113	0.626
29.5813	0.634
29.6513	0.648
29.7213	0.671
29.7913	0.689
29.8613	0.719
29.9313	0.746
30.0013	0.761
30.0713	0.785
30.1413	0.799
30.2113	0.811
30.2813	0.827
30.3513	0.833
30.4214	0.838
30.4914	0.841
30.5614	0.845
30.6314	0.845
30.7014	0.85
30.7714	0.852
30.8414	0.859
30.9114	0.866
30.9814	0.873
31.0514	0.882
31.1214	0.888
31.1914	0.893
31.2614	0.898
31.3314	0.9
31.4014	0.9
31.4714	0.902
31.5414	0.905
31.6115	0.907
31.6815	0.912
31.7515	0.911
31.8215	0.909
31.8915	0.905
31.9615	0.904
32.0315	0.902
32.1015	0.9
32.1715	0.9
32.2415	0.895
32.3115	0.893
32.3815	0.889
32.4515	0.888
32.5215	0.888
32.5915	0.888
32.6615	0.886
32.7315	0.886
32.8016	0.886
32.8716	0.886
32.9416	0.888
33.0116	0.891
33.0816	0.893
33.1516	0.889
33.2216	0.884
33.2916	0.88
33.3616	0.877
33.4316	0.873
33.5016	0.873
33.5716	0.873
33.6416	0.873
33.7116	0.873
33.7816	0.877
33.8516	0.87
33.9217	0.87
33.9917	0.866
34.0617	0.861
34.1317	0.859
34.2017	0.859
34.2717	0.859
34.3417	0.857
34.4117	0.85
34.4817	0.849
34.5517	0.843
34.6217	0.833
34.6917	0.824
34.7617	0.818
34.8317	0.813
34.9017	0.799
34.9717	0.792
35.0417	0.786
35.1118	0.781
35.1818	0.777
35.2518	0.77
35.3218	0.761
35.3918	0.76
35.4618	0.758
35.5318	0.756
35.6018	0.751
35.6718	0.742
35.7418	0.737
35.8118	0.735
35.8818	0.733
35.9518	0.724
36.0218	0.722
36.0918	0.717
36.1618	0.712
36.2318	0.706
36.3019	0.699
36.3719	0.698
36.4419	0.694
36.5119	0.689
36.5819	0.68
36.6519	0.674
36.7219	0.666
36.7919	0.653
36.8619	0.648
36.9319	0.646
37.0019	0.641
37.0719	0.637
37.1419	0.628
37.2119	0.625
37.2819	0.623
37.3519	0.626
37.4219	0.623
37.492	0.616
37.562	0.605
37.632	0.602
37.702	0.598
37.772	0.593
37.842	0.591
37.912	0.589
37.982	0.586
