Infrared Spectrum: BROMOACETYL CHLORIDE
Formula: C2 H2 Br Cl O
CAS: 22118-09-8
State: SOLUTION (10% CCl4 FOR 3800-1340, 10% CS2 FOR 1340-400 CM^-^1)
Class: COBLENTZ III
Instrument: DOW KBr FOREPRISM-GRATING
Instrument parameters: BLAZED AT 3.5, 12.0, 20.0 MICRON AND CHANGED AT 5.0, 7.5, 14.9 MICRON
Sampling: TRANSMISSION
Path length: 0.011 CM, 0.011 CM
Resolution: 2
Origin: DOW CHEMICAL COMPANY
1/CM	TRANSMITTANCE
384	0.6176
393	0.6133
402	0.6489
411	0.719
420	0.7581
429	0.7574
438	0.7088
447	0.665
456	0.8485
465	0.8752
474	0.8614
483	0.8912
492	0.8985
501	0.8945
510	0.8777
519	0.7844
528	0.7637
537	0.9149
546	0.9264
555	0.9191
564	0.9078
573	0.892
582	0.8694
591	0.8421
600	0.7237
609	0.4183
618	0.3926
627	0.4462
636	0.6943
645	0.5703
654	0.0849
663	0.0653
672	0.5841
681	0.7724
690	0.842
699	0.8385
708	0.7275
717	0.6487
726	0.381
735	0.5295
744	0.851
753	0.9034
762	0.9197
771	0.9171
780	0.9025
789	0.9139
798	0.9346
807	0.9354
816	0.9321
825	0.9263
834	0.9086
843	0.8539
852	0.6764
861	0.7004
870	0.7489
879	0.8071
888	0.8448
897	0.8593
906	0.8545
915	0.8582
924	0.8343
933	0.6504
942	0.3637
951	0.427
960	0.2918
969	0.0564
978	0.448
987	0.6344
996	0.5697
1005	0.3359
1014	0.2653
1023	0.6476
1032	0.7554
1041	0.8025
1050	0.8368
1059	0.8556
1068	0.8745
1077	0.9161
1086	0.9187
1095	0.9085
1104	0.9038
1113	0.9108
1122	0.9074
1131	0.8849
1140	0.8381
1149	0.6547
1158	0.5534
1167	0.6851
1176	0.8018
1185	0.883
1194	0.8871
1203	0.8562
1212	0.809
1221	0.8536
1230	0.8699
1239	0.8613
1248	0.8889
1257	0.915
1266	0.9194
1275	0.9178
1284	0.9209
1293	0.9307
1302	0.9368
1311	0.9357
1320	0.9293
1329	0.9144
1338	0.9168
1347	0.9255
1356	0.925
1365	0.9117
1374	0.8894
1383	0.8445
1392	0.6475
1401	0.5486
1410	0.8053
1419	0.7605
1428	0.8915
1437	0.9154
1446	0.9227
1455	0.9128
1464	0.9286
1473	0.9254
1482	0.9101
1491	0.8777
1500	0.8263
1509	0.7801
1518	0.7448
1527	0.6991
1536	0.6193
1545	0.5158
1554	0.4945
1563	0.5579
1572	0.6505
1581	0.6786
1590	0.7112
1599	0.7861
1608	0.8628
1617	0.8923
1626	0.9164
1635	0.9341
1644	0.9417
1653	0.9303
1662	0.9424
1671	0.9374
1680	0.9312
1689	0.9257
1698	0.9193
1707	0.9028
1716	0.8749
1725	0.856
1734	0.8267
1743	0.7992
1752	0.7662
1761	0.6719
1770	0.3379
1779	0.2618
1788	0.1557
1797	0.0965
1806	0.1185
1815	0.0504
1824	0.1592
1833	0.5392
1842	0.7086
1851	0.7801
1860	0.8112
1869	0.8368
1878	0.8552
1887	0.8607
1896	0.8507
1905	0.8397
1914	0.8316
1923	0.8315
1932	0.8464
1941	0.8517
1950	0.8974
1959	0.9825
1968	0.9235
1977	0.9214
1986	0.93
1995	0.9057
2004	0.9254
2013	0.9681
2022	0.9734
2031	0.9752
2040	1.0009
2049	0.9777
2058	0.9785
2067	0.9775
2076	0.977
2085	0.9792
2094	0.9818
2103	0.9817
2112	0.9818
2121	0.9815
2130	0.9808
2139	0.9799
2148	0.9794
2157	0.9785
2166	0.9773
2175	0.9763
2184	0.9753
2193	0.9743
2202	0.9734
2211	0.9716
2220	0.9699
2229	0.968
2238	0.9659
2247	0.9638
2256	0.9618
2265	0.9599
2274	0.9581
2283	0.9564
2292	0.955
2301	0.9528
2310	0.9506
2319	0.9487
2328	0.9482
2337	0.9478
2346	0.9474
2355	0.9471
2364	0.9483
2373	0.9498
2382	0.9518
2391	0.9549
2400	0.9575
2409	0.9602
2418	0.9607
2427	0.961
2436	0.9612
2445	0.9602
2454	0.9595
2463	0.9587
2472	0.9577
2481	0.9568
2490	0.9563
2499	0.959
2508	0.9599
2517	0.9592
2526	0.9588
2535	0.9583
2544	0.958
2553	0.9571
2562	0.9556
2571	0.9542
2580	0.9534
2589	0.9525
2598	0.9518
2607	0.9512
2616	0.9506
2625	0.95
2634	0.9502
2643	0.9505
2652	0.9508
2661	0.9512
2670	0.9511
2679	0.9506
2688	0.9501
2697	0.9496
2706	0.9487
2715	0.9478
2724	0.947
2733	0.9456
2742	0.9437
2751	0.9418
2760	0.9409
2769	0.94
2778	0.9395
2787	0.9395
2796	0.9395
2805	0.9398
2814	0.9403
2823	0.9409
2832	0.9417
2841	0.9425
2850	0.9428
2859	0.9403
2868	0.9349
2877	0.9331
2886	0.9336
2895	0.935
2904	0.9362
2913	0.9371
2922	0.9378
2931	0.9324
2940	0.915
2949	0.8823
2958	0.8041
2967	0.7378
2976	0.8331
2985	0.8651
2994	0.8762
3003	0.8544
3012	0.8246
3021	0.811
3030	0.8497
3039	0.8731
3048	0.8802
3057	0.9058
3066	0.9125
3075	0.9184
3084	0.9236
3093	0.9283
3102	0.9325
3111	0.9359
3120	0.9378
3129	0.9394
3138	0.9408
3147	0.942
3156	0.9425
3165	0.943
3174	0.9436
3183	0.9442
3192	0.9448
3201	0.9454
3210	0.946
3219	0.9466
3228	0.9471
3237	0.9477
3246	0.9483
3255	0.9488
3264	0.9493
3273	0.9498
3282	0.9503
3291	0.9507
3300	0.9513
3309	0.9517
3318	0.9523
3327	0.9528
3336	0.9534
3345	0.9539
3354	0.9545
3363	0.9549
3372	0.9554
3381	0.9558
3390	0.9564
3399	0.9568
3408	0.9564
3417	0.9559
3426	0.9554
3435	0.9549
3444	0.9544
3453	0.9536
3462	0.9528
3471	0.952
3480	0.9512
3489	0.9486
3498	0.9462
3507	0.9436
3516	0.9404
3525	0.9366
3534	0.9328
3543	0.9294
3552	0.9302
3561	0.936
3570	0.937
3579	0.9341
3588	0.9285
3597	0.9201
3606	0.9144
3615	0.9232
3624	0.939
3633	0.9485
3642	0.9499
3651	0.9492
3660	0.9474
3669	0.9467
3678	0.9477
3687	0.9505
3696	0.9533
3705	0.9543
3714	0.954
3723	0.9528
3732	0.9513
3741	0.9521
3750	0.954
3759	0.9548
3768	0.954
3777	0.9525
3786	0.9516
3795	0.9506
