Infrared Spectrum: CIS-2-CHLORO-2-BUTENE
Formula: C4 H7 Cl
CAS: 2211-69-0
Class: COBLENTZ
Instrument: Not specified, most likely a prism, grating, or hybrid spectrometer.
Sampling: TRANSMISSION
Path length: 0.0025 CM
Resolution: 4
Origin: W.T. BOLLETER
MICROMETERS	TRANSMITTANCE
14.505	0.382
14.5753	0.206
14.6457	0.129
14.716	0.073
14.7864	0.048
14.8567	0.037
14.9271	0.035
14.9974	0.039
15.0677	0.052
15.1381	0.086
15.2084	0.157
15.2788	0.238
15.3491	0.339
15.4195	0.43
15.4898	0.495
15.5601	0.536
15.6305	0.567
15.7008	0.585
15.7712	0.597
15.8415	0.603
15.9119	0.601
15.9822	0.599
16.0525	0.608
16.1229	0.608
16.1932	0.596
16.2636	0.563
16.3339	0.515
16.4043	0.475
16.4746	0.447
16.545	0.454
16.6153	0.5
16.6856	0.552
16.756	0.624
16.8263	0.689
16.8967	0.736
16.967	0.771
17.0374	0.811
17.1077	0.833
17.178	0.85
17.2484	0.861
17.3187	0.868
17.3891	0.877
17.4594	0.881
17.5298	0.883
17.6001	0.885
17.6704	0.885
17.7408	0.888
17.8111	0.894
17.8815	0.901
17.9518	0.91
18.0222	0.917
18.0925	0.924
18.1628	0.926
18.2332	0.929
18.3035	0.931
18.3739	0.931
18.4442	0.929
18.5146	0.926
18.5849	0.922
18.6552	0.921
18.7256	0.915
18.7959	0.912
18.8663	0.906
18.9366	0.901
19.007	0.897
19.0773	0.895
19.1476	0.894
19.218	0.895
19.2883	0.897
19.3587	0.899
19.429	0.901
19.4994	0.901
19.5697	0.901
19.64	0.897
19.7104	0.892
19.7807	0.888
19.8511	0.883
19.9214	0.876
19.9918	0.867
20.0621	0.854
20.1324	0.847
20.2028	0.834
20.2731	0.824
20.3435	0.82
20.4138	0.816
20.4842	0.815
20.5545	0.8
20.6249	0.793
20.6952	0.784
20.7655	0.77
20.8359	0.754
20.9062	0.746
20.9766	0.737
21.0469	0.721
21.1173	0.703
21.1876	0.687
21.2579	0.669
21.3283	0.653
21.3986	0.64
21.469	0.621
21.5393	0.594
21.6097	0.565
21.68	0.542
21.7503	0.513
21.8207	0.5
21.891	0.479
21.9614	0.459
22.0317	0.423
22.1021	0.403
22.1724	0.353
22.2427	0.315
22.3131	0.269
22.3834	0.224
22.4538	0.179
22.5241	0.134
22.5945	0.105
22.6648	0.093
22.7351	0.064
22.8055	0.057
22.8758	0.055
22.9462	0.052
23.0165	0.052
23.0869	0.052
23.1572	0.052
23.2275	0.055
23.2979	0.059
23.3682	0.07
23.4386	0.098
23.5089	0.125
23.5793	0.168
23.6496	0.222
23.7199	0.276
23.7903	0.326
23.8606	0.396
23.931	0.439
24.0013	0.482
24.0717	0.524
24.142	0.554
24.2123	0.585
24.2827	0.619
24.353	0.648
24.4234	0.669
24.4937	0.691
24.5641	0.71
24.6344	0.727
24.7048	0.746
24.7751	0.757
24.8454	0.777
24.9158	0.791
24.9861	0.802
25.0565	0.813
25.1268	0.82
25.1972	0.824
25.2675	0.822
25.3378	0.822
25.4082	0.824
25.4785	0.825
25.5489	0.827
25.6192	0.827
25.6896	0.825
25.7599	0.829
25.8302	0.827
25.9006	0.831
25.9709	0.836
26.0413	0.842
26.1116	0.845
26.182	0.849
26.2523	0.859
26.3226	0.863
26.393	0.867
26.4633	0.87
26.5337	0.872
26.604	0.874
26.6744	0.877
26.7447	0.886
26.815	0.892
26.8854	0.899
26.9557	0.903
27.0261	0.906
27.0964	0.91
27.1668	0.912
27.2371	0.915
27.3074	0.921
27.3778	0.922
27.4481	0.921
27.5185	0.917
27.5888	0.912
27.6592	0.908
27.7295	0.903
27.7998	0.897
27.8702	0.886
27.9405	0.877
28.0109	0.863
28.0812	0.854
28.1516	0.843
28.2219	0.827
28.2923	0.818
28.3626	0.807
28.4329	0.797
28.5033	0.791
28.5736	0.788
28.644	0.788
28.7143	0.789
28.7847	0.795
28.855	0.806
28.9253	0.818
28.9957	0.831
29.066	0.84
29.1364	0.85
29.2067	0.859
29.2771	0.868
29.3474	0.877
29.4177	0.885
29.4881	0.89
29.5584	0.894
29.6288	0.899
29.6991	0.903
29.7695	0.906
29.8398	0.91
29.9101	0.913
29.9805	0.913
30.0508	0.917
30.1212	0.921
30.1915	0.924
30.2619	0.926
30.3322	0.926
30.4025	0.926
30.4729	0.926
30.5432	0.922
30.6136	0.921
30.6839	0.919
30.7543	0.919
30.8246	0.921
30.8949	0.922
30.9653	0.922
31.0356	0.919
31.106	0.919
31.1763	0.919
31.2467	0.919
31.317	0.922
31.3873	0.921
31.4577	0.919
31.528	0.917
31.5984	0.917
31.6687	0.917
31.7391	0.915
31.8094	0.908
31.8797	0.903
31.9501	0.904
32.0204	0.903
32.0908	0.901
32.1611	0.892
32.2315	0.894
32.3018	0.89
32.3722	0.888
32.4425	0.886
32.5128	0.886
32.5832	0.886
32.6535	0.885
32.7239	0.885
32.7942	0.89
32.8646	0.895
32.9349	0.897
33.0052	0.894
33.0756	0.885
33.1459	0.872
33.2163	0.865
33.2866	0.863
33.357	0.863
33.4273	0.867
33.4976	0.872
33.568	0.876
33.6383	0.879
33.7087	0.877
33.779	0.874
33.8494	0.874
33.9197	0.874
33.99	0.872
34.0604	0.872
34.1307	0.87
34.2011	0.868
34.2714	0.867
34.3418	0.863
34.4121	0.858
34.4824	0.854
34.5528	0.847
34.6231	0.842
34.6935	0.833
34.7638	0.824
34.8342	0.815
34.9045	0.809
34.9748	0.802
35.0452	0.797
35.1155	0.791
35.1859	0.786
35.2562	0.775
35.3266	0.764
35.3969	0.757
35.4672	0.748
35.5376	0.745
35.6079	0.739
35.6783	0.737
35.7486	0.734
35.819	0.732
35.8893	0.728
35.9596	0.727
36.03	0.725
36.1003	0.723
36.1707	0.716
36.241	0.707
36.3114	0.7
36.3817	0.691
36.4521	0.685
36.5224	0.678
36.5927	0.667
36.6631	0.662
36.7334	0.66
36.8038	0.657
36.8741	0.653
36.9445	0.649
37.0148	0.646
37.0851	0.642
37.1555	0.637
37.2258	0.635
37.2962	0.633
37.3665	0.63
37.4369	0.63
37.5072	0.626
37.5775	0.622
37.6479	0.621
37.7182	0.621
37.7886	0.622
37.8589	0.617
37.9293	0.615
37.9996	0.608
