Infrared Spectrum: p-Chlorophenyl 2,3-epoxypropyl ether
Formula: C 9 H 9 Cl O 2
CAS: 2212-05-7
State: gas
Instrument: HP-GC/MS/IRD
Origin: NIST Mass Spectrometry Data Center
1/CM	ABSORBANCE
550	0.0018527
562	0.0011651
574	0.0002101
586	5.73e-05
598	0.0004584
610	0.001337
622	0.0048896
634	0.013752
646	0.0128543
658	0.0137138
670	0.0124914
682	0.0054244
694	0.0029223
706	0.0011269
718	0.0007831
730	0.0007258
742	0.0012224
754	0.0025021
766	0.005539
778	0.0089006
790	0.0099129
802	0.0156429
814	0.0304263
826	0.0466804
838	0.0409504
850	0.0293376
862	0.0164833
874	0.0080411
886	0.0057109
898	0.0075254
910	0.0121285
922	0.0110398
934	0.0071243
946	0.0060929
958	0.0083276
970	0.0101994
982	0.0090152
994	0.0128352
1006	0.0322981
1018	0.0360799
1030	0.0516464
1042	0.0427076
1054	0.0184697
1066	0.0123004
1078	0.0182978
1090	0.0406257
1102	0.0381045
1114	0.0147643
1126	0.0102758
1138	0.0076591
1150	0.0082894
1162	0.0218122
1174	0.0237031
1186	0.0113072
1198	0.0201887
1210	0.0513217
1222	0.112976
1234	0.142639
1246	0.104974
1258	0.0548743
1270	0.0532699
1282	0.0522003
1294	0.0327374
1306	0.0173046
1318	0.0092062
1330	0.0072007
1342	0.0081748
1354	0.0094354
1366	0.0067423
1378	0.0054244
1390	0.0055772
1402	0.0059974
1414	0.00764
1426	0.008022
1438	0.0087096
1450	0.0155856
1462	0.0260142
1474	0.0476354
1486	0.154519
1498	0.13859
1510	0.0256322
1522	0.0113263
1534	0.0075254
1546	0.005921
1558	0.0059592
1570	0.009359
1582	0.0196348
1594	0.0242952
1606	0.0129498
1618	0.0047941
1630	0.0030942
1642	0.0022729
1654	0.0015089
1666	0.0010314
1678	0.0007449
1690	0.0006876
1702	0.0007449
1714	0.0008786
1726	0.0011078
1738	0.0016235
1750	0.0012797
1762	0.0006112
1774	0.0004011
1786	0.0003247
1798	0.0004393
1810	0.0005539
1822	0.0005921
1834	0.000955
1846	0.0014325
1858	0.002101
1870	0.0025785
1882	0.0019864
1894	0.0012224
1906	0.0007067
1918	0.0005348
1930	0.0005348
1942	0.0004966
1954	0.0004202
1966	0.0004966
1978	0.0005348
1990	0.0006494
2002	0.0008404
2014	0.0012224
2026	0.0015471
2038	0.0017572
2050	0.0018336
2062	0.0018145
2074	0.0016426
2086	0.0012033
2098	0.0008786
2110	0.0006876
2122	0.0004202
2134	0.0002292
2146	0.0001337
2158	9.55e-05
2170	3.82e-05
2182	3.82e-05
2194	7.64e-05
2206	0.0001719
2218	0.0002674
2230	0.0004011
2242	0.0005921
2254	0.0008977
2266	0.0009932
2278	0.0010314
2290	0.000955
2302	0.0006494
2314	0.0005157
2326	0.0004393
2338	0.0002865
2350	0.000191
2362	0.000191
2374	0.0003438
2386	0.000573
2398	0.0006876
2410	0.0005921
2422	0.000573
2434	0.000573
2446	0.000573
2458	0.0005921
2470	0.0006303
2482	0.0006112
2494	0.0007067
2506	0.0009168
2518	0.0009168
2530	0.0007449
2542	0.0005348
2554	0.0004011
2566	0.0004011
2578	0.0003438
2590	0.0002865
2602	0.0002483
2614	0.000191
2626	0.0001146
2638	3.82e-05
2650	0.0001146
2662	0.0001146
2674	0.0001337
2686	0.0002674
2698	0.0003438
2710	0.0003629
2722	0.0004966
2734	0.0006876
2746	0.0007831
2758	0.0008595
2770	0.0008022
2782	0.0008595
2794	0.0011269
2806	0.0015089
2818	0.0020819
2830	0.002483
2842	0.0026931
2854	0.0036099
2866	0.0057873
2878	0.008595
2890	0.0094354
2902	0.0093208
2914	0.0115555
2926	0.0165215
2938	0.018336
2950	0.0140576
2962	0.0122622
2974	0.0131217
2986	0.0145542
2998	0.0168271
3010	0.0178776
3022	0.0122813
3034	0.0104286
3046	0.0155283
3058	0.018145
3070	0.01146
3082	0.0069142
3094	0.0060165
3106	0.0048132
3118	0.0019673
3130	0.000764
3142	0.0004202
3154	0.000382
3166	0.0002865
3178	0.000191
3190	0.0001146
3202	0.0001146
3214	5.73e-05
3226	5.73e-05
3238	3.82e-05
3250	3.82e-05
3262	1.91e-05
3274	0
3286	7.64e-05
3298	0.0001337
3310	5.73e-05
3322	5.73e-05
3334	5.73e-05
3346	5.73e-05
3358	1.91e-05
3370	9.55e-05
3382	0.0001146
3394	0
3406	5.73e-05
3418	7.64e-05
3430	3.82e-05
3442	0
3454	0
3466	5.73e-05
3478	3.82e-05
3490	9.55e-05
3502	0
3514	1.91e-05
3526	5.73e-05
3538	7.64e-05
3550	5.73e-05
3562	5.73e-05
3574	5.73e-05
3586	7.64e-05
3598	1.91e-05
3610	0.0001146
3622	0.0001337
3634	0.0001719
3646	0.0001337
3658	0.0002292
3670	0.0002865
3682	0.0003438
3694	0.0002865
3706	0.0003056
3718	0.000382
3730	0.0004584
3742	0.0003438
3754	0.0004202
3766	0.0004775
3778	0.0004393
3790	0.0005157
3802	0.0004202
3814	0.0004966
3826	0.0005157
3838	0.0005348
