Infrared Spectrum: 1-P-CHLOROPHENYL-3,3-DIMETHYL-2-THIOUREA
Formula: C9 H11 Cl N2 S
CAS: 2212-17-1
State: SOLID (MINERAL OIL MULL)
Class: COBLENTZ
Instrument: Not specified, most likely a prism, grating, or hybrid spectrometer.
Sampling: TRANSMISSION
Resolution: 4
Origin: DOW CHEMICAL COMPANY
MICROMETERS	TRANSMITTANCE
2.02	0.72
2.06012	0.727
2.10023	0.734
2.14035	0.739
2.18046	0.739
2.22058	0.739
2.2607	0.739
2.30081	0.739
2.34093	0.745
2.38104	0.754
2.42116	0.759
2.46127	0.774
2.50139	0.779
2.54151	0.782
2.58162	0.787
2.62174	0.794
2.66185	0.799
2.70197	0.799
2.74209	0.801
2.7822	0.804
2.82232	0.804
2.86243	0.804
2.90255	0.804
2.94267	0.787
2.98278	0.707
3.0229	0.625
3.06301	0.695
3.10313	0.732
3.14325	0.757
3.18336	0.767
3.22348	0.762
3.26359	0.742
3.30371	0.682
3.34382	0.361
3.38394	0.15
3.42406	0.351
3.46417	0.409
3.50429	0.769
3.5444	0.831
3.58452	0.842
3.62464	0.844
3.66475	0.841
3.70487	0.846
3.74498	0.851
3.7851	0.862
3.82522	0.862
3.86533	0.879
3.90545	0.881
3.94556	0.884
3.98568	0.887
4.02579	0.889
4.06591	0.891
4.10603	0.891
4.14614	0.896
4.18626	0.899
4.22637	0.903
4.26649	0.904
4.30661	0.904
4.34672	0.906
4.38684	0.909
4.42695	0.911
4.46707	0.911
4.50719	0.911
4.5473	0.916
4.58742	0.914
4.62753	0.911
4.66765	0.914
4.70777	0.918
4.74788	0.921
4.788	0.931
4.82811	0.923
4.86823	0.929
4.90834	0.929
4.94846	0.936
4.98858	0.934
5.02869	0.936
5.06881	0.938
5.10892	0.941
5.14904	0.941
5.18916	0.939
5.22927	0.938
5.26939	0.926
5.3095	0.938
5.34962	0.944
5.38974	0.951
5.42985	0.951
5.46997	0.953
5.51008	0.954
5.5502	0.954
5.59031	0.956
5.63043	0.953
5.67055	0.954
5.71066	0.963
5.75078	0.959
5.79089	0.956
5.83101	0.959
5.87113	0.961
5.91124	0.956
5.95136	0.951
5.99147	0.946
6.03159	0.933
6.07171	0.923
6.11182	0.934
6.15194	0.933
6.19205	0.914
6.23217	0.837
6.27228	0.822
6.3124	0.891
6.35252	0.857
6.39263	0.765
6.43275	0.598
6.47286	0.531
6.51298	0.593
6.5531	0.734
6.59321	0.797
6.63333	0.794
6.67344	0.607
6.71356	0.707
6.75368	0.702
6.79379	0.578
6.83391	0.566
6.87402	0.673
6.91414	0.762
6.95426	0.851
6.99437	0.866
7.03449	0.837
7.0746	0.819
7.11472	0.821
7.15483	0.807
7.19495	0.742
7.23507	0.573
7.27518	0.622
7.3153	0.747
7.35541	0.777
7.39553	0.754
7.43565	0.623
7.47576	0.392
7.51588	0.337
7.55599	0.505
7.59611	0.622
7.63623	0.593
7.67634	0.673
7.71646	0.752
7.75657	0.707
7.79669	0.75
7.8368	0.822
7.87692	0.832
7.91704	0.799
7.95715	0.749
7.99727	0.79
8.03738	0.849
8.0775	0.871
8.11762	0.884
8.15773	0.891
8.19785	0.896
8.23796	0.896
8.27808	0.896
8.3182	0.891
8.35831	0.891
8.39843	0.889
8.43854	0.891
8.47866	0.886
8.51878	0.877
8.55889	0.876
8.59901	0.864
8.63912	0.824
8.67924	0.777
8.71935	0.715
8.75947	0.69
8.79959	0.7
8.8397	0.757
8.87982	0.802
8.91993	0.826
8.96005	0.841
9.00017	0.839
9.04028	0.817
9.0804	0.806
9.12051	0.787
9.16063	0.725
9.20075	0.714
9.24086	0.817
9.28098	0.862
9.32109	0.869
9.36121	0.864
9.40132	0.831
9.44144	0.794
9.48156	0.802
9.52167	0.842
9.56179	0.857
9.6019	0.881
9.64202	0.889
9.68214	0.892
9.72225	0.897
9.76237	0.901
9.80248	0.896
9.8426	0.839
9.88272	0.842
9.92283	0.904
9.96295	0.913
10.0031	0.914
10.0432	0.921
10.0833	0.921
10.1234	0.923
10.1635	0.928
10.2036	0.926
10.2438	0.926
10.2839	0.926
10.324	0.926
10.3641	0.929
10.4042	0.933
10.4443	0.929
10.4845	0.928
10.5246	0.929
10.5647	0.928
10.6048	0.904
10.6449	0.891
10.685	0.886
10.7251	0.887
10.7653	0.906
10.8054	0.921
10.8455	0.933
10.8856	0.936
10.9257	0.941
10.9658	0.944
11.006	0.946
11.0461	0.951
11.0862	0.953
11.1263	0.953
11.1664	0.953
11.2065	0.953
11.2467	0.953
11.2868	0.956
11.3269	0.956
11.367	0.958
11.4071	0.958
11.4472	0.958
11.4874	0.958
11.5275	0.958
11.5676	0.954
11.6077	0.956
11.6478	0.956
11.6879	0.956
11.728	0.956
11.7682	0.956
11.8083	0.956
11.8484	0.941
11.8885	0.933
11.9286	0.933
11.9687	0.903
12.0089	0.785
12.049	0.709
12.0891	0.794
12.1292	0.892
12.1693	0.908
12.2094	0.913
12.2496	0.886
12.2897	0.903
12.3298	0.924
12.3699	0.931
12.41	0.931
12.4501	0.933
12.4902	0.934
12.5304	0.936
12.5705	0.936
12.6106	0.936
12.6507	0.936
12.6908	0.934
12.7309	0.933
12.7711	0.929
12.8112	0.928
12.8513	0.924
12.8914	0.923
12.9315	0.921
12.9716	0.919
13.0118	0.916
13.0519	0.913
13.092	0.911
13.1321	0.909
13.1722	0.904
13.2123	0.901
13.2525	0.892
13.2926	0.889
13.3327	0.886
13.3728	0.881
13.4129	0.876
13.453	0.864
13.4931	0.851
13.5333	0.841
13.5734	0.821
13.6135	0.789
13.6536	0.742
13.6937	0.667
13.7338	0.598
13.774	0.56
13.8141	0.568
13.8542	0.64
13.8943	0.702
13.9344	0.745
13.9745	0.77
14.0147	0.785
14.0548	0.79
14.0949	0.79
14.135	0.769
14.1751	0.707
14.2152	0.675
14.2553	0.66
14.2955	0.683
14.3356	0.725
14.3757	0.74
14.4158	0.749
14.4559	0.745
14.496	0.739
14.5362	0.722
14.5763	0.71
14.6164	0.7
14.6565	0.69
14.6966	0.683
14.7367	0.685
14.7769	0.685
14.817	0.685
14.8571	0.685
14.8972	0.682
14.9373	0.68
14.9774	0.675
15.0176	0.67
15.0577	0.665
15.0978	0.657
15.1379	0.648
15.178	0.638
15.2181	0.63
15.2582	0.625
15.2984	0.623
15.3385	0.617
15.3786	0.602
15.4187	0.6
15.4588	0.598
15.4989	0.588
15.5391	0.58
15.5792	0.573
15.6193	0.571
15.6594	0.566
15.6995	0.561
15.7396	0.556
15.7798	0.553
15.8199	0.55
15.86	0.548
15.9001	0.541
