Infrared Spectrum: 3,4-Dimethyl-2-hexene (c,t)
Formula: C 8 H 16
CAS: 2213-37-8
State: gas
Instrument: HP-GC/MS/IRD
Origin: NIST Mass Spectrometry Data Center
1/CM	ABSORBANCE
550	0.0002175
562	7.75e-05
574	0.00012
586	0.000175
598	0.000195
610	0.0001
622	0.000155
634	0.00013
646	0.000165
658	0.000245
670	0.00026
682	0.00026
694	0.0003375
706	0.000255
718	0.000275
730	0.00021
742	0.000205
754	0.0003325
766	0.0004325
778	0.0006125
790	0.00083
802	0.0007675
814	0.000885
826	0.00088
838	0.00097
850	0.0010075
862	0.0009775
874	0.000795
886	0.0007625
898	0.0008475
910	0.0010675
922	0.0011525
934	0.0010525
946	0.0009875
958	0.0008725
970	0.000825
982	0.0009625
994	0.00125
1006	0.0015075
1018	0.001885
1030	0.00231
1042	0.0030925
1054	0.0045625
1066	0.00592
1078	0.0064475
1090	0.0068575
1102	0.01001
1114	0.017905
1126	0.024115
1138	0.02435
1150	0.0141425
1162	0.008725
1174	0.00628
1186	0.00431
1198	0.002785
1210	0.00167
1222	0.001095
1234	0.0008525
1246	0.0008125
1258	0.0008225
1270	0.0010675
1282	0.001425
1294	0.0016275
1306	0.001485
1318	0.00125
1330	0.00145
1342	0.0025725
1354	0.003165
1366	0.004585
1378	0.0054875
1390	0.0055975
1402	0.003885
1414	0.0020775
1426	0.0018475
1438	0.0018175
1450	0.00183
1462	0.00169
1474	0.00157
1486	0.0013375
1498	0.001005
1510	0.00071
1522	0.0005325
1534	0.0003975
1546	0.0003
1558	0.00027
1570	0.0002175
1582	0.0002075
1594	0.00017
1606	0.0001825
1618	0.00014
1630	0.000165
1642	0.000135
1654	0.00014
1666	0.0001025
1678	8.75e-05
1690	9.75e-05
1702	9.5e-05
1714	0.000135
1726	0.000145
1738	0.000145
1750	0.0001075
1762	0.0001075
1774	2.25e-05
1786	3.75e-05
1798	2.25e-05
1810	2.5e-06
1822	3.25e-05
1834	1.75e-05
1846	4e-05
1858	4.75e-05
1870	9.75e-05
1882	0.0001
1894	0.0001475
1906	0.000195
1918	0.0002125
1930	0.00027
1942	0.0002925
1954	0.000355
1966	0.0003775
1978	0.000345
1990	0.0002025
2002	0.00013
2014	0.0001025
2026	3.75e-05
2038	7.5e-05
2050	5.25e-05
2062	3e-05
2074	1.5e-05
2086	3.75e-05
2098	4e-05
2110	3e-05
2122	3.5e-05
2134	5.25e-05
2146	7e-05
2158	4.75e-05
2170	5.25e-05
2182	2.75e-05
2194	3.75e-05
2206	6e-05
2218	4.5e-05
2230	2e-05
2242	5.5e-05
2254	6.5e-05
2266	4.25e-05
2278	9e-05
2290	0.000105
2302	6.25e-05
2314	6e-05
2326	0.0001025
2338	7.25e-05
2350	6.5e-05
2362	5.75e-05
2374	6.25e-05
2386	6.25e-05
2398	8.75e-05
2410	0.0001125
2422	0.0001675
2434	0.0001525
2446	0.0001375
2458	0.0001425
2470	0.0001025
2482	0.00011
2494	0.0001325
2506	0.00012
2518	0.000125
2530	0.000145
2542	0.0001375
2554	0.0002125
2566	0.00024
2578	0.0002375
2590	0.0002825
2602	0.000365
2614	0.000395
2626	0.0004075
2638	0.00043
2650	0.00046
2662	0.0004875
2674	0.0005675
2686	0.0007225
2698	0.00083
2710	0.00099
2722	0.0011425
2734	0.0013
2746	0.00144
2758	0.001675
2770	0.0019375
2782	0.002235
2794	0.002715
2806	0.0032
2818	0.0041125
2830	0.0057925
2842	0.00816
2854	0.01111
2866	0.013965
2878	0.01458
2890	0.013145
2902	0.0107275
2914	0.00906
2926	0.00982
2938	0.0107
2950	0.0119025
2962	0.01299
2974	0.0143725
2986	0.0141375
2998	0.0101775
3010	0.0062375
3022	0.003525
3034	0.002055
3046	0.00131
3058	0.001
3070	0.000865
3082	0.00072
3094	0.00067
3106	0.0006425
3118	0.00058
3130	0.0005
3142	0.000505
3154	0.0004
3166	0.0003625
3178	0.000385
3190	0.0004425
3202	0.000365
3214	0.0004275
3226	0.000355
3238	0.0003475
3250	0.0002775
3262	0.0002025
3274	0.000205
3286	0.00013
3298	0.00017
3310	0.0001675
3322	9.75e-05
3334	0.0001825
3346	0.0001425
3358	0.00013
3370	0.000155
3382	6.75e-05
3394	0.0001325
3406	0.0001925
3418	0.000185
3430	0.000215
3442	0.00017
3454	7.75e-05
3466	8.75e-05
3478	9.75e-05
3490	8.5e-05
3502	0.00012
3514	6.75e-05
3526	0.0001
3538	8.25e-05
3550	0.000115
3562	1.25e-05
3574	0.0001325
3586	7.25e-05
3598	7.75e-05
3610	0.000115
3622	0.0001125
3634	8.5e-05
3646	0.0001475
3658	0.00017
3670	0.000195
3682	0.000175
3694	0.0001925
3706	0.0002025
3718	0.0001825
3730	0.0002875
3742	0.0002
3754	0.0002275
3766	0.000225
3778	0.000205
3790	0.00022
3802	0.0002475
3814	0.000285
3826	0.000265
3838	0.000195
