Infrared Spectrum: 2,4-Dimethylheptane
Formula: C 9 H 20
CAS: 2213-23-2
State: gas
Instrument: HP-GC/MS/IRD
Origin: NIST Mass Spectrometry Data Center
1/CM	ABSORBANCE
550	0.0001312
562	0.000123
574	0.0001025
586	9.02e-05
598	0.0001066
610	0.0001394
622	0.0001804
634	0.0001681
646	5.74e-05
658	0.0001189
670	0.0001681
682	0.0001763
694	0.0002091
706	0.000205
718	0.0002091
730	0.0003239
742	0.0003854
754	0.0003813
766	0.0002993
778	0.000246
790	0.0003075
802	0.0003444
814	0.0003813
826	0.0002747
838	0.0003485
850	0.0002829
862	0.0003362
874	0.0003157
886	0.0003895
898	0.0003239
910	0.0003649
922	0.0004879
934	0.0004715
946	0.00041
958	0.0006314
970	0.0008159
982	0.0005699
994	0.0003608
1006	0.0003198
1018	0.0003075
1030	0.0003157
1042	0.0002419
1054	0.0002788
1066	0.0002952
1078	0.0002952
1090	0.0002911
1102	0.0003567
1114	0.0003854
1126	0.0003977
1138	0.0007257
1150	0.0011357
1162	0.0013202
1174	0.0009881
1186	0.0004879
1198	0.0003198
1210	0.0003116
1222	0.0003895
1234	0.0003977
1246	0.0004756
1258	0.0004387
1270	0.0004838
1282	0.0004838
1294	0.000533
1306	0.0005904
1318	0.0007667
1330	0.0010168
1342	0.0012587
1354	0.0018286
1366	0.0028085
1378	0.0037843
1390	0.0034276
1402	0.001599
1414	0.0009758
1426	0.0010004
1438	0.0016113
1450	0.0031406
1462	0.0047314
1474	0.0041861
1486	0.0020828
1498	0.0009635
1510	0.0005699
1522	0.0004141
1534	0.000328
1546	0.0002706
1558	0.0002788
1570	0.0002419
1582	0.0002255
1594	0.0002214
1606	0.0002132
1618	0.0002337
1630	0.0002214
1642	0.0002009
1654	0.0002214
1666	0.000205
1678	0.0001927
1690	0.0001845
1702	0.0001681
1714	0.0001681
1726	0.0001435
1738	0.0001517
1750	0.000123
1762	0.0001189
1774	0.0001107
1786	9.43e-05
1798	0.0001025
1810	8.2e-05
1822	8.61e-05
1834	9.02e-05
1846	8.2e-05
1858	6.56e-05
1870	6.97e-05
1882	8.2e-05
1894	7.38e-05
1906	6.97e-05
1918	5.74e-05
1930	4.51e-05
1942	4.1e-05
1954	5.33e-05
1966	4.51e-05
1978	4.92e-05
1990	5.33e-05
2002	5.74e-05
2014	3.28e-05
2026	4.92e-05
2038	5.33e-05
2050	4.92e-05
2062	2.05e-05
2074	3.28e-05
2086	2.87e-05
2098	2.87e-05
2110	2.87e-05
2122	4.1e-05
2134	3.69e-05
2146	5.33e-05
2158	3.69e-05
2170	3.69e-05
2182	3.28e-05
2194	4.1e-05
2206	6.97e-05
2218	4.51e-05
2230	3.69e-05
2242	5.33e-05
2254	5.74e-05
2266	3.28e-05
2278	2.05e-05
2290	3.28e-05
2302	3.69e-05
2314	3.69e-05
2326	5.33e-05
2338	4.92e-05
2350	7.38e-05
2362	8.2e-05
2374	7.38e-05
2386	7.38e-05
2398	8.2e-05
2410	7.79e-05
2422	6.15e-05
2434	5.74e-05
2446	6.56e-05
2458	6.15e-05
2470	6.56e-05
2482	9.02e-05
2494	5.74e-05
2506	7.38e-05
2518	9.43e-05
2530	0.000123
2542	0.0001148
2554	0.0001476
2566	0.0001763
2578	0.0002255
2590	0.0002665
2602	0.0002911
2614	0.0003034
2626	0.0003116
2638	0.0003075
2650	0.0003075
2662	0.0003075
2674	0.0003444
2686	0.0003772
2698	0.0004223
2710	0.0004879
2722	0.0006314
2734	0.0007913
2746	0.0007749
2758	0.0007093
2770	0.0007872
2782	0.0008897
2794	0.0010988
2806	0.0013858
2818	0.001845
2830	0.0027388
2842	0.0047929
2854	0.0073349
2866	0.0101147
2878	0.0149117
2890	0.0161089
2902	0.0192413
2914	0.0239153
2926	0.0245139
2938	0.0246738
2950	0.0273593
2962	0.0403973
2974	0.0303236
2986	0.0098523
2998	0.0042763
3010	0.0026322
3022	0.0018491
3034	0.0014022
3046	0.0011685
3058	0.0009635
3070	0.0009061
3082	0.0008077
3094	0.0007585
3106	0.0007011
3118	0.0006027
3130	0.0005617
3142	0.0005535
3154	0.0004838
3166	0.0005002
3178	0.0004838
3190	0.0004141
3202	0.0003567
3214	0.0002665
3226	0.0002542
3238	0.0001435
3250	0.0001353
3262	0.0001189
3274	0.0001271
3286	0.0001394
3298	0.0001394
3310	0.0001189
3322	0.0001353
3334	0.0001271
3346	0.0001148
3358	0.0001394
3370	0.0001148
3382	0.0001189
3394	7.38e-05
3406	9.84e-05
3418	7.38e-05
3430	6.97e-05
3442	8.61e-05
3454	5.74e-05
3466	9.02e-05
3478	6.15e-05
3490	2.87e-05
3502	4.1e-05
3514	7.38e-05
3526	5.74e-05
3538	4.1e-05
3550	2.46e-05
3562	5.33e-05
3574	2.46e-05
3586	6.15e-05
3598	4.92e-05
3610	6.56e-05
3622	4.92e-05
3634	7.38e-05
3646	2.46e-05
3658	8.2e-05
3670	8.2e-05
3682	9.43e-05
3694	9.02e-05
3706	0.0001025
3718	6.15e-05
3730	0.0001517
3742	9.84e-05
3754	0.0001148
3766	7.79e-05
3778	0.0001517
3790	0.0001312
3802	0.0001271
3814	0.0001189
3826	0.0001722
3838	0.0001435
