Infrared Spectrum: 2,4,6-Tribromophenyl isothiocyanate
Formula: C7 H2 Br3 N S
CAS: 22134-11-8
State: gas
Origin: EPA-IR VAPOR PHASE LIBRARY
1/CM	ABSORBANCE
549.8	0.003946
559.445	0.002526
569.09	0.001736
578.734	0.002476
588.379	0.003106
598.024	0.001796
607.669	0.0013745
617.313	0.0014375
626.958	0.0009729
636.603	0.0006817
646.248	0.00057512
655.893	0.0010196
665.537	0.001716
675.182	0.003646
684.827	0.002856
694.472	0.006736
704.116	0.007966
713.761	0.004076
723.406	0.007436
733.051	0.015056
742.695	0.038816
752.34	0.017506
761.985	0.007566
771.63	0.005516
781.275	0.002276
790.919	0.001586
800.564	0.0008903
810.209	0.0007851
819.854	0.000964
829.498	0.0009982
839.143	0.0013664
848.788	0.004836
858.433	0.023516
868.078	0.009816
877.722	0.006476
887.367	0.005446
897.012	0.004106
906.657	0.004196
916.301	0.006036
925.946	0.010686
935.591	0.030996
945.236	0.046326
954.88	0.019176
964.525	0.006746
974.17	0.003496
983.815	0.002806
993.46	0.002816
1003.1	0.001856
1012.75	0.0011307
1022.39	0.0013697
1032.04	0.0012975
1041.68	0.0012915
1051.33	0.0012639
1060.97	0.002206
1070.62	0.006526
1080.26	0.005996
1089.91	0.007876
1099.55	0.006036
1109.2	0.004106
1118.84	0.009786
1128.49	0.005686
1138.13	0.0010172
1147.78	0.000398
1157.42	0.0008944
1167.07	0.0011692
1176.71	0.004036
1186.36	0.004706
1196	0.003046
1205.64	0.002136
1215.29	0.001676
1224.93	0.0009272
1234.58	0.0010315
1244.22	0.0015432
1253.87	0.0012003
1263.51	0.0010576
1273.16	0.000371
1282.8	0.000381
1292.45	0.0005263
1302.09	0.0007458
1311.74	0.0011
1321.38	0.001298
1331.03	0.001796
1340.67	0.003856
1350.32	0.009236
1359.96	0.012676
1369.61	0.029276
1379.25	0.013016
1388.9	0.007286
1398.54	0.013656
1408.18	0.019976
1417.83	0.016406
1427.47	0.028636
1437.12	0.086986
1446.76	0.068726
1456.41	0.007036
1466.05	0.002816
1475.7	0.002566
1485.34	0.002926
1494.99	0.003596
1504.63	0.005196
1514.28	0.007696
1523.92	0.016336
1533.57	0.031346
1543.21	0.012936
1552.86	0.009466
1562.5	0.008486
1572.15	0.003666
1581.79	0.002186
1591.44	0.0015054
1601.08	0.001036
1610.73	0.0007953
1620.37	0.0006987
1630.01	0.00063488
1639.66	0.0007867
1649.3	0.0007151
1658.95	0.0006996
1668.59	0.0007433
1678.24	0.0008275
1687.88	0.0008608
1697.53	0.000993
1707.17	0.0013426
1716.82	0.002446
1726.46	0.004186
1736.11	0.003026
1745.75	0.002276
1755.4	0.001996
1765.04	0.001746
1774.69	0.001826
1784.33	0.001876
1793.98	0.001806
1803.62	0.001806
1813.27	0.001966
1822.91	0.002386
1832.55	0.002816
1842.2	0.003386
1851.84	0.003966
1861.49	0.004696
1871.13	0.005396
1880.78	0.006356
1890.42	0.006516
1900.07	0.006376
1909.71	0.006826
1919.36	0.008136
1929	0.010686
1938.65	0.014316
1948.29	0.019446
1957.94	0.027076
1967.58	0.038626
1977.23	0.054346
1986.87	0.074636
1996.52	0.102156
2006.16	0.141116
2015.81	0.183506
2025.45	0.224426
2035.1	0.279676
2044.74	0.352466
2054.38	0.410396
2064.03	0.342586
2073.67	0.216656
2083.32	0.153626
2092.96	0.152756
2102.61	0.177036
2112.25	0.177216
2121.9	0.130506
2131.54	0.074336
2141.19	0.048826
2150.83	0.039516
2160.48	0.031136
2170.12	0.023066
2179.77	0.018346
2189.41	0.015436
2199.06	0.014506
2208.7	0.016816
2218.35	0.015476
2227.99	0.008166
2237.64	0.004966
2247.28	0.004136
2256.92	0.003726
2266.57	0.003446
2276.21	0.003196
2285.86	0.002986
2295.5	0.003186
2305.15	0.003466
2314.79	0.003886
2324.44	0.004746
2334.08	0.005416
2343.73	0.005126
2353.37	0.003726
2363.02	0.003056
2372.66	0.002976
2382.31	0.003106
2391.95	0.002336
2401.6	0.001606
2411.24	0.0013248
2420.89	0.0012044
2430.53	0.0013066
2440.18	0.001314
2449.82	0.001459
2459.47	0.0014815
2469.11	0.001676
2478.75	0.001896
2488.4	0.002036
2498.04	0.002336
2507.69	0.002646
2517.33	0.002836
2526.98	0.003126
2536.62	0.003826
2546.27	0.003476
2555.91	0.002656
2565.56	0.002636
2575.2	0.002916
2584.85	0.003026
2594.49	0.003146
2604.14	0.003776
2613.78	0.004706
2623.43	0.006146
2633.07	0.007756
2642.72	0.007796
2652.36	0.006286
2662.01	0.003816
2671.65	0.002346
2681.29	0.001716
2690.94	0.0015243
2700.58	0.0014984
2710.23	0.0015188
2719.87	0.0012578
2729.52	0.0011582
2739.16	0.0013097
2748.81	0.0012823
2758.45	0.0015098
2768.1	0.001806
2777.74	0.001493
2787.39	0.0013252
2797.03	0.001766
2806.68	0.001926
2816.32	0.002096
2825.97	0.002226
2835.61	0.001756
2845.26	0.001206
2854.9	0.0011971
2864.55	0.0009721
2874.19	0.0010361
2883.84	0.0010211
2893.48	0.0009401
2903.12	0.001022
2912.77	0.0010796
2922.41	0.0010013
2932.06	0.0011019
2941.7	0.0012791
2951.35	0.0013995
2960.99	0.001486
2970.64	0.001766
2980.28	0.001756
2989.93	0.001976
2999.57	0.002116
3009.22	0.001606
3018.86	0.0011783
3028.51	0.0010026
3038.15	0.001038
3047.8	0.0009822
3057.44	0.0010593
3067.09	0.0008415
3076.73	0.001118
3086.38	0.0011367
3096.02	0.0014674
3105.67	0.001646
3115.31	0.0007464
3124.95	0.0005213
3134.6	0.000432
3144.24	0.0004998
3153.89	0.000357
3163.53	0.000373
3173.18	0.00046
3182.82	0.000289
3192.47	0.000256
3202.11	9e-05
3211.76	0.000114
3221.4	0.000181
3231.05	0.000237
3240.69	0.000255
3250.34	0.000351
3259.98	0.000211
3269.63	0.000225
3279.27	0.000201
3288.92	0.000251
3298.56	8.3e-05
3308.21	0.000333
3317.85	0.000298
3327.49	0.000249
3337.14	0.0004647
3346.78	0.00033
3356.43	0.000322
3366.07	0.00039
3375.72	0.000319
3385.36	0.000258
3395.01	0.000404
3404.65	0.000275
3414.3	0.0005041
3423.94	0.000424
3433.59	0.000398
3443.23	0.00023
3452.88	0.000373
3462.52	0.00048
3472.17	0.0004576
3481.81	0.000376
3491.46	0.0004849
3501.1	0.00058062
3510.75	0.00022
3520.39	0.000218
3530.04	0.000407
3539.68	0.00054153
3549.32	0.000505
3558.97	0.000248
3568.61	0.0005204
3578.26	0.0005193
3587.9	0.0005082
3597.55	0.0005071
3607.19	0.000383
3616.84	0.000336
3626.48	0.0004798
3636.13	0.0004902
3645.77	0.000406
3655.42	0.000296
3665.06	0.000269
3674.71	0.000315
3684.35	0.00057338
3694	0.0004816
3703.64	0.000364
3713.29	0.0004676
3722.93	0.000550407
3732.58	0.0005186
3742.22	0.00034
3751.86	0.00063118
3761.51	0.000368
3771.15	0.000433
3780.8	0.000522
3790.44	0.00062209
3800.09	0.0004715
3809.73	0.0005003
3819.38	0.00063584
3829.02	0.0007012
3838.67	0.0007598
3848.31	0.0007112
3857.96	0.0007359
3867.6	0.0007273
3877.25	0.0007712
3886.89	0.0007063
3896.54	0.0007703
3906.18	0.0005419
3915.83	0.0005235
3925.47	0.0006968
3935.12	0.0008491
3944.76	0.0010682
3954.41	0.001049
3964.05	0.0011535
3973.69	0.0010478
3983.34	0.0012016
3992.98	0.0012964
