Infrared Spectrum: 2,4-Dimethyl-1-pentene
Formula: C 7 H 14
CAS: 2213-32-3
State: gas
Instrument: HP-GC/MS/IRD
Origin: NIST Mass Spectrometry Data Center
1/CM	ABSORBANCE
550	0.0008183
562	0.0003332
574	0.0002205
586	0.0002107
598	0.0001764
610	0.0001813
622	0.0001323
634	0.0001176
646	9.31e-05
658	0.0001715
670	6.86e-05
682	5.88e-05
694	0.0001715
706	0.0002107
718	5.39e-05
730	0.0001666
742	7.35e-05
754	0.0001862
766	0.0002352
778	0.0003479
790	0.0004508
802	0.0005586
814	0.0008232
826	0.0009016
838	0.0008624
850	0.001127
862	0.0024206
874	0.0066248
886	0.0125391
898	0.0121961
910	0.0060662
922	0.0023961
934	0.001421
946	0.0010192
958	0.0006713
970	0.0006076
982	0.0006566
994	0.000735
1006	0.0006958
1018	0.0005537
1030	0.0004557
1042	0.000392
1054	0.000343
1066	0.0002891
1078	0.0004557
1090	0.0007154
1102	0.001127
1114	0.0011956
1126	0.0006615
1138	0.0006027
1150	0.0011319
1162	0.0019306
1174	0.0016219
1186	0.000686
1198	0.0004214
1210	0.0007252
1222	0.0010045
1234	0.0009947
1246	0.0008183
1258	0.0011466
1270	0.0014063
1282	0.0014161
1294	0.0011466
1306	0.001029
1318	0.001225
1330	0.0017983
1342	0.0023324
1354	0.0032438
1366	0.0056987
1378	0.0078841
1390	0.0067767
1402	0.0037681
1414	0.002793
1426	0.0036211
1438	0.0054145
1450	0.0077028
1462	0.0084819
1474	0.0067914
1486	0.0038416
1498	0.001862
1510	0.0011221
1522	0.0008428
1534	0.0007105
1546	0.0007105
1558	0.0007056
1570	0.0008134
1582	0.0008526
1594	0.0009898
1606	0.001323
1618	0.0021217
1630	0.0037828
1642	0.0054684
1654	0.0050127
1666	0.0026509
1678	0.0010143
1690	0.0005243
1702	0.0003528
1714	0.0002499
1726	0.0002058
1738	0.000196
1750	0.0002695
1762	0.0003969
1774	0.0006958
1786	0.0010927
1798	0.0009163
1810	0.00049
1822	0.0002401
1834	0.0001568
1846	0.0001127
1858	8.33e-05
1870	0.0001029
1882	9.8e-05
1894	9.31e-05
1906	0.0001029
1918	5.39e-05
1930	4.41e-05
1942	6.37e-05
1954	6.37e-05
1966	3.92e-05
1978	2.94e-05
1990	3.92e-05
2002	0
2014	2.45e-05
2026	2.94e-05
2038	3.43e-05
2050	4.9e-05
2062	3.92e-05
2074	3.92e-05
2086	5.88e-05
2098	5.88e-05
2110	4.9e-05
2122	4.41e-05
2134	3.92e-05
2146	3.43e-05
2158	6.86e-05
2170	5.39e-05
2182	5.88e-05
2194	0.0001029
2206	0.0001078
2218	0.0001029
2230	6.86e-05
2242	5.39e-05
2254	5.39e-05
2266	7.35e-05
2278	7.84e-05
2290	7.35e-05
2302	8.33e-05
2314	7.84e-05
2326	9.31e-05
2338	7.35e-05
2350	8.33e-05
2362	6.86e-05
2374	0.0001176
2386	0.000147
2398	0.0001323
2410	0.0001421
2422	0.000196
2434	0.0001862
2446	0.0001911
2458	0.0001764
2470	0.0001568
2482	0.0002156
2494	0.0002058
2506	0.0002107
2518	0.0002205
2530	0.0002205
2542	0.0002156
2554	0.0002793
2566	0.0003038
2578	0.0003479
2590	0.0003528
2602	0.000392
2614	0.0003969
2626	0.0004508
2638	0.0005194
2650	0.0005047
2662	0.0005292
2674	0.0005145
2686	0.0005047
2698	0.0006223
2710	0.000784
2722	0.0010486
2734	0.001274
2746	0.0012593
2758	0.0011662
2770	0.0012201
2782	0.0014602
2794	0.0017738
2806	0.0022785
2818	0.0032144
2830	0.0047971
2842	0.0068796
2854	0.009065
2866	0.0134456
2878	0.0185661
2890	0.0214522
2902	0.0244608
2914	0.0291599
2926	0.0318647
2938	0.0327908
2950	0.0379064
2962	0.0487648
2974	0.0422821
2986	0.0229565
2998	0.0099078
3010	0.0056399
3022	0.0037387
3034	0.0029106
3046	0.002989
3058	0.0042777
3070	0.007742
3082	0.0089621
3094	0.0058065
3106	0.0024108
3118	0.0015092
3130	0.001274
3142	0.0010878
3154	0.0009555
3166	0.0008526
3178	0.0008281
3190	0.000735
3202	0.0006076
3214	0.0005586
3226	0.0004361
3238	0.0003626
3250	0.0003234
3262	0.0003185
3274	0.0003528
3286	0.0003332
3298	0.0003038
3310	0.0002989
3322	0.0002842
3334	0.0003038
3346	0.0002891
3358	0.0002205
3370	0.0002695
3382	0.0002254
3394	0.0002548
3406	0.0001911
3418	0.0002009
3430	0.0001715
3442	7.35e-05
3454	0.0001274
3466	0.0001323
3478	0.0001372
3490	0.000147
3502	9.31e-05
3514	8.82e-05
3526	0.0001323
3538	8.82e-05
3550	0.0001127
3562	9.31e-05
3574	8.82e-05
3586	8.33e-05
3598	3.43e-05
3610	7.35e-05
3622	5.39e-05
3634	6.86e-05
3646	6.37e-05
3658	0.0001421
3670	9.8e-05
3682	9.8e-05
3694	5.39e-05
3706	0.0001029
3718	5.39e-05
3730	0.0001323
3742	0.000147
3754	0.000147
3766	0.0002303
3778	0.000196
3790	0.0001568
3802	0.0001813
3814	0.0002254
3826	0.0002254
3838	0.000147
