Infrared Spectrum: 3,5-Dichlorosulphanilamide
Formula: C 6 H 6 Cl 2 N 2 O 2 S
CAS: 22134-75-4
State: gas
Origin: EPA-IR VAPOR PHASE LIBRARY
1/CM	ABSORBANCE
549.9	0.002655
559.547	0.003685
569.193	0.007525
578.84	0.012045
588.486	0.007815
598.133	0.005455
607.779	0.003835
617.426	0.002475
627.072	0.002065
636.719	0.001955
646.365	0.0018581
656.012	0.001885
665.658	0.001925
675.305	0.002095
684.951	0.002225
694.598	0.002345
704.245	0.002485
713.891	0.002765
723.538	0.002905
733.184	0.002645
742.831	0.002795
752.477	0.002755
762.124	0.002705
771.77	0.003155
781.417	0.004645
791.063	0.006035
800.71	0.004535
810.356	0.003525
820.003	0.003785
829.649	0.004235
839.296	0.005365
848.943	0.004555
858.589	0.003015
868.236	0.003045
877.882	0.004925
887.529	0.005645
897.175	0.003875
906.822	0.002405
916.468	0.0017643
926.115	0.001549
935.761	0.001272
945.408	0.0012445
955.054	0.0010858
964.701	0.0010526
974.347	0.0010905
983.994	0.0009773
993.64	0.00088235
1003.29	0.00095849
1012.93	0.00090967
1022.58	0.000870846
1032.23	0.0008469
1041.87	0.00093233
1051.52	0.0011789
1061.17	0.0017995
1070.81	0.002815
1080.46	0.002845
1090.11	0.001915
1099.75	0.0018279
1109.4	0.002075
1119.05	0.002875
1128.69	0.004715
1138.34	0.003435
1147.99	0.002625
1157.63	0.004245
1167.28	0.010575
1176.92	0.022495
1186.57	0.012655
1196.22	0.004005
1205.86	0.002275
1215.51	0.0015868
1225.16	0.001915
1234.8	0.0015797
1244.45	0.0011497
1254.1	0.0013578
1263.74	0.0011769
1273.39	0.0013009
1283.04	0.001955
1292.68	0.002705
1302.33	0.0018278
1311.98	0.0012572
1321.62	0.001117
1331.27	0.0011893
1340.92	0.0015732
1350.56	0.002395
1360.21	0.004115
1369.86	0.005825
1379.5	0.010215
1389.15	0.010695
1398.79	0.008435
1408.44	0.004385
1418.09	0.002115
1427.73	0.0015442
1437.38	0.0017212
1447.03	0.002215
1456.67	0.002775
1466.32	0.005525
1475.97	0.006485
1485.61	0.003775
1495.26	0.001965
1504.91	0.0012231
1514.55	0.0012457
1524.2	0.0013978
1533.85	0.0017105
1543.49	0.002465
1553.14	0.003395
1562.79	0.002915
1572.43	0.001905
1582.08	0.0017396
1591.73	0.002255
1601.37	0.004865
1611.02	0.009985
1620.67	0.007605
1630.31	0.003925
1639.96	0.002305
1649.6	0.0014605
1659.25	0.0010997
1668.9	0.0010366
1678.54	0.0009961
1688.19	0.0007953
1697.84	0.0007906
1707.48	0.0008127
1717.13	0.0008019
1726.78	0.000732
1736.42	0.000682
1746.07	0.000603
1755.72	0.000674
1765.36	0.0009188
1775.01	0.00093307
1784.66	0.00089634
1794.3	0.0008003
1803.95	0.0008219
1813.6	0.000706
1823.24	0.000642
1832.89	0.000613
1842.54	0.000669
1852.18	0.000704
1861.83	0.000641
1871.47	0.000651
1881.12	0.000634
1890.77	0.000615
1900.41	0.000574
1910.06	0.000633
1919.71	0.000662
1929.35	0.000582
1939	0.000587
1948.65	0.000601
1958.29	0.000605
1967.94	0.000612
1977.59	0.000586
1987.23	0.000648
1996.88	0.000672
2006.53	0.000611
2016.17	0.000717
2025.82	0.00056
2035.47	0.000653
2045.11	0.000573
2054.76	0.000552
2064.41	0.000614
2074.05	0.000597
2083.7	0.000605
2093.35	0.000599
2102.99	0.00065
2112.64	0.000577
2122.28	0.000586
2131.93	0.000599
2141.58	0.000594
2151.22	0.000634
2160.87	0.000604
2170.52	0.000623
2180.16	0.000569
2189.81	0.000635
2199.46	0.000602
2209.1	0.000613
2218.75	0.000515
2228.4	0.000579
2238.04	0.000543
2247.69	0.000529
2257.34	0.00057
2266.98	0.000558
2276.63	0.000576
2286.28	0.000581
2295.92	0.000628
2305.57	0.000641
2315.22	0.000639
2324.86	0.000599
2334.51	0.000618
2344.16	0.00059
2353.8	0.000572
2363.45	0.000532
2373.09	0.000548
2382.74	0.000543
2392.39	0.000576
2402.03	0.000528
2411.68	0.00048
2421.33	0.000572
2430.97	0.000556
2440.62	0.000556
2450.27	0.000586
2459.91	0.000555
2469.56	0.000518
2479.21	0.000451
2488.85	0.000526
2498.5	0.000572
2508.15	0.000603
2517.79	0.000545
2527.44	0.000512
2537.09	0.00062
2546.73	0.000558
2556.38	0.00049
2566.03	0.000503
2575.67	0.00054
2585.32	0.000521
2594.96	0.000638
2604.61	0.000604
2614.26	0.000582
2623.9	0.000638
2633.55	0.000389
2643.2	0.000492
2652.84	0.000405
2662.49	0.00041
2672.14	0.000544
2681.78	0.00051
2691.43	0.000443
2701.08	0.000382
2710.72	0.000468
2720.37	0.000465
2730.02	0.000397
2739.66	0.000356
2749.31	0.00036
2758.96	0.00045
2768.6	0.000501
2778.25	0.000481
2787.9	0.000444
2797.54	0.000334
2807.19	0.000217
2816.84	0.000319
2826.48	0.000349
2836.13	0.00032
2845.77	0.000233
2855.42	0.000266
2865.07	0.00029
2874.71	0.000372
2884.36	0.000339
2894.01	0.000261
2903.65	0.000351
2913.3	0.000266
2922.95	0.000315
2932.59	0.000401
2942.24	0.00031
2951.89	0.000196
2961.53	0.000249
2971.18	0.000264
2980.83	0.000169
2990.47	0.000281
3000.12	0.000267
3009.77	0.000294
3019.41	0.000285
3029.06	0.00022
3038.71	0.00043
3048.35	0.000274
3058	0.000202
3067.64	0.000321
3077.29	0.000432
3086.94	0.000431
3096.58	0.00048
3106.23	0.000285
3115.88	0.000331
3125.52	0.000319
3135.17	0.00017
3144.82	0.000431
3154.46	0.000249
3164.11	0.000392
3173.76	0.000211
3183.4	0.000353
3193.05	0.000312
3202.7	8e-05
3212.34	0.000311
3221.99	0.000243
3231.64	5.7e-05
3241.28	0.000208
3250.93	0.000377
3260.58	0.000342
3270.22	0.000307
3279.87	0.000257
3289.52	0.000407
3299.16	7e-05
3308.81	0.000274
3318.45	0.000442
3328.1	0.000485
3337.75	0.000368
3347.39	0.0009279
3357.04	0.0013771
3366.69	0.002125
3376.33	0.002145
3385.98	0.0017549
3395.63	0.0015386
3405.27	0.001955
3414.92	0.002665
3424.57	0.002675
3434.21	0.002395
3443.86	0.0014419
3453.51	0.0013877
3463.15	0.0016865
3472.8	0.0017501
3482.45	0.0017125
3492.09	0.0016141
3501.74	0.001945
3511.39	0.002055
3521.03	0.002115
3530.68	0.002085
3540.33	0.0017954
3549.97	0.0011101
3559.62	0.000485
3569.26	0.000588
3578.91	0.000353
3588.56	0.000456
3598.2	0.000646
3607.85	0.000699
3617.5	0.000669
3627.14	0.000528
3636.79	0.000599
3646.44	0.000408
3656.08	0.000516
3665.73	0.000589
3675.38	0.000466
3685.02	0.000708
3694.67	0.000608
3704.32	0.000429
3713.96	0.000613
3723.61	0.000702
3733.26	0.000522
3742.9	0.000697
3752.55	0.0004
3762.2	0.000585
3771.84	0.000366
3781.49	0.000457
3791.13	0.000561
3800.78	0.000521
3810.43	0.000436
3820.07	0.000502
3829.72	0.000536
3839.37	0.000578
3849.01	0.000511
3858.66	0.000405
3868.31	0.000516
3877.95	0.000522
3887.6	0.000575
3897.25	0.00053
3906.89	0.000546
3916.54	0.000476
3926.19	0.000473
3935.83	0.000496
3945.48	0.000563
3955.13	0.000531
3964.77	0.000522
3974.42	0.000506
3984.07	0.000428
3993.71	0.000624
