Infrared Spectrum: 3-Bromopropyl isocyanate
Formula: C 4 H 6 Br N O
CAS: 22130-49-0
State: gas
Origin: EPA-IR VAPOR PHASE LIBRARY
1/CM	ABSORBANCE
501.5	0
513.074	0.000311
524.648	0.0013998
536.222	0.00228
547.796	0.00407
559.37	0.00757
570.944	0.01503
582.518	0.02049
594.092	0.02266
605.666	0.03109
617.24	0.02972
628.814	0.02245
640.388	0.0166
651.962	0.01363
663.536	0.01111
675.11	0.00734
686.684	0.0052
698.258	0.00398
709.832	0.0033
721.406	0.00294
732.98	0.00286
744.554	0.00337
756.128	0.0047
767.702	0.0053
779.276	0.00459
790.85	0.0048
802.423	0.00621
813.997	0.00955
825.571	0.01389
837.145	0.01509
848.719	0.01177
860.293	0.0106
871.867	0.01099
883.441	0.01044
895.015	0.01277
906.589	0.01239
918.163	0.00593
929.737	0.00411
941.311	0.00422
952.885	0.00575
964.459	0.00994
976.033	0.01489
987.607	0.01151
999.181	0.00685
1010.76	0.00708
1022.33	0.00786
1033.9	0.00569
1045.48	0.00376
1057.05	0.00418
1068.63	0.00541
1080.2	0.00417
1091.77	0.00257
1103.35	0.00222
1114.92	0.00237
1126.49	0.00316
1138.07	0.00434
1149.64	0.00548
1161.22	0.00588
1172.79	0.00596
1184.36	0.00806
1195.94	0.01236
1207.51	0.01524
1219.09	0.01439
1230.66	0.01008
1242.23	0.01275
1253.81	0.02783
1265.38	0.03363
1276.96	0.02516
1288.53	0.02364
1300.1	0.01722
1311.68	0.01098
1323.25	0.01062
1334.83	0.01523
1346.4	0.03222
1357.97	0.05059
1369.55	0.03955
1381.12	0.0228
1392.7	0.01122
1404.27	0.00911
1415.84	0.01288
1427.42	0.02057
1438.99	0.02794
1450.57	0.02387
1462.14	0.01876
1473.71	0.01583
1485.29	0.00776
1496.86	0.00398
1508.44	0.00268
1520.01	0.00223
1531.58	0.0019837
1543.16	0.0017596
1554.73	0.0016244
1566.31	0.0015648
1577.88	0.0015305
1589.45	0.0015473
1601.03	0.0015105
1612.6	0.0013724
1624.18	0.0012608
1635.75	0.00115921
1647.32	0.00108863
1658.9	0.00107978
1670.47	0.00106157
1682.05	0.0010452
1693.62	0.0010397
1705.19	0.00105213
1716.77	0.00106232
1728.34	0.0010138
1739.92	0.0010259
1751.49	0.0009939
1763.06	0.0010064
1774.64	0.0010382
1786.21	0.001044
1797.79	0.00110164
1809.36	0.00112447
1820.93	0.00112846
1832.51	0.00109613
1844.08	0.00110665
1855.66	0.00106269
1867.23	0.00108906
1878.8	0.00112241
1890.38	0.00114546
1901.95	0.00114342
1913.53	0.001176
1925.1	0.0012129
1936.67	0.001285
1948.25	0.001336
1959.82	0.0013898
1971.4	0.0015456
1982.97	0.0017212
1994.54	0.0019077
2006.12	0.00215
2017.69	0.00249
2029.27	0.00282
2040.84	0.00326
2052.41	0.00381
2063.99	0.0046
2075.56	0.0058
2087.14	0.00733
2098.71	0.0089
2110.28	0.0103
2121.86	0.01156
2133.43	0.01316
2145.01	0.01567
2156.58	0.02023
2168.15	0.02818
2179.73	0.04045
2191.3	0.05691
2202.88	0.07845
2214.45	0.10934
2226.02	0.16261
2237.6	0.26608
2249.17	0.44133
2260.74	0.6407
2272.32	0.7516
2283.89	0.66115
2295.47	0.43629
2307.04	0.22818
2318.61	0.12396
2330.19	0.08265
2341.76	0.06288
2353.34	0.04719
2364.91	0.0346
2376.48	0.02723
2388.06	0.02348
2399.63	0.02146
2411.21	0.01967
2422.78	0.01707
2434.35	0.01418
2445.93	0.01135
2457.5	0.00889
2469.08	0.00695
2480.65	0.00573
2492.22	0.00493
2503.8	0.00431
2515.37	0.00359
2526.95	0.00303
2538.52	0.00264
2550.09	0.0023
2561.67	0.0020455
2573.24	0.0019279
2584.82	0.0019321
2596.39	0.0019309
2607.96	0.0019445
2619.54	0.0019651
2631.11	0.0019124
2642.69	0.0018802
2654.26	0.0018504
2665.83	0.0018597
2677.41	0.0019041
2688.98	0.00216
2700.56	0.00238
2712.13	0.00236
2723.7	0.00209
2735.28	0.0019142
2746.85	0.0018316
2758.43	0.0017987
2770	0.001791
2781.57	0.0018768
2793.15	0.0020237
2804.72	0.00227
2816.3	0.0027
2827.87	0.0035
2839.44	0.00462
2851.02	0.00591
2862.59	0.0077
2874.17	0.01056
2885.74	0.01452
2897.31	0.01851
2908.89	0.02092
2920.46	0.02149
2932.04	0.02073
2943.61	0.02663
2955.18	0.0397
2966.76	0.04574
2978.33	0.03609
2989.91	0.0208
3001.48	0.01153
3013.05	0.00944
3024.63	0.00871
3036.2	0.00611
3047.78	0.00434
3059.35	0.00374
3070.92	0.00354
3082.5	0.00352
3094.07	0.00383
3105.65	0.0041
3117.22	0.00416
3128.79	0.00391
3140.37	0.00394
3151.94	0.00406
3163.52	0.00401
3175.09	0.00351
3186.66	0.00273
3198.24	0.00226
3209.81	0.0020374
3221.39	0.0019645
3232.96	0.0021
3244.53	0.00212
3256.11	0.0020241
3267.68	0.0018742
3279.26	0.0015793
3290.83	0.001326
3302.4	0.00114067
3313.98	0.0010153
3325.55	0.000958
3337.13	0.000876
3348.7	0.000908
3360.27	0.00092
3371.85	0.000905
3383.42	0.000932
3395	0.000901
3406.57	0.0010482
3418.14	0.00106193
3429.72	0.00105654
3441.29	0.0010507
3452.86	0.0010387
3464.44	0.0010147
3476.01	0.00108009
3487.59	0.00115952
3499.16	0.0012446
3510.73	0.0013904
3522.31	0.0015151
3533.88	0.001676
3545.46	0.0019166
3557.03	0.00214
3568.6	0.00242
3580.18	0.00264
3591.75	0.00293
3603.33	0.00329
3614.9	0.00355
3626.47	0.00403
3638.05	0.00453
3649.62	0.00538
3661.2	0.00618
3672.77	0.007
3684.34	0.00747
3695.92	0.00761
3707.49	0.00722
3719.07	0.00633
3730.64	0.00511
3742.21	0.00423
3753.79	0.00357
3765.36	0.00314
3776.94	0.00283
3788.51	0.00252
3800.08	0.00224
3811.66	0.0020525
3823.23	0.0019388
3834.81	0.0017836
3846.38	0.0017114
3857.95	0.0016735
3869.53	0.0015644
3881.1	0.0015262
3892.68	0.0015066
3904.25	0.0013814
3915.82	0.0013729
3927.4	0.0013796
3938.97	0.0013909
3950.55	0.0013905
3962.12	0.0013222
3973.69	0.0013788
3985.27	0.0013342
3996.84	0.0013423
