Infrared Spectrum: Methyl 3-chloro-4-methylcarbanilate
Formula: C 9 H 10 Cl N O 2
CAS: 22133-20-6
State: gas
Origin: EPA-IR VAPOR PHASE LIBRARY
1/CM	ABSORBANCE
549.8	0.00386
559.445	0.00289
569.09	0.0036
578.734	0.00353
588.379	0.00218
598.024	0.00177
607.669	0.00159
617.313	0.0010776
626.958	0.0009862
636.603	0.0009124
646.248	0.0008353
655.893	0.0008179
665.537	0.0009314
675.182	0.0017
684.827	0.00465
694.472	0.00575
704.116	0.00321
713.761	0.00224
723.406	0.00219
733.051	0.00251
742.695	0.00288
752.34	0.00275
761.985	0.00426
771.63	0.00613
781.275	0.00455
790.919	0.00477
800.564	0.00671
810.209	0.00603
819.854	0.00475
829.498	0.00329
839.143	0.00317
848.788	0.00447
858.433	0.00469
868.078	0.00525
877.722	0.00616
887.367	0.00567
897.012	0.00713
906.657	0.0073
916.301	0.00536
925.946	0.00377
935.591	0.0043
945.236	0.00629
954.88	0.00664
964.525	0.00385
974.17	0.00263
983.815	0.00252
993.46	0.00354
1003.1	0.0036
1012.75	0.00257
1022.39	0.00251
1032.04	0.00384
1041.68	0.0092
1051.33	0.0174
1060.97	0.01971
1070.62	0.02753
1080.26	0.02093
1089.91	0.00967
1099.55	0.00531
1109.2	0.0037
1118.84	0.00372
1128.49	0.00366
1138.13	0.00437
1147.78	0.00644
1157.42	0.00818
1167.07	0.01076
1176.71	0.01873
1186.36	0.04541
1196	0.10187
1205.64	0.09947
1215.29	0.07072
1224.93	0.02839
1234.58	0.01947
1244.22	0.01936
1253.87	0.01301
1263.51	0.01473
1273.16	0.01962
1282.8	0.01563
1292.45	0.01815
1302.09	0.01743
1311.74	0.01741
1321.38	0.01947
1331.03	0.01885
1340.67	0.01406
1350.32	0.00918
1359.96	0.00804
1369.61	0.0122
1379.25	0.01985
1388.9	0.02048
1398.54	0.01782
1408.18	0.00854
1417.83	0.00654
1427.47	0.00775
1437.12	0.01262
1446.76	0.01833
1456.41	0.01745
1466.05	0.01776
1475.7	0.02166
1485.34	0.03075
1494.99	0.0544
1504.63	0.08845
1514.28	0.08698
1523.92	0.058
1533.57	0.02879
1543.21	0.0155
1552.86	0.01206
1562.5	0.0136
1572.15	0.02062
1581.79	0.02457
1591.44	0.01788
1601.08	0.017
1610.73	0.02472
1620.37	0.0153
1630.01	0.00575
1639.66	0.00374
1649.3	0.00306
1658.95	0.00297
1668.59	0.00303
1678.24	0.00315
1687.88	0.00329
1697.53	0.0036
1707.17	0.00447
1716.82	0.00621
1726.46	0.00838
1736.11	0.01359
1745.75	0.02561
1755.4	0.05767
1765.04	0.07778
1774.69	0.0547
1784.33	0.02003
1793.98	0.01143
1803.62	0.00695
1813.27	0.00436
1822.91	0.00359
1832.55	0.00273
1842.2	0.00215
1851.84	0.00201
1861.49	0.00185
1871.13	0.00167
1880.78	0.0016
1890.42	0.00151
1900.07	0.00133
1909.71	0.001097
1919.36	0.0011296
1929	0.0011366
1938.65	0.0011192
1948.29	0.0009757
1957.94	0.0008849
1967.58	0.0008499
1977.23	0.0008248
1986.87	0.0007952
1996.52	0.0007088
2006.16	0.0007481
2015.81	0.0006202
2025.45	0.0007083
2035.1	0.0007359
2044.74	0.0006167
2054.38	0.0006708
2064.03	0.0007669
2073.67	0.0007676
2083.32	0.000731
2092.96	0.0007822
2102.61	0.0008496
2112.25	0.0009118
2121.9	0.0010248
2131.54	0.00129
2141.19	0.00152
2150.83	0.00158
2160.48	0.00143
2170.12	0.00126
2179.77	0.00124
2189.41	0.00127
2199.06	0.00136
2208.7	0.00145
2218.35	0.00165
2227.99	0.00189
2237.64	0.00228
2247.28	0.00296
2256.92	0.00432
2266.57	0.00781
2276.21	0.0097
2285.86	0.0062
2295.5	0.00329
2305.15	0.00224
2314.79	0.00176
2324.44	0.00148
2334.08	0.00147
2343.73	0.00141
2353.37	0.00133
2363.02	0.00128
2372.66	0.0010642
2382.31	0.0009122
2391.95	0.0008045
2401.6	0.0008531
2411.24	0.0008665
2420.89	0.0008168
2430.53	0.0007625
2440.18	0.0008013
2449.82	0.0008047
2459.47	0.0007502
2469.11	0.0006514
2478.75	0.0005591
2488.4	0.0006449
2498.04	0.00063
2507.69	0.000692
2517.33	0.0006821
2526.98	0.0006694
2536.62	0.0006777
2546.27	0.0006579
2555.91	0.000645
2565.56	0.0006522
2575.2	0.0007363
2584.85	0.0007453
2594.49	0.0008022
2604.14	0.0006643
2613.78	0.0006959
2623.43	0.0005874
2633.07	0.0006634
2642.72	0.000479
2652.36	0.0007024
2662.01	0.0006756
2671.65	0.0006001
2681.29	0.0005815
2690.94	0.0007038
2700.58	0.0007687
2710.23	0.0007653
2719.87	0.0006559
2729.52	0.0007357
2739.16	0.0007519
2748.81	0.0008357
2758.45	0.0008835
2768.1	0.0007563
2777.74	0.0006728
2787.39	0.0006451
2797.03	0.0007831
2806.68	0.0009376
2816.32	0.0010092
2825.97	0.00134
2835.61	0.00165
2845.26	0.00276
2854.9	0.00338
2864.55	0.00302
2874.19	0.00334
2883.84	0.00313
2893.48	0.00323
2903.12	0.00394
2912.77	0.0043
2922.41	0.00518
2932.06	0.00757
2941.7	0.00837
2951.35	0.00855
2960.99	0.01359
2970.64	0.01198
2980.28	0.00715
2989.93	0.00586
2999.57	0.00514
3009.22	0.00461
3018.86	0.00462
3028.51	0.00583
3038.15	0.00588
3047.8	0.00476
3057.44	0.00374
3067.09	0.00299
3076.73	0.00255
3086.38	0.00215
3096.02	0.00213
3105.67	0.00196
3115.31	0.00153
3124.95	0.00132
3134.6	0.0011454
3144.24	0.0007236
3153.89	0.0008833
3163.53	0.0007122
3173.18	0.0004613
3182.82	0.000501
3192.47	0.0006148
3202.11	0.0005313
3211.76	0.0005779
3221.4	0.0005785
3231.05	0.0005256
3240.69	0.0004126
3250.34	0.0004707
3259.98	0.0004359
3269.63	0.0003956
3279.27	0.0003616
3288.92	0.0004437
3298.56	0.000377
3308.21	0.0003111
3317.85	0.0003111
3327.49	0.0003526
3337.14	0.0003779
3346.78	0.0003975
3356.43	0.00029968
3366.07	0.00029824
3375.72	0.0004516
3385.36	0.0005182
3395.01	0.0004756
3404.65	0.000374
3414.3	0.0007249
3423.94	0.0008894
3433.59	0.00179
3443.23	0.00312
3452.88	0.00489
3462.52	0.00765
3472.17	0.00744
3481.81	0.00376
3491.46	0.00171
3501.1	0.0013
3510.75	0.001065
3520.39	0.0009915
3530.04	0.0006645
3539.68	0.0005587
3549.32	0.0005154
3558.97	0.0003566
3568.61	0.0003544
3578.26	0.0004881
3587.9	0.00027699
3597.55	0.0005182
3607.19	0.0003298
3616.84	0.0001686
3626.48	0.0003493
3636.13	0.00023381
3645.77	0.0003308
3655.42	0.00027797
3665.06	0.0003451
3674.71	0.0001889
3684.35	0.000415
3694	0.0005194
3703.64	0.0003952
3713.29	8.1e-05
3722.93	0.0004334
3732.58	0.00024412
3742.22	0.0004223
3751.86	0.0001803
3761.51	0.000451
3771.15	0.00022333
3780.8	0.0004819
3790.44	0.00028603
3800.09	0.0004031
3809.73	0.00022331
3819.38	0.0001427
3829.02	0.0001582
3838.67	0.000117
3848.31	0.0003189
3857.96	0.0004397
3867.6	0.00026448
3877.25	0.0005716
3886.89	0.00026435
3896.54	0.000209547
3906.18	0.0005125
3915.83	0.0004729
3925.47	0.00028895
3935.12	0.0003885
3944.76	0.0003975
3954.41	0.0008068
3964.05	0.0005591
3973.69	0.0003699
3983.34	0.0003245
3992.98	0.0003639
