Infrared Spectrum: 2,4,6-Triclhorophenyl isothiocyanate
Formula: C 7 H 2 Cl 3 N S
CAS: 22134-07-2
State: gas
Origin: EPA-IR VAPOR PHASE LIBRARY
1/CM	ABSORBANCE
549.8	0.021556
559.445	0.020716
569.09	0.009426
578.734	0.005216
588.379	0.004436
598.024	0.002706
607.669	0.002976
617.313	0.003136
626.958	0.002226
636.603	0.0013628
646.248	0.0011647
655.893	0.0009458
665.537	0.001446
675.182	0.003386
684.827	0.002256
694.472	0.003446
704.116	0.010616
713.761	0.005466
723.406	0.002106
733.051	0.003586
742.695	0.002196
752.34	0.0006978
761.985	0.0010193
771.63	0.001776
781.275	0.004366
790.919	0.014396
800.564	0.026016
810.209	0.034686
819.854	0.050686
829.498	0.024986
839.143	0.007626
848.788	0.013736
858.433	0.031896
868.078	0.015636
877.722	0.005306
887.367	0.006116
897.012	0.008606
906.657	0.009776
916.301	0.008486
925.946	0.010596
935.591	0.021296
945.236	0.043796
954.88	0.035516
964.525	0.014656
974.17	0.006136
983.815	0.003286
993.46	0.002096
1003.1	0.001616
1012.75	0.0009254
1022.39	0.0007798
1032.04	0.0011488
1041.68	0.002046
1051.33	0.001786
1060.97	0.001866
1070.62	0.005496
1080.26	0.016976
1089.91	0.011146
1099.55	0.001916
1109.2	0.0012185
1118.84	0.002546
1128.49	0.004756
1138.13	0.006566
1147.78	0.012246
1157.42	0.011406
1167.07	0.002536
1176.71	0.002956
1186.36	0.005536
1196	0.005236
1205.64	0.005606
1215.29	0.004206
1224.93	0.002546
1234.58	0.002476
1244.22	0.003266
1253.87	0.002426
1263.51	0.002376
1273.16	0.002466
1282.8	0.0013137
1292.45	0.0010398
1302.09	0.0010105
1311.74	0.0008669
1321.38	0.0010234
1331.03	0.0013692
1340.67	0.001676
1350.32	0.003506
1359.96	0.010386
1369.61	0.018916
1379.25	0.024086
1388.9	0.025756
1398.54	0.014316
1408.18	0.014986
1417.83	0.029136
1427.47	0.025756
1437.12	0.037466
1446.76	0.080256
1456.41	0.058226
1466.05	0.037576
1475.7	0.012886
1485.34	0.005316
1494.99	0.004206
1504.63	0.004816
1514.28	0.005766
1523.92	0.007566
1533.57	0.018646
1543.21	0.036656
1552.86	0.025026
1562.5	0.011906
1572.15	0.010986
1581.79	0.007396
1591.44	0.003246
1601.08	0.002166
1610.73	0.001796
1620.37	0.0014155
1630.01	0.001556
1639.66	0.001486
1649.3	0.001155
1658.95	0.0008958
1668.59	0.0009124
1678.24	0.0010768
1687.88	0.001249
1697.53	0.001696
1707.17	0.002556
1716.82	0.004506
1726.46	0.005356
1736.11	0.003756
1745.75	0.002266
1755.4	0.002166
1765.04	0.002456
1774.69	0.002346
1784.33	0.002346
1793.98	0.002266
1803.62	0.002306
1813.27	0.002136
1822.91	0.002096
1832.55	0.002296
1842.2	0.002706
1851.84	0.003336
1861.49	0.004376
1871.13	0.005656
1880.78	0.007786
1890.42	0.009936
1900.07	0.010456
1909.71	0.010586
1919.36	0.011806
1929	0.014776
1938.65	0.019536
1948.29	0.026546
1957.94	0.036606
1967.58	0.049936
1977.23	0.067376
1986.87	0.091936
1996.52	0.129596
2006.16	0.177526
2015.81	0.231606
2025.45	0.297436
2035.1	0.383236
2044.74	0.487036
2054.38	0.452666
2064.03	0.287756
2073.67	0.186296
2083.32	0.148296
2092.96	0.162196
2102.61	0.204696
2112.25	0.215236
2121.9	0.164706
2131.54	0.094116
2141.19	0.051156
2150.83	0.037986
2160.48	0.034816
2170.12	0.030006
2179.77	0.023326
2189.41	0.018976
2199.06	0.016466
2208.7	0.015836
2218.35	0.015986
2227.99	0.013716
2237.64	0.008936
2247.28	0.005426
2256.92	0.003946
2266.57	0.003216
2276.21	0.002676
2285.86	0.002506
2295.5	0.002606
2305.15	0.002536
2314.79	0.002586
2324.44	0.002596
2334.08	0.002846
2343.73	0.003366
2353.37	0.003846
2363.02	0.004216
2372.66	0.004556
2382.31	0.004346
2391.95	0.003446
2401.6	0.002726
2411.24	0.002446
2420.89	0.002596
2430.53	0.002816
2440.18	0.002496
2449.82	0.002126
2459.47	0.001926
2469.11	0.002056
2478.75	0.002176
2488.4	0.002486
2498.04	0.002826
2507.69	0.003176
2517.33	0.003606
2526.98	0.003756
2536.62	0.003706
2546.27	0.003536
2555.91	0.002866
2565.56	0.002136
2575.2	0.001896
2584.85	0.001986
2594.49	0.002426
2604.14	0.002496
2613.78	0.002646
2623.43	0.002946
2633.07	0.003506
2642.72	0.004566
2652.36	0.006336
2662.01	0.008636
2671.65	0.009706
2681.29	0.007676
2690.94	0.004596
2700.58	0.002776
2710.23	0.002046
2719.87	0.001786
2729.52	0.001696
2739.16	0.0013097
2748.81	0.0010939
2758.45	0.000975
2768.1	0.0010264
2777.74	0.001231
2787.39	0.001263
2797.03	0.0008838
2806.68	0.0007672
2816.32	0.0009086
2825.97	0.0012468
2835.61	0.0013383
2845.26	0.001476
2854.9	0.001456
2864.55	0.001516
2874.19	0.001466
2883.84	0.0011569
2893.48	0.0009476
2903.12	0.0009685
2912.77	0.0010387
2922.41	0.0013093
2932.06	0.0012254
2941.7	0.0013209
2951.35	0.0013339
2960.99	0.001343
2970.64	0.001686
2980.28	0.001986
2989.93	0.002266
2999.57	0.002246
3009.22	0.001846
3018.86	0.0012733
3028.51	0.0010336
3038.15	0.0010771
3047.8	0.0008397
3057.44	0.0009315
3067.09	0.0008807
3076.73	0.0009228
3086.38	0.0012912
3096.02	0.0009837
3105.67	0.0006907
3115.31	0.0007636
3124.95	0.00082
3134.6	0.0003746
3144.24	0.0003985
3153.89	0.00027
3163.53	0.000166
3173.18	0.000166
3182.82	0.000164
3192.47	0.00018
3202.11	9e-05
3211.76	0.000208
3221.4	0.000232
3231.05	0.000171
3240.69	1.7e-05
3250.34	0.000179
3259.98	0.000252
3269.63	0.00019
3279.27	0.000236
3288.92	0.0003818
3298.56	0.000174
3308.21	0.000232
3317.85	0.000298
3327.49	8.4e-05
3337.14	0.000212
3346.78	0.0003507
3356.43	0.000227
3366.07	9.5e-05
3375.72	0.00023
3385.36	0.00015
3395.01	0.000440599
3404.65	0.00033
3414.3	0.00043166
3423.94	0.0003942
3433.59	0.000307
3443.23	0.000311
3452.88	0.000264
3462.52	0.00028
3472.17	0.0005586
3481.81	0.0005985
3491.46	0.00052076
3501.1	0.00033
3510.75	0.0006273
3520.39	0.000333
3530.04	0.0003526
3539.68	0.00045059
3549.32	0.0006724
3558.97	0.000363
3568.61	0.0003863
3578.26	0.0004007
3587.9	0.00042672
3597.55	0.000443907
3607.19	0.00047051
3616.84	0.0003817
3626.48	0.00051502
3636.13	0.000322
3645.77	0.000328
3655.42	0.00042655
3665.06	0.00053506
3674.71	0.0004009
3684.35	0.000335
3694	0.0003465
3703.64	0.000441677
3713.29	0.0004068
3722.93	0.000333
3732.58	0.0006028
3742.22	0.00051928
3751.86	0.00046672
3761.51	0.00050619
3771.15	0.0004051
3780.8	0.0003942
3790.44	0.000571
3800.09	0.0005272
3809.73	0.00051039
3819.38	0.00051576
3829.02	0.0006305
3838.67	0.000724
3848.31	0.0005867
3857.96	0.0007243
3867.6	0.0007458
3877.25	0.0006338
3886.89	0.0008565
3896.54	0.0006654
3906.18	0.0009843
3915.83	0.0009725
3925.47	0.0008565
3935.12	0.0010769
3944.76	0.0009836
3954.41	0.0011419
3964.05	0.0013092
3973.69	0.0012454
3983.34	0.0014031
3992.98	0.001586
