Infrared Spectrum: 1-Phenyl-1-butanol
Formula: C 10 H 14 O
CAS: 22144-60-1
State: gas
Instrument: HP-GC/MS/IRD
Origin: NIST Mass Spectrometry Data Center
1/CM	ABSORBANCE
550	0.002676
562	0.00098
574	7.6e-05
586	7.8e-05
598	0.000356
610	0.000552
622	0.00104
634	0.000464
646	0.000368
658	0.000984
670	0.001784
682	0.004058
694	0.011086
706	0.009924
718	0.004
730	0.003526
742	0.004834
754	0.006318
766	0.004618
778	0.001766
790	0.000792
802	0.000548
814	0.000598
826	0.000784
838	0.000572
850	0.000868
862	0.001066
874	0.000846
886	0.00094
898	0.001484
910	0.001446
922	0.000954
934	0.000822
946	0.00142
958	0.002174
970	0.002486
982	0.003004
994	0.004662
1006	0.007854
1018	0.010556
1030	0.008782
1042	0.00521
1054	0.004896
1066	0.004728
1078	0.00359
1090	0.00331
1102	0.004008
1114	0.003392
1126	0.002094
1138	0.0013
1150	0.001338
1162	0.001898
1174	0.002726
1186	0.003058
1198	0.003306
1210	0.003442
1222	0.003014
1234	0.002768
1246	0.002872
1258	0.003166
1270	0.003858
1282	0.004328
1294	0.004146
1306	0.00373
1318	0.003362
1330	0.003218
1342	0.003136
1354	0.003634
1366	0.004466
1378	0.004838
1390	0.00384
1402	0.002332
1414	0.001618
1426	0.00166
1438	0.002696
1450	0.004496
1462	0.004454
1474	0.002968
1486	0.002776
1498	0.002488
1510	0.000826
1522	0.000428
1534	0.000392
1546	0.000296
1558	0.0002
1570	0.000204
1582	0.000418
1594	0.000914
1606	0.000998
1618	0.00023
1630	1.2e-05
1642	4.4e-05
1654	6.4e-05
1666	0.00014
1678	0.00016
1690	0.000328
1702	0.000498
1714	0.000282
1726	8.6e-05
1738	0.000132
1750	0.000166
1762	5.6e-05
1774	7.6e-05
1786	0.000262
1798	0.000588
1810	0.000326
1822	9e-05
1834	2.2e-05
1846	5.8e-05
1858	0.000206
1870	0.000364
1882	0.000424
1894	0.000282
1906	0.000112
1918	9.2e-05
1930	0.000354
1942	0.000582
1954	0.000552
1966	0.00025
1978	5.4e-05
1990	3.6e-05
2002	2e-06
2014	1.8e-05
2026	5.4e-05
2038	3.2e-05
2050	6e-05
2062	3e-05
2074	1.4e-05
2086	1.4e-05
2098	2.4e-05
2110	5.4e-05
2122	3.8e-05
2134	4.2e-05
2146	4.8e-05
2158	5e-05
2170	7e-05
2182	5.4e-05
2194	4.2e-05
2206	4.8e-05
2218	6.6e-05
2230	6.4e-05
2242	5e-05
2254	7.8e-05
2266	8e-05
2278	6.2e-05
2290	8.2e-05
2302	0.000112
2314	0.00018
2326	0.000202
2338	0.000214
2350	0.000198
2362	0.000216
2374	0.00015
2386	0.000122
2398	0.00013
2410	0.000154
2422	0.000112
2434	0.000108
2446	0.000126
2458	0.000112
2470	8.4e-05
2482	0.000106
2494	0.000102
2506	7.6e-05
2518	8e-05
2530	0.000108
2542	0.000124
2554	0.000182
2566	0.00019
2578	0.000228
2590	0.000236
2602	0.000222
2614	0.000232
2626	0.000262
2638	0.000256
2650	0.000278
2662	0.000294
2674	0.000304
2686	0.000346
2698	0.00035
2710	0.000348
2722	0.000388
2734	0.000494
2746	0.000572
2758	0.000568
2770	0.000628
2782	0.00071
2794	0.000884
2806	0.001056
2818	0.001342
2830	0.001748
2842	0.002748
2854	0.004588
2866	0.007682
2878	0.011798
2890	0.011582
2902	0.009218
2914	0.010674
2926	0.014104
2938	0.018274
2950	0.016856
2962	0.01836
2974	0.017846
2986	0.007174
2998	0.003738
3010	0.003512
3022	0.005382
3034	0.007756
3046	0.00623
3058	0.005722
3070	0.00838
3082	0.006642
3094	0.00426
3106	0.002524
3118	0.001344
3130	0.000684
3142	0.000432
3154	0.000414
3166	0.000416
3178	0.000328
3190	0.000278
3202	0.000196
3214	0.000158
3226	0.000148
3238	9e-05
3250	9.4e-05
3262	0.000102
3274	0.000112
3286	0.000106
3298	9.6e-05
3310	8.8e-05
3322	4.6e-05
3334	9.6e-05
3346	0.000138
3358	0.000184
3370	0.00019
3382	0.000172
3394	0.00013
3406	0.00017
3418	0.000158
3430	0.000144
3442	0.000198
3454	0.00017
3466	0.00016
3478	9.8e-05
3490	0.000154
3502	0.000126
3514	8.2e-05
3526	0.000106
3538	7.6e-05
3550	0.0001
3562	0.000136
3574	0.00014
3586	0.000128
3598	0.000242
3610	0.000362
3622	0.000708
3634	0.002002
3646	0.003812
3658	0.00274
3670	0.001078
3682	0.000458
3694	0.000314
3706	0.000246
3718	0.000168
3730	0.000112
3742	0.00015
3754	0.000126
3766	0.000202
3778	0.00015
3790	0.000126
3802	0.00017
3814	0.000212
3826	0.000158
3838	0.00017
