Infrared Spectrum: ELAIDIC ACID, BUTYL ESTER
Formula: C22 H42 O2
CAS: 22147-33-7
State: SOLUTION (8.4% CS2 FOR 5000-2380 AND 1390-625, 8.4% C2Cl4 FOR 2380-1390 CM^-^1)
Boiling point: 166 C AT 0.3 mmHg
Class: COBLENTZ
Instrument: PERKIN-ELMER
Sampling: TRANSMISSION
Path length: 0.01 CM, 0.01 CM
Resolution: 4
Origin: HORMEL INSTITUTE
MICROMETERS	TRANSMITTANCE
2.034	0.938
2.06789	0.94
2.10178	0.94
2.13567	0.94
2.16956	0.94
2.20345	0.938
2.23734	0.938
2.27123	0.932
2.30512	0.913
2.33901	0.901
2.3729	0.906
2.40679	0.91
2.44068	0.911
2.47457	0.916
2.50846	0.92
2.54235	0.923
2.57624	0.927
2.61013	0.93
2.64402	0.932
2.67791	0.933
2.7118	0.932
2.74569	0.932
2.77958	0.932
2.81347	0.932
2.84736	0.927
2.88125	0.922
2.91514	0.908
2.94903	0.908
2.98292	0.915
3.01681	0.916
3.0507	0.916
3.08459	0.916
3.11848	0.916
3.15237	0.916
3.18626	0.913
3.22015	0.911
3.25404	0.908
3.28794	0.891
3.32183	0.803
3.35572	0.616
3.38961	0.277
3.4235	0.066
3.45739	0.123
3.49128	0.294
3.52517	0.245
3.55906	0.681
3.59295	0.811
3.62684	0.859
3.66073	0.883
3.69462	0.889
3.72851	0.891
3.7624	0.889
3.79629	0.898
3.83018	0.906
3.86407	0.911
3.89796	0.916
3.93185	0.92
3.96574	0.922
3.99963	0.923
4.03352	0.93
4.06741	0.932
4.1013	0.933
4.13519	0.935
4.16908	0.937
4.20297	0.938
4.23686	0.938
4.27075	0.937
4.30464	0.938
4.33853	0.94
4.37242	0.94
4.40631	0.944
4.4402	0.944
4.47409	0.944
4.50798	0.945
4.54187	0.944
4.57576	0.944
4.60965	0.944
4.64354	0.944
4.67743	0.944
4.71132	0.944
4.74521	0.944
4.7791	0.942
4.81299	0.942
4.84688	0.94
4.88077	0.94
4.91466	0.938
4.94855	0.938
4.98244	0.938
5.01633	0.938
5.05022	0.94
5.08411	0.942
5.118	0.942
5.15189	0.944
5.18578	0.94
5.21967	0.94
5.25356	0.94
5.28745	0.94
5.32134	0.944
5.35523	0.94
5.38912	0.94
5.42301	0.937
5.4569	0.933
5.49079	0.93
5.52468	0.922
5.55857	0.915
5.59246	0.896
5.62635	0.869
5.66024	0.815
5.69413	0.593
5.72802	0.181
5.76191	0.111
5.79581	0.371
5.8297	0.652
5.86359	0.745
5.89748	0.801
5.93137	0.83
5.96526	0.861
5.99915	0.872
6.03304	0.877
6.06693	0.883
6.10082	0.891
6.13471	0.893
6.1686	0.9
6.20249	0.903
6.23638	0.908
6.27027	0.91
6.30416	0.911
6.33805	0.913
6.37194	0.915
6.40583	0.915
6.43972	0.915
6.47361	0.913
6.5075	0.915
6.54139	0.913
6.57528	0.911
6.60917	0.908
6.64306	0.903
6.67695	0.893
6.71084	0.871
6.74473	0.815
6.77862	0.681
6.81251	0.381
6.8464	0.383
6.88029	0.474
6.91418	0.579
6.94807	0.588
6.98196	0.672
7.01585	0.71
7.04974	0.73
7.08363	0.779
7.11752	0.781
7.15141	0.713
7.1853	0.638
7.21919	0.62
7.25308	0.584
7.28697	0.601
7.32086	0.6
7.35475	0.584
7.38864	0.583
7.42253	0.603
7.45642	0.633
7.49031	0.664
7.5242	0.674
7.55809	0.662
7.59198	0.645
7.62587	0.622
7.65976	0.613
7.69365	0.616
7.72754	0.632
7.76143	0.64
7.79532	0.625
7.82921	0.6
7.8631	0.584
7.89699	0.579
7.93088	0.559
7.96477	0.544
7.99866	0.505
8.03255	0.469
8.06644	0.459
8.10033	0.483
8.13422	0.52
8.16811	0.538
8.202	0.549
8.23589	0.549
8.26978	0.538
8.30368	0.52
8.33757	0.496
8.37146	0.449
8.40535	0.4
8.43924	0.352
8.47313	0.31
8.50702	0.296
8.54091	0.298
8.5748	0.322
8.60869	0.372
8.64258	0.422
8.67647	0.464
8.71036	0.505
8.74425	0.554
8.77814	0.601
8.81203	0.64
8.84592	0.657
8.87981	0.64
8.9137	0.613
8.94759	0.611
8.98148	0.647
9.01537	0.681
9.04926	0.696
9.08315	0.683
9.11704	0.667
9.15093	0.662
9.18482	0.666
9.21871	0.683
9.2526	0.689
9.28649	0.694
9.32038	0.684
9.35427	0.676
9.38816	0.671
9.42205	0.683
9.45594	0.735
9.48983	0.766
9.52372	0.791
9.55761	0.798
9.5915	0.796
9.62539	0.786
9.65928	0.772
9.69317	0.764
9.72706	0.75
9.76095	0.733
9.79484	0.737
9.82873	0.752
9.86262	0.764
9.89651	0.769
9.9304	0.772
9.96429	0.779
9.99818	0.786
10.0321	0.791
10.066	0.793
10.0999	0.789
10.1337	0.783
10.1676	0.769
10.2015	0.74
10.2354	0.689
10.2693	0.583
10.3032	0.477
10.3371	0.371
10.371	0.384
10.4049	0.557
10.4388	0.666
10.4726	0.722
10.5065	0.75
10.5404	0.764
10.5743	0.774
10.6082	0.793
10.6421	0.813
10.676	0.828
10.7099	0.837
10.7438	0.842
10.7777	0.85
10.8115	0.852
10.8454	0.855
10.8793	0.857
10.9132	0.859
10.9471	0.864
10.981	0.867
11.0149	0.869
11.0488	0.869
11.0827	0.869
11.1166	0.869
11.1504	0.869
11.1843	0.869
11.2182	0.869
11.2521	0.869
11.286	0.869
11.3199	0.869
11.3538	0.869
11.3877	0.869
11.4216	0.869
11.4555	0.869
11.4893	0.867
11.5232	0.867
11.5571	0.867
11.591	0.867
11.6249	0.869
11.6588	0.871
11.6927	0.872
11.7266	0.877
11.7605	0.881
11.7944	0.883
11.8282	0.883
11.8621	0.877
11.896	0.869
11.9299	0.866
11.9638	0.866
11.9977	0.869
12.0316	0.872
12.0655	0.877
12.0994	0.877
12.1333	0.879
12.1672	0.879
12.201	0.879
12.2349	0.881
12.2688	0.881
12.3027	0.883
12.3366	0.881
12.3705	0.881
12.4044	0.881
12.4383	0.881
12.4722	0.881
12.5061	0.883
12.5399	0.883
12.5738	0.881
12.6077	0.883
12.6416	0.881
12.6755	0.881
12.7094	0.881
12.7433	0.881
12.7772	0.881
12.8111	0.879
12.845	0.879
12.8788	0.877
12.9127	0.877
12.9466	0.877
12.9805	0.876
13.0144	0.872
13.0483	0.871
13.0822	0.869
13.1161	0.867
13.15	0.866
13.1839	0.862
13.2177	0.859
13.2516	0.855
13.2855	0.852
13.3194	0.85
13.3533	0.849
13.3872	0.847
13.4211	0.842
13.455	0.838
13.4889	0.832
13.5228	0.823
13.5566	0.81
13.5905	0.798
13.6244	0.796
13.6583	0.796
13.6922	0.796
13.7261	0.791
13.76	0.786
13.7939	0.767
13.8278	0.752
13.8617	0.742
13.8955	0.749
13.9294	0.769
13.9633	0.793
13.9972	0.808
14.0311	0.823
14.065	0.837
14.0989	0.842
14.1328	0.849
14.1667	0.855
14.2006	0.861
14.2344	0.866
14.2683	0.869
14.3022	0.874
14.3361	0.879
14.37	0.881
14.4039	0.884
14.4378	0.886
14.4717	0.891
14.5056	0.894
14.5395	0.898
14.5734	0.898
14.6072	0.901
14.6411	0.905
14.675	0.906
14.7089	0.906
14.7428	0.908
14.7767	0.908
14.8106	0.91
14.8445	0.91
14.8784	0.91
14.9123	0.91
14.9461	0.908
14.98	0.906
15.0139	0.916
