Infrared Spectrum: 4-Phenoxybenzoic acid
Formula: C13 H10 O3
CAS: 2215-77-2
State: gas
Origin: EPA-IR VAPOR PHASE LIBRARY
1/CM	ABSORBANCE
549.8	0.009091
559.445	0.011491
569.09	0.013321
578.734	0.009641
588.379	0.012821
598.024	0.010601
607.669	0.011111
617.313	0.013801
626.958	0.006451
636.603	0.005511
646.248	0.004351
655.893	0.003391
665.537	0.004111
675.182	0.006831
684.827	0.016091
694.472	0.021911
704.116	0.018591
713.761	0.020881
723.406	0.014391
733.051	0.008981
742.695	0.010731
752.34	0.016501
761.985	0.022251
771.63	0.018961
781.275	0.010941
790.919	0.008721
800.564	0.007861
810.209	0.005781
819.854	0.004611
829.498	0.003581
839.143	0.005421
848.788	0.010151
858.433	0.016961
868.078	0.032201
877.722	0.017431
887.367	0.005091
897.012	0.004081
906.657	0.003951
916.301	0.002671
925.946	0.002021
935.591	0.001441
945.236	0.001411
954.88	0.001731
964.525	0.002201
974.17	0.002411
983.815	0.002421
993.46	0.002641
1003.1	0.004761
1012.75	0.011901
1022.39	0.009391
1032.04	0.006201
1041.68	0.006151
1051.33	0.009281
1060.97	0.022621
1070.62	0.066841
1080.26	0.097291
1089.91	0.032971
1099.55	0.015001
1109.2	0.011051
1118.84	0.009341
1128.49	0.009581
1138.13	0.013301
1147.78	0.026861
1157.42	0.085601
1167.07	0.076631
1176.71	0.050011
1186.36	0.064881
1196	0.034681
1205.64	0.022871
1215.29	0.027351
1224.93	0.056761
1234.58	0.124871
1244.22	0.227201
1253.87	0.127191
1263.51	0.042471
1273.16	0.026621
1282.8	0.021691
1292.45	0.022291
1302.09	0.022581
1311.74	0.023171
1321.38	0.028801
1331.03	0.029991
1340.67	0.020611
1350.32	0.022871
1359.96	0.034331
1369.61	0.028521
1379.25	0.011401
1388.9	0.006481
1398.54	0.005731
1408.18	0.008081
1417.83	0.011011
1427.47	0.006951
1437.12	0.005131
1446.76	0.006061
1456.41	0.008961
1466.05	0.013301
1475.7	0.022221
1485.34	0.068081
1494.99	0.085801
1504.63	0.050021
1514.28	0.025701
1523.92	0.011851
1533.57	0.008331
1543.21	0.006871
1552.86	0.006981
1562.5	0.010841
1572.15	0.025821
1581.79	0.061501
1591.44	0.072901
1601.08	0.042591
1610.73	0.031691
1620.37	0.016731
1630.01	0.006551
1639.66	0.004311
1649.3	0.003631
1658.95	0.003441
1668.59	0.003591
1678.24	0.003851
1687.88	0.004291
1697.53	0.005041
1707.17	0.006721
1716.82	0.009601
1726.46	0.011021
1736.11	0.019291
1745.75	0.057111
1755.4	0.172261
1765.04	0.107781
1774.69	0.030321
1784.33	0.013991
1793.98	0.008851
1803.62	0.005851
1813.27	0.004471
1822.91	0.003731
1832.55	0.002791
1842.2	0.002011
1851.84	0.001971
1861.49	0.001871
1871.13	0.001831
1880.78	0.001681
1890.42	0.001691
1900.07	0.002131
1909.71	0.002781
1919.36	0.003171
1929	0.003111
1938.65	0.002791
1948.29	0.002621
1957.94	0.002481
1967.58	0.002031
1977.23	0.001421
1986.87	0.001291
1996.52	0.0010726
2006.16	0.0010635
2015.81	0.001341
2025.45	0.002041
2035.1	0.002191
2044.74	0.002051
2054.38	0.001761
2064.03	0.001541
2073.67	0.001291
2083.32	0.0009194
2092.96	0.000839
2102.61	0.000792
2112.25	0.0007809
2121.9	0.0007
2131.54	0.0007962
2141.19	0.0008785
2150.83	0.0008564
2160.48	0.0008303
2170.12	0.0006237
2179.77	0.0005253
2189.41	0.0003769
2199.06	0.0005064
2208.7	0.0006194
2218.35	0.000625
2227.99	0.0006061
2237.64	0.0004947
2247.28	0.0004846
2256.92	0.0005304
2266.57	0.0004638
2276.21	0.000536
2285.86	0.0006076
2295.5	0.000691
2305.15	0.0007743
2314.79	0.0009296
2324.44	0.0010195
2334.08	0.0007611
2343.73	0.0008888
2353.37	0.0010225
2363.02	0.001251
2372.66	0.001211
2382.31	0.001241
2391.95	0.001471
2401.6	0.001831
2411.24	0.001711
2420.89	0.001771
2430.53	0.002061
2440.18	0.002191
2449.82	0.001701
2459.47	0.001181
2469.11	0.001331
2478.75	0.001241
2488.4	0.0009819
2498.04	0.0008047
2507.69	0.0007973
2517.33	0.0008183
2526.98	0.000824
2536.62	0.0008392
2546.27	0.0008625
2555.91	0.0008869
2565.56	0.0010965
2575.2	0.0011562
2584.85	0.0010411
2594.49	0.0009271
2604.14	0.0008836
2613.78	0.0008481
2623.43	0.0004904
2633.07	0.0004212
2642.72	0.0003577
2652.36	0.0002648
2662.01	0.0003603
2671.65	0.0003414
2681.29	0.0004818
2690.94	0.0006116
2700.58	0.0004194
2710.23	0.0003674
2719.87	0.0003681
2729.52	0.0004258
2739.16	0.0004297
2748.81	0.0004654
2758.45	0.0004671
2768.1	0.0003472
2777.74	0.000446
2787.39	0.0003229
2797.03	0.0003726
2806.68	0.0003324
2816.32	0.0004076
2825.97	0.0004146
2835.61	0.0006749
2845.26	0.0005804
2854.9	0.0005973
2864.55	0.0004615
2874.19	0.0004114
2883.84	0.0004361
2893.48	0.000382
2903.12	0.0005064
2912.77	0.0005861
2922.41	0.0005131
2932.06	0.00025038
2941.7	0.000609
2951.35	0.000667
2960.99	0.0003676
2970.64	0.0004074
2980.28	0.0004235
2989.93	0.0005197
2999.57	0.0008851
3009.22	0.001541
3018.86	0.002351
3028.51	0.003211
3038.15	0.005261
3047.8	0.007241
3057.44	0.006421
3067.09	0.007051
3076.73	0.010391
3086.38	0.009591
3096.02	0.005981
3105.67	0.004311
3115.31	0.002261
3124.95	0.001171
3134.6	0.0006356
3144.24	0.0004912
3153.89	0.0005171
3163.53	0.0005397
3173.18	0.0003977
3182.82	0.0004819
3192.47	0.0004588
3202.11	0.0003248
3211.76	0.0003364
3221.4	0.0003282
3231.05	0.0003204
3240.69	7.94e-05
3250.34	0.000113
3259.98	0.0001082
3269.63	0.00017771
3279.27	0.0001138
3288.92	0.000167609
3298.56	0.00015512
3308.21	0.00024092
3317.85	0.00018575
3327.49	0.0002393
3337.14	8.36e-05
3346.78	0.0001294
3356.43	0.0002748
3366.07	0.0004391
3375.72	0.000388
3385.36	0.00018616
3395.01	0.000170801
3404.65	0.00016145
3414.3	0.0002052
3423.94	0.00024089
3433.59	0.0001467
3443.23	0.00024675
3452.88	0.0003436
3462.52	0.0004468
3472.17	0.0004345
3481.81	0.0007101
3491.46	0.0011339
3501.1	0.001361
3510.75	0.0009052
3520.39	0.0008447
3530.04	0.0008414
3539.68	0.0008562
3549.32	0.0008942
3558.97	0.001851
3568.61	0.006321
3578.26	0.034531
3587.9	0.051861
3597.55	0.006391
3607.19	0.001831
3616.84	0.0009134
3626.48	0.0006389
3636.13	0.0005954
3645.77	0.0004724
3655.42	0.0003234
3665.06	0.0004462
3674.71	0.0005572
3684.35	0.0004164
3694	0.0003435
3703.64	0.0005211
3713.29	0.0004019
3722.93	0.00022225
3732.58	0.00024943
3742.22	0.00025539
3751.86	0.0002649
3761.51	0.00032
3771.15	0.00023267
3780.8	0.00024592
3790.44	0.00024979
3800.09	0.0002792
3809.73	0.0003923
3819.38	0.0004008
3829.02	0.00021567
3838.67	0.0003049
3848.31	0.0003473
3857.96	0.0003272
3867.6	0.00020078
3877.25	0.0001265
3886.89	0.0003133
3896.54	0.00015238
3906.18	0.00023568
3915.83	0.00020396
3925.47	0.00024561
3935.12	0.0003088
3944.76	0.0002484
3954.41	0.0003692
3964.05	0.00024675
3973.69	0.0003112
3983.34	0.0003209
3992.98	0.0003274
