Infrared Spectrum: N,N-Diethyl-4-nitroaniline
Formula: C 10 H 14 N 2 O 2
CAS: 2216-15-1
State: gas
Origin: EPA-IR VAPOR PHASE LIBRARY
1/CM	ABSORBANCE
549.8	0.003349
559.445	0.002519
569.09	0.002359
578.734	0.003689
588.379	0.008759
598.024	0.012369
607.669	0.007779
617.313	0.004179
626.958	0.003299
636.603	0.003099
646.248	0.002469
655.893	0.002209
665.537	0.002129
675.182	0.004009
684.827	0.008519
694.472	0.009179
704.116	0.005569
713.761	0.003369
723.406	0.007299
733.051	0.013459
742.695	0.013979
752.34	0.019409
761.985	0.008649
771.63	0.003629
781.275	0.005289
790.919	0.008559
800.564	0.008439
810.209	0.010339
819.854	0.024409
829.498	0.033929
839.143	0.021549
848.788	0.034679
858.433	0.030199
868.078	0.006809
877.722	0.004029
887.367	0.004469
897.012	0.006799
906.657	0.005059
916.301	0.003079
925.946	0.002829
935.591	0.003029
945.236	0.003969
954.88	0.003539
964.525	0.003109
974.17	0.003439
983.815	0.004329
993.46	0.008279
1003.1	0.015829
1012.75	0.019589
1022.39	0.014829
1032.04	0.010089
1041.68	0.009369
1051.33	0.011479
1060.97	0.016509
1070.62	0.025559
1080.26	0.026609
1089.91	0.024359
1099.55	0.035309
1109.2	0.092779
1118.84	0.088639
1128.49	0.020869
1138.13	0.014869
1147.78	0.023799
1157.42	0.024679
1167.07	0.016399
1176.71	0.022319
1186.36	0.041369
1196	0.058949
1205.64	0.037229
1215.29	0.019249
1224.93	0.016399
1234.58	0.018909
1244.22	0.028589
1253.87	0.058349
1263.51	0.121699
1273.16	0.107449
1282.8	0.045899
1292.45	0.034699
1302.09	0.040969
1311.74	0.061439
1321.38	0.107419
1331.03	0.225419
1340.67	0.390919
1350.32	0.250379
1359.96	0.083479
1369.61	0.050699
1379.25	0.060029
1388.9	0.055679
1398.54	0.044169
1408.18	0.032339
1417.83	0.022059
1427.47	0.020469
1437.12	0.020389
1446.76	0.021039
1456.41	0.023549
1466.05	0.026109
1475.7	0.028599
1485.34	0.034239
1494.99	0.067409
1504.63	0.156109
1514.28	0.179159
1523.92	0.144559
1533.57	0.095819
1543.21	0.049619
1552.86	0.032839
1562.5	0.032159
1572.15	0.050019
1581.79	0.107539
1591.44	0.211559
1601.08	0.214559
1610.73	0.087999
1620.37	0.037149
1630.01	0.022279
1639.66	0.014429
1649.3	0.010019
1658.95	0.007089
1668.59	0.005129
1678.24	0.004209
1687.88	0.003719
1697.53	0.003299
1707.17	0.003219
1716.82	0.003169
1726.46	0.003649
1736.11	0.004179
1745.75	0.004279
1755.4	0.003139
1765.04	0.002359
1774.69	0.002249
1784.33	0.002219
1793.98	0.002119
1803.62	0.001949
1813.27	0.001739
1822.91	0.001719
1832.55	0.002029
1842.2	0.002819
1851.84	0.002759
1861.49	0.002249
1871.13	0.002449
1880.78	0.003099
1890.42	0.004149
1900.07	0.004269
1909.71	0.002909
1919.36	0.001889
1929	0.001559
1938.65	0.001609
1948.29	0.001619
1957.94	0.001709
1967.58	0.001709
1977.23	0.001689
1986.87	0.001999
1996.52	0.002189
2006.16	0.001769
2015.81	0.0011919
2025.45	0.000907
2035.1	0.0007852
2044.74	0.0008218
2054.38	0.0009272
2064.03	0.0010641
2073.67	0.0012004
2083.32	0.001269
2092.96	0.001479
2102.61	0.001889
2112.25	0.001929
2121.9	0.001559
2131.54	0.001229
2141.19	0.0008638
2150.83	0.0007899
2160.48	0.00083
2170.12	0.0009297
2179.77	0.0010047
2189.41	0.0011173
2199.06	0.0011009
2208.7	0.0010686
2218.35	0.001289
2227.99	0.001509
2237.64	0.001329
2247.28	0.0011885
2256.92	0.0009714
2266.57	0.0009958
2276.21	0.0008579
2285.86	0.0009401
2295.5	0.0010625
2305.15	0.0012185
2314.79	0.001429
2324.44	0.001639
2334.08	0.001549
2343.73	0.001539
2353.37	0.001389
2363.02	0.001459
2372.66	0.001609
2382.31	0.001819
2391.95	0.001799
2401.6	0.001669
2411.24	0.001609
2420.89	0.001789
2430.53	0.002169
2440.18	0.003019
2449.82	0.003899
2459.47	0.003639
2469.11	0.002669
2478.75	0.002159
2488.4	0.002009
2498.04	0.002179
2507.69	0.002259
2517.33	0.002129
2526.98	0.002099
2536.62	0.002119
2546.27	0.002139
2555.91	0.002419
2565.56	0.002369
2575.2	0.002489
2584.85	0.002919
2594.49	0.003599
2604.14	0.004279
2613.78	0.003889
2623.43	0.003169
2633.07	0.003219
2642.72	0.003419
2652.36	0.003309
2662.01	0.003049
2671.65	0.002769
2681.29	0.002819
2690.94	0.002779
2700.58	0.002669
2710.23	0.002729
2719.87	0.002669
2729.52	0.002549
2739.16	0.002809
2748.81	0.002739
2758.45	0.002929
2768.1	0.003309
2777.74	0.003709
2787.39	0.004169
2797.03	0.004979
2806.68	0.006099
2816.32	0.007569
2825.97	0.009689
2835.61	0.011999
2845.26	0.014059
2854.9	0.016289
2864.55	0.018849
2874.19	0.023409
2883.84	0.029399
2893.48	0.029549
2903.12	0.027739
2912.77	0.026759
2922.41	0.026959
2932.06	0.034749
2941.7	0.045229
2951.35	0.038679
2960.99	0.032169
2970.64	0.046839
2980.28	0.071489
2989.93	0.060599
2999.57	0.027659
3009.22	0.014149
3018.86	0.009289
3028.51	0.006999
3038.15	0.005909
3047.8	0.005239
3057.44	0.005079
3067.09	0.005359
3076.73	0.006509
3086.38	0.008659
3096.02	0.009359
3105.67	0.006469
3115.31	0.005039
3124.95	0.003579
3134.6	0.002299
3144.24	0.001989
3153.89	0.001709
3163.53	0.001639
3173.18	0.001839
3182.82	0.002249
3192.47	0.001969
3202.11	0.001599
3211.76	0.0011428
3221.4	0.0009096
3231.05	0.0006753
3240.69	0.0005896
3250.34	0.0004923
3259.98	0.0004468
3269.63	0.0005057
3279.27	0.0005004
3288.92	0.0005609
3298.56	0.00029847
3308.21	0.0003944
3317.85	0.0004653
3327.49	0.0003322
3337.14	0.0003535
3346.78	0.00031358
3356.43	0.00024087
3366.07	0.0004738
3375.72	0.0003407
3385.36	0.0004585
3395.01	0.0004262
3404.65	0.000349
3414.3	0.0003907
3423.94	0.0003966
3433.59	0.00030991
3443.23	0.000321
3452.88	0.0005685
3462.52	0.00024253
3472.17	0.0003632
3481.81	0.0004504
3491.46	0.000221796
3501.1	0.00030033
3510.75	0.00027234
3520.39	0.0003414
3530.04	0.00025892
3539.68	0.00029131
3549.32	0.0003526
3558.97	0.00030419
3568.61	0.000223074
3578.26	0.00021255
3587.9	0.0003489
3597.55	4.7e-05
3607.19	0.0003645
3616.84	0.0003417
3626.48	0.0003206
3636.13	0.00026466
3645.77	0.0004936
3655.42	0.00024066
3665.06	0.00026282
3674.71	0.0002955
3684.35	0.000397
3694	0.0004499
3703.64	0.0005124
3713.29	0.0005216
3722.93	0.0004475
3732.58	0.0004415
3742.22	0.0004972
3751.86	0.0006084
3761.51	0.0005293
3771.15	0.0003669
3780.8	0.0005246
3790.44	0.000395
3800.09	0.0003984
3809.73	0.0003864
3819.38	0.0004295
3829.02	0.0003385
3838.67	0.00042
3848.31	0.0003917
3857.96	0.0005486
3867.6	0.0003805
3877.25	0.000341
3886.89	0.0004638
3896.54	0.0003499
3906.18	0.0005346
3915.83	0.0003603
3925.47	0.0005803
3935.12	0.0005153
3944.76	0.0005899
3954.41	0.0004396
3964.05	0.0005552
3973.69	0.0005919
3983.34	0.0006315
3992.98	0.0006921
