Infrared Spectrum: N-Phenylglycine
Formula: C8 H9 N O2
CAS: 2216-92-4
State: gas
Origin: EPA-IR VAPOR PHASE LIBRARY
1/CM	ABSORBANCE
549.8	0.00954
559.445	0.0095
569.09	0.01
578.734	0.01141
588.379	0.01153
598.024	0.01098
607.669	0.01068
617.313	0.01079
626.958	0.01108
636.603	0.01109
646.248	0.01138
655.893	0.01275
665.537	0.01585
675.182	0.023
684.827	0.0374
694.472	0.03735
704.116	0.02504
713.761	0.01957
723.406	0.02061
733.051	0.03025
742.695	0.05234
752.34	0.052
761.985	0.02796
771.63	0.01582
781.275	0.01227
790.919	0.01145
800.564	0.01025
810.209	0.00988
819.854	0.00949
829.498	0.00876
839.143	0.00902
848.788	0.00972
858.433	0.01101
868.078	0.01183
877.722	0.01064
887.367	0.00763
897.012	0.00731
906.657	0.00917
916.301	0.01075
925.946	0.01046
935.591	0.00869
945.236	0.00709
954.88	0.00631
964.525	0.0064
974.17	0.00709
983.815	0.0093
993.46	0.01329
1003.1	0.01475
1012.75	0.02414
1022.39	0.04328
1032.04	0.05147
1041.68	0.04139
1051.33	0.02653
1060.97	0.02122
1070.62	0.02184
1080.26	0.02067
1089.91	0.02623
1099.55	0.03497
1109.2	0.03555
1118.84	0.04309
1128.49	0.05
1138.13	0.05335
1147.78	0.05762
1157.42	0.06791
1167.07	0.09794
1176.71	0.15396
1186.36	0.18808
1196	0.21298
1205.64	0.21674
1215.29	0.14497
1224.93	0.09783
1234.58	0.09103
1244.22	0.09155
1253.87	0.08113
1263.51	0.07029
1273.16	0.06148
1282.8	0.05123
1292.45	0.04635
1302.09	0.05648
1311.74	0.07338
1321.38	0.05564
1331.03	0.03557
1340.67	0.04754
1350.32	0.06001
1359.96	0.03215
1369.61	0.04182
1379.25	0.03939
1388.9	0.01958
1398.54	0.0171
1408.18	0.01521
1417.83	0.0166
1427.47	0.022
1437.12	0.02688
1446.76	0.02857
1456.41	0.03327
1466.05	0.02742
1475.7	0.02863
1485.34	0.03897
1494.99	0.08091
1504.63	0.13966
1514.28	0.09052
1523.92	0.03239
1533.57	0.01826
1543.21	0.01438
1552.86	0.0142
1562.5	0.01467
1572.15	0.01716
1581.79	0.02947
1591.44	0.06507
1601.08	0.11898
1610.73	0.09703
1620.37	0.03968
1630.01	0.0165
1639.66	0.00983
1649.3	0.00748
1658.95	0.00665
1668.59	0.00681
1678.24	0.00736
1687.88	0.00811
1697.53	0.00971
1707.17	0.01321
1716.82	0.0185
1726.46	0.02617
1736.11	0.04511
1745.75	0.09935
1755.4	0.17514
1765.04	0.16216
1774.69	0.07808
1784.33	0.03332
1793.98	0.01981
1803.62	0.0141
1813.27	0.01094
1822.91	0.00865
1832.55	0.00695
1842.2	0.00526
1851.84	0.00418
1861.49	0.00374
1871.13	0.00358
1880.78	0.00358
1890.42	0.00409
1900.07	0.00465
1909.71	0.00534
1919.36	0.00493
1929	0.00437
1938.65	0.00323
1948.29	0.00243
1957.94	0.0022
1967.58	0.00215
1977.23	0.00218
1986.87	0.00215
1996.52	0.0021
2006.16	0.00209
2015.81	0.00216
2025.45	0.00229
2035.1	0.00243
2044.74	0.00249
2054.38	0.00248
2064.03	0.0022
2073.67	0.00211
2083.32	0.00195
2092.96	0.00191
2102.61	0.00179
2112.25	0.00171
2121.9	0.00152
2131.54	0.00146
2141.19	0.00136
2150.83	0.00121
2160.48	0.00117
2170.12	0.00114
2179.77	0.00116
2189.41	0.00125
2199.06	0.00109
2208.7	0.00111
2218.35	0.00112
2227.99	0.00121
2237.64	0.00124
2247.28	0.00107
2256.92	0.00121
2266.57	0.00114
2276.21	0.00114
2285.86	0.00114
2295.5	0.00117
2305.15	0.00144
2314.79	0.00153
2324.44	0.00141
2334.08	0.00148
2343.73	0.00147
2353.37	0.00147
2363.02	0.00151
2372.66	0.00139
2382.31	0.00144
2391.95	0.00171
2401.6	0.00179
2411.24	0.00183
2420.89	0.00151
2430.53	0.00131
2440.18	0.00117
2449.82	0.00125
2459.47	0.0013
2469.11	0.00125
2478.75	0.00114
2488.4	0.00117
2498.04	0.00106
2507.69	0.00113
2517.33	0.00124
2526.98	0.00116
2536.62	0.00122
2546.27	0.00141
2555.91	0.00176
2565.56	0.00197
2575.2	0.00183
2584.85	0.00149
2594.49	0.0015
2604.14	0.00127
2613.78	0.00137
2623.43	0.00129
2633.07	0.00132
2642.72	0.00134
2652.36	0.00131
2662.01	0.0013
2671.65	0.0013
2681.29	0.00147
2690.94	0.00136
2700.58	0.00133
2710.23	0.00125
2719.87	0.00141
2729.52	0.00148
2739.16	0.00169
2748.81	0.002
2758.45	0.0022
2768.1	0.00277
2777.74	0.00314
2787.39	0.00329
2797.03	0.00368
2806.68	0.00437
2816.32	0.00545
2825.97	0.00684
2835.61	0.00839
2845.26	0.00957
2854.9	0.01086
2864.55	0.0115
2874.19	0.01236
2883.84	0.01404
2893.48	0.01501
2903.12	0.01695
2912.77	0.02079
2922.41	0.02349
2932.06	0.0259
2941.7	0.03056
2951.35	0.02748
2960.99	0.02319
2970.64	0.02737
2980.28	0.03834
2989.93	0.04408
2999.57	0.03192
3009.22	0.02652
3018.86	0.02596
3028.51	0.02766
3038.15	0.02469
3047.8	0.02528
3057.44	0.03408
3067.09	0.03077
3076.73	0.02113
3086.38	0.01905
3096.02	0.01512
3105.67	0.01056
3115.31	0.00718
3124.95	0.00407
3134.6	0.0026
3144.24	0.00174
3153.89	0.00139
3163.53	0.00112
3173.18	0.00105
3182.82	0.0009608
3192.47	0.00105
3202.11	0.00107
3211.76	0.00102
3221.4	0.0008303
3231.05	0.0006058
3240.69	0.00056
3250.34	0.0006024
3259.98	0.000513
3269.63	0.0004369
3279.27	0.0003523
3288.92	0.0001699
3298.56	0.0002955
3308.21	0.0004602
3317.85	0.000342
3327.49	0.0007417
3337.14	0.0008291
3346.78	0.00121
3356.43	0.00131
3366.07	0.00149
3375.72	0.00209
3385.36	0.003
3395.01	0.00466
3404.65	0.00782
3414.3	0.01345
3423.94	0.01818
3433.59	0.0153
3443.23	0.01106
3452.88	0.00791
3462.52	0.00538
3472.17	0.00387
3481.81	0.00328
3491.46	0.00296
3501.1	0.00291
3510.75	0.00237
3520.39	0.00158
3530.04	0.00123
3539.68	0.0009663
3549.32	0.0007973
3558.97	0.0005584
3568.61	0.0006003
3578.26	0.0005064
3587.9	0.0003386
3597.55	0.0004856
3607.19	0.0006268
3616.84	0.0006083
3626.48	0.0005156
3636.13	0.000373
3645.77	0.0006034
3655.42	0.000645
3665.06	0.0006752
3674.71	0.0003814
3684.35	0.0003435
3694	0.0005656
3703.64	0.0003938
3713.29	0.0002223
3722.93	0.0004911
3732.58	0.0005268
3742.22	0.0007217
3751.86	0.0005362
3761.51	0.0005235
3771.15	0.0005166
3780.8	0.0003803
3790.44	0.0006871
3800.09	0.000282
3809.73	0.0004061
3819.38	0.0007263
3829.02	0.0003781
3838.67	0.0004625
3848.31	0.0002994
3857.96	0.0005187
3867.6	0.0003749
3877.25	0.0004754
3886.89	0.0004895
3896.54	0.0007211
3906.18	0.0004232
3915.83	0.000381
3925.47	0.0003137
3935.12	0.0006141
3944.76	0.0005329
3954.41	0.0005139
3964.05	0.0005582
3973.69	0.0005878
3983.34	0.0006511
3992.98	0.000758
