Infrared Spectrum: Ethylphenyl propiolate
Formula: C 11 H 10 O 2
CAS: 2216-94-6
State: gas
Origin: EPA-IR VAPOR PHASE LIBRARY
1/CM	ABSORBANCE
501.5	0.002574
513.074	0.003534
524.648	0.005334
536.222	0.005854
547.796	0.004354
559.37	0.003524
570.944	0.002784
582.518	0.002454
594.092	0.007064
605.666	0.022814
617.24	0.008774
628.814	0.003464
640.388	0.003074
651.962	0.004564
663.536	0.009634
675.11	0.020314
686.684	0.030934
698.258	0.025624
709.832	0.013824
721.406	0.009574
732.98	0.019354
744.554	0.043514
756.128	0.061344
767.702	0.038894
779.276	0.014684
790.85	0.007904
802.423	0.007354
813.997	0.004974
825.571	0.003614
837.145	0.004254
848.719	0.007284
860.293	0.011454
871.867	0.008424
883.441	0.005274
895.015	0.004884
906.589	0.005774
918.163	0.007234
929.737	0.007894
941.311	0.007234
952.885	0.005994
964.459	0.005364
976.033	0.005514
987.607	0.006894
999.181	0.011834
1010.76	0.024814
1022.33	0.055944
1033.9	0.049614
1045.48	0.025914
1057.05	0.016674
1068.63	0.014384
1080.2	0.015194
1091.77	0.023724
1103.35	0.031434
1114.92	0.037324
1126.49	0.040214
1138.07	0.045464
1149.64	0.080324
1161.22	0.198524
1172.79	0.371274
1184.36	0.400654
1195.94	0.243424
1207.51	0.084384
1219.09	0.056014
1230.66	0.057904
1242.23	0.044304
1253.81	0.056304
1265.38	0.147404
1276.96	0.342854
1288.53	0.293084
1300.1	0.109044
1311.68	0.048804
1323.25	0.027354
1334.83	0.017454
1346.4	0.013254
1357.97	0.019834
1369.55	0.043384
1381.12	0.017254
1392.7	0.013674
1404.27	0.011854
1415.84	0.010454
1427.42	0.011744
1438.99	0.016144
1450.57	0.018264
1462.14	0.019324
1473.71	0.022734
1485.29	0.042754
1496.86	0.038054
1508.44	0.012714
1520.01	0.008094
1531.58	0.006644
1543.16	0.005884
1554.73	0.005914
1566.31	0.006294
1577.88	0.007044
1589.45	0.009794
1601.03	0.009714
1612.6	0.005034
1624.18	0.003604
1635.75	0.003584
1647.32	0.004314
1658.9	0.006514
1670.47	0.011294
1682.05	0.018144
1693.62	0.023554
1705.19	0.042264
1716.77	0.129784
1728.34	0.309384
1739.92	0.235304
1751.49	0.095174
1763.06	0.034724
1774.64	0.018144
1786.21	0.010974
1797.79	0.008524
1809.36	0.004754
1820.93	0.003394
1832.51	0.002844
1844.08	0.002334
1855.66	0.002664
1867.23	0.003464
1878.8	0.004474
1890.38	0.005074
1901.95	0.003524
1913.53	0.001984
1925.1	0.002244
1936.67	0.002944
1948.25	0.003584
1959.82	0.004144
1971.4	0.002674
1982.97	0.001424
1994.54	0.001294
2006.12	0.001454
2017.69	0.001884
2029.27	0.002664
2040.84	0.003264
2052.41	0.003184
2063.99	0.002504
2075.56	0.001924
2087.14	0.001864
2098.71	0.002084
2110.28	0.002244
2121.86	0.002264
2133.43	0.002404
2145.01	0.003104
2156.58	0.005274
2168.15	0.010344
2179.73	0.021624
2191.3	0.047134
2202.88	0.075184
2214.45	0.085004
2226.02	0.103644
2237.6	0.094004
2249.17	0.034574
2260.74	0.010254
2272.32	0.005244
2283.89	0.004284
2295.47	0.004884
2307.04	0.003914
2318.61	0.003594
2330.19	0.002654
2341.76	0.002194
2353.34	0.001844
2364.91	0.001624
2376.48	0.001264
2388.06	0.0009888
2399.63	0.0009049
2411.21	0.0009681
2422.78	0.0010139
2434.35	0.001074
2445.93	0.001344
2457.5	0.001734
2469.08	0.002004
2480.65	0.002104
2492.22	0.002304
2503.8	0.002434
2515.37	0.002304
2526.95	0.001934
2538.52	0.001514
2550.09	0.001344
2561.67	0.001264
2573.24	0.0009904
2584.82	0.0007015
2596.39	0.0005742
2607.96	0.0004853
2619.54	0.0004138
2631.11	0.0003407
2642.69	0.0003705
2654.26	0.0004395
2665.83	0.0005273
2677.41	0.0004608
2688.98	0.0002741
2700.56	0.000157
2712.13	0.0001948
2723.7	0.000379
2735.28	0.000534
2746.85	0.0006608
2758.43	0.000963
2770	0.001264
2781.57	0.001334
2793.15	0.001054
2804.72	0.0010078
2816.3	0.001244
2827.87	0.001634
2839.44	0.001924
2851.02	0.002524
2862.59	0.003604
2874.17	0.005374
2885.74	0.008134
2897.31	0.008734
2908.89	0.011384
2920.46	0.012664
2932.04	0.014474
2943.61	0.023714
2955.18	0.020064
2966.76	0.021794
2978.33	0.034824
2989.91	0.047134
3001.48	0.028064
3013.05	0.019524
3024.63	0.014054
3036.2	0.014114
3047.78	0.012814
3059.35	0.016874
3070.92	0.027094
3082.5	0.019094
3094.07	0.016204
3105.65	0.011754
3117.22	0.005104
3128.79	0.002214
3140.37	0.001694
3151.94	0.001574
3163.52	0.001034
3175.09	0.0007338
3186.66	0.0006609
3198.24	0.0005603
3209.81	0.0004546
3221.39	0.0002874
3232.96	0.0001738
3244.53	0.0001229
3256.11	7.711e-05
3267.68	0
3279.26	4.185e-05
3290.83	5.889e-05
3302.4	6.074e-05
3313.98	0.000156
3325.55	0.0002586
3337.13	0.0002877
3348.7	0.0004794
3360.27	0.0006837
3371.85	0.001064
3383.42	0.001374
3395	0.001724
3406.57	0.001774
3418.14	0.001774
3429.72	0.002714
3441.29	0.004234
3452.86	0.003384
3464.44	0.001794
3476.01	0.001164
3487.59	0.000726
3499.16	0.0003333
3510.73	0.0002502
3522.31	0.0001541
3533.88	0.00012354
3545.46	5.82e-05
3557.03	3.674e-05
3568.6	0.00011465
3580.18	9.07e-05
3591.75	4.527e-05
3603.33	4.66e-05
3614.9	6.887e-05
3626.47	0.0001302
3638.05	0.0001449
3649.62	0.0002241
3661.2	0.0002176
3672.77	0.0002667
3684.34	0.0003242
3695.92	0.0002758
3707.49	0.0003263
3719.07	0.0003001
3730.64	0.0002619
3742.21	0.000211
3753.79	0.00010055
3765.36	0.000203
3776.94	0.0001778
3788.51	0.0002393
3800.08	0.000251
3811.66	0.0003344
3823.23	0.0003365
3834.81	0.0003529
3846.38	0.0002823
3857.95	0.0001929
3869.53	0.0002128
3881.1	0.0001566
3892.68	0.0001835
3904.25	0.0001603
3915.82	0.0001592
3927.4	0.0002169
3938.97	0.0002756
3950.55	0.0003532
3962.12	0.0003795
3973.69	0.0003698
3985.27	0.0003228
3996.84	0.0004714
