Infrared Spectrum: d/l-Menthol
Formula: C 10 H 20 O
CAS: 2216-51-5
State: gas
Instrument: HP-GC/MS/IRD
Origin: NIST Mass Spectrometry Data Center
1/CM	ABSORBANCE
550	0.000837
562	0.000558
574	0.00018
586	0.000459
598	0.00063
610	0.000477
622	0.000225
634	0.000117
646	0.000108
658	0.000126
670	0.000117
682	7.2e-05
694	0.000117
706	9e-05
718	9.9e-05
730	9e-05
742	8.1e-05
754	0.000297
766	0.000414
778	0.000243
790	0.000171
802	0.00018
814	0.000297
826	0.000711
838	0.002142
850	0.002574
862	0.001431
874	0.001548
886	0.001251
898	0.001062
910	0.00216
922	0.003033
934	0.002223
946	0.001953
958	0.002925
970	0.005247
982	0.007578
994	0.008199
1006	0.009252
1018	0.016074
1030	0.018648
1042	0.019098
1054	0.014292
1066	0.006876
1078	0.007083
1090	0.00828
1102	0.007155
1114	0.004419
1126	0.003636
1138	0.003654
1150	0.003771
1162	0.004968
1174	0.006957
1186	0.006345
1198	0.005121
1210	0.005886
1222	0.006165
1234	0.005877
1246	0.006057
1258	0.005769
1270	0.005238
1282	0.005139
1294	0.004662
1306	0.004086
1318	0.003726
1330	0.004167
1342	0.005571
1354	0.007731
1366	0.011169
1378	0.013752
1390	0.01116
1402	0.005535
1414	0.003051
1426	0.002925
1438	0.005328
1450	0.011421
1462	0.013095
1474	0.008937
1486	0.003816
1498	0.001575
1510	0.000846
1522	0.000693
1534	0.00063
1546	0.000441
1558	0.000324
1570	0.000387
1582	0.000387
1594	0.000405
1606	0.000387
1618	0.00036
1630	0.000342
1642	0.000297
1654	0.000216
1666	0.000261
1678	0.000225
1690	0.000207
1702	0.000126
1714	9e-05
1726	0.000153
1738	8.1e-05
1750	7.2e-05
1762	9.9e-05
1774	8.1e-05
1786	8.1e-05
1798	6.3e-05
1810	7.2e-05
1822	3.6e-05
1834	5.4e-05
1846	6.3e-05
1858	8.1e-05
1870	6.3e-05
1882	8.1e-05
1894	9e-05
1906	8.1e-05
1918	2.7e-05
1930	6.3e-05
1942	6.3e-05
1954	5.4e-05
1966	3.6e-05
1978	4.5e-05
1990	3.6e-05
2002	8.1e-05
2014	3.6e-05
2026	7.2e-05
2038	4.5e-05
2050	7.2e-05
2062	4.5e-05
2074	5.4e-05
2086	2.7e-05
2098	3.6e-05
2110	4.5e-05
2122	3.6e-05
2134	2.7e-05
2146	5.4e-05
2158	6.3e-05
2170	3.6e-05
2182	6.3e-05
2194	5.4e-05
2206	6.3e-05
2218	0.000108
2230	6.3e-05
2242	9e-05
2254	8.1e-05
2266	0.000117
2278	0.000108
2290	0.000153
2302	0.000144
2314	0.000162
2326	0.000162
2338	0.000216
2350	0.000225
2362	0.000261
2374	0.000288
2386	0.000333
2398	0.000306
2410	0.000333
2422	0.000351
2434	0.000351
2446	0.000324
2458	0.000324
2470	0.000315
2482	0.000333
2494	0.000324
2506	0.000333
2518	0.000351
2530	0.000405
2542	0.000423
2554	0.000468
2566	0.000585
2578	0.000666
2590	0.000801
2602	0.001017
2614	0.001116
2626	0.001215
2638	0.001269
2650	0.001341
2662	0.001314
2674	0.001314
2686	0.001323
2698	0.001458
2710	0.001557
2722	0.001854
2734	0.00225
2746	0.00216
2758	0.001989
2770	0.002061
2782	0.002403
2794	0.002997
2806	0.003915
2818	0.004887
2830	0.007209
2842	0.014769
2854	0.027936
2866	0.036936
2878	0.048942
2890	0.043695
2902	0.041238
2914	0.060534
2926	0.086175
2938	0.078264
2950	0.066024
2962	0.09
2974	0.053415
2986	0.015291
2998	0.006507
3010	0.003897
3022	0.002952
3034	0.002322
3046	0.001674
3058	0.001476
3070	0.001503
3082	0.001485
3094	0.001332
3106	0.001305
3118	0.001242
3130	0.001134
3142	0.001134
3154	0.001134
3166	0.001116
3178	0.001071
3190	0.001008
3202	0.000756
3214	0.000567
3226	0.000459
3238	0.000369
3250	0.000297
3262	0.000207
3274	0.000162
3286	0.000207
3298	0.000126
3310	0.000225
3322	0.000261
3334	0.000234
3346	0.000171
3358	0.000351
3370	0.000279
3382	0.000297
3394	0.00036
3406	0.000252
3418	0.000261
3430	0.00027
3442	0.000324
3454	0.000342
3466	0.000297
3478	0.000225
3490	0.000207
3502	0.000216
3514	0.000189
3526	0.000117
3538	0.000171
3550	9.9e-05
3562	7.2e-05
3574	0.000144
3586	0.00018
3598	0.000252
3610	0.000513
3622	0.00108
3634	0.002529
3646	0.004167
3658	0.003618
3670	0.001593
3682	0.000756
3694	0.000477
3706	0.000369
3718	0.000234
3730	0.000216
3742	6.3e-05
3754	0.000117
3766	0.000252
3778	0.000306
3790	0.000342
3802	0.00036
3814	0.000378
3826	0.000423
3838	0.000504
