Infrared Spectrum: 3-Methyloctane
Formula: C 9 H 20
CAS: 2216-33-3
State: gas
Instrument: HP-GC/MS/IRD
Origin: NIST Mass Spectrometry Data Center
1/CM	ABSORBANCE
550	0.000356
562	0.000396
574	0.000168
586	0.00036
598	0.000348
610	0.000388
622	0.000296
634	0.00038
646	0.000392
658	0.00034
670	0.000356
682	0.000424
694	0.000536
706	0.000536
718	0.000728
730	0.000812
742	0.000732
754	0.00072
766	0.000876
778	0.000804
790	0.000608
802	0.000524
814	0.00048
826	0.000456
838	0.000472
850	0.000524
862	0.000476
874	0.000532
886	0.0005
898	0.00052
910	0.000552
922	0.000556
934	0.000588
946	0.00066
958	0.00076
970	0.000796
982	0.000692
994	0.000588
1006	0.000668
1018	0.000668
1030	0.000536
1042	0.000468
1054	0.000504
1066	0.000556
1078	0.000592
1090	0.000584
1102	0.000552
1114	0.00056
1126	0.000672
1138	0.00078
1150	0.00078
1162	0.000724
1174	0.000552
1186	0.000508
1198	0.000516
1210	0.000548
1222	0.000632
1234	0.000664
1246	0.000716
1258	0.000756
1270	0.000816
1282	0.000896
1294	0.000976
1306	0.00104
1318	0.000972
1330	0.001124
1342	0.00136
1354	0.001624
1366	0.002036
1378	0.003256
1390	0.002932
1402	0.001484
1414	0.00108
1426	0.001244
1438	0.00186
1450	0.0037
1462	0.005356
1474	0.004104
1486	0.00206
1498	0.001032
1510	0.000448
1522	0.000344
1534	0.000404
1546	0.00028
1558	0.000128
1570	0.000428
1582	0.000444
1594	0.000432
1606	0.000412
1618	0.00032
1630	0.000348
1642	0.0003
1654	0.0001
1666	0.000284
1678	0.000196
1690	0.000212
1702	5.6e-05
1714	8.8e-05
1726	0.000208
1738	0.0001
1750	4.4e-05
1762	0.000148
1774	0.000156
1786	0.000136
1798	0.000168
1810	0.00022
1822	0.0002
1834	0.000204
1846	0.000128
1858	0.000216
1870	0.000176
1882	0.000232
1894	0.000208
1906	0.00022
1918	0.000164
1930	0.000204
1942	0.00018
1954	0.000196
1966	0.000184
1978	0.0002
1990	0.000184
2002	0.000184
2014	0.000212
2026	0.000216
2038	0.000208
2050	0.000236
2062	0.000228
2074	0.000216
2086	0.000192
2098	0.00018
2110	0.000192
2122	0.000192
2134	0.000224
2146	0.000196
2158	0.000212
2170	0.000208
2182	0.000212
2194	0.000196
2206	0.000196
2218	0.000216
2230	0.000196
2242	0.000184
2254	0.00022
2266	0.000204
2278	0.000196
2290	0.000216
2302	0.000188
2314	0.000184
2326	0.000176
2338	0.000176
2350	0.000208
2362	0.000148
2374	0.00018
2386	0.000252
2398	0.000272
2410	0.000296
2422	0.000288
2434	0.000284
2446	0.00026
2458	0.000264
2470	0.000248
2482	0.000272
2494	0.00028
2506	0.000292
2518	0.000304
2530	0.000328
2542	0.000344
2554	0.00036
2566	0.000436
2578	0.000472
2590	0.000528
2602	0.000536
2614	0.000552
2626	0.000564
2638	0.000584
2650	0.000644
2662	0.00064
2674	0.00072
2686	0.000736
2698	0.000728
2710	0.000756
2722	0.000884
2734	0.001024
2746	0.001096
2758	0.00106
2770	0.00112
2782	0.001284
2794	0.001604
2806	0.001944
2818	0.002476
2830	0.003376
2842	0.00562
2854	0.010952
2866	0.016764
2878	0.019688
2890	0.018512
2902	0.018788
2914	0.02706
2926	0.037732
2938	0.038724
2950	0.031452
2962	0.03578
2974	0.031948
2986	0.013076
2998	0.005764
3010	0.00362
3022	0.002672
3034	0.002116
3046	0.001756
3058	0.00152
3070	0.001388
3082	0.001256
3094	0.001072
3106	0.000996
3118	0.000892
3130	0.00084
3142	0.00078
3154	0.000812
3166	0.00074
3178	0.0007
3190	0.000628
3202	0.000568
3214	0.0005
3226	0.00042
3238	0.000368
3250	0.000368
3262	0.000356
3274	0.00034
3286	0.0004
3298	0.000364
3310	0.00036
3322	0.000376
3334	0.00032
3346	0.000356
3358	0.000372
3370	0.00034
3382	0.000388
3394	0.000344
3406	0.00038
3418	0.000336
3430	0.000296
3442	0.000336
3454	0.000332
3466	0.000356
3478	0.000308
3490	0.000292
3502	0.000252
3514	0.000292
3526	0.00026
3538	0.000324
3550	0.000296
3562	0.000296
3574	0.000352
3586	0.000208
3598	0.000284
3610	0.000212
3622	0.00032
3634	0.000364
3646	0.000328
3658	0.00036
3670	0.00028
3682	0.000392
3694	0.0004
3706	0.0004
3718	0.000368
3730	0.000328
3742	0.000228
3754	0.000292
3766	0.000448
3778	0.000448
3790	0.00048
3802	0.000364
3814	0.000424
3826	0.00046
3838	0.00036
