Infrared Spectrum: p-Methylbenzyl acetate
Formula: C 10 H 12 O 2
CAS: 2216-45-7
State: gas
Origin: EPA-IR VAPOR PHASE LIBRARY
1/CM	ABSORBANCE
549.8	0.007855
559.445	0.005485
569.09	0.002915
578.734	0.002495
588.379	0.003095
598.024	0.003925
607.669	0.005025
617.313	0.004755
626.958	0.004465
636.603	0.004385
646.248	0.003565
655.893	0.002025
665.537	0.001309
675.182	0.0010187
684.827	0.0008331
694.472	0.0010049
704.116	0.0012198
713.761	0.001625
723.406	0.001805
733.051	0.002925
742.695	0.005375
752.34	0.007215
761.985	0.006545
771.63	0.006995
781.275	0.010165
790.919	0.016905
800.564	0.024635
810.209	0.022615
819.854	0.014125
829.498	0.010845
839.143	0.011385
848.788	0.010455
858.433	0.007145
868.078	0.005355
877.722	0.004505
887.367	0.004885
897.012	0.006145
906.657	0.007225
916.301	0.007355
925.946	0.007085
935.591	0.008395
945.236	0.009755
954.88	0.012345
964.525	0.016565
974.17	0.016625
983.815	0.014745
993.46	0.019235
1003.1	0.031955
1012.75	0.050845
1022.39	0.059915
1032.04	0.055585
1041.68	0.043405
1051.33	0.028645
1060.97	0.021555
1070.62	0.018925
1080.26	0.017615
1089.91	0.015745
1099.55	0.012925
1109.2	0.010485
1118.84	0.008465
1128.49	0.006665
1138.13	0.005815
1147.78	0.005715
1157.42	0.006405
1167.07	0.009215
1176.71	0.018695
1186.36	0.029265
1196	0.040135
1205.64	0.082915
1215.29	0.175775
1224.93	0.274935
1234.58	0.219515
1244.22	0.118515
1253.87	0.071805
1263.51	0.049245
1273.16	0.028925
1282.8	0.019195
1292.45	0.013485
1302.09	0.009975
1311.74	0.008135
1321.38	0.007335
1331.03	0.007265
1340.67	0.008605
1350.32	0.015055
1359.96	0.034275
1369.61	0.038425
1379.25	0.037575
1388.9	0.028995
1398.54	0.015355
1408.18	0.009905
1417.83	0.009075
1427.47	0.009565
1437.12	0.010345
1446.76	0.011675
1456.41	0.012665
1466.05	0.012085
1475.7	0.009535
1485.34	0.008025
1494.99	0.008285
1504.63	0.011135
1514.28	0.019155
1523.92	0.015965
1533.57	0.006555
1543.21	0.004865
1552.86	0.004105
1562.5	0.003645
1572.15	0.003675
1581.79	0.003745
1591.44	0.003925
1601.08	0.004545
1610.73	0.005645
1620.37	0.005845
1630.01	0.004715
1639.66	0.004145
1649.3	0.003985
1658.95	0.004025
1668.59	0.004215
1678.24	0.004485
1687.88	0.005265
1697.53	0.006865
1707.17	0.008395
1716.82	0.012035
1726.46	0.019145
1736.11	0.033985
1745.75	0.065865
1755.4	0.124165
1765.04	0.144385
1774.69	0.087315
1784.33	0.044945
1793.98	0.022515
1803.62	0.012345
1813.27	0.008335
1822.91	0.006615
1832.55	0.004965
1842.2	0.003715
1851.84	0.003125
1861.49	0.002885
1871.13	0.002825
1880.78	0.003235
1890.42	0.003475
1900.07	0.003385
1909.71	0.002665
1919.36	0.002065
1929	0.001875
1938.65	0.001665
1948.29	0.001585
1957.94	0.001535
1967.58	0.001455
1977.23	0.001465
1986.87	0.001495
1996.52	0.001475
2006.16	0.001435
2015.81	0.001525
2025.45	0.001475
2035.1	0.001565
2044.74	0.001625
2054.38	0.001665
2064.03	0.001665
2073.67	0.0013223
2083.32	0.0012771
2092.96	0.0011623
2102.61	0.0011787
2112.25	0.0010282
2121.9	0.00117
2131.54	0.0011567
2141.19	0.0012075
2150.83	0.001102
2160.48	0.0009575
2170.12	0.0008678
2179.77	0.0007592
2189.41	0.0007935
2199.06	0.000826
2208.7	0.0009973
2218.35	0.0009299
2227.99	0.0007772
2237.64	0.0006804
2247.28	0.0006679
2256.92	0.0005767
2266.57	0.0006405
2276.21	0.0005755
2285.86	0.0006717
2295.5	0.0007257
2305.15	0.0007999
2314.79	0.0008125
2324.44	0.000737
2334.08	0.0007963
2343.73	0.0006443
2353.37	0.0005555
2363.02	0.000606
2372.66	0.00046374
2382.31	0.000627
2391.95	0.0006229
2401.6	0.000683
2411.24	0.0007646
2420.89	0.0008093
2430.53	0.0008599
2440.18	0.0009241
2449.82	0.0009426
2459.47	0.0008867
2469.11	0.0008958
2478.75	0.0007853
2488.4	0.0006692
2498.04	0.0006265
2507.69	0.0005277
2517.33	0.00042987
2526.98	0.00040532
2536.62	0.000418702
2546.27	0.0003776
2555.91	0.00046467
2565.56	0.00050793
2575.2	0.0006628
2584.85	0.0007381
2594.49	0.0007805
2604.14	0.0005878
2613.78	0.0005338
2623.43	0.0005198
2633.07	0.0003992
2642.72	0.00047138
2652.36	0.00049448
2662.01	0.00042432
2671.65	0.0005815
2681.29	0.000423301
2690.94	0.000401
2700.58	0.0005359
2710.23	0.0006658
2719.87	0.0008518
2729.52	0.0011086
2739.16	0.0013871
2748.81	0.0012174
2758.45	0.0007625
2768.1	0.0007588
2777.74	0.0006365
2787.39	0.0009483
2797.03	0.0009871
2806.68	0.0012751
2816.32	0.001505
2825.97	0.002035
2835.61	0.002465
2845.26	0.003195
2854.9	0.004525
2864.55	0.006925
2874.19	0.010475
2883.84	0.011965
2893.48	0.011425
2903.12	0.011125
2912.77	0.011955
2922.41	0.016195
2932.06	0.023525
2941.7	0.023745
2951.35	0.020775
2960.99	0.019795
2970.64	0.017575
2980.28	0.014985
2989.93	0.014455
2999.57	0.015295
3009.22	0.016905
3018.86	0.020205
3028.51	0.025075
3038.15	0.022505
3047.8	0.017095
3057.44	0.015285
3067.09	0.012775
3076.73	0.009345
3086.38	0.007065
3096.02	0.005745
3105.67	0.004615
3115.31	0.003145
3124.95	0.002345
3134.6	0.002135
3144.24	0.001411
3153.89	0.0010747
3163.53	0.0006501
3173.18	0.0005566
3182.82	0.00043408
3192.47	0.000297
3202.11	0.000302
3211.76	0.00046782
3221.4	0.0003343
3231.05	0.0003225
3240.69	0.0003772
3250.34	0.000221
3259.98	0.000312
3269.63	0.000132
3279.27	0.000307
3288.92	0.000421518
3298.56	0.00022
3308.21	0.000237
3317.85	0.000271
3327.49	0.000269
3337.14	0.000276
3346.78	0.000229
3356.43	0.000232
3366.07	0.000255
3375.72	0.000561
3385.36	0.000304
3395.01	0.00041373
3404.65	0.0003803
3414.3	0.000283
3423.94	0.0003512
3433.59	0.0003674
3443.23	0.000165
3452.88	0.0006483
3462.52	0.0006573
3472.17	0.0006663
3481.81	0.0008693
3491.46	0.001191
3501.1	0.001615
3510.75	0.001895
3520.39	0.0013965
3530.04	0.0007878
3539.68	0.0005736
3549.32	0.0006755
3558.97	0.0003997
3568.61	0.000276
3578.26	0.0005292
3587.9	0.000202
3597.55	0.000371
3607.19	0.000239
3616.84	0.0003961
3626.48	0.000189
3636.13	0.000234
3645.77	0.0005353
3655.42	0.0003302
3665.06	0.00046897
3674.71	0.000288
3684.35	0.00045281
3694	0.0003549
3703.64	0.000164
3713.29	0.000251
3722.93	0.0003407
3732.58	0.000289
3742.22	0.000293
3751.86	0.0003633
3761.51	0.00049945
3771.15	0.000227
3780.8	0.000301
3790.44	0.000376
3800.09	0.00047005
3809.73	0.000125
3819.38	0.000289
3829.02	0.00041012
3838.67	0.00045558
3848.31	0.0003342
3857.96	0.000688
3867.6	0.000159
3877.25	0.0006289
3886.89	0.00048354
3896.54	0.00050392
3906.18	0.000202
3915.83	0.0005609
3925.47	0.000307
3935.12	0.0003763
3944.76	0.000248
3954.41	0.0005712
3964.05	0.0009344
3973.69	0.0009893
3983.34	0.0005373
3992.98	0.0007203
