Infrared Spectrum: N,N-DIETHYL-o-NITRO ANILINE
Formula: C10 H14 N2 O2
CAS: 2216-17-3
State: LIQUID
Boiling point: 154 C AT 20 mmHg
Class: COBLENTZ
Instrument: Not specified, most likely a prism, grating, or hybrid spectrometer.
Sampling: TRANSMISSION
Path length: 0.003 CM
Resolution: 4
Origin: WYANDOTTE CHEMICALS CORP., WYANDOTTE, MICHIGAN, USA
MICROMETERS	TRANSMITTANCE
2.027	0.998
2.06786	1
2.10871	1
2.14957	0.998
2.19042	0.984
2.23128	0.962
2.27214	0.965
2.31299	0.972
2.35385	0.955
2.3947	0.957
2.43556	0.953
2.47642	0.95
2.51727	0.957
2.55813	0.981
2.59898	0.972
2.63984	0.969
2.68069	0.969
2.72155	0.969
2.76241	0.969
2.80326	0.967
2.84412	0.965
2.88497	0.957
2.92583	0.952
2.96669	0.936
3.00754	0.93
3.0484	0.924
3.08925	0.911
3.13011	0.877
3.17097	0.843
3.21182	0.803
3.25268	0.721
3.29353	0.684
3.33439	0.462
3.37525	0.102
3.4161	0.269
3.45696	0.366
3.49781	0.312
3.53867	0.363
3.57953	0.491
3.62038	0.721
3.66124	0.757
3.70209	0.79
3.74295	0.827
3.7838	0.834
3.82466	0.839
3.86552	0.841
3.90637	0.851
3.94723	0.861
3.98808	0.877
4.02894	0.872
4.0698	0.872
4.11065	0.873
4.15151	0.872
4.19236	0.868
4.23322	0.865
4.27408	0.866
4.31493	0.875
4.35579	0.89
4.39664	0.89
4.4375	0.89
4.47836	0.897
4.51921	0.895
4.56007	0.887
4.60092	0.89
4.64178	0.895
4.68264	0.897
4.72349	0.901
4.76435	0.901
4.8052	0.899
4.84606	0.902
4.88692	0.902
4.92777	0.899
4.96863	0.897
5.00948	0.892
5.05034	0.883
5.09119	0.866
5.13205	0.861
5.17291	0.848
5.21376	0.839
5.25462	0.837
5.29547	0.844
5.33633	0.851
5.37719	0.849
5.41804	0.863
5.4589	0.865
5.49975	0.851
5.54061	0.827
5.58147	0.825
5.62232	0.837
5.66318	0.854
5.70403	0.854
5.74489	0.841
5.78575	0.825
5.8266	0.819
5.86746	0.815
5.90831	0.802
5.94917	0.786
5.99003	0.762
6.03088	0.738
6.07174	0.674
6.11259	0.552
6.15345	0.249
6.1943	0.029
6.23516	0.194
6.27602	0.37
6.31687	0.216
6.35773	0.16
6.39858	0.232
6.43944	0.151
6.4803	0.032
6.52115	0.025
6.56201	0.029
6.60286	0.037
6.64372	0.047
6.68458	0.04
6.72543	0.071
6.76629	0.102
6.80714	0.172
6.848	0.153
6.88886	0.112
6.92971	0.349
6.97057	0.491
7.01142	0.546
7.05228	0.529
7.09314	0.411
7.13399	0.238
7.17485	0.191
7.2157	0.085
7.25656	0.058
7.29741	0.066
7.33827	0.046
7.37913	0.037
7.41998	0.035
7.46084	0.061
7.50169	0.121
7.54255	0.215
7.58341	0.223
7.62426	0.145
7.66512	0.097
7.70597	0.09
7.74683	0.174
7.78769	0.281
7.82854	0.24
7.8694	0.133
7.91025	0.088
7.95111	0.075
7.99197	0.087
8.03282	0.16
8.07368	0.276
8.11453	0.452
8.15539	0.552
8.19625	0.593
8.2371	0.605
8.27796	0.578
8.31881	0.488
8.35967	0.284
8.40053	0.167
8.44138	0.215
8.48224	0.315
8.52309	0.358
8.56395	0.349
8.6048	0.431
8.64566	0.341
8.68652	0.235
8.72737	0.206
8.76823	0.279
8.80908	0.445
8.84994	0.482
8.8908	0.474
8.93165	0.433
8.97251	0.409
9.01336	0.382
9.05422	0.372
9.09508	0.348
9.13593	0.296
9.17679	0.204
9.21764	0.235
9.2585	0.291
9.29936	0.296
9.34021	0.331
9.38107	0.368
9.42192	0.411
9.46278	0.445
9.50364	0.337
9.54449	0.259
9.58535	0.334
9.6262	0.481
9.66706	0.527
9.70791	0.503
9.74877	0.51
9.78963	0.508
9.83048	0.46
9.87134	0.452
9.91219	0.523
9.95305	0.627
9.99391	0.691
10.0348	0.733
10.0756	0.742
10.1165	0.75
10.1573	0.755
10.1982	0.752
10.239	0.757
10.2799	0.761
10.3208	0.773
10.3616	0.778
10.4025	0.776
10.4433	0.773
10.4842	0.755
10.525	0.735
10.5659	0.723
10.6067	0.716
10.6476	0.725
10.6885	0.732
10.7293	0.725
10.7702	0.726
10.811	0.737
10.8519	0.735
10.8927	0.742
10.9336	0.73
10.9744	0.682
11.0153	0.593
11.0562	0.575
11.097	0.605
11.1379	0.67
11.1787	0.708
11.2196	0.745
11.2604	0.766
11.3013	0.781
11.3422	0.778
11.383	0.779
11.4239	0.773
11.4647	0.759
11.5056	0.749
11.5464	0.735
11.5873	0.73
11.6281	0.709
11.669	0.662
11.7099	0.522
11.7507	0.252
11.7916	0.092
11.8324	0.141
11.8733	0.38
11.9141	0.563
11.955	0.638
11.9958	0.677
12.0367	0.706
12.0776	0.718
12.1184	0.725
12.1593	0.718
12.2001	0.699
12.241	0.68
12.2818	0.66
12.3227	0.639
12.3636	0.622
12.4044	0.59
12.4453	0.559
12.4861	0.506
12.527	0.482
12.5678	0.467
12.6087	0.467
12.6495	0.486
12.6904	0.484
12.7313	0.44
12.7721	0.377
12.813	0.279
12.8538	0.206
12.8947	0.148
12.9355	0.129
12.9764	0.167
13.0172	0.238
13.0581	0.296
13.099	0.31
13.1398	0.298
13.1807	0.291
13.2215	0.254
13.2624	0.209
13.3032	0.158
13.3441	0.124
13.3849	0.112
13.4258	0.127
13.4667	0.151
13.5075	0.218
13.5484	0.291
13.5892	0.37
13.6301	0.423
13.6709	0.448
13.7118	0.462
13.7527	0.489
13.7935	0.517
13.8344	0.54
13.8752	0.534
13.9161	0.501
13.9569	0.445
13.9978	0.377
14.0386	0.298
14.0795	0.269
14.1204	0.295
14.1612	0.363
14.2021	0.448
14.2429	0.525
14.2838	0.59
14.3246	0.631
14.3655	0.665
14.4063	0.686
14.4472	0.701
14.4881	0.709
14.5289	0.718
14.5698	0.718
14.6106	0.726
14.6515	0.726
14.6923	0.728
14.7332	0.726
14.7741	0.721
14.8149	0.721
14.8558	0.723
14.8966	0.723
14.9375	0.716
14.9783	0.703
15.0192	0.689
15.06	0.682
15.1009	0.677
15.1418	0.653
15.1826	0.604
15.2235	0.564
15.2643	0.52
15.3052	0.505
15.346	0.503
15.3869	0.515
15.4277	0.532
15.4686	0.549
15.5095	0.59
15.5503	0.626
15.5912	0.648
15.632	0.667
15.6729	0.674
15.7137	0.675
15.7546	0.674
15.7954	0.675
15.8363	0.667
15.8772	0.663
15.918	0.668
15.9589	0.667
