Infrared Spectrum: 4-Methyloctane
Formula: C 9 H 20
CAS: 2216-34-4
State: gas
Instrument: HP-GC/MS/IRD
Origin: NIST Mass Spectrometry Data Center
1/CM	ABSORBANCE
550	0.0002695
562	3.92e-05
574	1.47e-05
586	0.0001225
598	0.000196
610	0.0002842
622	0.0003283
634	0.0002205
646	0.0002352
658	0.0002744
670	0.0001666
682	0.0003332
694	0.0004263
706	0.0004851
718	0.0006419
730	0.0009408
742	0.0010143
754	0.0008036
766	0.0006713
778	0.0005733
790	0.0005194
802	0.0004508
814	0.0004018
826	0.000441
838	0.0004459
850	0.0004018
862	0.00049
874	0.0005929
886	0.0006174
898	0.0006517
910	0.0007203
922	0.0008085
934	0.0009555
946	0.0008624
958	0.0005684
970	0.0004557
982	0.0004655
994	0.0004263
1006	0.0004802
1018	0.0004655
1030	0.0004018
1042	0.0004851
1054	0.0005439
1066	0.0005488
1078	0.0005586
1090	0.0004067
1102	0.0003577
1114	0.0003822
1126	0.0005439
1138	0.0007497
1150	0.0009065
1162	0.0007448
1174	0.0004606
1186	0.0003381
1198	0.0003969
1210	0.0004459
1222	0.0004949
1234	0.0004606
1246	0.0005978
1258	0.0006615
1270	0.0006517
1282	0.0006811
1294	0.0007889
1306	0.0008575
1318	0.0009408
1330	0.0012348
1342	0.0015582
1354	0.0017983
1366	0.0023618
1378	0.0037289
1390	0.0034545
1402	0.0017052
1414	0.001225
1426	0.0013965
1438	0.0022393
1450	0.004312
1462	0.0062328
1474	0.005047
1486	0.0024353
1498	0.0012005
1510	0.0008085
1522	0.0006125
1534	0.0005145
1546	0.0004214
1558	0.0003969
1570	0.0003185
1582	0.0003234
1594	0.0003038
1606	0.0002646
1618	0.0002548
1630	0.0002597
1642	0.0002499
1654	0.0002303
1666	0.0002352
1678	0.0001862
1690	0.0001862
1702	0.0001715
1714	0.0001764
1726	0.0001225
1738	0.0001372
1750	9.31e-05
1762	0.0001225
1774	0.0001029
1786	0.0001029
1798	0.0001225
1810	0.0001127
1822	8.33e-05
1834	8.33e-05
1846	7.84e-05
1858	5.88e-05
1870	7.35e-05
1882	4.41e-05
1894	5.88e-05
1906	5.39e-05
1918	6.86e-05
1930	3.43e-05
1942	2.45e-05
1954	4.41e-05
1966	4.41e-05
1978	3.43e-05
1990	2.94e-05
2002	3.43e-05
2014	2.45e-05
2026	4.9e-05
2038	5.39e-05
2050	5.88e-05
2062	3.92e-05
2074	1.96e-05
2086	1.96e-05
2098	1.47e-05
2110	2.45e-05
2122	4.9e-06
2134	1.96e-05
2146	3.92e-05
2158	1.47e-05
2170	1.96e-05
2182	3.92e-05
2194	3.92e-05
2206	4.9e-05
2218	6.37e-05
2230	3.92e-05
2242	4.41e-05
2254	2.94e-05
2266	5.88e-05
2278	4.9e-05
2290	6.37e-05
2302	5.88e-05
2314	8.82e-05
2326	5.88e-05
2338	9.8e-05
2350	0.0001029
2362	0.000147
2374	0.0001323
2386	0.0001274
2398	0.0001323
2410	0.0001176
2422	0.0001078
2434	0.0001029
2446	7.84e-05
2458	9.31e-05
2470	9.31e-05
2482	0.0001078
2494	0.0001274
2506	0.0001666
2518	0.0001862
2530	0.0002107
2542	0.0002156
2554	0.0002548
2566	0.000294
2578	0.000343
2590	0.0003969
2602	0.0004263
2614	0.000441
2626	0.0004753
2638	0.0005047
2650	0.0005341
2662	0.0005684
2674	0.0006321
2686	0.0006762
2698	0.000686
2710	0.0007546
2722	0.0008673
2734	0.0010437
2746	0.001127
2758	0.001078
2770	0.0011711
2782	0.0013671
2794	0.0017444
2806	0.0022099
2818	0.0028518
2830	0.003969
2842	0.0068992
2854	0.0127302
2866	0.018865
2878	0.0238581
2890	0.0228585
2902	0.0240492
2914	0.0328545
2926	0.0430857
2938	0.0448791
2950	0.0386708
2962	0.0471184
2974	0.0392392
2986	0.014455
2998	0.0066248
3010	0.0043365
3022	0.0032732
3034	0.0024794
3046	0.0019502
3058	0.0015337
3070	0.0013622
3082	0.0012348
3094	0.0011172
3106	0.0010045
3118	0.0008673
3130	0.0008281
3142	0.0007497
3154	0.0007105
3166	0.0006272
3178	0.0005978
3190	0.0005292
3202	0.0004214
3214	0.000343
3226	0.0002842
3238	0.0002107
3250	0.0002156
3262	0.0002205
3274	0.0001323
3286	0.000147
3298	0.0001568
3310	0.0001715
3322	0.0001813
3334	0.0001715
3346	0.0001764
3358	0.0001225
3370	0.000147
3382	0.0001519
3394	0.000147
3406	0.0001029
3418	0.0001176
3430	8.82e-05
3442	7.84e-05
3454	6.86e-05
3466	5.88e-05
3478	6.37e-05
3490	2.94e-05
3502	6.37e-05
3514	5.88e-05
3526	4.41e-05
3538	6.37e-05
3550	5.39e-05
3562	4.9e-05
3574	3.92e-05
3586	1.47e-05
3598	6.37e-05
3610	0.0001176
3622	0.000147
3634	0.0001176
3646	0.0001176
3658	8.33e-05
3670	0.0001176
3682	0.0001274
3694	0.0001176
3706	9.31e-05
3718	0.0001911
3730	0.0001225
3742	0.0001617
3754	0.0001274
3766	0.0001715
3778	0.0001225
3790	0.0001715
3802	0.0001911
3814	0.0001519
3826	0.0001421
3838	0.0001617
