Infrared Spectrum: 4-Ethylheptane
Formula: C 9 H 20
CAS: 2216-32-2
State: gas
Instrument: HP-GC/MS/IRD
Origin: NIST Mass Spectrometry Data Center
1/CM	ABSORBANCE
550	0.000336
562	0.0001008
574	0.0003024
586	0.0002016
598	0.000231
610	0.0002436
622	0.0002562
634	0.0002226
646	0.0002898
658	0.0003192
670	0.0002688
682	0.0004116
694	0.0003738
706	0.0004536
718	0.0005418
730	0.000798
742	0.000798
754	0.0007644
766	0.0008316
778	0.0009534
790	0.0007686
802	0.0005754
814	0.000546
826	0.000504
838	0.000525
850	0.0005418
862	0.0005166
874	0.0005922
886	0.000756
898	0.000861
910	0.000714
922	0.0005754
934	0.0004494
946	0.0004914
958	0.0005166
970	0.0004326
982	0.0004662
994	0.0004032
1006	0.0004326
1018	0.0005796
1030	0.0007308
1042	0.0007644
1054	0.0006636
1066	0.0007266
1078	0.000651
1090	0.0005166
1102	0.0004452
1114	0.0005124
1126	0.0005922
1138	0.0007056
1150	0.0006636
1162	0.000525
1174	0.0003654
1186	0.0003276
1198	0.0003654
1210	0.0004074
1222	0.0005418
1234	0.0006216
1246	0.0006846
1258	0.0007224
1270	0.000756
1282	0.00084
1294	0.0008568
1306	0.0008988
1318	0.0008778
1330	0.0010206
1342	0.001113
1354	0.0013062
1366	0.001638
1378	0.002625
1390	0.0025788
1402	0.001386
1414	0.0010626
1426	0.0012306
1438	0.0018102
1450	0.0039312
1462	0.0057498
1474	0.004431
1486	0.002058
1498	0.0010248
1510	0.0005124
1522	0.0004326
1534	0.0005082
1546	0.0003822
1558	0.0001974
1570	0.0004242
1582	0.0004242
1594	0.0004032
1606	0.0003906
1618	0.0003066
1630	0.0003444
1642	0.0002814
1654	0.0001008
1666	0.0002562
1678	0.000168
1690	0.0001806
1702	8.82e-05
1714	5.88e-05
1726	0.0001848
1738	7.98e-05
1750	2.52e-05
1762	0.0001092
1774	0.0001008
1786	0.0001134
1798	0.0001302
1810	0.0001512
1822	0.000147
1834	0.0001344
1846	0.000105
1858	0.0001596
1870	0.000105
1882	0.000168
1894	0.0001554
1906	0.0001638
1918	0.0001344
1930	0.000168
1942	0.0001428
1954	0.0001512
1966	0.000168
1978	0.0001596
1990	0.000126
2002	0.0001512
2014	0.000147
2026	0.0001512
2038	0.0001596
2050	0.0001764
2062	0.0001512
2074	0.0001512
2086	0.0001512
2098	0.0001512
2110	0.0001638
2122	0.0001344
2134	0.0001386
2146	0.000126
2158	0.0001218
2170	0.0001512
2182	0.000168
2194	0.0001596
2206	0.0001512
2218	0.0001596
2230	0.0001344
2242	0.0001302
2254	0.0001386
2266	0.0001176
2278	0.000126
2290	0.000105
2302	0.000105
2314	7.98e-05
2326	7.14e-05
2338	9.24e-05
2350	0.0001302
2362	9.24e-05
2374	0.000126
2386	0.0001848
2398	0.0001848
2410	0.0002352
2422	0.0001848
2434	0.000168
2446	0.0001428
2458	0.000126
2470	0.000147
2482	0.0001596
2494	0.0001806
2506	0.0001764
2518	0.0001974
2530	0.0002226
2542	0.0002142
2554	0.0002604
2566	0.0003066
2578	0.0003738
2590	0.0004116
2602	0.0003906
2614	0.0004452
2626	0.0004074
2638	0.0004284
2650	0.0004746
2662	0.0005292
2674	0.0005418
2686	0.0005838
2698	0.0005964
2710	0.0006594
2722	0.0007728
2734	0.0009408
2746	0.0010374
2758	0.0009828
2770	0.0010038
2782	0.0011886
2794	0.001491
2806	0.0018312
2818	0.0022722
2830	0.0029694
2842	0.004851
2854	0.0094122
2866	0.0158004
2878	0.0213402
2890	0.0196308
2902	0.0188496
2914	0.0260526
2926	0.0340662
2938	0.0355152
2950	0.0309036
2962	0.039816
2974	0.0339654
2986	0.0129444
2998	0.0059136
3010	0.0039186
3022	0.002982
3034	0.0023688
3046	0.00189
3058	0.0014868
3070	0.00126
3082	0.001092
3094	0.0010248
3106	0.0009408
3118	0.0008358
3130	0.0007728
3142	0.000714
3154	0.00063
3166	0.0005796
3178	0.0005502
3190	0.0004956
3202	0.00042
3214	0.0003696
3226	0.0003486
3238	0.0002814
3250	0.0002394
3262	0.0002478
3274	0.0002394
3286	0.0002268
3298	0.0002436
3310	0.0002184
3322	0.0002562
3334	0.0002184
3346	0.000231
3358	0.0002058
3370	0.000231
3382	0.0002562
3394	0.0002478
3406	0.0002352
3418	0.0002226
3430	0.0002142
3442	0.0002478
3454	0.000273
3466	0.0002436
3478	0.0002268
3490	0.0001848
3502	0.0001554
3514	0.0002184
3526	0.000126
3538	0.0002436
3550	0.0002268
3562	0.0001512
3574	0.0002142
3586	0.0001512
3598	0.000294
3610	0.0001344
3622	0.000252
3634	0.000273
3646	0.0001932
3658	0.0002688
3670	0.0002268
3682	0.0003486
3694	0.0003192
3706	0.000357
3718	0.000315
3730	0.000231
3742	0.0001764
3754	0.0003066
3766	0.0004242
3778	0.000378
3790	0.0004326
3802	0.0003654
3814	0.0004158
3826	0.000378
3838	0.0002562
