Infrared Spectrum: 2,5-Dimethylheptane
Formula: C 9 H 20
CAS: 2216-30-0
State: gas
Instrument: HP-GC/MS/IRD
Origin: NIST Mass Spectrometry Data Center
1/CM	ABSORBANCE
550	0.0001089
562	9.24e-05
574	3.96e-05
586	3.19e-05
598	0.0001034
610	9.9e-05
622	3.85e-05
634	0.0001254
646	5.83e-05
658	8.8e-05
670	0.0001265
682	7.48e-05
694	7.81e-05
706	0.0001507
718	0.0001078
730	0.0001452
742	0.0001276
754	0.0001782
766	0.0001991
778	0.0001749
790	0.0001342
802	0.0001177
814	0.0001419
826	8.03e-05
838	0.0001078
850	8.69e-05
862	8.14e-05
874	8.14e-05
886	9.46e-05
898	0.0001386
910	0.0001595
922	0.0001903
934	0.0001738
946	0.0001606
958	0.0002002
970	0.0002167
982	0.0001738
994	0.0002057
1006	0.0002178
1018	0.0002453
1030	0.0002013
1042	0.0001848
1054	0.0001925
1066	0.0001155
1078	0.0001298
1090	0.0001309
1102	0.0001518
1114	0.00011
1126	0.0001386
1138	0.0002024
1150	0.0002134
1162	0.0002684
1174	0.0002013
1186	0.0001001
1198	7.26e-05
1210	9.68e-05
1222	0.0001155
1234	0.0001309
1246	0.0001441
1258	0.0001012
1270	0.0001683
1282	0.000154
1294	0.0001661
1306	0.0001881
1318	0.0002475
1330	0.0002992
1342	0.0003707
1354	0.0004587
1366	0.0007183
1378	0.0010857
1390	0.0009922
1402	0.0004488
1414	0.0002508
1426	0.0002805
1438	0.0004323
1450	0.0008481
1462	0.0013662
1474	0.0011638
1486	0.0005841
1498	0.0002596
1510	0.0001474
1522	9.68e-05
1534	9.68e-05
1546	7.92e-05
1558	7.26e-05
1570	8.25e-05
1582	5.39e-05
1594	5.94e-05
1606	8.47e-05
1618	7.37e-05
1630	5.94e-05
1642	3.85e-05
1654	4.51e-05
1666	3.08e-05
1678	2.97e-05
1690	4.62e-05
1702	4.73e-05
1714	6.6e-06
1726	3.52e-05
1738	1.87e-05
1750	1.32e-05
1762	2.64e-05
1774	3.08e-05
1786	1.65e-05
1798	2.64e-05
1810	2.64e-05
1822	2.31e-05
1834	4.07e-05
1846	1.1e-05
1858	4.07e-05
1870	2.09e-05
1882	2.86e-05
1894	3.08e-05
1906	1.87e-05
1918	1.98e-05
1930	3.41e-05
1942	3.74e-05
1954	4.29e-05
1966	4.84e-05
1978	3.19e-05
1990	3.3e-05
2002	4.73e-05
2014	2.53e-05
2026	4.51e-05
2038	2.97e-05
2050	2.09e-05
2062	4.18e-05
2074	2.2e-05
2086	3.85e-05
2098	3.41e-05
2110	4.18e-05
2122	4.4e-05
2134	5.06e-05
2146	3.3e-05
2158	6.05e-05
2170	5.5e-05
2182	5.17e-05
2194	5.94e-05
2206	4.73e-05
2218	4.84e-05
2230	5.28e-05
2242	3.96e-05
2254	5.72e-05
2266	5.39e-05
2278	4.29e-05
2290	6.05e-05
2302	5.39e-05
2314	5.28e-05
2326	2.75e-05
2338	5.17e-05
2350	4.51e-05
2362	4.62e-05
2374	7.48e-05
2386	6.93e-05
2398	8.36e-05
2410	8.03e-05
2422	8.14e-05
2434	7.48e-05
2446	5.94e-05
2458	7.59e-05
2470	8.14e-05
2482	7.37e-05
2494	6.82e-05
2506	8.91e-05
2518	7.26e-05
2530	9.57e-05
2542	8.91e-05
2554	0.0001012
2566	0.0001122
2578	0.0001298
2590	0.0001342
2602	0.0001298
2614	0.0001485
2626	0.0001408
2638	0.0001551
2650	0.0001859
2662	0.0001639
2674	0.0001705
2686	0.0001793
2698	0.0001991
2710	0.0002013
2722	0.0002552
2734	0.0002574
2746	0.0002772
2758	0.0002992
2770	0.0003036
2782	0.0003344
2794	0.000385
2806	0.0004422
2818	0.0005368
2830	0.0007161
2842	0.0011198
2854	0.0020856
2866	0.0033847
2878	0.0046046
2890	0.0044924
2902	0.0045199
2914	0.0062579
2926	0.0077583
2938	0.007535
2950	0.0074855
2962	0.0107063
2974	0.0084777
2986	0.0029909
2998	0.0012485
3010	0.0007546
3022	0.0005434
3034	0.0004411
3046	0.0003795
3058	0.0003553
3070	0.00033
3082	0.0003157
3094	0.0002893
3106	0.0002442
3118	0.0002387
3130	0.0002288
3142	0.0002112
3154	0.000209
3166	0.0002277
3178	0.0002541
3190	0.0002178
3202	0.0001617
3214	0.0001254
3226	0.0001254
3238	9.35e-05
3250	0.00011
3262	6.82e-05
3274	0.0001001
3286	6.6e-05
3298	0.0001188
3310	0.0001155
3322	0.0001177
3334	0.0001001
3346	8.91e-05
3358	0.00011
3370	0.0001188
3382	8.69e-05
3394	7.04e-05
3406	8.36e-05
3418	8.91e-05
3430	0.0001056
3442	0.0001001
3454	9.79e-05
3466	0.0001045
3478	8.58e-05
3490	8.91e-05
3502	4.18e-05
3514	7.48e-05
3526	9.9e-05
3538	6.82e-05
3550	9.35e-05
3562	4.95e-05
3574	4.73e-05
3586	0.0001034
3598	6.82e-05
3610	0.0001089
3622	6.16e-05
3634	6.93e-05
3646	6.38e-05
3658	7.48e-05
3670	9.9e-05
3682	8.25e-05
3694	9.13e-05
3706	0.0001067
3718	0.0001045
3730	8.03e-05
3742	8.8e-05
3754	7.26e-05
3766	0.0001243
3778	0.0001166
3790	9.79e-05
3802	7.48e-05
3814	8.91e-05
3826	9.46e-05
3838	0.0001276
