Infrared Spectrum: Di-n-propylbarbituric acid
Formula: C 10 H 16 N 2 O 3
CAS: 2217-08-5
State: gas
Origin: EPA-IR VAPOR PHASE LIBRARY
1/CM	ABSORBANCE
549.9	0.0030483
559.547	0.0029966
569.193	0.0028312
578.84	0.0027554
588.486	0.0032
598.133	0.00447
607.779	0.00676
617.426	0.00861
627.072	0.01145
636.719	0.01623
646.365	0.02444
656.012	0.04141
665.658	0.05891
675.305	0.05048
684.951	0.02556
694.598	0.01338
704.245	0.01056
713.891	0.01129
723.538	0.01148
733.184	0.01228
742.831	0.01783
752.477	0.03841
762.124	0.04205
771.77	0.01893
781.417	0.01095
791.063	0.00827
800.71	0.0065
810.356	0.005
820.003	0.00369
829.649	0.0027102
839.296	0.00221477
848.943	0.002032
858.589	0.0020928
868.236	0.0021401
877.882	0.00218327
887.529	0.002081
897.175	0.002027
906.822	0.0019
916.468	0.001676
926.115	0.001414
935.761	0.001372
945.408	0.001481
955.054	0.001708
964.701	0.00228831
974.347	0.00334
983.994	0.00422
993.64	0.00576
1003.29	0.0096
1012.93	0.01012
1022.58	0.00697
1032.23	0.00482
1041.87	0.00446
1051.52	0.00396
1061.17	0.0033
1070.81	0.003091
1080.46	0.003031
1090.11	0.0031667
1099.75	0.0035
1109.4	0.00397
1119.05	0.00496
1128.69	0.00778
1138.34	0.01357
1147.99	0.01908
1157.63	0.01913
1167.28	0.01384
1176.92	0.01393
1186.57	0.0235
1196.22	0.03263
1205.86	0.02641
1215.51	0.01856
1225.16	0.01879
1234.8	0.02403
1244.45	0.03067
1254.1	0.03638
1263.74	0.05476
1273.39	0.08841
1283.04	0.09186
1292.68	0.07054
1302.33	0.06513
1311.98	0.06442
1321.62	0.06191
1331.27	0.06155
1340.92	0.05259
1350.56	0.043
1360.21	0.04584
1369.86	0.05776
1379.5	0.0701
1389.15	0.09097
1398.79	0.09298
1408.44	0.08237
1418.09	0.0801
1427.73	0.05445
1437.38	0.03986
1447.03	0.0347
1456.67	0.02717
1466.32	0.02472
1475.97	0.01839
1485.61	0.01312
1495.26	0.01302
1504.91	0.01186
1514.55	0.00995
1524.2	0.0079
1533.85	0.0069
1543.49	0.00639
1553.14	0.00521
1562.79	0.00429
1572.43	0.00436
1582.08	0.00517
1591.73	0.00584
1601.37	0.00562
1611.02	0.00595
1620.67	0.0063
1630.31	0.0065
1639.96	0.00677
1649.6	0.00709
1659.25	0.00841
1668.9	0.01154
1678.54	0.01611
1688.19	0.02201
1697.84	0.03078
1707.48	0.05056
1717.13	0.13749
1726.78	0.27386
1736.42	0.22046
1746.07	0.20659
1755.72	0.26107
1765.36	0.29512
1775.01	0.39332
1784.66	0.23097
1794.3	0.07393
1803.95	0.03974
1813.6	0.02709
1823.24	0.01803
1832.89	0.01222
1842.54	0.0097
1852.18	0.00892
1861.83	0.00814
1871.47	0.00723
1881.12	0.0068
1890.77	0.00665
1900.41	0.00649
1910.06	0.00561
1919.71	0.0042
1929.35	0.00319
1939	0.0027062
1948.65	0.0023603
1958.29	0.00218871
1967.94	0.002067
1977.59	0.002174
1987.23	0.0024651
1996.88	0.00322
2006.53	0.00391
2016.17	0.00346
2025.82	0.0027153
2035.47	0.0023497
2045.11	0.002045
2054.76	0.001787
2064.41	0.001633
2074.05	0.001501
2083.7	0.001452
2093.35	0.001262
2102.99	0.00111
2112.64	0.00108
2122.28	0.00114
2131.93	0.00114
2141.58	0.00118
2151.22	0.001245
2160.87	0.001342
2170.52	0.001312
2180.16	0.001264
2189.81	0.00113
2199.46	0.00109
2209.1	0.00104
2218.75	0.00095
2228.4	0.0009
2238.04	0.00085
2247.69	0.0009
2257.34	0.00091
2266.98	0.00098
2276.63	0.00107
2286.28	0.00109
2295.92	0.00116
2305.57	0.00113
2315.22	0.00115
2324.86	0.001229
2334.51	0.00147
2344.16	0.00165
2353.8	0.001765
2363.45	0.001945
2373.09	0.00219597
2382.74	0.0023212
2392.39	0.0021149
2402.03	0.001823
2411.68	0.001704
2421.33	0.001639
2430.97	0.001465
2440.62	0.001219
2450.27	0.00107
2459.91	0.00112
2469.56	0.00118
2479.21	0.00117
2488.85	0.001239
2498.5	0.001247
2508.15	0.00116
2517.79	0.00114
2527.44	0.00115
2537.09	0.00117
2546.73	0.00113
2556.38	0.00109
2566.03	0.00094
2575.67	0.0009
2585.32	0.00089
2594.96	0.00083
2604.61	0.00079
2614.26	0.00082
2623.9	0.00076
2633.55	0.00072
2643.2	0.00071
2652.84	0.00088
2662.49	0.00081
2672.14	0.0008
2681.78	0.00078
2691.43	0.00094
2701.08	0.00109
2710.72	0.001228
2720.37	0.001429
2730.02	0.001686
2739.66	0.002088
2749.31	0.0023496
2758.96	0.0021368
2768.6	0.002045
2778.25	0.001982
2787.9	0.002038
2797.54	0.00225118
2807.19	0.0024771
2816.84	0.0030215
2826.48	0.00345
2836.13	0.00419
2845.77	0.00552
2855.42	0.00781
2865.07	0.01197
2874.71	0.01988
2884.36	0.03123
2894.01	0.02623
2903.65	0.01811
2913.3	0.01984
2922.95	0.02509
2932.59	0.03778
2942.24	0.05313
2951.89	0.04265
2961.53	0.04556
2971.18	0.08484
2980.83	0.06254
2990.47	0.02043
3000.12	0.01005
3009.77	0.00676
3019.41	0.00505
3029.06	0.00405
3038.71	0.00364
3048.35	0.003093
3058	0.0027025
3067.64	0.00220859
3077.29	0.001711
3086.94	0.001625
3096.58	0.001689
3106.23	0.001691
3115.88	0.001685
3125.52	0.00153
3135.17	0.001412
3144.82	0.00163
3154.46	0.001807
3164.11	0.00165
3173.76	0.001343
3183.4	0.00107
3193.05	0.00068
3202.7	0.00053
3212.34	0.00052
3221.99	0.00029
3231.64	0.00019
3241.28	8e-05
3250.93	0.00026
3260.58	0.00039
3270.22	0.00026
3279.87	0.00028
3289.52	0.00023
3299.16	0.00037
3308.81	0.00041
3318.45	0.00032
3328.1	0.00046
3337.75	0.00061
3347.39	0.0006
3357.04	0.0007
3366.69	0.00098
3376.33	0.001288
3385.98	0.001887
3395.63	0.00339
3405.27	0.00872
3414.92	0.03116
3424.57	0.09362
3434.21	0.09544
3443.86	0.02633
3453.51	0.00798
3463.15	0.00634
3472.8	0.00478
3482.45	0.0031166
3492.09	0.0025494
3501.74	0.00220976
3511.39	0.0026576
3521.03	0.0031038
3530.68	0.00381
3540.33	0.0035
3549.97	0.0026373
3559.62	0.002065
3569.26	0.001477
3578.91	0.001385
3588.56	0.00117
3598.2	0.001208
3607.85	0.00112
3617.5	0.00125
3627.14	0.00098
3636.79	0.00102
3646.44	0.00111
3656.08	0.001239
3665.73	0.00118
3675.38	0.00114
3685.02	0.00107
3694.67	0.00116
3704.32	0.00106
3713.96	0.0011
3723.61	0.00111
3733.26	0.001219
3742.9	0.001195
3752.55	0.00112
3762.2	0.00116
3771.84	0.00114
3781.49	0.001
3791.13	0.001246
3800.78	0.001306
3810.43	0.001196
3820.07	0.001326
3829.72	0.00118
3839.37	0.00114
3849.01	0.00106
3858.66	0.00115
3868.31	0.001251
3877.95	0.001204
3887.6	0.001205
3897.25	0.001192
3906.89	0.001254
3916.54	0.001396
3926.19	0.001455
3935.83	0.001251
3945.48	0.001217
3955.13	0.001215
3964.77	0.001249
3974.42	0.001336
3984.07	0.00127
3993.71	0.001297
