Infrared Spectrum: BIS-(2,4,6-TRINITROPHENYL)SULFIDE
Formula: C12 H4 N6 O12 S
CAS: 2217-06-3
State: SOLID (MINERAL OIL MULL)
Class: COBLENTZ
Instrument: Not specified, most likely a prism, grating, or hybrid spectrometer.
Sampling: TRANSMISSION
Resolution: 4
Origin: WYANDOTTE CHEMICALS CORP., WYANDOTTE, MICHIGAN, USA
MICROMETERS	TRANSMITTANCE
2.027	0.348
2.0679	0.353
2.10879	0.353
2.14969	0.362
2.19059	0.357
2.23149	0.35
2.27238	0.352
2.31328	0.355
2.35418	0.358
2.39507	0.363
2.43597	0.365
2.47687	0.37
2.51776	0.379
2.55866	0.38
2.59956	0.397
2.64046	0.392
2.68135	0.404
2.72225	0.401
2.76315	0.403
2.80404	0.394
2.84494	0.404
2.88584	0.401
2.92673	0.401
2.96763	0.404
3.00853	0.409
3.04943	0.413
3.09032	0.413
3.13122	0.401
3.17212	0.391
3.21301	0.362
3.25391	0.193
3.29481	0.267
3.3357	0.151
3.3766	0.028
3.4175	0.034
3.4584	0.035
3.49929	0.045
3.54019	0.091
3.58109	0.413
3.62198	0.488
3.66288	0.508
3.70378	0.493
3.74467	0.506
3.78557	0.511
3.82647	0.534
3.86737	0.539
3.90826	0.551
3.94916	0.573
3.99006	0.581
4.03095	0.588
4.07185	0.591
4.11275	0.593
4.15365	0.605
4.19454	0.61
4.23544	0.608
4.27634	0.593
4.31723	0.617
4.35813	0.656
4.39903	0.675
4.43992	0.658
4.48082	0.659
4.52172	0.67
4.56262	0.675
4.60351	0.683
4.64441	0.692
4.68531	0.698
4.7262	0.712
4.7671	0.726
4.808	0.731
4.84889	0.734
4.88979	0.743
4.93069	0.746
4.97159	0.75
5.01248	0.767
5.05338	0.77
5.09428	0.775
5.13517	0.789
5.17607	0.797
5.21697	0.802
5.25786	0.811
5.29876	0.823
5.33966	0.828
5.38056	0.828
5.42145	0.824
5.46235	0.831
5.50325	0.845
5.54414	0.858
5.58504	0.87
5.62594	0.891
5.66683	0.901
5.70773	0.904
5.74863	0.916
5.78953	0.931
5.83042	0.947
5.87132	0.937
5.91222	0.94
5.95311	0.947
5.99401	0.938
6.03491	0.923
6.0758	0.914
6.1167	0.857
6.1576	0.588
6.1985	0.19
6.23939	0.328
6.28029	0.598
6.32119	0.6
6.36208	0.353
6.40298	0.141
6.44388	0.098
6.48478	0.064
6.52567	0.074
6.56657	0.136
6.60747	0.19
6.64836	0.248
6.68926	0.289
6.73016	0.258
6.77105	0.108
6.81195	0.071
6.85285	0.12
6.89375	0.226
6.93464	0.348
6.97554	0.559
7.01644	0.664
7.05733	0.712
7.09823	0.738
7.13913	0.698
7.18002	0.569
7.22092	0.37
7.26182	0.236
7.30272	0.314
7.34361	0.209
7.38451	0.107
7.42541	0.066
7.4663	0.066
7.5072	0.059
7.5481	0.107
7.58899	0.175
7.62989	0.231
7.67079	0.253
7.71169	0.297
7.75258	0.336
7.79348	0.36
7.83438	0.399
7.87527	0.423
7.91617	0.454
7.95707	0.471
7.99796	0.482
8.03886	0.5
8.07976	0.511
8.12066	0.532
8.16155	0.549
8.20245	0.569
8.24335	0.585
8.28424	0.585
8.32514	0.608
8.36604	0.624
8.40694	0.625
8.44783	0.612
8.48873	0.588
8.52963	0.571
8.57052	0.595
8.61142	0.629
8.65232	0.647
8.69321	0.67
8.73411	0.698
8.77501	0.712
8.81591	0.727
8.8568	0.724
8.8977	0.688
8.9386	0.557
8.97949	0.503
9.02039	0.54
9.06129	0.593
9.10218	0.642
9.14308	0.664
9.18398	0.678
9.22488	0.69
9.26577	0.705
9.30667	0.714
9.34757	0.717
9.38846	0.714
9.42936	0.673
9.47026	0.617
9.51115	0.539
9.55205	0.579
9.59295	0.639
9.63385	0.666
9.67474	0.695
9.71564	0.709
9.75654	0.726
9.79743	0.736
9.83833	0.744
9.87923	0.763
9.92012	0.763
9.96102	0.77
10.0019	0.794
10.0428	0.795
10.0837	0.807
10.1246	0.812
10.1655	0.812
10.2064	0.812
10.2473	0.799
10.2882	0.799
10.3291	0.818
10.37	0.819
10.4109	0.826
10.4518	0.836
10.4927	0.848
10.5336	0.853
10.5745	0.863
10.6154	0.85
10.6563	0.785
10.6972	0.617
10.7381	0.557
10.779	0.559
10.8199	0.569
10.8608	0.396
10.9017	0.358
10.9426	0.297
10.9834	0.284
11.0243	0.362
11.0652	0.457
11.1061	0.545
11.147	0.634
11.1879	0.675
11.2288	0.712
11.2697	0.739
11.3106	0.763
11.3515	0.778
11.3924	0.801
11.4333	0.809
11.4742	0.818
11.5151	0.823
11.556	0.828
11.5969	0.831
11.6378	0.835
11.6787	0.838
11.7196	0.841
11.7605	0.845
11.8014	0.852
11.8423	0.858
11.8832	0.869
11.9241	0.872
11.965	0.875
12.0059	0.887
12.0468	0.896
12.0877	0.799
12.1286	0.773
12.1695	0.556
12.2104	0.637
12.2513	0.795
12.2922	0.835
12.333	0.85
12.3739	0.874
12.4148	0.877
12.4557	0.882
12.4966	0.889
12.5375	0.894
12.5784	0.896
12.6193	0.896
12.6602	0.903
12.7011	0.897
12.742	0.896
12.7829	0.896
12.8238	0.892
12.8647	0.882
12.9056	0.869
12.9465	0.863
12.9874	0.852
13.0283	0.838
13.0692	0.867
13.1101	0.867
13.151	0.855
13.1919	0.829
13.2328	0.755
13.2737	0.539
13.3146	0.425
13.3555	0.409
13.3964	0.477
13.4373	0.603
13.4782	0.681
13.5191	0.715
13.56	0.693
13.6009	0.583
13.6418	0.437
13.6827	0.294
13.7235	0.224
13.7644	0.178
13.8053	0.21
13.8462	0.226
13.8871	0.18
13.928	0.158
13.9689	0.175
14.0098	0.287
14.0507	0.36
14.0916	0.465
14.1325	0.525
14.1734	0.573
14.2143	0.619
14.2552	0.646
14.2961	0.668
14.337	0.687
14.3779	0.698
14.4188	0.705
14.4597	0.704
14.5006	0.695
14.5415	0.668
14.5824	0.642
14.6233	0.636
14.6642	0.647
14.7051	0.666
14.746	0.676
14.7869	0.683
14.8278	0.688
14.8687	0.687
14.9096	0.688
14.9505	0.688
14.9914	0.67
15.0323	0.596
15.0731	0.525
15.114	0.52
15.1549	0.566
15.1958	0.613
15.2367	0.634
15.2776	0.636
15.3185	0.62
15.3594	0.619
15.4003	0.607
15.4412	0.598
15.4821	0.593
15.523	0.59
15.5639	0.593
15.6048	0.595
15.6457	0.586
15.6866	0.579
15.7275	0.576
15.7684	0.562
15.8093	0.552
15.8502	0.54
15.8911	0.532
15.932	0.522
15.9729	0.508
