Infrared Spectrum: 1-Amino-5,6,7,8-tetrahydronaphthalene
Formula: C 10 H 13 N
CAS: 2217-41-6
State: gas
Instrument: HP-GC/MS/IRD
Origin: NIST Mass Spectrometry Data Center
1/CM	ABSORBANCE
550	0.0011977
562	0.0014268
574	0.0014529
586	0.0016443
598	0.0017951
610	0.0020126
622	0.0023171
634	0.0028391
646	0.002929
658	0.0027782
670	0.0027115
682	0.0030305
694	0.0037323
706	0.004843
718	0.0034974
730	0.0026216
742	0.0033379
754	0.0067367
766	0.008874
778	0.0046342
790	0.0022475
802	0.001653
814	0.0013746
826	0.0015863
838	0.0015051
850	0.0012934
862	0.0012267
874	0.0011136
886	0.0010962
898	0.0009425
910	0.0005075
922	0.0003567
934	0.0003799
946	0.0005104
958	0.0008787
970	0.0008555
982	0.000406
994	0.00029
1006	0.0002726
1018	0.0004176
1030	0.0002958
1042	0.0002262
1054	0.0004408
1066	0.0008816
1078	0.0012731
1090	0.000783
1102	0.0005829
1114	0.0008294
1126	0.000522
1138	0.0003335
1150	0.0004669
1162	0.0006612
1174	0.0004205
1186	9.57e-05
1198	1.45e-05
1210	0
1222	9.57e-05
1234	0.0002871
1246	0.0010556
1258	0.0016733
1270	0.0033988
1282	0.0064612
1294	0.0059624
1306	0.0029145
1318	0.0014471
1330	0.0016907
1342	0.0017777
1354	0.0010179
1366	0.000435
1378	0.0002465
1390	0.0002059
1402	0.0003393
1414	0.000493
1426	0.0010208
1438	0.0026767
1450	0.0062118
1462	0.0109069
1474	0.0091756
1486	0.0041441
1498	0.00174
1510	0.0009483
1522	0.0007917
1534	0.0009512
1546	0.001247
1558	0.001885
1570	0.0033263
1582	0.0061712
1594	0.008439
1606	0.0088508
1618	0.0131863
1630	0.0119219
1642	0.0049329
1654	0.0019865
1666	0.0010701
1678	0.0006699
1690	0.0005481
1702	0.0005191
1714	0.00058
1726	0.0005742
1738	0.0004379
1750	0.0003828
1762	0.0003335
1774	0.00029
1786	0.0003074
1798	0.0003915
1810	0.0004901
1822	0.0003712
1834	0.0002581
1846	0.0002465
1858	0.0002494
1870	0.00029
1882	0.0004321
1894	0.0007076
1906	0.0006525
1918	0.0003828
1930	0.0002987
1942	0.000261
1954	0.0002407
1966	0.0002291
1978	0.0002233
1990	0.0002291
2002	0.0002552
2014	0.0002233
2026	0.000261
2038	0.0002378
2050	0.0002581
2062	0.0002697
2074	0.0002813
2086	0.0002755
2098	0.0002871
2110	0.0002784
2122	0.0002726
2134	0.00029
2146	0.000261
2158	0.000261
2170	0.0002639
2182	0.000261
2194	0.0002581
2206	0.0002465
2218	0.0002668
2230	0.0002639
2242	0.0002784
2254	0.0002639
2266	0.0002204
2278	0.0002581
2290	0.0002697
2302	0.0002697
2314	0.0002958
2326	0.0003016
2338	0.0003248
2350	0.0002987
2362	0.0003132
2374	0.0002987
2386	0.0002813
2398	0.0002958
2410	0.0003045
2422	0.0002813
2434	0.0002755
2446	0.0002639
2458	0.0002726
2470	0.0003161
2482	0.0003132
2494	0.0002842
2506	0.0002929
2518	0.00029
2530	0.0002929
2542	0.0003016
2554	0.0003016
2566	0.0003393
2578	0.0004031
2590	0.0004205
2602	0.0004118
2614	0.0004292
2626	0.0004379
2638	0.0004785
2650	0.0005713
2662	0.0006931
2674	0.000667
2686	0.0006322
2698	0.0005394
2710	0.0005249
2722	0.0005133
2734	0.000493
2746	0.000551
2758	0.0006264
2770	0.0007134
2782	0.0008207
2794	0.000986
2806	0.0012876
2818	0.0017458
2830	0.0031552
2842	0.006061
2854	0.0073776
2866	0.0088885
2878	0.0087551
2890	0.0079924
2902	0.0081722
2914	0.0094888
2926	0.0170317
2938	0.029
2950	0.0233479
2962	0.0073805
2974	0.0024331
2986	0.0015515
2998	0.0014848
3010	0.002291
3022	0.0047009
3034	0.0060465
3046	0.005075
3058	0.0043645
3070	0.0041934
3082	0.0030015
3094	0.0012267
3106	0.0006061
3118	0.0005133
3130	0.0004582
3142	0.0005104
3154	0.0005075
3166	0.0004698
3178	0.0004988
3190	0.0005162
3202	0.0005249
3214	0.0005191
3226	0.0005365
3238	0.0005075
3250	0.0004205
3262	0.0003277
3274	0.0003219
3286	0.0002987
3298	0.000348
3310	0.0002726
3322	0.0003248
3334	0.0003509
3346	0.0003074
3358	0.0003683
3370	0.0004147
3382	0.0005104
3394	0.0008816
3406	0.0013688
3418	0.0010469
3430	0.0005858
3442	0.000493
3454	0.0005684
3466	0.0007134
3478	0.0014036
3490	0.0020184
3502	0.0013746
3514	0.0006699
3526	0.0005133
3538	0.0004582
3550	0.0003712
3562	0.0003132
3574	0.0003538
3586	0.0003074
3598	0.000348
3610	0.0003364
3622	0.0002929
3634	0.0002436
3646	0.0003132
3658	0.0003625
3670	0.0003683
3682	0.0003944
3694	0.0003335
3706	0.0003741
3718	0.0003654
3730	0.000435
3742	0.0004031
3754	0.0003828
3766	0.0003509
3778	0.0003828
3790	0.0003828
3802	0.0004553
3814	0.0004785
3826	0.0004524
3838	0.0005075
