Infrared Spectrum: 4-AMINOANTIPYRINE HYDROCHLORIDE
Formula: C11 H13 N3 O  * H Cl
CAS: 22198-72-7
State: SOLID (MINERAL OIL MULL)
Melting point: 231 C (DECOMPOSE)
Class: COBLENTZ
Instrument: Not specified, most likely a prism, grating, or hybrid spectrometer.
Sampling: TRANSMISSION
Resolution: 4
Origin: WYANDOTTE CHEMICALS CORP., WYANDOTTE, MICHIGAN, USA
MICROMETERS	TRANSMITTANCE
2.019	0.426
2.05609	0.416
2.09317	0.423
2.13026	0.432
2.16734	0.424
2.20443	0.405
2.24152	0.401
2.2786	0.415
2.31569	0.43
2.35277	0.429
2.38986	0.444
2.42694	0.465
2.46403	0.482
2.50112	0.486
2.5382	0.499
2.57529	0.511
2.61237	0.527
2.64946	0.539
2.68655	0.539
2.72363	0.542
2.76072	0.544
2.7978	0.548
2.83489	0.553
2.87198	0.561
2.90906	0.569
2.94615	0.562
2.98323	0.576
3.02032	0.584
3.0574	0.58
3.09449	0.575
3.13158	0.528
3.16866	0.477
3.20575	0.444
3.24283	0.342
3.27992	0.241
3.31701	0.083
3.35409	0.024
3.39118	0.021
3.42826	0.021
3.46535	0.015
3.50244	0.023
3.53952	0.037
3.57661	0.054
3.61369	0.054
3.65078	0.048
3.68787	0.06
3.72495	0.062
3.76204	0.043
3.79912	0.034
3.83621	0.032
3.87329	0.026
3.91038	0.027
3.94747	0.032
3.98455	0.034
4.02164	0.034
4.05872	0.04
4.09581	0.04
4.1329	0.046
4.16998	0.073
4.20707	0.09
4.24415	0.097
4.28124	0.105
4.31833	0.115
4.35541	0.146
4.3925	0.152
4.42958	0.169
4.46667	0.183
4.50375	0.195
4.54084	0.2
4.57793	0.222
4.61501	0.248
4.6521	0.269
4.68918	0.279
4.72627	0.311
4.76336	0.325
4.80044	0.356
4.83753	0.362
4.87461	0.348
4.9117	0.311
4.94879	0.275
4.98587	0.242
5.02296	0.272
5.06004	0.303
5.09713	0.353
5.13421	0.398
5.1713	0.446
5.20839	0.489
5.24547	0.52
5.28256	0.552
5.31964	0.569
5.35673	0.562
5.39382	0.604
5.4309	0.62
5.46799	0.656
5.50507	0.681
5.54216	0.692
5.57925	0.678
5.61633	0.687
5.65342	0.679
5.6905	0.678
5.72759	0.651
5.76468	0.639
5.80176	0.609
5.83885	0.589
5.87593	0.55
5.91302	0.44
5.9501	0.343
5.98719	0.206
6.02428	0.088
6.06136	0.082
6.09845	0.099
6.13553	0.055
6.17262	0.08
6.20971	0.119
6.24679	0.09
6.28388	0.059
6.32096	0.088
6.35805	0.132
6.39514	0.211
6.43222	0.202
6.46931	0.091
6.50639	0.076
6.54348	0.096
6.58056	0.094
6.61765	0.068
6.65474	0.049
6.69182	0.032
6.72891	0.037
6.76599	0.021
6.80308	0.018
6.84017	0.027
6.87725	0.027
6.91434	0.049
6.95142	0.125
6.98851	0.158
7.0256	0.141
7.06268	0.166
7.09977	0.225
7.13685	0.281
7.17394	0.244
7.21102	0.093
7.24811	0.046
7.2852	0.077
7.32228	0.135
7.35937	0.22
7.39645	0.295
7.43354	0.27
7.47063	0.172
7.50771	0.199
7.5448	0.199
7.58188	0.121
7.61897	0.079
7.65606	0.115
7.69314	0.181
7.73023	0.233
7.76731	0.293
7.8044	0.334
7.84148	0.312
7.87857	0.279
7.91566	0.311
7.95274	0.367
7.98983	0.377
8.02691	0.382
8.064	0.424
8.10109	0.455
8.13817	0.479
8.17526	0.477
8.21234	0.486
8.24943	0.458
8.28652	0.496
8.3236	0.541
8.36069	0.566
8.39777	0.587
8.43486	0.564
8.47195	0.409
8.50903	0.286
8.54612	0.32
8.5832	0.315
8.62029	0.318
8.65737	0.379
8.69446	0.451
8.73155	0.511
8.76863	0.536
8.80572	0.525
8.8428	0.441
8.87989	0.351
8.91698	0.349
8.95406	0.424
8.99115	0.488
9.02823	0.536
9.06532	0.553
9.10241	0.581
9.13949	0.6
9.17658	0.62
9.21366	0.614
9.25075	0.586
9.28783	0.569
9.32492	0.531
9.36201	0.57
9.39909	0.628
9.43618	0.66
9.47326	0.692
9.51035	0.671
9.54744	0.682
9.58452	0.674
9.62161	0.642
9.65869	0.598
9.69578	0.584
9.73287	0.578
9.76995	0.604
9.80704	0.631
9.84412	0.62
9.88121	0.594
9.91829	0.46
9.95538	0.486
9.99247	0.608
10.0296	0.659
10.0666	0.667
10.1037	0.682
10.1408	0.701
10.1779	0.706
10.215	0.718
10.2521	0.698
10.2892	0.698
10.3262	0.692
10.3633	0.709
10.4004	0.729
10.4375	0.721
10.4746	0.732
10.5117	0.737
10.5488	0.74
10.5858	0.748
10.6229	0.758
10.66	0.76
10.6971	0.721
10.7342	0.701
10.7713	0.74
10.8084	0.721
10.8454	0.671
10.8825	0.695
10.9196	0.729
10.9567	0.768
10.9938	0.782
11.0309	0.772
11.068	0.748
11.105	0.783
11.1421	0.818
11.1792	0.83
11.2163	0.853
11.2534	0.864
11.2905	0.88
11.3276	0.892
11.3646	0.911
11.4017	0.903
11.4388	0.919
11.4759	0.923
11.513	0.937
11.5501	0.936
11.5872	0.94
11.6242	0.951
11.6613	0.958
11.6984	0.954
11.7355	0.936
11.7726	0.925
11.8097	0.953
11.8468	0.961
11.8838	0.961
11.9209	0.94
11.958	0.846
11.9951	0.618
12.0322	0.51
12.0693	0.626
12.1064	0.699
12.1434	0.74
12.1805	0.754
12.2176	0.779
12.2547	0.819
12.2918	0.842
12.3289	0.863
12.366	0.877
12.403	0.881
12.4401	0.869
12.4772	0.85
12.5143	0.814
12.5514	0.754
12.5885	0.678
12.6256	0.589
12.6627	0.52
12.6997	0.51
12.7368	0.564
12.7739	0.629
12.811	0.674
12.8481	0.654
12.8852	0.562
12.9223	0.385
12.9593	0.188
12.9964	0.074
13.0335	0.077
13.0706	0.171
13.1077	0.326
13.1448	0.463
13.1819	0.561
13.2189	0.64
13.256	0.695
13.2931	0.734
13.3302	0.776
13.3673	0.808
13.4044	0.83
13.4415	0.83
13.4785	0.822
13.5156	0.807
13.5527	0.765
13.5898	0.679
13.6269	0.502
13.664	0.41
13.7011	0.485
13.7381	0.623
13.7752	0.704
13.8123	0.751
13.8494	0.771
13.8865	0.794
13.9236	0.819
13.9607	0.866
13.9977	0.905
14.0348	0.94
14.0719	0.95
14.109	0.914
14.1461	0.846
14.1832	0.804
14.2203	0.81
14.2573	0.785
14.2944	0.676
14.3315	0.528
14.3686	0.393
14.4057	0.301
14.4428	0.231
14.4799	0.189
14.5169	0.191
14.554	0.292
14.5911	0.412
14.6282	0.555
14.6653	0.654
14.7024	0.715
14.7395	0.782
14.7765	0.813
14.8136	0.849
14.8507	0.883
14.8878	0.898
14.9249	0.905
14.962	0.892
14.9991	0.863
15.0361	0.776
15.0732	0.646
15.1103	0.545
15.1474	0.506
15.1845	0.511
15.2216	0.57
15.2587	0.629
15.2957	0.664
15.3328	0.673
15.3699	0.662
15.407	0.662
15.4441	0.648
15.4812	0.653
15.5183	0.628
15.5554	0.598
15.5924	0.562
15.6295	0.538
15.6666	0.514
15.7037	0.522
15.7408	0.53
15.7779	0.556
15.815	0.559
15.852	0.572
15.8891	0.575
15.9262	0.559
15.9633	0.562
