Infrared Spectrum: UREA, 1-(2-CYANOETHYL)-3-PHENYL-
Formula: C10 H11 N3 O
CAS: 22193-20-0
State: SOLID (0.7 mg / 500 mg KBr DISC)
Class: COBLENTZ III
Instrument: PERKIN-ELMER 21 (GRATING)
Instrument parameters: NaCl PRISM, FILTER CHANGE ABOUT 980 CM^-^1
Sampling: TRANSMISSION
Resolution: 4
Origin: SOUTHERN RES. INSTITUTE
1/CM	TRANSMITTANCE
602.093	0.694
611.227	0.673
620.361	0.653
629.495	0.635
638.63	0.598
647.764	0.594
656.898	0.635
666.032	0.708
675.166	0.761
684.3	0.815
693.435	0.646
702.569	0.676
711.703	0.862
720.837	0.843
729.971	0.688
739.105	0.56
748.24	0.501
757.374	0.569
766.508	0.637
775.642	0.633
784.776	0.872
793.91	0.928
803.044	0.931
812.179	0.938
821.313	0.935
830.447	0.904
839.581	0.881
848.715	0.92
857.849	0.939
866.984	0.934
876.118	0.915
885.252	0.838
894.386	0.914
903.52	0.842
912.654	0.872
921.789	0.915
930.923	0.928
940.057	0.924
949.191	0.917
958.325	0.912
967.459	0.877
976.594	0.858
985.728	0.89
994.862	0.861
1004	0.873
1013.13	0.886
1022.26	0.881
1031.4	0.815
1040.53	0.833
1049.67	0.877
1058.8	0.852
1067.94	0.75
1077.07	0.589
1086.2	0.794
1095.34	0.821
1104.47	0.821
1113.61	0.806
1122.74	0.8
1131.87	0.805
1141.01	0.802
1150.14	0.783
1159.28	0.771
1168.41	0.76
1177.54	0.665
1186.68	0.767
1195.81	0.739
1204.95	0.686
1214.08	0.573
1223.22	0.669
1232.35	0.579
1241.48	0.392
1250.62	0.404
1259.75	0.525
1268.89	0.647
1278.02	0.628
1287.15	0.679
1296.29	0.577
1305.42	0.46
1314.56	0.357
1323.69	0.637
1332.83	0.576
1341.96	0.752
1351.09	0.773
1360.23	0.756
1369.36	0.532
1378.5	0.745
1387.63	0.815
1396.76	0.793
1405.9	0.764
1415.03	0.663
1424.17	0.526
1433.3	0.561
1442.44	0.354
1451.57	0.705
1460.7	0.786
1469.84	0.772
1478.97	0.69
1488.11	0.432
1497.24	0.454
1506.37	0.25
1515.51	0.57
1524.64	0.515
1533.78	0.319
1542.91	0.292
1552.05	0.243
1561.18	0.258
1570.31	0.347
1579.45	0.512
1588.58	0.667
1597.72	0.493
1606.85	0.348
1615.98	0.566
1625.12	0.591
1634.25	0.591
1643.39	0.557
1652.52	0.489
1661.66	0.32
1670.79	0.125
1679.92	0.337
1689.06	0.534
1698.19	0.619
1707.33	0.735
1716.46	0.815
1725.59	0.836
1734.73	0.87
1743.86	0.869
1753	0.873
1762.13	0.891
1771.27	0.904
1780.4	0.908
1789.53	0.91
1798.67	0.912
1807.8	0.914
1816.94	0.917
1826.07	0.919
1835.2	0.92
1844.34	0.916
1853.47	0.915
1862.61	0.913
1871.74	0.905
1880.88	0.916
1890.01	0.92
1899.14	0.924
1908.28	0.926
1917.41	0.924
1926.55	0.921
1935.68	0.919
1944.81	0.906
1953.95	0.904
1963.08	0.913
1972.22	0.915
1981.35	0.917
1990.49	0.919
1999.62	0.919
2008.75	0.918
2017.89	0.917
2027.02	0.918
2036.16	0.917
2045.29	0.916
2054.42	0.912
2063.56	0.909
2072.69	0.906
2081.83	0.905
2090.96	0.903
2100.1	0.903
2109.23	0.903
2118.36	0.902
2127.5	0.901
2136.63	0.9
2145.77	0.9
2154.9	0.9
2164.03	0.899
2173.17	0.899
2182.3	0.897
2191.44	0.896
2200.57	0.895
2209.7	0.893
2218.84	0.889
2227.97	0.886
2237.11	0.851
2246.24	0.672
2255.38	0.77
2264.51	0.847
2273.64	0.894
2282.78	0.896
2291.91	0.894
2301.05	0.888
2310.18	0.884
2319.31	0.879
2328.45	0.877
2337.58	0.878
2346.72	0.878
2355.85	0.877
2364.99	0.876
2374.12	0.879
2383.25	0.881
2392.39	0.88
2401.52	0.878
2410.66	0.877
2419.79	0.877
2428.92	0.876
2438.06	0.878
2447.19	0.879
2456.33	0.878
2465.46	0.875
2474.6	0.873
2483.73	0.859
2492.86	0.866
2502	0.87
2511.13	0.867
2520.27	0.866
2529.4	0.864
2538.53	0.863
2547.67	0.862
2556.8	0.861
2565.94	0.86
2575.07	0.859
2584.21	0.859
2593.34	0.857
2602.47	0.855
2611.61	0.854
2620.74	0.853
2629.88	0.85
2639.01	0.849
2648.14	0.847
2657.28	0.846
2666.41	0.846
2675.55	0.845
2684.68	0.844
2693.82	0.844
2702.95	0.841
2712.08	0.834
2721.22	0.831
2730.35	0.829
2739.49	0.827
2748.62	0.823
2757.75	0.819
2766.89	0.815
2776.02	0.815
2785.16	0.816
2794.29	0.818
2803.43	0.82
2812.56	0.82
2821.69	0.816
2830.83	0.806
2839.96	0.803
2849.1	0.797
2858.23	0.796
2867.36	0.794
2876.5	0.793
2885.63	0.792
2894.77	0.787
2903.9	0.775
2913.04	0.769
2922.17	0.737
2931.3	0.713
2940.44	0.674
2949.57	0.657
2958.71	0.7
2967.84	0.71
2976.97	0.772
2986.11	0.765
2995.24	0.748
3004.38	0.728
3013.51	0.709
3022.65	0.697
3031.78	0.689
3040.91	0.702
3050.05	0.722
3059.18	0.71
3068.32	0.699
3077.45	0.722
3086.58	0.725
3095.72	0.723
3104.85	0.721
3113.99	0.719
3123.12	0.716
3132.25	0.713
3141.39	0.708
3150.52	0.705
3159.66	0.696
3168.79	0.679
3177.93	0.654
3187.06	0.641
3196.19	0.624
3205.33	0.616
3214.46	0.604
3223.6	0.584
3232.73	0.567
3241.86	0.539
3251	0.507
3260.13	0.431
3269.27	0.387
3278.4	0.339
3287.54	0.3
3296.67	0.292
3305.8	0.292
3314.94	0.29
3324.07	0.247
3333.21	0.254
3342.34	0.33
3351.47	0.417
3360.61	0.508
3369.74	0.567
3378.88	0.614
3388.01	0.668
3397.15	0.693
3406.28	0.713
3415.41	0.725
3424.55	0.736
3433.68	0.742
3442.82	0.746
3451.95	0.75
3461.08	0.752
3470.22	0.753
3479.35	0.755
3488.49	0.757
3497.62	0.757
3506.76	0.759
3515.89	0.761
3525.02	0.764
3534.16	0.766
3543.29	0.777
3552.43	0.767
3561.56	0.794
3570.69	0.792
3579.83	0.796
3588.96	0.803
3598.1	0.807
3607.23	0.815
3616.37	0.821
3625.5	0.822
3634.63	0.823
3643.77	0.824
3652.9	0.823
3662.04	0.822
3671.17	0.819
3680.3	0.814
3689.44	0.817
3698.57	0.824
3707.71	0.825
3716.84	0.822
3725.98	0.821
3735.11	0.82
3744.24	0.819
3753.38	0.819
3762.51	0.821
3771.65	0.819
3780.78	0.818
3789.91	0.816
3799.05	0.814
3808.18	0.813
3817.32	0.812
3826.45	0.812
3835.59	0.811
3844.72	0.81
3853.85	0.809
3862.99	0.809
3872.12	0.808
3881.26	0.808
3890.39	0.808
3899.52	0.808
3908.66	0.807
3917.79	0.806
3926.93	0.806
3936.06	0.806
3945.2	0.806
3954.33	0.808
3963.46	0.809
3972.6	0.809
3981.73	0.808
3990.87	0.806
4000	0.804
