Infrared Spectrum: O,O'-SULFONYL DIBENZOIC ACID
Formula: C14 H10 O6 S
CAS: 22219-00-7
State: SOLID (NUJOL MULL)
Class: COBLENTZ
Instrument: Not specified, most likely a prism, grating, or hybrid spectrometer.
Sampling: TRANSMISSION
Resolution: 4
Origin: TENNESSEE EASTMAN COMPANY, RESEARCH LABORATORIES
MICROMETERS	TRANSMITTANCE
2.014	0.761
2.05294	0.761
2.09187	0.763
2.13081	0.763
2.16974	0.764
2.20868	0.769
2.24762	0.769
2.28655	0.764
2.32549	0.76
2.36442	0.761
2.40336	0.763
2.4423	0.764
2.48123	0.773
2.52017	0.79
2.5591	0.802
2.59804	0.815
2.63697	0.823
2.67591	0.834
2.71485	0.836
2.75378	0.836
2.79272	0.836
2.83165	0.836
2.87059	0.834
2.90953	0.826
2.94846	0.805
2.9874	0.79
3.02633	0.771
3.06527	0.747
3.10421	0.711
3.14314	0.674
3.18208	0.649
3.22101	0.609
3.25995	0.585
3.29889	0.528
3.33782	0.364
3.37676	0.132
3.41569	0.055
3.45463	0.048
3.49357	0.048
3.5325	0.262
3.57144	0.508
3.61037	0.585
3.64931	0.625
3.68825	0.63
3.72718	0.646
3.76612	0.636
3.80505	0.614
3.84399	0.615
3.88292	0.63
3.92186	0.662
3.9608	0.666
3.99973	0.662
4.03867	0.669
4.0776	0.692
4.11654	0.719
4.15548	0.739
4.19441	0.75
4.23335	0.771
4.27228	0.792
4.31122	0.797
4.35016	0.803
4.38909	0.808
4.42803	0.821
4.46696	0.831
4.5059	0.833
4.54484	0.836
4.58377	0.841
4.62271	0.847
4.66164	0.865
4.70058	0.868
4.73952	0.868
4.77845	0.868
4.81739	0.868
4.85632	0.867
4.89526	0.863
4.93419	0.858
4.97313	0.841
5.01207	0.833
5.051	0.824
5.08994	0.823
5.12887	0.823
5.16781	0.823
5.20675	0.823
5.24568	0.823
5.28462	0.82
5.32355	0.816
5.36249	0.816
5.40143	0.813
5.44036	0.813
5.4793	0.818
5.51823	0.823
5.55717	0.829
5.59611	0.831
5.63504	0.831
5.67398	0.831
5.71291	0.808
5.75185	0.549
5.79079	0.448
5.82972	0.376
5.86866	0.27
5.90759	0.273
5.94653	0.405
5.98547	0.589
6.0244	0.687
6.06334	0.721
6.10227	0.75
6.14121	0.782
6.18014	0.799
6.21908	0.8
6.25802	0.758
6.29695	0.672
6.33589	0.68
6.37482	0.62
6.41376	0.62
6.4527	0.649
6.49163	0.724
6.53057	0.782
6.5695	0.805
6.60844	0.834
6.64738	0.833
6.68631	0.805
6.72525	0.64
6.76418	0.492
6.80312	0.207
6.84206	0.178
6.88099	0.213
6.91993	0.311
6.95886	0.554
6.9978	0.636
7.03674	0.601
7.07567	0.559
7.11461	0.554
7.15354	0.531
7.19248	0.444
7.23142	0.324
7.27035	0.288
7.30929	0.421
7.34822	0.508
7.38716	0.622
7.42609	0.654
7.46503	0.677
7.50397	0.682
7.5429	0.557
7.58184	0.354
7.62077	0.298
7.65971	0.272
7.69865	0.218
7.73758	0.22
7.77652	0.241
7.81545	0.241
7.85439	0.236
7.89333	0.249
7.93226	0.356
7.9712	0.434
8.01013	0.489
8.04907	0.551
8.08801	0.581
8.12694	0.615
8.16588	0.623
8.20481	0.643
8.24375	0.648
8.28269	0.649
8.32162	0.651
8.36056	0.649
8.39949	0.632
8.43843	0.617
8.47736	0.612
8.5163	0.607
8.55524	0.567
8.59417	0.416
8.63311	0.267
8.67204	0.303
8.71098	0.363
8.74992	0.393
8.78885	0.447
8.82779	0.47
8.86672	0.461
8.90566	0.463
8.9446	0.499
8.98353	0.505
9.02247	0.549
9.0614	0.625
9.10034	0.656
9.13928	0.675
9.17821	0.69
9.21715	0.7
9.25608	0.706
9.29502	0.709
9.33396	0.7
9.37289	0.692
9.41183	0.698
9.45076	0.708
9.4897	0.708
9.52864	0.714
9.56757	0.745
9.60651	0.75
9.64544	0.766
9.68438	0.781
9.72331	0.794
9.76225	0.807
9.80119	0.823
9.84012	0.839
9.87906	0.842
9.91799	0.842
9.95693	0.842
9.99587	0.842
10.0348	0.844
10.0737	0.844
10.1127	0.842
10.1516	0.844
10.1905	0.837
10.2295	0.826
10.2684	0.8
10.3074	0.795
10.3463	0.79
10.3852	0.781
10.4242	0.781
10.4631	0.777
10.502	0.777
10.541	0.776
10.5799	0.774
10.6188	0.774
10.6578	0.769
10.6967	0.764
10.7356	0.763
10.7746	0.761
10.8135	0.76
10.8525	0.76
10.8914	0.76
10.9303	0.76
10.9693	0.766
11.0082	0.774
11.0471	0.789
11.0861	0.802
11.125	0.815
11.1639	0.824
11.2029	0.824
11.2418	0.829
11.2808	0.831
11.3197	0.833
11.3586	0.837
11.3976	0.846
11.4365	0.855
11.4754	0.865
11.5144	0.875
11.5533	0.881
11.5922	0.884
11.6312	0.888
11.6701	0.888
11.709	0.888
11.748	0.886
11.7869	0.886
11.8259	0.88
11.8648	0.873
11.9037	0.875
11.9427	0.881
11.9816	0.888
12.0205	0.889
12.0595	0.889
12.0984	0.889
12.1373	0.888
12.1763	0.881
12.2152	0.849
12.2542	0.805
12.2931	0.76
12.332	0.729
12.371	0.698
12.4099	0.654
12.4488	0.659
12.4878	0.661
12.5267	0.656
12.5656	0.641
12.6046	0.627
12.6435	0.638
12.6824	0.672
12.7214	0.679
12.7603	0.679
12.7993	0.69
12.8382	0.692
12.8771	0.692
12.9161	0.692
12.955	0.674
12.9939	0.645
13.0329	0.648
13.0718	0.623
13.1107	0.536
13.1497	0.51
13.1886	0.56
13.2275	0.607
13.2665	0.67
13.3054	0.735
13.3444	0.763
13.3833	0.764
13.4222	0.734
13.4612	0.661
13.5001	0.576
13.539	0.502
13.578	0.478
13.6169	0.476
13.6558	0.504
13.6948	0.533
13.7337	0.567
13.7727	0.583
13.8116	0.619
13.8505	0.643
13.8895	0.667
13.9284	0.685
13.9673	0.696
14.0063	0.698
14.0452	0.695
14.0841	0.68
14.1231	0.667
14.162	0.661
14.2009	0.661
14.2399	0.664
14.2788	0.677
14.3178	0.693
14.3567	0.703
14.3956	0.714
14.4346	0.716
14.4735	0.716
14.5124	0.716
14.5514	0.716
14.5903	0.716
14.6292	0.719
14.6682	0.73
14.7071	0.742
14.7461	0.75
14.785	0.756
14.8239	0.763
14.8629	0.768
14.9018	0.769
14.9407	0.769
14.9797	0.771
15.0186	0.768
15.0575	0.768
15.0965	0.768
15.1354	0.768
15.1743	0.763
15.2133	0.748
15.2522	0.726
15.2912	0.698
15.3301	0.677
15.369	0.662
15.408	0.661
15.4469	0.661
15.4858	0.661
15.5248	0.661
15.5637	0.662
15.6026	0.662
15.6416	0.662
15.6805	0.664
15.7194	0.664
15.7584	0.664
15.7973	0.664
15.8363	0.664
15.8752	0.666
15.9141	0.666
15.9531	0.667
15.992	0.669
