Infrared Spectrum: BENZOIC ACID, THIO-2,2'-DI
Formula: C14 H10 O4 S
CAS: 22219-02-9
State: SOLID (NUJOL MULL)
Class: COBLENTZ
Instrument: Not specified, most likely a prism, grating, or hybrid spectrometer.
Sampling: TRANSMISSION
Resolution: 4
Origin: TENNESSEE EASTMAN COMPANY, RESEARCH LABORATORIES
MICROMETERS	TRANSMITTANCE
2.02	0.606
2.05981	0.611
2.09962	0.621
2.13943	0.636
2.17925	0.646
2.21906	0.648
2.25887	0.651
2.29868	0.656
2.33849	0.663
2.3783	0.675
2.41811	0.681
2.45793	0.69
2.49774	0.7
2.53755	0.716
2.57736	0.725
2.61717	0.73
2.65698	0.74
2.69679	0.748
2.73661	0.758
2.77642	0.765
2.81623	0.771
2.85604	0.776
2.89585	0.78
2.93566	0.78
2.97547	0.78
3.01528	0.776
3.0551	0.766
3.09491	0.733
3.13472	0.678
3.17453	0.631
3.21434	0.573
3.25415	0.503
3.29396	0.463
3.33378	0.303
3.37359	0.12
3.4134	0.081
3.45321	0.11
3.49302	0.181
3.53283	0.383
3.57264	0.473
3.61246	0.521
3.65227	0.533
3.69208	0.538
3.73189	0.526
3.7717	0.491
3.81151	0.468
3.85132	0.513
3.89114	0.52
3.93095	0.516
3.97076	0.516
4.01057	0.543
4.05038	0.603
4.09019	0.638
4.13	0.666
4.16982	0.69
4.20963	0.715
4.24944	0.738
4.28925	0.748
4.32906	0.755
4.36887	0.776
4.40868	0.788
4.4485	0.796
4.48831	0.803
4.52812	0.811
4.56793	0.826
4.60774	0.836
4.64755	0.841
4.68736	0.841
4.72717	0.841
4.76699	0.841
4.8068	0.845
4.84661	0.85
4.88642	0.858
4.92623	0.87
4.96604	0.87
5.00585	0.873
5.04567	0.863
5.08548	0.863
5.12529	0.86
5.1651	0.863
5.20491	0.865
5.24472	0.866
5.28453	0.868
5.32435	0.87
5.36416	0.87
5.40397	0.87
5.44378	0.87
5.48359	0.87
5.5234	0.87
5.56321	0.868
5.60303	0.868
5.64284	0.868
5.68265	0.87
5.72246	0.87
5.76227	0.821
5.80208	0.731
5.84189	0.52
5.88171	0.301
5.92152	0.123
5.96133	0.2
6.00114	0.411
6.04095	0.553
6.08076	0.613
6.12057	0.651
6.16039	0.713
6.2002	0.755
6.24001	0.765
6.27982	0.711
6.31963	0.735
6.35944	0.718
6.39925	0.631
6.43906	0.805
6.47888	0.851
6.51869	0.87
6.5585	0.873
6.59831	0.873
6.63812	0.871
6.67793	0.845
6.71774	0.74
6.75756	0.573
6.79737	0.34
6.83718	0.3
6.87699	0.493
6.9168	0.553
6.95661	0.56
6.99642	0.458
7.03624	0.368
7.07605	0.563
7.11586	0.706
7.15567	0.758
7.19548	0.711
7.23529	0.603
7.2751	0.625
7.31492	0.7
7.35473	0.766
7.39454	0.805
7.43435	0.81
7.47416	0.81
7.51397	0.738
7.55378	0.515
7.5936	0.331
7.63341	0.4
7.67322	0.335
7.71303	0.291
7.75284	0.45
7.79265	0.533
7.83246	0.351
7.87228	0.443
7.91209	0.48
7.9519	0.436
7.99171	0.426
8.03152	0.62
8.07133	0.741
8.11114	0.796
8.15095	0.811
8.19077	0.831
8.23058	0.841
8.27039	0.845
8.3102	0.85
8.35001	0.855
8.38982	0.865
8.42963	0.871
8.46945	0.861
8.50926	0.848
8.54907	0.846
8.58888	0.835
8.62869	0.785
8.6685	0.788
8.70831	0.725
8.74813	0.828
8.78794	0.883
8.82775	0.905
8.86756	0.905
8.90737	0.903
8.94718	0.906
8.98699	0.916
9.02681	0.926
9.06662	0.938
9.10643	0.95
9.14624	0.953
9.18605	0.958
9.22586	0.96
9.26567	0.96
9.30549	0.96
9.3453	0.958
9.38511	0.906
9.42492	0.815
9.46473	0.72
9.50454	0.813
9.54435	0.77
9.58417	0.71
9.62398	0.75
9.66379	0.841
9.7036	0.865
9.74341	0.893
9.78322	0.908
9.82303	0.913
9.86285	0.916
9.90266	0.92
9.94247	0.92
9.98228	0.921
10.0221	0.918
10.0619	0.913
10.1017	0.915
10.1415	0.915
10.1813	0.915
10.2211	0.913
10.261	0.905
10.3008	0.891
10.3406	0.871
10.3804	0.851
10.4202	0.841
10.46	0.821
10.4998	0.773
10.5396	0.721
10.5795	0.641
10.6193	0.551
10.6591	0.476
10.6989	0.433
10.7387	0.435
10.7785	0.491
10.8183	0.563
10.8581	0.641
10.8979	0.695
10.9378	0.745
10.9776	0.78
11.0174	0.803
11.0572	0.82
11.097	0.838
11.1368	0.841
11.1766	0.843
11.2164	0.841
11.2562	0.841
11.2961	0.846
11.3359	0.86
11.3757	0.891
11.4155	0.91
11.4553	0.916
11.4951	0.916
11.5349	0.921
11.5747	0.935
11.6145	0.945
11.6544	0.95
11.6942	0.953
11.734	0.958
11.7738	0.958
11.8136	0.961
11.8534	0.961
11.8932	0.963
11.933	0.963
11.9728	0.963
12.0127	0.963
12.0525	0.963
12.0923	0.961
12.1321	0.956
12.1719	0.95
12.2117	0.926
12.2515	0.885
12.2913	0.82
12.3312	0.778
12.371	0.78
12.4108	0.78
12.4506	0.73
12.4904	0.761
12.5302	0.851
12.57	0.895
12.6098	0.926
12.6496	0.945
12.6895	0.955
12.7293	0.958
12.7691	0.961
12.8089	0.963
12.8487	0.963
12.8885	0.963
12.9283	0.961
12.9681	0.951
13.0079	0.853
13.0478	0.643
13.0876	0.636
13.1274	0.688
13.1672	0.63
13.207	0.638
13.2468	0.65
13.2866	0.496
13.3264	0.356
13.3662	0.391
13.4061	0.601
13.4459	0.746
13.4857	0.801
13.5255	0.84
13.5653	0.851
13.6051	0.86
13.6449	0.868
13.6847	0.876
13.7246	0.876
13.7644	0.876
13.8042	0.855
13.844	0.806
13.8838	0.73
13.9236	0.715
13.9634	0.756
14.0032	0.806
14.043	0.845
14.0829	0.85
14.1227	0.85
14.1625	0.85
14.2023	0.82
14.2421	0.765
14.2819	0.721
14.3217	0.711
14.3615	0.715
14.4013	0.733
14.4412	0.74
14.481	0.74
14.5208	0.735
14.5606	0.736
14.6004	0.751
14.6402	0.781
14.68	0.801
14.7198	0.81
14.7596	0.815
14.7995	0.82
14.8393	0.821
14.8791	0.821
14.9189	0.823
14.9587	0.823
14.9985	0.823
15.0383	0.823
15.0781	0.821
15.1179	0.815
15.1578	0.808
15.1976	0.8
15.2374	0.778
15.2772	0.75
15.317	0.725
15.3568	0.708
15.3966	0.703
15.4364	0.705
15.4763	0.705
15.5161	0.705
15.5559	0.705
15.5957	0.705
15.6355	0.706
15.6753	0.711
15.7151	0.716
15.7549	0.721
15.7947	0.73
15.8346	0.733
15.8744	0.735
15.9142	0.738
15.954	0.74
15.9938	0.741
