Infrared Spectrum: Fenamiphos
Formula: C 13 H 22 N O 3 P S
CAS: 22224-92-6
State: gas
Instrument: HP-GC/MS/IRD
Origin: NIST Mass Spectrometry Data Center
1/CM	ABSORBANCE
550	0.0178445
562	0.0121307
574	0.011303
586	0.0133767
598	0.0070666
610	0.0033731
622	0.0032129
634	0.0042008
646	0.0025276
658	0.0007209
670	0.0001157
682	0.0002314
694	0.0015753
706	0.0043788
718	0.0030171
730	0.0021093
742	0.0032841
754	0.0056159
766	0.0075383
778	0.0074137
790	0.006319
802	0.0084461
814	0.0130118
826	0.0139552
838	0.0239232
850	0.0439838
862	0.0355911
874	0.0265576
886	0.0296815
898	0.0345943
910	0.0171948
922	0.0140887
934	0.0241724
946	0.0524833
958	0.0855379
970	0.0711466
982	0.0445356
994	0.0462177
1006	0.0642135
1018	0.0679871
1030	0.0686902
1042	0.0801534
1054	0.0799576
1066	0.0483715
1078	0.0254896
1090	0.0194643
1102	0.0178623
1114	0.0167676
1126	0.0254095
1138	0.0317552
1150	0.0404238
1162	0.0557496
1174	0.0249378
1186	0.0132432
1198	0.0090246
1210	0.0153792
1222	0.0550109
1234	0.0366769
1246	0.0131364
1258	0.0210574
1270	0.0462622
1282	0.0591227
1294	0.0431205
1306	0.025988
1318	0.019669
1330	0.0157619
1342	0.0101371
1354	0.0087576
1366	0.0118103
1378	0.0184319
1390	0.0271094
1402	0.0288449
1414	0.0257655
1426	0.018156
1438	0.0173016
1450	0.0189036
1462	0.0266377
1474	0.0464491
1486	0.023674
1498	0.0100303
1510	0.0060965
1522	0.0047526
1534	0.00445
1546	0.0053133
1558	0.0087932
1570	0.0129406
1582	0.0124778
1594	0.0211642
1606	0.0101104
1618	0.0033464
1630	0.0016376
1642	0.000979
1654	0.0006497
1666	0.0006319
1678	0.0006586
1690	0.0006764
1702	0.000623
1714	0.0005963
1726	0.0006586
1738	0.0006052
1750	0.0005963
1762	0.000534
1774	0.0004984
1786	0.0005607
1798	0.000712
1810	0.0007743
1822	0.0008099
1834	0.0007921
1846	0.0008811
1858	0.0010591
1870	0.0010502
1882	0.0008277
1894	0.0005963
1906	0.0004539
1918	0.0004005
1930	0.0003738
1942	0.0003293
1954	0.0001424
1966	0
1978	7.12e-05
1990	0.0001068
2002	7.12e-05
2014	7.12e-05
2026	0.0001157
2038	0.0001246
2050	0.0001157
2062	0.0001157
2074	0.0001691
2086	0.0002314
2098	0.0002492
2110	0.0002581
2122	0.0002225
2134	0.0002136
2146	0.000178
2158	0.0001513
2170	0.0002047
2182	0.0002848
2194	0.0002759
2206	0.0002136
2218	0.0001869
2230	0.0002136
2242	0.000178
2254	0.0001869
2266	0.0002403
2278	0.000267
2290	0.0002759
2302	0.0002225
2314	0.0002047
2326	0.0001958
2338	0.0001602
2350	0.0001602
2362	0.0001424
2374	0.0002581
2386	0.0003204
2398	0.0002937
2410	0.0002848
2422	0.000267
2434	0.0003204
2446	0.0003204
2458	0.0002314
2470	0.0001602
2482	0.0001513
2494	0.0002403
2506	0.000267
2518	0.0002403
2530	0.0002225
2542	0.0002136
2554	0.0002403
2566	0.0001691
2578	0.0001513
2590	0.0001424
2602	0.0001958
2614	0.000178
2626	0.0002314
2638	0.000178
2650	0.0001602
2662	0.0001869
2674	0.0001691
2686	0.0002136
2698	0.0002403
2710	0.0003204
2722	0.0005607
2734	0.0008633
2746	0.0008366
2758	0.0007387
2770	0.0008633
2782	0.0009345
2794	0.0010235
2806	0.0012905
2818	0.001869
2830	0.0025632
2842	0.0037736
2854	0.0050374
2866	0.0068886
2878	0.0102884
2890	0.0108669
2902	0.0120595
2914	0.0170702
2926	0.0248844
2938	0.0289072
2950	0.0221254
2962	0.0231044
2974	0.0355733
2986	0.0368015
2998	0.0216181
3010	0.0109915
3022	0.006942
3034	0.0050107
3046	0.0037469
3058	0.0035422
3070	0.0036312
3082	0.003115
3094	0.0025098
3106	0.0017889
3118	0.0013439
3130	0.0011659
3142	0.0009968
3154	0.0008722
3166	0.0008277
3178	0.0007476
3190	0.0007565
3202	0.0006942
3214	0.0006052
3226	0.0005607
3238	0.0003738
3250	0.0002848
3262	0.0002581
3274	0.0001869
3286	0.0002136
3298	0.0002403
3310	0.0002047
3322	0.0001513
3334	0.0002136
3346	0.000178
3358	0.0003026
3370	0.0003916
3382	0.0005429
3394	0.000979
3406	0.0021093
3418	0.0050018
3430	0.0064347
3442	0.0027857
3454	0.001157
3466	0.0006141
3478	0.0004183
3490	0.0003115
3502	0.000267
3514	0.000178
3526	0.0001691
3538	0.0001869
3550	0.0001602
3562	0.0002136
3574	0.0001068
3586	0.0001157
3598	0.0001602
3610	0.0001424
3622	0.0001691
3634	0.0001513
3646	0.0001691
3658	0.0001691
3670	0.0001246
3682	0.0001068
3694	0.0001691
3706	0.0001958
3718	0.0001424
3730	0.000178
3742	0.0002047
3754	0.0001691
3766	0.0002225
3778	0.0002136
3790	0.0003204
3802	0.0002848
3814	0.0002314
3826	0.0002136
3838	0.0001958
