Infrared Spectrum: 3,5-Di(trifluoromethyl)benzamide
Formula: C 9 H 5 F 6 N O
CAS: 22227-26-5
State: gas
Origin: EPA-IR VAPOR PHASE LIBRARY
1/CM	ABSORBANCE
549.8	0.002421
559.445	0.003051
569.09	0.002661
578.734	0.003331
588.379	0.005721
598.024	0.007301
607.669	0.011411
617.313	0.008971
626.958	0.007841
636.603	0.008911
646.248	0.006251
655.893	0.004701
665.537	0.005391
675.182	0.017981
684.827	0.042471
694.472	0.012521
704.116	0.016421
713.761	0.009291
723.406	0.009791
733.051	0.005891
742.695	0.005701
752.34	0.009621
761.985	0.012181
771.63	0.006831
781.275	0.005471
790.919	0.005521
800.564	0.005571
810.209	0.005681
819.854	0.006121
829.498	0.007791
839.143	0.013931
848.788	0.020241
858.433	0.011021
868.078	0.004251
877.722	0.003541
887.367	0.004471
897.012	0.010611
906.657	0.026411
916.301	0.012391
925.946	0.005451
935.591	0.004641
945.236	0.004221
954.88	0.003161
964.525	0.003061
974.17	0.003151
983.815	0.002811
993.46	0.002811
1003.1	0.003161
1012.75	0.003361
1022.39	0.003091
1032.04	0.002871
1041.68	0.002991
1051.33	0.003251
1060.97	0.003831
1070.62	0.004021
1080.26	0.004301
1089.91	0.005191
1099.55	0.009731
1109.2	0.021331
1118.84	0.027191
1128.49	0.041651
1138.13	0.079771
1147.78	0.176821
1157.42	0.296011
1167.07	0.113831
1176.71	0.103521
1186.36	0.171781
1196	0.104471
1205.64	0.029951
1215.29	0.022391
1224.93	0.018321
1234.58	0.016961
1244.22	0.015961
1253.87	0.025171
1263.51	0.057701
1273.16	0.201721
1282.8	0.388461
1292.45	0.102631
1302.09	0.079251
1311.74	0.132511
1321.38	0.129081
1331.03	0.068881
1340.67	0.023471
1350.32	0.013951
1359.96	0.009721
1369.61	0.007521
1379.25	0.009041
1388.9	0.013581
1398.54	0.009901
1408.18	0.005561
1417.83	0.004411
1427.47	0.004611
1437.12	0.004241
1446.76	0.004531
1456.41	0.004631
1466.05	0.002861
1475.7	0.001801
1485.34	0.001581
1494.99	0.001691
1504.63	0.001931
1514.28	0.002141
1523.92	0.001941
1533.57	0.002161
1543.21	0.002951
1552.86	0.004311
1562.5	0.006371
1572.15	0.010541
1581.79	0.026631
1591.44	0.042351
1601.08	0.023331
1610.73	0.015301
1620.37	0.014341
1630.01	0.007511
1639.66	0.004641
1649.3	0.003901
1658.95	0.004081
1668.59	0.005371
1678.24	0.007821
1687.88	0.012041
1697.53	0.020711
1707.17	0.026861
1716.82	0.039731
1726.46	0.113551
1736.11	0.079371
1745.75	0.019801
1755.4	0.020281
1765.04	0.015971
1774.69	0.006111
1784.33	0.003271
1793.98	0.002371
1803.62	0.001971
1813.27	0.002481
1822.91	0.003141
1832.55	0.002741
1842.2	0.002241
1851.84	0.001971
1861.49	0.001671
1871.13	0.001671
1880.78	0.001471
1890.42	0.0010639
1900.07	0.0009586
1909.71	0.0009669
1919.36	0.0009574
1929	0.0008095
1938.65	0.0008121
1948.29	0.0007226
1957.94	0.0006092
1967.58	0.000494
1977.23	0.0005414
1986.87	0.0007523
1996.52	0.0009327
2006.16	0.0009192
2015.81	0.0006474
2025.45	0.000637
2035.1	0.0007408
2044.74	0.0006147
2054.38	0.0006064
2064.03	0.0004369
2073.67	0.0003627
2083.32	0.00027395
2092.96	0.00030536
2102.61	0.00031163
2112.25	0.0003755
2121.9	0.0005517
2131.54	0.0005294
2141.19	0.0004777
2150.83	0.0003681
2160.48	0.0003798
2170.12	0.0004132
2179.77	0.00034628
2189.41	0.0003836
2199.06	0.00033294
2208.7	0.0004518
2218.35	0.0006751
2227.99	0.0008054
2237.64	0.001068
2247.28	0.0010063
2256.92	0.0010934
2266.57	0.00089
2276.21	0.00098
2285.86	0.0011814
2295.5	0.001281
2305.15	0.0011454
2314.79	0.000742
2324.44	0.0007571
2334.08	0.0008102
2343.73	0.0007333
2353.37	0.0007803
2363.02	0.000754
2372.66	0.0007478
2382.31	0.0007228
2391.95	0.0006293
2401.6	0.0006386
2411.24	0.0004162
2420.89	0.0004588
2430.53	0.0004513
2440.18	0.0005225
2449.82	0.0005253
2459.47	0.000527
2469.11	0.0005372
2478.75	0.0003981
2488.4	0.0004019
2498.04	0.000143
2507.69	0.000215
2517.33	0.0001616
2526.98	0.0002346
2536.62	0.0003765
2546.27	0.0004245
2555.91	0.0004131
2565.56	0.0004293
2575.2	0.0003618
2584.85	0.0003825
2594.49	0.00031142
2604.14	0.00033073
2613.78	0.00032857
2623.43	0.0002039
2633.07	0.00024881
2642.72	0.000239
2652.36	0.0001526
2662.01	0.00028387
2671.65	0.00029998
2681.29	0.00033516
2690.94	0.0002352
2700.58	0.0003585
2710.23	0.0004551
2719.87	0.0004544
2729.52	0.0002351
2739.16	0.0002307
2748.81	0.000225
2758.45	0.000138
2768.1	0.000321
2777.74	0.00034362
2787.39	0.00027089
2797.03	0.000418
2806.68	0.0004573
2816.32	0.00029054
2825.97	0.000226
2835.61	0.0003553
2845.26	0.000363
2854.9	0.000205
2864.55	0.000176
2874.19	0.00031247
2883.84	0.0003806
2893.48	0.00031204
2903.12	0.0005264
2912.77	0.00032706
2922.41	0.00032663
2932.06	0.0005011
2941.7	0.0001753
2951.35	0.000144
2960.99	0.000257399
2970.64	0.0004148
2980.28	0.000251877
2989.93	0.0003369
2999.57	0.0006063
3009.22	0.000531
3018.86	0.0004781
3028.51	0.0004984
3038.15	0.0004121
3047.8	0.0004881
3057.44	0.0006612
3067.09	0.0008339
3076.73	0.0009761
3086.38	0.001941
3096.02	0.001681
3105.67	0.0007007
3115.31	0.00033072
3124.95	0.0003781
3134.6	0.000355
3144.24	0.0004096
3153.89	0.0005053
3163.53	0.0005876
3173.18	0.0003626
3182.82	0.0003887
3192.47	0.0002286
3202.11	0.0003858
3211.76	0.0003978
3221.4	0.000255003
3231.05	0.0001918
3240.69	0.0002045
3250.34	0.0002288
3259.98	0.000142
3269.63	0.000168
3279.27	0.000166
3288.92	0.00028809
3298.56	0.0005237
3308.21	0.0005337
3317.85	0.0006055
3327.49	0.0004549
3337.14	0.0004218
3346.78	0.000442
3356.43	0.0004704
3366.07	0.0005908
3375.72	0.0007291
3385.36	0.001251
3395.01	0.002061
3404.65	0.003181
3414.3	0.005591
3423.94	0.010871
3433.59	0.015701
3443.23	0.009831
3452.88	0.004311
3462.52	0.002531
3472.17	0.001471
3481.81	0.0010969
3491.46	0.0011801
3501.1	0.001611
3510.75	0.002471
3520.39	0.003401
3530.04	0.005421
3539.68	0.008141
3549.32	0.010421
3558.97	0.007291
3568.61	0.002851
3578.26	0.001391
3587.9	0.0008933
3597.55	0.000555
3607.19	0.00034675
3616.84	0.000257223
3626.48	0.0002285
3636.13	0.0003658
3645.77	0.0002753
3655.42	0.00030376
3665.06	0.00031826
3674.71	0.0001701
3684.35	0.0005182
3694	0.00015
3703.64	0.0001766
3713.29	0.00028576
3722.93	9.8e-05
3732.58	0.00030226
3742.22	0.00030348
3751.86	0.0002034
3761.51	0.0002215
3771.15	0.00026447
3780.8	0.00032239
3790.44	0.000253887
3800.09	0.000325
3809.73	0.0001788
3819.38	0.0001887
3829.02	0.0002352
3838.67	0.000236
3848.31	0.00024835
3857.96	0.0004209
3867.6	0.00032357
3877.25	0.0003672
3886.89	0.00033817
3896.54	0.0004038
3906.18	0.000126
3915.83	0.00031961
3925.47	0.000250143
3935.12	0.0003741
3944.76	0.000222
3954.41	0.000126
3964.05	0.0002272
3973.69	0.00033316
3983.34	0.00025615
3992.98	0.000136
