Infrared Spectrum: 5H-Dibenzo(a,d)cyclohepten-5-one
Formula: C15 H10 O
CAS: 2222-33-5
State: SOLID (SPLIT MULL)
Melting point: 88 C
Class: COBLENTZ III
Instrument: DOW KBr FOREPRISM-GRATING
Instrument parameters: BLAZED AT 3.5, 12.0, 20.0 MICRON AND CHANGED AT 5.0, 7.5, 14.9 MICRON
Sampling: TRANSMISSION
Resolution: 2
Origin: DOW CHEMICAL COMPANY
1/CM	TRANSMITTANCE
457	0.8465
466	0.8399
475	0.7364
484	0.9023
493	0.9081
502	0.9002
511	0.8671
520	0.9063
529	0.9118
538	0.9175
547	0.9225
556	0.9268
565	0.9327
574	0.9231
583	0.9237
592	0.8693
601	0.9378
610	0.9475
619	0.9463
628	0.7369
637	0.9566
646	0.9553
655	0.9455
664	0.9361
673	0.9192
682	0.9178
691	0.744
700	0.9188
709	0.8928
718	0.7653
727	0.1231
736	0.7704
745	0.8828
754	0.8716
763	0.8734
772	0.5925
781	0.8799
790	0.8356
799	0.146
808	0.2827
817	0.8389
826	0.9296
835	0.9233
844	0.9206
853	0.9035
862	0.9178
871	0.9166
880	0.8801
889	0.8209
898	0.8974
907	0.8961
916	0.8856
925	0.8585
934	0.368
943	0.8675
952	0.7805
961	0.8785
970	0.8911
979	0.885
988	0.8778
997	0.9056
1006	0.9002
1015	0.8946
1024	0.8871
1033	0.8721
1042	0.8454
1051	0.882
1060	0.8804
1069	0.8736
1078	0.8692
1087	0.8663
1096	0.8661
1105	0.8635
1114	0.8114
1123	0.8592
1132	0.8408
1141	0.808
1150	0.7242
1159	0.7158
1168	0.7975
1177	0.8431
1186	0.8421
1195	0.8258
1204	0.7857
1213	0.8182
1222	0.8088
1231	0.8085
1240	0.7765
1249	0.6926
1258	0.7708
1267	0.7364
1276	0.7207
1285	0.6921
1294	0.6234
1303	0.3097
1312	0.4517
1321	0.3224
1330	0.6919
1339	0.7728
1348	0.789
1357	0.8356
1366	0.8663
1375	0.8798
1384	0.8844
1393	0.8817
1402	0.8704
1411	0.8391
1420	0.7057
1429	0.7983
1438	0.8946
1447	0.8859
1456	0.8682
1465	0.8818
1474	0.8627
1483	0.8181
1492	0.8825
1501	0.8968
1510	0.8945
1519	0.8844
1528	0.8717
1537	0.8689
1546	0.863
1555	0.839
1564	0.8202
1573	0.8018
1582	0.7383
1591	0.6019
1600	0.5689
1609	0.8298
1618	0.8024
1627	0.7106
1636	0.6551
1645	0.2779
1654	0.6007
1663	0.9746
1672	0.9371
1681	0.9499
1690	0.9412
1699	0.931
1708	0.9202
1717	0.914
1726	0.9137
1735	0.9136
1744	0.9092
1753	0.9028
1762	0.8977
1771	0.8935
1780	0.8875
1789	0.8834
1798	0.8846
1807	0.8831
1816	0.8847
1825	0.8773
1834	0.8697
1843	0.8697
1852	0.8692
1861	0.8627
1870	0.8659
1879	0.8689
1888	0.8639
1897	0.8557
1906	0.8515
1915	0.8493
1924	0.8448
1933	0.8403
1942	0.8381
1951	0.835
1960	0.8245
1969	0.8348
1978	0.8423
1987	0.8401
1996	0.8554
2005	0.8518
2014	0.848
2023	0.8452
2032	0.8421
2041	0.8387
2050	0.8353
2059	0.8316
2068	0.828
2077	0.8245
2086	0.821
2095	0.8167
2104	0.8119
2113	0.8074
2122	0.8032
2131	0.7989
2140	0.7947
2149	0.7905
2158	0.7864
2167	0.7821
2176	0.7778
2185	0.7736
2194	0.7694
2203	0.7651
2212	0.7614
2221	0.7575
2230	0.7537
2239	0.7499
2248	0.7458
2257	0.741
2266	0.7361
2275	0.7315
2284	0.7268
2293	0.7221
2302	0.7178
2311	0.7134
2320	0.7108
2329	0.7094
2338	0.7099
2347	0.7107
2356	0.7114
2365	0.7103
2374	0.7091
2383	0.7078
2392	0.7067
2401	0.7054
2410	0.7039
2419	0.7021
2428	0.7003
2437	0.6986
2446	0.6971
2455	0.6961
2464	0.695
2473	0.6938
2482	0.6922
2491	0.6904
2500	0.6886
2509	0.6867
2518	0.6848
2527	0.683
2536	0.6811
2545	0.6792
2554	0.6772
2563	0.6753
2572	0.6728
2581	0.6704
2590	0.6678
2599	0.6656
2608	0.6633
2617	0.661
2626	0.6588
2635	0.6562
2644	0.6539
2653	0.6514
2662	0.649
2671	0.6465
2680	0.6441
2689	0.6412
2698	0.6384
2707	0.6355
2716	0.633
2725	0.6312
2734	0.629
2743	0.6257
2752	0.6225
2761	0.6191
2770	0.6164
2779	0.6141
2788	0.6119
2797	0.6097
2806	0.6079
2815	0.6062
2824	0.6047
2833	0.603
2842	0.6015
2851	0.5998
2860	0.5981
2869	0.5964
2878	0.5948
2887	0.5924
2896	0.59
2905	0.5875
2914	0.5851
2923	0.5827
2932	0.579
2941	0.5739
2950	0.567
2959	0.5581
2968	0.5497
2977	0.5502
2986	0.5588
2995	0.5558
3004	0.5503
3013	0.5435
3022	0.5383
3031	0.5352
3040	0.5267
3049	0.5068
3058	0.504
3067	0.5576
3076	0.5582
3085	0.557
3094	0.5543
3103	0.5515
3112	0.5489
3121	0.5464
3130	0.5447
3139	0.5431
3148	0.5416
3157	0.5399
3166	0.5383
3175	0.5366
3184	0.5349
3193	0.5332
3202	0.5312
3211	0.5291
3220	0.527
3229	0.5249
3238	0.5229
3247	0.5208
3256	0.5187
3265	0.5165
3274	0.5144
3283	0.5122
3292	0.51
3301	0.5078
3310	0.5057
3319	0.5035
3328	0.5014
3337	0.4991
3346	0.497
3355	0.4948
3364	0.4926
3373	0.4904
3382	0.4883
3391	0.4864
3400	0.4845
3409	0.4827
3418	0.4808
3427	0.4789
3436	0.4771
3445	0.4753
3454	0.4738
3463	0.4722
3472	0.4706
3481	0.469
3490	0.4674
3499	0.4658
3508	0.4643
3517	0.4627
3526	0.461
3535	0.4596
3544	0.458
3553	0.4565
3562	0.4549
3571	0.4533
3580	0.4518
3589	0.4502
3598	0.4487
3607	0.4475
3616	0.4464
3625	0.4453
3634	0.4443
3643	0.4432
3652	0.4422
3661	0.441
3670	0.44
3679	0.4389
3688	0.4377
3697	0.4365
3706	0.4353
3715	0.4341
3724	0.4329
3733	0.4315
3742	0.4301
3751	0.4288
3760	0.4276
3769	0.4262
3778	0.4251
3787	0.4238
3796	0.4226
