Infrared Spectrum: 2,3,3-TRICHLOROACRYLIC ACID, 2,4,5-TRICHLOROPHENYL ESTER
Formula: C9 H2 Cl6 O2
CAS: 2224-98-8
State: SOLUTION (10% IN CCl4 FOR 5000-1350 CM^-^1, 10% IN CS2 FOR 1350-625 CM^-^1)
Class: COBLENTZ
Instrument: Not specified, most likely a prism, grating, or hybrid spectrometer.
Sampling: TRANSMISSION
Path length: 0.01 CM, 0.01 CM
Resolution: 4
Origin: DOW CHEMICAL COMPANY
MICROMETERS	TRANSMITTANCE
2.041	0.813
2.08014	0.815
2.11927	0.818
2.15841	0.821
2.19755	0.824
2.23669	0.826
2.27582	0.828
2.31496	0.829
2.3541	0.831
2.39324	0.831
2.43237	0.834
2.47151	0.839
2.51065	0.842
2.54979	0.842
2.58892	0.844
2.62806	0.844
2.6672	0.844
2.70634	0.844
2.74547	0.841
2.78461	0.826
2.82375	0.808
2.86289	0.799
2.90202	0.803
2.94116	0.808
2.9803	0.811
3.01943	0.818
3.05857	0.823
3.09771	0.828
3.13685	0.831
3.17598	0.829
3.21512	0.81
3.25426	0.805
3.2934	0.839
3.33253	0.841
3.37167	0.844
3.41081	0.849
3.44995	0.857
3.48908	0.86
3.52822	0.862
3.56736	0.86
3.6065	0.863
3.64563	0.865
3.68477	0.867
3.72391	0.87
3.76304	0.873
3.80218	0.875
3.84132	0.876
3.88046	0.878
3.91959	0.878
3.95873	0.878
3.99787	0.878
4.03701	0.875
4.07614	0.873
4.11528	0.88
4.15442	0.876
4.19356	0.873
4.23269	0.871
4.27183	0.868
4.31097	0.871
4.35011	0.868
4.38924	0.873
4.42838	0.875
4.46752	0.87
4.50666	0.881
4.54579	0.884
4.58493	0.886
4.62407	0.881
4.6632	0.881
4.70234	0.876
4.74148	0.878
4.78062	0.884
4.81975	0.884
4.85889	0.881
4.89803	0.876
4.93717	0.871
4.9763	0.88
5.01544	0.876
5.05458	0.881
5.09372	0.875
5.13285	0.871
5.17199	0.88
5.21113	0.881
5.25027	0.878
5.2894	0.876
5.32854	0.871
5.36768	0.873
5.40681	0.875
5.44595	0.868
5.48509	0.85
5.52423	0.823
5.56336	0.752
5.6025	0.57
5.64164	0.317
5.68078	0.15
5.71991	0.395
5.75905	0.648
5.79819	0.769
5.83733	0.802
5.87646	0.833
5.9156	0.844
5.95474	0.846
5.99388	0.839
6.03301	0.829
6.07215	0.813
6.11129	0.795
6.15043	0.789
6.18956	0.753
6.2287	0.672
6.26784	0.57
6.30697	0.52
6.34611	0.471
6.38525	0.392
6.42439	0.26
6.46352	0.21
6.50266	0.437
6.5418	0.531
6.58094	0.585
6.62007	0.63
6.65921	0.67
6.69835	0.606
6.73749	0.463
6.77662	0.482
6.81576	0.269
6.8549	0.129
6.89404	0.379
6.93317	0.645
6.97231	0.794
7.01145	0.808
7.05059	0.81
7.08972	0.818
7.12886	0.823
7.168	0.823
7.20713	0.82
7.24627	0.805
7.28541	0.781
7.32455	0.714
7.36368	0.479
7.40282	0.457
7.44196	0.729
7.4811	0.816
7.52023	0.828
7.55937	0.829
7.59851	0.833
7.63765	0.829
7.67678	0.821
7.71592	0.811
7.75506	0.797
7.7942	0.764
7.83333	0.735
7.87247	0.696
7.91161	0.651
7.95074	0.612
7.98988	0.578
8.02902	0.486
8.06816	0.333
8.10729	0.194
8.14643	0.089
8.18557	0.04
8.22471	0.055
8.26384	0.047
8.30298	0.017
8.34212	0.019
8.38126	0.095
8.42039	0.299
8.45953	0.505
8.49867	0.599
8.53781	0.68
8.57694	0.717
8.61608	0.727
8.65522	0.724
8.69436	0.721
8.73349	0.705
8.77263	0.64
8.81177	0.476
8.8509	0.395
8.89004	0.256
8.92918	0.17
8.96832	0.468
9.00745	0.612
9.04659	0.692
9.08573	0.722
9.12487	0.722
9.164	0.662
9.20314	0.406
9.24228	0.166
9.28142	0.416
9.32055	0.688
9.35969	0.748
9.39883	0.773
9.43797	0.781
9.4771	0.774
9.51624	0.726
9.55538	0.602
9.59451	0.361
9.63365	0.28
9.67279	0.452
9.71193	0.56
9.75106	0.575
9.7902	0.546
9.82934	0.523
9.86848	0.606
9.90761	0.716
9.94675	0.779
9.98589	0.81
10.025	0.833
10.0642	0.844
10.1033	0.854
10.1424	0.862
10.1816	0.862
10.2207	0.868
10.2599	0.867
10.299	0.868
10.3381	0.868
10.3773	0.868
10.4164	0.858
10.4555	0.844
10.4947	0.81
10.5338	0.722
10.5729	0.565
10.6121	0.413
10.6512	0.468
10.6904	0.555
10.7295	0.589
10.7686	0.661
10.8078	0.708
10.8469	0.666
10.886	0.51
10.9252	0.299
10.9643	0.222
11.0035	0.486
11.0426	0.646
11.0817	0.701
11.1209	0.701
11.16	0.669
11.1991	0.606
11.2383	0.45
11.2774	0.235
11.3166	0.085
11.3557	0.162
11.3948	0.392
11.434	0.513
11.4731	0.531
11.5122	0.473
11.5514	0.423
11.5905	0.473
11.6297	0.531
11.6688	0.559
11.7079	0.562
11.7471	0.549
11.7862	0.52
11.8253	0.507
11.8645	0.51
11.9036	0.492
11.9428	0.482
11.9819	0.557
12.021	0.645
12.0602	0.7
12.0993	0.73
12.1384	0.747
12.1776	0.752
12.2167	0.755
12.2559	0.755
12.295	0.75
12.3341	0.739
12.3733	0.73
12.4124	0.708
12.4515	0.68
12.4907	0.635
12.5298	0.542
12.569	0.421
12.6081	0.33
12.6472	0.316
12.6864	0.405
12.7255	0.491
12.7646	0.542
12.8038	0.578
12.8429	0.612
12.8821	0.646
12.9212	0.679
12.9603	0.698
12.9995	0.709
13.0386	0.716
13.0777	0.722
13.1169	0.729
13.156	0.732
13.1952	0.734
13.2343	0.735
13.2734	0.73
13.3126	0.722
13.3517	0.711
13.3908	0.69
13.43	0.651
13.4691	0.583
13.5083	0.534
13.5474	0.539
13.5865	0.591
13.6257	0.622
13.6648	0.64
13.7039	0.648
13.7431	0.649
13.7822	0.648
13.8214	0.645
13.8605	0.645
13.8996	0.653
13.9388	0.661
13.9779	0.662
14.017	0.662
14.0562	0.659
14.0953	0.651
14.1345	0.64
14.1736	0.62
14.2127	0.576
14.2519	0.546
14.291	0.523
14.3301	0.521
14.3693	0.547
14.4084	0.568
14.4476	0.58
14.4867	0.585
14.5258	0.589
14.565	0.583
14.6041	0.551
14.6432	0.505
14.6824	0.46
14.7215	0.424
14.7606	0.416
14.7998	0.423
14.8389	0.437
14.8781	0.444
14.9172	0.453
14.9563	0.482
14.9955	0.517
15.0346	0.531
15.0737	0.529
15.1129	0.521
15.152	0.518
15.1912	0.51
15.2303	0.502
15.2694	0.497
15.3086	0.489
15.3477	0.481
15.3868	0.478
15.426	0.473
15.4651	0.47
15.5043	0.46
15.5434	0.455
15.5825	0.45
15.6217	0.445
15.6608	0.437
15.6999	0.429
15.7391	0.418
15.7782	0.414
15.8174	0.408
15.8565	0.403
15.8956	0.408
15.9348	0.421
15.9739	0.444
