Infrared Spectrum: Stirifos
Formula: C 10 H 9 Cl 4 O 4 P
CAS: 22248-79-9
State: gas
Instrument: HP-GC/MS/IRD
Origin: NIST Mass Spectrometry Data Center
1/CM	ABSORBANCE
550	0.0103314
562	0.0013364
574	0.0131584
586	0.0471338
598	0.0125416
610	0.007196
622	0.0027756
634	0.011051
646	0.0191208
658	0.0253402
670	0.0144434
682	0.017219
694	0.0080184
706	0.007453
718	0.0058596
730	0.0058082
742	0.00514
754	0.008224
766	0.0236954
778	0.0392696
790	0.0619884
802	0.088151
814	0.0425592
826	0.0232842
838	0.0412228
850	0.0751468
862	0.059881
874	0.058853
886	0.047288
898	0.052942
910	0.0217422
922	0.0216394
934	0.0488814
946	0.103057
958	0.0677966
970	0.0265224
982	0.0160368
994	0.016705
1006	0.0260084
1018	0.0526336
1030	0.13657
1042	0.37008
1054	0.492772
1066	0.274116
1078	0.188792
1090	0.131481
1102	0.104291
1114	0.0677452
1126	0.049601
1138	0.0569512
1150	0.0362884
1162	0.0247234
1174	0.0266252
1186	0.0337698
1198	0.0315082
1210	0.0294008
1222	0.0533018
1234	0.0431246
1246	0.0219478
1258	0.0187096
1270	0.031611
1282	0.0749412
1294	0.109122
1306	0.11123
1318	0.116421
1330	0.0809036
1342	0.0649182
1354	0.0382416
1366	0.0142892
1378	0.0083782
1390	0.0070932
1402	0.0067848
1414	0.0084296
1426	0.0119762
1438	0.0250318
1450	0.06939
1462	0.0785906
1474	0.0293494
1486	0.0151116
1498	0.0082754
1510	0.0063736
1522	0.0067334
1534	0.0093548
1546	0.0065792
1558	0.0071446
1570	0.0153172
1582	0.0234384
1594	0.0105884
1606	0.0074016
1618	0.0089436
1630	0.016448
1642	0.022616
1654	0.0106398
1666	0.0055512
1678	0.003598
1690	0.0021074
1702	0.0012336
1714	0.0010794
1726	0.0018504
1738	0.0022616
1750	0.0019018
1762	0.0019018
1774	0.0014392
1786	0.0011822
1798	0.0011822
1810	0.0016448
1822	0.0022616
1834	0.0022616
1846	0.0017476
1858	0.0014392
1870	0.001285
1882	0.0015934
1894	0.0021588
1906	0.0024672
1918	0.0021588
1930	0.0018504
1942	0.0013364
1954	0.0009766
1966	0.000771
1978	0.0006168
1990	0.0006168
2002	0.0005654
2014	0.0004626
2026	0.0004626
2038	0.0004626
2050	0.000514
2062	0.0005654
2074	0.0007196
2086	0.0009252
2098	0.0009766
2110	0.0009766
2122	0.0009252
2134	0.001028
2146	0.001028
2158	0.0008738
2170	0.000771
2182	0.000771
2194	0.0007196
2206	0.0007196
2218	0.0007196
2230	0.0007196
2242	0.0006682
2254	0.0007196
2266	0.0006682
2278	0.0007196
2290	0.0006682
2302	0.000771
2314	0.0009252
2326	0.0009766
2338	0.0010794
2350	0.001028
2362	0.0009766
2374	0.0009766
2386	0.0009252
2398	0.000771
2410	0.0007196
2422	0.0007196
2434	0.0006682
2446	0.0007196
2458	0.0007196
2470	0.000771
2482	0.0008738
2494	0.0008738
2506	0.0007196
2518	0.0006682
2530	0.0007196
2542	0.0007196
2554	0.000771
2566	0.0008224
2578	0.0008738
2590	0.0008738
2602	0.000771
2614	0.0008738
2626	0.0009252
2638	0.001028
2650	0.0009766
2662	0.0008738
2674	0.0009766
2686	0.001028
2698	0.0009252
2710	0.0008224
2722	0.000771
2734	0.0007196
2746	0.0008738
2758	0.001028
2770	0.0011308
2782	0.0010794
2794	0.0010794
2806	0.0013364
2818	0.0018504
2830	0.0026728
2842	0.0042662
2854	0.0093034
2866	0.0202002
2878	0.0092006
2890	0.005654
2902	0.0055512
2914	0.0068876
2926	0.0081212
2938	0.0094062
2950	0.017219
2962	0.045746
2974	0.03341
2986	0.0154714
2998	0.0134154
3010	0.013878
3022	0.013364
3034	0.0111024
3046	0.008224
3058	0.0072988
3070	0.0075044
3082	0.0085324
3094	0.0132612
3106	0.0149574
3118	0.0057568
3130	0.003341
3142	0.0024672
3154	0.0018504
3166	0.0014392
3178	0.0011822
3190	0.001028
3202	0.0009252
3214	0.0008224
3226	0.0008224
3238	0.0008224
3250	0.000771
3262	0.0008224
3274	0.0008738
3286	0.0008738
3298	0.0007196
3310	0.0007196
3322	0.000771
3334	0.0007196
3346	0.0006682
3358	0.0006682
3370	0.0007196
3382	0.000771
3394	0.000771
3406	0.000771
3418	0.000771
3430	0.0006682
3442	0.0007196
3454	0.000771
3466	0.0008224
3478	0.000771
3490	0.0007196
3502	0.0008224
3514	0.0007196
3526	0.000771
3538	0.0008224
3550	0.0008224
3562	0.0008224
3574	0.0008224
3586	0.0008224
3598	0.000771
3610	0.0008224
3622	0.0007196
3634	0.000771
3646	0.0008224
3658	0.0008738
3670	0.000771
3682	0.0008224
3694	0.0008224
3706	0.000771
3718	0.0009252
3730	0.0008738
3742	0.0008738
3754	0.0008738
3766	0.0009252
3778	0.0009766
3790	0.0008738
3802	0.0008738
3814	0.0008738
3826	0.0008224
3838	0.0008738
