Infrared Spectrum: 4-Hydroxy-2,2,6,6-Tetramethylpiperidinoxy(free radical)
Formula: C 9 H 18 N O 2
CAS: 2226-96-2
State: gas
Origin: EPA-IR VAPOR PHASE LIBRARY
1/CM	ABSORBANCE
551.7	0.00461
563.274	0.00639
574.848	0.00566
586.421	0.00279
597.995	0.0021
609.569	0.00194
621.143	0.00173
632.717	0.00153
644.291	0.00152
655.864	0.00189
667.438	0.00421
679.012	0.00661
690.586	0.00399
702.16	0.00174
713.734	0.00104
725.307	0.000863
736.881	0.0007557
748.455	0.0007908
760.029	0.0007213
771.603	0.0006912
783.177	0.0009573
794.75	0.00131
806.324	0.00153
817.898	0.00133
829.472	0.00133
841.046	0.00195
852.619	0.00202
864.193	0.00202
875.767	0.00246
887.341	0.00386
898.915	0.00618
910.489	0.00556
922.062	0.00406
933.636	0.0047
945.21	0.00472
956.784	0.00532
968.358	0.00534
979.932	0.00585
991.505	0.00763
1003.08	0.00801
1014.65	0.01143
1026.23	0.0194
1037.8	0.0326
1049.37	0.04547
1060.95	0.02697
1072.52	0.01093
1084.1	0.00874
1095.67	0.00711
1107.24	0.00694
1118.82	0.00809
1130.39	0.01091
1141.97	0.01513
1153.54	0.01878
1165.11	0.02473
1176.69	0.02788
1188.26	0.01988
1199.83	0.01562
1211.41	0.01886
1222.98	0.02455
1234.56	0.03015
1246.13	0.0282
1257.7	0.01928
1269.28	0.01328
1280.85	0.01152
1292.42	0.01127
1304	0.01074
1315.57	0.01162
1327.15	0.01222
1338.72	0.01373
1350.29	0.02132
1361.87	0.03428
1373.44	0.03619
1385.02	0.02839
1396.59	0.01609
1408.16	0.00877
1419.74	0.0064
1431.31	0.00773
1442.88	0.01088
1454.46	0.01573
1466.03	0.01861
1477.61	0.01264
1489.18	0.00522
1500.75	0.00251
1512.33	0.00171
1523.9	0.00134
1535.48	0.00111
1547.05	0.0009354
1558.62	0.0008315
1570.2	0.0007557
1581.77	0.0006577
1593.34	0.0006274
1604.92	0.0005854
1616.49	0.0005687
1628.07	0.0005488
1639.64	0.000505
1651.21	0.000488
1662.79	0.000435
1674.36	0.0004455
1685.93	0.0004382
1697.51	0.0004269
1709.08	0.0004428
1720.66	0.0004516
1732.23	0.0004497
1743.8	0.0004019
1755.38	0.0003174
1766.95	0.0002796
1778.53	0.0002454
1790.1	0.0002349
1801.67	0.0002158
1813.25	0.0001958
1824.82	0.0002066
1836.39	0.0002027
1847.97	0.0002536
1859.54	0.0002563
1871.12	0.0002224
1882.69	0.0002057
1894.26	0.0002042
1905.84	0.0001824
1917.41	0.0002275
1928.99	0.0002594
1940.56	0.0002803
1952.13	0.0002479
1963.71	0.0002027
1975.28	0.0002021
1986.85	0.0002115
1998.43	0.0002289
2010	0.0002497
2021.58	0.0002525
2033.15	0.0002585
2044.72	0.0002604
2056.3	0.0003037
2067.87	0.0003689
2079.44	0.0003998
2091.02	0.0003906
2102.59	0.0003304
2114.17	0.000266
2125.74	0.0002147
2137.31	0.0002398
2148.89	0.0003064
2160.46	0.0003638
2172.04	0.0003716
2183.61	0.0002943
2195.18	0.0003259
2206.76	0.0003436
2218.33	0.0003699
2229.9	0.0003479
2241.48	0.0003305
2253.05	0.0003271
2264.63	0.0003155
2276.2	0.0003442
2287.77	0.0004241
2299.35	0.0004534
2310.92	0.0004182
2322.5	0.0003636
2334.07	0.0003314
2345.64	0.0003868
2357.22	0.0004373
2368.79	0.0005009
2380.36	0.0005536
2391.94	0.0005959
2403.51	0.000564
2415.09	0.000519
2426.66	0.0005241
2438.23	0.0004712
2449.81	0.00048
2461.38	0.0004708
2472.96	0.0003896
2484.53	0.0003779
2496.1	0.0003844
2507.68	0.0003896
2519.25	0.0004369
2530.82	0.0005114
2542.4	0.0005461
2553.97	0.0005357
2565.55	0.0005622
2577.12	0.0006223
2588.69	0.0006549
2600.27	0.0007599
2611.84	0.0007911
2623.41	0.0008378
2634.99	0.0008955
2646.56	0.0009756
2658.14	0.00107
2669.71	0.00114
2681.28	0.00121
2692.86	0.00134
2704.43	0.00141
2716.01	0.00154
2727.58	0.00157
2739.15	0.0016
2750.73	0.00169
2762.3	0.00183
2773.87	0.00191
2785.45	0.00201
2797.02	0.00221
2808.6	0.00256
2820.17	0.00308
2831.74	0.00396
2843.32	0.00613
2854.89	0.01149
2866.47	0.01801
2878.04	0.02146
2889.61	0.02526
2901.19	0.03043
2912.76	0.03525
2924.33	0.04759
2935.91	0.07487
2947.48	0.08024
2959.06	0.0509
2970.63	0.05881
2982.2	0.07324
2993.78	0.04902
3005.35	0.03245
3016.92	0.01187
3028.5	0.00449
3040.07	0.00276
3051.65	0.00208
3063.22	0.0017
3074.79	0.00142
3086.37	0.00125
3097.94	0.00127
3109.52	0.00118
3121.09	0.00117
3132.66	0.00112
3144.24	0.00109
3155.81	0.00115
3167.38	0.00115
3178.96	0.00123
3190.53	0.00113
3202.11	0.00111
3213.68	0.0009992
3225.25	0.0009528
3236.83	0.0008404
3248.4	0.0007318
3259.98	0.0005838
3271.55	0.0005507
3283.12	0.0004911
3294.7	0.0004344
3306.27	0.0003868
3317.84	0.0003286
3329.42	0.000298
3340.99	0.0003149
3352.57	0.000346
3364.14	0.0004246
3375.71	0.0002833
3387.29	0.0004048
3398.86	0.0004356
3410.43	0.000513
3422.01	0.0004992
3433.58	0.0006182
3445.16	0.0005761
3456.73	0.0005607
3468.3	0.0005164
3479.88	0.0003995
3491.45	0.0004353
3503.03	0.0004242
3514.6	0.0003606
3526.17	0.0004625
3537.75	0.0003989
3549.32	0.0003464
3560.89	0.0002805
3572.47	0.0002973
3584.04	0.0003193
3595.62	0.0005301
3607.19	0.0008777
3618.76	0.00185
3630.34	0.00376
3641.91	0.00804
3653.49	0.0116
3665.06	0.00535
3676.63	0.00146
3688.21	0.0007235
3699.78	0.0005249
3711.35	0.0003145
3722.93	0.0002768
3734.5	0.0003761
3746.08	0.0002791
3757.65	0.0002655
3769.22	0.000333
3780.8	0.0003497
3792.37	0.0003715
3803.94	0.0004105
3815.52	0.0004827
3827.09	0.0005754
3838.67	0.0006345
3850.24	0.0006317
3861.81	0.0006349
3873.39	0.0006353
3884.96	0.0005707
3896.54	0.0004522
3908.11	0.0004765
3919.68	0.0004194
3931.26	0.0004189
3942.83	0.0003856
3954.4	0.0003404
3965.98	0.0003626
3977.55	0.0004102
3989.13	0.0003928
4000.7	0.0003994
