Infrared Spectrum: 3-Nitrophenacyl bromide
Formula: C 8 H 6 Br N O 3
CAS: 2227-64-7
State: gas
Origin: EPA-IR VAPOR PHASE LIBRARY
1/CM	ABSORBANCE
549.8	0.002063
559.445	0.0012551
569.09	0.001773
578.735	0.001853
588.38	0.0015827
598.025	0.001773
607.67	0.002393
617.315	0.002913
626.96	0.002533
636.605	0.001903
646.251	0.0015889
655.896	0.001933
665.541	0.003253
675.186	0.002683
684.831	0.0015926
694.476	0.0017274
704.121	0.001793
713.766	0.002583
723.411	0.002633
733.056	0.001923
742.701	0.001494
752.346	0.0017291
761.991	0.002363
771.636	0.001773
781.281	0.0012905
790.926	0.0014196
800.571	0.001883
810.216	0.002073
819.861	0.0015894
829.507	0.0011908
839.152	0.0011268
848.797	0.0009289
858.442	0.0011735
868.087	0.001492
877.732	0.001743
887.377	0.0015692
897.022	0.0012438
906.667	0.0013298
916.312	0.0012121
925.957	0.0011877
935.602	0.001129
945.247	0.0011111
954.892	0.00083871
964.537	0.0009557
974.182	0.0010185
983.827	0.00119
993.472	0.0012614
1003.12	0.0015372
1012.76	0.002063
1022.41	0.002283
1032.05	0.0017397
1041.7	0.0015265
1051.34	0.0012896
1060.99	0.0011828
1070.63	0.001556
1080.28	0.002353
1089.92	0.002303
1099.57	0.002423
1109.21	0.001933
1118.86	0.0014075
1128.5	0.0013747
1138.15	0.00133
1147.79	0.0011014
1157.44	0.0011871
1167.08	0.0015077
1176.73	0.0016158
1186.37	0.001913
1196.02	0.002423
1205.66	0.002513
1215.31	0.0016897
1224.95	0.001873
1234.6	0.002023
1244.24	0.002873
1253.89	0.006023
1263.53	0.008203
1273.18	0.003933
1282.82	0.002993
1292.47	0.003693
1302.11	0.003423
1311.76	0.002253
1321.4	0.001793
1331.05	0.002193
1340.69	0.004813
1350.34	0.010083
1359.98	0.006773
1369.63	0.002333
1379.27	0.0013071
1388.92	0.0012725
1398.56	0.0012287
1408.21	0.0012824
1417.85	0.0014914
1427.5	0.002223
1437.14	0.002473
1446.79	0.0014045
1456.43	0.0010932
1466.08	0.0011628
1475.73	0.0014765
1485.37	0.0016428
1495.02	0.0016426
1504.66	0.001893
1514.31	0.001813
1523.95	0.002093
1533.6	0.003613
1543.24	0.009213
1552.89	0.010603
1562.53	0.004213
1572.18	0.002553
1581.82	0.002333
1591.47	0.002343
1601.11	0.002273
1610.76	0.003003
1620.4	0.002533
1630.05	0.0013819
1639.69	0.0010369
1649.34	0.0009834
1658.98	0.0009659
1668.63	0.0011191
1678.27	0.0012899
1687.92	0.001953
1697.56	0.004853
1707.21	0.008563
1716.85	0.005473
1726.5	0.002683
1736.14	0.0017147
1745.79	0.0011608
1755.43	0.00081989
1765.08	0.0007003
1774.72	0.0007121
1784.37	0.000639
1794.01	0.000615
1803.66	0.000536
1813.3	0.000544
1822.95	0.000592
1832.59	0.000499
1842.24	0.000575
1851.88	0.000483
1861.53	0.000464
1871.17	0.000463
1880.82	0.000501
1890.46	0.00052
1900.11	0.000542
1909.75	0.000509
1919.4	0.00048
1929.04	0.000502
1938.69	0.000392
1948.33	0.000429
1957.98	0.000473
1967.62	0.000478
1977.27	0.000426
1986.91	0.000465
1996.56	0.000336
2006.2	0.000366
2015.85	0.000327
2025.49	0.000274
2035.14	0.000321
2044.78	0.00033
2054.43	0.000322
2064.07	0.000337
2073.72	0.000312
2083.36	0.000334
2093.01	0.000267
2102.65	0.000292
2112.3	0.000291
2121.94	0.000334
2131.59	0.000255
2141.23	0.000213
2150.88	0.000274
2160.52	0.000234
2170.17	0.000249
2179.81	0.000266
2189.46	0.000267
2199.1	0.00023
2208.75	0.000248
2218.39	0.000251
2228.04	0.000191
2237.68	0.0002
2247.33	0.000199
2256.97	0.000238
2266.62	0.000264
2276.26	0.000182
2285.91	0.000238
2295.55	0.000242
2305.2	0.000233
2314.84	0.00027
2324.49	0.000241
2334.13	0.000337
2343.78	0.000251
2353.42	0.000261
2363.07	0.000374
2372.72	0.000185
2382.36	0.000185
2392.01	0.000198
2401.65	0.000195
2411.3	0.000192
2420.94	0.000186
2430.59	0.000236
2440.23	0.000207
2449.88	0.000184
2459.52	0.000201
2469.17	0.000162
2478.81	0.000216
2488.46	0.000239
2498.1	0.00016
2507.75	0.000106
2517.39	0.00011
2527.04	0.000153
2536.68	0.000139
2546.33	0.000127
2555.97	0.000193
2565.62	0.000152
2575.26	0.000143
2584.91	0.000128
2594.55	0.000195
2604.2	0.000185
2613.84	0.000137
2623.49	0.00017
2633.13	0.000147
2642.78	0.000164
2652.42	0.000192
2662.07	0.000284
2671.71	0.000116
2681.36	0.000259
2691	0.000149
2700.65	0.000151
2710.29	0.000165
2719.94	0.000127
2729.58	9.2e-05
2739.23	0.000152
2748.87	9.4e-05
2758.52	0.000254
2768.16	0.000111
2777.81	4.4e-05
2787.45	0.000188
2797.1	9.8e-05
2806.74	6.1e-05
2816.39	0.000169
2826.03	0.00022
2835.68	0.000166
2845.32	0.000271
2854.97	0.000274
2864.61	0.0003
2874.26	0.000362
2883.9	0.000317
2893.55	0.000407
2903.19	0.000192
2912.84	0.000155
2922.48	0.000491
2932.13	0.000397
2941.77	0.000427
2951.42	0.000446
2961.06	0.000524
2970.71	0.000438
2980.35	0.000573
2990	0.000551
2999.64	0.000303
3009.29	0.00032
3018.93	0.000189
3028.58	0.000137
3038.22	0.000231
3047.87	0.000514
3057.51	0.000392
3067.16	0.000456
3076.8	0.00078696
3086.45	0.0008668
3096.09	0.00078297
3105.74	0.000526
3115.38	0.000419
3125.03	0.000377
3134.67	0.000322
3144.32	0.000353
3153.96	0.0005
3163.61	0.000389
3173.25	0.000494
3182.9	0.000322
3192.54	0.000301
3202.19	0.000412
3211.83	0.000423
3221.48	0.00059
3231.12	0.00031
3240.77	0.000501
3250.41	0.000601
3260.06	0.000523
3269.7	0.000412
3279.35	0.000529
3289	0.00048
3298.64	0.000616
3308.29	0.000511
3317.93	0.00041
3327.58	0.000562
3337.22	0.000607
3346.87	0.000609
3356.51	0.000484
3366.16	0.000553
3375.8	0.000456
3385.45	0.0006619
3395.09	0.0006802
3404.74	0.00063
3414.38	0.000598
3424.03	0.00062
3433.67	0.000743718
3443.32	0.000628
3452.96	0.00062
3462.61	0.0006667
3472.25	0.000623
3481.9	0.000678
3491.54	0.0007
3501.19	0.000635
3510.83	0.000532
3520.48	0.000555
3530.12	0.0007145
3539.77	0.000635
3549.41	0.000483
3559.06	0.000641
3568.7	0.000612
3578.35	0.00061
3587.99	0.000565
3597.64	0.000581
3607.28	0.000535
3616.93	0.000466
3626.57	0.00076892
3636.22	0.0006436
3645.86	0.000595
3655.51	0.0006542
3665.15	0.0006613
3674.8	0.00079272
3684.44	0.000453
3694.09	0.000476
3703.73	0.000576
3713.38	0.000731
3723.02	0.0006592
3732.67	0.000548
3742.31	0.0007069
3751.96	0.00077676
3761.6	0.000315
3771.25	0.000491
3780.89	0.000494
3790.54	0.000605
3800.18	0.00062
3809.83	0.000551
3819.47	0.000483
3829.12	0.000458
3838.76	0.000308
3848.41	0.000574
3858.05	0.000591
3867.7	0.000538
3877.34	0.000589
3886.99	0.000381
3896.63	0.000326
3906.28	0.0003
3915.92	0.00043
3925.57	0.000404
3935.21	0.000302
3944.86	0.000578
3954.5	0.000295
3964.15	0.000567
3973.79	0.000261
3983.44	0.000354
3993.08	0.000384
