Infrared Spectrum: 7H-PYRROLO[3,2-d]PYRIMIDIN-6(5H)-ONE, 4-AMINO-, HYDROCHLORIDE
Formula: C6 H7 Cl N4 O
CAS: 2227-99-8
State: SOLID (0.7 mg / 500 mg KBr DISC)
Class: COBLENTZ III
Instrument: PERKIN-ELMER 21 (GRATING)
Instrument parameters: FILTER CHANGE AT 1090 CM^-^1
Sampling: TRANSMISSION
Resolution: 4
Origin: SOUTHERN RESEARCH INSTITUTE
1/CM	TRANSMITTANCE
605.465	0.621
614.574	0.628
623.682	0.635
632.791	0.663
641.9	0.716
651.008	0.719
660.117	0.77
669.225	0.771
678.334	0.685
687.443	0.582
696.551	0.583
705.66	0.666
714.769	0.719
723.877	0.719
732.986	0.699
742.095	0.5
751.203	0.622
760.312	0.614
769.421	0.645
778.529	0.846
787.638	0.855
796.746	0.852
805.855	0.775
814.964	0.701
824.072	0.845
833.181	0.869
842.29	0.891
851.398	0.907
860.507	0.913
869.616	0.915
878.724	0.913
887.833	0.906
896.941	0.889
906.05	0.855
915.159	0.827
924.267	0.88
933.376	0.897
942.485	0.891
951.593	0.886
960.702	0.877
969.811	0.873
978.919	0.871
988.028	0.82
997.137	0.722
1006.25	0.773
1015.35	0.744
1024.46	0.847
1033.57	0.844
1042.68	0.842
1051.79	0.839
1060.9	0.834
1070.01	0.825
1079.11	0.811
1088.22	0.752
1097.33	0.804
1106.44	0.799
1115.55	0.784
1124.66	0.748
1133.77	0.768
1142.87	0.81
1151.98	0.798
1161.09	0.782
1170.2	0.775
1179.31	0.761
1188.42	0.752
1197.53	0.729
1206.64	0.702
1215.74	0.698
1224.85	0.678
1233.96	0.571
1243.07	0.593
1252.18	0.705
1261.29	0.718
1270.4	0.71
1279.5	0.703
1288.61	0.68
1297.72	0.669
1306.83	0.666
1315.94	0.656
1325.05	0.648
1334.16	0.625
1343.26	0.585
1352.37	0.503
1361.48	0.514
1370.59	0.515
1379.7	0.571
1388.81	0.633
1397.92	0.615
1407.03	0.578
1416.13	0.533
1425.24	0.401
1434.35	0.325
1443.46	0.468
1452.57	0.605
1461.68	0.63
1470.79	0.544
1479.89	0.493
1489	0.429
1498.11	0.442
1507.22	0.355
1516.33	0.289
1525.44	0.673
1534.55	0.625
1543.65	0.53
1552.76	0.426
1561.87	0.214
1570.98	0.139
1580.09	0.167
1589.2	0.372
1598.31	0.514
1607.42	0.608
1616.52	0.663
1625.63	0.709
1634.74	0.656
1643.85	0.638
1652.96	0.68
1662.07	0.643
1671.18	0.414
1680.28	0.194
1689.39	0.23
1698.5	0.411
1707.61	0.657
1716.72	0.749
1725.83	0.809
1734.94	0.85
1744.05	0.866
1753.15	0.838
1762.26	0.837
1771.37	0.898
1780.48	0.913
1789.59	0.92
1798.7	0.924
1807.81	0.927
1816.91	0.929
1826.02	0.929
1835.13	0.926
1844.24	0.917
1853.35	0.915
1862.46	0.915
1871.57	0.915
1880.67	0.913
1889.78	0.908
1898.89	0.896
1908	0.88
1917.11	0.89
1926.22	0.894
1935.33	0.894
1944.44	0.893
1953.54	0.891
1962.65	0.889
1971.76	0.887
1980.87	0.883
1989.98	0.878
1999.09	0.875
2008.2	0.873
2017.3	0.872
2026.41	0.87
2035.52	0.866
2044.63	0.864
2053.74	0.862
2062.85	0.86
2071.96	0.859
2081.06	0.859
2090.17	0.858
2099.28	0.855
2108.39	0.848
2117.5	0.846
2126.61	0.843
2135.72	0.839
2144.83	0.838
2153.93	0.834
2163.04	0.832
2172.15	0.83
2181.26	0.828
2190.37	0.824
2199.48	0.821
2208.59	0.817
2217.69	0.814
2226.8	0.812
2235.91	0.81
2245.02	0.804
2254.13	0.796
2263.24	0.791
2272.35	0.789
2281.45	0.787
2290.56	0.786
2299.67	0.782
2308.78	0.775
2317.89	0.764
2327	0.758
2336.11	0.751
2345.22	0.745
2354.32	0.741
2363.43	0.735
2372.54	0.731
2381.65	0.726
2390.76	0.719
2399.87	0.712
2408.98	0.701
2418.08	0.692
2427.19	0.677
2436.3	0.667
2445.41	0.661
2454.52	0.658
2463.63	0.65
2472.74	0.635
2481.84	0.614
2490.95	0.597
2500.06	0.607
2509.17	0.626
2518.28	0.631
2527.39	0.627
2536.5	0.614
2545.61	0.588
2554.71	0.578
2563.82	0.568
2572.93	0.567
2582.04	0.564
2591.15	0.561
2600.26	0.551
2609.37	0.54
2618.47	0.53
2627.58	0.519
2636.69	0.507
2645.8	0.494
2654.91	0.482
2664.02	0.467
2673.13	0.455
2682.24	0.455
2691.34	0.463
2700.45	0.461
2709.56	0.456
2718.67	0.44
2727.78	0.421
2736.89	0.402
2746	0.392
2755.1	0.384
2764.21	0.376
2773.32	0.371
2782.43	0.365
2791.54	0.361
2800.65	0.332
2809.76	0.321
2818.86	0.308
2827.97	0.295
2837.08	0.274
2846.19	0.267
2855.3	0.26
2864.41	0.245
2873.52	0.239
2882.63	0.237
2891.73	0.236
2900.84	0.23
2909.95	0.234
2919.06	0.243
2928.17	0.25
2937.28	0.253
2946.39	0.258
2955.49	0.262
2964.6	0.26
2973.71	0.263
2982.82	0.268
2991.93	0.275
3001.04	0.278
3010.15	0.28
3019.25	0.277
3028.36	0.274
3037.47	0.276
3046.58	0.276
3055.69	0.274
3064.8	0.28
3073.91	0.293
3083.02	0.296
3092.12	0.297
3101.23	0.296
3110.34	0.289
3119.45	0.277
3128.56	0.274
3137.67	0.287
3146.78	0.315
3155.88	0.332
3164.99	0.357
3174.1	0.383
3183.21	0.429
3192.32	0.453
3201.43	0.469
3210.54	0.492
3219.64	0.498
3228.75	0.508
3237.86	0.521
3246.97	0.536
3256.08	0.535
3265.19	0.526
3274.3	0.503
3283.41	0.483
3292.51	0.47
3301.62	0.454
3310.73	0.444
3319.84	0.44
3328.95	0.442
3338.06	0.446
3347.17	0.449
3356.27	0.45
3365.38	0.455
3374.49	0.464
3383.6	0.503
3392.71	0.542
3401.82	0.577
3410.93	0.605
3420.03	0.629
3429.14	0.648
3438.25	0.66
3447.36	0.684
3456.47	0.701
3465.58	0.708
3474.69	0.713
3483.8	0.719
3492.9	0.729
3502.01	0.738
3511.12	0.748
3520.23	0.754
3529.34	0.763
3538.45	0.765
3547.56	0.772
3556.66	0.777
3565.77	0.784
3574.88	0.793
3583.99	0.802
3593.1	0.812
3602.21	0.818
3611.32	0.823
3620.43	0.825
3629.53	0.833
3638.64	0.835
3647.75	0.836
3656.86	0.838
3665.97	0.838
3675.08	0.838
3684.19	0.838
3693.29	0.837
3702.4	0.835
3711.51	0.834
3720.62	0.833
3729.73	0.831
3738.84	0.829
3747.95	0.827
3757.05	0.825
3766.16	0.824
3775.27	0.822
3784.38	0.818
3793.49	0.816
3802.6	0.814
3811.71	0.811
3820.82	0.808
3829.92	0.807
3839.03	0.806
3848.14	0.804
3857.25	0.802
3866.36	0.8
3875.47	0.8
3884.58	0.799
3893.68	0.799
3902.79	0.797
3911.9	0.796
3921.01	0.794
3930.12	0.792
3939.23	0.79
3948.34	0.789
3957.44	0.787
3966.55	0.787
3975.66	0.785
3984.77	0.785
3993.88	0.785
4002.99	0.787
4012.1	0.789
