Infrared Spectrum: 3-Methylene-2,6-heptanedione
Formula: C 8 H 12 O 2
CAS: 22289-05-0
State: gas
Origin: EPA-IR VAPOR PHASE LIBRARY
1/CM	ABSORBANCE
549.8	0.005215
559.445	0.005345
569.09	0.005615
578.734	0.006605
588.379	0.006255
598.024	0.003945
607.669	0.003335
617.313	0.002725
626.958	0.003005
636.603	0.004045
646.248	0.004805
655.893	0.003395
665.537	0.004195
675.182	0.003395
684.827	0.004065
694.472	0.003695
704.116	0.003055
713.761	0.003275
723.406	0.002605
733.051	0.0013481
742.695	0.002165
752.34	0.002435
761.985	0.002145
771.63	0.001725
781.275	0.0014819
790.919	0.001665
800.564	0.001955
810.209	0.001835
819.854	0.002815
829.498	0.001915
839.143	0.001835
848.788	0.001895
858.433	0.001885
868.078	0.002545
877.722	0.002385
887.367	0.003045
897.012	0.004995
906.657	0.007705
916.301	0.012985
925.946	0.019895
935.591	0.023785
945.236	0.017095
954.88	0.012365
964.525	0.012495
974.17	0.011865
983.815	0.009355
993.46	0.006725
1003.1	0.006575
1012.75	0.006945
1022.39	0.007535
1032.04	0.007135
1041.68	0.007215
1051.33	0.006885
1060.97	0.005735
1070.62	0.004905
1080.26	0.006265
1089.91	0.006955
1099.55	0.007445
1109.2	0.016805
1118.84	0.028535
1128.49	0.029105
1138.13	0.023685
1147.78	0.027625
1157.42	0.036145
1167.07	0.033015
1176.71	0.021075
1186.36	0.016805
1196	0.014745
1205.64	0.015535
1215.29	0.015055
1224.93	0.016205
1234.58	0.016085
1244.22	0.014295
1253.87	0.014075
1263.51	0.014575
1273.16	0.015385
1282.8	0.015265
1292.45	0.013805
1302.09	0.015015
1311.74	0.015535
1321.38	0.015495
1331.03	0.017675
1340.67	0.023205
1350.32	0.037645
1359.96	0.056075
1369.61	0.052665
1379.25	0.032455
1388.9	0.021775
1398.54	0.018805
1408.18	0.019075
1417.83	0.020685
1427.47	0.022225
1437.12	0.022445
1446.76	0.018925
1456.41	0.013395
1466.05	0.008915
1475.7	0.007055
1485.34	0.005805
1494.99	0.005385
1504.63	0.004455
1514.28	0.004565
1523.92	0.004835
1533.57	0.004555
1543.21	0.004795
1552.86	0.004375
1562.5	0.004605
1572.15	0.004735
1581.79	0.004865
1591.44	0.005205
1601.08	0.005785
1610.73	0.007735
1620.37	0.011555
1630.01	0.012445
1639.66	0.010425
1649.3	0.010235
1658.95	0.011845
1668.59	0.017505
1678.24	0.035335
1687.88	0.068435
1697.53	0.087015
1707.17	0.076185
1716.82	0.067575
1726.46	0.078145
1736.11	0.075665
1745.75	0.047085
1755.4	0.024035
1765.04	0.012815
1774.69	0.007405
1784.33	0.004845
1793.98	0.003655
1803.62	0.003285
1813.27	0.002685
1822.91	0.002795
1832.55	0.002685
1842.2	0.002845
1851.84	0.003085
1861.49	0.003325
1871.13	0.003375
1880.78	0.002735
1890.42	0.002295
1900.07	0.002065
1909.71	0.001805
1919.36	0.001745
1929	0.001665
1938.65	0.001725
1948.29	0.001745
1957.94	0.0015045
1967.58	0.0014852
1977.23	0.001564
1986.87	0.0015017
1996.52	0.0015073
2006.16	0.0014622
2015.81	0.0011417
2025.45	0.0014645
2035.1	0.001486
2044.74	0.001635
2054.38	0.0014513
2064.03	0.0015351
2073.67	0.001705
2083.32	0.001565
2092.96	0.001655
2102.61	0.0012946
2112.25	0.001516
2121.9	0.001585
2131.54	0.0014356
2141.19	0.0013634
2150.83	0.0015169
2160.48	0.001615
2170.12	0.0015307
2179.77	0.0013952
2189.41	0.0012432
2199.06	0.0012579
2208.7	0.0014777
2218.35	0.0012139
2227.99	0.0010556
2237.64	0.0009342
2247.28	0.0014335
2256.92	0.000953
2266.57	0.0010463
2276.21	0.001125
2285.86	0.001585
2295.5	0.0013921
2305.15	0.0014585
2314.79	0.0013484
2324.44	0.001585
2334.08	0.0010311
2343.73	0.0010344
2353.37	0.0012213
2363.02	0.0008745
2372.66	0.0010135
2382.31	0.0012977
2391.95	0.0010306
2401.6	0.001194
2411.24	0.0011477
2420.89	0.001024
2430.53	0.0011956
2440.18	0.0012308
2449.82	0.0014932
2459.47	0.001372
2469.11	0.0013517
2478.75	0.001062
2488.4	0.0015065
2498.04	0.0013506
2507.69	0.0011659
2517.33	0.0013088
2526.98	0.0013096
2536.62	0.0009729
2546.27	0.0013512
2555.91	0.0013785
2565.56	0.001259
2575.2	0.0012948
2584.85	0.0010486
2594.49	0.0013882
2604.14	0.0010758
2613.78	0.0012141
2623.43	0.0012619
2633.07	0.0013895
2642.72	0.0013164
2652.36	0.0015405
2662.01	0.0012038
2671.65	0.0013416
2681.29	0.0014102
2690.94	0.0010087
2700.58	0.0012873
2710.23	0.0014577
2719.87	0.0012819
2729.52	0.0008727
2739.16	0.0013016
2748.81	0.0014653
2758.45	0.0012981
2768.1	0.001845
2777.74	0.001625
2787.39	0.001795
2797.03	0.001955
2806.68	0.001835
2816.32	0.002665
2825.97	0.002675
2835.61	0.002905
2845.26	0.003975
2854.9	0.004055
2864.55	0.004675
2874.19	0.005095
2883.84	0.006185
2893.48	0.008395
2903.12	0.011195
2912.77	0.012945
2922.41	0.015025
2932.06	0.017955
2941.7	0.017325
2951.35	0.015305
2960.99	0.014505
2970.64	0.013255
2980.28	0.012005
2989.93	0.010605
2999.57	0.011375
3009.22	0.011315
3018.86	0.010255
3028.51	0.007575
3038.15	0.005785
3047.8	0.005245
3057.44	0.004865
3067.09	0.005245
3076.73	0.005165
3086.38	0.006945
3096.02	0.008905
3105.67	0.008325
3115.31	0.004345
3124.95	0.002655
3134.6	0.002305
3144.24	0.001855
3153.89	0.001433
3163.53	0.0010391
3173.18	0.0014434
3182.82	0.0013305
3192.47	0.001049
3202.11	0.0015472
3211.76	0.001825
3221.4	0.0007086
3231.05	0.0013632
3240.69	0.0008503
3250.34	0.0008876
3259.98	0.0012253
3269.63	0.0011464
3279.27	0.0015175
3288.92	0.001595
3298.56	0.0009628
3308.21	0.001535
3317.85	0.0010803
3327.49	0.001575
3337.14	0.0009118
3346.78	0.001795
3356.43	0.002715
3366.07	0.002525
3375.72	0.003335
3385.36	0.003055
3395.01	0.0013134
3404.65	0.001665
3414.3	0.002085
3423.94	0.002285
3433.59	0.002105
3443.23	0.002185
3452.88	0.0015636
3462.52	0.002105
3472.17	0.00126
3481.81	0.0007675
3491.46	0.0009949
3501.1	0.0010672
3510.75	0.00058553
3520.39	6e-05
3530.04	0.0010775
3539.68	0.0010348
3549.32	0.0004873
3558.97	0.001665
3568.61	0.0012396
3578.26	0.0011419
3587.9	0.001585
3597.55	0.0008065
3607.19	0.0008146
3616.84	0.0010456
3626.48	0.000322
3636.13	0.0011075
3645.77	0.00060823
3655.42	0.0010151
3665.06	0.0009789
3674.71	0.0010137
3684.35	0.0009318
3694	0.0009256
3703.64	0.0007121
3713.29	0.0012405
3722.93	0.0013944
3732.58	0.0011519
3742.22	0.00065529
3751.86	0.0007215
3761.51	0.0011421
3771.15	0.0011583
3780.8	0.0009537
3790.44	0.001166
3800.09	0.0010105
3809.73	0.0014491
3819.38	0.001765
3829.02	0.0009489
3838.67	0.0013681
3848.31	0.00058936
3857.96	0.00058754
3867.6	0.001795
3877.25	0.0009788
3886.89	0.0005398
3896.54	0.0009502
3906.18	0.0013428
3915.83	0.0011517
3925.47	0.0014441
3935.12	0.0008823
3944.76	0.00063748
3954.41	0.0010259
3964.05	0.0013283
3973.69	0.001355
3983.34	0.001705
3992.98	0.0012863
