Infrared Spectrum: 2-OXAZOLIDINONE, N-[2-(2-PYRIDYLTHIO)ETHYL]-
Formula: C10 H12 N2 O2 S
CAS: 22280-16-6
State: LIQUID (NEAT)
Class: COBLENTZ III
Instrument: PERKIN-ELMER 521 (GRATING)
Instrument parameters: FILTER CHANGES AT 3130, 2475, 2000, 1150, 700, 410 CM^-^1, GRATING CHANGES AT 2000, 620 CM^-^1
Sampling: TRANSMISSION
Path length: CAPILLARY
Resolution: 4
Origin: SOUTHERN RESEARCH INST.
1/CM	TRANSMITTANCE
245.614	0.716
255.153	0.722
264.693	0.75
274.232	0.782
283.772	0.816
293.311	0.839
302.851	0.851
312.39	0.857
321.93	0.872
331.469	0.9
341.009	0.919
350.548	0.92
360.088	0.918
369.627	0.916
379.167	0.915
388.706	0.915
398.246	0.832
407.785	0.867
417.325	0.898
426.864	0.896
436.404	0.892
445.943	0.892
455.483	0.896
465.022	0.895
474.562	0.885
484.101	0.83
493.64	0.881
503.18	0.897
512.719	0.897
522.259	0.897
531.798	0.897
541.338	0.896
550.877	0.898
560.417	0.899
569.956	0.9
579.496	0.898
589.035	0.902
598.575	0.903
608.114	0.885
617.654	0.806
627.193	0.866
636.733	0.889
646.272	0.867
655.812	0.832
665.351	0.885
674.891	0.884
684.43	0.867
693.97	0.825
703.509	0.831
713.049	0.851
722.588	0.683
732.127	0.808
741.667	0.831
751.206	0.608
760.746	0.43
770.285	0.513
779.825	0.72
789.364	0.855
798.904	0.881
808.443	0.885
817.983	0.888
827.522	0.892
837.062	0.896
846.601	0.895
856.141	0.89
865.68	0.87
875.22	0.849
884.759	0.859
894.299	0.888
903.838	0.904
913.378	0.904
922.917	0.897
932.457	0.865
941.996	0.86
951.536	0.859
961.075	0.824
970.614	0.763
980.154	0.798
989.693	0.735
999.233	0.841
1008.77	0.848
1018.31	0.805
1027.85	0.672
1037.39	0.49
1046.93	0.615
1056.47	0.749
1066.01	0.74
1075.55	0.594
1085.09	0.597
1094.63	0.695
1104.17	0.763
1113.71	0.752
1123.25	0.453
1132.79	0.623
1142.33	0.693
1151.86	0.648
1161.4	0.643
1170.94	0.703
1180.48	0.741
1190.02	0.785
1199.56	0.743
1209.1	0.689
1218.64	0.651
1228.18	0.645
1237.72	0.664
1247.26	0.636
1256.8	0.527
1266.34	0.424
1275.88	0.524
1285.42	0.671
1294.96	0.819
1304.5	0.835
1314.04	0.804
1323.58	0.797
1333.11	0.828
1342.65	0.849
1352.19	0.744
1361.73	0.726
1371.27	0.767
1380.81	0.779
1390.35	0.815
1399.89	0.755
1409.43	0.364
1418.97	0.396
1428.51	0.457
1438.05	0.492
1447.59	0.487
1457.13	0.492
1466.67	0.774
1476.21	0.636
1485.75	0.548
1495.29	0.683
1504.83	0.806
1514.36	0.844
1523.9	0.84
1533.44	0.842
1542.98	0.852
1552.52	0.824
1562.06	0.63
1571.6	0.661
1581.14	0.409
1590.68	0.785
1600.22	0.844
1609.76	0.855
1619.3	0.851
1628.84	0.845
1638.38	0.839
1647.92	0.834
1657.46	0.835
1667	0.845
1676.54	0.845
1686.08	0.83
1695.61	0.8
1705.15	0.745
1714.69	0.652
1724.23	0.457
1733.77	0.271
1743.31	0.173
1752.85	0.163
1762.39	0.231
1771.93	0.49
1781.47	0.695
1791.01	0.798
1800.55	0.837
1810.09	0.86
1819.63	0.873
1829.17	0.878
1838.71	0.878
1848.25	0.88
1857.79	0.885
1867.33	0.889
1876.87	0.894
1886.4	0.897
1895.94	0.9
1905.48	0.899
1915.02	0.898
1924.56	0.896
1934.1	0.895
1943.64	0.894
1953.18	0.894
1962.72	0.895
1972.26	0.895
1981.8	0.896
1991.34	0.896
2000.88	0.897
2010.42	0.898
2019.96	0.898
2029.5	0.899
2039.04	0.9
2048.58	0.9
2058.12	0.9
2067.65	0.9
2077.19	0.9
2086.73	0.9
2096.27	0.9
2105.81	0.9
2115.35	0.9
2124.89	0.9
2134.43	0.9
2143.97	0.9
2153.51	0.9
2163.05	0.9
2172.59	0.9
2182.13	0.9
2191.67	0.9
2201.21	0.9
2210.75	0.9
2220.29	0.9
2229.83	0.9
2239.37	0.9
2248.9	0.9
2258.44	0.9
2267.98	0.9
2277.52	0.9
2287.06	0.9
2296.6	0.9
2306.14	0.9
2315.68	0.9
2325.22	0.899
2334.76	0.898
2344.3	0.897
2353.84	0.896
2363.38	0.896
2372.92	0.896
2382.46	0.895
2392	0.894
2401.54	0.894
2411.08	0.893
2420.62	0.893
2430.15	0.893
2439.69	0.892
2449.23	0.891
2458.77	0.89
2468.31	0.889
2477.85	0.888
2487.39	0.886
2496.93	0.883
2506.47	0.881
2516.01	0.883
2525.55	0.885
2535.09	0.886
2544.63	0.886
2554.17	0.886
2563.71	0.886
2573.25	0.886
2582.79	0.886
2592.33	0.886
2601.87	0.885
2611.41	0.885
2620.94	0.884
2630.48	0.884
2640.02	0.883
2649.56	0.882
2659.1	0.881
2668.64	0.88
2678.18	0.88
2687.72	0.879
2697.26	0.879
2706.8	0.879
2716.34	0.878
2725.88	0.878
2735.42	0.878
2744.96	0.878
2754.5	0.877
2764.04	0.876
2773.58	0.875
2783.12	0.871
2792.66	0.868
2802.19	0.865
2811.73	0.863
2821.27	0.858
2830.81	0.852
2840.35	0.836
2849.89	0.818
2859.43	0.81
2868.97	0.801
2878.51	0.787
2888.05	0.771
2897.59	0.753
2907.13	0.735
2916.67	0.726
2926.21	0.729
2935.75	0.743
2945.29	0.767
2954.83	0.789
2964.37	0.778
2973.91	0.767
2983.44	0.757
2992.98	0.761
3002.52	0.788
3012.06	0.82
3021.6	0.839
3031.14	0.837
3040.68	0.804
3050.22	0.806
3059.76	0.811
3069.3	0.824
3078.84	0.836
3088.38	0.846
3097.92	0.851
3107.46	0.854
3117	0.855
3126.54	0.854
3136.08	0.853
3145.62	0.853
3155.16	0.853
3164.69	0.852
3174.23	0.852
3183.77	0.852
3193.31	0.852
3202.85	0.85
3212.39	0.849
3221.93	0.848
3231.47	0.846
3241.01	0.845
3250.55	0.843
3260.09	0.842
3269.63	0.841
3279.17	0.839
3288.71	0.838
3298.25	0.837
3307.79	0.836
3317.33	0.835
3326.87	0.833
3336.41	0.831
3345.94	0.826
3355.48	0.82
3365.02	0.815
3374.56	0.811
3384.1	0.806
3393.64	0.801
3403.18	0.798
3412.72	0.793
3422.26	0.787
3431.8	0.784
3441.34	0.782
3450.88	0.779
3460.42	0.776
3469.96	0.773
3479.5	0.771
3489.04	0.77
3498.58	0.771
3508.12	0.772
3517.66	0.774
3527.2	0.775
3536.73	0.777
3546.27	0.778
3555.81	0.78
3565.35	0.783
3574.89	0.786
3584.43	0.79
3593.97	0.794
3603.51	0.799
3613.05	0.803
3622.59	0.807
3632.13	0.81
3641.67	0.814
3651.21	0.818
3660.75	0.824
3670.29	0.832
3679.83	0.835
3689.37	0.841
3698.91	0.844
3708.45	0.844
3717.98	0.843
3727.52	0.842
3737.06	0.842
3746.6	0.842
3756.14	0.844
3765.68	0.844
3775.22	0.844
3784.76	0.844
3794.3	0.844
3803.84	0.843
