Infrared Spectrum: 2-Methyl-5-nonanone
Formula: C 10 H 20 O
CAS: 22287-02-1
State: gas
Instrument: HP-GC/MS/IRD
Origin: NIST Mass Spectrometry Data Center
1/CM	ABSORBANCE
550	0.0002352
562	0.0003108
574	0.0001722
586	0.0002394
598	0.0001806
610	0.0002982
622	0.0003696
634	0.000378
646	0.00021
658	0.0001764
670	0.000126
682	9.66e-05
694	0.0001722
706	0.0001806
718	0.0002856
730	0.0004746
742	0.0005796
754	0.0006762
766	0.0006258
778	0.0005208
790	0.000378
802	0.0003024
814	0.0002604
826	0.000336
838	0.00021
850	0.0002688
862	0.0003906
874	0.000483
886	0.0004872
898	0.000504
910	0.0005796
922	0.0006678
934	0.0006174
946	0.0006846
958	0.0007812
970	0.000819
982	0.0008484
994	0.0008694
1006	0.0010332
1018	0.0016422
1030	0.0023436
1042	0.0035154
1054	0.0046494
1066	0.003612
1078	0.0022344
1090	0.001869
1102	0.0020706
1114	0.0029064
1126	0.0038178
1138	0.0041328
1150	0.0041076
1162	0.0039018
1174	0.0028392
1186	0.0018144
1198	0.0017556
1210	0.0019698
1222	0.0021882
1234	0.0024276
1246	0.0027804
1258	0.003087
1270	0.0029946
1282	0.0025032
1294	0.0022974
1306	0.0025536
1318	0.00336
1330	0.0045444
1342	0.0052122
1354	0.0056658
1366	0.0059304
1378	0.005124
1390	0.0046704
1402	0.0032004
1414	0.0031836
1426	0.0033222
1438	0.0035658
1450	0.0045864
1462	0.005439
1474	0.004599
1486	0.0024444
1498	0.001239
1510	0.000651
1522	0.0004578
1534	0.0003738
1546	0.0003108
1558	0.0002562
1570	0.0002814
1582	0.0002982
1594	0.0003192
1606	0.0003276
1618	0.000336
1630	0.0003906
1642	0.0004578
1654	0.0005754
1666	0.0008862
1678	0.0014196
1690	0.0025452
1702	0.005859
1714	0.0139314
1726	0.0194796
1738	0.0113106
1750	0.0035868
1762	0.0014784
1774	0.0008064
1786	0.0005124
1798	0.0003696
1810	0.0002898
1822	0.0002184
1834	0.000168
1846	0.0001218
1858	0.000126
1870	9.66e-05
1882	9.66e-05
1894	6.3e-05
1906	7.56e-05
1918	4.62e-05
1930	5.46e-05
1942	3.78e-05
1954	5.04e-05
1966	3.78e-05
1978	4.62e-05
1990	5.04e-05
2002	5.46e-05
2014	3.78e-05
2026	7.14e-05
2038	7.56e-05
2050	5.46e-05
2062	5.88e-05
2074	6.72e-05
2086	7.98e-05
2098	6.72e-05
2110	7.56e-05
2122	7.56e-05
2134	7.98e-05
2146	0.0001008
2158	8.82e-05
2170	9.24e-05
2182	7.98e-05
2194	9.24e-05
2206	7.98e-05
2218	7.56e-05
2230	7.98e-05
2242	0.0001008
2254	7.98e-05
2266	0.000105
2278	0.0001008
2290	7.14e-05
2302	5.88e-05
2314	5.04e-05
2326	5.46e-05
2338	0.0001134
2350	8.82e-05
2362	9.66e-05
2374	8.82e-05
2386	0.0001176
2398	0.000126
2410	0.000126
2422	0.0001176
2434	0.0001092
2446	0.0001008
2458	9.24e-05
2470	9.24e-05
2482	0.0001008
2494	0.0001008
2506	0.0001008
2518	0.0001176
2530	0.0001176
2542	0.0001218
2554	0.0001428
2566	0.000168
2578	0.0001932
2590	0.00021
2602	0.0002226
2614	0.0002814
2626	0.000315
2638	0.000336
2650	0.0003528
2662	0.0003612
2674	0.0003864
2686	0.00042
2698	0.0004032
2710	0.0004578
2722	0.0005754
2734	0.000714
2746	0.0007896
2758	0.0007812
2770	0.0008526
2782	0.0009702
2794	0.0012012
2806	0.001596
2818	0.001995
2830	0.0025788
2842	0.0036666
2854	0.0061446
2866	0.0105462
2878	0.0156954
2890	0.0165354
2902	0.0164682
2914	0.0192654
2926	0.0237006
2938	0.0281988
2950	0.030723
2962	0.0405678
2974	0.0322728
2986	0.0124488
2998	0.0054516
3010	0.003045
3022	0.001995
3034	0.001512
3046	0.0012096
3058	0.0010458
3070	0.0009324
3082	0.0008736
3094	0.0007476
3106	0.0006216
3118	0.0005838
3130	0.0005208
3142	0.0004704
3154	0.0004788
3166	0.0004746
3178	0.0004662
3190	0.0004074
3202	0.0003486
3214	0.0002688
3226	0.0001806
3238	0.0001428
3250	0.0001302
3262	8.82e-05
3274	7.56e-05
3286	8.4e-05
3298	9.24e-05
3310	8.82e-05
3322	0.000126
3334	0.0001386
3346	0.0001554
3358	0.0001554
3370	0.0001428
3382	0.0001974
3394	0.0002016
3406	0.0002436
3418	0.0003612
3430	0.0004368
3442	0.0004032
3454	0.0002562
3466	0.0001344
3478	0.0001008
3490	0.000105
3502	8.4e-06
3514	9.24e-05
3526	6.3e-05
3538	8.82e-05
3550	6.72e-05
3562	4.62e-05
3574	7.56e-05
3586	6.72e-05
3598	9.24e-05
3610	6.72e-05
3622	8.82e-05
3634	0.000105
3646	0.0001302
3658	0.0001596
3670	0.000147
3682	0.0001764
3694	0.000189
3706	0.0001722
3718	0.000147
3730	0.0001596
3742	0.0001302
3754	0.0001596
3766	0.000189
3778	0.00021
3790	0.0002394
3802	0.0002352
3814	0.0002436
3826	0.000273
3838	0.0002478
