Infrared Spectrum: 4-Methyl-2-phenyl-1,2,3-triazole-5-carboxylic acid
Formula: C 10 H 9 N 3 O 2
CAS: 22300-56-7
State: gas
Origin: EPA-IR VAPOR PHASE LIBRARY
1/CM	ABSORBANCE
549.8	0.009914
559.445	0.013084
569.09	0.007974
578.734	0.005124
588.379	0.003384
598.024	0.002524
607.669	0.002284
617.313	0.002444
626.958	0.001574
636.603	0.001744
646.248	0.003154
655.893	0.006334
665.537	0.014264
675.182	0.013434
684.827	0.016344
694.472	0.016154
704.116	0.006614
713.761	0.003924
723.406	0.004214
733.051	0.004274
742.695	0.009234
752.34	0.019324
761.985	0.016644
771.63	0.009864
781.275	0.007584
790.919	0.005234
800.564	0.003374
810.209	0.002444
819.854	0.001974
829.498	0.002234
839.143	0.001434
848.788	0.0012454
858.433	0.0010036
868.078	0.0010684
877.722	0.0005235
887.367	0.0009172
897.012	0.0010552
906.657	0.001684
916.301	0.001964
925.946	0.0011682
935.591	0.001344
945.236	0.001514
954.88	0.003004
964.525	0.009384
974.17	0.016414
983.815	0.007904
993.46	0.004384
1003.1	0.003214
1012.75	0.003024
1022.39	0.003574
1032.04	0.002664
1041.68	0.002164
1051.33	0.003504
1060.97	0.006384
1070.62	0.010724
1080.26	0.025384
1089.91	0.049514
1099.55	0.054074
1109.2	0.036104
1118.84	0.012284
1128.49	0.006064
1138.13	0.003184
1147.78	0.003314
1157.42	0.003044
1167.07	0.004594
1176.71	0.004834
1186.36	0.006134
1196	0.006104
1205.64	0.006834
1215.29	0.005664
1224.93	0.008734
1234.58	0.009794
1244.22	0.007394
1253.87	0.004154
1263.51	0.003904
1273.16	0.004064
1282.8	0.006174
1292.45	0.009294
1302.09	0.017944
1311.74	0.031294
1321.38	0.033354
1331.03	0.021594
1340.67	0.016334
1350.32	0.016884
1359.96	0.016474
1369.61	0.014174
1379.25	0.009884
1388.9	0.005914
1398.54	0.003754
1408.18	0.003654
1417.83	0.003644
1427.47	0.004764
1437.12	0.006734
1446.76	0.009304
1456.41	0.010764
1466.05	0.013144
1475.7	0.018524
1485.34	0.022924
1494.99	0.026634
1504.63	0.023324
1514.28	0.021534
1523.92	0.016704
1533.57	0.007944
1543.21	0.004024
1552.86	0.003064
1562.5	0.002644
1572.15	0.003134
1581.79	0.005174
1591.44	0.010404
1601.08	0.014224
1610.73	0.005784
1620.37	0.002524
1630.01	0.001934
1639.66	0.001744
1649.3	0.001764
1658.95	0.002114
1668.59	0.002054
1678.24	0.001824
1687.88	0.001914
1697.53	0.002454
1707.17	0.003894
1716.82	0.004284
1726.46	0.004604
1736.11	0.007914
1745.75	0.023264
1755.4	0.071484
1765.04	0.037334
1774.69	0.025434
1784.33	0.051564
1793.98	0.046234
1803.62	0.011554
1813.27	0.005734
1822.91	0.003504
1832.55	0.002284
1842.2	0.002224
1851.84	0.001914
1861.49	0.001644
1871.13	0.001554
1880.78	0.001644
1890.42	0.001284
1900.07	0.0010621
1909.71	0.0008685
1919.36	0.0008416
1929	0.0011936
1938.65	0.001444
1948.29	0.001484
1957.94	0.001404
1967.58	0.0010377
1977.23	0.0009663
1986.87	0.0007724
1996.52	0.0006079
2006.16	0.0007578
2015.81	0.000511
2025.45	0.0005861
2035.1	0.0006007
2044.74	0.00076
2054.38	0.0006475
2064.03	0.0005614
2073.67	0.0005653
2083.32	0.0006217
2092.96	0.0004738
2102.61	0.0007166
2112.25	0.0005073
2121.9	0.0004661
2131.54	0.0006538
2141.19	0.0006152
2150.83	0.0006863
2160.48	0.0008019
2170.12	0.000851
2179.77	0.0010743
2189.41	0.0010378
2199.06	0.0008414
2208.7	0.0008009
2218.35	0.0009156
2227.99	0.0007975
2237.64	0.0007607
2247.28	0.0007993
2256.92	0.0006126
2266.57	0.0007171
2276.21	0.000706
2285.86	0.000753
2295.5	0.0007372
2305.15	0.0008974
2314.79	0.0010845
2324.44	0.0007947
2334.08	0.0009202
2343.73	0.0008197
2353.37	0.0009709
2363.02	0.0008285
2372.66	0.0007911
2382.31	0.0009186
2391.95	0.0008268
2401.6	0.0007696
2411.24	0.0010136
2420.89	0.000889
2430.53	0.0009684
2440.18	0.0012164
2449.82	0.001274
2459.47	0.0011597
2469.11	0.0008786
2478.75	0.0007367
2488.4	0.0007147
2498.04	0.0007899
2507.69	0.0006455
2517.33	0.0006901
2526.98	0.0006116
2536.62	0.0006326
2546.27	0.0006626
2555.91	0.000911
2565.56	0.0009151
2575.2	0.0008881
2584.85	0.0007516
2594.49	0.0006993
2604.14	0.0007154
2613.78	0.0008253
2623.43	0.0009816
2633.07	0.0011394
2642.72	0.001061
2652.36	0.0011679
2662.01	0.0010532
2671.65	0.0008433
2681.29	0.0008828
2690.94	0.0010071
2700.58	0.0009272
2710.23	0.0008724
2719.87	0.0006562
2729.52	0.0006446
2739.16	0.0009105
2748.81	0.0006908
2758.45	0.0006132
2768.1	0.0006716
2777.74	0.0007831
2787.39	0.0006249
2797.03	0.000872
2806.68	0.0009378
2816.32	0.0007625
2825.97	0.0009533
2835.61	0.0006306
2845.26	0.0010349
2854.9	0.001374
2864.55	0.001274
2874.19	0.001564
2883.84	0.0011526
2893.48	0.001154
2903.12	0.0011422
2912.77	0.0010663
2922.41	0.001474
2932.06	0.001764
2941.7	0.003084
2951.35	0.003394
2960.99	0.002444
2970.64	0.001644
2980.28	0.001324
2989.93	0.001744
2999.57	0.001564
3009.22	0.001514
3018.86	0.001354
3028.51	0.001784
3038.15	0.002054
3047.8	0.003204
3057.44	0.004334
3067.09	0.005034
3076.73	0.005234
3086.38	0.005214
3096.02	0.002674
3105.67	0.001944
3115.31	0.001514
3124.95	0.0010574
3134.6	0.0008555
3144.24	0.0005687
3153.89	0.000414
3163.53	0.000601
3173.18	0.0007687
3182.82	0.0008191
3192.47	0.0002431
3202.11	0.0002028
3211.76	0.0005555
3221.4	0.0005406
3231.05	0.0005587
3240.69	0.0005541
3250.34	0.0005394
3259.98	0.0007557
3269.63	0.0008405
3279.27	0.0008312
3288.92	0.0003585
3298.56	0.0004833
3308.21	0.0007124
3317.85	0.0005323
3327.49	0.0004594
3337.14	0.0007243
3346.78	0.0005791
3356.43	0.0005596
3366.07	0.0002001
3375.72	0.0005617
3385.36	0.00034311
3395.01	0.0009385
3404.65	0.0004283
3414.3	0.000584
3423.94	0.0006267
3433.59	0.0004277
3443.23	0.0008659
3452.88	0.0006801
3462.52	0.0005047
3472.17	0.0006595
3481.81	0.0010355
3491.46	0.0009807
3501.1	0.0011378
3510.75	0.0011036
3520.39	0.0006737
3530.04	0.001424
3539.68	0.003804
3549.32	0.008654
3558.97	0.006654
3568.61	0.011784
3578.26	0.024034
3587.9	0.007714
3597.55	0.001784
3607.19	0.0009858
3616.84	0.0009994
3626.48	0.0008207
3636.13	0.0008306
3645.77	0.0006833
3655.42	0.0007108
3665.06	0.0007184
3674.71	0.0004164
3684.35	0.0006929
3694	0.00029706
3703.64	0.000263928
3713.29	0.0007284
3722.93	0.0003965
3732.58	0.0004615
3742.22	0.00033155
3751.86	0.00027156
3761.51	0.0004363
3771.15	0.00031908
3780.8	0.0004987
3790.44	0.0007431
3800.09	0.000562
3809.73	0.0004175
3819.38	0.0004661
3829.02	0.0006708
3838.67	0.0002335
3848.31	0.00052
3857.96	0.0008592
3867.6	0.00029128
3877.25	0.0005838
3886.89	0.0004844
3896.54	0.0005659
3906.18	0.000104
3915.83	0.000129
3925.47	0.00034283
3935.12	0.0004512
3944.76	0.00027479
3954.41	0.0004859
3964.05	0.0003217
3973.69	0.0002384
3983.34	0.0006303
3992.98	0.0004462
