Infrared Spectrum: PROPIOPHENONE, 2'-[2-(DIETHYLAMINO)ETHOXY]-, HYDROCHLORIDE
Formula: C15 H24 Cl N O2
CAS: 22308-32-3
State: SOLID (NUJOL MULL)
Class: COBLENTZ III
Instrument: PERKIN-ELMER 21 (GRATING)
Instrument parameters: NaCl PRISM
Sampling: TRANSMISSION
Resolution: 2
Origin: SMITH KLINE & FRENCH LABS.
MICROMETERS	TRANSMITTANCE
2.006	0.667
2.04027	0.671
2.07455	0.686
2.10882	0.691
2.14309	0.698
2.17737	0.708
2.21164	0.71
2.24591	0.73
2.28019	0.72
2.31446	0.704
2.34873	0.703
2.38301	0.724
2.41728	0.725
2.45155	0.728
2.48582	0.735
2.5201	0.75
2.55437	0.754
2.58864	0.763
2.62292	0.77
2.65719	0.778
2.69146	0.771
2.72574	0.776
2.76001	0.778
2.79428	0.789
2.82856	0.782
2.86283	0.779
2.8971	0.787
2.93138	0.778
2.96565	0.775
2.99992	0.779
3.0342	0.786
3.06847	0.789
3.10274	0.789
3.13702	0.792
3.17129	0.785
3.20556	0.782
3.23984	0.781
3.27411	0.78
3.30838	0.771
3.34265	0.729
3.37693	0.431
3.4112	0.151
3.44547	0.076
3.47975	0.086
3.51402	0.152
3.54829	0.264
3.58257	0.632
3.61684	0.75
3.65111	0.763
3.68539	0.753
3.71966	0.737
3.75393	0.748
3.78821	0.712
3.82248	0.675
3.85675	0.65
3.89103	0.571
3.9253	0.41
3.95957	0.43
3.99385	0.464
4.02812	0.503
4.06239	0.395
4.09667	0.221
4.13094	0.239
4.16521	0.331
4.19948	0.414
4.23376	0.476
4.26803	0.503
4.3023	0.532
4.33658	0.586
4.37085	0.681
4.40512	0.704
4.4394	0.714
4.47367	0.731
4.50794	0.758
4.54222	0.78
4.57649	0.792
4.61076	0.803
4.64504	0.82
4.67931	0.821
4.71358	0.83
4.74786	0.837
4.78213	0.837
4.8164	0.845
4.85068	0.85
4.88495	0.853
4.91922	0.864
4.9535	0.868
4.98777	0.873
5.02204	0.871
5.05631	0.867
5.09059	0.871
5.12486	0.878
5.15913	0.865
5.19341	0.879
5.22768	0.876
5.26195	0.881
5.29623	0.891
5.3305	0.9
5.36477	0.902
5.39905	0.902
5.43332	0.902
5.46759	0.906
5.50187	0.891
5.53614	0.902
5.57041	0.907
5.60469	0.909
5.63896	0.908
5.67323	0.904
5.70751	0.903
5.74178	0.898
5.77605	0.89
5.81033	0.881
5.8446	0.878
5.87887	0.882
5.91314	0.869
5.94742	0.807
5.98169	0.243
6.01596	0.53
6.05024	0.789
6.08451	0.836
6.11878	0.845
6.15306	0.826
6.18733	0.85
6.2216	0.843
6.25588	0.657
6.29015	0.353
6.32442	0.657
6.3587	0.736
6.39297	0.802
6.42724	0.825
6.46152	0.845
6.49579	0.846
6.53006	0.831
6.56434	0.84
6.59861	0.834
6.63288	0.843
6.66716	0.819
6.70143	0.767
6.7357	0.639
6.76997	0.467
6.80425	0.474
6.83852	0.223
6.87279	0.231
6.90707	0.234
6.94134	0.269
6.97561	0.493
7.00989	0.696
7.04416	0.734
7.07843	0.718
7.11271	0.592
7.14698	0.685
7.18125	0.624
7.21553	0.473
7.2498	0.495
7.28407	0.38
7.31835	0.481
7.35262	0.519
7.38689	0.65
7.42117	0.597
7.45544	0.546
7.48971	0.537
7.52399	0.659
7.55826	0.7
7.59253	0.712
7.6268	0.762
7.66108	0.763
7.69535	0.731
7.72962	0.626
7.7639	0.673
7.79817	0.637
7.83244	0.32
7.86672	0.5
7.90099	0.703
7.93526	0.75
7.96954	0.762
8.00381	0.763
8.03808	0.726
8.07236	0.646
8.10663	0.503
8.1409	0.382
8.17518	0.521
8.20945	0.707
8.24372	0.774
8.278	0.781
8.31227	0.775
8.34654	0.612
8.38082	0.312
8.41509	0.356
8.44936	0.467
8.48363	0.618
8.51791	0.681
8.55218	0.689
8.58645	0.48
8.62073	0.453
8.655	0.673
8.68927	0.757
8.72355	0.776
8.75782	0.787
8.79209	0.792
8.82637	0.809
8.86064	0.812
8.89491	0.708
8.92919	0.739
8.96346	0.728
8.99773	0.571
9.03201	0.719
9.06628	0.795
9.10055	0.823
9.13483	0.834
9.1691	0.848
9.20337	0.843
9.23765	0.829
9.27192	0.823
9.30619	0.815
9.34046	0.779
9.37474	0.784
9.40901	0.814
9.44328	0.819
9.47756	0.8
9.51183	0.682
9.5461	0.709
9.58038	0.57
9.61465	0.525
9.64892	0.462
9.6832	0.413
9.71747	0.586
9.75174	0.686
9.78602	0.714
9.82029	0.676
9.85456	0.598
9.88884	0.569
9.92311	0.674
9.95738	0.754
9.99166	0.784
10.0259	0.797
10.0602	0.812
10.0945	0.824
10.1287	0.828
10.163	0.825
10.1973	0.836
10.2316	0.84
10.2658	0.831
10.3001	0.83
10.3344	0.832
10.3687	0.809
10.4029	0.728
10.4372	0.662
10.4715	0.506
10.5058	0.375
10.54	0.484
10.5743	0.485
10.6086	0.609
10.6428	0.71
10.6771	0.769
10.7114	0.791
10.7457	0.81
10.7799	0.825
10.8142	0.83
10.8485	0.837
10.8828	0.842
10.917	0.841
10.9513	0.83
10.9856	0.82
11.0199	0.854
11.0541	0.865
11.0884	0.874
11.1227	0.879
11.1569	0.881
11.1912	0.882
11.2255	0.881
11.2598	0.878
11.294	0.873
11.3283	0.875
11.3626	0.885
11.3969	0.891
11.4311	0.89
11.4654	0.882
11.4997	0.893
11.5339	0.889
11.5682	0.895
11.6025	0.889
11.6368	0.881
11.671	0.875
11.7053	0.884
11.7396	0.885
11.7739	0.884
11.8081	0.887
11.8424	0.889
11.8767	0.884
11.911	0.871
11.9452	0.863
11.9795	0.824
12.0138	0.779
12.048	0.814
12.0823	0.84
12.1166	0.87
12.1509	0.875
12.1851	0.88
12.2194	0.881
12.2537	0.875
12.288	0.869
12.3222	0.848
12.3565	0.802
12.3908	0.759
12.4251	0.712
12.4593	0.736
12.4936	0.751
12.5279	0.751
12.5621	0.782
12.5964	0.83
12.6307	0.853
12.665	0.873
12.6992	0.875
12.7335	0.869
12.7678	0.867
12.8021	0.85
12.8363	0.828
12.8706	0.797
12.9049	0.742
12.9392	0.591
12.9734	0.35
13.0077	0.253
13.042	0.235
13.0762	0.306
13.1105	0.537
13.1448	0.665
13.1791	0.718
13.2133	0.768
13.2476	0.785
13.2819	0.789
13.3162	0.8
13.3504	0.812
13.3847	0.82
13.419	0.836
13.4532	0.824
13.4875	0.82
13.5218	0.817
13.5561	0.82
13.5903	0.809
13.6246	0.802
13.6589	0.803
13.6932	0.808
13.7274	0.812
13.7617	0.814
13.796	0.813
13.8303	0.795
13.8645	0.778
13.8988	0.776
13.9331	0.79
13.9673	0.806
14.0016	0.817
14.0359	0.828
14.0702	0.835
14.1044	0.829
14.1387	0.837
14.173	0.839
14.2073	0.835
14.2415	0.836
14.2758	0.836
14.3101	0.836
14.3444	0.832
14.3786	0.832
14.4129	0.839
14.4472	0.834
14.4814	0.835
14.5157	0.828
14.55	0.828
14.5843	0.829
14.6185	0.821
14.6528	0.821
14.6871	0.824
14.7214	0.818
14.7556	0.809
14.7899	0.806
