Infrared Spectrum: (S)-(+)-2,2-Dimethyl-1,3-dioxalane-4-methanol
Formula: C 6 H 12 O 3
CAS: 22323-82-6
State: gas
Origin: EPA-IR VAPOR PHASE LIBRARY
1/CM	ABSORBANCE
501.5	0.00335
513.074	0.00486
524.648	0.00426
536.222	0.00227
547.796	0.00133
559.37	0.00106
570.944	0.0009721
582.518	0.00112
594.092	0.00126
605.666	0.00124
617.24	0.00107
628.814	0.00105
640.388	0.00121
651.962	0.00143
663.536	0.00135
675.11	0.00105
686.684	0.0008423
698.258	0.0007295
709.832	0.0007597
721.406	0.0007473
732.98	0.0008089
744.554	0.0008728
756.128	0.0009517
767.702	0.00112
779.276	0.00176
790.85	0.00268
802.423	0.00319
813.997	0.00469
825.571	0.00803
837.145	0.01216
848.719	0.01446
860.293	0.01208
871.867	0.00787
883.441	0.00589
895.015	0.00527
906.589	0.00507
918.163	0.00461
929.737	0.00386
941.311	0.00362
952.885	0.00468
964.459	0.00691
976.033	0.00809
987.607	0.00805
999.181	0.00904
1010.76	0.01231
1022.33	0.02009
1033.9	0.03143
1045.48	0.04025
1057.05	0.04751
1068.63	0.05076
1080.2	0.03928
1091.77	0.02314
1103.35	0.01642
1114.92	0.01354
1126.49	0.01077
1138.07	0.01022
1149.64	0.01383
1161.22	0.0169
1172.79	0.0151
1184.36	0.01438
1195.94	0.0192
1207.51	0.02802
1219.09	0.03509
1230.66	0.03754
1242.23	0.03514
1253.81	0.0282
1265.38	0.0185
1276.96	0.01097
1288.53	0.00694
1300.1	0.0052
1311.68	0.00484
1323.25	0.0052
1334.83	0.00556
1346.4	0.00632
1357.97	0.01035
1369.55	0.01938
1381.12	0.02429
1392.7	0.01567
1404.27	0.00723
1415.84	0.0042
1427.42	0.00279
1438.99	0.0027
1450.57	0.00364
1462.14	0.00431
1473.71	0.00339
1485.29	0.00227
1496.86	0.00139
1508.44	0.000874
1520.01	0.0006565
1531.58	0.0005714
1543.16	0.0005661
1554.73	0.0005601
1566.31	0.0005335
1577.88	0.0005179
1589.45	0.0004799
1601.03	0.000442
1612.6	0.0004378
1624.18	0.0004114
1635.75	0.0004277
1647.32	0.0004006
1658.9	0.0004059
1670.47	0.0004329
1682.05	0.0004915
1693.62	0.000579
1705.19	0.0005893
1716.77	0.0005608
1728.34	0.0004502
1739.92	0.0004417
1751.49	0.0004214
1763.06	0.0003479
1774.64	0.0002597
1786.21	0.0002328
1797.79	0.0002906
1809.36	0.0003128
1820.93	0.000309
1832.51	0.0003048
1844.08	0.0003477
1855.66	0.0003742
1867.23	0.0004118
1878.8	0.0003842
1890.38	0.0003662
1901.95	0.0003512
1913.53	0.0002917
1925.1	0.0002691
1936.67	0.0002764
1948.25	0.0002696
1959.82	0.0002695
1971.4	0.0002895
1982.97	0.0002954
1994.54	0.000359
2006.12	0.0003877
2017.69	0.0004403
2029.27	0.0004109
2040.84	0.0003713
2052.41	0.000372
2063.99	0.0003482
2075.56	0.0003487
2087.14	0.0003181
2098.71	0.0003051
2110.28	0.0003072
2121.86	0.0003433
2133.43	0.0003604
2145.01	0.000326
2156.58	0.000313
2168.15	0.0003085
2179.73	0.0002532
2191.3	0.0002223
2202.88	0.000161
2214.45	0.0001796
2226.02	0.0001648
2237.6	0.0001395
2249.17	0.0001144
2260.74	0.0001026
2272.32	0.0001577
2283.89	0.0002091
2295.47	0.000219
2307.04	0.0001652
2318.61	0.0001623
2330.19	0.0001917
2341.76	0.0001853
2353.34	0.0001688
2364.91	0.0001583
2376.48	0.0001034
2388.06	9.274e-05
2399.63	0.0001217
2411.21	0.0001385
2422.78	0.0001004
2434.35	8.659e-05
2445.93	9.654e-05
2457.5	7.008e-05
2469.08	5.952e-05
2480.65	4.867e-05
2492.22	3.874e-05
2503.8	9.754e-05
2515.37	6.913e-05
2526.95	7.469e-05
2538.52	0.0001206
2550.09	0.0001944
2561.67	0.0002061
2573.24	0.0002511
2584.82	0.0002919
2596.39	0.0003606
2607.96	0.0003776
2619.54	0.0003909
2631.11	0.0004098
2642.69	0.0004101
2654.26	0.0004553
2665.83	0.0005033
2677.41	0.000544
2688.98	0.0005587
2700.56	0.0005354
2712.13	0.0006069
2723.7	0.0006783
2735.28	0.0007835
2746.85	0.0009206
2758.43	0.00102
2770	0.00111
2781.57	0.00121
2793.15	0.0014
2804.72	0.00158
2816.3	0.00192
2827.87	0.00249
2839.44	0.00355
2851.02	0.00554
2862.59	0.00956
2874.17	0.01604
2885.74	0.02185
2897.31	0.02176
2908.89	0.01809
2920.46	0.01789
2932.04	0.0222
2943.61	0.02567
2955.18	0.0221
2966.76	0.01573
2978.33	0.01738
2989.91	0.02784
3001.48	0.02499
3013.05	0.00944
3024.63	0.0028
3036.2	0.0016
3047.78	0.00107
3059.35	0.000828
3070.92	0.0006618
3082.5	0.0005732
3094.07	0.0005132
3105.65	0.0005381
3117.22	0.0005158
3128.79	0.000443
3140.37	0.0004143
3151.94	0.0003604
3163.52	0.0003771
3175.09	0.0003609
3186.66	0.0003464
3198.24	0.0003491
3209.81	0.0002871
3221.39	0.0002913
3232.96	0.000219
3244.53	0.0001419
3256.11	8.799e-05
3267.68	8.527e-05
3279.26	0.0001246
3290.83	0.0001222
3302.4	9.638e-05
3313.98	0.0001474
3325.55	0.0001601
3337.13	0.000136
3348.7	9.05e-05
3360.27	0.0001367
3371.85	6.178e-05
3383.42	0.0001132
3395	0.0001053
3406.57	9.179e-05
3418.14	0.0001523
3429.72	0.0001452
3441.29	6.221e-05
3452.86	9.98e-05
3464.44	0.0001651
3476.01	0.0001985
3487.59	0.0002177
3499.16	0.000267
3510.73	0.0001937
3522.31	0.000296
3533.88	0.0002946
3545.46	0.0002919
3557.03	0.0003249
3568.6	0.0004216
3580.18	0.0005128
3591.75	0.0006934
3603.33	0.00136
3614.9	0.00325
3626.47	0.00482
3638.05	0.0041
3649.62	0.00279
3661.2	0.00271
3672.77	0.00308
3684.34	0.00228
3695.92	0.00109
3707.49	0.0005513
3719.07	0.0004013
3730.64	0.0003999
3742.21	0.0003897
3753.79	0.0003156
3765.36	0.0001962
3776.94	0.0002068
3788.51	0.0001906
3800.08	0.0001309
3811.66	0.0001002
3823.23	0.0001384
3834.81	6.665e-05
3846.38	0.0001437
3857.95	0.0002285
3869.53	0.0002781
3881.1	0.0001681
3892.68	0.0001944
3904.25	0.0002383
3915.82	0.0002285
3927.4	0.0002383
3938.97	0.0002291
3950.55	0.0003613
3962.12	0.0002958
3973.69	0.0003144
3985.27	0.0003035
3996.84	0.0002851
