Infrared Spectrum: 2-Norbornanecarbonitrile
Formula: C8 H11 N
CAS: 2234-26-6
State: SOLUTION (10% CCl4 FOR 3800-1330, 10% CS2 FOR 1330-400, 2% CCl4 FOR 3200-2700 CM^-^1)
Melting point: 44 C
Class: COBLENTZ III
Instrument: DOW KBr FOREPRISM-GRATING
Instrument parameters: BLAZED AT 3.5, 12.0, 20.0 MICRON AND CHANGED AT 5.0, 7.5, 14.9 MICRON
Sampling: TRANSMISSION
Path length: 0.010 CM, 0.011 CM, 0.010 CM
Resolution: 2
Origin: DOW CHEMICAL COMPANY
1/CM	TRANSMITTANCE
3784	0.875
3775	0.8754
3766	0.8759
3757	0.8763
3748	0.8761
3739	0.8759
3730	0.8757
3721	0.8755
3712	0.8755
3703	0.8762
3694	0.8785
3685	0.8767
3676	0.8771
3667	0.8793
3658	0.8789
3649	0.8814
3640	0.8832
3631	0.8841
3622	0.884
3613	0.8833
3604	0.8799
3595	0.8846
3586	0.8844
3577	0.8686
3568	0.8782
3559	0.8761
3550	0.8788
3541	0.8804
3532	0.8812
3523	0.8803
3514	0.8792
3505	0.879
3496	0.8808
3487	0.8821
3478	0.8831
3469	0.8835
3460	0.8838
3451	0.8838
3442	0.8838
3433	0.8832
3424	0.8821
3415	0.8808
3406	0.8797
3397	0.8788
3388	0.8797
3379	0.8808
3370	0.8818
3361	0.8818
3352	0.8798
3343	0.8787
3334	0.8784
3325	0.8786
3316	0.8775
3307	0.8763
3298	0.8754
3289	0.8757
3280	0.8762
3271	0.8766
3262	0.8771
3253	0.8742
3244	0.8695
3235	0.8737
3226	0.8756
3217	0.8715
3208	0.8748
3199	0.8762
3190	0.8758
3181	0.8742
3172	0.8732
3163	0.8724
3154	0.8762
3145	0.8775
3136	0.8754
3127	0.8747
3118	0.8758
3109	0.8768
3100	0.877
3091	0.8753
3082	0.8731
3073	0.8701
3064	0.8668
3055	0.8618
3046	0.8558
3037	0.8478
3028	0.8365
3019	0.8126
3010	0.7662
3001	0.6811
2992	0.5189
2983	0.1812
2974	0.0187
2965	0.0005
2956	0.0023
2947	0.0786
2938	0.2785
2929	0.3016
2920	0.296
2911	0.3566
2902	0.5067
2893	0.6047
2884	0.2844
2875	0.0892
2866	0.3326
2857	0.6817
2848	0.7564
2839	0.8007
2830	0.8293
2821	0.8453
2812	0.854
2803	0.8586
2794	0.8614
2785	0.8625
2776	0.8564
2767	0.8537
2758	0.8552
2749	0.8577
2740	0.8618
2731	0.8675
2722	0.8692
2713	0.8695
2704	0.8697
2695	0.8699
2686	0.8703
2677	0.8706
2668	0.8709
2659	0.8711
2650	0.8714
2641	0.8717
2632	0.872
2623	0.8721
2614	0.8721
2605	0.8721
2596	0.8687
2587	0.8665
2578	0.8648
2569	0.8638
2560	0.8636
2551	0.8641
2542	0.8651
2533	0.8664
2524	0.8685
2515	0.8692
2506	0.8694
2497	0.8692
2488	0.869
2479	0.8686
2470	0.8686
2461	0.8687
2452	0.8681
2443	0.8673
2434	0.8662
2425	0.865
2416	0.8638
2407	0.8627
2398	0.8624
2389	0.8625
2380	0.8638
2371	0.8666
2362	0.87
2353	0.8773
2344	0.8824
2335	0.8832
2326	0.8825
2317	0.8663
2308	0.8573
2299	0.8703
2290	0.8567
2281	0.853
2272	0.8492
2263	0.8384
2254	0.8251
2245	0.5874
2236	0.3018
2227	0.7996
2218	0.8341
2209	0.8517
2200	0.8594
2191	0.8565
2182	0.8542
2173	0.8627
2164	0.8656
2155	0.8675
2146	0.8692
2137	0.87
2128	0.8706
2119	0.8706
2110	0.8697
2101	0.8678
2092	0.8684
2083	0.8704
2074	0.871
2065	0.8713
2056	0.8718
2047	0.8725
2038	0.8736
2029	0.8749
2020	0.8766
2011	0.8778
2002	0.8744
1993	0.8534
1984	0.8567
1975	0.8621
1966	0.8623
1957	0.8598
1948	0.8614
1939	0.8646
1930	0.8631
1921	0.8618
1912	0.862
1903	0.8621
1894	0.8647
1885	0.8633
1876	0.8649
1867	0.8637
1858	0.8667
1849	0.8666
1840	0.8648
1831	0.8651
1822	0.8662
1813	0.8668
1804	0.8675
1795	0.868
1786	0.87
1777	0.873
1768	0.8752
1759	0.8762
1750	0.8768
1741	0.877
1732	0.8749
1723	0.876
1714	0.8738
1705	0.8725
1696	0.8708
1687	0.8698
1678	0.8708
1669	0.8721
1660	0.8703
1651	0.8687
1642	0.8668
1633	0.8644
1624	0.8617
1615	0.8596
1606	0.8599
1597	0.8663
1588	0.8749
1579	0.8775
1570	0.8775
1561	0.8868
1552	0.9031
1543	0.8999
1534	0.8818
1525	0.8713
1516	0.862
1507	0.8513
1498	0.8395
1489	0.8221
1480	0.7562
1471	0.754
1462	0.339
1453	0.5073
1444	0.774
1435	0.8139
1426	0.8291
1417	0.8404
1408	0.8487
1399	0.8542
1390	0.8633
1381	0.8631
1372	0.8638
1363	0.8585
1354	0.8515
1345	0.8414
1336	0.8046
1327	0.641
1318	0.5105
1309	0.5372
1300	0.5942
1291	0.7576
1282	0.7747
1273	0.7524
1264	0.761
1255	0.6861
1246	0.6241
1237	0.7438
1228	0.7833
1219	0.7842
1210	0.7174
1201	0.7436
1192	0.7894
1183	0.7932
1174	0.7053
1165	0.7718
1156	0.7587
1147	0.7507
1138	0.7389
1129	0.7648
1120	0.749
1111	0.7572
1102	0.7965
1093	0.8183
1084	0.8256
1075	0.8198
1066	0.7989
1057	0.8339
1048	0.8143
1039	0.8334
1030	0.8464
1021	0.8463
1012	0.8337
1003	0.8367
994	0.8468
985	0.809
976	0.8531
967	0.8528
958	0.8353
949	0.8161
940	0.7884
931	0.8104
922	0.7591
913	0.8397
904	0.8803
895	0.8871
886	0.8801
877	0.7967
868	0.8596
859	0.8662
850	0.8069
841	0.8305
832	0.6994
823	0.8291
814	0.8381
805	0.8468
796	0.733
787	0.8521
778	0.863
769	0.8497
760	0.826
751	0.8708
742	0.8725
733	0.8795
724	0.8791
715	0.8739
706	0.8707
697	0.8846
688	0.8901
679	0.8937
670	0.8981
661	0.8946
652	0.8655
643	0.8898
634	0.8999
625	0.8982
616	0.8895
607	0.8763
598	0.8808
589	0.8832
580	0.8839
571	0.8828
562	0.8738
553	0.8757
544	0.8632
535	0.8766
526	0.8816
517	0.8843
508	0.8881
499	0.8913
490	0.893
481	0.8736
472	0.8778
463	0.8806
454	0.8824
445	0.885
436	0.8875
427	0.8904
418	0.894
409	0.8968
400	0.8996
391	0.9034
