Infrared Spectrum: 1,2,4-Trimethylcyclohexane
Formula: C 9 H 18
CAS: 2234-75-5
State: gas
Instrument: HP-GC/MS/IRD
Origin: NIST Mass Spectrometry Data Center
1/CM	ABSORBANCE
550	0.0004662
562	0.0002142
574	0.0002268
586	0.0002814
598	0.0001428
610	0.0002016
622	0.0001092
634	0.0002436
646	0.0002898
658	0.000357
670	0.0001134
682	3.36e-05
694	7.98e-05
706	6.3e-05
718	0.000126
730	0.0001218
742	0.0001554
754	7.14e-05
766	0.000105
778	0.0001176
790	6.72e-05
802	7.14e-05
814	0.0001092
826	8.4e-05
838	0.00021
850	0.0001722
862	0.0001428
874	7.98e-05
886	9.66e-05
898	0.0001134
910	0.0002226
922	0.0003234
934	0.0004326
946	0.0004074
958	0.000294
970	0.0003318
982	0.0004284
994	0.0005712
1006	0.000609
1018	0.0005418
1030	0.0005208
1042	0.0004116
1054	0.0002436
1066	0.0001638
1078	0.0002016
1090	0.0003444
1102	0.0004494
1114	0.0003066
1126	0.0001722
1138	0.0001806
1150	0.0002394
1162	0.000378
1174	0.0004242
1186	0.0004158
1198	0.0003444
1210	0.0002604
1222	0.0002898
1234	0.000294
1246	0.000294
1258	0.0003276
1270	0.0003738
1282	0.0004914
1294	0.0007182
1306	0.000714
1318	0.0004998
1330	0.0004956
1342	0.0007056
1354	0.0010878
1366	0.0024108
1378	0.0042336
1390	0.0032424
1402	0.001071
1414	0.0005586
1426	0.0009786
1438	0.002373
1450	0.004683
1462	0.005565
1474	0.0036876
1486	0.0014448
1498	0.000546
1510	0.000294
1522	0.0002058
1534	0.0001638
1546	0.0001428
1558	0.0001638
1570	0.0001764
1582	0.0001848
1594	0.0001848
1606	0.000189
1618	0.0001806
1630	0.0001512
1642	0.0001596
1654	0.000168
1666	0.000126
1678	0.0001176
1690	0.0001008
1702	9.24e-05
1714	8.82e-05
1726	6.3e-05
1738	6.3e-05
1750	7.56e-05
1762	5.04e-05
1774	6.3e-05
1786	5.04e-05
1798	5.04e-05
1810	4.2e-05
1822	4.62e-05
1834	4.2e-05
1846	3.36e-05
1858	4.62e-05
1870	3.36e-05
1882	3.36e-05
1894	2.1e-05
1906	3.78e-05
1918	1.26e-05
1930	2.52e-05
1942	1.68e-05
1954	4.2e-06
1966	2.1e-05
1978	2.1e-05
1990	1.68e-05
2002	0
2014	2.1e-05
2026	2.52e-05
2038	1.68e-05
2050	3.78e-05
2062	4.2e-06
2074	4.2e-06
2086	1.26e-05
2098	3.78e-05
2110	2.94e-05
2122	2.52e-05
2134	2.52e-05
2146	2.52e-05
2158	2.52e-05
2170	3.36e-05
2182	2.1e-05
2194	1.68e-05
2206	2.94e-05
2218	2.1e-05
2230	2.52e-05
2242	8.4e-06
2254	2.52e-05
2266	2.94e-05
2278	4.62e-05
2290	4.62e-05
2302	5.04e-05
2314	3.78e-05
2326	7.14e-05
2338	5.88e-05
2350	5.88e-05
2362	9.24e-05
2374	7.14e-05
2386	0.0001008
2398	7.56e-05
2410	7.14e-05
2422	0.0001008
2434	7.56e-05
2446	6.72e-05
2458	0.000105
2470	8.4e-05
2482	9.24e-05
2494	6.72e-05
2506	8.82e-05
2518	0.000126
2530	0.0001302
2542	0.0001386
2554	0.0001386
2566	0.000189
2578	0.0002394
2590	0.0003192
2602	0.000399
2614	0.0004158
2626	0.0004326
2638	0.0004578
2650	0.0004704
2662	0.0005166
2674	0.0005712
2686	0.0005334
2698	0.0005082
2710	0.0005208
2722	0.0006048
2734	0.0007098
2746	0.0006846
2758	0.0006384
2770	0.0006804
2782	0.0008022
2794	0.000966
2806	0.0012432
2818	0.001659
2830	0.002583
2842	0.0056574
2854	0.0110964
2866	0.0149478
2878	0.0192108
2890	0.023205
2902	0.0279426
2914	0.0362124
2926	0.0401814
2938	0.0296814
2950	0.024759
2962	0.0279216
2974	0.0219744
2986	0.009492
2998	0.0027888
3010	0.0013734
3022	0.0010542
3034	0.0009114
3046	0.000924
3058	0.0008736
3070	0.0008526
3082	0.0008274
3094	0.000756
3106	0.0006972
3118	0.0006552
3130	0.0005628
3142	0.000546
3154	0.0005124
3166	0.0004284
3178	0.0003024
3190	0.0002016
3202	0.0001302
3214	8.4e-05
3226	9.24e-05
3238	0.000126
3250	0.0001092
3262	0.000126
3274	8.82e-05
3286	0.000126
3298	0.0001134
3310	0.0001092
3322	7.98e-05
3334	8.82e-05
3346	5.46e-05
3358	7.14e-05
3370	8.82e-05
3382	8.82e-05
3394	4.2e-05
3406	7.56e-05
3418	3.78e-05
3430	2.94e-05
3442	2.1e-05
3454	4.62e-05
3466	2.52e-05
3478	4.2e-05
3490	3.36e-05
3502	1.26e-05
3514	2.52e-05
3526	6.72e-05
3538	6.72e-05
3550	6.72e-05
3562	7.56e-05
3574	9.24e-05
3586	4.2e-05
3598	2.94e-05
3610	7.56e-05
3622	7.14e-05
3634	7.56e-05
3646	9.66e-05
3658	0.0001008
3670	0.000105
3682	0.0001134
3694	0.000105
3706	0.000147
3718	0.0001134
3730	0.0001302
3742	0.0001386
3754	0.0001596
3766	0.0001344
3778	0.0001218
3790	0.0001176
3802	0.000168
3814	0.000126
3826	0.000147
3838	0.000189
