Infrared Spectrum: 2',4',6'-Triisopropylacetophenone
Formula: C 17 H 26 O
CAS: 2234-14-2
State: gas
Origin: EPA-IR VAPOR PHASE LIBRARY
1/CM	ABSORBANCE
549.8	0.004338
559.445	0.008488
569.09	0.020808
578.734	0.020768
588.379	0.008888
598.024	0.005088
607.669	0.003298
617.313	0.002608
626.958	0.002368
636.603	0.003988
646.248	0.009858
655.893	0.011268
665.537	0.005718
675.182	0.006338
684.827	0.003158
694.472	0.001358
704.116	0.0010238
713.761	0.0012188
723.406	0.0010783
733.051	0.0010654
742.695	0.0012326
752.34	0.001268
761.985	0.002278
771.63	0.007558
781.275	0.005828
790.919	0.001468
800.564	0.001488
810.209	0.002838
819.854	0.002528
829.498	0.002578
839.143	0.003358
848.788	0.001708
858.433	0.002408
868.078	0.011938
877.722	0.031848
887.367	0.009188
897.012	0.003788
906.657	0.004328
916.301	0.007548
925.946	0.014898
935.591	0.023118
945.236	0.022908
954.88	0.028188
964.525	0.024538
974.17	0.012318
983.815	0.007918
993.46	0.006948
1003.1	0.007468
1012.75	0.008108
1022.39	0.007658
1032.04	0.007598
1041.68	0.010648
1051.33	0.015828
1060.97	0.028358
1070.62	0.022758
1080.26	0.013908
1089.91	0.016218
1099.55	0.022138
1109.2	0.016088
1118.84	0.013518
1128.49	0.013168
1138.13	0.011268
1147.78	0.012758
1157.42	0.013348
1167.07	0.016218
1176.71	0.011778
1186.36	0.008268
1196	0.007968
1205.64	0.009208
1215.29	0.015158
1224.93	0.041128
1234.58	0.084718
1244.22	0.076098
1253.87	0.036918
1263.51	0.027658
1273.16	0.028008
1282.8	0.017938
1292.45	0.013178
1302.09	0.014868
1311.74	0.019468
1321.38	0.017648
1331.03	0.019058
1340.67	0.031158
1350.32	0.065858
1359.96	0.073858
1369.61	0.063498
1379.25	0.029818
1388.9	0.038158
1398.54	0.023938
1408.18	0.024318
1417.83	0.031538
1427.47	0.033758
1437.12	0.024048
1446.76	0.026648
1456.41	0.040068
1466.05	0.056028
1475.7	0.036368
1485.34	0.016208
1494.99	0.011578
1504.63	0.009838
1514.28	0.009178
1523.92	0.009358
1533.57	0.010178
1543.21	0.010778
1552.86	0.012898
1562.5	0.021928
1572.15	0.019918
1581.79	0.013358
1591.44	0.023828
1601.08	0.049098
1610.73	0.037078
1620.37	0.014088
1630.01	0.009308
1639.66	0.009138
1649.3	0.009658
1658.95	0.009858
1668.59	0.011398
1678.24	0.013218
1687.88	0.026988
1697.53	0.093938
1707.17	0.193868
1716.82	0.089288
1726.46	0.030248
1736.11	0.019678
1745.75	0.013718
1755.4	0.012678
1765.04	0.012048
1774.69	0.007378
1784.33	0.004598
1793.98	0.002978
1803.62	0.002378
1813.27	0.002058
1822.91	0.001848
1832.55	0.001638
1842.2	0.001458
1851.84	0.001408
1861.49	0.001488
1871.13	0.001568
1880.78	0.001398
1890.42	0.001338
1900.07	0.001428
1909.71	0.001388
1919.36	0.001318
1929	0.0011282
1938.65	0.0009689
1948.29	0.0009392
1957.94	0.000886
1967.58	0.0008596
1977.23	0.000936
1986.87	0.0009686
1996.52	0.0008574
2006.16	0.0009157
2015.81	0.0009957
2025.45	0.000945
2035.1	0.0008602
2044.74	0.0007135
2054.38	0.0006437
2064.03	0.0006585
2073.67	0.0005129
2083.32	0.0005128
2092.96	0.0004235
2102.61	0.0004782
2112.25	0.000593
2121.9	0.0005968
2131.54	0.0006594
2141.19	0.0006368
2150.83	0.0005521
2160.48	0.0006349
2170.12	0.0006325
2179.77	0.0008805
2189.41	0.0008261
2199.06	0.0009988
2208.7	0.000876
2218.35	0.000835
2227.99	0.000917
2237.64	0.0008159
2247.28	0.0009504
2256.92	0.0008758
2266.57	0.0008588
2276.21	0.0007726
2285.86	0.0010313
2295.5	0.00119
2305.15	0.0010888
2314.79	0.0011204
2324.44	0.0009367
2334.08	0.0007762
2343.73	0.0008105
2353.37	0.000868
2363.02	0.0010184
2372.66	0.0011446
2382.31	0.001358
2391.95	0.001398
2401.6	0.001298
2411.24	0.0011453
2420.89	0.0010548
2430.53	0.0009464
2440.18	0.0009544
2449.82	0.0011594
2459.47	0.001478
2469.11	0.001678
2478.75	0.001488
2488.4	0.001378
2498.04	0.0011139
2507.69	0.0011228
2517.33	0.0010981
2526.98	0.0010758
2536.62	0.001258
2546.27	0.0012195
2555.91	0.001468
2565.56	0.001738
2575.2	0.002098
2584.85	0.002428
2594.49	0.002468
2604.14	0.002278
2613.78	0.002078
2623.43	0.002148
2633.07	0.001968
2642.72	0.002098
2652.36	0.002108
2662.01	0.002228
2671.65	0.002198
2681.29	0.002208
2690.94	0.002168
2700.58	0.002498
2710.23	0.002988
2719.87	0.004378
2729.52	0.005498
2739.16	0.005138
2748.81	0.004538
2758.45	0.004998
2768.1	0.005848
2777.74	0.005438
2787.39	0.005618
2797.03	0.006638
2806.68	0.007908
2816.32	0.009318
2825.97	0.010338
2835.61	0.012448
2845.26	0.016518
2854.9	0.024248
2864.55	0.040578
2874.19	0.084328
2883.84	0.105478
2893.48	0.080798
2903.12	0.083908
2912.77	0.092858
2922.41	0.103228
2932.06	0.142118
2941.7	0.153598
2951.35	0.131668
2960.99	0.292058
2970.64	0.446658
2980.28	0.183488
2989.93	0.075018
2999.57	0.044838
3009.22	0.032358
3018.86	0.024878
3028.51	0.021478
3038.15	0.019338
3047.8	0.020098
3057.44	0.021088
3067.09	0.017628
3076.73	0.013628
3086.38	0.010568
3096.02	0.009258
3105.67	0.007978
3115.31	0.006928
3124.95	0.006308
3134.6	0.005528
3144.24	0.005028
3153.89	0.004858
3163.53	0.004838
3173.18	0.004988
3182.82	0.004958
3192.47	0.005038
3202.11	0.004688
3211.76	0.004288
3221.4	0.003408
3231.05	0.002638
3240.69	0.002048
3250.34	0.001528
3259.98	0.001358
3269.63	0.001163
3279.27	0.0011554
3288.92	0.0010936
3298.56	0.0008435
3308.21	0.0009725
3317.85	0.0010246
3327.49	0.001448
3337.14	0.001258
3346.78	0.0012132
3356.43	0.0008984
3366.07	0.0012185
3375.72	0.001478
3385.36	0.002498
3395.01	0.003588
3404.65	0.002848
3414.3	0.001738
3423.94	0.001288
3433.59	0.0011583
3443.23	0.000955
3452.88	0.0008109
3462.52	0.0005297
3472.17	0.0007171
3481.81	0.0007419
3491.46	0.0006351
3501.1	0.0006674
3510.75	0.0004968
3520.39	0.0004603
3530.04	0.0004766
3539.68	0.0005508
3549.32	0.000575
3558.97	0.0003577
3568.61	0.00030896
3578.26	0.0003782
3587.9	0.00028553
3597.55	0.0005873
3607.19	0.0003572
3616.84	0.0004309
3626.48	0.0004338
3636.13	0.000413
3645.77	0.0001518
3655.42	0.0003774
3665.06	0.000247853
3674.71	0
3684.35	0.00026079
3694	0.0003524
3703.64	0.000250455
3713.29	0.000187
3722.93	0.00032135
3732.58	0.00025807
3742.22	0.00028852
3751.86	0.0005086
3761.51	0.0001951
3771.15	0.0003597
3780.8	0.0003576
3790.44	0.00032965
3800.09	0.0004989
3809.73	0.0008187
3819.38	0.0007806
3829.02	0.0007928
3838.67	0.0008036
3848.31	0.0009207
3857.96	0.0008045
3867.6	0.0008894
3877.25	0.0009115
3886.89	0.0012058
3896.54	0.0007914
3906.18	0.0010236
3915.83	0.0005554
3925.47	0.0006822
3935.12	0.0005121
3944.76	0.0008587
3954.41	0.000684
3964.05	0.0007365
3973.69	0.0008281
3983.34	0.0012052
3992.98	0.0010667
