Infrared Spectrum: Tri-n-propylphosphine
Formula: C 9 H 21 P
CAS: 2234-97-1
State: gas
Origin: EPA-IR VAPOR PHASE LIBRARY
1/CM	ABSORBANCE
549.8	0.0019442
559.445	0.0024686
569.09	0.001051
578.734	0.00235
588.379	0.001706
598.024	0.00315
607.669	0.001836
617.313	0.0026292
626.958	0.00506
636.603	0.00601
646.248	0.00634
655.893	0.00657
665.537	0.005
675.182	0.00418
684.827	0.00499
694.472	0.00556
704.116	0.00731
713.761	0.00903
723.406	0.0114
733.051	0.00957
742.695	0.00975
752.34	0.0084
761.985	0.00677
771.63	0.00546
781.275	0.00558
790.919	0.0047
800.564	0.00451
810.209	0.00383
819.854	0.00479
829.498	0.00589
839.143	0.00519
848.788	0.00465
858.433	0.00321
868.078	0.001757
877.722	0.0022314
887.367	0.0022921
897.012	0.001932
906.657	0.0019
916.301	0.001576
925.946	0.001751
935.591	0.001885
945.236	0.0019963
954.88	0.0022241
964.525	0.0021401
974.17	0.00256
983.815	0.002571
993.46	0.001678
1003.1	0.00427
1012.75	0.00545
1022.39	0.00725
1032.04	0.00795
1041.68	0.00987
1051.33	0.00836
1060.97	0.01034
1070.62	0.01342
1080.26	0.01214
1089.91	0.00872
1099.55	0.00405
1109.2	0.001357
1118.84	0.00075
1128.49	0.002665
1138.13	0.00037
1147.78	0.00309
1157.42	0.001892
1167.07	0.0030027
1176.71	0.001715
1186.36	0.00402
1196	0.00478
1205.64	0.00397
1215.29	0.00591
1224.93	0.00564
1234.58	0.002951
1244.22	0.00343
1253.87	0.0027275
1263.51	0.00324
1273.16	0.00347
1282.8	0.00379
1292.45	0.00388
1302.09	0.00406
1311.74	0.00452
1321.38	0.00545
1331.03	0.009
1340.67	0.00937
1350.32	0.00575
1359.96	0.00487
1369.61	0.00692
1379.25	0.01154
1388.9	0.01113
1398.54	0.00839
1408.18	0.00985
1417.83	0.01263
1427.47	0.01187
1437.12	0.01039
1446.76	0.01233
1456.41	0.01784
1466.05	0.01948
1475.7	0.01315
1485.34	0.00703
1494.99	0.00495
1504.63	0.0044
1514.28	0.0036
1523.92	0.00318
1533.57	0.00335
1543.21	0.0027438
1552.86	0.0027249
1562.5	0.002647
1572.15	0.0025513
1581.79	0.00213563
1591.44	0.0021825
1601.08	0.0021747
1610.73	0.0020316
1620.37	0.002025
1630.01	0.0025084
1639.66	0.001909
1649.3	0.002011
1658.95	0.001914
1668.59	0.001807
1678.24	0.0022087
1687.88	0.001747
1697.53	0.001848
1707.17	0.00206732
1716.82	0.00151
1726.46	0.0019536
1736.11	0.001781
1745.75	0.00176
1755.4	0.001904
1765.04	0.00179
1774.69	0.001561
1784.33	0.001719
1793.98	0.001672
1803.62	0.001812
1813.27	0.001833
1822.91	0.001745
1832.55	0.001772
1842.2	0.0019802
1851.84	0.001696
1861.49	0.001833
1871.13	0.0019898
1880.78	0.0020244
1890.42	0.00204898
1900.07	0.001824
1909.71	0.00213973
1919.36	0.001909
1929	0.00212933
1938.65	0.001875
1948.29	0.001554
1957.94	0.001814
1967.58	0.001799
1977.23	0.002008
1986.87	0.001905
1996.52	0.001739
2006.16	0.001835
2015.81	0.001953
2025.45	0.0019656
2035.1	0.0019539
2044.74	0.001898
2054.38	0.001898
2064.03	0.001688
2073.67	0.0020089
2083.32	0.0019595
2092.96	0.0019655
2102.61	0.001918
2112.25	0.00206477
2121.9	0.00181
2131.54	0.001813
2141.19	0.001913
2150.83	0.00182
2160.48	0.001769
2170.12	0.001926
2179.77	0.001663
2189.41	0.001863
2199.06	0.0019736
2208.7	0.00205077
2218.35	0.0021482
2227.99	0.001681
2237.64	0.001616
2247.28	0.001694
2256.92	0.001912
2266.57	0.0019546
2276.21	0.001757
2285.86	0.001554
2295.5	0.001808
2305.15	0.001649
2314.79	0.00152
2324.44	0.001734
2334.08	0.0020088
2343.73	0.00207907
2353.37	0.001857
2363.02	0.001753
2372.66	0.001824
2382.31	0.001911
2391.95	0.001588
2401.6	0.00175
2411.24	0.0021486
2420.89	0.0019661
2430.53	0.0020227
2440.18	0.0022195
2449.82	0.0019881
2459.47	0.001924
2469.11	0.00189
2478.75	0.001727
2488.4	0.00205555
2498.04	0.0020054
2507.69	0.0019884
2517.33	0.001702
2526.98	0.001898
2536.62	0.0024281
2546.27	0.001751
2555.91	0.0021774
2565.56	0.0019678
2575.2	0.001891
2584.85	0.0021757
2594.49	0.0023011
2604.14	0.002529
2613.78	0.0027464
2623.43	0.0033
2633.07	0.00341
2642.72	0.00309
2652.36	0.0029605
2662.01	0.0026772
2671.65	0.0026144
2681.29	0.0025431
2690.94	0.0025744
2700.58	0.0028391
2710.23	0.0030012
2719.87	0.0028461
2729.52	0.00371
2739.16	0.00503
2748.81	0.00456
2758.45	0.00445
2768.1	0.00488
2777.74	0.00572
2787.39	0.00663
2797.03	0.00963
2806.68	0.01185
2816.32	0.01426
2825.97	0.01388
2835.61	0.01374
2845.26	0.0165
2854.9	0.0225
2864.55	0.03984
2874.19	0.07339
2883.84	0.09447
2893.48	0.08104
2903.12	0.06855
2912.77	0.07662
2922.41	0.09172
2932.06	0.11171
2941.7	0.10997
2951.35	0.09328
2960.99	0.13797
2970.64	0.14437
2980.28	0.0673
2989.93	0.02901
2999.57	0.0196
3009.22	0.01549
3018.86	0.01211
3028.51	0.01059
3038.15	0.00891
3047.8	0.00786
3057.44	0.00685
3067.09	0.00578
3076.73	0.00508
3086.38	0.0051
3096.02	0.00485
3105.67	0.0041
3115.31	0.00413
3124.95	0.00416
3134.6	0.00364
3144.24	0.00371
3153.89	0.00324
3163.53	0.00397
3173.18	0.00321
3182.82	0.00358
3192.47	0.0027844
3202.11	0.00186
3211.76	0.0026507
3221.4	0.00312
3231.05	0.00361
3240.69	0.0024286
3250.34	0.001777
3259.98	0.0027374
3269.63	0.0023452
3279.27	0.002163
3288.92	0.00196
3298.56	0.001785
3308.21	0.001856
3317.85	0.0024304
3327.49	0.0020024
3337.14	0.001785
3346.78	0.0023164
3356.43	0.001058
3366.07	0.001729
3375.72	0.001645
3385.36	0.001784
3395.01	0.0022889
3404.65	0.001112
3414.3	0.001695
3423.94	0.00116
3433.59	0.0021569
3443.23	0.0019619
3452.88	0.001452
3462.52	0.001728
3472.17	0.001116
3481.81	0.001607
3491.46	0.001311
3501.1	0.00166
3510.75	0.001348
3520.39	0.0021484
3530.04	0.001731
3539.68	0.001436
3549.32	0.001638
3558.97	0.001984
3568.61	0.0026118
3578.26	0.001527
3587.9	0.00088
3597.55	0.00096
3607.19	0.001798
3616.84	0.00187
3626.48	0.0021689
3636.13	0.0021584
3645.77	0.001692
3655.42	0.002434
3665.06	0.0022442
3674.71	0.0019651
3684.35	0.00224
3694	0.0017
3703.64	0.001709
3713.29	0.001634
3722.93	0.0022614
3732.58	0.0026267
3742.22	0.0022368
3751.86	0.002223
3761.51	0.00211403
3771.15	0.0021543
3780.8	0.0026748
3790.44	0.0009
3800.09	0.001899
3809.73	0.001456
3819.38	0.001893
3829.02	0.001602
3838.67	0.001936
3848.31	0.001218
3857.96	0.001351
3867.6	0.001871
3877.25	0.001948
3886.89	0.001801
3896.54	0.001829
3906.18	0.001803
3915.83	0.0026892
3925.47	0.0023535
3935.12	0.0024033
3944.76	0.0024539
3954.41	0.001906
3964.05	0.0019767
3973.69	0.00151
3983.34	0.0025813
3992.98	0.001732
