Infrared Spectrum: R-(+)-1,1-Diphenylprolinol
Formula: C 17 H 19 N O
CAS: 22348-32-9
State: gas
Origin: EPA-IR VAPOR PHASE LIBRARY
1/CM	ABSORBANCE
549.8	0.00531
559.445	0.00616
569.09	0.007
578.734	0.00909
588.379	0.0111
598.024	0.0112
607.669	0.01141
617.313	0.01082
626.958	0.01488
636.603	0.02213
646.248	0.01305
655.893	0.01737
665.537	0.01593
675.182	0.01344
684.827	0.01731
694.472	0.05086
704.116	0.05467
713.761	0.01837
723.406	0.01181
733.051	0.01373
742.695	0.02608
752.34	0.02564
761.985	0.01778
771.63	0.01224
781.275	0.009
790.919	0.00795
800.564	0.00781
810.209	0.00723
819.854	0.00905
829.498	0.00711
839.143	0.00627
848.788	0.00745
858.433	0.00797
868.078	0.00946
877.722	0.01115
887.367	0.01266
897.012	0.01115
906.657	0.01011
916.301	0.0087
925.946	0.00746
935.591	0.00528
945.236	0.00516
954.88	0.00573
964.525	0.00588
974.17	0.00771
983.815	0.01043
993.46	0.0131
1003.1	0.01269
1012.75	0.00982
1022.39	0.01135
1032.04	0.01662
1041.68	0.01094
1051.33	0.00908
1060.97	0.01142
1070.62	0.01296
1080.26	0.0103
1089.91	0.01145
1099.55	0.01766
1109.2	0.01431
1118.84	0.00975
1128.49	0.01001
1138.13	0.00703
1147.78	0.00557
1157.42	0.00896
1167.07	0.0159
1176.71	0.01855
1186.36	0.01817
1196	0.01207
1205.64	0.00764
1215.29	0.00717
1224.93	0.00401
1234.58	0.00732
1244.22	0.00854
1253.87	0.00814
1263.51	0.01048
1273.16	0.01208
1282.8	0.01203
1292.45	0.01213
1302.09	0.01136
1311.74	0.01157
1321.38	0.01183
1331.03	0.01161
1340.67	0.01088
1350.32	0.01031
1359.96	0.01171
1369.61	0.01409
1379.25	0.01424
1388.9	0.01521
1398.54	0.01771
1408.18	0.0123
1417.83	0.0086
1427.47	0.00739
1437.12	0.00975
1446.76	0.01892
1456.41	0.01339
1466.05	0.00838
1475.7	0.00821
1485.34	0.01265
1494.99	0.01651
1504.63	0.00729
1514.28	0.00349
1523.92	0.00255
1533.57	0.00254
1543.21	0.00247
1552.86	0.0018
1562.5	0.00181
1572.15	0.00256
1581.79	0.0042
1591.44	0.00723
1601.08	0.00794
1610.73	0.00328
1620.37	0.00206
1630.01	0.00174
1639.66	0.00165
1649.3	0.00159
1658.95	0.0018
1668.59	0.00168
1678.24	0.00154
1687.88	0.0011733
1697.53	0.00125
1707.17	0.0012077
1716.82	0.0012286
1726.46	0.000878
1736.11	0.000808
1745.75	0.00152
1755.4	0.0018
1765.04	0.00134
1774.69	0.00164
1784.33	0.00158
1793.98	0.00294
1803.62	0.00362
1813.27	0.0022
1822.91	0.00167
1832.55	0.0012019
1842.2	0.0011469
1851.84	0.00132
1861.49	0.00167
1871.13	0.00193
1880.78	0.00225
1890.42	0.00235
1900.07	0.00194
1909.71	0.00125
1919.36	0.00132
1929	0.00199
1938.65	0.00323
1948.29	0.00294
1957.94	0.00271
1967.58	0.00142
1977.23	0.000951
1986.87	0.0010085
1996.52	0.0006553
2006.16	0.0009703
2015.81	0.0007834
2025.45	0.0007347
2035.1	0.0010017
2044.74	0.0007787
2054.38	0.0007678
2064.03	0.0004498
2073.67	0.0007629
2083.32	0.0007158
2092.96	0.0006751
2102.61	0.0007036
2112.25	0.0008589
2121.9	0.0007066
2131.54	0.0007208
2141.19	0.0006598
2150.83	0.0008034
2160.48	0.0006701
2170.12	0.000645
2179.77	0.0006161
2189.41	0.0009777
2199.06	0.0006079
2208.7	0.0007447
2218.35	0.0006735
2227.99	0.0009307
2237.64	0.0005698
2247.28	0.0008592
2256.92	0.000524
2266.57	0.0009617
2276.21	0.0006519
2285.86	0.000939
2295.5	0.0007201
2305.15	0.0010197
2314.79	0.0009147
2324.44	0.0008386
2334.08	0.0009073
2343.73	0.0009034
2353.37	0.0010127
2363.02	0.0009552
2372.66	0.0007968
2382.31	0.0008788
2391.95	0.0008455
2401.6	0.0005837
2411.24	0.0005776
2420.89	0.0007148
2430.53	0.0010564
2440.18	0.0005397
2449.82	0.0010192
2459.47	0.0007609
2469.11	0.0007145
2478.75	0.0006677
2488.4	0.0006267
2498.04	0.00028515
2507.69	0.0008313
2517.33	0.0007647
2526.98	0.0007253
2536.62	0.0009748
2546.27	0.0007932
2555.91	0.0010306
2565.56	0.00126
2575.2	0.0011003
2584.85	0.0009434
2594.49	0.0010636
2604.14	0.0009956
2613.78	0.0012097
2623.43	0.0011382
2633.07	0.00146
2642.72	0.00149
2652.36	0.00142
2662.01	0.0013
2671.65	0.00151
2681.29	0.00131
2690.94	0.00145
2700.58	0.00161
2710.23	0.0010214
2719.87	0.00183
2729.52	0.00245
2739.16	0.00256
2748.81	0.00243
2758.45	0.00197
2768.1	0.00273
2777.74	0.00319
2787.39	0.0034
2797.03	0.00402
2806.68	0.00541
2816.32	0.00779
2825.97	0.01286
2835.61	0.01808
2845.26	0.01738
2854.9	0.0151
2864.55	0.01551
2874.19	0.02183
2883.84	0.02742
2893.48	0.02172
2903.12	0.01767
2912.77	0.01767
2922.41	0.01773
2932.06	0.01681
2941.7	0.01955
2951.35	0.02548
2960.99	0.03163
2970.64	0.03312
2980.28	0.03093
2989.93	0.01902
2999.57	0.00986
3009.22	0.00799
3018.86	0.01162
3028.51	0.01876
3038.15	0.0216
3047.8	0.01609
3057.44	0.02273
3067.09	0.03697
3076.73	0.02566
3086.38	0.01839
3096.02	0.01447
3105.67	0.00788
3115.31	0.0045
3124.95	0.00255
3134.6	0.00253
3144.24	0.00181
3153.89	0.00222
3163.53	0.00224
3173.18	0.0011397
3182.82	0.00128
3192.47	0.0010207
3202.11	0.00157
3211.76	0.0012201
3221.4	0.0007887
3231.05	0.00134
3240.69	0.00142
3250.34	0.00137
3259.98	0.0010948
3269.63	0.00151
3279.27	0.00161
3288.92	0.0022
3298.56	0.00133
3308.21	0.00194
3317.85	0.00293
3327.49	0.00266
3337.14	0.00307
3346.78	0.00356
3356.43	0.00394
3366.07	0.00425
3375.72	0.0046
3385.36	0.00493
3395.01	0.00419
3404.65	0.00406
3414.3	0.00503
3423.94	0.00562
3433.59	0.00748
3443.23	0.00947
3452.88	0.01099
3462.52	0.01028
3472.17	0.00901
3481.81	0.00711
3491.46	0.00616
3501.1	0.00546
3510.75	0.00438
3520.39	0.00401
3530.04	0.00274
3539.68	0.00243
3549.32	0.00287
3558.97	0.00229
3568.61	0.00166
3578.26	0.0010123
3587.9	0.00139
3597.55	0.00127
3607.19	0.0008087
3616.84	0.00169
3626.48	0.00199
3636.13	0.00231
3645.77	0.00156
3655.42	0.0010895
3665.06	0.00182
3674.71	0.0008599
3684.35	0.0005085
3694	0.0001334
3703.64	0.0009951
3713.29	0.00127
3722.93	0.0006405
3732.58	0.0008994
3742.22	0.000749
3751.86	0.0006033
3761.51	0.0006988
3771.15	0.000716
3780.8	0.0004777
3790.44	0.0009636
3800.09	0.0005565
3809.73	0.00132
3819.38	0.0004934
3829.02	0.0012282
3838.67	0.000489
3848.31	0.0006549
3857.96	0.0007196
3867.6	0.0010428
3877.25	0.0009702
3886.89	0.0005072
3896.54	0.00132
3906.18	0.0005876
3915.83	0.0004398
3925.47	0.0007498
3935.12	0.00146
3944.76	0.00031922
3954.41	0.0006792
3964.05	0.0011189
3973.69	0.0010775
3983.34	0.00147
3992.98	0.0009502
