Infrared Spectrum: 2,4-Dimethylstyrene
Formula: C 10 H 12
CAS: 2234-20-0
State: gas
Origin: EPA-IR VAPOR PHASE LIBRARY
1/CM	ABSORBANCE
549.8	0.01689
559.445	0.01587
569.09	0.01458
578.734	0.01193
588.379	0.00826
598.024	0.00666
607.669	0.00544
617.313	0.00541
626.958	0.00652
636.603	0.00649
646.248	0.00591
655.893	0.00592
665.537	0.00574
675.182	0.00657
684.827	0.0078
694.472	0.01176
704.116	0.01605
713.761	0.01412
723.406	0.0083
733.051	0.0069
742.695	0.00791
752.34	0.00808
761.985	0.00942
771.63	0.0109
781.275	0.01198
790.919	0.02082
800.564	0.06501
810.209	0.1449
819.854	0.24043
829.498	0.12582
839.143	0.05111
848.788	0.03055
858.433	0.04181
868.078	0.0608
877.722	0.05522
887.367	0.05421
897.012	0.08374
906.657	0.13595
916.301	0.14631
925.946	0.10985
935.591	0.07111
945.236	0.0578
954.88	0.05355
964.525	0.05102
974.17	0.05992
983.815	0.08164
993.46	0.08173
1003.1	0.06597
1012.75	0.05539
1022.39	0.05263
1032.04	0.05299
1041.68	0.04427
1051.33	0.02865
1060.97	0.01875
1070.62	0.01425
1080.26	0.01103
1089.91	0.01149
1099.55	0.01337
1109.2	0.0172
1118.84	0.01563
1128.49	0.01138
1138.13	0.01029
1147.78	0.01199
1157.42	0.01464
1167.07	0.01402
1176.71	0.01003
1186.36	0.00775
1196	0.00966
1205.64	0.01099
1215.29	0.01602
1224.93	0.02171
1234.58	0.03155
1244.22	0.03053
1253.87	0.01827
1263.51	0.01291
1273.16	0.01347
1282.8	0.01718
1292.45	0.017
1302.09	0.014
1311.74	0.01254
1321.38	0.01256
1331.03	0.01366
1340.67	0.01525
1350.32	0.01755
1359.96	0.02124
1369.61	0.0283
1379.25	0.04072
1388.9	0.04726
1398.54	0.04683
1408.18	0.05846
1417.83	0.06728
1427.47	0.06596
1437.12	0.06057
1446.76	0.06448
1456.41	0.0671
1466.05	0.06733
1475.7	0.07048
1485.34	0.10238
1494.99	0.16204
1504.63	0.15488
1514.28	0.08253
1523.92	0.04761
1533.57	0.03927
1543.21	0.03664
1552.86	0.03599
1562.5	0.0354
1572.15	0.03353
1581.79	0.03376
1591.44	0.04496
1601.08	0.08431
1610.73	0.13712
1620.37	0.15855
1630.01	0.12003
1639.66	0.0669
1649.3	0.02963
1658.95	0.01766
1668.59	0.01414
1678.24	0.01307
1687.88	0.01166
1697.53	0.00954
1707.17	0.00775
1716.82	0.00862
1726.46	0.0121
1736.11	0.01413
1745.75	0.01351
1755.4	0.01249
1765.04	0.01083
1774.69	0.00753
1784.33	0.00652
1793.98	0.00707
1803.62	0.01005
1813.27	0.01987
1822.91	0.03452
1832.55	0.0357
1842.2	0.02084
1851.84	0.01086
1861.49	0.00861
1871.13	0.0103
1880.78	0.01475
1890.42	0.01615
1900.07	0.01351
1909.71	0.00833
1919.36	0.0062
1929	0.00492
1938.65	0.00436
1948.29	0.00424
1957.94	0.00482
1967.58	0.00496
1977.23	0.00414
1986.87	0.00312
1996.52	0.00252
2006.16	0.00217
2015.81	0.00195
2025.45	0.00192
2035.1	0.00206
2044.74	0.00202
2054.38	0.00209
2064.03	0.00233
2073.67	0.00241
2083.32	0.00274
2092.96	0.00274
2102.61	0.00221
2112.25	0.0021
2121.9	0.002
2131.54	0.00181
2141.19	0.00172
2150.83	0.0016
2160.48	0.00161
2170.12	0.00152
2179.77	0.0015
2189.41	0.00137
2199.06	0.00143
2208.7	0.00177
2218.35	0.00175
2227.99	0.00171
2237.64	0.00168
2247.28	0.00172
2256.92	0.00176
2266.57	0.00202
2276.21	0.00212
2285.86	0.00214
2295.5	0.00262
2305.15	0.00329
2314.79	0.00371
2324.44	0.00336
2334.08	0.00302
2343.73	0.00289
2353.37	0.00277
2363.02	0.00274
2372.66	0.00265
2382.31	0.00273
2391.95	0.00311
2401.6	0.00346
2411.24	0.00367
2420.89	0.00349
2430.53	0.00328
2440.18	0.00335
2449.82	0.00338
2459.47	0.00296
2469.11	0.00318
2478.75	0.00313
2488.4	0.00332
2498.04	0.00309
2507.69	0.00291
2517.33	0.00287
2526.98	0.00278
2536.62	0.00291
2546.27	0.00284
2555.91	0.00237
2565.56	0.00234
2575.2	0.00204
2584.85	0.00195
2594.49	0.00197
2604.14	0.0025
2613.78	0.00281
2623.43	0.00288
2633.07	0.00258
2642.72	0.00234
2652.36	0.00246
2662.01	0.00277
2671.65	0.00309
2681.29	0.00336
2690.94	0.00373
2700.58	0.0043
2710.23	0.00525
2719.87	0.00666
2729.52	0.01076
2739.16	0.01526
2748.81	0.01392
2758.45	0.00891
2768.1	0.00749
2777.74	0.00787
2787.39	0.00901
2797.03	0.01073
2806.68	0.01345
2816.32	0.01666
2825.97	0.02107
2835.61	0.02804
2845.26	0.04104
2854.9	0.06669
2864.55	0.10848
2874.19	0.13975
2883.84	0.13867
2893.48	0.12817
2903.12	0.13144
2912.77	0.16329
2922.41	0.24371
2932.06	0.29728
2941.7	0.25378
2951.35	0.17616
2960.99	0.14765
2970.64	0.14601
2980.28	0.16026
2989.93	0.18253
2999.57	0.22562
3009.22	0.28818
3018.86	0.29701
3028.51	0.23832
3038.15	0.18223
3047.8	0.15898
3057.44	0.14302
3067.09	0.12971
3076.73	0.11998
3086.38	0.15496
3096.02	0.14223
3105.67	0.07585
3115.31	0.0414
3124.95	0.02845
3134.6	0.01871
3144.24	0.01259
3153.89	0.00903
3163.53	0.0068
3173.18	0.00581
3182.82	0.00497
3192.47	0.0047
3202.11	0.00402
3211.76	0.00367
3221.4	0.00342
3231.05	0.00325
3240.69	0.00343
3250.34	0.00318
3259.98	0.00244
3269.63	0.00198
3279.27	0.0021
3288.92	0.00214
3298.56	0.00202
3308.21	0.00206
3317.85	0.00214
3327.49	0.00185
3337.14	0.00165
3346.78	0.00164
3356.43	0.00155
3366.07	0.00169
3375.72	0.00129
3385.36	0.00119
3395.01	0.0013
3404.65	0.00123
3414.3	0.00136
3423.94	0.00159
3433.59	0.00135
3443.23	0.00129
3452.88	0.00118
3462.52	0.00114
3472.17	0.00141
3481.81	0.00114
3491.46	0.0008976
3501.1	0.0008535
3510.75	0.001
3520.39	0.000778
3530.04	0.0008312
3539.68	0.0008265
3549.32	0.0008491
3558.97	0.0007142
3568.61	0.0009258
3578.26	0.00109
3587.9	0.0008093
3597.55	0.00104
3607.19	0.0008266
3616.84	0.0007581
3626.48	0.0007873
3636.13	0.0005339
3645.77	0.0005494
3655.42	0.000826
3665.06	0.0005826
3674.71	0.0005505
3684.35	0.0006607
3694	0.0008916
3703.64	0.00109
3713.29	0.0009068
3722.93	0.00136
3732.58	0.00195
3742.22	0.00197
3751.86	0.00208
3761.51	0.00195
3771.15	0.00139
3780.8	0.00101
3790.44	0.00112
3800.09	0.000958
3809.73	0.00113
3819.38	0.00101
3829.02	0.000826
3838.67	0.0012
3848.31	0.00121
3857.96	0.00176
3867.6	0.00171
3877.25	0.00179
3886.89	0.00199
3896.54	0.00188
3906.18	0.0019
3915.83	0.00213
3925.47	0.00241
3935.12	0.00242
3944.76	0.0029
3954.41	0.00337
3964.05	0.00325
3973.69	0.00308
3983.34	0.00299
3992.98	0.00293
