Infrared Spectrum: Benzophenone dimethyl ketal
Formula: C 15 H 16 O 2
CAS: 2235-01-0
State: gas
Origin: EPA-IR VAPOR PHASE LIBRARY
1/CM	ABSORBANCE
549.9	0.0021234
559.547	0.0023062
569.193	0.0021589
578.84	0.00205169
588.486	0.001555
598.133	0.001585
607.779	0.001695
617.426	0.0030031
627.072	0.0025912
636.719	0.00471
646.365	0.01069
656.012	0.01592
665.658	0.00742
675.305	0.00792
684.951	0.01378
694.598	0.04921
704.245	0.0519
713.891	0.01625
723.538	0.00606
733.184	0.00741
742.831	0.02212
752.477	0.02815
762.124	0.0181
771.77	0.02135
781.417	0.00896
791.063	0.00383
800.71	0.0027739
810.356	0.00316
820.003	0.0024719
829.649	0.0019369
839.296	0.001834
848.943	0.001829
858.589	0.00205018
868.236	0.002583
877.882	0.0028998
887.529	0.00307
897.175	0.00446
906.822	0.00938
916.468	0.00943
926.115	0.00567
935.761	0.00455
945.408	0.00584
955.054	0.0074
964.701	0.00868
974.347	0.01771
983.994	0.0365
993.64	0.03132
1003.29	0.01399
1012.93	0.00932
1022.58	0.01532
1032.23	0.0272
1041.87	0.02613
1051.52	0.05514
1061.17	0.10238
1070.81	0.07679
1080.46	0.0579
1090.11	0.0825
1099.75	0.07191
1109.4	0.03372
1119.05	0.0159
1128.69	0.0104
1138.34	0.00934
1147.99	0.01042
1157.63	0.01294
1167.28	0.02137
1176.92	0.03904
1186.57	0.03388
1196.22	0.04304
1205.86	0.05725
1215.51	0.03831
1225.16	0.01988
1234.8	0.02219
1244.45	0.02336
1254.1	0.02204
1263.74	0.01351
1273.39	0.01098
1283.04	0.00876
1292.68	0.00633
1302.33	0.00605
1311.98	0.00885
1321.62	0.00718
1331.27	0.00502
1340.92	0.00355
1350.56	0.00336
1360.21	0.00335
1369.86	0.00332
1379.5	0.00357
1389.15	0.00303
1398.79	0.0031
1408.44	0.00334
1418.09	0.00343
1427.73	0.0042
1437.38	0.00859
1447.03	0.0169
1456.67	0.01432
1466.32	0.00758
1475.97	0.00832
1485.61	0.01375
1495.26	0.01138
1504.91	0.00529
1514.55	0.0038
1524.2	0.00321
1533.85	0.00341
1543.49	0.00372
1553.14	0.00314
1562.79	0.0028118
1572.43	0.0028306
1582.08	0.00324
1591.73	0.00435
1601.37	0.00461
1611.02	0.00329
1620.67	0.0026012
1630.31	0.0021553
1639.96	0.001901
1649.6	0.00191
1659.25	0.002275
1668.9	0.0026656
1678.54	0.00319
1688.19	0.002829
1697.84	0.0022467
1707.48	0.0019403
1717.13	0.001953
1726.78	0.001862
1736.42	0.001951
1746.07	0.0022328
1755.72	0.0023261
1765.36	0.0021463
1775.01	0.00210971
1784.66	0.00199
1794.3	0.0027695
1803.95	0.00459
1813.6	0.00414
1823.24	0.0025599
1832.89	0.001854
1842.54	0.001644
1852.18	0.001663
1861.83	0.0019692
1871.47	0.0027278
1881.12	0.00336
1890.77	0.00329
1900.41	0.0025034
1910.06	0.001899
1919.71	0.001804
1929.35	0.00201131
1939	0.00315
1948.65	0.00453
1958.29	0.00362
1967.94	0.0023871
1977.59	0.001791
1987.23	0.001767
1996.88	0.001726
2006.53	0.001841
2016.17	0.0019973
2025.82	0.0021201
2035.47	0.002077
2045.11	0.00205952
2054.76	0.00203943
2064.41	0.001864
2074.05	0.001781
2083.7	0.001626
2093.35	0.001528
2102.99	0.001467
2112.64	0.001539
2122.28	0.001581
2131.93	0.001517
2141.58	0.001542
2151.22	0.001588
2160.87	0.001555
2170.52	0.001501
2180.16	0.001513
2189.81	0.001438
2199.46	0.001304
2209.1	0.001231
2218.75	0.001211
2228.4	0.001135
2238.04	0.0012
2247.69	0.001205
2257.34	0.001242
2266.98	0.001205
2276.63	0.001178
2286.28	0.001221
2295.92	0.001239
2305.57	0.001369
2315.22	0.001585
2324.86	0.001446
2334.51	0.001611
2344.16	0.001443
2353.8	0.001397
2363.45	0.001376
2373.09	0.001248
2382.74	0.001239
2392.39	0.001228
2402.03	0.001159
2411.68	0.001213
2421.33	0.001217
2430.97	0.001239
2440.62	0.001149
2450.27	0.00112
2459.91	0.001126
2469.56	0.001172
2479.21	0.001119
2488.85	0.001102
2498.5	0.001111
2508.15	0.001052
2517.79	0.00112
2527.44	0.001147
2537.09	0.001106
2546.73	0.0011
2556.38	0.001154
2566.03	0.001193
2575.67	0.001205
2585.32	0.00129
2594.96	0.001375
2604.61	0.001384
2614.26	0.001272
2623.9	0.001405
2633.55	0.001308
2643.2	0.001302
2652.84	0.001204
2662.49	0.001187
2672.14	0.001186
2681.78	0.001144
2691.43	0.001188
2701.08	0.001172
2710.72	0.00104
2720.37	0.001038
2730.02	0.001133
2739.66	0.001176
2749.31	0.001325
2758.96	0.001391
2768.6	0.001608
2778.25	0.001789
2787.9	0.0019947
2797.54	0.002564
2807.19	0.00317
2816.84	0.00445
2826.48	0.00833
2836.13	0.02188
2845.77	0.0192
2855.42	0.00671
2865.07	0.00505
2874.71	0.00566
2884.36	0.00743
2894.01	0.01
2903.65	0.01384
2913.3	0.01565
2922.95	0.01692
2932.59	0.02243
2942.24	0.03855
2951.89	0.03842
2961.53	0.02555
2971.18	0.01978
2980.83	0.01536
2990.47	0.01608
3000.12	0.01519
3009.77	0.01157
3019.41	0.01219
3029.06	0.01769
3038.71	0.02187
3048.35	0.01855
3058	0.02424
3067.64	0.03549
3077.29	0.02886
3086.94	0.01885
3096.58	0.01463
3106.23	0.00756
3115.88	0.00399
3125.52	0.0026028
3135.17	0.0022156
3144.82	0.001334
3154.46	0.001226
3164.11	0.001143
3173.76	0.0008
3183.4	0.00052
3193.05	0.00037
3202.7	0.0004
3212.34	0.00031
3221.99	0.00031
3231.64	0.00014
3241.28	0.00028
3250.93	0.00012
3260.58	5e-05
3270.22	6e-05
3279.87	4e-05
3289.52	8e-05
3299.16	7e-05
3308.81	0.00024
3318.45	0.00018
3328.1	0.00017
3337.75	0.0003
3347.39	0.00036
3357.04	0.00033
3366.69	0.00029
3376.33	0.00024
3385.98	0.0003
3395.63	0.00018
3405.27	0.00032
3414.92	0.00033
3424.57	0.00021
3434.21	0.00035
3443.86	0.00037
3453.51	0.00026
3463.15	0.00017
3472.8	0.00046
3482.45	0.00047
3492.09	0.00037
3501.74	0.00027
3511.39	0.00016
3521.03	0.0003
3530.68	0.00041
3540.33	0.00067
3549.97	0.00057
3559.62	0.00045
3569.26	0.00045
3578.91	0.00048
3588.56	0.00045
3598.2	0.00069
3607.85	0.00044
3617.5	0.00055
3627.14	0.00065
3636.79	0.0007
3646.44	0.00084
3656.08	0.00087
3665.73	0.00084
3675.38	0.00079
3685.02	0.00063
3694.67	0.00098
3704.32	0.00096
3713.96	0.00096
3723.61	0.001023
3733.26	0.0009
3742.9	0.00072
3752.55	0.00077
3762.2	0.00076
3771.84	0.00085
3781.49	0.00069
3791.13	0.00068
3800.78	0.00089
3810.43	0.00076
3820.07	0.00084
3829.72	0.00074
3839.37	0.0008
3849.01	0.00085
3858.66	0.00088
3868.31	0.00081
3877.95	0.00089
3887.6	0.00088
3897.25	0.001047
3906.89	0.00087
3916.54	0.00079
3926.19	0.00084
3935.83	0.00092
3945.48	0.00092
3955.13	0.00092
3964.77	0.00088
3974.42	0.00102
3984.07	0.001024
3993.71	0.001067
