Infrared Spectrum: Methanesulfonamide, iodo-
Formula: C H4 I N O2 S
CAS: 22354-13-8
State: SOLID (0.8 mg / 650 mg KBr DISC)
Class: COBLENTZ III
Instrument: PERKIN-ELMER 21 (GRATING)
Instrument parameters: FILTER CHANGE ABOUT 1080 CM^-^1
Resolution: 2
Origin: SOUTHERN RESEARCH INSTITUTE
1/CM	TRANSMITTANCE
598.495	0.9173
607.53	0.904
616.565	0.887
625.6	0.8652
634.636	0.8355
643.671	0.7866
652.706	0.7378
661.741	0.6875
670.776	0.6653
679.811	0.671
688.847	0.6931
697.882	0.7451
706.917	0.8159
715.952	0.8934
724.987	0.9083
734.022	0.8698
743.058	0.7811
752.093	0.7152
761.128	0.4537
770.163	0.4903
779.198	0.7474
788.233	0.6922
797.269	0.8907
806.304	0.9265
815.339	0.9551
824.374	0.956
833.409	0.9519
842.444	0.9372
851.479	0.9169
860.515	0.8811
869.55	0.8364
878.585	0.7927
887.62	0.5859
896.655	0.4721
905.69	0.6273
914.726	0.8206
923.761	0.893
932.796	0.9157
941.831	0.9479
950.866	0.9761
959.901	0.9889
968.937	0.9904
977.972	0.9872
987.007	0.9798
996.042	0.9683
1005.08	0.9521
1014.11	0.9342
1023.15	0.9362
1032.18	0.921
1041.22	0.9163
1050.25	0.9095
1059.29	0.878
1068.32	0.8411
1077.36	0.8704
1086.39	0.8461
1095.43	0.8198
1104.46	0.7826
1113.5	0.7432
1122.53	0.6474
1131.57	0.3395
1140.6	0.4761
1149.64	0.8087
1158.67	0.7979
1167.71	0.4623
1176.75	0.4113
1185.78	0.7737
1194.82	0.8315
1203.85	0.8609
1212.89	0.8765
1221.92	0.8919
1230.96	0.9014
1239.99	0.9056
1249.03	0.9006
1258.06	0.8912
1267.1	0.8747
1276.13	0.8548
1285.17	0.7997
1294.2	0.715
1303.24	0.6638
1312.27	0.5861
1321.31	0.4708
1330.34	0.3533
1339.38	0.2992
1348.41	0.4381
1357.45	0.6751
1366.48	0.7811
1375.52	0.5835
1384.55	0.8642
1393.59	0.8962
1402.62	0.9154
1411.66	0.931
1420.69	0.9406
1429.73	0.9476
1438.76	0.9543
1447.8	0.9619
1456.84	0.9567
1465.87	0.9568
1474.91	0.9738
1483.94	0.9687
1492.98	0.9656
1502.01	0.945
1511.05	0.9174
1520.08	0.8896
1529.12	0.8613
1538.15	0.7732
1547.19	0.7122
1556.22	0.8062
1565.26	0.9497
1574.29	0.97
1583.33	0.9783
1592.36	0.9733
1601.4	0.9653
1610.43	0.9569
1619.47	0.9436
1628.5	0.9376
1637.54	0.9437
1646.57	0.9519
1655.61	0.9578
1664.64	0.965
1673.68	0.9742
1682.71	0.9894
1691.75	0.9954
1700.78	0.9968
1709.82	0.9985
1718.85	1.0046
1727.89	1.012
1736.93	1.0084
1745.96	1.0042
1755	1.0055
1764.03	1.0072
1773.07	1.0094
1782.1	1.0109
1791.14	1.0108
1800.17	1.0133
1809.21	1.0138
1818.24	1.015
1827.28	1.0147
1836.31	1.0135
1845.35	1.0125
1854.38	1.0114
1863.42	1.0094
1872.45	1.0074
1881.49	1.0049
1890.52	1.003
1899.56	1.0019
1908.59	0.9993
1917.63	0.9964
1926.66	0.9944
1935.7	0.9919
1944.73	0.9943
1953.77	0.9927
1962.8	0.9962
1971.84	0.9961
1980.87	0.9962
1989.91	0.9949
1998.94	0.9932
2007.98	0.9911
2017.02	0.9889
2026.05	0.9885
2035.09	0.9936
2044.12	0.9914
2053.16	0.989
2062.19	0.9879
2071.23	0.9865
2080.26	0.9848
2089.3	0.9837
2098.33	0.9817
2107.37	0.9808
2116.4	0.9779
2125.44	0.9714
2134.47	0.9696
2143.51	0.9681
2152.54	0.9728
2161.58	0.9749
2170.61	0.972
2179.65	0.9739
2188.68	0.9744
2197.72	0.9711
2206.75	0.9678
2215.79	0.9647
2224.82	0.9628
2233.86	0.9652
2242.89	0.9645
2251.93	0.9649
2260.96	0.9627
2270	0.9584
2279.03	0.9583
2288.07	0.9599
2297.1	0.9601
2306.14	0.9591
2315.18	0.9574
2324.21	0.9564
2333.25	0.9604
2342.28	0.9641
2351.32	0.9623
2360.35	0.9599
2369.39	0.9595
2378.42	0.96
2387.46	0.9561
2396.49	0.952
2405.53	0.9518
2414.56	0.9522
2423.6	0.9513
2432.63	0.9473
2441.67	0.9467
2450.7	0.9466
2459.74	0.9431
2468.77	0.9386
2477.81	0.9355
2486.84	0.9345
2495.88	0.937
2504.91	0.9393
2513.95	0.939
2522.98	0.9373
2532.02	0.936
2541.05	0.9353
2550.09	0.9347
2559.12	0.9309
2568.16	0.9245
2577.19	0.9157
2586.23	0.9088
2595.27	0.9087
2604.3	0.9115
2613.34	0.9166
2622.37	0.9153
2631.41	0.906
2640.44	0.9004
2649.48	0.9119
2658.51	0.917
2667.55	0.9169
2676.58	0.9248
2685.62	0.9126
2694.65	0.9135
2703.69	0.917
2712.72	0.9147
2721.76	0.9117
2730.79	0.9082
2739.83	0.9087
2748.86	0.9097
2757.9	0.9071
2766.93	0.9038
2775.97	0.9028
2785	0.8949
2794.04	0.8888
2803.07	0.8844
2812.11	0.8715
2821.14	0.8655
2830.18	0.8626
2839.21	0.8661
2848.25	0.8639
2857.28	0.859
2866.32	0.8551
2875.36	0.8557
2884.39	0.8484
2893.43	0.8311
2902.46	0.8149
2911.5	0.8019
2920.53	0.7931
2929.57	0.7826
2938.6	0.7869
2947.64	0.8105
2956.67	0.8319
2965.71	0.8159
2974.74	0.7984
2983.78	0.7711
2992.81	0.7437
3001.85	0.7162
3010.88	0.7325
3019.92	0.7846
3028.95	0.798
3037.99	0.7793
3047.02	0.7625
3056.06	0.7497
3065.09	0.7392
3074.13	0.7535
3083.16	0.7584
3092.2	0.7585
3101.23	0.7549
3110.27	0.7416
3119.3	0.7219
3128.34	0.6996
3137.37	0.6734
3146.41	0.6581
3155.45	0.6439
3164.48	0.6162
3173.52	0.5781
3182.55	0.5372
3191.59	0.4964
3200.62	0.4263
3209.66	0.3738
3218.69	0.3677
3227.73	0.4124
3236.76	0.5358
3245.8	0.6279
3254.83	0.6474
3263.87	0.6335
3272.9	0.608
3281.94	0.5399
3290.97	0.488
3300.01	0.4467
3309.04	0.4037
3318.08	0.3972
3327.11	0.4129
3336.15	0.4738
3345.18	0.5625
3354.22	0.6317
3363.25	0.6865
3372.29	0.7094
3381.32	0.7525
3390.36	0.7708
3399.39	0.7833
3408.43	0.7845
3417.46	0.7946
3426.5	0.8017
3435.54	0.8162
3444.57	0.8233
3453.61	0.8251
3462.64	0.8275
3471.68	0.8321
3480.71	0.838
3489.75	0.8429
3498.78	0.8472
3507.82	0.8523
3516.85	0.8573
3525.89	0.8584
3534.92	0.8592
3543.96	0.8631
3552.99	0.8633
3562.03	0.8738
3571.06	0.875
3580.1	0.8673
3589.13	0.8743
3598.17	0.8845
3607.2	0.8957
3616.24	0.8967
3625.27	0.8978
3634.31	0.8966
3643.34	0.8943
3652.38	0.895
3661.41	0.9012
3670.45	0.9022
3679.48	0.9034
3688.52	0.9039
3697.55	0.9047
3706.59	0.9087
3715.62	0.9096
3724.66	0.9077
3733.7	0.9004
3742.73	0.8948
3751.77	0.895
3760.8	0.9027
3769.84	0.9049
3778.87	0.8994
3787.91	0.8938
3796.94	0.8932
3805.98	0.8965
