Infrared Spectrum: 1-ACENAPHTHENONE
Formula: C12 H8 O
CAS: 2235-15-6
Melting point: 120.5-121.5 C
Class: COBLENTZ
Instrument: Not specified, most likely a prism, grating, or hybrid spectrometer.
Sampling: TRANSMISSION
Resolution: 4
Origin: PROF. T. URBANSKI, INSTITUTE OF TECHNOLOGY, WARSZAWA, POLAND
1/CM	TRANSMITTANCE
990.969	0.801
996.716	0.556
1002.46	0.77
1008.21	0.536
1013.96	0.444
1019.7	0.781
1025.45	0.874
1031.2	0.877
1036.95	0.886
1042.69	0.895
1048.44	0.894
1054.19	0.893
1059.93	0.893
1065.68	0.895
1071.43	0.895
1077.18	0.897
1082.92	0.899
1088.67	0.9
1094.42	0.897
1100.16	0.888
1105.91	0.833
1111.66	0.744
1117.41	0.647
1123.15	0.742
1128.9	0.847
1134.65	0.904
1140.39	0.878
1146.14	0.791
1151.89	0.811
1157.64	0.863
1163.38	0.821
1169.13	0.801
1174.88	0.842
1180.62	0.703
1186.37	0.62
1192.12	0.845
1197.87	0.867
1203.61	0.818
1209.36	0.687
1215.11	0.604
1220.85	0.66
1226.6	0.534
1232.35	0.63
1238.1	0.788
1243.84	0.767
1249.59	0.653
1255.34	0.535
1261.08	0.559
1266.83	0.672
1272.58	0.806
1278.33	0.858
1284.07	0.855
1289.82	0.847
1295.57	0.809
1301.31	0.791
1307.06	0.829
1312.81	0.852
1318.56	0.834
1324.3	0.791
1330.05	0.744
1335.8	0.693
1341.54	0.675
1347.29	0.664
1353.04	0.569
1358.79	0.575
1364.53	0.548
1370.28	0.539
1376.03	0.624
1381.77	0.737
1387.52	0.809
1393.27	0.814
1399.02	0.799
1404.76	0.709
1410.51	0.63
1416.26	0.663
1422	0.594
1427.75	0.725
1433.5	0.714
1439.25	0.692
1444.99	0.602
1450.74	0.52
1456.49	0.425
1462.23	0.61
1467.98	0.755
1473.73	0.73
1479.48	0.539
1485.22	0.422
1490.97	0.859
1496.72	0.853
1502.46	0.857
1508.21	0.852
1513.96	0.87
1519.71	0.867
1525.45	0.851
1531.2	0.864
1536.95	0.867
1542.69	0.85
1548.44	0.87
1554.19	0.85
1559.94	0.821
1565.68	0.791
1571.43	0.763
1577.18	0.735
1582.92	0.681
1588.67	0.595
1594.42	0.521
1600.17	0.596
1605.91	0.682
1611.66	0.678
1617.41	0.677
1623.15	0.711
1628.9	0.749
1634.65	0.73
1640.4	0.731
1646.14	0.73
1651.89	0.687
1657.64	0.642
1663.38	0.596
1669.13	0.55
1674.88	0.453
1680.63	0.356
1686.37	0.267
1692.12	0.159
1697.87	0.099
1703.61	0.045
1709.36	0.08
1715.11	0.135
1720.86	0.262
1726.6	0.422
1732.35	0.577
1738.1	0.729
1743.84	0.812
1749.59	0.848
1755.34	0.85
1761.09	0.819
1766.83	0.797
1772.58	0.797
1778.33	0.88
1784.07	0.897
1789.82	0.895
1795.57	0.882
1801.32	0.881
1807.06	0.892
1812.81	0.894
1818.56	0.904
1824.3	0.904
1830.05	0.894
1835.8	0.885
1841.55	0.876
1847.29	0.87
1853.04	0.865
1858.79	0.868
1864.53	0.885
1870.28	0.879
1876.03	0.869
1881.78	0.865
1887.52	0.861
1893.27	0.851
1899.02	0.849
1904.76	0.855
1910.51	0.861
1916.26	0.858
1922.01	0.848
1927.75	0.841
1933.5	0.848
1939.25	0.858
1944.99	0.854
1950.74	0.844
1956.49	0.837
1962.24	0.836
1967.98	0.846
1973.73	0.851
1979.48	0.854
1985.22	0.856
1990.97	0.854
1996.72	0.852
2002.47	0.85
2008.21	0.848
2013.96	0.848
2019.71	0.847
2025.45	0.846
2031.2	0.845
2036.95	0.843
2042.7	0.843
2048.44	0.842
2054.19	0.84
2059.94	0.839
2065.68	0.836
2071.43	0.834
2077.18	0.832
2082.93	0.829
2088.67	0.827
2094.42	0.823
2100.17	0.821
2105.91	0.82
2111.66	0.819
2117.41	0.82
2123.16	0.82
2128.9	0.819
2134.65	0.818
2140.4	0.817
2146.14	0.815
2151.89	0.814
2157.64	0.813
2163.38	0.811
2169.13	0.808
2174.88	0.806
2180.63	0.804
2186.37	0.802
2192.12	0.801
2197.87	0.8
2203.61	0.799
2209.36	0.797
2215.11	0.795
2220.86	0.792
2226.6	0.789
2232.35	0.786
2238.1	0.783
2243.84	0.779
2249.59	0.776
2255.34	0.774
2261.09	0.773
2266.83	0.772
2272.58	0.77
2278.33	0.768
2284.07	0.764
2289.82	0.754
2295.57	0.741
2301.32	0.73
2307.06	0.725
2312.81	0.726
2318.56	0.73
2324.3	0.733
2330.05	0.738
2335.8	0.747
2341.55	0.759
2347.29	0.769
2353.04	0.781
2358.79	0.792
2364.53	0.793
2370.28	0.789
2376.03	0.785
2381.78	0.778
2387.52	0.771
2393.27	0.761
2399.02	0.756
2404.76	0.753
2410.51	0.75
2416.26	0.748
2422.01	0.747
2427.75	0.745
2433.5	0.744
2439.25	0.742
2444.99	0.741
2450.74	0.74
2456.49	0.739
2462.24	0.738
2467.98	0.737
2473.73	0.737
2479.48	0.736
2485.22	0.734
2490.97	0.733
2496.72	0.732
2502.47	0.731
2508.21	0.73
2513.96	0.729
2519.71	0.728
2525.45	0.726
2531.2	0.726
2536.95	0.724
2542.7	0.723
2548.44	0.721
2554.19	0.72
2559.94	0.718
2565.68	0.716
2571.43	0.714
2577.18	0.714
2582.93	0.712
2588.67	0.71
2594.42	0.708
2600.17	0.706
2605.91	0.705
2611.66	0.704
2617.41	0.703
2623.16	0.703
2628.9	0.702
2634.65	0.701
2640.4	0.7
2646.14	0.698
2651.89	0.697
2657.64	0.697
2663.39	0.697
2669.13	0.697
2674.88	0.695
2680.63	0.695
2686.37	0.694
2692.12	0.694
2697.87	0.692
2703.62	0.691
2709.36	0.689
2715.11	0.688
2720.86	0.687
2726.6	0.686
2732.35	0.686
2738.1	0.686
2743.85	0.685
2749.59	0.685
2755.34	0.686
2761.09	0.687
2766.83	0.688
2772.58	0.69
2778.33	0.692
2784.08	0.692
2789.82	0.693
2795.57	0.692
2801.32	0.691
2807.06	0.689
2812.81	0.686
2818.56	0.678
2824.31	0.669
2830.05	0.658
2835.8	0.633
2841.55	0.566
2847.29	0.511
2853.04	0.453
2858.79	0.399
2864.54	0.37
2870.28	0.377
2876.03	0.39
2881.78	0.402
2887.52	0.404
2893.27	0.394
2899.02	0.381
2904.77	0.352
2910.51	0.299
2916.26	0.24
2922.01	0.218
2927.75	0.213
2933.5	0.216
2939.25	0.221
2945	0.228
2950.74	0.238
2956.49	0.251
2962.24	0.268
2967.98	0.291
2973.73	0.327
2979.48	0.368
2985.23	0.396
2990.97	0.41
2996.72	0.425
3002.47	0.444
3008.21	0.458
3013.96	0.462
3019.71	0.462
3025.46	0.461
3031.2	0.46
3036.95	0.459
3042.7	0.46
3048.44	0.462
3054.19	0.466
3059.94	0.472
3065.69	0.48
3071.43	0.492
3077.18	0.5
3082.93	0.508
3088.67	0.514
3094.42	0.521
3100.17	0.528
3105.92	0.533
3111.66	0.537
3117.41	0.54
3123.16	0.542
3128.9	0.544
3134.65	0.545
3140.4	0.547
3146.15	0.548
3151.89	0.549
3157.64	0.55
3163.39	0.55
3169.13	0.551
3174.88	0.551
3180.63	0.55
3186.38	0.549
3192.12	0.549
3197.87	0.548
3203.62	0.547
3209.36	0.546
3215.11	0.546
3220.86	0.545
3226.61	0.544
3232.35	0.544
3238.1	0.543
3243.85	0.543
3249.59	0.543
