Infrared Spectrum: 3-(4-Methoxyphenyl)-1-(2-naphthyl)-prop-2-en-1-one
Formula: C 20 H 16 O 2
CAS: 22359-67-7
State: gas
Origin: EPA-IR VAPOR PHASE LIBRARY
1/CM	ABSORBANCE
549.8	0.0034
559.445	0.00306
569.09	0.00157
578.734	0.00206
588.379	0.0009868
598.024	0.0013599
607.669	0.0007934
617.313	0.00151
626.958	0.0012442
636.603	0.0012836
646.248	0.0006613
655.893	0.0013854
665.537	0.0008819
675.182	0.0009577
684.827	0.0013096
694.472	0.0009426
704.116	0.00159
713.761	0.0015167
723.406	0.002
733.051	0.00233
742.695	0.00356
752.34	0.00379
761.985	0.00274
771.63	0.00221
781.275	0.00213
790.919	0.00474
800.564	0.00557
810.209	0.00684
819.854	0.00753
829.498	0.00526
839.143	0.00283
848.788	0.00249
858.433	0.00251
868.078	0.00207
877.722	0.001399
887.367	0.0010741
897.012	0.001473
906.657	0.00188
916.301	0.0017
925.946	0.00154
935.591	0.00201
945.236	0.00368
954.88	0.00318
964.525	0.00253
974.17	0.00419
983.815	0.00422
993.46	0.00332
1003.1	0.00354
1012.75	0.00639
1022.39	0.00623
1032.04	0.00689
1041.68	0.01025
1051.33	0.00578
1060.97	0.00418
1070.62	0.00266
1080.26	0.00253
1089.91	0.0010682
1099.55	0.00303
1109.2	0.003
1118.84	0.00412
1128.49	0.01133
1138.13	0.00377
1147.78	0.00439
1157.42	0.0073
1167.07	0.02215
1176.71	0.02225
1186.36	0.00961
1196	0.00587
1205.64	0.00756
1215.29	0.00766
1224.93	0.00878
1234.58	0.0107
1244.22	0.01782
1253.87	0.02209
1263.51	0.01619
1273.16	0.013
1282.8	0.01742
1292.45	0.01358
1302.09	0.01053
1311.74	0.00825
1321.38	0.00831
1331.03	0.00487
1340.67	0.00374
1350.32	0.00489
1359.96	0.00451
1369.61	0.00319
1379.25	0.00253
1388.9	0.00197
1398.54	0.00176
1408.18	0.00243
1417.83	0.00505
1427.47	0.00291
1437.12	0.00322
1446.76	0.00373
1456.41	0.00327
1466.05	0.00526
1475.7	0.00397
1485.34	0.00309
1494.99	0.00484
1504.63	0.01556
1514.28	0.0221
1523.92	0.00485
1533.57	0.00272
1543.21	0.00239
1552.86	0.00238
1562.5	0.00332
1572.15	0.00649
1581.79	0.0064
1591.44	0.01101
1601.08	0.02438
1610.73	0.02343
1620.37	0.01127
1630.01	0.00736
1639.66	0.00428
1649.3	0.00414
1658.95	0.0072
1668.59	0.01191
1678.24	0.01415
1687.88	0.00661
1697.53	0.00295
1707.17	0.00186
1716.82	0.00158
1726.46	0.00146
1736.11	0.0013158
1745.75	0.0013506
1755.4	0.0014468
1765.04	0.001286
1774.69	0.001285
1784.33	0.001283
1793.98	0.0011701
1803.62	0.0011744
1813.27	0.0012695
1822.91	0.0011872
1832.55	0.0010663
1842.2	0.0011186
1851.84	0.0010234
1861.49	0.0010679
1871.13	0.0009362
1880.78	0.0010602
1890.42	0.0010039
1900.07	0.0010038
1909.71	0.0010217
1919.36	0.0010583
1929	0.0010927
1938.65	0.0009939
1948.29	0.0012688
1957.94	0.0009201
1967.58	0.0008004
1977.23	0.0007571
1986.87	0.000862
1996.52	0.0009036
2006.16	0.0009698
2015.81	0.0010682
2025.45	0.0009137
2035.1	0.0009318
2044.74	0.0008696
2054.38	0.0010326
2064.03	0.0010153
2073.67	0.0008
2083.32	0.0008202
2092.96	0.0006321
2102.61	0.0007494
2112.25	0.0006639
2121.9	0.000796
2131.54	0.0006329
2141.19	0.00060693
2150.83	0.00060534
2160.48	0.00056707
2170.12	0.0006864
2179.77	0.0005712
2189.41	0.00060013
2199.06	0.0005013
2208.7	0.00054417
2218.35	0.00062796
2227.99	0.00052279
2237.64	0.00058264
2247.28	0.0007211
2256.92	0.0005139
2266.57	0.00055822
2276.21	0.0008045
2285.86	0.0006695
2295.5	0.00059534
2305.15	0.00058643
2314.79	0.00058141
2324.44	0.0007669
2334.08	0.000413
2343.73	0.0004962
2353.37	0.0004568
2363.02	0.00058143
2372.66	0.0004434
2382.31	0.0006992
2391.95	0.00062031
2401.6	0.000653
2411.24	0.00062787
2420.89	0.0004768
2430.53	0.0006365
2440.18	0.0005545
2449.82	0.0005412
2459.47	0.0006616
2469.11	0.0006662
2478.75	0.000649
2488.4	0.00058278
2498.04	0.0006685
2507.69	0.000748
2517.33	0.0007241
2526.98	0.0006339
2536.62	0.000782
2546.27	0.000949
2555.91	0.000796
2565.56	0.000389
2575.2	0.0006392
2584.85	0.00055261
2594.49	0.00057107
2604.14	0.0006676
2613.78	0.00058058
2623.43	0.0006567
2633.07	0.00058625
2642.72	0.0004915
2652.36	0.000533329
2662.01	0.0004315
2671.65	0.0004436
2681.29	0.000398
2690.94	0.00055909
2700.58	0.0004601
2710.23	0.00043
2719.87	0.00056444
2729.52	0.0005044
2739.16	0.0004615
2748.81	0.00060903
2758.45	0.00054728
2768.1	0.0005119
2777.74	0.0004365
2787.39	0.00054845
2797.03	0.0006936
2806.68	0.0007675
2816.32	0.0006611
2825.97	0.0007822
2835.61	0.00153
2845.26	0.00281
2854.9	0.00182
2864.55	0.0012775
2874.19	0.0008895
2883.84	0.0012856
2893.48	0.0013858
2903.12	0.0013902
2912.77	0.00205
2922.41	0.00215
2932.06	0.0019
2941.7	0.00299
2951.35	0.00313
2960.99	0.00291
2970.64	0.00237
2980.28	0.00197
2989.93	0.00175
2999.57	0.00225
3009.22	0.00356
3018.86	0.0029
3028.51	0.00287
3038.15	0.00357
3047.8	0.00359
3057.44	0.00498
3067.09	0.0065
3076.73	0.00441
3086.38	0.00259
3096.02	0.00187
3105.67	0.001178
3115.31	0.0010552
3124.95	0.0010519
3134.6	0.0006625
3144.24	0.0005037
3153.89	0.000532155
3163.53	0.0005025
3173.18	0.000393
3182.82	0.000235
3192.47	0.000339
3202.11	0.00057841
3211.76	0.0007447
3221.4	0.00055207
3231.05	0.00059868
3240.69	0.000406
3250.34	0.0007143
3259.98	0.0006893
3269.63	0.00061195
3279.27	0.00054181
3288.92	0.0007419
3298.56	0.0007624
3308.21	0.0005146
3317.85	0.0004738
3327.49	0.0004613
3337.14	0.0009892
3346.78	0.00059693
3356.43	0.0004417
3366.07	0.00060221
3375.72	0.000356
3385.36	0.000529184
3395.01	0.00055266
3404.65	0.0002
3414.3	0.0007045
3423.94	0.0004462
3433.59	0.00054548
3443.23	0.0006808
3452.88	0.0007219
3462.52	0.000496
3472.17	0.0007607
3481.81	0.000404
3491.46	0.0006988
3501.1	0.000341
3510.75	0.0004644
3520.39	0.0007101
3530.04	0.0007763
3539.68	0.000402
3549.32	0.000302
3558.97	0.0006456
3568.61	0.000384
3578.26	0.0007687
3587.9	0.0007023
3597.55	0.0008391
3607.19	0.0004996
3616.84	0.00056101
3626.48	0.0006864
3636.13	0.00056465
3645.77	0.0007298
3655.42	0.0006335
3665.06	0.0008386
3674.71	0.0004527
3684.35	0.0006503
3694	0.0006845
3703.64	0.0008405
3713.29	0.0008075
3722.93	0.0006707
3732.58	0.00056193
3742.22	0.0007454
3751.86	0.000298
3761.51	0.0004379
3771.15	0.0008808
3780.8	0
3790.44	0.0007051
3800.09	0.0004305
3809.73	0.0008464
3819.38	0.000334
3829.02	0.000488
3838.67	0.0006773
3848.31	0.0005116
3857.96	0.0007336
3867.6	0.0007975
3877.25	0.0006322
3886.89	0.0012965
3896.54	0.0005187
3906.18	0.00056241
3915.83	0.000208
3925.47	0.0009181
3935.12	0.0004772
3944.76	0.000333
3954.41	0.0006813
3964.05	0.0008324
3973.69	0.0004867
3983.34	0.00057272
3992.98	0.0005065
