Infrared Spectrum: 2,2'-Diiodobiphenyl
Formula: C 12 H 8 I 2
CAS: 2236-52-4
State: gas
Origin: EPA-IR VAPOR PHASE LIBRARY
1/CM	ABSORBANCE
549.8	0.00724
559.445	0.00328
569.09	0.0006005
578.734	0.0010268
588.379	0.0005361
598.024	0.0013
607.669	0.00274
617.313	0.00795
626.958	0.00165
636.603	0.00457
646.248	0.00859
655.893	0.01799
665.537	0.0069
675.182	0.0018
684.827	0.00176
694.472	0.00247
704.116	0.00283
713.761	0.00733
723.406	0.02427
733.051	0.01565
742.695	0.0334
752.34	0.10205
761.985	0.01845
771.63	0.00313
781.275	0.00171
790.919	0.00137
800.564	0.00245
810.209	0.00301
819.854	0.00182
829.498	0.00237
839.143	0.0022
848.788	0.0012082
858.433	0.00172
868.078	0.00163
877.722	0.00153
887.367	0.00129
897.012	0.0012614
906.657	0.0010383
916.301	0.0009753
925.946	0.001025
935.591	0.00158
945.236	0.00185
954.88	0.00138
964.525	0.00169
974.17	0.00253
983.815	0.00515
993.46	0.02684
1003.1	0.02825
1012.75	0.02526
1022.39	0.04263
1032.04	0.00578
1041.68	0.00665
1051.33	0.00259
1060.97	0.00191
1070.62	0.00403
1080.26	0.00168
1089.91	0.00176
1099.55	0.00177
1109.2	0.00165
1118.84	0.0023
1128.49	0.0010601
1138.13	0.0005104
1147.78	0.0006544
1157.42	0.0008641
1167.07	0.0008365
1176.71	0.0008149
1186.36	0.0009955
1196	0.0007557
1205.64	0.0011377
1215.29	0.0010246
1224.93	0.00132
1234.58	0.00183
1244.22	0.0027
1253.87	0.00554
1263.51	0.002
1273.16	0.0015
1282.8	0.0024
1292.45	0.0027
1302.09	0.00203
1311.74	0.00161
1321.38	0.0009828
1331.03	0.0007026
1340.67	0.0007741
1350.32	0.0007781
1359.96	0.0007999
1369.61	0.001166
1379.25	0.00156
1388.9	0.00197
1398.54	0.0053
1408.18	0.0119
1417.83	0.01084
1427.47	0.02854
1437.12	0.02078
1446.76	0.03013
1456.41	0.03974
1466.05	0.00745
1475.7	0.00438
1485.34	0.00343
1494.99	0.00213
1504.63	0.00224
1514.28	0.0013
1523.92	0.0010652
1533.57	0.0012531
1543.21	0.0022
1552.86	0.00792
1562.5	0.00888
1572.15	0.00608
1581.79	0.00814
1591.44	0.00497
1601.08	0.00362
1610.73	0.00387
1620.37	0.00179
1630.01	0.0010145
1639.66	0.0007874
1649.3	0.0007602
1658.95	0.0010788
1668.59	0.0010846
1678.24	0.00141
1687.88	0.00258
1697.53	0.00234
1707.17	0.0011695
1716.82	0.00157
1726.46	0.0013
1736.11	0.0006162
1745.75	0.0005573
1755.4	0.0006399
1765.04	0.0006616
1774.69	0.0009361
1784.33	0.00147
1793.98	0.00354
1803.62	0.00276
1813.27	0.0011512
1822.91	0.00169
1832.55	0.0024
1842.2	0.0010466
1851.84	0.0006928
1861.49	0.0007282
1871.13	0.00129
1880.78	0.00224
1890.42	0.0013
1900.07	0.00177
1909.71	0.00459
1919.36	0.00303
1929	0.00137
1938.65	0.00258
1948.29	0.00378
1957.94	0.00132
1967.58	0.0008056
1977.23	0.0006939
1986.87	0.0006023
1996.52	0.0006598
2006.16	0.0006448
2015.81	0.0008415
2025.45	0.0006939
2035.1	0.0006679
2044.74	0.0005358
2054.38	0.0005567
2064.03	0.0005155
2073.67	0.0004675
2083.32	0.0005448
2092.96	0.0005617
2102.61	0.0005029
2112.25	0.0004911
2121.9	0.0005251
2131.54	0.000496
2141.19	0.0004971
2150.83	0.000516
2160.48	0.0004882
2170.12	0.0004868
2179.77	0.0004735
2189.41	0.0004499
2199.06	0.0004695
2208.7	0.0005358
2218.35	0.0005658
2227.99	0.0006727
2237.64	0.0006378
2247.28	0.0005241
2256.92	0.0005466
2266.57	0.0006179
2276.21	0.000894
2285.86	0.0007031
2295.5	0.0007376
2305.15	0.0008358
2314.79	0.0010282
2324.44	0.00136
2334.08	0.0007706
2343.73	0.000555
2353.37	0.0005036
2363.02	0.0005522
2372.66	0.0005223
2382.31	0.0005491
2391.95	0.0006158
2401.6	0.000759
2411.24	0.0007999
2420.89	0.0008102
2430.53	0.0005591
2440.18	0.0005804
2449.82	0.0006058
2459.47	0.0005457
2469.11	0.0005703
2478.75	0.0005673
2488.4	0.0006173
2498.04	0.000827
2507.69	0.000686
2517.33	0.000759
2526.98	0.0006844
2536.62	0.0006756
2546.27	0.0008873
2555.91	0.0008815
2565.56	0.0008633
2575.2	0.0009674
2584.85	0.0008848
2594.49	0.0008822
2604.14	0.0006601
2613.78	0.0006345
2623.43	0.0004806
2633.07	0.0005526
2642.72	0.000458
2652.36	0.0004466
2662.01	0.0004065
2671.65	0.0003944
2681.29	0.0004859
2690.94	0.00035906
2700.58	0.0004036
2710.23	0.0003408
2719.87	0.000432
2729.52	0.0004298
2739.16	0.0004407
2748.81	0.0004914
2758.45	0.00032946
2768.1	0.00034681
2777.74	0.0004014
2787.39	0.0005051
2797.03	0.0004959
2806.68	0.0004951
2816.32	0.0004665
2825.97	0.0005087
2835.61	0.0007235
2845.26	0.0007073
2854.9	0.0006634
2864.55	0.0005588
2874.19	0.0005486
2883.84	0.0004729
2893.48	0.0004596
2903.12	0.00037064
2912.77	0.0005829
2922.41	0.000415
2932.06	0.0005033
2941.7	0.0005478
2951.35	0.0008487
2960.99	0.0008396
2970.64	0.0009723
2980.28	0.0012172
2989.93	0.00144
2999.57	0.00229
3009.22	0.00316
3018.86	0.00348
3028.51	0.0032
3038.15	0.00409
3047.8	0.01084
3057.44	0.02801
3067.09	0.02706
3076.73	0.02456
3086.38	0.01111
3096.02	0.00412
3105.67	0.00396
3115.31	0.00524
3124.95	0.00369
3134.6	0.0012282
3144.24	0.0010451
3153.89	0.0007293
3163.53	0.0006226
3173.18	0.000516
3182.82	0.0005067
3192.47	0.0005713
3202.11	0.0004276
3211.76	0.0004597
3221.4	0.00030493
3231.05	0.0003993
3240.69	0.0002373
3250.34	0.0005537
3259.98	0.0004596
3269.63	0.0005323
3279.27	0.00030234
3288.92	0.00032197
3298.56	0.0004577
3308.21	0.0005009
3317.85	0.0004488
3327.49	0.0002419
3337.14	0.0003889
3346.78	0.000478
3356.43	0.0003061
3366.07	0.00030979
3375.72	0.000235
3385.36	0.00036686
3395.01	0.00035802
3404.65	0.0004146
3414.3	0.00035878
3423.94	0.00036251
3433.59	0.0002513
3443.23	0.00033842
3452.88	0.00032094
3462.52	0.000171
3472.17	0.0002396
3481.81	0.00035954
3491.46	0.000109
3501.1	0.0004063
3510.75	0.00032481
3520.39	0.00031081
3530.04	0.00033977
3539.68	0.00028255
3549.32	0.00032609
3558.97	0.0002283
3568.61	0.0004173
3578.26	0.000544
3587.9	0.0005328
3597.55	8e-05
3607.19	0.00027245
3616.84	0.00035254
3626.48	0.00030726
3636.13	0.0004699
3645.77	0.0004675
3655.42	0.0004726
3665.06	0.0005573
3674.71	0.0004626
3684.35	0.0004869
3694	0.0006374
3703.64	0.0004793
3713.29	0.0007239
3722.93	0.0007919
3732.58	0.000613
3742.22	0.0004042
3751.86	0.0006623
3761.51	0.000117
3771.15	0.00030397
3780.8	0.00034154
3790.44	0.00032324
3800.09	0.0004334
3809.73	0.0008344
3819.38	0.0004932
3829.02	0.0006162
3838.67	0.0004647
3848.31	0.0003829
3857.96	0.0005694
3867.6	0.0004212
3877.25	0.0002128
3886.89	0.00029591
3896.54	0.00037716
3906.18	0.00027465
3915.83	0.0002818
3925.47	0.0002022
3935.12	0.000285303
3944.76	0.0002655
3954.41	0.0004721
3964.05	0.00030775
3973.69	0.00030628
3983.34	0.00031511
3992.98	0.00030416
