Infrared Spectrum: 2-Methylphenylacetonitrile
Formula: C 9 H 9 N
CAS: 22364-68-7
State: gas
Origin: EPA-IR VAPOR PHASE LIBRARY
1/CM	ABSORBANCE
549.8	0.0010544
559.445	0.0005157
569.09	0.0002961
578.734	0.0006089
588.379	0.0004512
598.024	0.0006857
607.669	0.0012992
617.313	0.002171
626.958	0.001841
636.603	0.0010717
646.248	0.0010637
655.893	0.0008399
665.537	0.0006273
675.182	0.0011305
684.827	0.001166
694.472	0.001601
704.116	0.002311
713.761	0.005411
723.406	0.015051
733.051	0.030811
742.695	0.038581
752.34	0.023681
761.985	0.011901
771.63	0.005001
781.275	0.001951
790.919	0.001267
800.564	0.0009435
810.209	0.0009411
819.854	0.0008528
829.498	0.0009636
839.143	0.0011264
848.788	0.0008142
858.433	0.0011399
868.078	0.0012178
877.722	0.0010887
887.367	0.0008694
897.012	0.0011856
906.657	0.0012038
916.301	0.001571
925.946	0.001901
935.591	0.001911
945.236	0.001751
954.88	0.0012968
964.525	0.000969
974.17	0.0007917
983.815	0.0011712
993.46	0.0011777
1003.1	0.0012164
1012.75	0.0012905
1022.39	0.0011108
1032.04	0.001421
1041.68	0.002181
1051.33	0.002661
1060.97	0.002131
1070.62	0.000666
1080.26	9.7e-05
1089.91	0.000838
1099.55	0.002111
1109.2	0.002611
1118.84	0.001531
1128.49	0.0010998
1138.13	0.0008646
1147.78	0.0008784
1157.42	0.001511
1167.07	0.0013349
1176.71	0.001811
1186.36	0.001911
1196	0.0013401
1205.64	0.001731
1215.29	0.001771
1224.93	0.001461
1234.58	0.001631
1244.22	0.001541
1253.87	0.001911
1263.51	0.001791
1273.16	0.001781
1282.8	0.001711
1292.45	0.001691
1302.09	0.001501
1311.74	0.001481
1321.38	0.0012681
1331.03	0.0010867
1340.67	0.0010954
1350.32	0.0011102
1359.96	0.0012674
1369.61	0.001491
1379.25	0.002181
1388.9	0.002891
1398.54	0.003251
1408.18	0.003601
1417.83	0.006291
1427.47	0.009131
1437.12	0.009471
1446.76	0.008931
1456.41	0.010751
1466.05	0.011371
1475.7	0.010021
1485.34	0.011111
1494.99	0.013311
1504.63	0.010441
1514.28	0.003371
1523.92	0.001771
1533.57	0.001451
1543.21	0.001421
1552.86	0.0012581
1562.5	0.0013117
1572.15	0.001611
1581.79	0.002031
1591.44	0.002991
1601.08	0.003461
1610.73	0.002861
1620.37	0.001641
1630.01	0.0010064
1639.66	0.0007689
1649.3	0.0008231
1658.95	0.0008778
1668.59	0.0010175
1678.24	0.0010457
1687.88	0.0011264
1697.53	0.0010298
1707.17	0.0008808
1716.82	0.0009161
1726.46	0.000837
1736.11	0.0006906
1745.75	0.000565
1755.4	0.0005489
1765.04	0.0006647
1774.69	0.0008893
1784.33	0.001139
1793.98	0.0012771
1803.62	0.001411
1813.27	0.0012735
1822.91	0.0012511
1832.55	0.0012348
1842.2	0.0009557
1851.84	0.0007631
1861.49	0.0007848
1871.13	0.0008248
1880.78	0.0009802
1890.42	0.0011145
1900.07	0.0012256
1909.71	0.0012855
1919.36	0.001401
1929	0.0012583
1938.65	0.001411
1948.29	0.001451
1957.94	0.0009592
1967.58	0.0005144
1977.23	0.0004741
1986.87	0.00040758
1996.52	0.00040658
2006.16	0.0002927
2015.81	0.0003326
2025.45	0.000246
2035.1	0.0002763
2044.74	0.0002739
2054.38	0.0003113
2064.03	0.000226
2073.67	0.0003094
2083.32	0.0003114
2092.96	0.0003063
2102.61	0.00037529
2112.25	0.00038856
2121.9	0.0002676
2131.54	0.00037134
2141.19	0.000349
2150.83	0.0003241
2160.48	0.000206
2170.12	0.000239
2179.77	0.0002747
2189.41	0.0002929
2199.06	0.0002987
2208.7	0.0003186
2218.35	0.000366262
2227.99	0.00042311
2237.64	0.0008051
2247.28	0.001531
2256.92	0.001791
2266.57	0.0011521
2276.21	0.000769
2285.86	0.00045323
2295.5	0.0003243
2305.15	0.00039357
2314.79	0.00038077
2324.44	0.0006359
2334.08	0.0006504
2343.73	0.0005464
2353.37	0.000483
2363.02	0.00045105
2372.66	0.00041572
2382.31	0.00037417
2391.95	0.0003335
2401.6	0.0002798
2411.24	0.00044239
2420.89	0.00045304
2430.53	0.00039568
2440.18	0.000444
2449.82	0.0003478
2459.47	0.00040294
2469.11	0.0003017
2478.75	0.000366875
2488.4	0.0003133
2498.04	0.0003335
2507.69	0.0003268
2517.33	0.0002843
2526.98	0.00040351
2536.62	0.0002873
2546.27	0.000237
2555.91	0.0003313
2565.56	0.0003169
2575.2	0.00040588
2584.85	0.0005074
2594.49	0.00042236
2604.14	0.00044709
2613.78	0.0004717
2623.43	0.0003221
2633.07	0.0003276
2642.72	0.000249
2652.36	0.0003774
2662.01	0.000259
2671.65	0.0004711
2681.29	0.0002894
2690.94	0.000238
2700.58	0.0004825
2710.23	0.0006306
2719.87	0.0005374
2729.52	0.0005766
2739.16	0.0007438
2748.81	0.000832
2758.45	0.0008788
2768.1	0.0006668
2777.74	0.0006212
2787.39	0.0005819
2797.03	0.0006646
2806.68	0.0007572
2816.32	0.0008471
2825.97	0.0012091
2835.61	0.001641
2845.26	0.001921
2854.9	0.002421
2864.55	0.003681
2874.19	0.005101
2883.84	0.005781
2893.48	0.005631
2903.12	0.005541
2912.77	0.006641
2922.41	0.009351
2932.06	0.012241
2941.7	0.011871
2951.35	0.009731
2960.99	0.007991
2970.64	0.007521
2980.28	0.007861
2989.93	0.007291
2999.57	0.005761
3009.22	0.006371
3018.86	0.010621
3028.51	0.013911
3038.15	0.012671
3047.8	0.009991
3057.44	0.011081
3067.09	0.014491
3076.73	0.015571
3086.38	0.011831
3096.02	0.006331
3105.67	0.003781
3115.31	0.002741
3124.95	0.001531
3134.6	0.0011435
3144.24	0.0010569
3153.89	0.0008257
3163.53	0.0010483
3173.18	0.0009456
3182.82	0.0007418
3192.47	0.0006768
3202.11	0.000368929
3211.76	0.00043332
3221.4	0.000227
3231.05	0.00035842
3240.69	0.000216
3250.34	0.0003103
3259.98	0.0002732
3269.63	0.0002618
3279.27	0.00021
3288.92	0.00012
3298.56	0.000121
3308.21	0.0004673
3317.85	0.000369354
3327.49	0.0002768
3337.14	0.0003317
3346.78	0.000136
3356.43	0.000147
3366.07	0.000227
3375.72	0.000277
3385.36	0.0003146
3395.01	0.000126
3404.65	4e-06
3414.3	1.9e-05
3423.94	2.2e-05
3433.59	0.0002725
3443.23	0.000281
3452.88	0.00032
3462.52	0.0002761
3472.17	0.00022
3481.81	0.0003156
3491.46	0.000194
3501.1	0.0002718
3510.75	0.0002955
3520.39	0.000251
3530.04	0.000323
3539.68	0.000365463
3549.32	0.000144
3558.97	0.00017
3568.61	0.0002851
3578.26	0.0002977
3587.9	0.00039538
3597.55	0.000246
3607.19	0.0003857
3616.84	0.0002705
3626.48	0.0002918
3636.13	0.00044465
3645.77	0.0003097
3655.42	0.00042663
3665.06	0.00039834
3674.71	0.00045177
3684.35	0.0003169
3694	0.0004875
3703.64	0.00038008
3713.29	6.7e-05
3722.93	0.000247
3732.58	0.000189
3742.22	0.000148
3751.86	0.000232
3761.51	2.5e-05
3771.15	0.0002634
3780.8	0.00043641
3790.44	0.00038528
3800.09	0.0002824
3809.73	0.0002729
3819.38	0.000549
3829.02	0.000192
3838.67	0.0003324
3848.31	0.000209
3857.96	0.00038905
3867.6	0.0003364
3877.25	0.000171
3886.89	0.000297
3896.54	0.0006133
3906.18	0.00042083
3915.83	0.00039521
3925.47	0.0005077
3935.12	0.00035929
3944.76	0.0004478
3954.41	0.000138
3964.05	0.00019
3973.69	0.000246
3983.34	0.0003377
3992.98	0.000146
