Infrared Spectrum: PROPYLAMINE, 1-METHYL-3-PHENYL-
Formula: C10 H15 N
CAS: 22374-89-6
State: SOLUTION (10% IN CCl4 FOR 3800-400 CM^-^1)
Class: COBLENTZ
Instrument: DOW KBr FOREPRISM-GRATING
Instrument parameters: BLAZED AT 3.5, 12.0, 20.0 MICRON AND CHANGED AT 5.0, 7.5, 14.9 MICRON
Sampling: TRANSMISSION
Path length: 0.011 CM
Resolution: 2
Origin: DOW CHEMICAL COMPANY
1/CM	TRANSMITTANCE
388	0.8203
397	0.8162
406	0.8122
415	0.8084
424	0.806
433	0.8041
442	0.8034
451	0.7953
460	0.7685
469	0.7597
478	0.7805
487	0.7811
496	0.7682
505	0.7549
514	0.7304
523	0.7495
532	0.7936
541	0.8121
550	0.8183
559	0.8207
568	0.8069
577	0.7594
586	0.7905
595	0.839
604	0.8371
613	0.8397
622	0.847
631	0.8482
640	0.8402
649	0.8132
658	0.7487
667	0.586
676	0.7061
685	0.5268
694	0.3945
703	0.0763
712	0.1191
721	0.0033
730	0.2294
739	0.8581
748	0.86
757	0.8582
766	0.8575
775	0.8557
784	0.8535
793	0.8509
802	0.848
811	0.842
820	0.8092
829	0.7347
838	0.7146
847	0.7301
856	0.7507
865	0.7605
874	0.7806
883	0.7854
892	0.7919
901	0.7706
910	0.7517
919	0.769
928	0.7926
937	0.7861
946	0.7769
955	0.7668
964	0.7772
973	0.8007
982	0.8168
991	0.8047
1000	0.7925
1009	0.7815
1018	0.7672
1027	0.713
1036	0.6717
1045	0.72
1054	0.6975
1063	0.6536
1072	0.7217
1081	0.7484
1090	0.7587
1099	0.7512
1108	0.733
1117	0.7253
1126	0.7069
1135	0.6784
1144	0.7154
1153	0.7189
1162	0.7278
1171	0.7487
1180	0.7032
1189	0.6796
1198	0.6706
1207	0.6901
1216	0.6741
1225	0.7378
1234	0.7551
1243	0.773
1252	0.7818
1261	0.7815
1270	0.7705
1279	0.7604
1288	0.7588
1297	0.7621
1306	0.7651
1315	0.7593
1324	0.7381
1333	0.6951
1342	0.655
1351	0.6371
1360	0.6619
1369	0.5889
1378	0.4653
1387	0.5493
1396	0.6791
1405	0.7765
1414	0.7744
1423	0.765
1432	0.7341
1441	0.6288
1450	0.5297
1459	0.1853
1468	0.4958
1477	0.7225
1486	0.7161
1495	0.4848
1504	0.4779
1513	0.6917
1522	0.7019
1531	0.6982
1540	0.6947
1549	0.7048
1558	0.7033
1567	0.6961
1576	0.6758
1585	0.61
1594	0.599
1603	0.495
1612	0.5104
1621	0.596
1630	0.6253
1639	0.665
1648	0.7056
1657	0.7008
1666	0.7189
1675	0.7515
1684	0.7808
1693	0.8075
1702	0.8278
1711	0.839
1720	0.8207
1729	0.8358
1738	0.8497
1747	0.8461
1756	0.8531
1765	0.8596
1774	0.8571
1783	0.8595
1792	0.8461
1801	0.8086
1810	0.826
1819	0.8413
1828	0.8516
1837	0.8534
1846	0.849
1855	0.8423
1864	0.8268
1873	0.8197
1882	0.8299
1891	0.836
1900	0.8477
1909	0.8509
1918	0.8493
1927	0.8455
1936	0.8355
1945	0.7778
1954	0.8095
1963	0.8041
1972	0.8368
1981	0.8425
1990	0.8398
1999	0.8371
2008	0.8353
2017	0.8348
2026	0.835
2035	0.8354
2044	0.8362
2053	0.837
2062	0.8375
2071	0.8378
2080	0.8385
2089	0.8397
2098	0.8409
2107	0.8421
2116	0.8427
2125	0.8428
2134	0.8432
2143	0.8435
2152	0.8438
2161	0.8441
2170	0.8445
2179	0.8448
2188	0.8454
2197	0.846
2206	0.8466
2215	0.8471
2224	0.8477
2233	0.8482
2242	0.8488
2251	0.8493
2260	0.8496
2269	0.8495
2278	0.849
2287	0.8494
2296	0.8512
2305	0.8533
2314	0.8574
2323	0.8577
2332	0.8561
2341	0.8518
2350	0.8496
2359	0.8475
2368	0.8453
2377	0.8433
2386	0.8416
2395	0.84
2404	0.8389
2413	0.8374
2422	0.8346
2431	0.8327
2440	0.8309
2449	0.8278
2458	0.8247
2467	0.8214
2476	0.8185
2485	0.816
2494	0.8121
2503	0.8076
2512	0.8041
2521	0.8018
2530	0.8011
2539	0.8014
2548	0.8019
2557	0.8015
2566	0.7978
2575	0.7926
2584	0.7878
2593	0.7838
2602	0.7808
2611	0.7801
2620	0.7796
2629	0.7787
2638	0.7778
2647	0.7767
2656	0.7756
2665	0.7746
2674	0.7751
2683	0.7745
2692	0.771
2701	0.764
2710	0.7567
2719	0.7525
2728	0.7505
2737	0.749
2746	0.7471
2755	0.745
2764	0.7405
2773	0.7304
2782	0.7132
2791	0.6968
2800	0.671
2809	0.6319
2818	0.595
2827	0.5529
2836	0.4665
2845	0.3937
2854	0.3064
2863	0.3177
2872	0.351
2881	0.3895
2890	0.3823
2899	0.326
2908	0.2271
2917	0.1542
2926	0.1398
2935	0.1617
2944	0.1974
2953	0.1698
2962	0.1604
2971	0.2643
2980	0.3682
2989	0.4719
2998	0.5469
3007	0.5451
3016	0.486
3025	0.3468
3034	0.2464
3043	0.5115
3052	0.5657
3061	0.497
3070	0.4373
3079	0.558
3088	0.5142
3097	0.6307
3106	0.6898
3115	0.7317
3124	0.7547
3133	0.7651
3142	0.7699
3151	0.7708
3160	0.7692
3169	0.7722
3178	0.7755
3187	0.7769
3196	0.7787
3205	0.7803
3214	0.7828
3223	0.786
3232	0.7855
3241	0.7839
3250	0.7808
3259	0.7781
3268	0.7751
3277	0.7718
3286	0.7687
3295	0.7654
3304	0.7624
3313	0.7587
3322	0.7585
3331	0.7592
3340	0.7601
3349	0.76
3358	0.7583
3367	0.7542
3376	0.7464
3385	0.7491
3394	0.7624
3403	0.7782
3412	0.7865
3421	0.7878
3430	0.7899
3439	0.795
3448	0.8004
3457	0.8061
3466	0.8121
3475	0.8184
3484	0.8246
3493	0.8308
3502	0.8371
3511	0.843
3520	0.8482
3529	0.8528
3538	0.856
3547	0.8593
3556	0.8637
3565	0.8671
3574	0.8694
3583	0.8721
3592	0.8736
3601	0.8743
3610	0.8739
3619	0.8733
3628	0.8736
3637	0.8732
3646	0.868
3655	0.8657
3664	0.8628
3673	0.8451
3682	0.8394
3691	0.8738
3700	0.8851
3709	0.8847
3718	0.8856
3727	0.8875
3736	0.8886
3745	0.8887
3754	0.8882
3763	0.888
3772	0.8883
3781	0.8884
3790	0.888
