Infrared Spectrum: 3-Diethylamino-1-phenylpropane
Formula: C 13 H 17 N
CAS: 22396-72-1
State: gas
Origin: EPA-IR VAPOR PHASE LIBRARY
1/CM	ABSORBANCE
549.8	0.0018294
559.445	0.0014294
569.09	0.0017094
578.734	0.0017394
588.379	0.0030994
598.024	0.0043994
607.669	0.0044594
617.313	0.0042994
626.958	0.0032294
636.603	0.0020794
646.248	0.0021894
655.893	0.0026194
665.537	0.0051194
675.182	0.0097194
684.827	0.0147994
694.472	0.0148694
704.116	0.0105694
713.761	0.0064194
723.406	0.0059494
733.051	0.0099094
742.695	0.0193394
752.34	0.0288494
761.985	0.0229594
771.63	0.0123994
781.275	0.0057394
790.919	0.0040594
800.564	0.0039594
810.209	0.0040094
819.854	0.0028694
829.498	0.0018394
839.143	0.0017194
848.788	0.0015694
858.433	0.0015194
868.078	0.0015894
877.722	0.0018994
887.367	0.0026894
897.012	0.0034294
906.657	0.0036794
916.301	0.0030494
925.946	0.0026794
935.591	0.0038094
945.236	0.0051994
954.88	0.0040594
964.525	0.0041894
974.17	0.0053394
983.815	0.0056694
993.46	0.0042694
1003.1	0.0035294
1012.75	0.0032894
1022.39	0.0066394
1032.04	0.0086694
1041.68	0.0092494
1051.33	0.0151094
1060.97	0.0204894
1070.62	0.0191994
1080.26	0.0164394
1089.91	0.0156394
1099.55	0.0128694
1109.2	0.0108994
1118.84	0.0096094
1128.49	0.0082094
1138.13	0.0073294
1147.78	0.0082794
1157.42	0.0098694
1167.07	0.0107094
1176.71	0.0097894
1186.36	0.0092194
1196	0.0129794
1205.64	0.0129694
1215.29	0.0084394
1224.93	0.0053994
1234.58	0.0061894
1244.22	0.0102594
1253.87	0.0103294
1263.51	0.0072794
1273.16	0.0070294
1282.8	0.0086894
1292.45	0.0099794
1302.09	0.0121794
1311.74	0.0205494
1321.38	0.0352294
1331.03	0.0248194
1340.67	0.0185594
1350.32	0.0207294
1359.96	0.0208194
1369.61	0.0196894
1379.25	0.0207394
1388.9	0.0171194
1398.54	0.0098194
1408.18	0.0056594
1417.83	0.0049594
1427.47	0.0071694
1437.12	0.0104494
1446.76	0.0114494
1456.41	0.0117694
1466.05	0.0117794
1475.7	0.0122994
1485.34	0.0239094
1494.99	0.0196194
1504.63	0.0071094
1514.28	0.0038194
1523.92	0.0024194
1533.57	0.0019894
1543.21	0.0017594
1552.86	0.0018094
1562.5	0.0020994
1572.15	0.0028594
1581.79	0.0046494
1591.44	0.0096994
1601.08	0.0107694
1610.73	0.0042294
1620.37	0.0016094
1630.01	0.0012794
1639.66	0.0012194
1649.3	0.0016194
1658.95	0.0023594
1668.59	0.0020394
1678.24	0.0012394
1687.88	0.0010485
1697.53	0.000814
1707.17	0.000846
1716.82	0.0009764
1726.46	0.0012894
1736.11	0.0013194
1745.75	0.0012594
1755.4	0.0011294
1765.04	0.0009299
1774.69	0.0011594
1784.33	0.0016494
1793.98	0.0022894
1803.62	0.0015294
1813.27	0.0014294
1822.91	0.0012194
1832.55	0.0009146
1842.2	0.0008967
1851.84	0.0010743
1861.49	0.0013994
1871.13	0.0016194
1880.78	0.0020394
1890.42	0.0018094
1900.07	0.0008853
1909.71	0.0008952
1919.36	0.0011894
1929	0.0016094
1938.65	0.0020394
1948.29	0.0023894
1957.94	0.0022294
1967.58	0.0009667
1977.23	0.0005857
1986.87	0.0004858
1996.52	0.0004598
2006.16	0.0004474
2015.81	0.0004811
2025.45	0.000398
2035.1	0.0003921
2044.74	0.0004121
2054.38	0.0004579
2064.03	0.0005733
2073.67	0.0005128
2083.32	0.0005241
2092.96	0.0004337
2102.61	0.0004296
2112.25	0.0005168
2121.9	0.0006024
2131.54	0.000508
2141.19	0.000541
2150.83	0.0004988
2160.48	0.0006536
2170.12	0.0006737
2179.77	0.000602
2189.41	0.000571
2199.06	0.0005214
2208.7	0.0006299
2218.35	0.0005604
2227.99	0.0006524
2237.64	0.0006823
2247.28	0.0006675
2256.92	0.0006432
2266.57	0.0006939
2276.21	0.000732
2285.86	0.0005849
2295.5	0.0006202
2305.15	0.0005725
2314.79	0.000971
2324.44	0.0006841
2334.08	0.0007472
2343.73	0.0007101
2353.37	0.0007358
2363.02	0.0007468
2372.66	0.0006553
2382.31	0.0006843
2391.95	0.0006358
2401.6	0.0006354
2411.24	0.0006211
2420.89	0.0007246
2430.53	0.0007113
2440.18	0.0006215
2449.82	0.0006362
2459.47	0.0005804
2469.11	0.0005246
2478.75	0.0005334
2488.4	0.000522
2498.04	0.0005799
2507.69	0.0006108
2517.33	0.0006876
2526.98	0.0007295
2536.62	0.0007924
2546.27	0.0009266
2555.91	0.0010529
2565.56	0.0010265
2575.2	0.0011494
2584.85	0.0013494
2594.49	0.0013194
2604.14	0.0013994
2613.78	0.0015494
2623.43	0.0015594
2633.07	0.0016494
2642.72	0.0018794
2652.36	0.0020994
2662.01	0.0021194
2671.65	0.0023594
2681.29	0.0028694
2690.94	0.0032294
2700.58	0.0038994
2710.23	0.0042394
2719.87	0.0046894
2729.52	0.0051194
2739.16	0.0056094
2748.81	0.0062694
2758.45	0.0077494
2768.1	0.0094394
2777.74	0.0121794
2787.39	0.0160294
2797.03	0.0196894
2806.68	0.0223694
2816.32	0.0250594
2825.97	0.0285694
2835.61	0.0259394
2845.26	0.0194194
2854.9	0.0156194
2864.55	0.0148694
2874.19	0.0175294
2883.84	0.0214094
2893.48	0.0206694
2903.12	0.0211894
2912.77	0.0241094
2922.41	0.0303594
2932.06	0.0406394
2941.7	0.0466194
2951.35	0.0386694
2960.99	0.0363394
2970.64	0.0558494
2980.28	0.0639794
2989.93	0.0325494
2999.57	0.0147894
3009.22	0.0100794
3018.86	0.0090294
3028.51	0.0100594
3038.15	0.0124094
3047.8	0.0097794
3057.44	0.0137494
3067.09	0.0210594
3076.73	0.0163694
3086.38	0.0128394
3096.02	0.0112594
3105.67	0.0077694
3115.31	0.0038994
3124.95	0.0023194
3134.6	0.0017594
3144.24	0.0019194
3153.89	0.0015694
3163.53	0.0014694
3173.18	0.0013494
3182.82	0.0012294
3192.47	0.0010456
3202.11	0.0009825
3211.76	0.0007387
3221.4	0.0008041
3231.05	0.0006142
3240.69	0.0004962
3250.34	0.0003688
3259.98	0.0005571
3269.63	0.0002968
3279.27	0.0004003
3288.92	0.0003854
3298.56	0.0003143
3308.21	0.0003473
3317.85	0.0004091
3327.49	0.0004242
3337.14	0.0004409
3346.78	0.0002409
3356.43	0.0003486
3366.07	0.0004468
3375.72	0.0001974
3385.36	4.68e-05
3395.01	0.0002942
3404.65	0.0002935
3414.3	0.0003447
3423.94	0.0003793
3433.59	0.0003823
3443.23	0.0002232
3452.88	0.0002675
3462.52	0.0003899
3472.17	0.0001626
3481.81	0.00012999
3491.46	0.0002917
3501.1	0.00026
3510.75	0.0003606
3520.39	0.000383
3530.04	0.00017594
3539.68	0.00012106
3549.32	0.0002953
3558.97	0.0002393
3568.61	0.00015308
3578.26	0.0002323
3587.9	0.0003329
3597.55	0.0002371
3607.19	9.5492e-05
3616.84	0.00012917
3626.48	0.0002108
3636.13	0.0003065
3645.77	0.0002889
3655.42	0.0002631
3665.06	0.0003967
3674.71	0.0003546
3684.35	0.0002252
3694	0.0002627
3703.64	0.0002618
3713.29	0.0002503
3722.93	8.539e-05
3732.58	0.0003086
3742.22	0.00016759
3751.86	0.0002815
3761.51	0.000313
3771.15	0.0003624
3780.8	0.0004214
3790.44	0.0003712
3800.09	0.0005784
3809.73	0.0002397
3819.38	0.0002406
3829.02	0.000398
3838.67	0.00017818
3848.31	0.0003533
3857.96	0.0003619
3867.6	0.0004114
3877.25	0.0003507
3886.89	0.00014923
3896.54	0.0004924
3906.18	0.0003993
3915.83	0.000292
3925.47	0.0004684
3935.12	0.0002696
3944.76	0.0004175
3954.41	0.0002759
3964.05	0.0002128
3973.69	0.0004992
3983.34	0.000435
3992.98	0.0005547
