Infrared Spectrum: 2-Benzenesulphonylthiophene
Formula: C 10 H 8 O 2 S 2
CAS: 22407-40-5
State: gas
Origin: EPA-IR VAPOR PHASE LIBRARY
1/CM	ABSORBANCE
549.8	0.015507
559.445	0.011627
569.09	0.022637
578.734	0.030947
588.379	0.043997
598.024	0.085147
607.669	0.020557
617.313	0.007037
626.958	0.004707
636.603	0.004037
646.248	0.006187
655.893	0.016997
665.537	0.017407
675.182	0.012207
684.827	0.019927
694.472	0.017107
704.116	0.023917
713.761	0.054357
723.406	0.066067
733.051	0.023487
742.695	0.009897
752.34	0.010107
761.985	0.006297
771.63	0.003557
781.275	0.003017
790.919	0.002477
800.564	0.0017197
810.209	0.0012022
819.854	0.004957
829.498	0.0016386
839.143	0.003207
848.788	0.004087
858.433	0.005137
868.078	0.002737
877.722	0.0017373
887.367	0.0016531
897.012	0.0016289
906.657	0.001115
916.301	0.002097
925.946	0.0017011
935.591	0.001767
945.236	0.0010535
954.88	0.0011658
964.525	0.0013488
974.17	0.0012094
983.815	0.002917
993.46	0.006607
1003.1	0.015267
1012.75	0.020497
1022.39	0.007377
1032.04	0.002167
1041.68	0.002007
1051.33	0.001847
1060.97	0.004077
1070.62	0.004927
1080.26	0.010697
1089.91	0.013827
1099.55	0.027247
1109.2	0.012127
1118.84	0.003707
1128.49	0.002527
1138.13	0.006197
1147.78	0.016867
1157.42	0.055647
1167.07	0.075147
1176.71	0.035277
1186.36	0.012927
1196	0.007027
1205.64	0.006407
1215.29	0.007047
1224.93	0.016997
1234.58	0.010157
1244.22	0.002747
1253.87	0.003127
1263.51	0.003167
1273.16	0.003047
1282.8	0.002707
1292.45	0.003587
1302.09	0.004557
1311.74	0.006137
1321.38	0.008207
1331.03	0.014357
1340.67	0.027787
1350.32	0.056527
1359.96	0.043657
1369.61	0.011317
1379.25	0.004737
1388.9	0.005107
1398.54	0.009027
1408.18	0.009987
1417.83	0.005997
1427.47	0.004917
1437.12	0.005187
1446.76	0.007877
1456.41	0.004937
1466.05	0.002777
1475.7	0.003487
1485.34	0.003147
1494.99	0.002927
1504.63	0.005737
1514.28	0.004187
1523.92	0.002147
1533.57	0.0016655
1543.21	0.002107
1552.86	0.002317
1562.5	0.0017314
1572.15	0.0015831
1581.79	0.001777
1591.44	0.001797
1601.08	0.0016823
1610.73	0.0017435
1620.37	0.0016488
1630.01	0.0016367
1639.66	0.0010023
1649.3	0.0012054
1658.95	0.0016698
1668.59	0.002227
1678.24	0.002347
1687.88	0.0016935
1697.53	0.0012401
1707.17	0.0012372
1716.82	0.0013101
1726.46	0.0015129
1736.11	0.001807
1745.75	0.0017406
1755.4	0.0016984
1765.04	0.0016955
1774.69	0.0015031
1784.33	0.0014329
1793.98	0.001877
1803.62	0.002747
1813.27	0.002617
1822.91	0.0016802
1832.55	0.0016051
1842.2	0.0012986
1851.84	0.0011192
1861.49	0.0014782
1871.13	0.0015184
1880.78	0.0014224
1890.42	0.0017067
1900.07	0.0016098
1909.71	0.001787
1919.36	0.001415
1929	0.0011854
1938.65	0.0011064
1948.29	0.0017017
1957.94	0.001877
1967.58	0.001777
1977.23	0.0017085
1986.87	0.0010439
1996.52	0.0010614
2006.16	0.0012751
2015.81	0.0010855
2025.45	0.0010022
2035.1	0.001117
2044.74	0.0009824
2054.38	0.0009633
2064.03	0.0010723
2073.67	0.0011017
2083.32	0.0010968
2092.96	0.0014038
2102.61	0.0012191
2112.25	0.0011281
2121.9	0.0011727
2131.54	0.0010249
2141.19	0.0011632
2150.83	0.0013247
2160.48	0.0010636
2170.12	0.0014302
2179.77	0.001263
2189.41	0.0010683
2199.06	0.0010791
2208.7	0.001228
2218.35	0.0013843
2227.99	0.0013191
2237.64	0.0013569
2247.28	0.0012143
2256.92	0.001133
2266.57	0.0013357
2276.21	0.0011129
2285.86	0.0013123
2295.5	0.0012537
2305.15	0.0012909
2314.79	0.0013688
2324.44	0.0015419
2334.08	0.0015683
2343.73	0.0012973
2353.37	0.0013234
2363.02	0.001063
2372.66	0.0012163
2382.31	0.0011606
2391.95	0.0013912
2401.6	0.0016591
2411.24	0.001777
2420.89	0.0013702
2430.53	0.0012751
2440.18	0.0014265
2449.82	0.0015108
2459.47	0.0012037
2469.11	0.0008835
2478.75	0.0009038
2488.4	0.0013632
2498.04	0.001367
2507.69	0.0012863
2517.33	0.0011471
2526.98	0.0009472
2536.62	0.0011431
2546.27	0.000750121
2555.91	0.0012622
2565.56	0.0011164
2575.2	0.001285
2584.85	0.0009775
2594.49	0.0011334
2604.14	0.0012734
2613.78	0.0011974
2623.43	0.0012573
2633.07	0.0012111
2642.72	0.0014216
2652.36	0.0010879
2662.01	0.0015443
2671.65	0.0014193
2681.29	0.0010032
2690.94	0.0010667
2700.58	0.0011295
2710.23	0.0011967
2719.87	0.0008999
2729.52	0.0011531
2739.16	0.0008749
2748.81	0.0011031
2758.45	0.0010995
2768.1	0.0011625
2777.74	0.0012586
2787.39	0.00123
2797.03	0.0012355
2806.68	0.0012182
2816.32	0.0016241
2825.97	0.0015471
2835.61	0.0009873
2845.26	0.0012042
2854.9	0.0016081
2864.55	0.0010508
2874.19	0.0011643
2883.84	0.0010579
2893.48	0.0009189
2903.12	0.0008725
2912.77	0.0011209
2922.41	0.0012416
2932.06	0.0011383
2941.7	0.00083272
2951.35	0.00077993
2960.99	0.0012178
2970.64	0.0009232
2980.28	0.00083221
2989.93	0.0010679
2999.57	0.001177
3009.22	0.001747
3018.86	0.0013326
3028.51	0.001777
3038.15	0.002347
3047.8	0.002757
3057.44	0.003997
3067.09	0.008327
3076.73	0.010697
3086.38	0.006467
3096.02	0.004707
3105.67	0.002497
3115.31	0.0016858
3124.95	0.001807
3134.6	0.0011017
3144.24	0.001897
3153.89	0.0015019
3163.53	0.0013524
3173.18	0.0009751
3182.82	0.0011507
3192.47	0.0013008
3202.11	0.0013149
3211.76	0.0009347
3221.4	0.0012528
3231.05	0.0009398
3240.69	0.0013762
3250.34	0.00083484
3259.98	0.0010481
3269.63	0.0011096
3279.27	0.000313
3288.92	0.000892
3298.56	0.000746391
3308.21	0.0008553
3317.85	0.000747577
3327.49	0.001231
3337.14	0.0013285
3346.78	0.0010514
3356.43	0.000629
3366.07	0.000951
3375.72	0.000522
3385.36	0.000577
3395.01	0.0010465
3404.65	0.0008712
3414.3	0.0008722
3423.94	0.0009683
3433.59	0.0012208
3443.23	0.0013422
3452.88	0.0009595
3462.52	0.00081767
3472.17	0.0008826
3481.81	0.001093
3491.46	0.00077388
3501.1	0.0010162
3510.75	0.0014745
3520.39	0.0007033
3530.04	0.0006867
3539.68	0.000426
3549.32	0.0009653
3558.97	0.000142
3568.61	0.0013474
3578.26	0.0009146
3587.9	0.000501
3597.55	0.000631
3607.19	0.000487
3616.84	0.0010347
3626.48	0.000511
3636.13	0.0009945
3645.77	0.001022
3655.42	0.0011171
3665.06	0.0006758
3674.71	0.000607
3684.35	0.000645
3694	0.001293
3703.64	0.0009359
3713.29	0.0013991
3722.93	0.000559
3732.58	0.0008976
3742.22	0.001198
3751.86	0.0009936
3761.51	0.0007178
3771.15	0.0014216
3780.8	0.0008736
3790.44	0.000259
3800.09	0.00074193
3809.73	0.0011744
3819.38	0.0012866
3829.02	0.0015296
3838.67	0.001038
3848.31	0.0005
3857.96	0.000735
3867.6	0
3877.25	0.000686
3886.89	0.000378
3896.54	0.000459
3906.18	0.000406
3915.83	0.00083352
3925.47	0.0007833
3935.12	0.001757
3944.76	0.0012992
3954.41	0.0014244
3964.05	0.000509
3973.69	0.0010961
3983.34	0.0012771
3992.98	0.0010783
