Infrared Spectrum: O,O-DIMETHYL BENZENE PHOSPHONATE
Formula: C8 H11 O3 P
CAS: 2240-41-7
State: SOLUTION (10% CCl4 FOR 5000-1330, 10% CS2 FOR 1330-625 CM^-^1)
Class: COBLENTZ
Instrument: Not specified, most likely a prism, grating, or hybrid spectrometer.
Sampling: TRANSMISSION
Path length: 0.0125 CM, 0.0124 CM
Resolution: 4
Origin: DOW CHEMICAL COMPANY
MICROMETERS	TRANSMITTANCE
2.055	0.899
2.09618	0.897
2.13735	0.89
2.17853	0.877
2.21971	0.885
2.26089	0.892
2.30206	0.892
2.34324	0.887
2.38442	0.878
2.4256	0.875
2.46677	0.89
2.50795	0.895
2.54913	0.902
2.59031	0.902
2.63148	0.894
2.67266	0.872
2.71384	0.88
2.75501	0.868
2.79619	0.841
2.83737	0.813
2.87855	0.8
2.91972	0.853
2.9609	0.865
3.00208	0.872
3.04326	0.87
3.08443	0.866
3.12561	0.853
3.16679	0.827
3.20797	0.691
3.24914	0.629
3.29032	0.597
3.3315	0.561
3.37267	0.482
3.41385	0.754
3.45503	0.672
3.49621	0.764
3.53738	0.875
3.57856	0.878
3.61974	0.877
3.66092	0.873
3.70209	0.882
3.74327	0.875
3.78445	0.873
3.82563	0.878
3.8668	0.88
3.90798	0.882
3.94916	0.878
3.99033	0.88
4.03151	0.882
4.07269	0.883
4.11387	0.882
4.15504	0.882
4.19622	0.88
4.2374	0.875
4.27858	0.866
4.31975	0.86
4.36093	0.858
4.40211	0.87
4.44329	0.882
4.48446	0.88
4.52564	0.882
4.56682	0.883
4.60799	0.882
4.64917	0.88
4.69035	0.88
4.73153	0.877
4.7727	0.87
4.81388	0.87
4.85506	0.87
4.89624	0.873
4.93741	0.87
4.97859	0.866
5.01977	0.846
5.06095	0.825
5.10212	0.863
5.1433	0.868
5.18448	0.836
5.22566	0.805
5.26683	0.798
5.30801	0.82
5.34919	0.822
5.39036	0.81
5.43154	0.79
5.47272	0.781
5.5139	0.844
5.55507	0.853
5.59625	0.841
5.63743	0.841
5.67861	0.854
5.71978	0.846
5.76096	0.849
5.80214	0.863
5.84332	0.866
5.88449	0.865
5.92567	0.834
5.96685	0.831
6.00802	0.834
6.0492	0.832
6.09038	0.813
6.13156	0.773
6.17273	0.74
6.21391	0.641
6.25509	0.52
6.29627	0.556
6.33744	0.539
6.37862	0.491
6.4198	0.43
6.46098	0.445
6.50215	0.529
6.54333	0.573
6.58451	0.607
6.62568	0.643
6.66686	0.65
6.70804	0.573
6.74922	0.581
6.79039	0.503
6.83157	0.464
6.87275	0.44
6.91393	0.317
6.9551	0.658
6.99628	0.744
7.03746	0.778
7.07864	0.783
7.11981	0.783
7.16099	0.776
7.20217	0.769
7.24334	0.791
7.28452	0.8
7.3257	0.8
7.36688	0.798
7.40805	0.788
7.44923	0.773
7.49041	0.773
7.53159	0.776
7.57276	0.755
7.61394	0.715
7.65512	0.682
7.6963	0.604
7.73747	0.505
7.77865	0.32
7.81983	0.168
7.861	0.08
7.90218	0.034
7.94336	0.025
7.98454	0.044
8.02571	0.156
8.06689	0.39
8.10807	0.515
8.14925	0.554
8.19042	0.576
8.2316	0.576
8.27278	0.54
8.31396	0.47
8.35513	0.361
8.39631	0.228
8.43749	0.197
8.47866	0.274
8.51984	0.406
8.56102	0.476
8.6022	0.493
8.64337	0.506
8.68455	0.501
8.72573	0.421
8.76691	0.303
8.80808	0.107
8.84926	0.054
8.89044	0.361
8.93162	0.452
8.97279	0.508
9.01397	0.518
9.05515	0.515
9.09632	0.5
9.1375	0.477
9.17868	0.438
9.21986	0.389
9.26103	0.324
9.30221	0.22
9.34339	0.126
9.38457	0.044
9.42574	0.023
9.46692	0.018
9.5081	0.017
9.54928	0.02
9.59045	0.018
9.63163	0.015
9.67281	0.013
9.71398	0.011
9.75516	0.011
9.79634	0.011
9.83752	0.066
9.87869	0.218
9.91987	0.319
9.96105	0.407
10.0022	0.397
10.0434	0.489
10.0846	0.598
10.1258	0.627
10.1669	0.662
10.2081	0.686
10.2493	0.699
10.2905	0.713
10.3316	0.73
10.3728	0.744
10.414	0.755
10.4552	0.761
10.4964	0.767
10.5375	0.767
10.5787	0.773
10.6199	0.773
10.6611	0.778
10.7022	0.779
10.7434	0.778
10.7846	0.776
10.8258	0.774
10.867	0.778
10.9081	0.788
10.9493	0.795
10.9905	0.8
11.0317	0.8
11.0728	0.798
11.114	0.798
11.1552	0.802
11.1964	0.803
11.2375	0.802
11.2787	0.786
11.3199	0.764
11.3611	0.747
11.4023	0.732
11.4434	0.716
11.4846	0.697
11.5258	0.677
11.567	0.66
11.6081	0.636
11.6493	0.6
11.6905	0.578
11.7317	0.559
11.7729	0.547
11.814	0.53
11.8552	0.501
11.8964	0.435
11.9376	0.329
11.9787	0.204
12.0199	0.093
12.0611	0.029
12.1023	0.006
12.1434	0.003
12.1846	0.046
12.2258	0.109
12.267	0.24
12.3082	0.298
12.3493	0.308
12.3905	0.262
12.4317	0.22
12.4729	0.184
12.514	0.153
12.5552	0.107
12.5964	0.066
12.6376	0.032
12.6788	0.018
12.7199	0.011
12.7611	0.013
12.8023	0.056
12.8435	0.112
12.8846	0.232
12.9258	0.375
12.967	0.494
13.0082	0.564
13.0493	0.597
13.0905	0.598
13.1317	0.588
13.1729	0.554
13.2141	0.496
13.2552	0.424
13.2964	0.271
13.3376	0.155
13.3788	0.059
13.4199	0.025
13.4611	0.08
13.5023	0.235
13.5435	0.317
13.5847	0.372
13.6258	0.515
13.667	0.587
13.7082	0.622
13.7494	0.645
13.7905	0.653
13.8317	0.653
13.8729	0.653
13.9141	0.648
13.9553	0.627
13.9964	0.587
14.0376	0.539
14.0788	0.472
14.12	0.341
14.1611	0.25
14.2023	0.203
14.2435	0.172
14.2847	0.153
14.3258	0.116
14.367	0.075
14.4082	0.058
14.4494	0.1
14.4906	0.22
14.5317	0.387
14.5729	0.46
14.6141	0.51
14.6553	0.532
14.6964	0.539
14.7376	0.539
14.7788	0.537
14.82	0.532
14.8612	0.529
14.9023	0.522
14.9435	0.52
14.9847	0.53
15.0259	0.532
15.067	0.532
15.1082	0.525
15.1494	0.52
15.1906	0.513
15.2317	0.5
15.2729	0.489
15.3141	0.482
15.3553	0.476
15.3965	0.47
15.4376	0.465
15.4788	0.462
15.52	0.457
15.5612	0.452
15.6023	0.447
15.6435	0.44
15.6847	0.44
15.7259	0.438
15.7671	0.433
15.8082	0.43
15.8494	0.428
15.8906	0.424
