Infrared Spectrum: PHOSPHONIC ACID, TRIMETHYLENEDI-, TETRAETHYL ESTER
Formula: C11 H26 O6 P2
CAS: 22401-25-8
State: SOLID (NUJOL MULL)
Class: COBLENTZ
Instrument: Not specified, most likely a prism, grating, or hybrid spectrometer.
Sampling: TRANSMISSION
Path length: SMEAR
Resolution: 4
Origin: TENNESSEE EASTMAN COMPANY, RESEARCH LABORATORIES
MICROMETERS	TRANSMITTANCE
2.041	0.917
2.07989	0.915
2.11877	0.912
2.15766	0.917
2.19654	0.907
2.23543	0.857
2.27431	0.844
2.3132	0.852
2.35208	0.881
2.39097	0.883
2.42985	0.883
2.46874	0.885
2.50762	0.893
2.54651	0.896
2.58539	0.907
2.62428	0.914
2.66316	0.912
2.70205	0.909
2.74093	0.891
2.77982	0.809
2.8187	0.707
2.85759	0.686
2.89647	0.723
2.93536	0.781
2.97424	0.855
3.01313	0.873
3.05201	0.881
3.0909	0.886
3.12978	0.893
3.16867	0.891
3.20755	0.893
3.24644	0.855
3.28532	0.752
3.32421	0.318
3.36309	0.111
3.40198	0.16
3.44086	0.296
3.47975	0.622
3.51863	0.768
3.55752	0.825
3.5964	0.849
3.63529	0.865
3.67417	0.888
3.71306	0.912
3.75194	0.925
3.79083	0.93
3.82971	0.935
3.8686	0.94
3.90748	0.944
3.94637	0.949
3.98525	0.949
4.02414	0.948
4.06302	0.946
4.10191	0.93
4.14079	0.932
4.17968	0.933
4.21856	0.94
4.25745	0.951
4.29633	0.946
4.33522	0.941
4.3741	0.951
4.41299	0.953
4.45187	0.953
4.49076	0.951
4.52964	0.951
4.56853	0.951
4.60741	0.951
4.6463	0.954
4.68518	0.953
4.72407	0.948
4.76295	0.946
4.80184	0.949
4.84072	0.949
4.87961	0.956
4.91849	0.959
4.95738	0.959
4.99626	0.966
5.03515	0.961
5.07403	0.957
5.11292	0.959
5.1518	0.957
5.19069	0.956
5.22957	0.946
5.26846	0.944
5.30734	0.932
5.34623	0.909
5.38511	0.886
5.424	0.878
5.46288	0.878
5.50177	0.878
5.54065	0.885
5.57954	0.886
5.61842	0.888
5.65731	0.878
5.69619	0.865
5.73508	0.873
5.77396	0.875
5.81285	0.873
5.85173	0.889
5.89062	0.893
5.9295	0.894
5.96839	0.886
6.00727	0.868
6.04616	0.851
6.08504	0.843
6.12393	0.849
6.16281	0.859
6.2017	0.831
6.24058	0.6
6.27947	0.833
6.31835	0.878
6.35724	0.875
6.39612	0.898
6.43501	0.904
6.47389	0.904
6.51278	0.893
6.55166	0.846
6.59055	0.652
6.62943	0.618
6.66832	0.673
6.7072	0.553
6.74609	0.5
6.78497	0.556
6.82386	0.49
6.86274	0.401
6.90163	0.323
6.94051	0.522
6.9794	0.601
7.01828	0.574
7.05717	0.454
7.09605	0.438
7.13494	0.328
7.17382	0.202
7.21271	0.38
7.25159	0.495
7.29048	0.412
7.32936	0.412
7.36825	0.511
7.40713	0.553
7.44602	0.679
7.4849	0.705
7.52379	0.669
7.56267	0.595
7.60156	0.564
7.64045	0.54
7.67933	0.407
7.71822	0.291
7.7571	0.231
7.79599	0.145
7.83487	0.114
7.87376	0.079
7.91264	0.055
7.95153	0.043
7.99041	0.035
8.0293	0.03
8.06818	0.025
8.10707	0.025
8.14595	0.025
8.18484	0.087
8.22372	0.229
8.26261	0.372
8.30149	0.402
8.34038	0.333
8.37926	0.317
8.41815	0.446
8.45703	0.425
8.49592	0.322
8.5348	0.15
8.57369	0.113
8.61257	0.177
8.65146	0.291
8.69034	0.391
8.72923	0.42
8.76811	0.444
8.807	0.443
8.84588	0.433
8.88477	0.38
8.92365	0.344
8.96254	0.299
9.00142	0.215
9.04031	0.152
9.07919	0.1
9.11808	0.09
9.15696	0.095
9.19585	0.105
9.23473	0.097
9.27362	0.067
9.3125	0.051
9.35139	0.046
9.39027	0.042
9.42916	0.037
9.46804	0.035
9.50693	0.033
9.54581	0.033
9.5847	0.033
9.62358	0.035
9.66247	0.033
9.70135	0.037
9.74024	0.037
9.77912	0.04
9.81801	0.04
9.85689	0.042
9.89578	0.055
9.93466	0.074
9.97355	0.095
10.0124	0.127
10.0513	0.129
10.0902	0.105
10.1291	0.071
10.168	0.059
10.2069	0.053
10.2457	0.048
10.2846	0.046
10.3235	0.048
10.3624	0.048
10.4013	0.048
10.4402	0.046
10.4791	0.046
10.5179	0.045
10.5568	0.045
10.5957	0.048
10.6346	0.046
10.6735	0.053
10.7124	0.058
10.7512	0.082
10.7901	0.16
10.829	0.3
10.8679	0.417
10.9068	0.521
10.9457	0.584
10.9846	0.627
11.0234	0.66
11.0623	0.69
11.1012	0.703
11.1401	0.72
11.179	0.737
11.2179	0.745
11.2568	0.762
11.2956	0.768
11.3345	0.773
11.3734	0.773
11.4123	0.765
11.4512	0.75
11.4901	0.737
11.5289	0.687
11.5678	0.618
11.6067	0.522
11.6456	0.475
11.6845	0.427
11.7234	0.415
11.7623	0.42
11.8011	0.449
11.84	0.509
11.8789	0.53
11.9178	0.569
11.9567	0.576
11.9956	0.577
12.0345	0.567
12.0733	0.512
12.1122	0.485
12.1511	0.43
12.19	0.368
12.2289	0.336
12.2678	0.313
12.3066	0.294
12.3455	0.275
12.3844	0.25
12.4233	0.229
12.4622	0.197
12.5011	0.174
12.54	0.169
12.5788	0.161
12.6177	0.16
12.6566	0.158
12.6955	0.153
12.7344	0.155
12.7733	0.161
12.8122	0.176
12.851	0.187
12.8899	0.226
12.9288	0.263
12.9677	0.292
13.0066	0.325
13.0455	0.339
13.0843	0.368
13.1232	0.385
13.1621	0.402
13.201	0.427
13.2399	0.433
13.2788	0.446
13.3177	0.462
13.3565	0.482
13.3954	0.519
13.4343	0.538
13.4732	0.566
13.5121	0.587
13.551	0.592
13.5899	0.598
13.6287	0.6
13.6676	0.603
13.7065	0.608
13.7454	0.616
13.7843	0.618
13.8232	0.624
13.8621	0.629
13.9009	0.627
13.9398	0.626
13.9787	0.619
14.0176	0.611
14.0565	0.613
14.0954	0.61
14.1342	0.608
14.1731	0.605
14.212	0.603
14.2509	0.6
14.2898	0.6
14.3287	0.595
14.3676	0.593
14.4064	0.597
14.4453	0.614
14.4842	0.624
14.5231	0.66
14.562	0.686
14.6009	0.708
14.6398	0.741
14.6786	0.757
14.7175	0.773
14.7564	0.794
14.7953	0.812
14.8342	0.836
14.8731	0.843
14.9119	0.852
14.9508	0.864
14.9897	0.875
15.0286	0.885
15.0675	0.891
15.1064	0.896
15.1453	0.904
15.1841	0.911
15.223	0.917
15.2619	0.922
15.3008	0.928
15.3397	0.933
15.3786	0.936
15.4175	0.944
15.4563	0.946
15.4952	0.948
15.5341	0.949
15.573	0.951
15.6119	0.956
15.6508	0.959
15.6896	0.961
15.7285	0.962
15.7674	0.966
15.8063	0.969
15.8452	0.974
15.8841	0.978
15.923	0.98
