Infrared Spectrum: 2-BENZIMIDAZOLEETHANETHIOL
Formula: C9 H10 N2 S
CAS: 2242-96-8
State: SOLID (0.8 mg / 650 mg KBr DISC)
Class: COBLENTZ III
Instrument: PERKIN-ELMER 221 (GRATING)
Instrument parameters: GRATING FOR 4000-1428, FILTERS AT 2490, 980, NaCl PRISM FOR 1428-650 CM^-^1
Sampling: TRANSMISSION
Resolution: 4
Origin: SOUTHERN RESEARCH INSTITUTE
1/CM	TRANSMITTANCE
608.052	0.989
617.153	0.989
626.253	0.9891
635.354	0.9881
644.455	0.9678
653.556	0.9603
662.656	0.9502
671.757	0.9244
680.858	0.8997
689.959	0.847
699.059	0.886
708.16	0.8574
717.261	0.8088
726.362	0.694
735.462	0.7767
744.563	0.7039
753.664	0.2083
762.765	0.3502
771.865	0.4193
780.966	0.7793
790.067	0.8094
799.168	0.8076
808.268	0.788
817.369	0.7645
826.47	0.7144
835.571	0.6942
844.671	0.6766
853.772	0.6555
862.873	0.6949
871.974	0.6905
881.074	0.704
890.175	0.7221
899.276	0.7515
908.377	0.692
917.477	0.7367
926.578	0.7689
935.679	0.7511
944.78	0.7352
953.88	0.8021
962.981	0.809
972.082	0.8032
981.183	0.803
990.283	0.7801
999.384	0.7451
1008.48	0.6597
1017.59	0.6399
1026.69	0.29
1035.79	0.5204
1044.89	0.7159
1053.99	0.7636
1063.09	0.824
1072.19	0.821
1081.29	0.818
1090.39	0.817
1099.49	0.818
1108.59	0.818
1117.69	0.7988
1126.79	0.8137
1135.9	0.8078
1145	0.7907
1154.1	0.7787
1163.2	0.7555
1172.3	0.7483
1181.4	0.7768
1190.5	0.7385
1199.6	0.6485
1208.7	0.646
1217.8	0.6684
1226.9	0.3232
1236	0.6947
1245.1	0.6852
1254.2	0.578
1263.31	0.5353
1272.41	0.112
1281.51	0.612
1290.61	0.7384
1299.71	0.73
1308.81	0.7483
1317.91	0.6572
1327.01	0.311
1336.11	0.6583
1345.21	0.757
1354.31	0.7495
1363.41	0.7262
1372.51	0.6778
1381.62	0.6569
1390.72	0.5491
1399.82	0.3099
1408.92	0.0638
1418.02	0.3126
1427.12	0.3751
1436.22	0.35
1445.32	0.3246
1454.42	0.2659
1463.52	0.3894
1472.62	0.768
1481.72	0.7282
1490.82	0.7895
1499.93	0.807
1509.03	0.764
1518.13	0.7174
1527.23	0.6073
1536.33	0.406
1545.43	0.4777
1554.53	0.7351
1563.63	0.7966
1572.73	0.8014
1581.83	0.7953
1590.93	0.7289
1600.03	0.7782
1609.13	0.7351
1618.23	0.6173
1627.34	0.6392
1636.44	0.7513
1645.54	0.7605
1654.64	0.7645
1663.74	0.7649
1672.84	0.7666
1681.94	0.7597
1691.04	0.7508
1700.14	0.7627
1709.24	0.767
1718.34	0.769
1727.44	0.765
1736.54	0.765
1745.65	0.7792
1754.75	0.7843
1763.85	0.7824
1772.95	0.7839
1782.05	0.775
1791.15	0.753
1800.25	0.753
1809.35	0.771
1818.45	0.78
1827.55	0.7821
1836.65	0.7839
1845.75	0.796
1854.85	0.7948
1863.95	0.7926
1873.06	0.7862
1882.16	0.7877
1891.26	0.7903
1900.36	0.7736
1909.46	0.7462
1918.56	0.7849
1927.66	0.794
1936.76	0.7783
1945.86	0.7726
1954.96	0.795
1964.06	0.8
1973.16	0.7996
1982.26	0.7966
1991.37	0.799
2000.47	0.8003
2009.57	0.7899
2018.67	0.7904
2027.77	0.792
2036.87	0.792
2045.97	0.791
2055.07	0.791
2064.17	0.788
2073.27	0.7876
2082.37	0.7813
2091.47	0.7796
2100.57	0.779
2109.67	0.779
2118.78	0.7763
2127.88	0.7736
2136.98	0.77
2146.08	0.77
2155.18	0.77
2164.28	0.7683
2173.38	0.767
2182.48	0.767
2191.58	0.766
2200.68	0.764
2209.78	0.764
2218.88	0.7606
2227.98	0.758
2237.09	0.758
2246.19	0.757
2255.29	0.7513
2264.39	0.7476
2273.49	0.744
2282.59	0.743
2291.69	0.741
2300.79	0.7383
2309.89	0.7356
2318.99	0.7333
2328.09	0.731
2337.19	0.7209
2346.29	0.704
2355.4	0.7033
2364.5	0.701
2373.6	0.698
2382.7	0.697
2391.8	0.696
2400.9	0.6876
2410	0.6796
2419.1	0.6753
2428.2	0.6666
2437.3	0.6546
2446.4	0.6439
2455.5	0.629
2464.6	0.6276
2473.7	0.627
2482.81	0.6236
2491.91	0.6049
2501.01	0.5846
2510.11	0.578
2519.21	0.581
2528.31	0.5776
2537.41	0.572
2546.51	0.556
2555.61	0.481
2564.71	0.4573
2573.81	0.4896
2582.91	0.5023
2592.01	0.4933
2601.12	0.488
2610.22	0.4776
2619.32	0.4599
2628.42	0.4333
2637.52	0.4092
2646.62	0.4034
2655.72	0.4203
2664.82	0.4086
2673.92	0.401
2683.02	0.3963
2692.12	0.3846
2701.22	0.3773
2710.32	0.3595
2719.42	0.3389
2728.53	0.31
2737.63	0.32
2746.73	0.3209
2755.83	0.2933
2764.93	0.272
2774.03	0.2804
2783.13	0.3048
2792.23	0.336
2801.33	0.3256
2810.43	0.3099
2819.53	0.2933
2828.63	0.2726
2837.73	0.2703
2846.84	0.267
2855.94	0.263
2865.04	0.2814
2874.14	0.2879
2883.24	0.2566
2892.34	0.2376
2901.44	0.238
2910.54	0.2514
2919.64	0.2794
2928.74	0.2726
2937.84	0.263
2946.94	0.2757
2956.04	0.281
2965.14	0.2726
2974.25	0.2663
2983.35	0.2539
2992.45	0.2594
3001.55	0.2831
3010.65	0.2919
3019.75	0.275
3028.85	0.2885
3037.95	0.303
3047.05	0.2959
3056.15	0.2984
3065.25	0.3133
3074.35	0.311
3083.45	0.302
3092.56	0.3251
3101.66	0.3527
3110.76	0.3838
3119.86	0.4144
3128.96	0.4335
3138.06	0.4531
3147.16	0.473
3156.26	0.4734
3165.36	0.4874
3174.46	0.5224
3183.56	0.5507
3192.66	0.5724
3201.76	0.5867
3210.87	0.5961
3219.97	0.6074
3229.07	0.62
3238.17	0.6244
3247.27	0.631
3256.37	0.6494
3265.47	0.6551
3274.57	0.661
3283.67	0.6616
3292.77	0.6674
3301.87	0.664
3310.97	0.664
3320.07	0.662
3329.17	0.662
3338.28	0.6536
3347.38	0.65
3356.48	0.6406
3365.58	0.6326
3374.68	0.6236
3383.78	0.6166
3392.88	0.6076
3401.98	0.602
3411.08	0.5974
3420.18	0.599
3429.28	0.594
3438.38	0.5984
3447.48	0.5976
3456.59	0.5934
3465.69	0.5984
3474.79	0.6024
3483.89	0.603
3492.99	0.601
3502.09	0.6047
3511.19	0.6114
3520.29	0.615
3529.39	0.619
3538.49	0.6211
3547.59	0.6284
3556.69	0.632
3565.79	0.636
3574.89	0.634
3584	0.6427
3593.1	0.646
3602.2	0.6494
3611.3	0.657
3620.4	0.661
3629.5	0.666
3638.6	0.666
3647.7	0.671
3656.8	0.667
3665.9	0.666
3675	0.667
3684.1	0.6647
3693.2	0.6647
3702.31	0.663
3711.41	0.666
3720.51	0.666
3729.61	0.666
3738.71	0.666
3747.81	0.664
3756.91	0.663
