Infrared Spectrum: 6Alpha,11Beta,17Alpha,21-TETRAHYDROXYPREGN-4-ENE-3,20-DOINE
Formula: C21 H30 O6
CAS: 2242-98-0
State: SOLID (KBr DISC)
Class: COBLENTZ III
Instrument: BECKMAN IR-7
Sampling: TRANSMISSION
Resolution: 4
Origin: THE WORCESTER FOUNDATION FOR EXPERIMENTAL BIOLOGY, Neal L. McNiven
1/CM	TRANSMITTANCE
597.808	0.333
606.576	0.291
615.345	0.232
624.113	0.3
632.881	0.329
641.649	0.328
650.418	0.333
659.186	0.369
667.954	0.377
676.723	0.394
685.491	0.353
694.259	0.334
703.027	0.343
711.796	0.375
720.564	0.343
729.332	0.417
738.101	0.441
746.869	0.416
755.637	0.513
764.405	0.4191
773.174	0.402
781.942	0.468
790.71	0.527
799.479	0.606
808.247	0.674
817.015	0.718
825.783	0.731
834.552	0.788
843.32	0.8
852.088	0.807
860.857	0.679
869.625	0.742
878.393	0.654
887.162	0.375
895.93	0.4569
904.698	0.6359
913.466	0.506
922.235	0.551
931.003	0.69
939.771	0.718
948.54	0.458
957.308	0.586
966.076	0.629
974.844	0.712
983.613	0.488
992.381	0.641
1001.15	0.564
1009.92	0.402
1018.69	0.3361
1027.45	0.277
1036.22	0.313
1044.99	0.452
1053.76	0.428
1062.53	0.346
1071.3	0.236
1080.06	0.129
1088.83	0.315
1097.6	0.33
1106.37	0.247
1115.14	0.2709
1123.91	0.287
1132.67	0.37
1141.44	0.472
1150.21	0.645
1158.98	0.685
1167.75	0.537
1176.52	0.694
1185.28	0.582
1194.05	0.513
1202.82	0.5499
1211.59	0.59
1220.36	0.597
1229.12	0.587
1237.89	0.343
1246.66	0.525
1255.43	0.527
1264.2	0.46
1272.97	0.57
1281.73	0.407
1290.5	0.475
1299.27	0.355
1308.04	0.373
1316.81	0.47
1325.58	0.41
1334.34	0.547
1343.11	0.407
1351.88	0.515
1360.65	0.533
1369.42	0.513
1378.19	0.517
1386.95	0.47
1395.72	0.541
1404.49	0.428
1413.26	0.341
1422.03	0.344
1430.8	0.551
1439.56	0.518
1448.33	0.333
1457.1	0.297
1465.87	0.461
1474.64	0.599
1483.41	0.722
1492.17	0.774
1500.94	0.798
1509.71	0.812
1518.48	0.824
1527.25	0.829
1536.01	0.823
1544.78	0.816
1553.55	0.806
1562.32	0.8
1571.09	0.776
1579.86	0.748
1588.62	0.695
1597.39	0.609
1606.16	0.544
1614.93	0.433
1623.7	0.218
1632.47	0.095
1641.23	0.031
1650	0.0641
1658.77	0.161
1667.54	0.275
1676.31	0.45
1685.08	0.579
1693.84	0.657
1702.61	0.693
1711.38	0.631
1720.15	0.346
1728.92	0.182
1737.69	0.49
1746.45	0.736
1755.22	0.803
1763.99	0.857
1772.76	0.894
1781.53	0.902
1790.3	0.907
1799.06	0.922
1807.83	0.933
1816.6	0.937
1825.37	0.938
1834.14	0.94
1842.9	0.95
1851.67	0.955
1860.44	0.955
1869.21	0.958
1877.98	0.957
1886.75	0.955
1895.51	0.954
1904.28	0.953
1913.05	0.958
1921.82	0.957
1930.59	0.957
1939.36	0.957
1948.12	0.957
1956.89	0.957
1965.66	0.956
1974.43	0.955
1983.2	0.953
1991.97	0.951
2000.73	0.9487
2009.5	0.947
2018.27	0.9467
2027.04	0.9456
2035.81	0.944
2044.58	0.944
2053.34	0.943
2062.11	0.942
2070.88	0.9414
2079.65	0.941
2088.42	0.941
2097.19	0.94
2105.95	0.939
2114.72	0.939
2123.49	0.938
2132.26	0.937
2141.03	0.936
2149.79	0.936
2158.56	0.934
2167.33	0.933
2176.1	0.931
2184.87	0.929
2193.64	0.928
2202.4	0.926
2211.17	0.9248
2219.94	0.923
2228.71	0.9217
2237.48	0.9196
2246.25	0.9176
2255.01	0.9156
2263.78	0.9135
2272.55	0.9115
2281.32	0.9094
2290.09	0.907
2298.86	0.9043
2307.62	0.9013
2316.39	0.8975
2325.16	0.8942
2333.93	0.8902
2342.7	0.8871
2351.47	0.886
2360.23	0.8831
2369	0.882
2377.77	0.88
2386.54	0.8769
2395.31	0.8739
2404.08	0.871
2412.84	0.8666
2421.61	0.8563
2430.38	0.8507
2439.15	0.8473
2447.92	0.8399
2456.69	0.8336
2465.45	0.833
2474.22	0.835
2482.99	0.835
2491.76	0.833
2500.53	0.8304
2509.29	0.8253
2518.06	0.8223
2526.83	0.8213
2535.6	0.82
2544.37	0.818
2553.14	0.8151
2561.9	0.8131
2570.67	0.8013
2579.44	0.79
2588.21	0.7809
2596.98	0.7748
2605.75	0.7678
2614.51	0.7638
2623.28	0.7578
2632.05	0.7511
2640.82	0.7442
2649.59	0.7371
2658.36	0.7196
2667.12	0.7128
2675.89	0.7066
2684.66	0.7035
2693.43	0.6994
2702.2	0.693
2710.97	0.692
2719.73	0.6903
2728.5	0.6842
2737.27	0.6775
2746.04	0.6717
2754.81	0.6664
2763.58	0.651
2772.34	0.6257
2781.11	0.6102
2789.88	0.6
2798.65	0.5889
2807.42	0.568
2816.18	0.5259
2824.95	0.5096
2833.72	0.3919
2842.49	0.2918
2851.26	0.3728
2860.03	0.344
2868.79	0.3044
2877.56	0.2754
2886.33	0.2375
2895.1	0.1899
2903.87	0.1514
2912.64	0.2046
2921.4	0.198
2930.17	0.29
2938.94	0.2876
2947.71	0.2816
2956.48	0.278
2965.25	0.2991
2974.01	0.359
2982.78	0.4173
2991.55	0.4364
3000.32	0.4668
3009.09	0.4972
3017.86	0.5263
3026.62	0.537
3035.39	0.5379
3044.16	0.5132
3052.93	0.487
3061.7	0.4622
3070.47	0.4418
3079.23	0.4185
3088	0.3914
3096.77	0.3684
3105.54	0.3441
3114.31	0.3299
3123.07	0.3038
3131.84	0.2812
3140.61	0.2646
3149.38	0.247
3158.15	0.2318
3166.92	0.2239
3175.68	0.2162
3184.45	0.2103
3193.22	0.2061
3201.99	0.2031
3210.76	0.201
3219.53	0.198
3228.29	0.1929
3237.06	0.1847
3245.83	0.1761
3254.6	0.1648
3263.37	0.1638
3272.14	0.161
3280.9	0.159
3289.67	0.1573
3298.44	0.1526
3307.21	0.1491
3315.98	0.1391
3324.75	0.1234
3333.51	0.1154
3342.28	0.1178
3351.05	0.1253
3359.82	0.1321
3368.59	0.1374
3377.36	0.1362
3386.12	0.1286
3394.89	0.1205
3403.66	0.1036
3412.43	0.1006
3421.2	0.1
3429.97	0.09
3438.73	0.0839
3447.5	0.0687
3456.27	0.0599
3465.04	0.0612
3473.81	0.0813
3482.57	0.1125
3491.34	0.1429
3500.11	0.1639
3508.88	0.2018
3517.65	0.2461
3526.42	0.3147
3535.18	0.3671
3543.95	0.4188
3552.72	0.4639
3561.49	0.5394
3570.26	0.5814
3579.03	0.6084
3587.79	0.6438
3596.56	0.7034
3605.33	0.7336
3614.1	0.7562
3622.87	0.7775
3631.64	0.7947
3640.4	0.811
3649.17	0.8252
3657.94	0.8361
3666.71	0.8401
3675.48	0.8442
3684.25	0.8484
3693.01	0.8513
3701.78	0.851
3710.55	0.851
3719.32	0.8524
3728.09	0.854
3736.86	0.8545
3745.62	0.855
3754.39	0.856
3763.16	0.856
3771.93	0.856
3780.7	0.855
3789.46	0.8543
3798.23	0.8517
3807	0.849
3815.77	0.849
3824.54	0.8499
3833.31	0.851
3842.07	0.852
3850.84	0.852
3859.61	0.851
3868.38	0.8509
3877.15	0.8489
3885.92	0.846
3894.68	0.8448
3903.45	0.843
3912.22	0.8417
3920.99	0.8397
3929.76	0.838
3938.53	0.8366
3947.29	0.835
3956.06	0.835
3964.83	0.836
3973.6	0.837
3982.37	0.836
3991.14	0.836
3999.9	0.838
