Infrared Spectrum: 2-NAPHTHYLHYDRAZINE HYDROCHLORIDE
Formula: C10 H10 N2  * H Cl
CAS: 2243-58-5
State: SOLID (MINERAL OIL MULL)
Melting point: 233 C (DECOMPOSE)
Class: COBLENTZ
Instrument: Not specified, most likely a prism, grating, or hybrid spectrometer.
Sampling: TRANSMISSION
Resolution: 4
Origin: WYANDOTTE CHEMICALS CORP., WYANDOTTE, MICHIGAN, USA
MICROMETERS	TRANSMITTANCE
2.012	0.236
2.04919	0.241
2.08637	0.244
2.12356	0.242
2.16075	0.245
2.19793	0.245
2.23512	0.244
2.27231	0.244
2.30949	0.251
2.34668	0.272
2.38387	0.278
2.42105	0.279
2.45824	0.289
2.49543	0.297
2.53261	0.306
2.5698	0.311
2.60699	0.312
2.64417	0.318
2.68136	0.331
2.71855	0.342
2.75573	0.348
2.79292	0.351
2.83011	0.356
2.86729	0.359
2.90448	0.363
2.94167	0.374
2.97885	0.382
3.01604	0.405
3.05323	0.427
3.09041	0.405
3.1276	0.283
3.16479	0.178
3.20197	0.153
3.23916	0.132
3.27635	0.13
3.31353	0.13
3.35072	0.122
3.38791	0.115
3.42509	0.115
3.46228	0.116
3.49947	0.118
3.53666	0.124
3.57384	0.153
3.61103	0.161
3.64822	0.185
3.6854	0.186
3.72259	0.178
3.75978	0.171
3.79696	0.177
3.83415	0.197
3.87134	0.202
3.90852	0.202
3.94571	0.203
3.9829	0.206
4.02008	0.222
4.05727	0.242
4.09446	0.265
4.13164	0.283
4.16883	0.293
4.20602	0.3
4.2432	0.314
4.28039	0.329
4.31758	0.351
4.35476	0.373
4.39195	0.396
4.42914	0.418
4.46632	0.424
4.50351	0.44
4.5407	0.454
4.57788	0.465
4.61507	0.488
4.65226	0.494
4.68944	0.502
4.72663	0.508
4.76382	0.517
4.801	0.52
4.83819	0.53
4.87538	0.53
4.91256	0.527
4.94975	0.502
4.98694	0.482
5.02412	0.472
5.06131	0.494
5.0985	0.519
5.13568	0.536
5.17287	0.548
5.21006	0.542
5.24724	0.539
5.28443	0.511
5.32162	0.536
5.3588	0.587
5.39599	0.614
5.43318	0.622
5.47036	0.625
5.50755	0.623
5.54474	0.623
5.58192	0.626
5.61911	0.656
5.6563	0.659
5.69348	0.662
5.73067	0.659
5.76786	0.67
5.80504	0.671
5.84223	0.648
5.87942	0.665
5.9166	0.66
5.95379	0.657
5.99098	0.693
6.02816	0.657
6.06535	0.374
6.10254	0.482
6.13972	0.519
6.17691	0.214
6.2141	0.281
6.25128	0.256
6.28847	0.295
6.32566	0.387
6.36284	0.443
6.40003	0.371
6.43722	0.368
6.4744	0.346
6.51159	0.326
6.54878	0.326
6.58597	0.265
6.62315	0.233
6.66034	0.161
6.69753	0.16
6.73471	0.203
6.7719	0.178
6.80909	0.155
6.84627	0.181
6.88346	0.23
6.92065	0.311
6.95783	0.479
6.99502	0.573
7.03221	0.604
7.06939	0.629
7.10658	0.6
7.14377	0.527
7.18095	0.461
7.21814	0.334
7.25533	0.269
7.29251	0.371
7.3297	0.457
7.36689	0.569
7.40407	0.595
7.44126	0.612
7.47845	0.659
7.51563	0.696
7.55282	0.701
7.59001	0.702
7.62719	0.707
7.66438	0.715
7.70157	0.721
7.73875	0.702
7.77594	0.547
7.81313	0.423
7.85031	0.472
7.8875	0.581
7.92469	0.611
7.96187	0.6
7.99906	0.701
8.03625	0.74
8.07343	0.73
8.11062	0.662
8.14781	0.676
8.18499	0.525
8.22218	0.335
8.25937	0.283
8.29655	0.388
8.33374	0.506
8.37093	0.497
8.40811	0.325
8.4453	0.376
8.48249	0.469
8.51967	0.465
8.55686	0.447
8.59405	0.52
8.63123	0.472
8.66842	0.576
8.70561	0.651
8.74279	0.66
8.77998	0.688
8.81717	0.608
8.85435	0.59
8.89154	0.716
8.92873	0.749
8.96591	0.758
9.0031	0.754
9.04029	0.754
9.07747	0.754
9.11466	0.749
9.15185	0.746
9.18903	0.729
9.22622	0.732
9.26341	0.737
9.30059	0.74
9.33778	0.751
9.37497	0.749
9.41215	0.732
9.44934	0.685
9.48653	0.545
9.52372	0.471
9.5609	0.567
9.59809	0.51
9.63528	0.561
9.67246	0.723
9.70965	0.771
9.74684	0.734
9.78402	0.637
9.82121	0.72
9.8584	0.799
9.89558	0.824
9.93277	0.839
9.96996	0.847
10.0071	0.853
10.0443	0.844
10.0815	0.828
10.1187	0.818
10.1559	0.802
10.1931	0.766
10.2303	0.692
10.2674	0.561
10.3046	0.412
10.3418	0.388
10.379	0.413
10.4162	0.542
10.4534	0.601
10.4906	0.483
10.5278	0.618
10.5649	0.732
10.6021	0.656
10.6393	0.561
10.6765	0.424
10.7137	0.421
10.7509	0.363
10.7881	0.311
10.8252	0.39
10.8624	0.402
10.8996	0.522
10.9368	0.727
10.974	0.839
11.0112	0.894
11.0484	0.919
11.0856	0.922
11.1227	0.903
11.1599	0.883
11.1971	0.835
11.2343	0.79
11.2715	0.727
11.3087	0.648
11.3459	0.545
11.3831	0.426
11.4202	0.276
11.4574	0.211
11.4946	0.172
11.5318	0.163
11.569	0.178
11.6062	0.205
11.6434	0.219
11.6805	0.202
11.7177	0.18
11.7549	0.177
11.7921	0.195
11.8293	0.278
11.8665	0.37
11.9037	0.404
11.9409	0.382
11.978	0.401
12.0152	0.438
12.0524	0.437
12.0896	0.438
12.1268	0.48
12.164	0.548
12.2012	0.598
12.2383	0.623
12.2755	0.604
12.3127	0.527
12.3499	0.32
12.3871	0.237
12.4243	0.247
12.4615	0.303
12.4987	0.281
12.5358	0.233
12.573	0.455
12.6102	0.673
12.6474	0.766
12.6846	0.819
12.7218	0.852
12.759	0.869
12.7961	0.889
12.8333	0.902
12.8705	0.905
12.9077	0.903
12.9449	0.906
12.9821	0.912
13.0193	0.912
13.0565	0.894
13.0936	0.765
13.1308	0.622
13.168	0.744
13.2052	0.858
13.2424	0.889
13.2796	0.905
13.3168	0.894
13.3539	0.872
13.3911	0.814
13.4283	0.729
13.4655	0.622
13.5027	0.461
13.5399	0.295
13.5771	0.199
13.6143	0.199
13.6514	0.262
13.6886	0.298
13.7258	0.262
13.763	0.345
13.8002	0.528
13.8374	0.653
13.8746	0.695
13.9117	0.743
13.9489	0.8
13.9861	0.83
14.0233	0.85
14.0605	0.875
14.0977	0.883
14.1349	0.884
14.1721	0.855
14.2092	0.794
14.2464	0.679
14.2836	0.511
14.3208	0.407
14.358	0.362
14.3952	0.351
14.4324	0.321
14.4695	0.318
14.5067	0.391
14.5439	0.502
14.5811	0.598
14.6183	0.685
14.6555	0.751
14.6927	0.785
14.7299	0.821
14.767	0.83
14.8042	0.85
14.8414	0.85
14.8786	0.861
14.9158	0.866
14.953	0.858
14.9902	0.825
15.0273	0.765
15.0645	0.698
15.1017	0.673
15.1389	0.692
15.1761	0.732
15.2133	0.771
15.2505	0.783
15.2877	0.788
15.3248	0.783
15.362	0.776
15.3992	0.766
15.4364	0.752
15.4736	0.734
15.5108	0.727
15.548	0.701
15.5851	0.682
15.6223	0.632
15.6595	0.572
15.6967	0.52
15.7339	0.479
15.7711	0.485
15.8083	0.511
15.8455	0.525
15.8826	0.531
15.9198	0.534
15.957	0.531
15.9942	0.503
