Infrared Spectrum: 1-Naphthalamide
Formula: C 11 H 9 N O
CAS: 2243-81-4
State: gas
Origin: EPA-IR VAPOR PHASE LIBRARY
1/CM	ABSORBANCE
549.8	0.00327
559.445	0.00322
569.09	0.00243
578.734	0.00144
588.379	0.00108
598.024	0.0032
607.669	0.00488
617.313	0.00182
626.958	0.00142
636.603	0.0018
646.248	0.0018
655.893	0.00123
665.537	0.00153
675.182	0.00194
684.827	0.00214
694.472	0.00246
704.116	0.0018
713.761	0.00144
723.406	0.00151
733.051	0.00168
742.695	0.00186
752.34	0.00294
761.985	0.0071
771.63	0.01628
781.275	0.01927
790.919	0.01175
800.564	0.00822
810.209	0.0053
819.854	0.00309
829.498	0.00275
839.143	0.00277
848.788	0.00259
858.433	0.00283
868.078	0.00252
877.722	0.00195
887.367	0.00179
897.012	0.00177
906.657	0.00195
916.301	0.00179
925.946	0.00187
935.591	0.00182
945.236	0.00154
954.88	0.00169
964.525	0.00189
974.17	0.00164
983.815	0.00174
993.46	0.00212
1003.1	0.00195
1012.75	0.00129
1022.39	0.00149
1032.04	0.0009943
1041.68	0.00122
1051.33	0.0009434
1060.97	0.00114
1070.62	0.0013
1080.26	0.0018
1089.91	0.0022
1099.55	0.00115
1109.2	0.0009167
1118.84	0.00142
1128.49	0.00135
1138.13	0.00131
1147.78	0.00188
1157.42	0.00139
1167.07	0.0006717
1176.71	0.0007977
1186.36	0.00113
1196	0.00129
1205.64	0.00232
1215.29	0.00244
1224.93	0.00183
1234.58	0.00102
1244.22	0.00238
1253.87	0.00454
1263.51	0.00416
1273.16	0.0024
1282.8	0.00279
1292.45	0.00449
1302.09	0.00674
1311.74	0.01039
1321.38	0.01752
1331.03	0.02144
1340.67	0.01594
1350.32	0.00894
1359.96	0.00463
1369.61	0.00285
1379.25	0.00199
1388.9	0.0019
1398.54	0.00228
1408.18	0.00183
1417.83	0.00137
1427.47	0.00122
1437.12	0.00118
1446.76	0.00115
1456.41	0.00144
1466.05	0.00138
1475.7	0.0009948
1485.34	0.0011
1494.99	0.00203
1504.63	0.0036
1514.28	0.00329
1523.92	0.0019
1533.57	0.0017
1543.21	0.00194
1552.86	0.00267
1562.5	0.00496
1572.15	0.01295
1581.79	0.02132
1591.44	0.01526
1601.08	0.00661
1610.73	0.00338
1620.37	0.00249
1630.01	0.00222
1639.66	0.00212
1649.3	0.00223
1658.95	0.0027
1668.59	0.00389
1678.24	0.00594
1687.88	0.00828
1697.53	0.01217
1707.17	0.02873
1716.82	0.04939
1726.46	0.03286
1736.11	0.01229
1745.75	0.00643
1755.4	0.00408
1765.04	0.00298
1774.69	0.00229
1784.33	0.00144
1793.98	0.0009281
1803.62	0.00112
1813.27	0.00141
1822.91	0.00113
1832.55	0.0009188
1842.2	0.0008629
1851.84	0.0007021
1861.49	0.0007908
1871.13	0.0008165
1880.78	0.0008068
1890.42	0.0007308
1900.07	0.000716
1909.71	0.0009458
1919.36	0.00116
1929	0.0012
1938.65	0.0009757
1948.29	0.0008916
1957.94	0.0005874
1967.58	0.0004857
1977.23	0.0003996
1986.87	0.0004412
1996.52	0.0003345
2006.16	0.0002833
2015.81	0.0003742
2025.45	0.0003682
2035.1	0.0003378
2044.74	0.0004167
2054.38	0.000472
2064.03	0.0003232
2073.67	0.0003688
2083.32	0.0004091
2092.96	0.0003854
2102.61	0.0003834
2112.25	0.0003222
2121.9	0.0003467
2131.54	0.0003941
2141.19	0.0003566
2150.83	0.0003968
2160.48	0.0003432
2170.12	0.0003447
2179.77	0.0003787
2189.41	0.0003401
2199.06	0.0002856
2208.7	0.0003858
2218.35	0.0003634
2227.99	0.0002986
2237.64	0.0003416
2247.28	0.0003825
2256.92	0.0003949
2266.57	0.0004435
2276.21	0.0004004
2285.86	0.0004261
2295.5	0.0004198
2305.15	0.0003462
2314.79	0.0004118
2324.44	0.0004432
2334.08	0.0003427
2343.73	0.0003705
2353.37	0.0004325
2363.02	0.0002551
2372.66	0.0004278
2382.31	0.00032
2391.95	0.0004143
2401.6	0.0004724
2411.24	0.0004743
2420.89	0.0004598
2430.53	0.0004532
2440.18	0.0004196
2449.82	0.0003771
2459.47	0.0002762
2469.11	0.0004005
2478.75	0.0004109
2488.4	0.0002916
2498.04	0.0003954
2507.69	0.0004149
2517.33	0.0003504
2526.98	0.0003533
2536.62	0.0003493
2546.27	0.0004073
2555.91	0.0003278
2565.56	0.0003284
2575.2	0.0003569
2584.85	0.0003942
2594.49	0.0004041
2604.14	0.0003419
2613.78	0.0003504
2623.43	0.0003692
2633.07	0.0004854
2642.72	0.0002934
2652.36	0.0004575
2662.01	0.0003604
2671.65	0.0004313
2681.29	0.0003285
2690.94	0.00036
2700.58	0.0004523
2710.23	0.0003658
2719.87	0.0004306
2729.52	0.0003742
2739.16	0.0003869
2748.81	0.0003957
2758.45	0.0003173
2768.1	0.0004292
2777.74	0.0003184
2787.39	0.0004934
2797.03	0.0004951
2806.68	0.0004446
2816.32	0.0004551
2825.97	0.0003593
2835.61	0.0004022
2845.26	0.0004808
2854.9	0.0004112
2864.55	0.0004265
2874.19	0.0003858
2883.84	0.0004387
2893.48	0.0005531
2903.12	0.0004925
2912.77	0.0004493
2922.41	0.0005226
2932.06	0.0004935
2941.7	0.000665
2951.35	0.0007496
2960.99	0.0005765
2970.64	0.0005137
2980.28	0.0004506
2989.93	0.0006337
2999.57	0.00114
3009.22	0.00138
3018.86	0.00138
3028.51	0.0018
3038.15	0.0029
3047.8	0.00611
3057.44	0.00848
3067.09	0.00798
3076.73	0.00529
3086.38	0.00403
3096.02	0.00332
3105.67	0.00167
3115.31	0.0007927
3124.95	0.0006291
3134.6	0.0004864
3144.24	0.0008524
3153.89	0.0005403
3163.53	0.0006589
3173.18	0.0005068
3182.82	0.0004843
3192.47	0.0004156
3202.11	0.0005138
3211.76	0.0004358
3221.4	0.0004517
3231.05	0.0002702
3240.69	0.0006197
3250.34	0.0003624
3259.98	0.0004182
3269.63	0.0002163
3279.27	0.0002575
3288.92	0.000382
3298.56	0.0005618
3308.21	0.0004474
3317.85	0.00032
3327.49	0.0003406
3337.14	0.0003091
3346.78	0.0003584
3356.43	0.000269
3366.07	0.0006218
3375.72	0.00055
3385.36	0.0007447
3395.01	0.00103
3404.65	0.00226
3414.3	0.00403
3423.94	0.00522
3433.59	0.00507
3443.23	0.00234
3452.88	0.00124
3462.52	0.0009483
3472.17	0.0006151
3481.81	0.0007002
3491.46	0.0008862
3501.1	0.000935
3510.75	0.00118
3520.39	0.00201
3530.04	0.00254
3539.68	0.00312
3549.32	0.00377
3558.97	0.00286
3568.61	0.00122
3578.26	0.0004959
3587.9	0.0005568
3597.55	0.0001802
3607.19	0.0003076
3616.84	0.0003922
3626.48	0.0003642
3636.13	0.0002298
3645.77	0.0003671
3655.42	0.000287
3665.06	0.0001525
3674.71	0.0003631
3684.35	0.0003584
3694	0.0003287
3703.64	0.0004742
3713.29	0.0003531
3722.93	0.0003992
3732.58	0.0004185
3742.22	0.0005365
3751.86	0.0006027
3761.51	0.0005267
3771.15	0.000488
3780.8	0.000198
3790.44	0.0003619
3800.09	0.0001374
3809.73	0.0003374
3819.38	0.0002828
3829.02	0.0002004
3838.67	0.0005543
3848.31	0.0002978
3857.96	0.0004164
3867.6	8.326e-05
3877.25	0.0003206
3886.89	0.0002518
3896.54	0.000424
3906.18	0.0002487
3915.83	0.0002433
3925.47	0.0004432
3935.12	0.0002755
3944.76	0.0003711
3954.41	0.000211
3964.05	0.0002246
3973.69	0.000201
3983.34	0.0005435
3992.98	0.000406
