Infrared Spectrum: PHENACYLACETATE
Formula: C10 H10 O3
CAS: 2243-35-8
State: SOLID (MINERAL OIL MULL)
Melting point: 47-48 C
Class: COBLENTZ
Instrument: Not specified, most likely a prism, grating, or hybrid spectrometer.
Sampling: TRANSMISSION
Resolution: 4
Origin: WYANDOTTE CHEMICALS CORP., WYANDOTTE, MICHIGAN, USA
MICROMETERS	TRANSMITTANCE
2.04	0.49
2.07983	0.495
2.11966	0.497
2.15949	0.495
2.19931	0.489
2.23914	0.492
2.27897	0.499
2.3188	0.51
2.35863	0.52
2.39846	0.529
2.43829	0.532
2.47811	0.54
2.51794	0.55
2.55777	0.558
2.5976	0.557
2.63743	0.575
2.67726	0.585
2.71709	0.585
2.75691	0.59
2.79674	0.578
2.83657	0.568
2.8764	0.555
2.91623	0.555
2.95606	0.55
2.99588	0.563
3.03571	0.57
3.07554	0.578
3.11537	0.567
3.1552	0.563
3.19503	0.552
3.23486	0.426
3.27468	0.446
3.31451	0.248
3.35434	0.087
3.39417	0.082
3.434	0.152
3.47383	0.16
3.51366	0.451
3.55348	0.635
3.59331	0.679
3.63314	0.683
3.67297	0.691
3.7128	0.689
3.75263	0.701
3.79246	0.708
3.83228	0.716
3.87211	0.719
3.91194	0.734
3.95177	0.746
3.9916	0.749
4.03143	0.747
4.07126	0.749
4.11108	0.742
4.15091	0.752
4.19074	0.754
4.23057	0.751
4.2704	0.759
4.31023	0.782
4.35005	0.809
4.38988	0.819
4.42971	0.799
4.46954	0.802
4.50937	0.819
4.5492	0.815
4.58903	0.819
4.62885	0.824
4.66868	0.829
4.70851	0.837
4.74834	0.842
4.78817	0.847
4.828	0.837
4.86783	0.832
4.90765	0.85
4.94748	0.862
4.98731	0.87
5.02714	0.872
5.06697	0.868
5.1068	0.852
5.14663	0.868
5.18645	0.882
5.22628	0.859
5.26611	0.857
5.30594	0.9
5.34577	0.882
5.3856	0.887
5.42543	0.885
5.46525	0.86
5.50508	0.83
5.54491	0.849
5.58474	0.844
5.62457	0.757
5.6644	0.598
5.70422	0.175
5.74405	0.124
5.78388	0.266
5.82371	0.126
5.86354	0.106
5.90337	0.184
5.9432	0.394
5.98302	0.505
6.02285	0.595
6.06268	0.668
6.10251	0.737
6.14234	0.744
6.18217	0.502
6.222	0.562
6.26182	0.655
6.30165	0.771
6.34148	0.805
6.38131	0.834
6.42114	0.8
6.46097	0.776
6.5008	0.804
6.54062	0.83
6.58045	0.844
6.62028	0.85
6.66011	0.802
6.69994	0.761
6.73977	0.678
6.7796	0.421
6.81942	0.252
6.85925	0.286
6.89908	0.383
6.93891	0.223
6.97874	0.162
7.01857	0.325
7.05839	0.504
7.09822	0.623
7.13805	0.623
7.17788	0.525
7.21771	0.205
7.25754	0.142
7.29737	0.208
7.33719	0.575
7.37702	0.699
7.41685	0.726
7.45668	0.751
7.49651	0.786
7.53634	0.751
7.57617	0.789
7.61599	0.759
7.65582	0.623
7.69565	0.648
7.73548	0.565
7.77531	0.31
7.81514	0.339
7.85497	0.553
7.89479	0.515
7.93462	0.343
7.97445	0.169
8.01428	0.071
8.05411	0.112
8.09394	0.099
8.13377	0.071
8.17359	0.089
8.21342	0.179
8.25325	0.235
8.29308	0.315
8.33291	0.376
8.37274	0.422
8.41256	0.398
8.45239	0.47
8.49222	0.555
8.53205	0.601
8.57188	0.628
8.61171	0.65
8.65154	0.669
8.69136	0.701
8.73119	0.719
8.77102	0.742
8.81085	0.767
8.85068	0.781
8.89051	0.794
8.93034	0.807
8.97016	0.81
9.00999	0.789
9.04982	0.772
9.08965	0.726
9.12948	0.444
9.16931	0.212
9.20914	0.333
9.24896	0.28
9.28879	0.388
9.32862	0.527
9.36845	0.61
9.40828	0.643
9.44811	0.648
9.48794	0.558
9.52776	0.416
9.56759	0.595
9.60742	0.714
9.64725	0.761
9.68708	0.696
9.72691	0.761
9.76673	0.515
9.80656	0.464
9.84639	0.671
9.88622	0.761
9.92605	0.694
9.96588	0.54
10.0057	0.532
10.0455	0.509
10.0854	0.605
10.1252	0.595
10.165	0.477
10.2048	0.429
10.2447	0.369
10.2845	0.247
10.3243	0.203
10.3642	0.29
10.404	0.404
10.4438	0.512
10.4836	0.595
10.5235	0.646
10.5633	0.676
10.6031	0.711
10.643	0.728
10.6828	0.739
10.7226	0.749
10.7624	0.744
10.8023	0.749
10.8421	0.769
10.8819	0.781
10.9218	0.799
10.9616	0.807
11.0014	0.814
11.0412	0.822
11.0811	0.825
11.1209	0.83
11.1607	0.834
11.2006	0.835
11.2404	0.837
11.2802	0.839
11.32	0.849
11.3599	0.852
11.3997	0.857
11.4395	0.857
11.4794	0.859
11.5192	0.855
11.559	0.849
11.5988	0.84
11.6387	0.83
11.6785	0.802
11.7183	0.747
11.7582	0.54
11.798	0.421
11.8378	0.5
11.8776	0.61
11.9175	0.61
11.9573	0.746
11.9971	0.815
12.037	0.847
12.0768	0.842
12.1166	0.832
12.1564	0.819
12.1963	0.792
12.2361	0.744
12.2759	0.663
12.3158	0.593
12.3556	0.582
12.3954	0.626
12.4352	0.694
12.4751	0.721
12.5149	0.781
12.5547	0.829
12.5946	0.847
12.6344	0.873
12.6742	0.887
12.714	0.872
12.7539	0.872
12.7937	0.87
12.8335	0.86
12.8734	0.839
12.9132	0.819
12.953	0.787
12.9928	0.749
13.0327	0.674
13.0725	0.583
13.1123	0.396
13.1522	0.218
13.192	0.131
13.2318	0.14
13.2716	0.16
13.3115	0.271
13.3513	0.48
13.3911	0.655
13.431	0.771
13.4708	0.815
13.5106	0.84
13.5504	0.857
13.5903	0.875
13.6301	0.89
13.6699	0.89
13.7098	0.9
13.7496	0.912
13.7894	0.9
13.8292	0.902
13.8691	0.9
13.9089	0.898
13.9487	0.91
13.9886	0.918
14.0284	0.92
14.0682	0.922
14.108	0.92
14.1479	0.908
14.1877	0.893
14.2275	0.86
14.2674	0.817
14.3072	0.777
14.347	0.711
14.3868	0.608
14.4267	0.474
14.4665	0.334
14.5063	0.252
14.5462	0.222
14.586	0.21
14.6258	0.225
14.6656	0.283
14.7055	0.406
14.7453	0.548
14.7851	0.645
14.825	0.703
14.8648	0.734
14.9046	0.751
14.9444	0.781
14.9843	0.787
15.0241	0.782
15.0639	0.756
15.1038	0.766
15.1436	0.794
15.1834	0.819
15.2232	0.84
15.2631	0.852
15.3029	0.847
15.3427	0.844
15.3826	0.84
15.4224	0.83
15.4622	0.824
15.502	0.814
15.5419	0.805
15.5817	0.794
15.6215	0.791
15.6614	0.777
15.7012	0.754
15.741	0.714
15.7808	0.663
15.8207	0.626
15.8605	0.611
15.9003	0.62
15.9402	0.65
15.98	0.671
