Infrared Spectrum: 1,5-NAPHTHALENE-DI-AMINE
Formula: C10 H10 N2
CAS: 2243-62-1
State: SOLID (KBr PELLET)
Class: COBLENTZ
Instrument: Not specified, most likely a prism, grating, or hybrid spectrometer.
Sampling: TRANSMISSION
Resolution: 4
Origin: TENNESSEE EASTMAN COMPANY, RESEARCH LABORATORIES
MICROMETERS	TRANSMITTANCE
2.023	0.568
2.06294	0.578
2.10288	0.596
2.14282	0.611
2.18277	0.62
2.22271	0.638
2.26265	0.643
2.30259	0.648
2.34253	0.656
2.38247	0.663
2.42242	0.673
2.46236	0.681
2.5023	0.696
2.54224	0.7
2.58218	0.7
2.62212	0.703
2.66207	0.711
2.70201	0.715
2.74195	0.716
2.78189	0.69
2.82183	0.65
2.86177	0.621
2.90172	0.576
2.94166	0.411
2.9816	0.561
3.02154	0.41
3.06148	0.396
3.10142	0.548
3.14136	0.511
3.18131	0.661
3.22125	0.728
3.26119	0.75
3.30113	0.718
3.34107	0.756
3.38101	0.78
3.42096	0.79
3.4609	0.8
3.50084	0.818
3.54078	0.828
3.58072	0.841
3.62066	0.85
3.66061	0.85
3.70055	0.85
3.74049	0.858
3.78043	0.865
3.82037	0.868
3.86031	0.876
3.90025	0.876
3.9402	0.876
3.98014	0.888
4.02008	0.893
4.06002	0.896
4.09996	0.898
4.1399	0.903
4.17985	0.906
4.21979	0.911
4.25973	0.918
4.29967	0.903
4.33961	0.896
4.37955	0.91
4.4195	0.923
4.45944	0.925
4.49938	0.925
4.53932	0.928
4.57926	0.935
4.6192	0.938
4.65915	0.94
4.69909	0.943
4.73903	0.945
4.77897	0.946
4.81891	0.948
4.85885	0.951
4.89879	0.951
4.93874	0.951
4.97868	0.953
5.01862	0.975
5.05856	0.965
5.0985	0.963
5.13844	0.965
5.17839	0.951
5.21833	0.951
5.25827	0.955
5.29821	0.936
5.33815	0.963
5.37809	0.968
5.41804	0.968
5.45798	0.968
5.49792	0.966
5.53786	0.966
5.5778	0.966
5.61774	0.966
5.65768	0.973
5.69763	0.961
5.73757	0.941
5.77751	0.936
5.81745	0.94
5.85739	0.928
5.89733	0.898
5.93728	0.88
5.97722	0.865
6.01716	0.84
6.0571	0.781
6.09704	0.47
6.13698	0.293
6.17693	0.403
6.21687	0.596
6.25681	0.67
6.29675	0.57
6.33669	0.78
6.37663	0.851
6.41658	0.858
6.45652	0.866
6.49646	0.811
6.5364	0.41
6.57634	0.401
6.61628	0.796
6.65622	0.853
6.69617	0.871
6.73611	0.913
6.77605	0.918
6.81599	0.918
6.85593	0.863
6.89587	0.641
6.93582	0.443
6.97576	0.203
7.0157	0.413
7.05564	0.718
7.09558	0.801
7.13552	0.846
7.17547	0.861
7.21541	0.875
7.25535	0.881
7.29529	0.851
7.33523	0.623
7.37517	0.803
7.41511	0.888
7.45506	0.91
7.495	0.915
7.53494	0.923
7.57488	0.925
7.61482	0.925
7.65476	0.9
7.69471	0.691
7.73465	0.618
7.77459	0.735
7.81453	0.835
7.85447	0.885
7.89441	0.905
7.93436	0.918
7.9743	0.92
8.01424	0.923
8.05418	0.926
8.09412	0.928
8.13406	0.928
8.17401	0.9
8.21395	0.82
8.25389	0.801
8.29383	0.908
8.33377	0.878
8.37371	0.875
8.41365	0.823
8.4536	0.823
8.49354	0.783
8.53348	0.723
8.57342	0.836
8.61336	0.855
8.6533	0.876
8.69325	0.881
8.73319	0.883
8.77313	0.885
8.81307	0.873
8.85301	0.853
8.89295	0.851
8.9329	0.85
8.97284	0.836
9.01278	0.821
9.05272	0.815
9.09266	0.823
9.1326	0.848
9.17254	0.853
9.21249	0.773
9.25243	0.733
9.29237	0.823
9.33231	0.861
9.37225	0.866
9.41219	0.865
9.45214	0.858
9.49208	0.855
9.53202	0.868
9.57196	0.876
9.6119	0.881
9.65184	0.891
9.69179	0.9
9.73173	0.906
9.77167	0.911
9.81161	0.915
9.85155	0.915
9.89149	0.918
9.93144	0.918
9.97138	0.92
10.0113	0.921
10.0513	0.921
10.0912	0.925
10.1311	0.926
10.1711	0.928
10.211	0.93
10.251	0.931
10.2909	0.931
10.3309	0.931
10.3708	0.931
10.4107	0.931
10.4507	0.928
10.4906	0.926
10.5306	0.931
10.5705	0.931
10.6104	0.908
10.6504	0.92
10.6903	0.93
10.7303	0.901
10.7702	0.806
10.8102	0.743
10.8501	0.801
10.89	0.861
10.93	0.888
10.9699	0.915
11.0099	0.918
11.0498	0.92
11.0897	0.921
11.1297	0.923
11.1696	0.923
11.2096	0.921
11.2495	0.916
11.2894	0.896
11.3294	0.865
11.3693	0.833
11.4093	0.803
11.4492	0.765
11.4892	0.67
11.5291	0.753
11.569	0.836
11.609	0.868
11.6489	0.871
11.6889	0.855
11.7288	0.88
11.7687	0.901
11.8087	0.915
11.8486	0.918
11.8886	0.918
11.9285	0.918
11.9685	0.916
12.0084	0.915
12.0483	0.913
12.0883	0.905
12.1282	0.901
12.1682	0.883
12.2081	0.858
12.248	0.826
12.288	0.836
12.3279	0.848
12.3679	0.85
12.4078	0.845
12.4478	0.835
12.4877	0.82
12.5276	0.806
12.5676	0.776
12.6075	0.731
12.6475	0.676
12.6874	0.643
12.7273	0.643
12.7673	0.638
12.8072	0.506
12.8472	0.348
12.8871	0.161
12.9271	0.106
12.967	0.113
13.0069	0.138
13.0469	0.14
13.0868	0.251
13.1268	0.401
13.1667	0.555
13.2066	0.628
13.2466	0.665
13.2865	0.698
13.3265	0.703
13.3664	0.72
13.4064	0.728
13.4463	0.73
13.4862	0.73
13.5262	0.73
13.5661	0.726
13.6061	0.72
13.646	0.713
13.6859	0.701
13.7259	0.681
13.7658	0.665
13.8058	0.655
13.8457	0.661
13.8857	0.69
13.9256	0.695
13.9655	0.695
14.0055	0.695
14.0454	0.7
14.0854	0.698
14.1253	0.685
14.1652	0.678
14.2052	0.663
14.2451	0.655
14.2851	0.648
14.325	0.643
14.365	0.64
14.4049	0.636
14.4448	0.631
14.4848	0.633
14.5247	0.633
14.5647	0.633
14.6046	0.641
14.6445	0.645
14.6845	0.663
14.7244	0.68
14.7644	0.705
14.8043	0.728
14.8443	0.731
14.8842	0.731
14.9241	0.715
14.9641	0.691
15.004	0.673
15.044	0.663
15.0839	0.66
15.1238	0.648
15.1638	0.646
15.2037	0.643
15.2437	0.641
15.2836	0.636
15.3235	0.625
15.3635	0.61
15.4034	0.601
15.4434	0.601
15.4833	0.596
15.5233	0.595
15.5632	0.595
15.6031	0.595
15.6431	0.595
15.683	0.598
15.723	0.6
15.7629	0.6
15.8028	0.6
15.8428	0.6
15.8827	0.6
15.9227	0.6
15.9626	0.6
