Infrared Spectrum: 1-NAPHTHYLHYDRAZINE HYDROCHLORIDE
Formula: C10 H10 N2  * H Cl
CAS: 2243-56-3
State: SOLID (MINERAL OIL MULL)
Class: COBLENTZ
Instrument: Not specified, most likely a prism, grating, or hybrid spectrometer.
Sampling: TRANSMISSION
Resolution: 4
Origin: WYANDOTTE CHEMICALS CORP., WYANDOTTE, MICHIGAN, USA
MICROMETERS	TRANSMITTANCE
2.019	0.501
2.05613	0.507
2.09327	0.52
2.1304	0.527
2.16753	0.531
2.20467	0.531
2.2418	0.531
2.27894	0.532
2.31607	0.538
2.3532	0.555
2.39034	0.577
2.42747	0.577
2.4646	0.594
2.50174	0.602
2.53887	0.602
2.576	0.61
2.61314	0.625
2.65027	0.647
2.68741	0.659
2.72454	0.664
2.76167	0.658
2.79881	0.652
2.83594	0.65
2.87307	0.65
2.91021	0.645
2.94734	0.649
2.98447	0.645
3.02161	0.652
3.05874	0.639
3.09588	0.349
3.13301	0.285
3.17014	0.385
3.20728	0.38
3.24441	0.305
3.28154	0.226
3.31868	0.136
3.35581	0.049
3.39294	0.027
3.43008	0.023
3.46721	0.024
3.50435	0.026
3.54148	0.086
3.57861	0.189
3.61575	0.232
3.65288	0.248
3.69001	0.223
3.72715	0.203
3.76428	0.254
3.80141	0.329
3.83855	0.36
3.87568	0.402
3.91282	0.437
3.94995	0.487
3.98708	0.531
4.02422	0.576
4.06135	0.608
4.09848	0.63
4.13562	0.649
4.17275	0.659
4.20988	0.672
4.24702	0.683
4.28415	0.67
4.32128	0.689
4.35842	0.701
4.39555	0.748
4.43269	0.754
4.46982	0.754
4.50695	0.776
4.54409	0.782
4.58122	0.79
4.61835	0.796
4.65549	0.798
4.69262	0.813
4.72975	0.821
4.76689	0.826
4.80402	0.833
4.84116	0.841
4.87829	0.84
4.91542	0.843
4.95256	0.836
4.98969	0.813
5.02682	0.799
5.06396	0.776
5.10109	0.787
5.13822	0.798
5.17536	0.799
5.21249	0.799
5.24963	0.785
5.28676	0.804
5.32389	0.832
5.36103	0.849
5.39816	0.861
5.43529	0.866
5.47243	0.877
5.50956	0.871
5.54669	0.883
5.58383	0.886
5.62096	0.903
5.6581	0.908
5.69523	0.92
5.73236	0.903
5.7695	0.911
5.80663	0.88
5.84376	0.875
5.8809	0.885
5.91803	0.877
5.95516	0.868
5.9923	0.877
6.02943	0.84
6.06657	0.809
6.1037	0.734
6.14083	0.689
6.17797	0.341
6.2151	0.271
6.25223	0.242
6.28937	0.263
6.3265	0.368
6.36363	0.406
6.40077	0.268
6.4379	0.159
6.47504	0.212
6.51217	0.217
6.5493	0.304
6.58644	0.397
6.62357	0.506
6.6607	0.472
6.69784	0.461
6.73497	0.397
6.7721	0.173
6.80924	0.121
6.84637	0.158
6.88351	0.225
6.92064	0.352
6.95777	0.524
6.99491	0.597
7.03204	0.607
7.06917	0.43
7.10631	0.417
7.14344	0.527
7.18057	0.49
7.21771	0.273
7.25484	0.246
7.29198	0.399
7.32911	0.523
7.36624	0.597
7.40338	0.628
7.44051	0.65
7.47764	0.672
7.51478	0.715
7.55191	0.725
7.58904	0.726
7.62618	0.723
7.66331	0.734
7.70045	0.742
7.73758	0.718
7.77471	0.692
7.81185	0.675
7.84898	0.607
7.88611	0.703
7.92325	0.746
7.96038	0.745
7.99751	0.756
8.03465	0.763
8.07178	0.757
8.10892	0.771
8.14605	0.762
8.18318	0.698
8.22032	0.728
8.25745	0.745
8.29458	0.687
8.33172	0.663
8.36885	0.695
8.40598	0.734
8.44312	0.728
8.48025	0.672
8.51738	0.67
8.55452	0.636
8.59165	0.633
8.62879	0.635
8.66592	0.65
8.70305	0.683
8.74019	0.714
8.77732	0.746
8.81445	0.784
8.85159	0.802
8.88872	0.805
8.92585	0.796
8.96299	0.773
9.00012	0.726
9.03726	0.686
9.07439	0.737
9.11152	0.748
9.14866	0.743
9.18579	0.736
9.22292	0.704
9.26006	0.628
9.29719	0.687
9.33432	0.734
9.37146	0.767
9.40859	0.787
9.44573	0.795
9.48286	0.801
9.51999	0.81
9.55713	0.807
9.59426	0.802
9.63139	0.757
9.66853	0.734
9.70566	0.757
9.74279	0.776
9.77993	0.795
9.81706	0.804
9.8542	0.81
9.89133	0.804
9.92846	0.765
9.9656	0.819
10.0027	0.844
10.0399	0.864
10.077	0.868
10.1141	0.872
10.1513	0.877
10.1884	0.871
10.2255	0.854
10.2627	0.844
10.2998	0.841
10.3369	0.84
10.3741	0.819
10.4112	0.784
10.4483	0.829
10.4855	0.841
10.5226	0.844
10.5597	0.838
10.5969	0.819
10.634	0.84
10.6711	0.85
10.7083	0.81
10.7454	0.819
10.7825	0.852
10.8197	0.875
10.8568	0.888
10.8939	0.891
10.9311	0.902
10.9682	0.914
11.0053	0.92
11.0425	0.927
11.0796	0.925
11.1167	0.922
11.1539	0.913
11.191	0.909
11.2281	0.902
11.2653	0.885
11.3024	0.864
11.3395	0.802
11.3767	0.723
11.4138	0.706
11.4509	0.779
11.4881	0.83
11.5252	0.827
11.5623	0.861
11.5995	0.922
11.6366	0.94
11.6737	0.936
11.7109	0.923
11.748	0.888
11.7851	0.798
11.8223	0.737
11.8594	0.813
11.8965	0.885
11.9337	0.906
11.9708	0.905
12.0079	0.897
12.0451	0.883
12.0822	0.866
12.1193	0.85
12.1565	0.81
12.1936	0.782
12.2307	0.746
12.2679	0.723
12.305	0.746
12.3421	0.779
12.3793	0.745
12.4164	0.673
12.4535	0.597
12.4907	0.512
12.5278	0.439
12.565	0.386
12.6021	0.35
12.6392	0.332
12.6764	0.332
12.7135	0.388
12.7506	0.35
12.7878	0.27
12.8249	0.254
12.862	0.315
12.8992	0.38
12.9363	0.4
12.9734	0.296
13.0106	0.177
13.0477	0.133
13.0848	0.116
13.122	0.15
13.1591	0.256
13.1962	0.316
13.2334	0.369
13.2705	0.493
13.3076	0.605
13.3448	0.68
13.3819	0.717
13.419	0.743
13.4562	0.756
13.4933	0.763
13.5304	0.768
13.5676	0.771
13.6047	0.771
13.6418	0.771
13.679	0.77
13.7161	0.77
13.7532	0.771
13.7904	0.774
13.8275	0.779
13.8646	0.771
13.9018	0.776
13.9389	0.805
13.976	0.827
14.0132	0.838
14.0503	0.847
14.0874	0.835
14.1246	0.836
14.1617	0.829
14.1988	0.812
14.236	0.801
14.2731	0.779
14.3102	0.746
14.3474	0.692
14.3845	0.622
14.4216	0.554
14.4588	0.512
14.4959	0.479
14.533	0.47
14.5702	0.479
14.6073	0.523
14.6444	0.555
14.6816	0.588
14.7187	0.625
14.7558	0.659
14.793	0.677
14.8301	0.701
14.8672	0.709
14.9044	0.731
14.9415	0.743
14.9786	0.737
15.0158	0.7
15.0529	0.644
15.09	0.622
15.1272	0.649
15.1643	0.675
15.2014	0.709
15.2386	0.725
15.2757	0.726
15.3128	0.725
15.35	0.72
15.3871	0.72
15.4242	0.711
15.4614	0.69
15.4985	0.677
15.5356	0.68
15.5728	0.677
15.6099	0.667
15.647	0.661
15.6842	0.649
15.7213	0.628
15.7584	0.613
15.7956	0.608
15.8327	0.604
15.8698	0.594
15.907	0.58
15.9441	0.56
15.9812	0.551
