Infrared Spectrum: n-Decyl methyl sulphide
Formula: C 11 H 24 S
CAS: 22438-39-7
State: gas
Origin: EPA-IR VAPOR PHASE LIBRARY
1/CM	ABSORBANCE
549.9	0.0001
559.547	0.00018
569.193	0.00023
578.84	0.00024
588.486	0.00031
598.133	0.00035
607.779	0.00042
617.426	0.000637
627.072	0.000706
636.719	0.00084
646.365	0.000999
656.012	0.001121
665.658	0.0011
675.305	0.0015226
684.951	0.0020329
694.598	0.00291
704.245	0.0039
713.891	0.00523
723.538	0.00569
733.184	0.00536
742.831	0.00495
752.477	0.0046
762.124	0.00405
771.77	0.00344
781.417	0.00293
791.063	0.0024817
800.71	0.0024338
810.356	0.0023159
820.003	0.0020693
829.649	0.0020141
839.296	0.002003
848.943	0.0019397
858.589	0.0018973
868.236	0.0019717
877.882	0.0021508
887.529	0.0022325
897.175	0.0023131
906.822	0.0022606
916.468	0.0023002
926.115	0.00259
935.761	0.00304
945.408	0.00409
955.054	0.00523
964.701	0.00462
974.347	0.00365
983.994	0.00323
993.64	0.00285
1003.29	0.00258
1012.93	0.0023144
1022.58	0.0023187
1032.23	0.0024514
1041.87	0.00276
1051.52	0.00289
1061.17	0.00285
1070.81	0.00258
1080.46	0.0022789
1090.11	0.0022445
1099.75	0.0021885
1109.4	0.002217
1119.05	0.0018489
1128.69	0.0015232
1138.34	0.0014427
1147.99	0.0016675
1157.63	0.0018686
1167.28	0.002088
1176.92	0.0020759
1186.57	0.0021801
1196.22	0.0024893
1205.86	0.0025317
1215.51	0.00369
1225.16	0.00537
1234.8	0.00632
1244.45	0.00737
1254.1	0.00839
1263.74	0.00967
1273.39	0.01107
1283.04	0.01152
1292.68	0.01134
1302.33	0.01123
1311.98	0.00977
1321.62	0.00862
1331.27	0.00801
1340.92	0.00931
1350.56	0.01076
1360.21	0.00974
1369.86	0.00835
1379.5	0.00809
1389.15	0.00729
1398.79	0.00617
1408.44	0.00687
1418.09	0.00934
1427.73	0.01454
1437.38	0.02116
1447.03	0.02572
1456.67	0.02809
1466.32	0.02519
1475.97	0.01552
1485.61	0.00836
1495.26	0.00536
1504.91	0.00399
1514.55	0.00335
1524.2	0.0029
1533.85	0.00257
1543.49	0.0024467
1553.14	0.0023601
1562.79	0.0022516
1572.43	0.002168
1582.08	0.0020877
1591.73	0.0019595
1601.37	0.0019079
1611.02	0.0017757
1620.67	0.0017398
1630.31	0.00158777
1639.96	0.00162559
1649.6	0.0015101
1659.25	0.0014883
1668.9	0.0014608
1678.54	0.0014524
1688.19	0.001397
1697.84	0.001333
1707.48	0.001313
1717.13	0.001268
1726.78	0.00125
1736.42	0.001207
1746.07	0.001186
1755.72	0.001206
1765.36	0.001122
1775.01	0.001108
1784.66	0.001102
1794.3	0.001105
1803.95	0.001118
1813.6	0.001032
1823.24	0.001069
1832.89	0.001061
1842.54	0.001017
1852.18	0.001044
1861.83	0.00104
1871.47	0.001026
1881.12	0.001034
1890.77	0.001024
1900.41	0.001046
1910.06	0.001056
1919.71	0.001091
1929.35	0.001087
1939	0.001114
1948.65	0.001043
1958.29	0.001088
1967.94	0.001113
1977.59	0.001123
1987.23	0.001164
1996.88	0.001226
2006.53	0.001312
2016.17	0.001385
2025.82	0.00153672
2035.47	0.00159434
2045.11	0.0015299
2054.76	0.0014405
2064.41	0.001299
2074.05	0.001347
2083.7	0.001265
2093.35	0.001247
2102.99	0.001227
2112.64	0.001257
2122.28	0.001238
2131.93	0.001227
2141.58	0.001239
2151.22	0.001236
2160.87	0.001292
2170.52	0.001272
2180.16	0.001305
2189.81	0.001318
2199.46	0.001349
2209.1	0.001346
2218.75	0.001345
2228.4	0.001347
2238.04	0.001351
2247.69	0.001379
2257.34	0.001403
2266.98	0.001428
2276.63	0.0014873
2286.28	0.0014645
2295.92	0.001437
2305.57	0.001365
2315.22	0.001411
2324.86	0.0014576
2334.51	0.0014481
2344.16	0.001421
2353.8	0.0014637
2363.45	0.0014944
2373.09	0.00155624
2382.74	0.00162159
2392.39	0.0015411
2402.03	0.00156794
2411.68	0.0015176
2421.33	0.0014768
2430.97	0.0015089
2440.62	0.001437
2450.27	0.001407
2459.91	0.001412
2469.56	0.0014529
2479.21	0.0014633
2488.85	0.0015125
2498.5	0.0015276
2508.15	0.0016924
2517.79	0.0016813
2527.44	0.0017483
2537.09	0.001812
2546.73	0.0018447
2556.38	0.0019419
2566.03	0.0020796
2575.67	0.0021212
2585.32	0.0022517
2594.96	0.0023265
2604.61	0.00254
2614.26	0.00272
2623.9	0.00287
2633.55	0.00298
2643.2	0.00324
2652.84	0.0035
2662.49	0.00377
2672.14	0.00406
2681.78	0.00418
2691.43	0.00407
2701.08	0.00393
2710.72	0.0038
2720.37	0.00395
2730.02	0.00408
2739.66	0.00459
2749.31	0.00483
2758.96	0.00498
2768.6	0.00534
2778.25	0.00617
2787.9	0.00749
2797.54	0.00906
2807.19	0.01131
2816.84	0.01495
2826.48	0.02039
2836.13	0.02949
2845.77	0.05101
2855.42	0.09584
2865.07	0.12233
2874.71	0.09723
2884.36	0.07932
2894.01	0.0772
2903.65	0.10343
2913.3	0.1621
2922.95	0.27364
2932.59	0.35734
2942.24	0.28401
2951.89	0.17332
2961.53	0.12624
2971.18	0.10515
2980.83	0.06021
2990.47	0.03858
3000.12	0.02619
3009.77	0.01761
3019.41	0.01311
3029.06	0.01033
3038.71	0.00848
3048.35	0.007
3058	0.00619
3067.64	0.00572
3077.29	0.00524
3086.94	0.00494
3096.58	0.00462
3106.23	0.00413
3115.88	0.00401
3125.52	0.00372
3135.17	0.00348
3144.82	0.00326
3154.46	0.00317
3164.11	0.00264
3173.76	0.00255
3183.4	0.0023932
3193.05	0.0022822
3202.7	0.0021536
3212.34	0.0021395
3221.99	0.0018794
3231.64	0.00161521
3241.28	0.0016927
3250.93	0.0014852
3260.58	0.001395
3270.22	0.001343
3279.87	0.001426
3289.52	0.001425
3299.16	0.00153237
3308.81	0.00162324
3318.45	0.0014591
3328.1	0.001342
3337.75	0.001369
3347.39	0.0014692
3357.04	0.001382
3366.69	0.001421
3376.33	0.001339
3385.98	0.001242
3395.63	0.001294
3405.27	0.00139
3414.92	0.001411
3424.57	0.001323
3434.21	0.001118
3443.86	0.001107
3453.51	0.001166
3463.15	0.001258
3472.8	0.000916
3482.45	0.000999
3492.09	0.000937
3501.74	0.001018
3511.39	0.000984
3521.03	0.000891
3530.68	0.000712
3540.33	0.000915
3549.97	0.001006
3559.62	0.000829
3569.26	0.000939
3578.91	0.000886
3588.56	0.000975
3598.2	0.00101
3607.85	0.001246
3617.5	0.001215
3627.14	0.001187
3636.79	0.001226
3646.44	0.001151
3656.08	0.001285
3665.73	0.001187
3675.38	0.001144
3685.02	0.001255
3694.67	0.001305
3704.32	0.001151
3713.96	0.001257
3723.61	0.001218
3733.26	0.001067
3742.9	0.001121
3752.55	0.00134
3762.2	0.001267
3771.84	0.001233
3781.49	0.001378
3791.13	0.001294
3800.78	0.001288
3810.43	0.001305
3820.07	0.001288
3829.72	0.001348
3839.37	0.001207
3849.01	0.001327
3858.66	0.001243
3868.31	0.001252
3877.95	0.001364
3887.6	0.001322
3897.25	0.001404
3906.89	0.001348
3916.54	0.001355
3926.19	0.0014474
3935.83	0.001298
3945.48	0.0014414
3955.13	0.001403
3964.77	0.0014874
3974.42	0.0016855
3984.07	0.0017073
3993.71	0.0015111
