Infrared Spectrum: 1-Undecyne
Formula: C 11 H 20
CAS: 2243-98-3
State: gas
Instrument: HP-GC/MS/IRD
Origin: NIST Mass Spectrometry Data Center
1/CM	ABSORBANCE
550	0.0007089
562	0.0006426
574	0.0003825
586	0.0005712
598	0.0011526
610	0.0030804
622	0.0096084
634	0.0228021
646	0.0090423
658	0.0023154
670	0.0008364
682	0.0003927
694	0.0003315
706	0.0006018
718	0.0008109
730	0.0007446
742	0.0005661
754	0.0004233
766	0.0003111
778	0.0002652
790	0.0001326
802	0.0001224
814	9.18e-05
826	6.12e-05
838	5.61e-05
850	8.16e-05
862	8.16e-05
874	6.63e-05
886	0.0001326
898	0.0001632
910	0.0001836
922	0.0001887
934	0.0001734
946	0.0001377
958	0.0001632
970	0.0001377
982	0.0001377
994	6.63e-05
1006	0.000102
1018	0.000102
1030	0.0001632
1042	0.0002193
1054	0.0002397
1066	0.0002142
1078	0.0001734
1090	0.0001377
1102	0.000153
1114	0.0001989
1126	0.0001683
1138	6.12e-05
1150	9.69e-05
1162	0.0001326
1174	0.0001581
1186	0.0002091
1198	0.0002652
1210	0.0004692
1222	0.0008823
1234	0.002448
1246	0.0056967
1258	0.0034884
1270	0.0014637
1282	0.0010353
1294	0.0009741
1306	0.0011118
1318	0.001275
1330	0.0014841
1342	0.0016014
1354	0.001632
1366	0.0013158
1378	0.0012342
1390	0.0010098
1402	0.0007038
1414	0.0007956
1426	0.0013158
1438	0.0027744
1450	0.0036924
1462	0.004335
1474	0.0029325
1486	0.0012903
1498	0.0006528
1510	0.0003978
1522	0.0002805
1534	0.0002142
1546	0.0001581
1558	0.0001275
1570	0.0001275
1582	0.0001275
1594	9.18e-05
1606	0.0001122
1618	8.67e-05
1630	5.61e-05
1642	4.59e-05
1654	2.04e-05
1666	1.53e-05
1678	2.04e-05
1690	2.55e-05
1702	1.02e-05
1714	2.04e-05
1726	1.53e-05
1738	2.04e-05
1750	1.02e-05
1762	2.55e-05
1774	5.1e-06
1786	3.06e-05
1798	1.02e-05
1810	1.02e-05
1822	1.02e-05
1834	5.1e-06
1846	0
1858	0
1870	2.55e-05
1882	4.59e-05
1894	2.04e-05
1906	1.02e-05
1918	0
1930	2.04e-05
1942	2.55e-05
1954	1.53e-05
1966	1.53e-05
1978	1.53e-05
1990	1.53e-05
2002	3.06e-05
2014	6.12e-05
2026	9.69e-05
2038	9.69e-05
2050	8.67e-05
2062	8.16e-05
2074	0.0001326
2086	0.0002193
2098	0.0004743
2110	0.0009588
2122	0.0010965
2134	0.0004335
2146	0.0001581
2158	8.16e-05
2170	7.65e-05
2182	6.63e-05
2194	4.08e-05
2206	5.1e-05
2218	5.1e-05
2230	3.57e-05
2242	5.1e-05
2254	2.55e-05
2266	3.06e-05
2278	2.55e-05
2290	4.59e-05
2302	4.08e-05
2314	4.08e-05
2326	5.1e-05
2338	5.61e-05
2350	5.1e-05
2362	3.57e-05
2374	4.08e-05
2386	3.57e-05
2398	6.63e-05
2410	4.08e-05
2422	4.59e-05
2434	1.02e-05
2446	2.04e-05
2458	0
2470	1.02e-05
2482	1.02e-05
2494	1.53e-05
2506	2.55e-05
2518	5.61e-05
2530	9.69e-05
2542	8.67e-05
2554	7.65e-05
2566	0.0001224
2578	0.0001428
2590	0.0001683
2602	0.0001989
2614	0.0002346
2626	0.0002601
2638	0.0003111
2650	0.000357
2662	0.0004233
2674	0.0005151
2686	0.00051
2698	0.0005355
2710	0.0004284
2722	0.000459
2734	0.0005559
2746	0.0006018
2758	0.0006375
2770	0.0006936
2782	0.000867
2794	0.0011475
2806	0.0015504
2818	0.0021522
2830	0.0031212
2842	0.0056916
2854	0.0127143
2866	0.0188904
2878	0.0158508
2890	0.0127398
2902	0.0147288
2914	0.0243576
2926	0.0427023
2938	0.0506991
2950	0.0359397
2962	0.0229755
2974	0.0157233
2986	0.006834
2998	0.0036618
3010	0.0023766
3022	0.0016677
3034	0.0012138
3046	0.0008823
3058	0.0006936
3070	0.0005763
3082	0.0004845
3094	0.0004335
3106	0.000408
3118	0.0003417
3130	0.0003009
3142	0.0002907
3154	0.0002346
3166	0.0002193
3178	0.0002142
3190	0.0001734
3202	9.18e-05
3214	0.0001173
3226	0.000102
3238	0.0001275
3250	0.0002091
3262	0.000357
3274	0.0006732
3286	0.0012903
3298	0.0022287
3310	0.0043044
3322	0.0067524
3334	0.0068799
3346	0.0020655
3358	0.001071
3370	0.0004488
3382	0.0002142
3394	0.0001275
3406	9.69e-05
3418	4.08e-05
3430	4.08e-05
3442	5.61e-05
3454	8.16e-05
3466	3.57e-05
3478	1.02e-05
3490	2.55e-05
3502	2.04e-05
3514	5.1e-06
3526	6.63e-05
3538	2.55e-05
3550	2.04e-05
3562	1.53e-05
3574	4.59e-05
3586	3.57e-05
3598	2.55e-05
3610	4.59e-05
3622	5.61e-05
3634	9.18e-05
3646	9.69e-05
3658	0.000102
3670	0.0001377
3682	8.67e-05
3694	9.18e-05
3706	8.67e-05
3718	6.63e-05
3730	8.67e-05
3742	0.000102
3754	0.000102
3766	0.0001428
3778	0.0001326
3790	9.69e-05
3802	0.0001224
3814	0.0001326
3826	0.0001479
3838	0.0001275
