Infrared Spectrum: Pentamethylbenzoic acid
Formula: C 12 H 16 O 2
CAS: 2243-32-5
State: gas
Origin: EPA-IR VAPOR PHASE LIBRARY
1/CM	ABSORBANCE
549.8	0.0022622
559.445	0.0024022
569.09	0.0037422
578.734	0.0062722
588.379	0.0091122
598.024	0.0131522
607.669	0.0140922
617.313	0.0089722
626.958	0.0080022
636.603	0.0072922
646.248	0.0078922
655.893	0.0180622
665.537	0.0080422
675.182	0.0019522
684.827	0.0010501
694.472	0.0008828
704.116	0.0011522
713.761	0.0010575
723.406	0.0010301
733.051	0.0015422
742.695	0.0042122
752.34	0.0057522
761.985	0.0037122
771.63	0.0044622
781.275	0.0038822
790.919	0.0020222
800.564	0.0015022
810.209	0.0008841
819.854	0.0010076
829.498	0.0015422
839.143	0.0028722
848.788	0.0022222
858.433	0.0011422
868.078	0.0008865
877.722	0.0009213
887.367	0.0011822
897.012	0.0011322
906.657	0.0010296
916.301	0.0010469
925.946	0.0013422
935.591	0.0022022
945.236	0.0040622
954.88	0.0048722
964.525	0.0038422
974.17	0.0033222
983.815	0.0035122
993.46	0.0042122
1003.1	0.0064122
1012.75	0.0090222
1022.39	0.0109122
1032.04	0.0084122
1041.68	0.0058422
1051.33	0.0053922
1060.97	0.0074222
1070.62	0.0086722
1080.26	0.0076922
1089.91	0.0078122
1099.55	0.0078022
1109.2	0.0122322
1118.84	0.0285322
1128.49	0.0670722
1138.13	0.0754622
1147.78	0.0333822
1157.42	0.0121322
1167.07	0.0077922
1176.71	0.0066522
1186.36	0.0057422
1196	0.0045322
1205.64	0.0039022
1215.29	0.0043922
1224.93	0.0055722
1234.58	0.0065522
1244.22	0.0052122
1253.87	0.0041522
1263.51	0.0047822
1273.16	0.0074822
1282.8	0.0079022
1292.45	0.0068422
1302.09	0.0103422
1311.74	0.0154922
1321.38	0.0171422
1331.03	0.0119022
1340.67	0.0066222
1350.32	0.0048622
1359.96	0.0044622
1369.61	0.0044522
1379.25	0.0056722
1388.9	0.0070622
1398.54	0.0069022
1408.18	0.0071522
1417.83	0.0085522
1427.47	0.0095622
1437.12	0.0089722
1446.76	0.0080222
1456.41	0.0074622
1466.05	0.0069922
1475.7	0.0064022
1485.34	0.0056522
1494.99	0.0050922
1504.63	0.0044022
1514.28	0.0037222
1523.92	0.0033922
1533.57	0.0032722
1543.21	0.0031922
1552.86	0.0034122
1562.5	0.0038922
1572.15	0.0039722
1581.79	0.0035822
1591.44	0.0029222
1601.08	0.0023222
1610.73	0.0018822
1620.37	0.0015622
1630.01	0.0014522
1639.66	0.0013822
1649.3	0.0012922
1658.95	0.0011822
1668.59	0.0013922
1678.24	0.0017122
1687.88	0.0024722
1697.53	0.0036122
1707.17	0.0053422
1716.82	0.0066922
1726.46	0.0070722
1736.11	0.0104722
1745.75	0.0281622
1755.4	0.0773722
1765.04	0.0922522
1774.69	0.0365922
1784.33	0.0141922
1793.98	0.0119622
1803.62	0.0092622
1813.27	0.0054822
1822.91	0.0026922
1832.55	0.0018322
1842.2	0.0013722
1851.84	0.0010305
1861.49	0.0007673
1871.13	0.0006795
1880.78	0.0007767
1890.42	0.0007189
1900.07	0.0007869
1909.71	0.0007627
1919.36	0.0005894
1929	0.0005415
1938.65	0.0005053
1948.29	0.0004359
1957.94	0.0003831
1967.58	0.0004695
1977.23	0.0004523
1986.87	0.0004173
1996.52	0.0003822
2006.16	0.0003413
2015.81	0.0003029
2025.45	0.0004286
2035.1	0.000435
2044.74	0.0004742
2054.38	0.0004102
2064.03	0.0004177
2073.67	0.0004056
2083.32	0.0004273
2092.96	0.000414
2102.61	0.0004405
2112.25	0.0003673
2121.9	0.0004632
2131.54	0.0004432
2141.19	0.0004117
2150.83	0.0004817
2160.48	0.0003645
2170.12	0.0003792
2179.77	0.0003671
2189.41	0.0003648
2199.06	0.0002899
2208.7	0.0003464
2218.35	0.0004086
2227.99	0.0002735
2237.64	0.0003238
2247.28	0.0004077
2256.92	0.0005548
2266.57	0.0005508
2276.21	0.0003835
2285.86	0.0003101
2295.5	0.0002917
2305.15	0.0003548
2314.79	0.0003357
2324.44	0.0003463
2334.08	0.000312
2343.73	0.0004166
2353.37	0.0004357
2363.02	0.0004375
2372.66	0.0004173
2382.31	0.0004228
2391.95	0.0003808
2401.6	0.0004416
2411.24	0.0005582
2420.89	0.0005535
2430.53	0.0005878
2440.18	0.0005223
2449.82	0.0005807
2459.47	0.0005054
2469.11	0.000531
2478.75	0.0004453
2488.4	0.0005084
2498.04	0.0003653
2507.69	0.0004716
2517.33	0.0004562
2526.98	0.0004594
2536.62	0.0004889
2546.27	0.0004495
2555.91	0.0003623
2565.56	0.0003862
2575.2	0.0002888
2584.85	0.0003605
2594.49	0.0004172
2604.14	0.000391
2613.78	0.0003662
2623.43	0.000316
2633.07	0.0002993
2642.72	0.0003676
2652.36	0.0004072
2662.01	0.0003894
2671.65	0.0003272
2681.29	0.0005146
2690.94	0.0004585
2700.58	0.0005405
2710.23	0.0005861
2719.87	0.0007475
2729.52	0.0008496
2739.16	0.0013922
2748.81	0.0015122
2758.45	0.0012622
2768.1	0.0012022
2777.74	0.0011222
2787.39	0.0012922
2797.03	0.0013822
2806.68	0.0015622
2816.32	0.0018322
2825.97	0.0022822
2835.61	0.0027022
2845.26	0.0037022
2854.9	0.0050622
2864.55	0.0080422
2874.19	0.0116722
2883.84	0.0138622
2893.48	0.0140722
2903.12	0.0146022
2912.77	0.0160222
2922.41	0.0187922
2932.06	0.0224922
2941.7	0.0248622
2951.35	0.0227222
2960.99	0.0176922
2970.64	0.0133222
2980.28	0.0108522
2989.93	0.0101222
2999.57	0.0100822
3009.22	0.0098922
3018.86	0.0096722
3028.51	0.0091222
3038.15	0.0082822
3047.8	0.0072422
3057.44	0.0061622
3067.09	0.0049822
3076.73	0.0040522
3086.38	0.0032222
3096.02	0.0028022
3105.67	0.0020422
3115.31	0.0016322
3124.95	0.0015122
3134.6	0.0012722
3144.24	0.0010355
3153.89	0.0010546
3163.53	0.0008351
3173.18	0.0005578
3182.82	0.0007185
3192.47	0.0006398
3202.11	0.0005283
3211.76	0.0003291
3221.4	0.0004512
3231.05	0.0003707
3240.69	0.0003613
3250.34	0.0004652
3259.98	0.000485
3269.63	0.0004301
3279.27	0.0004453
3288.92	0.0002826
3298.56	0.0003881
3308.21	0.0004556
3317.85	0.0002689
3327.49	0.0003536
3337.14	0.0004299
3346.78	0.0002672
3356.43	0.0002408
3366.07	0.0003445
3375.72	0.0004158
3385.36	0.000286
3395.01	0.000272
3404.65	0.0003918
3414.3	0.0003758
3423.94	0.0002834
3433.59	0.0004882
3443.23	0.0002426
3452.88	0.0002185
3462.52	0.0003497
3472.17	0.0006837
3481.81	0.000777
3491.46	0.0007216
3501.1	0.0008348
3510.75	0.0010849
3520.39	0.0008904
3530.04	0.0011622
3539.68	0.0028122
3549.32	0.0189022
3558.97	0.0282022
3568.61	0.0068022
3578.26	0.0011722
3587.9	0.0007536
3597.55	0.0008231
3607.19	0.0012222
3616.84	0.0011122
3626.48	0.0006865
3636.13	0.0003693
3645.77	0.0004877
3655.42	0.0003423
3665.06	0.000426
3674.71	0.0004094
3684.35	0.0003381
3694	0.00015754
3703.64	0.0003654
3713.29	0.000234
3722.93	0.0002352
3732.58	0.0003568
3742.22	0.0004098
3751.86	0.0002643
3761.51	0.0002043
3771.15	0.0005019
3780.8	0.0003132
3790.44	0.0002088
3800.09	0.0002508
3809.73	0.00018471
3819.38	0.0003438
3829.02	0.0002938
3838.67	0.00016665
3848.31	0.00015557
3857.96	0.000473
3867.6	0.00016241
3877.25	0.0002828
3886.89	0.0003357
3896.54	0.0004746
3906.18	0.0004409
3915.83	0.0004489
3925.47	0.0002477
3935.12	0.000416
3944.76	0.0004849
3954.41	0.0002139
3964.05	0.0006324
3973.69	0.0003309
3983.34	0.0005449
3992.98	0.0002267
