Infrared Spectrum: PIPERAZINE, 1-METHYL-4-(2-METHYLPROPENYL)-
Formula: C9 H18 N2
CAS: 22439-99-2
State: LIQUID
Boiling point: 38-40 C AT 1 mmHg
Class: COBLENTZ
Instrument: Not specified, most likely a prism, grating, or hybrid spectrometer.
Sampling: TRANSMISSION
Path length: SMEAR
Resolution: 4
Origin: TENNESSEE EASTMAN COMPANY, RESEARCH LABORATORIES
MICROMETERS	TRANSMITTANCE
2.04	0.998
2.07977	1
2.11954	1.004
2.15931	1.009
2.19909	1.011
2.23886	1.008
2.27863	1.001
2.3184	0.988
2.35817	0.991
2.39794	0.991
2.43772	0.99
2.47749	0.993
2.51726	0.995
2.55703	0.993
2.5968	0.991
2.63657	0.995
2.67635	0.998
2.71612	1
2.75589	1.001
2.79566	1.003
2.83543	1.001
2.8752	0.998
2.91498	0.991
2.95475	0.978
2.99452	0.961
3.03429	0.948
3.07406	0.94
3.11383	0.935
3.1536	0.936
3.19338	0.93
3.23315	0.917
3.27292	0.885
3.31269	0.819
3.35246	0.543
3.39223	0.129
3.43201	0.114
3.47178	0.189
3.51155	0.199
3.55132	0.094
3.59109	0.119
3.63086	0.288
3.67064	0.399
3.71041	0.65
3.75018	0.59
3.78995	0.663
3.82972	0.864
3.86949	0.898
3.90926	0.917
3.94904	0.917
3.98881	0.917
4.02858	0.92
4.06835	0.927
4.10812	0.943
4.14789	0.951
4.18767	0.956
4.22744	0.956
4.26721	0.951
4.30698	0.951
4.34675	0.945
4.38652	0.95
4.4263	0.956
4.46607	0.963
4.50584	0.963
4.54561	0.96
4.58538	0.96
4.62515	0.96
4.66493	0.961
4.7047	0.968
4.74447	0.968
4.78424	0.965
4.82401	0.956
4.86378	0.961
4.90355	0.965
4.94333	0.965
4.9831	0.965
5.02287	0.96
5.06264	0.953
5.10241	0.95
5.14218	0.96
5.18196	0.958
5.22173	0.956
5.2615	0.965
5.30127	0.966
5.34104	0.97
5.38081	0.966
5.42059	0.966
5.46036	0.965
5.50013	0.961
5.5399	0.966
5.57967	0.953
5.61944	0.946
5.65921	0.945
5.69899	0.928
5.73876	0.882
5.77853	0.854
5.8183	0.852
5.85807	0.84
5.89784	0.698
5.93762	0.495
5.97739	0.431
6.01716	0.605
6.05693	0.665
6.0967	0.744
6.13647	0.787
6.17625	0.819
6.21602	0.84
6.25579	0.86
6.29556	0.882
6.33533	0.887
6.3751	0.867
6.41488	0.845
6.45465	0.85
6.49442	0.85
6.53419	0.859
6.57396	0.855
6.61373	0.85
6.6535	0.837
6.69328	0.797
6.73305	0.713
6.77282	0.605
6.81259	0.353
6.85236	0.189
6.89213	0.157
6.93191	0.28
6.97168	0.466
7.01145	0.631
7.05122	0.699
7.09099	0.734
7.13076	0.729
7.17054	0.66
7.21031	0.533
7.25008	0.336
7.28985	0.238
7.32962	0.268
7.36939	0.487
7.40916	0.593
7.44894	0.509
7.48871	0.404
7.52848	0.665
7.56825	0.728
7.60802	0.723
7.64779	0.699
7.68757	0.648
7.72734	0.439
7.76711	0.17
7.80688	0.091
7.84665	0.301
7.88642	0.611
7.9262	0.708
7.96597	0.737
8.00574	0.752
8.04551	0.752
8.08528	0.754
8.12505	0.762
8.16483	0.757
8.2046	0.713
8.24437	0.669
8.28414	0.555
8.32391	0.386
8.36368	0.235
8.40345	0.076
8.44323	0.039
8.483	0.177
8.52277	0.354
8.56254	0.431
8.60231	0.459
8.64208	0.454
8.68186	0.305
8.72163	0.092
8.7614	0.135
8.80117	0.29
8.84094	0.461
8.88071	0.515
8.92049	0.565
8.96026	0.626
9.00003	0.655
9.0398	0.698
9.07957	0.716
9.11934	0.728
9.15911	0.703
9.19889	0.645
9.23866	0.615
9.27843	0.542
9.3182	0.636
9.35797	0.703
9.39774	0.668
9.43752	0.553
9.47729	0.505
9.51706	0.601
9.55683	0.726
9.5966	0.761
9.63637	0.769
9.67615	0.769
9.71592	0.754
9.75569	0.671
9.79546	0.432
9.83523	0.135
9.875	0.114
9.91478	0.386
9.95455	0.557
9.99432	0.651
10.0341	0.744
10.0739	0.772
10.1136	0.766
10.1534	0.729
10.1932	0.746
10.2329	0.792
10.2727	0.815
10.3125	0.834
10.3523	0.842
10.392	0.844
10.4318	0.827
10.4716	0.8
10.5113	0.807
10.5511	0.835
10.5909	0.845
10.6307	0.842
10.6704	0.817
10.7102	0.809
10.75	0.84
10.7898	0.865
10.8295	0.877
10.8693	0.885
10.9091	0.892
10.9488	0.897
10.9886	0.9
11.0284	0.905
11.0682	0.908
11.1079	0.91
11.1477	0.912
11.1875	0.912
11.2272	0.912
11.267	0.912
11.3068	0.912
11.3466	0.912
11.3863	0.908
11.4261	0.903
11.4659	0.888
11.5056	0.873
11.5454	0.847
11.5852	0.814
11.625	0.766
11.6647	0.684
11.7045	0.601
11.7443	0.548
11.784	0.484
11.8238	0.402
11.8636	0.396
11.9034	0.454
11.9431	0.472
11.9829	0.442
12.0227	0.374
12.0624	0.358
12.1022	0.394
12.142	0.427
12.1818	0.442
12.2215	0.49
12.2613	0.578
12.3011	0.661
12.3408	0.728
12.3806	0.759
12.4204	0.786
12.4602	0.794
12.4999	0.797
12.5397	0.805
12.5795	0.815
12.6192	0.812
12.659	0.769
12.6988	0.663
12.7386	0.558
12.7783	0.592
12.8181	0.704
12.8579	0.762
12.8976	0.802
12.9374	0.825
12.9772	0.844
13.017	0.859
13.0567	0.868
13.0965	0.875
13.1363	0.88
13.176	0.885
13.2158	0.887
13.2556	0.89
13.2954	0.89
13.3351	0.89
13.3749	0.892
13.4147	0.892
13.4544	0.892
13.4942	0.892
13.534	0.892
13.5738	0.892
13.6135	0.888
13.6533	0.888
13.6931	0.888
13.7328	0.887
13.7726	0.883
13.8124	0.87
13.8522	0.859
13.8919	0.857
13.9317	0.857
13.9715	0.859
14.0112	0.859
14.051	0.859
14.0908	0.859
14.1306	0.859
14.1703	0.855
14.2101	0.852
14.2499	0.849
14.2897	0.844
14.3294	0.84
14.3692	0.84
14.409	0.835
14.4487	0.83
14.4885	0.827
14.5283	0.822
14.5681	0.817
14.6078	0.812
14.6476	0.807
14.6874	0.802
14.7271	0.794
14.7669	0.789
14.8067	0.787
14.8465	0.779
14.8862	0.776
14.926	0.762
14.9658	0.751
15.0055	0.742
15.0453	0.737
15.0851	0.734
15.1249	0.731
15.1646	0.726
15.2044	0.719
15.2442	0.711
15.2839	0.706
15.3237	0.691
15.3635	0.676
15.4033	0.661
15.443	0.651
15.4828	0.648
15.5226	0.645
15.5623	0.643
15.6021	0.645
15.6419	0.648
15.6817	0.646
15.7214	0.645
15.7612	0.641
15.801	0.64
15.8407	0.64
15.8805	0.636
15.9203	0.633
15.9601	0.626
