Infrared Spectrum: 2-BORNANONE, 3-NITRO-, d-
Formula: C10 H15 N O3
CAS: 2243-88-1
State: SOLID (SPLIT MULL), FLUOROLUBE FOR 3800-1330 CM^-^1, NUJOL FOR 1330-400 CM^-^1
Melting point: 98 C
Class: COBLENTZ III
Instrument: DOW KBr FOREPRISM-GRATING
Instrument parameters: BLAZED AT 3.5, 12.0, 20.0 MICRON AND CHANGED AT 5.0, 7.5, 14.9 MICRON
Sampling: TRANSMISSION
Resolution: 2
Origin: DOW CHEMICAL COMPANY
1/CM	TRANSMITTANCE
380	0.6941
389	0.6878
398	0.6833
407	0.678
416	0.665
425	0.6583
434	0.6806
443	0.6736
452	0.6657
461	0.6541
470	0.6197
479	0.5912
488	0.7198
497	0.7576
506	0.7732
515	0.7739
524	0.7051
533	0.7468
542	0.8011
551	0.7741
560	0.7068
569	0.7865
578	0.7175
587	0.6951
596	0.8178
605	0.8437
614	0.854
623	0.8552
632	0.8552
641	0.8562
650	0.853
659	0.8517
668	0.8418
677	0.7442
686	0.8108
695	0.6005
704	0.6885
713	0.7535
722	0.5914
731	0.776
740	0.8125
749	0.8093
758	0.7519
767	0.3017
776	0.7425
785	0.8146
794	0.8185
803	0.8273
812	0.838
821	0.8284
830	0.8397
839	0.8216
848	0.8359
857	0.8541
866	0.8202
875	0.8625
884	0.8624
893	0.8527
902	0.8327
911	0.8492
920	0.8394
929	0.7551
938	0.7764
947	0.8015
956	0.7781
965	0.7961
974	0.7896
983	0.7691
992	0.7385
1001	0.7071
1010	0.5991
1019	0.6515
1028	0.6134
1037	0.5384
1046	0.4032
1055	0.5077
1064	0.5298
1073	0.5079
1082	0.4347
1091	0.4717
1100	0.4704
1109	0.421
1118	0.5307
1127	0.5628
1136	0.5784
1145	0.5824
1154	0.5458
1163	0.6167
1172	0.6212
1181	0.6116
1190	0.5395
1199	0.6489
1208	0.6312
1217	0.5866
1226	0.6649
1235	0.7015
1244	0.6382
1253	0.7198
1262	0.6955
1271	0.6288
1280	0.5998
1289	0.5489
1298	0.641
1307	0.418
1316	0.6537
1325	0.5702
1334	0.6441
1343	0.6165
1352	0.5423
1361	0.4781
1370	0.3692
1379	0.2884
1388	0.6783
1397	0.479
1406	0.7654
1415	0.7594
1424	0.7456
1433	0.7171
1442	0.586
1451	0.4733
1460	0.5305
1469	0.6424
1478	0.5529
1487	0.6605
1496	0.7441
1505	0.7365
1514	0.6864
1523	0.5795
1532	0.3432
1541	0.0305
1550	0.0719
1559	0.3607
1568	0.7578
1577	0.8294
1586	0.848
1595	0.8454
1604	0.8312
1613	0.8202
1622	0.8223
1631	0.8297
1640	0.8301
1649	0.8358
1658	0.8368
1667	0.8359
1676	0.8283
1685	0.8165
1694	0.8051
1703	0.7905
1712	0.7628
1721	0.7526
1730	0.6922
1739	0.5929
1748	0.4485
1757	0.1421
1766	0.0806
1775	0.5044
1784	0.7189
1793	0.8373
1802	0.8471
1811	0.8631
1820	0.8816
1829	0.8845
1838	0.8828
1847	0.8851
1856	0.8801
1865	0.8755
1874	0.8786
1883	0.881
1892	0.8805
1901	0.8805
1910	0.8812
1919	0.8812
1928	0.8807
1937	0.88
1946	0.8794
1955	0.8796
1964	0.8734
1973	0.8692
1982	0.8658
1991	0.8571
2000	0.8425
2009	0.8409
2018	0.8408
2027	0.84
2036	0.8332
2045	0.8295
2054	0.8278
2063	0.8267
2072	0.8262
2081	0.8249
2090	0.8242
2099	0.8249
2108	0.8242
2117	0.8216
2126	0.8185
2135	0.8206
2144	0.8214
2153	0.8193
2162	0.8169
2171	0.8154
2180	0.8136
2189	0.8114
2198	0.8101
2207	0.8083
2216	0.8048
2225	0.8008
2234	0.7969
2243	0.7951
2252	0.7933
2261	0.7915
2270	0.7895
2279	0.7875
2288	0.7856
2297	0.7836
2306	0.7815
2315	0.7821
2324	0.783
2333	0.7843
2342	0.786
2351	0.7865
2360	0.7864
2369	0.7861
2378	0.7861
2387	0.7861
2396	0.7858
2405	0.7854
2414	0.7851
2423	0.7849
2432	0.7847
2441	0.7847
2450	0.7847
2459	0.7848
2468	0.7851
2477	0.7855
2486	0.7868
2495	0.7888
2504	0.7883
2513	0.7874
2522	0.7865
2531	0.7855
2540	0.7845
2549	0.7837
2558	0.783
2567	0.7822
2576	0.7815
2585	0.7808
2594	0.7801
2603	0.7794
2612	0.7787
2621	0.7778
2630	0.7768
2639	0.7757
2648	0.7746
2657	0.7731
2666	0.7715
2675	0.7697
2684	0.7665
2693	0.7633
2702	0.7595
2711	0.7553
2720	0.7501
2729	0.7456
2738	0.7475
2747	0.7561
2756	0.7562
2765	0.7536
2774	0.7489
2783	0.7438
2792	0.7381
2801	0.731
2810	0.7232
2819	0.7148
2828	0.7064
2837	0.6961
2846	0.6838
2855	0.656
2864	0.5972
2873	0.5077
2882	0.5162
2891	0.5456
2900	0.5382
2909	0.5019
2918	0.4888
2927	0.4751
2936	0.4429
2945	0.4725
2954	0.3659
2963	0.2852
2972	0.3042
2981	0.4771
2990	0.5855
2999	0.6132
3008	0.7119
3017	0.7337
3026	0.7376
3035	0.7378
3044	0.7374
3053	0.7365
3062	0.7353
3071	0.7339
3080	0.7324
3089	0.7305
3098	0.7283
3107	0.7253
3116	0.7224
3125	0.7192
3134	0.7161
3143	0.7126
3152	0.7089
3161	0.705
3170	0.7011
3179	0.698
3188	0.6956
3197	0.6931
3206	0.6907
3215	0.6878
3224	0.6848
3233	0.6817
3242	0.6791
3251	0.6768
3260	0.6746
3269	0.6717
3278	0.6688
3287	0.6657
3296	0.6634
3305	0.6612
3314	0.6581
3323	0.6547
3332	0.651
3341	0.6465
3350	0.6415
3359	0.6351
3368	0.6315
3377	0.6288
3386	0.6267
3395	0.625
3404	0.6238
3413	0.6228
3422	0.6221
3431	0.6217
3440	0.6219
3449	0.6221
3458	0.6227
3467	0.6231
3476	0.6221
3485	0.6185
3494	0.6135
3503	0.6174
3512	0.6267
3521	0.6355
3530	0.6421
3539	0.6471
3548	0.6504
3557	0.6534
3566	0.6565
3575	0.6588
3584	0.6603
3593	0.6619
3602	0.6637
3611	0.6655
3620	0.6664
3629	0.6671
3638	0.6678
3647	0.6681
3656	0.6685
3665	0.6689
3674	0.6686
3683	0.668
3692	0.6671
3701	0.6708
3710	0.673
3719	0.6735
3728	0.673
3737	0.6719
3746	0.6707
3755	0.6693
3764	0.6675
3773	0.6656
