Infrared Spectrum: 4-ACETAMIDE-3-NITROPHENYL ACETATE
Formula: C10 H10 N2 O5
CAS: 2243-69-8
State: SOLID (MINERAL OIL MULL)
Melting point: 147-148 C
Class: COBLENTZ
Instrument: Not specified, most likely a prism, grating, or hybrid spectrometer.
Sampling: TRANSMISSION
Resolution: 4
Origin: WYANDOTTE CHEMICALS CORP., WYANDOTTE, MICHIGAN, USA
MICROMETERS	TRANSMITTANCE
2.04	0.629
2.07975	0.629
2.11951	0.637
2.15926	0.637
2.19902	0.631
2.23877	0.631
2.27853	0.641
2.31828	0.647
2.35803	0.656
2.39779	0.661
2.43754	0.659
2.4773	0.656
2.51705	0.659
2.5568	0.679
2.59656	0.691
2.63631	0.679
2.67607	0.694
2.71582	0.672
2.75558	0.672
2.79533	0.672
2.83508	0.654
2.87484	0.646
2.91459	0.626
2.95435	0.529
2.9941	0.267
3.03386	0.475
3.07361	0.581
3.11336	0.629
3.15312	0.641
3.19287	0.609
3.23263	0.566
3.27238	0.621
3.31213	0.566
3.35189	0.21
3.39164	0.091
3.4314	0.166
3.47115	0.23
3.51091	0.307
3.55066	0.694
3.59041	0.752
3.63017	0.792
3.66992	0.785
3.70968	0.794
3.74943	0.805
3.78918	0.812
3.82894	0.825
3.86869	0.832
3.90845	0.837
3.9482	0.852
3.98796	0.85
4.02771	0.855
4.06746	0.86
4.10722	0.86
4.14697	0.855
4.18673	0.853
4.22648	0.852
4.26624	0.817
4.30599	0.848
4.34574	0.873
4.3855	0.916
4.42525	0.903
4.46501	0.898
4.50476	0.903
4.54451	0.901
4.58427	0.911
4.62402	0.906
4.66378	0.91
4.70353	0.92
4.74329	0.92
4.78304	0.923
4.82279	0.916
4.86255	0.928
4.9023	0.928
4.94206	0.93
4.98181	0.936
5.02157	0.938
5.06132	0.926
5.10107	0.93
5.14083	0.938
5.18058	0.928
5.22034	0.938
5.26009	0.935
5.29984	0.953
5.3396	0.95
5.37935	0.921
5.41911	0.928
5.45886	0.908
5.49862	0.885
5.53837	0.787
5.57812	0.808
5.61788	0.735
5.65763	0.518
5.69739	0.084
5.73714	0.45
5.7769	0.654
5.81665	0.644
5.8564	0.531
5.89616	0.255
5.93591	0.101
5.97567	0.23
6.01542	0.43
6.05517	0.511
6.09493	0.521
6.13468	0.463
6.17444	0.591
6.21419	0.546
6.25395	0.217
6.2937	0.299
6.33345	0.566
6.37321	0.559
6.41296	0.445
6.45272	0.259
6.49247	0.196
6.53223	0.129
6.57198	0.061
6.61173	0.096
6.65149	0.181
6.69124	0.294
6.731	0.328
6.77075	0.235
6.8105	0.119
6.85026	0.2
6.89001	0.275
6.92977	0.338
6.96952	0.4
7.00928	0.455
7.04903	0.548
7.08878	0.569
7.12854	0.513
7.16829	0.498
7.20805	0.451
7.2478	0.302
7.28755	0.2
7.32731	0.245
7.36706	0.343
7.40682	0.229
7.44657	0.109
7.48633	0.292
7.52608	0.491
7.56583	0.586
7.60559	0.556
7.64534	0.508
7.6851	0.506
7.72485	0.37
7.76461	0.292
7.80436	0.212
7.84411	0.086
7.88387	0.098
7.92362	0.197
7.96338	0.227
8.00313	0.204
8.04288	0.207
8.08264	0.269
8.12239	0.294
8.16215	0.204
8.2019	0.054
8.24166	0.048
8.28141	0.109
8.32116	0.177
8.36092	0.131
8.40067	0.167
8.44043	0.244
8.48018	0.322
8.51994	0.38
8.55969	0.436
8.59944	0.481
8.6392	0.514
8.67895	0.534
8.71871	0.549
8.75846	0.426
8.79821	0.139
8.83797	0.32
8.87772	0.485
8.91748	0.556
8.95723	0.601
8.99699	0.622
9.03674	0.634
9.07649	0.644
9.11625	0.661
9.156	0.667
9.19576	0.669
9.23551	0.676
9.27527	0.669
9.31502	0.624
9.35477	0.601
9.39453	0.649
9.43428	0.649
9.47404	0.596
9.51379	0.498
9.55354	0.533
9.5933	0.569
9.63305	0.583
9.67281	0.607
9.71256	0.593
9.75232	0.493
9.79207	0.33
9.83182	0.23
9.87158	0.282
9.91133	0.415
9.95109	0.516
9.99084	0.589
10.0306	0.637
10.0703	0.662
10.1101	0.687
10.1499	0.702
10.1896	0.704
10.2294	0.656
10.2691	0.598
10.3089	0.674
10.3486	0.659
10.3884	0.564
10.4281	0.622
10.4679	0.667
10.5076	0.662
10.5474	0.531
10.5872	0.31
10.6269	0.41
10.6667	0.568
10.7064	0.636
10.7462	0.672
10.7859	0.694
10.8257	0.702
10.8654	0.709
10.9052	0.7
10.9449	0.679
10.9847	0.624
11.0245	0.431
11.0642	0.222
11.104	0.355
11.1437	0.569
11.1835	0.682
11.2232	0.724
11.263	0.752
11.3027	0.769
11.3425	0.784
11.3822	0.794
11.422	0.79
11.4617	0.774
11.5015	0.681
11.5413	0.569
11.581	0.666
11.6208	0.717
11.6605	0.739
11.7003	0.735
11.74	0.712
11.7798	0.637
11.8195	0.456
11.8593	0.38
11.899	0.453
11.9388	0.471
11.9786	0.478
12.0183	0.604
12.0581	0.696
12.0978	0.739
12.1376	0.762
12.1773	0.784
12.2171	0.789
12.2568	0.795
12.2966	0.8
12.3363	0.808
12.3761	0.802
12.4158	0.794
12.4556	0.762
12.4954	0.661
12.5351	0.652
12.5749	0.755
12.6146	0.795
12.6544	0.808
12.6941	0.815
12.7339	0.82
12.7736	0.82
12.8134	0.822
12.8531	0.823
12.8929	0.82
12.9327	0.815
12.9724	0.81
13.0122	0.81
13.0519	0.803
13.0917	0.789
13.1314	0.727
13.1712	0.586
13.2109	0.478
13.2507	0.631
13.2904	0.74
13.3302	0.772
13.3699	0.785
13.4097	0.8
13.4495	0.799
13.4892	0.799
13.529	0.797
13.5687	0.797
13.6085	0.792
13.6482	0.787
13.688	0.785
13.7277	0.784
13.7675	0.777
13.8072	0.772
13.847	0.764
13.8868	0.74
13.9265	0.729
13.9663	0.747
14.006	0.775
14.0458	0.785
14.0855	0.792
14.1253	0.799
14.165	0.8
14.2048	0.8
14.2445	0.8
14.2843	0.8
14.324	0.799
14.3638	0.795
14.4036	0.794
14.4433	0.787
14.4831	0.775
14.5228	0.767
14.5626	0.752
14.6023	0.722
14.6421	0.691
14.6818	0.662
14.7216	0.659
14.7613	0.666
14.8011	0.691
14.8409	0.7
14.8806	0.707
14.9204	0.707
14.9601	0.705
14.9999	0.697
15.0396	0.677
15.0794	0.659
15.1191	0.671
15.1589	0.679
15.1986	0.676
15.2384	0.664
15.2782	0.659
15.3179	0.651
15.3577	0.641
15.3974	0.631
15.4372	0.621
15.4769	0.609
15.5167	0.598
15.5564	0.589
15.5962	0.576
15.6359	0.558
15.6757	0.543
15.7154	0.528
15.7552	0.516
15.795	0.509
15.8347	0.514
15.8745	0.521
15.9142	0.531
15.954	0.539
