Infrared Spectrum: 4-(M-NITROPHENYLAZO)RESORCINOL
Formula: C12 H9 N3 O4
CAS: 2243-74-5
State: SOLID (MULL)
Melting point: 174-176 C
Class: COBLENTZ
Instrument: Not specified, most likely a prism, grating, or hybrid spectrometer.
Sampling: TRANSMISSION
Resolution: 4
Origin: WYANDOTTE CHEMICALS CORP., WYANDOTTE, MICHIGAN, USA
MICROMETERS	TRANSMITTANCE
2.028	0.266
2.06795	0.266
2.10789	0.266
2.14784	0.271
2.18779	0.264
2.22774	0.264
2.26768	0.262
2.30763	0.267
2.34758	0.281
2.38753	0.282
2.42747	0.294
2.46742	0.302
2.50737	0.307
2.54732	0.309
2.58726	0.312
2.62721	0.316
2.66716	0.322
2.70711	0.334
2.74705	0.341
2.787	0.336
2.82695	0.334
2.8669	0.299
2.90684	0.302
2.94679	0.306
2.98674	0.309
3.02669	0.316
3.06663	0.319
3.10658	0.317
3.14653	0.312
3.18648	0.299
3.22642	0.284
3.26637	0.242
3.30632	0.204
3.34627	0.138
3.38621	0.051
3.42616	0.026
3.46611	0.021
3.50606	0.019
3.546	0.028
3.58595	0.139
3.6259	0.249
3.66585	0.286
3.70579	0.289
3.74574	0.302
3.78569	0.312
3.82564	0.321
3.86558	0.329
3.90553	0.339
3.94548	0.346
3.98543	0.356
4.02537	0.367
4.06532	0.379
4.10527	0.391
4.14522	0.4
4.18516	0.41
4.22511	0.422
4.26506	0.424
4.30501	0.429
4.34495	0.432
4.3849	0.447
4.42485	0.472
4.4648	0.484
4.50474	0.497
4.54469	0.505
4.58464	0.52
4.62459	0.53
4.66453	0.532
4.70448	0.549
4.74443	0.569
4.78438	0.587
4.82432	0.6
4.86427	0.605
4.90422	0.612
4.94417	0.618
4.98411	0.627
5.02406	0.64
5.06401	0.647
5.10396	0.65
5.1439	0.648
5.18385	0.653
5.2238	0.658
5.26375	0.66
5.30369	0.672
5.34364	0.677
5.38359	0.683
5.42354	0.702
5.46348	0.7
5.50343	0.73
5.54338	0.755
5.58333	0.768
5.62327	0.788
5.66322	0.8
5.70317	0.825
5.74312	0.838
5.78306	0.853
5.82301	0.871
5.86296	0.88
5.9029	0.911
5.94285	0.931
5.9828	0.938
6.02275	0.906
6.06269	0.8
6.10264	0.502
6.14259	0.307
6.18254	0.237
6.22248	0.282
6.26243	0.367
6.30238	0.464
6.34233	0.574
6.38227	0.602
6.42222	0.58
6.46217	0.5
6.50212	0.256
6.54206	0.161
6.58201	0.148
6.62196	0.141
6.66191	0.148
6.70185	0.138
6.7418	0.098
6.78175	0.056
6.8217	0.038
6.86164	0.031
6.90159	0.048
6.94154	0.111
6.98149	0.226
7.02143	0.307
7.06138	0.299
7.10133	0.269
7.14128	0.267
7.18122	0.256
7.22117	0.151
7.26112	0.093
7.30107	0.163
7.34101	0.198
7.38096	0.189
7.42091	0.103
7.46086	0.143
7.5008	0.202
7.54075	0.222
7.5807	0.262
7.62065	0.302
7.66059	0.314
7.70054	0.326
7.74049	0.291
7.78044	0.239
7.82038	0.136
7.86033	0.133
7.90028	0.176
7.94023	0.153
7.98017	0.133
8.02012	0.123
8.06007	0.093
8.10002	0.088
8.13996	0.093
8.17991	0.116
8.21986	0.124
8.25981	0.149
8.29975	0.198
8.3397	0.216
8.37965	0.206
8.4196	0.202
8.45954	0.198
8.49949	0.178
8.53944	0.168
8.57939	0.171
8.61933	0.168
8.65928	0.186
8.69923	0.249
8.73918	0.312
8.77912	0.357
8.81907	0.372
8.85902	0.326
8.89897	0.262
8.93891	0.251
8.97886	0.256
9.01881	0.247
9.05876	0.272
9.0987	0.314
9.13865	0.352
9.1786	0.379
9.21855	0.386
9.25849	0.386
9.29844	0.387
9.33839	0.397
9.37834	0.434
9.41828	0.459
9.45823	0.477
9.49818	0.49
9.53813	0.51
9.57807	0.527
9.61802	0.54
9.65797	0.55
9.69791	0.559
9.73786	0.52
9.77781	0.457
9.81776	0.415
9.8577	0.437
9.89765	0.48
9.9376	0.52
9.97755	0.532
10.0175	0.532
10.0574	0.539
10.0974	0.545
10.1373	0.522
10.1773	0.494
10.2172	0.48
10.2572	0.477
10.2971	0.46
10.3371	0.472
10.377	0.485
10.417	0.487
10.4569	0.512
10.4969	0.537
10.5368	0.569
10.5768	0.584
10.6167	0.577
10.6567	0.579
10.6966	0.575
10.7365	0.577
10.7765	0.58
10.8164	0.6
10.8564	0.62
10.8963	0.632
10.9363	0.647
10.9762	0.662
11.0162	0.678
11.0561	0.672
11.0961	0.613
11.136	0.587
11.176	0.607
11.2159	0.61
11.2559	0.613
11.2958	0.64
11.3358	0.663
11.3757	0.672
11.4157	0.67
11.4556	0.658
11.4956	0.65
11.5355	0.643
11.5754	0.642
11.6154	0.608
11.6553	0.53
11.6953	0.479
11.7352	0.497
11.7752	0.532
11.8151	0.55
11.8551	0.542
11.895	0.519
11.935	0.502
11.9749	0.497
12.0149	0.515
12.0548	0.545
12.0948	0.572
12.1347	0.602
12.1747	0.657
12.2146	0.693
12.2546	0.622
12.2945	0.499
12.3344	0.342
12.3744	0.241
12.4143	0.184
12.4543	0.183
12.4942	0.237
12.5342	0.287
12.5741	0.322
12.6141	0.376
12.654	0.437
12.694	0.484
12.7339	0.529
12.7739	0.577
12.8138	0.597
12.8538	0.62
12.8937	0.638
12.9337	0.667
12.9736	0.672
13.0136	0.69
13.0535	0.712
13.0935	0.723
13.1334	0.74
13.1733	0.755
13.2133	0.77
13.2532	0.782
13.2932	0.793
13.3331	0.801
13.3731	0.795
13.413	0.733
13.453	0.6
13.4929	0.49
13.5329	0.397
13.5728	0.361
13.6128	0.354
13.6527	0.362
13.6927	0.397
13.7326	0.445
13.7726	0.485
13.8125	0.534
13.8525	0.572
13.8924	0.602
13.9323	0.637
13.9723	0.672
14.0122	0.707
14.0522	0.732
14.0921	0.765
14.1321	0.79
14.172	0.806
14.212	0.815
14.2519	0.823
14.2919	0.835
14.3318	0.845
14.3718	0.851
14.4117	0.856
14.4517	0.853
14.4916	0.851
14.5316	0.816
14.5715	0.78
14.6115	0.743
14.6514	0.732
14.6913	0.727
14.7313	0.727
14.7712	0.73
14.8112	0.735
14.8511	0.748
14.8911	0.753
14.931	0.743
14.971	0.71
15.0109	0.66
15.0509	0.603
15.0908	0.54
15.1308	0.525
15.1707	0.545
15.2107	0.582
15.2506	0.618
15.2906	0.635
15.3305	0.645
15.3705	0.652
15.4104	0.637
15.4504	0.627
15.4903	0.617
15.5302	0.617
15.5702	0.618
15.6101	0.623
15.6501	0.625
15.69	0.623
15.73	0.617
15.7699	0.599
15.8099	0.577
15.8498	0.565
15.8898	0.554
15.9297	0.545
15.9697	0.527
