Infrared Spectrum: (3-(4-Methoxyphenyl)propionitrile
Formula: C 10 H 11 N O
CAS: 22442-48-4
State: gas
Origin: EPA-IR VAPOR PHASE LIBRARY
1/CM	ABSORBANCE
549.8	0.004757
559.445	0.005057
569.09	0.004207
578.734	0.004487
588.379	0.002797
598.024	0.001527
607.669	0.0010875
617.313	0.0010481
626.958	0.0006675
636.603	0.0009184
646.248	0.0005776
655.893	0.0005294
665.537	0.0006071
675.182	0.0008095
684.827	0.001627
694.472	0.003437
704.116	0.003507
713.761	0.001927
723.406	0.001757
733.051	0.001497
742.695	0.001797
752.34	0.002287
761.985	0.001817
771.63	0.001867
781.275	0.002607
790.919	0.004507
800.564	0.007927
810.209	0.011387
819.854	0.014237
829.498	0.016017
839.143	0.012977
848.788	0.006367
858.433	0.002777
868.078	0.001727
877.722	0.001327
887.367	0.0012058
897.012	0.0010552
906.657	0.0010632
916.301	0.001457
925.946	0.002057
935.591	0.001457
945.236	0.001347
954.88	0.001427
964.525	0.001757
974.17	0.002057
983.815	0.002647
993.46	0.003477
1003.1	0.004227
1012.75	0.006507
1022.39	0.011027
1032.04	0.019627
1041.68	0.023877
1051.33	0.015727
1060.97	0.007187
1070.62	0.003637
1080.26	0.003097
1089.91	0.003047
1099.55	0.003867
1109.2	0.004847
1118.84	0.003757
1128.49	0.002977
1138.13	0.002367
1147.78	0.003137
1157.42	0.004567
1167.07	0.012827
1176.71	0.027567
1186.36	0.016057
1196	0.007087
1205.64	0.006467
1215.29	0.009647
1224.93	0.015467
1234.58	0.035027
1244.22	0.083287
1253.87	0.097077
1263.51	0.044527
1273.16	0.024827
1282.8	0.022767
1292.45	0.024447
1302.09	0.019247
1311.74	0.009577
1321.38	0.006757
1331.03	0.006927
1340.67	0.007157
1350.32	0.005067
1359.96	0.003167
1369.61	0.002507
1379.25	0.002247
1388.9	0.002197
1398.54	0.002497
1408.18	0.002947
1417.83	0.004367
1427.47	0.007127
1437.12	0.010847
1446.76	0.012767
1456.41	0.012497
1466.05	0.013927
1475.7	0.011467
1485.34	0.008707
1494.99	0.014807
1504.63	0.048377
1514.28	0.085697
1523.92	0.034467
1533.57	0.008907
1543.21	0.004767
1552.86	0.003637
1562.5	0.003627
1572.15	0.004657
1581.79	0.007317
1591.44	0.009447
1601.08	0.014577
1610.73	0.021137
1620.37	0.015737
1630.01	0.006797
1639.66	0.003697
1649.3	0.002717
1658.95	0.002037
1668.59	0.001547
1678.24	0.001277
1687.88	0.0010577
1697.53	0.0009198
1707.17	0.0008878
1716.82	0.0010101
1726.46	0.0009612
1736.11	0.0009913
1745.75	0.001347
1755.4	0.001397
1765.04	0.0011195
1774.69	0.0008676
1784.33	0.0007239
1793.98	0.0007381
1803.62	0.0008037
1813.27	0.0008047
1822.91	0.0009086
1832.55	0.0009346
1842.2	0.0011374
1851.84	0.0012114
1861.49	0.001547
1871.13	0.001747
1880.78	0.001637
1890.42	0.001297
1900.07	0.0010465
1909.71	0.0009119
1919.36	0.0008157
1929	0.0009019
1938.65	0.0010176
1948.29	0.0011071
1957.94	0.0010268
1967.58	0.0010074
1977.23	0.0010583
1986.87	0.0011063
1996.52	0.001277
2006.16	0.001277
2015.81	0.0011826
2025.45	0.0011616
2035.1	0.001327
2044.74	0.001577
2054.38	0.001837
2064.03	0.001957
2073.67	0.001807
2083.32	0.001557
2092.96	0.0011618
2102.61	0.0008482
2112.25	0.0006502
2121.9	0.0005708
2131.54	0.0005842
2141.19	0.0004986
2150.83	0.0004524
2160.48	0.0004522
2170.12	0.000462
2179.77	0.0004852
2189.41	0.0005008
2199.06	0.000488
2208.7	0.0005932
2218.35	0.0006008
2227.99	0.0007266
2237.64	0.0010127
2247.28	0.001677
2256.92	0.001487
2266.57	0.0010011
2276.21	0.0009194
2285.86	0.0008845
2295.5	0.0009002
2305.15	0.000813
2314.79	0.000764
2324.44	0.0008038
2334.08	0.0006118
2343.73	0.0007299
2353.37	0.0007473
2363.02	0.0006194
2372.66	0.0006509
2382.31	0.0004939
2391.95	0.0005391
2401.6	0.0005469
2411.24	0.0007364
2420.89	0.0008834
2430.53	0.0009371
2440.18	0.0006767
2449.82	0.0007543
2459.47	0.000685
2469.11	0.000825
2478.75	0.0008868
2488.4	0.0009567
2498.04	0.0009376
2507.69	0.0008174
2517.33	0.0009651
2526.98	0.0010325
2536.62	0.0011388
2546.27	0.001277
2555.91	0.000978
2565.56	0.0007864
2575.2	0.0007309
2584.85	0.0009692
2594.49	0.0008909
2604.14	0.0007754
2613.78	0.0007516
2623.43	0.0006024
2633.07	0.0008136
2642.72	0.0006313
2652.36	0.0006626
2662.01	0.0006052
2671.65	0.0006437
2681.29	0.0005983
2690.94	0.0006242
2700.58	0.0006126
2710.23	0.0005304
2719.87	0.0006605
2729.52	0.0005389
2739.16	0.0006709
2748.81	0.0007866
2758.45	0.0008944
2768.1	0.0009474
2777.74	0.0010476
2787.39	0.001237
2797.03	0.001487
2806.68	0.001857
2816.32	0.002607
2825.97	0.003857
2835.61	0.007147
2845.26	0.011177
2854.9	0.008537
2864.55	0.006397
2874.19	0.006747
2883.84	0.006277
2893.48	0.006107
2903.12	0.007607
2912.77	0.010387
2922.41	0.012827
2932.06	0.017607
2941.7	0.024137
2951.35	0.023557
2960.99	0.021067
2970.64	0.015387
2980.28	0.010007
2989.93	0.009367
2999.57	0.012657
3009.22	0.016527
3018.86	0.011657
3028.51	0.010267
3038.15	0.010877
3047.8	0.006867
3057.44	0.004567
3067.09	0.004687
3076.73	0.004887
3086.38	0.004037
3096.02	0.003467
3105.67	0.003077
3115.31	0.002327
3124.95	0.001877
3134.6	0.001377
3144.24	0.0010902
3153.89	0.0007704
3163.53	0.0008327
3173.18	0.0008309
3182.82	0.0005612
3192.47	0.0006882
3202.11	0.0005122
3211.76	0.0006257
3221.4	0.0004798
3231.05	0.0006155
3240.69	0.0004409
3250.34	0.00045
3259.98	0.0004299
3269.63	0.000225056
3279.27	0.000448
3288.92	0.00025162
3298.56	0.0004243
3308.21	0.0003578
3317.85	0.00030011
3327.49	0.0001997
3337.14	0.00025671
3346.78	0.0004009
3356.43	0.00025268
3366.07	0.0003953
3375.72	8.4e-05
3385.36	0.0004289
3395.01	0.00031402
3404.65	0.0003446
3414.3	0.0003767
3423.94	0.0003631
3433.59	0.00028188
3443.23	0.00029165
3452.88	0.0003371
3462.52	0.0001668
3472.17	0.0001307
3481.81	0.0003811
3491.46	0.0001875
3501.1	0.0004086
3510.75	0.000107
3520.39	0.0003669
3530.04	0.0001943
3539.68	0.0001312
3549.32	0.000223374
3558.97	0.00024419
3568.61	0.00027958
3578.26	0.0003568
3587.9	7e-05
3597.55	0.00017
3607.19	0.00023075
3616.84	0.00030613
3626.48	0.0001456
3636.13	0.000102
3645.77	9.1e-05
3655.42	0.0003582
3665.06	0.00029588
3674.71	0.000106
3684.35	0.0003779
3694	0.00027286
3703.64	0.0003606
3713.29	9.9e-05
3722.93	0.0001316
3732.58	0.0003404
3742.22	0.0002552
3751.86	0.0001503
3761.51	0.0001831
3771.15	0.0001846
3780.8	0.0003594
3790.44	0.000102
3800.09	0.0003621
3809.73	0.00030182
3819.38	0.0003598
3829.02	0.0002047
3838.67	7.2e-05
3848.31	0.000219029
3857.96	0.00027025
3867.6	0.0004893
3877.25	0.0004866
3886.89	0.00030474
3896.54	0.0003987
3906.18	0.0004278
3915.83	0.0004457
3925.47	0.0004883
3935.12	0.0003897
3944.76	0.000502
3954.41	0.0003734
3964.05	0.0003368
3973.69	0.00028621
3983.34	0.00031272
3992.98	0.0002027
