Infrared Spectrum: ALLOXAN, MONOHYDRATE
Formula: C4 H2 N2 O4  * H2 O
CAS: 2244-11-3
State: SOLID (MINERAL OIL MULL)
Melting point: 243 C DECOMPOSES
Class: COBLENTZ
Instrument: Not specified, most likely a prism, grating, or hybrid spectrometer.
Sampling: TRANSMISSION
Resolution: 4
MICROMETERS	TRANSMITTANCE
2.034	0.78
2.07518	0.785
2.11635	0.792
2.15753	0.795
2.19871	0.797
2.23989	0.801
2.28106	0.801
2.32224	0.802
2.36342	0.814
2.4046	0.828
2.44577	0.833
2.48695	0.848
2.52813	0.855
2.5693	0.869
2.61048	0.879
2.65166	0.887
2.69284	0.891
2.73401	0.894
2.77519	0.891
2.81637	0.879
2.85754	0.823
2.89872	0.717
2.9399	0.556
2.98108	0.318
3.02225	0.146
3.06343	0.134
3.10461	0.323
3.14579	0.452
3.18696	0.53
3.22814	0.612
3.26932	0.671
3.31049	0.69
3.35167	0.51
3.39285	0.081
3.43403	0.142
3.4752	0.25
3.51638	0.534
3.55756	0.773
3.59873	0.802
3.63991	0.807
3.68109	0.821
3.72227	0.828
3.76344	0.836
3.80462	0.848
3.8458	0.86
3.88698	0.875
3.92815	0.88
3.96933	0.886
4.01051	0.884
4.05168	0.877
4.09286	0.879
4.13404	0.891
4.17522	0.889
4.21639	0.889
4.25757	0.897
4.29875	0.908
4.33992	0.916
4.3811	0.916
4.42228	0.921
4.46346	0.925
4.50463	0.925
4.54581	0.926
4.58699	0.926
4.62817	0.926
4.66934	0.923
4.71052	0.923
4.7517	0.923
4.79287	0.926
4.83405	0.923
4.87523	0.921
4.91641	0.93
4.95758	0.931
4.99876	0.933
5.03994	0.931
5.08111	0.925
5.12229	0.921
5.16347	0.921
5.20465	0.916
5.24582	0.904
5.287	0.897
5.32818	0.894
5.36936	0.889
5.41053	0.877
5.45171	0.857
5.49289	0.828
5.53406	0.795
5.57524	0.734
5.61642	0.658
5.6576	0.479
5.69877	0.316
5.73995	0.127
5.78113	0.098
5.8223	0.134
5.86348	0.069
5.90466	0.095
5.94584	0.229
5.98701	0.321
6.02819	0.476
6.06937	0.603
6.11055	0.678
6.15172	0.721
6.1929	0.748
6.23408	0.777
6.27525	0.792
6.31643	0.802
6.35761	0.807
6.39879	0.812
6.43996	0.818
6.48114	0.775
6.52232	0.767
6.5635	0.799
6.60467	0.799
6.64585	0.799
6.68703	0.79
6.7282	0.722
6.76938	0.585
6.81056	0.374
6.85174	0.25
6.89291	0.248
6.93409	0.304
6.97527	0.331
7.01644	0.331
7.05762	0.391
7.0988	0.494
7.13998	0.511
7.18115	0.45
7.22233	0.295
7.26351	0.219
7.30469	0.301
7.34586	0.43
7.38704	0.488
7.42822	0.488
7.46939	0.459
7.51057	0.481
7.55175	0.534
7.59293	0.566
7.6341	0.608
7.67528	0.647
7.71646	0.67
7.75763	0.692
7.79881	0.704
7.83999	0.704
7.88117	0.695
7.92234	0.63
7.96352	0.5
8.0047	0.336
8.04588	0.26
8.08705	0.476
8.12823	0.613
8.16941	0.681
8.21058	0.714
8.25176	0.731
8.29294	0.739
8.33412	0.741
8.37529	0.732
8.41647	0.719
8.45765	0.683
8.49882	0.624
8.54	0.515
8.58118	0.363
8.62236	0.251
8.66353	0.314
8.70471	0.578
8.74589	0.61
8.78707	0.629
8.82824	0.661
8.86942	0.668
8.9106	0.673
8.95177	0.687
8.99295	0.688
9.03413	0.692
9.07531	0.697
9.11648	0.7
9.15766	0.7
9.19884	0.702
9.24001	0.693
9.28119	0.664
9.32237	0.617
9.36355	0.535
9.40472	0.43
9.4459	0.326
9.48708	0.401
9.52826	0.591
9.56943	0.69
9.61061	0.731
9.65179	0.738
9.69296	0.727
9.73414	0.717
9.77532	0.731
9.8165	0.685
9.85767	0.602
9.89885	0.598
9.94003	0.692
9.9812	0.765
10.0224	0.794
10.0636	0.802
10.1047	0.812
10.1459	0.821
10.1871	0.824
10.2283	0.829
10.2694	0.831
10.3106	0.833
10.3518	0.836
10.393	0.84
10.4342	0.841
10.4753	0.841
10.5165	0.841
10.5577	0.841
10.5989	0.843
10.64	0.846
10.6812	0.848
10.7224	0.85
10.7636	0.848
10.8047	0.85
10.8459	0.852
10.8871	0.85
10.9283	0.852
10.9695	0.852
11.0106	0.853
11.0518	0.855
11.093	0.855
11.1342	0.852
11.1753	0.852
11.2165	0.85
11.2577	0.846
11.2989	0.848
11.3401	0.85
11.3812	0.85
11.4224	0.85
11.4636	0.848
11.5048	0.85
11.5459	0.852
11.5871	0.852
11.6283	0.852
11.6695	0.85
11.7106	0.848
11.7518	0.843
11.793	0.84
11.8342	0.836
11.8754	0.836
11.9165	0.835
11.9577	0.828
11.9989	0.823
12.0401	0.819
12.0812	0.811
12.1224	0.799
12.1636	0.782
12.2048	0.743
12.246	0.697
12.2871	0.617
12.3283	0.511
12.3695	0.406
12.4107	0.425
12.4518	0.562
12.493	0.661
12.5342	0.676
12.5754	0.663
12.6165	0.593
12.6577	0.522
12.6989	0.455
12.7401	0.392
12.7813	0.353
12.8224	0.335
12.8636	0.353
12.9048	0.397
12.946	0.447
12.9871	0.488
13.0283	0.549
13.0695	0.608
13.1107	0.646
13.1519	0.659
13.193	0.663
13.2342	0.666
13.2754	0.668
13.3166	0.688
13.3577	0.707
13.3989	0.717
13.4401	0.719
13.4813	0.721
13.5224	0.719
13.5636	0.712
13.6048	0.702
13.646	0.692
13.6872	0.678
13.7283	0.666
13.7695	0.646
13.8107	0.627
13.8519	0.612
13.893	0.593
13.9342	0.574
13.9754	0.547
14.0166	0.527
14.0578	0.5
14.0989	0.484
14.1401	0.471
14.1813	0.467
14.2225	0.459
14.2636	0.438
14.3048	0.423
14.346	0.421
14.3872	0.443
14.4283	0.476
14.4695	0.493
14.5107	0.505
14.5519	0.517
14.5931	0.522
14.6342	0.532
14.6754	0.535
14.7166	0.54
14.7578	0.54
14.7989	0.539
14.8401	0.539
14.8813	0.534
14.9225	0.528
14.9636	0.518
15.0048	0.511
15.046	0.5
15.0872	0.489
15.1284	0.481
15.1695	0.469
15.2107	0.464
15.2519	0.457
15.2931	0.452
15.3342	0.445
15.3754	0.44
15.4166	0.437
15.4578	0.437
15.499	0.437
15.5401	0.437
15.5813	0.435
15.6225	0.433
15.6637	0.431
15.7048	0.43
15.746	0.425
15.7872	0.421
15.8284	0.42
15.8695	0.416
