Infrared Spectrum: 5-Iodo-m-xylene
Formula: C 8 H 9 I
CAS: 22445-41-6
State: gas
Origin: EPA-IR VAPOR PHASE LIBRARY
1/CM	ABSORBANCE
549.8	0.001801
559.445	0.0005499
569.09	0.0003222
578.734	0.000228
588.379	0.0003262
598.024	0.000392615
607.669	0.0005009
617.313	0.0005473
626.958	0.0006008
636.603	0.0006621
646.248	0.0007867
655.893	0.001671
665.537	0.005431
675.182	0.011621
684.827	0.007371
694.472	0.001921
704.116	0.0007142
713.761	0.0005906
723.406	0.000392019
733.051	0.0005226
742.695	0.0006365
752.34	0.0012288
761.985	0.002211
771.63	0.005811
781.275	0.019381
790.919	0.032081
800.564	0.005981
810.209	0.001941
819.854	0.003801
829.498	0.013361
839.143	0.026141
848.788	0.010651
858.433	0.002221
868.078	0.0012029
877.722	0.001521
887.367	0.0012349
897.012	0.0007712
906.657	0.0007329
916.301	0.0009327
925.946	0.0012398
935.591	0.001223
945.236	0.0011761
954.88	0.001491
964.525	0.002031
974.17	0.004591
983.815	0.006791
993.46	0.005091
1003.1	0.004711
1012.75	0.003491
1022.39	0.002411
1032.04	0.002071
1041.68	0.002301
1051.33	0.002381
1060.97	0.002241
1070.62	0.001601
1080.26	0.0010259
1089.91	0.001731
1099.55	0.001221
1109.2	0.002971
1118.84	0.003521
1128.49	0.0009933
1138.13	0.0009434
1147.78	0.0006547
1157.42	0.00041565
1167.07	0.0006099
1176.71	0.0005326
1186.36	0.000666
1196	1.2e-05
1205.64	0.00038759
1215.29	0.000257
1224.93	0.0010603
1234.58	0.002431
1244.22	0.008771
1253.87	0.009471
1263.51	0.001831
1273.16	0.001481
1282.8	0.002171
1292.45	0.002601
1302.09	0.001811
1311.74	0.001279
1321.38	0.001421
1331.03	0.001851
1340.67	0.002161
1350.32	0.002351
1359.96	0.002661
1369.61	0.003541
1379.25	0.005551
1388.9	0.005231
1398.54	0.003441
1408.18	0.003141
1417.83	0.005251
1427.47	0.011741
1437.12	0.014881
1446.76	0.010691
1456.41	0.008181
1466.05	0.008361
1475.7	0.009131
1485.34	0.009371
1494.99	0.009261
1504.63	0.009221
1514.28	0.008921
1523.92	0.011001
1533.57	0.014431
1543.21	0.016241
1552.86	0.023691
1562.5	0.034871
1572.15	0.029431
1581.79	0.020891
1591.44	0.021371
1601.08	0.022571
1610.73	0.013361
1620.37	0.004011
1630.01	0.001951
1639.66	0.0012855
1649.3	0.0011733
1658.95	0.0009424
1668.59	0.0007861
1678.24	0.000748
1687.88	0.0009786
1697.53	0.001791
1707.17	0.002111
1716.82	0.002631
1726.46	0.002011
1736.11	0.001641
1745.75	0.002091
1755.4	0.002321
1765.04	0.002301
1774.69	0.001481
1784.33	0.0006722
1793.98	0.0006655
1803.62	0.0006552
1813.27	0.0006091
1822.91	0.0006105
1832.55	0.0005287
1842.2	0.0005819
1851.84	0.0005594
1861.49	0.0005948
1871.13	0.0006228
1880.78	0.0008168
1890.42	0.0007919
1900.07	0.0007144
1909.71	0.0006477
1919.36	0.0008655
1929	0.0008591
1938.65	0.0007886
1948.29	0.000581
1957.94	0.0005025
1967.58	0.00048329
1977.23	0.00046117
1986.87	0.00046195
1996.52	0.0005628
2006.16	0.00038723
2015.81	0.00043077
2025.45	0.00044593
2035.1	0.00045271
2044.74	0.00045021
2054.38	0.00046756
2064.03	0.00040915
2073.67	0.00046031
2083.32	0.00046114
2092.96	0.0005014
2102.61	0.00048632
2112.25	0.0004948
2121.9	0.00048422
2131.54	0.00048133
2141.19	0.00044954
2150.83	0.0005436
2160.48	0.00044731
2170.12	0.0005571
2179.77	0.0005804
2189.41	0.0004917
2199.06	0.0005554
2208.7	0.0005196
2218.35	0.000648
2227.99	0.0006453
2237.64	0.0005117
2247.28	0.0005143
2256.92	0.0005004
2266.57	0.0005866
2276.21	0.00047482
2285.86	0.0005949
2295.5	0.0005171
2305.15	0.0006239
2314.79	0.0006791
2324.44	0.0006421
2334.08	0.00063
2343.73	0.0006232
2353.37	0.0007036
2363.02	0.0007296
2372.66	0.0006473
2382.31	0.0006954
2391.95	0.000732
2401.6	0.0007923
2411.24	0.0008209
2420.89	0.0006722
2430.53	0.0007618
2440.18	0.000746
2449.82	0.0008278
2459.47	0.0006592
2469.11	0.0006348
2478.75	0.0007472
2488.4	0.0007778
2498.04	0.0006682
2507.69	0.0005695
2517.33	0.0006964
2526.98	0.000632
2536.62	0.0007536
2546.27	0.0006927
2555.91	0.0005099
2565.56	0.0005052
2575.2	0.0005349
2584.85	0.0004958
2594.49	0.0004989
2604.14	0.00047032
2613.78	0.00048366
2623.43	0.0006267
2633.07	0.0007121
2642.72	0.0005424
2652.36	0.0004991
2662.01	0.0006509
2671.65	0.0007021
2681.29	0.0006603
2690.94	0.0006636
2700.58	0.0008148
2710.23	0.0008611
2719.87	0.0009495
2729.52	0.0012163
2739.16	0.001671
2748.81	0.001711
2758.45	0.0010691
2768.1	0.0008905
2777.74	0.0008121
2787.39	0.0009544
2797.03	0.0012541
2806.68	0.001411
2816.32	0.002051
2825.97	0.002231
2835.61	0.002731
2845.26	0.003601
2854.9	0.005631
2864.55	0.009171
2874.19	0.011491
2883.84	0.010101
2893.48	0.009421
2903.12	0.011561
2912.77	0.015341
2922.41	0.023271
2932.06	0.028211
2941.7	0.022051
2951.35	0.014051
2960.99	0.009621
2970.64	0.006931
2980.28	0.006541
2989.93	0.008801
2999.57	0.011481
3009.22	0.013701
3018.86	0.013051
3028.51	0.014371
3038.15	0.015801
3047.8	0.012471
3057.44	0.008481
3067.09	0.005541
3076.73	0.003281
3086.38	0.002671
3096.02	0.002471
3105.67	0.001831
3115.31	0.0011055
3124.95	0.0008885
3134.6	0.0008315
3144.24	0.0007379
3153.89	0.0007156
3163.53	0.0006366
3173.18	0.0006409
3182.82	0.0005944
3192.47	0.00053
3202.11	0.0005088
3211.76	0.0006549
3221.4	0.0006353
3231.05	0.0004983
3240.69	0.0005358
3250.34	0.0005279
3259.98	0.0006243
3269.63	0.0005382
3279.27	0.00041528
3288.92	0.00048496
3298.56	0.0003715
3308.21	0.00044931
3317.85	0.00048883
3327.49	0.0003747
3337.14	0.00044302
3346.78	0.0006788
3356.43	0.0004464
3366.07	0.00042231
3375.72	0.0005558
3385.36	0.00048514
3395.01	0.0006039
3404.65	0.000264
3414.3	0.00045165
3423.94	0.0006174
3433.59	0.0005115
3443.23	0.0006149
3452.88	0.000464
3462.52	0.00045224
3472.17	0.00046044
3481.81	0.00040473
3491.46	0.0005733
3501.1	0.000228
3510.75	0.0005858
3520.39	0.0004986
3530.04	0.0003226
3539.68	0.0003769
3549.32	0.0005035
3558.97	0.000601
3568.61	0.0003541
3578.26	0.0005995
3587.9	0.00038845
3597.55	0.000146
3607.19	0.00045685
3616.84	0.0003256
3626.48	0.000283
3636.13	0.00038115
3645.77	0.0003802
3655.42	0.0003526
3665.06	0.0006285
3674.71	0.0003528
3684.35	0.0003059
3694	0.0003253
3703.64	0.00044529
3713.29	0.0005464
3722.93	0.000278
3732.58	0.0003659
3742.22	0.00044173
3751.86	0.0003087
3761.51	0.0003604
3771.15	0.000269
3780.8	0.00047304
3790.44	0.000574
3800.09	0.00043114
3809.73	0.0005514
3819.38	0.0007373
3829.02	0.0005603
3838.67	0.0006147
3848.31	0.0007642
3857.96	0.000653
3867.6	0.0005847
3877.25	0.0005329
3886.89	0.0004953
3896.54	0.0005424
3906.18	0.0006776
3915.83	0.0006189
3925.47	0.00046708
3935.12	0.0007709
3944.76	0.0005384
3954.41	0.0007588
3964.05	0.0007439
3973.69	0.0006407
3983.34	0.000775
3992.98	0.0006268
