Infrared Spectrum: 3,5-Dimethylbenzonitrile
Formula: C 9 H 9 N
CAS: 22445-42-7
State: gas
Origin: EPA-IR VAPOR PHASE LIBRARY
1/CM	ABSORBANCE
549.8	0.0015835
559.445	0.0017135
569.09	0.0009268
578.734	0.0009126
588.379	0.0006726
598.024	0.0003374
607.669	0.00015761
617.313	0.0004069
626.958	0.0003425
636.603	0.0004922
646.248	0.000648
655.893	0.0013935
665.537	0.0052935
675.182	0.0157335
684.827	0.0367035
694.472	0.0148635
704.116	0.0059935
713.761	0.0027635
723.406	0.0014935
733.051	0.0009722
742.695	0.001079
752.34	0.0008779
761.985	0.0011035
771.63	0.0019535
781.275	0.0020835
790.919	0.0015535
800.564	0.0009269
810.209	0.0010903
819.854	0.0010214
829.498	0.0028235
839.143	0.0150635
848.788	0.0312635
858.433	0.0278935
868.078	0.0152435
877.722	0.0040135
887.367	0.0037535
897.012	0.0048635
906.657	0.0065435
916.301	0.0050235
925.946	0.0026235
935.591	0.0019335
945.236	0.0025335
954.88	0.0024335
964.525	0.0022235
974.17	0.0025635
983.815	0.0032935
993.46	0.0045935
1003.1	0.0055335
1012.75	0.0039135
1022.39	0.0023935
1032.04	0.0024735
1041.68	0.0037835
1051.33	0.0044735
1060.97	0.0041535
1070.62	0.0038635
1080.26	0.0024735
1089.91	0.0019235
1099.55	0.0015035
1109.2	0.0013135
1118.84	0.0011635
1128.49	0.0012235
1138.13	0.0016435
1147.78	0.0025835
1157.42	0.0036035
1167.07	0.0025235
1176.71	0.0017335
1186.36	0.0015535
1196	0.0013435
1205.64	0.0014235
1215.29	0.0011435
1224.93	0.0016135
1234.58	0.0016735
1244.22	0.0024635
1253.87	0.0045935
1263.51	0.0051135
1273.16	0.0041935
1282.8	0.0035935
1292.45	0.0048835
1302.09	0.0053935
1311.74	0.0041535
1321.38	0.0027735
1331.03	0.0024935
1340.67	0.0029035
1350.32	0.0036635
1359.96	0.0048235
1369.61	0.0055135
1379.25	0.0072835
1388.9	0.0081735
1398.54	0.0058235
1408.18	0.0048635
1417.83	0.0058535
1427.47	0.0097235
1437.12	0.0150835
1446.76	0.0169635
1456.41	0.0144935
1466.05	0.0124835
1475.7	0.0130635
1485.34	0.0133835
1494.99	0.0126535
1504.63	0.0119635
1514.28	0.0107635
1523.92	0.0106535
1533.57	0.0115535
1543.21	0.0108435
1552.86	0.0093435
1562.5	0.0095835
1572.15	0.0112235
1581.79	0.0156935
1591.44	0.0298335
1601.08	0.0482835
1610.73	0.0355835
1620.37	0.0112335
1630.01	0.0031735
1639.66	0.0018635
1649.3	0.0016235
1658.95	0.0012335
1668.59	0.0011435
1678.24	0.0009282
1687.88	0.0010106
1697.53	0.0009176
1707.17	0.0012035
1716.82	0.0020035
1726.46	0.0027135
1736.11	0.0032635
1745.75	0.0050035
1755.4	0.0054135
1765.04	0.0040835
1774.69	0.0039935
1784.33	0.0037335
1793.98	0.0024635
1803.62	0.0015435
1813.27	0.0010717
1822.91	0.0008064
1832.55	0.0007581
1842.2	0.0007149
1851.84	0.0007272
1861.49	0.0005822
1871.13	0.0006842
1880.78	0.0007901
1890.42	0.000958
1900.07	0.0010346
1909.71	0.0009746
1919.36	0.0008673
1929	0.0009514
1938.65	0.0010445
1948.29	0.0009513
1957.94	0.0008356
1967.58	0.0005393
1977.23	0.000465
1986.87	0.0004967
1996.52	0.0004267
2006.16	0.0003616
2015.81	0.0002966
2025.45	0.0002867
2035.1	0.0003158
2044.74	0.0003243
2054.38	0.0003312
2064.03	0.0003558
2073.67	0.0004259
2083.32	0.000434
2092.96	0.000434
2102.61	0.0006159
2112.25	0.0004311
2121.9	0.000391
2131.54	0.0003509
2141.19	0.0004889
2150.83	0.0005503
2160.48	0.0005786
2170.12	0.0005304
2179.77	0.0005938
2189.41	0.000774
2199.06	0.0010562
2208.7	0.0017835
2218.35	0.0043035
2227.99	0.0111435
2237.64	0.0138335
2247.28	0.0069335
2256.92	0.001065
2266.57	0.0006126
2276.21	0.0007817
2285.86	0.0008248
2295.5	0.0009177
2305.15	0.0010043
2314.79	0.0009912
2324.44	0.0009386
2334.08	0.0008088
2343.73	0.0006184
2353.37	0.0006319
2363.02	0.0008177
2372.66	0.0008289
2382.31	0.0007565
2391.95	0.0005979
2401.6	0.0006767
2411.24	0.0007909
2420.89	0.0008656
2430.53	0.0010795
2440.18	0.0009926
2449.82	0.0009578
2459.47	0.0007351
2469.11	0.000753
2478.75	0.0006852
2488.4	0.0005198
2498.04	0.0005483
2507.69	0.000551
2517.33	0.0005379
2526.98	0.0006362
2536.62	0.0005987
2546.27	0.0007134
2555.91	0.0006498
2565.56	0.0006249
2575.2	0.0007469
2584.85	0.0006665
2594.49	0.0006375
2604.14	0.0006979
2613.78	0.0005049
2623.43	0.0007385
2633.07	0.0004646
2642.72	0.0003066
2652.36	0.0004219
2662.01	0.0004567
2671.65	0.0006751
2681.29	0.0009307
2690.94	0.0009436
2700.58	0.0009171
2710.23	0.0005547
2719.87	0.0006898
2729.52	0.0011135
2739.16	0.0019935
2748.81	0.0025335
2758.45	0.0019835
2768.1	0.0011335
2777.74	0.0009076
2787.39	0.0009852
2797.03	0.0011835
2806.68	0.0016135
2816.32	0.0019835
2825.97	0.0029135
2835.61	0.0037835
2845.26	0.0051635
2854.9	0.0077735
2864.55	0.0129435
2874.19	0.0176835
2883.84	0.0175935
2893.48	0.0153235
2903.12	0.0166335
2912.77	0.0216935
2922.41	0.0330535
2932.06	0.0433535
2941.7	0.0397135
2951.35	0.0262535
2960.99	0.0170635
2970.64	0.0125335
2980.28	0.0107935
2989.93	0.0129735
2999.57	0.0170135
3009.22	0.0220035
3018.86	0.0238835
3028.51	0.0232535
3038.15	0.0228735
3047.8	0.0204035
3057.44	0.0168535
3067.09	0.0122935
3076.73	0.0077635
3086.38	0.0050835
3096.02	0.0035735
3105.67	0.0025535
3115.31	0.0020835
3124.95	0.0015735
3134.6	0.0012335
3144.24	0.0010331
3153.89	0.0009866
3163.53	0.0008237
3173.18	0.0008225
3182.82	0.0006931
3192.47	0.0006214
3202.11	0.0007057
3211.76	0.0006488
3221.4	0.000554
3231.05	0.0002863
3240.69	0.0005143
3250.34	0.0003633
3259.98	0.0003457
3269.63	0.0004415
3279.27	0.0003655
3288.92	0.0003618
3298.56	0.0002706
3308.21	0.0002059
3317.85	0.0002479
3327.49	0.0002744
3337.14	0.000414
3346.78	0.0003814
3356.43	0.0002294
3366.07	0.000491
3375.72	0.0003314
3385.36	0.000637
3395.01	0.0004793
3404.65	0.0003906
3414.3	0.0003714
3423.94	0.0005756
3433.59	0.0003562
3443.23	0.0003397
3452.88	0.0002313
3462.52	0.0007034
3472.17	0.00041
3481.81	0.0005413
3491.46	0.0003675
3501.1	0.0004886
3510.75	0.0006265
3520.39	0.0008091
3530.04	0.0010011
3539.68	0.0006002
3549.32	0.0005661
3558.97	0.000251
3568.61	0.0003335
3578.26	0.0003185
3587.9	0.0004199
3597.55	0.0004514
3607.19	0.0002037
3616.84	0.0002374
3626.48	0.0002259
3636.13	0.0002754
3645.77	0.0001974
3655.42	0.00015714
3665.06	0.000308
3674.71	7.9e-05
3684.35	0.00017427
3694	2.6e-05
3703.64	0.0003559
3713.29	0.0002617
3722.93	0.0003919
3732.58	0.0003291
3742.22	0.00013178
3751.86	3.88e-05
3761.51	0.0002686
3771.15	0.0003805
3780.8	0.0003438
3790.44	0.0002648
3800.09	0.0005414
3809.73	0.0004755
3819.38	0.0003264
3829.02	0.000377
3838.67	0.0006749
3848.31	0.0005282
3857.96	0.0004411
3867.6	0.0004427
3877.25	0.0003694
3886.89	0.0003885
3896.54	0.0005844
3906.18	0.0006228
3915.83	0.0007093
3925.47	0.0007063
3935.12	0.0008599
3944.76	0.0007319
3954.41	0.0007089
3964.05	0.0003947
3973.69	0.0007254
3983.34	0.0005838
3992.98	0.0005762
