Infrared Spectrum: N,N-DIMETHYL-4'-VINYLBENZYLAMINE
Formula: C11 H15 N
CAS: 2245-52-5
State: SOLUTION (10% IN CCl4 FOR 5000-1350 CM^-^1, 10% IN CS2 FOR 1350-625 CM^-^1)
Class: COBLENTZ
Instrument: Not specified, most likely a prism, grating, or hybrid spectrometer.
Sampling: TRANSMISSION
Path length: 0.01 CM, 0.01 CM
Resolution: 4
Origin: DOW CHEMICAL COMPANY
MICROMETERS	TRANSMITTANCE
2.042	0.828
2.08112	0.827
2.12023	0.83
2.15935	0.833
2.19846	0.83
2.23758	0.817
2.2767	0.828
2.31581	0.827
2.35493	0.828
2.39404	0.835
2.43316	0.84
2.47228	0.85
2.51139	0.858
2.55051	0.859
2.58963	0.863
2.62874	0.868
2.66786	0.863
2.70697	0.861
2.74609	0.85
2.78521	0.83
2.82432	0.82
2.86344	0.804
2.90255	0.789
2.94167	0.788
2.98079	0.793
3.0199	0.796
3.05902	0.801
3.09813	0.802
3.13725	0.804
3.17637	0.771
3.21548	0.664
3.2546	0.579
3.29372	0.54
3.33283	0.441
3.37195	0.265
3.41106	0.382
3.45018	0.439
3.4893	0.376
3.52841	0.26
3.56753	0.223
3.60664	0.169
3.64576	0.599
3.68488	0.656
3.72399	0.832
3.76311	0.853
3.80222	0.859
3.84134	0.871
3.88046	0.879
3.91957	0.874
3.95869	0.876
3.99781	0.885
4.03692	0.895
4.07604	0.897
4.11515	0.899
4.15427	0.905
4.19339	0.9
4.2325	0.897
4.27162	0.892
4.31073	0.89
4.34985	0.895
4.38897	0.903
4.42808	0.918
4.4672	0.931
4.50631	0.934
4.54543	0.934
4.58455	0.936
4.62366	0.938
4.66278	0.934
4.70189	0.92
4.74101	0.918
4.78013	0.931
4.81924	0.921
4.85836	0.929
4.89748	0.918
4.93659	0.913
4.97571	0.915
5.01482	0.918
5.05394	0.912
5.09306	0.912
5.13217	0.916
5.17129	0.903
5.2104	0.859
5.24952	0.889
5.28864	0.903
5.32775	0.91
5.36687	0.903
5.40598	0.887
5.4451	0.837
5.48422	0.798
5.52333	0.863
5.56245	0.897
5.60157	0.907
5.64068	0.908
5.6798	0.903
5.71891	0.892
5.75803	0.902
5.79715	0.884
5.83626	0.855
5.87538	0.858
5.91449	0.864
5.95361	0.863
5.99273	0.842
6.03184	0.804
6.07096	0.742
6.11007	0.527
6.14919	0.714
6.18831	0.732
6.22742	0.69
6.26654	0.617
6.30566	0.566
6.34477	0.508
6.38389	0.478
6.423	0.431
6.46212	0.449
6.50124	0.545
6.54035	0.548
6.57947	0.491
6.61858	0.493
6.6577	0.708
6.69682	0.664
6.73593	0.602
6.77505	0.421
6.81416	0.332
6.85328	0.353
6.8924	0.47
6.93151	0.552
6.97063	0.685
7.00974	0.701
7.04886	0.618
7.08798	0.498
7.12709	0.698
7.16621	0.776
7.20533	0.752
7.24444	0.643
7.28356	0.442
7.32267	0.351
7.36179	0.703
7.40091	0.791
7.44002	0.807
7.47914	0.804
7.51825	0.747
7.55737	0.723
7.59649	0.76
7.6356	0.789
7.67472	0.783
7.71383	0.747
7.75295	0.731
7.79207	0.747
7.83118	0.677
7.8703	0.535
7.90942	0.486
7.94853	0.527
7.98765	0.705
8.02676	0.838
8.06588	0.871
8.105	0.869
8.14411	0.856
8.18323	0.846
8.22234	0.822
8.26146	0.798
8.30058	0.825
8.33969	0.83
8.37881	0.793
8.41792	0.703
8.45704	0.563
8.49616	0.539
8.53527	0.706
8.57439	0.765
8.61351	0.76
8.65262	0.71
8.69174	0.565
8.73085	0.609
8.76997	0.806
8.80909	0.842
8.8482	0.858
8.88732	0.846
8.92643	0.798
8.96555	0.701
9.00467	0.716
9.04378	0.767
9.0829	0.675
9.12201	0.674
9.16113	0.824
9.20025	0.853
9.23936	0.859
9.27848	0.859
9.31759	0.851
9.35671	0.832
9.39583	0.804
9.43494	0.771
9.47406	0.718
9.51318	0.56
9.55229	0.408
9.59141	0.371
9.63052	0.299
9.66964	0.221
9.70876	0.263
9.74787	0.389
9.78699	0.423
9.8261	0.4
9.86522	0.684
9.90434	0.742
9.94345	0.75
9.98257	0.737
10.0217	0.679
10.0608	0.527
10.0999	0.333
10.139	0.315
10.1781	0.526
10.2173	0.61
10.2564	0.705
10.2955	0.776
10.3346	0.819
10.3737	0.842
10.4128	0.868
10.452	0.868
10.4911	0.858
10.5302	0.815
10.5693	0.768
10.6084	0.819
10.6475	0.845
10.6867	0.85
10.7258	0.832
10.7649	0.817
10.804	0.78
10.8431	0.737
10.8822	0.661
10.9214	0.532
10.9605	0.405
10.9996	0.254
11.0387	0.12
11.0778	0.192
11.1169	0.429
11.1561	0.638
11.1952	0.703
11.2343	0.731
11.2734	0.739
11.3125	0.723
11.3516	0.693
11.3907	0.661
11.4299	0.638
11.469	0.586
11.5081	0.503
11.5472	0.395
11.5863	0.234
11.6254	0.136
11.6646	0.174
11.7037	0.293
11.7428	0.377
11.7819	0.4
11.821	0.384
11.8601	0.397
11.8993	0.459
11.9384	0.532
11.9775	0.561
12.0166	0.566
12.0557	0.526
12.0948	0.438
12.134	0.252
12.1731	0.154
12.2122	0.177
12.2513	0.355
12.2904	0.491
12.3295	0.587
12.3687	0.649
12.4078	0.684
12.4469	0.708
12.486	0.721
12.5251	0.721
12.5642	0.723
12.6033	0.747
12.6425	0.763
12.6816	0.773
12.7207	0.778
12.7598	0.768
12.7989	0.744
12.838	0.68
12.8772	0.602
12.9163	0.602
12.9554	0.661
12.9945	0.684
13.0336	0.688
13.0727	0.69
13.1119	0.671
13.151	0.612
13.1901	0.6
13.2292	0.682
13.2683	0.744
13.3074	0.768
13.3466	0.778
13.3857	0.78
13.4248	0.775
13.4639	0.765
13.503	0.75
13.5421	0.714
13.5812	0.662
13.6204	0.618
13.6595	0.605
13.6986	0.583
13.7377	0.548
13.7768	0.576
13.8159	0.656
13.8551	0.706
13.8942	0.721
13.9333	0.714
13.9724	0.705
14.0115	0.708
14.0506	0.729
14.0898	0.741
14.1289	0.747
14.168	0.749
14.2071	0.745
14.2462	0.742
14.2853	0.737
14.3245	0.736
14.3636	0.729
14.4027	0.724
14.4418	0.718
14.4809	0.713
14.52	0.705
14.5592	0.698
14.5983	0.692
14.6374	0.685
14.6765	0.679
14.7156	0.666
14.7547	0.659
14.7938	0.649
14.833	0.643
14.8721	0.63
14.9112	0.618
14.9503	0.614
14.9894	0.605
15.0285	0.594
15.0677	0.578
15.1068	0.563
15.1459	0.55
15.185	0.54
15.2241	0.53
15.2632	0.522
15.3024	0.516
15.3415	0.508
15.3806	0.504
15.4197	0.496
15.4588	0.486
15.4979	0.477
15.5371	0.472
15.5762	0.462
15.6153	0.457
15.6544	0.452
15.6935	0.449
15.7326	0.446
15.7718	0.438
15.8109	0.436
15.85	0.433
15.8891	0.434
