Infrared Spectrum: M,M'-SULFONYL DIBENZOIC ACID
Formula: C14 H10 O6 S
CAS: 22452-74-0
State: SOLID (NUJOL MULL)
Class: COBLENTZ
Instrument: Not specified, most likely a prism, grating, or hybrid spectrometer.
Sampling: TRANSMISSION
Resolution: 4
Origin: TENNESSEE EASTMAN COMPANY, RESEARCH LABORATORIES
MICROMETERS	TRANSMITTANCE
2.019	0.653
2.05794	0.653
2.09689	0.656
2.13583	0.661
2.17478	0.679
2.21372	0.687
2.25266	0.687
2.29161	0.687
2.33055	0.687
2.3695	0.691
2.40844	0.702
2.44738	0.721
2.48633	0.734
2.52527	0.751
2.56422	0.762
2.60316	0.773
2.64211	0.783
2.68105	0.798
2.71999	0.809
2.75894	0.822
2.79788	0.832
2.83683	0.834
2.87577	0.835
2.91471	0.837
2.95366	0.837
2.9926	0.837
3.03155	0.834
3.07049	0.817
3.10943	0.773
3.14838	0.72
3.18732	0.661
3.22627	0.59
3.26521	0.499
3.30415	0.447
3.3431	0.281
3.38204	0.092
3.42099	0.061
3.45993	0.06
3.49888	0.068
3.53782	0.36
3.57676	0.46
3.61571	0.525
3.65465	0.533
3.6936	0.531
3.73254	0.507
3.77148	0.461
3.81043	0.474
3.84937	0.515
3.88832	0.518
3.92726	0.487
3.9662	0.491
4.00515	0.534
4.04409	0.588
4.08304	0.635
4.12198	0.661
4.16092	0.691
4.19987	0.712
4.23881	0.738
4.27776	0.747
4.3167	0.76
4.35565	0.782
4.39459	0.801
4.43353	0.817
4.47248	0.835
4.51142	0.84
4.55037	0.84
4.58931	0.842
4.62825	0.845
4.6672	0.861
4.70614	0.879
4.74509	0.891
4.78403	0.899
4.82297	0.905
4.86192	0.907
4.90086	0.907
4.93981	0.907
4.97875	0.907
5.01769	0.907
5.05664	0.905
5.09558	0.905
5.13453	0.9
5.17347	0.887
5.21242	0.891
5.25136	0.889
5.2903	0.887
5.32925	0.887
5.36819	0.892
5.40714	0.899
5.44608	0.902
5.48502	0.892
5.52397	0.855
5.56291	0.86
5.60186	0.874
5.6408	0.879
5.67974	0.878
5.71869	0.869
5.75763	0.829
5.79658	0.71
5.83552	0.474
5.87446	0.23
5.91341	0.152
5.95235	0.105
5.9913	0.082
6.03024	0.26
6.06919	0.499
6.10813	0.619
6.14707	0.692
6.18602	0.749
6.22496	0.653
6.26391	0.713
6.30285	0.72
6.34179	0.702
6.38074	0.808
6.41968	0.845
6.45863	0.876
6.49757	0.892
6.53651	0.904
6.57546	0.902
6.6144	0.9
6.65335	0.889
6.69229	0.827
6.73123	0.663
6.77018	0.442
6.80912	0.273
6.84807	0.263
6.88701	0.243
6.92596	0.373
6.9649	0.567
7.00384	0.515
7.04279	0.435
7.08173	0.552
7.12068	0.648
7.15962	0.708
7.19856	0.655
7.23751	0.453
7.27645	0.458
7.3154	0.577
7.35434	0.692
7.39328	0.738
7.43223	0.734
7.47117	0.658
7.51012	0.336
7.54906	0.232
7.588	0.151
7.62695	0.12
7.66589	0.125
7.70484	0.149
7.74378	0.295
7.78273	0.539
7.82167	0.536
7.86061	0.315
7.89956	0.401
7.9385	0.577
7.97745	0.702
8.01639	0.746
8.05533	0.778
8.09428	0.79
8.13322	0.79
8.17217	0.795
8.21111	0.816
8.25005	0.829
8.289	0.834
8.32794	0.835
8.36689	0.819
8.40583	0.772
8.44477	0.673
8.48372	0.479
8.52266	0.328
8.56161	0.291
8.60055	0.302
8.6395	0.312
8.67844	0.367
8.71738	0.523
8.75633	0.687
8.79527	0.705
8.83422	0.608
8.87316	0.362
8.9121	0.513
8.95105	0.749
8.98999	0.8
9.02894	0.803
9.06788	0.723
9.10682	0.63
9.14577	0.51
9.18471	0.634
9.22366	0.756
9.2626	0.736
9.30154	0.661
9.34049	0.647
9.37943	0.759
9.41838	0.83
9.45732	0.856
9.49627	0.868
9.53521	0.873
9.57415	0.878
9.6131	0.879
9.65204	0.884
9.69099	0.889
9.72993	0.897
9.76887	0.902
9.80782	0.902
9.84676	0.902
9.88571	0.902
9.92465	0.897
9.96359	0.839
10.0025	0.832
10.0415	0.834
10.0804	0.835
10.1194	0.853
10.1583	0.856
10.1973	0.855
10.2362	0.852
10.2751	0.843
10.3141	0.832
10.353	0.804
10.392	0.773
10.4309	0.725
10.4699	0.669
10.5088	0.606
10.5478	0.564
10.5867	0.533
10.6256	0.513
10.6646	0.5
10.7035	0.497
10.7425	0.505
10.7814	0.533
10.8204	0.58
10.8593	0.629
10.8983	0.665
10.9372	0.686
10.9761	0.676
11.0151	0.691
11.054	0.738
11.093	0.783
11.1319	0.814
11.1709	0.839
11.2098	0.848
11.2487	0.853
11.2877	0.865
11.3266	0.874
11.3656	0.884
11.4045	0.889
11.4435	0.884
11.4824	0.83
11.5214	0.73
11.5603	0.699
11.5992	0.726
11.6382	0.798
11.6771	0.848
11.7161	0.858
11.755	0.868
11.794	0.879
11.8329	0.891
11.8719	0.905
11.9108	0.912
11.9497	0.918
11.9887	0.92
12.0276	0.923
12.0666	0.921
12.1055	0.918
12.1445	0.884
12.1834	0.785
12.2224	0.725
12.2613	0.743
12.3002	0.809
12.3392	0.858
12.3781	0.884
12.4171	0.913
12.456	0.93
12.495	0.939
12.5339	0.947
12.5728	0.951
12.6118	0.951
12.6507	0.952
12.6897	0.952
12.7286	0.954
12.7676	0.956
12.8065	0.956
12.8455	0.956
12.8844	0.956
12.9233	0.956
12.9623	0.954
13.0012	0.952
13.0402	0.933
13.0791	0.889
13.1181	0.791
13.157	0.63
13.196	0.473
13.2349	0.528
13.2738	0.728
13.3128	0.78
13.3517	0.764
13.3907	0.665
13.4296	0.53
13.4686	0.512
13.5075	0.601
13.5465	0.715
13.5854	0.773
13.6243	0.803
13.6633	0.816
13.7022	0.829
13.7412	0.834
13.7801	0.837
13.8191	0.837
13.858	0.835
13.8969	0.84
13.9359	0.847
13.9748	0.85
14.0138	0.852
14.0527	0.855
14.0917	0.861
14.1306	0.863
14.1696	0.868
14.2085	0.871
14.2474	0.873
14.2864	0.873
14.3253	0.871
14.3643	0.852
14.4032	0.84
14.4422	0.83
14.4811	0.826
14.5201	0.817
14.559	0.796
14.5979	0.764
14.6369	0.717
14.6758	0.658
14.7148	0.569
14.7537	0.461
14.7927	0.385
14.8316	0.346
14.8705	0.341
14.9095	0.37
14.9484	0.434
14.9874	0.481
15.0263	0.517
15.0653	0.512
15.1042	0.502
15.1432	0.5
15.1821	0.513
15.221	0.541
15.26	0.593
15.2989	0.639
15.3379	0.663
15.3768	0.687
15.4158	0.7
15.4547	0.705
15.4937	0.71
15.5326	0.713
15.5715	0.715
15.6105	0.717
15.6494	0.718
15.6884	0.718
15.7273	0.72
15.7663	0.72
15.8052	0.72
15.8442	0.72
15.8831	0.718
15.922	0.72
15.961	0.721
15.9999	0.721
