Infrared Spectrum: Ethyl (+)-camphorcarboxylate
Formula: C 13 H 20 O 3
CAS: 22469-70-1
State: gas
Origin: EPA-IR VAPOR PHASE LIBRARY
1/CM	ABSORBANCE
549.8	0.00383
559.445	0.00212
569.09	0.00197
578.734	0.00225
588.379	0.00173
598.024	0.00155
607.669	0.00169
617.313	0.0011443
626.958	0.0008959
636.603	0.0009529
646.248	0.0010723
655.893	0.0009339
665.537	0.00118
675.182	0.0019
684.827	0.00323
694.472	0.00355
704.116	0.00436
713.761	0.00304
723.406	0.0027
733.051	0.00307
742.695	0.00415
752.34	0.0062
761.985	0.00627
771.63	0.0049
781.275	0.0039
790.919	0.00388
800.564	0.00261
810.209	0.00292
819.854	0.00318
829.498	0.00402
839.143	0.00555
848.788	0.00606
858.433	0.00661
868.078	0.00556
877.722	0.00549
887.367	0.00614
897.012	0.00447
906.657	0.00391
916.301	0.00481
925.946	0.00789
935.591	0.01503
945.236	0.01613
954.88	0.00965
964.525	0.00788
974.17	0.00626
983.815	0.0075
993.46	0.01212
1003.1	0.02457
1012.75	0.03483
1022.39	0.03533
1032.04	0.02821
1041.68	0.02303
1051.33	0.02259
1060.97	0.02295
1070.62	0.01769
1080.26	0.01454
1089.91	0.01649
1099.55	0.02157
1109.2	0.0215
1118.84	0.02045
1128.49	0.02495
1138.13	0.03456
1147.78	0.04825
1157.42	0.07337
1167.07	0.08811
1176.71	0.07138
1186.36	0.05794
1196	0.04677
1205.64	0.03685
1215.29	0.03396
1224.93	0.03708
1234.58	0.04467
1244.22	0.0491
1253.87	0.043
1263.51	0.03809
1273.16	0.03413
1282.8	0.02664
1292.45	0.02574
1302.09	0.03193
1311.74	0.04221
1321.38	0.04705
1331.03	0.03627
1340.67	0.0208
1350.32	0.01346
1359.96	0.01426
1369.61	0.02672
1379.25	0.0308
1388.9	0.02423
1398.54	0.02079
1408.18	0.01193
1417.83	0.00827
1427.47	0.0078
1437.12	0.00961
1446.76	0.0146
1456.41	0.01787
1466.05	0.01739
1475.7	0.01673
1485.34	0.01394
1494.99	0.00768
1504.63	0.00429
1514.28	0.00318
1523.92	0.0027
1533.57	0.00235
1543.21	0.00224
1552.86	0.0022
1562.5	0.00229
1572.15	0.00226
1581.79	0.00239
1591.44	0.00228
1601.08	0.00266
1610.73	0.00248
1620.37	0.00236
1630.01	0.0026
1639.66	0.00261
1649.3	0.00264
1658.95	0.00314
1668.59	0.0038
1678.24	0.00457
1687.88	0.00574
1697.53	0.00834
1707.17	0.01566
1716.82	0.03044
1726.46	0.05177
1736.11	0.09918
1745.75	0.11973
1755.4	0.0772
1765.04	0.08796
1774.69	0.09198
1784.33	0.05729
1793.98	0.02511
1803.62	0.01193
1813.27	0.00721
1822.91	0.00512
1832.55	0.00397
1842.2	0.00318
1851.84	0.00278
1861.49	0.00243
1871.13	0.00239
1880.78	0.00219
1890.42	0.00218
1900.07	0.00204
1909.71	0.00188
1919.36	0.00182
1929	0.00165
1938.65	0.00166
1948.29	0.00161
1957.94	0.00146
1967.58	0.00145
1977.23	0.00142
1986.87	0.00152
1996.52	0.00141
2006.16	0.00164
2015.81	0.00168
2025.45	0.00175
2035.1	0.00169
2044.74	0.00172
2054.38	0.0019
2064.03	0.00219
2073.67	0.00275
2083.32	0.00297
2092.96	0.00366
2102.61	0.00711
2112.25	0.0164
2121.9	0.03501
2131.54	0.051
2141.19	0.03609
2150.83	0.00959
2160.48	0.00381
2170.12	0.00285
2179.77	0.0024
2189.41	0.00216
2199.06	0.00183
2208.7	0.00158
2218.35	0.00136
2227.99	0.00139
2237.64	0.00126
2247.28	0.00121
2256.92	0.00131
2266.57	0.00127
2276.21	0.0012
2285.86	0.00138
2295.5	0.0016
2305.15	0.0022
2314.79	0.00279
2324.44	0.00294
2334.08	0.00293
2343.73	0.00252
2353.37	0.00286
2363.02	0.00364
2372.66	0.00284
2382.31	0.00176
2391.95	0.0009912
2401.6	0.0008161
2411.24	0.0008271
2420.89	0.0008198
2430.53	0.0007831
2440.18	0.0007386
2449.82	0.0008818
2459.47	0.0009871
2469.11	0.0008499
2478.75	0.0008773
2488.4	0.0008029
2498.04	0.0006549
2507.69	0.0007084
2517.33	0.0006373
2526.98	0.0008743
2536.62	0.0006055
2546.27	0.0008988
2555.91	0.0007193
2565.56	0.0008159
2575.2	0.0009314
2584.85	0.0006799
2594.49	0.0010421
2604.14	0.0007178
2613.78	0.000831
2623.43	0.0008974
2633.07	0.0006406
2642.72	0.0005789
2652.36	0.0005876
2662.01	0.0005744
2671.65	0.0007391
2681.29	0.0009725
2690.94	0.0007205
2700.58	0.0007727
2710.23	0.0009525
2719.87	0.0010799
2729.52	0.00136
2739.16	0.00219
2748.81	0.00191
2758.45	0.00178
2768.1	0.00198
2777.74	0.00206
2787.39	0.00227
2797.03	0.00212
2806.68	0.00255
2816.32	0.00299
2825.97	0.00357
2835.61	0.00396
2845.26	0.00482
2854.9	0.0063
2864.55	0.01042
2874.19	0.02062
2883.84	0.03082
2893.48	0.02923
2903.12	0.02909
2912.77	0.0312
2922.41	0.03643
2932.06	0.04917
2941.7	0.05923
2951.35	0.06489
2960.99	0.07959
2970.64	0.09855
2980.28	0.08286
2989.93	0.05471
2999.57	0.03432
3009.22	0.01879
3018.86	0.01061
3028.51	0.00675
3038.15	0.00514
3047.8	0.00387
3057.44	0.00351
3067.09	0.0033
3076.73	0.0029
3086.38	0.00291
3096.02	0.00293
3105.67	0.00269
3115.31	0.0023
3124.95	0.00224
3134.6	0.00234
3144.24	0.00203
3153.89	0.0018
3163.53	0.00154
3173.18	0.0014
3182.82	0.00134
3192.47	0.0011096
3202.11	0.0010396
3211.76	0.00124
3221.4	0.0006393
3231.05	0.0006723
3240.69	0.000746
3250.34	0.0007006
3259.98	0.0005896
3269.63	0.0004667
3279.27	0.0006195
3288.92	0.0009129
3298.56	0.0007194
3308.21	0.0004676
3317.85	0.000795
3327.49	0.0008512
3337.14	0.00018951
3346.78	0.0003969
3356.43	0.0007727
3366.07	0.000761
3375.72	0.0005696
3385.36	0.0006917
3395.01	0.0006186
3404.65	0.0005754
3414.3	0.0006483
3423.94	0.000781
3433.59	0.0006625
3443.23	0.00119
3452.88	0.00127
3462.52	0.00158
3472.17	0.00171
3481.81	0.00167
3491.46	0.0012
3501.1	0.00191
3510.75	0.00199
3520.39	0.00137
3530.04	0.0011416
3539.68	0.001005
3549.32	0.0008314
3558.97	0.0010025
3568.61	0.0006385
3578.26	0.000731
3587.9	0.0005701
3597.55	0.0003773
3607.19	0.0004674
3616.84	0.0005483
3626.48	0.0009762
3636.13	0.0006396
3645.77	0.0005704
3655.42	0.00117
3665.06	0.0009023
3674.71	0.0006829
3684.35	0.0006655
3694	0.0006476
3703.64	0.0007011
3713.29	0.0007548
3722.93	0.0003802
3732.58	0.0005391
3742.22	0.0003134
3751.86	0.0004266
3761.51	0.0005694
3771.15	0.00021011
3780.8	0.0006916
3790.44	0.000434
3800.09	0.0006226
3809.73	0.0007549
3819.38	0.0008495
3829.02	0.0005533
3838.67	0.0007168
3848.31	0.000695
3857.96	0.0006806
3867.6	0.0005919
3877.25	0.0008115
3886.89	0.0007832
3896.54	0.0004125
3906.18	0.0005162
3915.83	0.0003417
3925.47	0.0005656
3935.12	0.000288
3944.76	0.0005236
3954.41	0.0009028
3964.05	0.0007944
3973.69	0.0003825
3983.34	0.0004979
3992.98	0.000639
