Infrared Spectrum: 2,3-DIMETHYL-1,7-OCTADIEN-3-OL
Formula: C10 H18 O
CAS: 22460-59-9
State: (NEAT)
Class: COBLENTZ III
Instrument: UNICAM SP-200
Sampling: TRANSMISSION
Resolution: 4
Origin: BUSH BOAKE ALLEN LTD. VIA SCIENTIFIC DOC. CENTRE LTD.
1/CM	TRANSMITTANCE
634.417	0.44
645.519	0.417
656.622	0.412
667.724	0.395
678.826	0.354
689.929	0.34
701.031	0.451
712.133	0.493
723.236	0.5
734.338	0.537
745.44	0.563
756.543	0.591
767.645	0.601
778.747	0.626
789.849	0.635
800.952	0.626
812.054	0.62
823.156	0.63
834.259	0.639
845.361	0.622
856.463	0.625
867.566	0.62
878.668	0.614
889.77	0.416
900.873	0.064
911.975	0.044
923.077	0.0649
934.18	0.2998
945.282	0.482
956.384	0.534
967.487	0.466
978.589	0.357
989.691	0.2071
1000.79	0.064
1011.9	0.071
1023	0.074
1034.1	0.079
1045.2	0.128
1056.31	0.114
1067.41	0.116
1078.51	0.192
1089.61	0.254
1100.71	0.379
1111.82	0.389
1122.92	0.377
1134.02	0.494
1145.12	0.47
1156.23	0.523
1167.33	0.599
1178.43	0.606
1189.53	0.562
1200.64	0.504
1211.74	0.51
1222.84	0.463
1233.94	0.42
1245.04	0.415
1256.15	0.403
1267.25	0.343
1278.35	0.327
1289.45	0.32
1300.56	0.307
1311.66	0.26
1322.76	0.24
1333.86	0.321
1344.97	0.381
1356.07	0.385
1367.17	0.3
1378.27	0.112
1389.37	0.279
1400.48	0.293
1411.58	0.27
1422.68	0.168
1433.78	0.2
1444.89	0.14
1455.99	0.079
1467.09	0.121
1478.19	0.399
1489.3	0.553
1500.4	0.639
1511.5	0.689
1522.6	0.715
1533.7	0.739
1544.81	0.745
1555.91	0.757
1567.01	0.758
1578.11	0.739
1589.22	0.725
1600.32	0.718
1611.42	0.702
1622.52	0.66
1633.63	0.3639
1644.73	0.202
1655.83	0.5119
1666.93	0.678
1678.03	0.731
1689.14	0.765
1700.24	0.781
1711.34	0.783
1722.44	0.791
1733.55	0.794
1744.65	0.807
1755.75	0.811
1766.85	0.808
1777.96	0.775
1789.06	0.723
1800.16	0.698
1811.26	0.681
1822.37	0.683
1833.47	0.739
1844.57	0.787
1855.67	0.809
1866.77	0.816
1877.88	0.822
1888.98	0.824
1900.08	0.822
1911.18	0.825
1922.29	0.827
1933.39	0.827
1944.49	0.828
1955.59	0.828
1966.7	0.825
1977.8	0.821
1988.9	0.815
2000	0.807
2011.1	0.807
2022.21	0.809
2033.31	0.813
2044.41	0.815
2055.51	0.816
2066.62	0.818
2077.72	0.818
2088.82	0.819
2099.92	0.821
2111.03	0.822
2122.13	0.823
2133.23	0.824
2144.33	0.825
2155.43	0.825
2166.54	0.825
2177.64	0.825
2188.74	0.826
2199.84	0.827
2210.95	0.8256
2222.05	0.8241
2233.15	0.824
2244.25	0.823
2255.36	0.823
2266.46	0.823
2277.56	0.8206
2288.66	0.8181
2299.76	0.817
2310.87	0.816
2321.97	0.813
2333.07	0.813
2344.17	0.8154
2355.28	0.8179
2366.38	0.8214
2377.48	0.8248
2388.58	0.827
2399.69	0.8222
2410.79	0.8006
2421.89	0.7972
2432.99	0.7862
2444.1	0.7831
2455.2	0.785
2466.3	0.783
2477.4	0.7816
2488.5	0.7791
2499.61	0.7776
2510.71	0.7733
2521.81	0.7706
2532.91	0.7663
2544.02	0.763
2555.12	0.7556
2566.22	0.7467
2577.32	0.7431
2588.43	0.7387
2599.53	0.734
2610.63	0.7283
2621.73	0.7233
2632.83	0.718
2643.94	0.7132
2655.04	0.704
2666.14	0.6945
2677.24	0.688
2688.35	0.6814
2699.45	0.6764
2710.55	0.6685
2721.65	0.6581
2732.76	0.6482
2743.86	0.6483
2754.96	0.649
2766.06	0.649
2777.16	0.6444
2788.27	0.6368
2799.37	0.6124
2810.47	0.5681
2821.57	0.5048
2832.68	0.429
2843.78	0.3059
2854.88	0.1653
2865.98	0.114
2877.09	0.0775
2888.19	0.0758
2899.29	0.0783
2910.39	0.0792
2921.49	0.0712
2932.6	0.0605
2943.7	0.0502
2954.8	0.0425
2965.9	0.0377
2977.01	0.0335
2988.11	0.036
2999.21	0.0778
3010.31	0.2278
3021.42	0.3345
3032.52	0.4346
3043.62	0.497
3054.72	0.5132
3065.82	0.5072
3076.93	0.4075
3088.03	0.2671
3099.13	0.2411
3110.23	0.3508
3121.34	0.463
3132.44	0.5086
3143.54	0.5313
3154.64	0.539
3165.75	0.5356
3176.85	0.5259
3187.95	0.4988
3199.05	0.4638
3210.16	0.4264
3221.26	0.3931
3232.36	0.3589
3243.46	0.3184
3254.56	0.2822
3265.67	0.2533
3276.77	0.2264
3287.87	0.1803
3298.97	0.1633
3310.08	0.142
3321.18	0.1235
3332.28	0.11
3343.38	0.0997
3354.49	0.091
3365.59	0.0805
3376.69	0.073
3387.79	0.0669
3398.89	0.0653
3410	0.063
3421.1	0.062
3432.2	0.062
3443.3	0.064
3454.41	0.0663
3465.51	0.0733
3476.61	0.0844
3487.71	0.097
3498.82	0.1435
3509.92	0.1609
3521.02	0.1872
3532.12	0.2225
3543.22	0.2736
3554.33	0.3138
3565.43	0.3415
3576.53	0.395
3587.63	0.4302
3598.74	0.4508
3609.84	0.475
3620.94	0.4982
3632.04	0.5185
3643.15	0.5432
3654.25	0.5926
3665.35	0.6398
3676.45	0.6817
3687.55	0.7092
3698.66	0.7406
3709.76	0.7579
3720.86	0.7651
3731.96	0.7686
3743.07	0.7711
3754.17	0.7756
3765.27	0.7781
3776.37	0.7826
3787.48	0.7861
3798.58	0.7885
3809.68	0.789
3820.78	0.79
3831.88	0.79
3842.99	0.79
3854.09	0.79
3865.19	0.791
3876.29	0.79
3887.4	0.791
3898.5	0.792
3909.6	0.792
3920.7	0.792
3931.81	0.79
3942.91	0.789
3954.01	0.7875
3965.11	0.787
3976.22	0.7835
3987.32	0.781
3998.42	0.78
4009.52	0.78
4020.62	0.7795
4031.73	0.778
4042.83	0.777
4053.93	0.775
4065.03	0.774
4076.14	0.774
4087.24	0.773
4098.34	0.772
4109.44	0.7695
4120.55	0.768
4131.65	0.7665
4142.75	0.764
4153.85	0.766
4164.95	0.768
4176.06	0.768
4187.16	0.767
4198.26	0.768
4209.36	0.768
4220.47	0.768
4231.57	0.768
4242.67	0.768
4253.77	0.767
4264.88	0.766
4275.98	0.766
4287.08	0.766
4298.18	0.766
4309.28	0.7636
4320.39	0.7611
4331.49	0.761
4342.59	0.7591
4353.69	0.7556
4364.8	0.754
4375.9	0.751
4387	0.75
4398.1	0.749
4409.21	0.7481
4420.31	0.7476
4431.41	0.7451
4442.51	0.744
4453.61	0.7382
4464.72	0.732
4475.82	0.732
4486.92	0.7334
4498.02	0.734
4509.13	0.7357
4520.23	0.7379
4531.33	0.7407
4542.43	0.7475
4553.54	0.7521
4564.64	0.7594
4575.74	0.7647
4586.84	0.766
4597.94	0.766
4609.05	0.7668
4620.15	0.768
4631.25	0.769
4642.35	0.773
4653.46	0.778
4664.56	0.78
4675.66	0.7818
4686.76	0.782
4697.87	0.783
4708.97	0.785
4720.07	0.785
4731.17	0.7856
4742.28	0.7878
4753.38	0.789
4764.48	0.789
4775.58	0.789
4786.68	0.789
4797.79	0.789
4808.89	0.789
4819.99	0.788
4831.09	0.788
4842.2	0.786
4853.3	0.785
4864.4	0.783
4875.5	0.7822
4886.61	0.782
4897.71	0.781
4908.81	0.782
4919.91	0.782
4931.01	0.782
4942.12	0.7802
4953.22	0.7813
4964.32	0.7848
4975.42	0.785
4986.53	0.785
4997.63	0.785
5008.73	0.7843
