Infrared Spectrum: 19-Nortestosterone, 4-chloro-, p-chlorophenoxyacetic acid ester
Formula: C26 H30 Cl2 O4
CAS: 22467-98-7
State: SOLID (KBr DISC)
Class: COBLENTZ III
Instrument: PERKIN-ELMER 21 (GRATING)
Instrument parameters: NaCl PRISM
Sampling: TRANSMISSION
Resolution: 2
Origin: SMITH, KLINE & FRENCH LABS.
1/CM	TRANSMITTANCE
667	0.7002
676	0.6974
685	0.6887
694	0.671
703	0.6723
712	0.7024
721	0.6359
730	0.7064
739	0.7087
748	0.6791
757	0.6362
766	0.6937
775	0.6953
784	0.6718
793	0.6275
802	0.4994
811	0.558
820	0.575
829	0.4475
838	0.4256
847	0.621
856	0.6753
865	0.6525
874	0.7082
883	0.6889
892	0.6437
901	0.6448
910	0.6674
919	0.6642
928	0.6583
937	0.6346
946	0.6355
955	0.6122
964	0.5965
973	0.5224
982	0.5958
991	0.5707
1000	0.4487
1009	0.5287
1018	0.5664
1027	0.5663
1036	0.5619
1045	0.5438
1054	0.4915
1063	0.482
1072	0.3817
1081	0.3192
1090	0.4661
1099	0.509
1108	0.4924
1117	0.493
1126	0.5866
1135	0.578
1144	0.5234
1153	0.5127
1162	0.4325
1171	0.311
1180	0.3309
1189	0.2301
1198	0.1668
1207	0.2618
1216	0.3586
1225	0.4684
1234	0.2851
1243	0.2878
1252	0.4596
1261	0.5114
1270	0.622
1279	0.4532
1288	0.437
1297	0.5236
1306	0.5738
1315	0.6815
1324	0.6859
1333	0.6945
1342	0.7332
1351	0.7083
1360	0.6906
1369	0.6824
1378	0.5791
1387	0.5862
1396	0.5766
1405	0.5857
1414	0.611
1423	0.6355
1432	0.5782
1441	0.457
1450	0.566
1459	0.6137
1468	0.5752
1477	0.5728
1486	0.3349
1495	0.3296
1504	0.7051
1513	0.7496
1522	0.7565
1531	0.7543
1540	0.7476
1549	0.7225
1558	0.6856
1567	0.6518
1576	0.5512
1585	0.4308
1594	0.5709
1603	0.6947
1612	0.7162
1621	0.7042
1630	0.6739
1639	0.6601
1648	0.6391
1657	0.6262
1666	0.5845
1675	0.531
1684	0.2287
1693	0.399
1702	0.6582
1711	0.6894
1720	0.6798
1729	0.6491
1738	0.5817
1747	0.5284
1756	0.2229
1765	0.3031
1774	0.5589
1783	0.7347
1792	0.7619
1801	0.7716
1810	0.7745
1819	0.7756
1828	0.7758
1837	0.7752
1846	0.7733
1855	0.7709
1864	0.7681
1873	0.7648
1882	0.7609
1891	0.7574
1900	0.7577
1909	0.7614
1918	0.7657
1927	0.766
1936	0.7661
1945	0.7657
1954	0.7648
1963	0.7636
1972	0.7623
1981	0.761
1990	0.7603
1999	0.7595
2008	0.7588
2017	0.758
2026	0.7573
2035	0.7561
2044	0.7545
2053	0.7523
2062	0.7501
2071	0.7479
2080	0.7457
2089	0.7434
2098	0.7419
2107	0.741
2116	0.7402
2125	0.74
2134	0.7397
2143	0.7399
2152	0.7401
2161	0.7403
2170	0.7404
2179	0.7404
2188	0.7402
2197	0.7383
2206	0.7365
2215	0.7346
2224	0.7341
2233	0.7341
2242	0.7359
2251	0.7371
2260	0.7334
2269	0.7294
2278	0.7257
2287	0.7229
2296	0.7213
2305	0.7199
2314	0.7206
2323	0.7229
2332	0.7255
2341	0.7285
2350	0.7324
2359	0.7298
2368	0.7252
2377	0.7221
2386	0.7193
2395	0.7165
2404	0.7147
2413	0.7131
2422	0.7123
2431	0.7125
2440	0.7125
2449	0.7114
2458	0.7089
2467	0.7103
2476	0.7139
2485	0.7138
2494	0.7121
2503	0.7099
2512	0.7077
2521	0.707
2530	0.7067
2539	0.7062
2548	0.7052
2557	0.7042
2566	0.7031
2575	0.7015
2584	0.6997
2593	0.6979
2602	0.6961
2611	0.6942
2620	0.6922
2629	0.6901
2638	0.6882
2647	0.6862
2656	0.6844
2665	0.6826
2674	0.6808
2683	0.679
2692	0.6766
2701	0.674
2710	0.6706
2719	0.6662
2728	0.6616
2737	0.6568
2746	0.652
2755	0.6448
2764	0.6359
2773	0.625
2782	0.6103
2791	0.5953
2800	0.5796
2809	0.5535
2818	0.5263
2827	0.4921
2836	0.4863
2845	0.4963
2854	0.5067
2863	0.5087
2872	0.487
2881	0.4582
2890	0.433
2899	0.4326
2908	0.4382
2917	0.4588
2926	0.474
2935	0.4796
2944	0.5024
2953	0.5522
2962	0.6017
2971	0.651
2980	0.6714
2989	0.6728
2998	0.6737
3007	0.6694
3016	0.6648
3025	0.6582
3034	0.6487
3043	0.6479
3052	0.6481
3061	0.6498
3070	0.6551
3079	0.6614
3088	0.6668
3097	0.6708
3106	0.673
3115	0.6722
3124	0.6715
3133	0.6699
3142	0.6682
3151	0.6665
3160	0.6645
3169	0.6626
3178	0.6606
3187	0.6585
3196	0.6566
3205	0.6545
3214	0.6525
3223	0.6506
3232	0.6481
3241	0.6454
3250	0.6427
3259	0.6401
3268	0.6374
3277	0.6342
3286	0.6305
3295	0.6269
3304	0.6233
3313	0.6197
3322	0.6164
3331	0.6132
3340	0.61
3349	0.6069
3358	0.6044
3367	0.6021
3376	0.5996
3385	0.5974
3394	0.5971
3403	0.5973
3412	0.5976
3421	0.5978
3430	0.598
3439	0.599
3448	0.6001
3457	0.6012
3466	0.6024
3475	0.6036
3484	0.6048
3493	0.6067
3502	0.6086
3511	0.6104
3520	0.6123
3529	0.6141
3538	0.6159
3547	0.6177
3556	0.6196
3565	0.6219
3574	0.6242
3583	0.6266
3592	0.629
3601	0.6312
3610	0.6334
3619	0.6355
3628	0.6376
3637	0.6391
3646	0.6391
3655	0.6389
3664	0.6387
3673	0.6377
3682	0.6365
3691	0.6355
3700	0.6346
3709	0.6339
3718	0.6338
3727	0.6354
3736	0.6378
3745	0.6405
3754	0.642
3763	0.642
3772	0.6413
3781	0.6402
3790	0.6373
3799	0.6327
3808	0.6287
3817	0.6272
3826	0.6266
3835	0.6263
3844	0.6263
3853	0.6261
3862	0.626
3871	0.6256
3880	0.6252
3889	0.6248
3898	0.6245
3907	0.624
3916	0.6237
3925	0.6233
3934	0.6229
3943	0.6226
3952	0.622
3961	0.6216
3970	0.6211
3979	0.6206
3988	0.6201
3997	0.6197
