Infrared Spectrum: Acetamide, N-(2,2,2-trifluoro-1,1-bis(p-fluorophenyl)ethyl)-
Formula: C16 H12 F5 N O
CAS: 2247-78-1
State: SOLID (SPLIT MULL), FLUOROLUBE FOR 3800-1335 CM^-^1, NUJOL FOR 1335-460 CM^-^1
Class: COBLENTZ III
Instrument: DOW KBr FOREPRISM-GRATING
Instrument parameters: BLAZED AT 3.5, 12.0, 20.0 MICRON AND CHANGED AT 5.0, 7.5, 14.9 MICRON
Sampling: TRANSMISSION
Resolution: 2
Origin: DOW CHEMICAL COMPANY
1/CM	TRANSMITTANCE
3788	0.7735
3779	0.7737
3770	0.7739
3761	0.7743
3752	0.7757
3743	0.7769
3734	0.7782
3725	0.7788
3716	0.779
3707	0.7783
3698	0.7765
3689	0.7699
3680	0.7688
3671	0.7778
3662	0.7805
3653	0.7808
3644	0.7807
3635	0.7807
3626	0.7811
3617	0.7807
3608	0.7801
3599	0.7817
3590	0.7828
3581	0.7775
3572	0.7745
3563	0.7826
3554	0.7831
3545	0.7828
3536	0.783
3527	0.7832
3518	0.7835
3509	0.784
3500	0.7857
3491	0.7874
3482	0.7889
3473	0.7893
3464	0.7899
3455	0.7904
3446	0.791
3437	0.7915
3428	0.7922
3419	0.793
3410	0.7939
3401	0.795
3392	0.7958
3383	0.7944
3374	0.7926
3365	0.7889
3356	0.7844
3347	0.7771
3338	0.7607
3329	0.7369
3320	0.688
3311	0.6359
3302	0.5386
3293	0.4981
3284	0.4754
3275	0.3779
3266	0.3553
3257	0.4232
3248	0.5244
3239	0.5687
3230	0.5777
3221	0.5739
3212	0.5652
3203	0.5725
3194	0.6305
3185	0.6704
3176	0.699
3167	0.7221
3158	0.735
3149	0.7411
3140	0.7471
3131	0.7528
3122	0.7578
3113	0.7628
3104	0.7641
3095	0.7585
3086	0.7458
3077	0.7421
3068	0.7321
3059	0.6951
3050	0.6496
3041	0.63
3032	0.6565
3023	0.6939
3014	0.7236
3005	0.7456
2996	0.7594
2987	0.7675
2978	0.7715
2969	0.7755
2960	0.7791
2951	0.7821
2942	0.7839
2933	0.7855
2924	0.7901
2915	0.7943
2906	0.7971
2897	0.7999
2888	0.8018
2879	0.8033
2870	0.803
2861	0.8011
2852	0.7988
2843	0.7965
2834	0.7967
2825	0.8006
2816	0.8048
2807	0.8074
2798	0.8097
2789	0.8115
2780	0.8128
2771	0.8141
2762	0.8158
2753	0.8171
2744	0.8186
2735	0.82
2726	0.8214
2717	0.8228
2708	0.8245
2699	0.826
2690	0.8275
2681	0.8294
2672	0.8312
2663	0.8328
2654	0.8336
2645	0.8342
2636	0.8349
2627	0.836
2618	0.8373
2609	0.8383
2600	0.8388
2591	0.8378
2582	0.836
2573	0.8373
2564	0.8387
2555	0.8382
2546	0.8377
2537	0.8371
2528	0.8374
2519	0.8375
2510	0.8378
2501	0.8382
2492	0.8366
2483	0.835
2474	0.8341
2465	0.8344
2456	0.8348
2447	0.8349
2438	0.8349
2429	0.8328
2420	0.8308
2411	0.8293
2402	0.8291
2393	0.8289
2384	0.8299
2375	0.8309
2366	0.8321
2357	0.8321
2348	0.8325
2339	0.8336
2330	0.8299
2321	0.8247
2312	0.8214
2303	0.824
2294	0.8225
2285	0.8233
2276	0.8253
2267	0.8282
2258	0.8317
2249	0.835
2240	0.838
2231	0.8408
2222	0.8434
2213	0.8449
2204	0.8464
2195	0.8478
2186	0.8499
2177	0.8527
2168	0.8557
2159	0.8568
2150	0.8582
2141	0.8594
2132	0.8606
2123	0.8618
2114	0.8634
2105	0.8644
2096	0.8651
2087	0.8656
2078	0.8656
2069	0.8636
2060	0.8621
2051	0.8627
2042	0.8671
2033	0.8725
2024	0.8738
2015	0.872
2006	0.8709
1997	0.8703
1988	0.8699
1979	0.8701
1970	0.8721
1961	0.8741
1952	0.8768
1943	0.8742
1934	0.8767
1925	0.8753
1916	0.8702
1907	0.8471
1898	0.858
1889	0.8652
1880	0.8701
1871	0.8711
1862	0.8728
1853	0.8738
1844	0.8742
1835	0.874
1826	0.8733
1817	0.8728
1808	0.8725
1799	0.8721
1790	0.8717
1781	0.8628
1772	0.8601
1763	0.8706
1754	0.8744
1745	0.8761
1736	0.8752
1727	0.8723
1718	0.8621
1709	0.8192
1700	0.7004
1691	0.7058
1682	0.4612
1673	0.044
1664	0.4533
1655	0.6023
1646	0.6017
1637	0.6968
1628	0.7701
1619	0.7862
1610	0.6275
1601	0.618
1592	0.7837
1583	0.7948
1574	0.7857
1565	0.7125
1556	0.5609
1547	0.3167
1538	0.3262
1529	0.5008
1520	0.3887
1511	0.0795
1502	0.509
1493	0.6503
1484	0.6908
1475	0.7257
1466	0.7455
1457	0.7521
1448	0.7489
1439	0.7431
1430	0.7411
1421	0.7365
1412	0.6964
1403	0.7512
1394	0.76
1385	0.7576
1376	0.6298
1367	0.6626
1358	0.7314
1349	0.704
1340	0.6903
1331	0.7065
1322	0.6808
1313	0.6239
1304	0.5541
1295	0.3728
1286	0.465
1277	0.565
1268	0.6
1259	0.5889
1250	0.3844
1241	0.2375
1232	0.2678
1223	0.5668
1214	0.5203
1205	0.6223
1196	0.6456
1187	0.3816
1178	0.3093
1169	0.2012
1160	0.1189
1151	0.4678
1142	0.651
1133	0.6974
1124	0.7389
1115	0.7345
1106	0.7231
1097	0.7399
1088	0.5674
1079	0.7408
1070	0.764
1061	0.7705
1052	0.7734
1043	0.7589
1034	0.7558
1025	0.7695
1016	0.6822
1007	0.7432
998	0.7315
989	0.7747
980	0.7815
971	0.7707
962	0.76
953	0.6317
944	0.7201
935	0.6235
926	0.6896
917	0.7708
908	0.7867
899	0.7888
890	0.7334
881	0.7864
872	0.7932
863	0.7925
854	0.7794
845	0.6169
836	0.2611
827	0.1979
818	0.5862
809	0.6603
800	0.7893
791	0.7949
782	0.7961
773	0.7925
764	0.7851
755	0.7671
746	0.7624
737	0.7181
728	0.7099
719	0.6997
710	0.746
701	0.7681
692	0.6782
683	0.6603
674	0.7375
665	0.7591
656	0.7826
647	0.7967
638	0.8005
629	0.7769
620	0.7865
611	0.6447
602	0.6935
593	0.5594
584	0.6225
575	0.5633
566	0.7551
557	0.7657
548	0.5024
539	0.6988
530	0.7258
521	0.6701
512	0.76
503	0.7411
494	0.7576
485	0.7638
476	0.7522
467	0.7444
458	0.7351
