Infrared Spectrum: Acetamide, N-(1,1-bis(p-chlorophenyl)-2,2,2-trifluoroethyl)-
Formula: C16 H12 Cl2 F3 N O
CAS: 2247-71-4
State: SOLID (SPLIT MULL), FLUOROLUBE FOR 3800-1335 CM^-^1, NUJOL FOR 1335-460 CM^-^1
Class: COBLENTZ III
Instrument: DOW KBr FOREPRISM-GRATING
Instrument parameters: BLAZED AT 3.5, 12.0, 20.0 MICRON AND CHANGED AT 5.0, 7.5, 14.9 MICRON
Sampling: TRANSMISSION
Resolution: 2
Origin: DOW CHEMICAL COMPANY
1/CM	TRANSMITTANCE
3796	0.7556
3787	0.7565
3778	0.7575
3769	0.7581
3760	0.7586
3751	0.7589
3742	0.7593
3733	0.7599
3724	0.7608
3715	0.7626
3706	0.7644
3697	0.7658
3688	0.7644
3679	0.7594
3670	0.76
3661	0.7606
3652	0.7625
3643	0.7658
3634	0.7672
3625	0.7685
3616	0.7688
3607	0.7691
3598	0.7697
3589	0.7701
3580	0.7694
3571	0.7625
3562	0.7637
3553	0.7655
3544	0.7671
3535	0.7678
3526	0.7688
3517	0.7694
3508	0.7696
3499	0.7697
3490	0.7697
3481	0.7696
3472	0.7697
3463	0.7705
3454	0.7712
3445	0.7721
3436	0.7732
3427	0.7742
3418	0.7751
3409	0.7758
3400	0.7761
3391	0.7756
3382	0.7745
3373	0.7717
3364	0.7674
3355	0.7621
3346	0.753
3337	0.7334
3328	0.7019
3319	0.6345
3310	0.5702
3301	0.4204
3292	0.2771
3283	0.2708
3274	0.3572
3265	0.4562
3256	0.518
3247	0.5869
3238	0.6333
3229	0.6511
3220	0.6575
3211	0.6575
3202	0.6543
3193	0.6751
3184	0.7043
3175	0.7261
3166	0.7392
3157	0.748
3148	0.7543
3139	0.7592
3130	0.7628
3121	0.7646
3112	0.7657
3103	0.7665
3094	0.7671
3085	0.7674
3076	0.7678
3067	0.7637
3058	0.7528
3049	0.7222
3040	0.6898
3031	0.6818
3022	0.7151
3013	0.7475
3004	0.7635
2995	0.7746
2986	0.7811
2977	0.7843
2968	0.7851
2959	0.7843
2950	0.7824
2941	0.7821
2932	0.7822
2923	0.7825
2914	0.7834
2905	0.788
2896	0.7942
2887	0.8001
2878	0.8044
2869	0.8051
2860	0.806
2851	0.8072
2842	0.8087
2833	0.8104
2824	0.8121
2815	0.8141
2806	0.8167
2797	0.8203
2788	0.8246
2779	0.8285
2770	0.8309
2761	0.8325
2752	0.8349
2743	0.8367
2734	0.8384
2725	0.8399
2716	0.8408
2707	0.8414
2698	0.8415
2689	0.8411
2680	0.8421
2671	0.846
2662	0.8475
2653	0.8493
2644	0.851
2635	0.8528
2626	0.8548
2617	0.8563
2608	0.8575
2599	0.8587
2590	0.8598
2581	0.8608
2572	0.8616
2563	0.8621
2554	0.8624
2545	0.8623
2536	0.8633
2527	0.8652
2518	0.8642
2509	0.8632
2500	0.8654
2491	0.8663
2482	0.8666
2473	0.8668
2464	0.8673
2455	0.8675
2446	0.8681
2437	0.8684
2428	0.8687
2419	0.8686
2410	0.8677
2401	0.8649
2392	0.8618
2383	0.8628
2374	0.866
2365	0.869
2356	0.8717
2347	0.8739
2338	0.8758
2329	0.8766
2320	0.8759
2311	0.8684
2302	0.8634
2293	0.8653
2284	0.8671
2275	0.8684
2266	0.8709
2257	0.8737
2248	0.8765
2239	0.8792
2230	0.8818
2221	0.883
2212	0.8853
2203	0.8875
2194	0.8894
2185	0.891
2176	0.8925
2167	0.8946
2158	0.8966
2149	0.8975
2140	0.8984
2131	0.8988
2122	0.8993
2113	0.8997
2104	0.9004
2095	0.9017
2086	0.9033
2077	0.9052
2068	0.9062
2059	0.9071
2050	0.9091
2041	0.9118
2032	0.9142
2023	0.9163
2014	0.9167
2005	0.9156
1996	0.9017
1987	0.8883
1978	0.8884
1969	0.8896
1960	0.9053
1951	0.8914
1942	0.8897
1933	0.888
1924	0.8828
1915	0.8807
1906	0.8635
1897	0.8794
1888	0.8825
1879	0.8842
1870	0.8834
1861	0.8849
1852	0.886
1843	0.8857
1834	0.8851
1825	0.8859
1816	0.8874
1807	0.8794
1798	0.8824
1789	0.881
1780	0.8738
1771	0.8766
1762	0.8799
1753	0.8825
1744	0.8825
1735	0.8783
1726	0.8693
1717	0.8531
1708	0.8254
1699	0.6828
1690	0.6575
1681	0.1865
1672	0.0569
1663	0.5473
1654	0.6194
1645	0.6626
1636	0.7158
1627	0.7497
1618	0.7765
1609	0.7837
1600	0.7484
1591	0.7657
1582	0.7842
1573	0.7611
1564	0.7525
1555	0.6771
1546	0.3973
1537	0.2645
1528	0.4214
1519	0.6027
1510	0.6942
1501	0.4721
1492	0.2623
1483	0.68
1474	0.7328
1465	0.7732
1456	0.7738
1447	0.7758
1438	0.7704
1429	0.7531
1420	0.7368
1411	0.7241
1402	0.6971
1393	0.7474
1384	0.7461
1375	0.6578
1366	0.6972
1357	0.7364
1348	0.7351
1339	0.7161
1330	0.7361
1321	0.7188
1312	0.6138
1303	0.4704
1294	0.2972
1285	0.4701
1276	0.5275
1267	0.5971
1258	0.6372
1249	0.6234
1240	0.3972
1231	0.458
1222	0.6064
1213	0.3974
1204	0.6392
1195	0.6086
1186	0.5695
1177	0.3864
1168	0.0469
1159	0.1633
1150	0.5441
1141	0.6701
1132	0.7245
1123	0.6947
1114	0.7214
1105	0.4302
1096	0.3106
1087	0.6651
1078	0.7514
1069	0.7788
1060	0.7971
1051	0.798
1042	0.8018
1033	0.8067
1024	0.8111
1015	0.676
1006	0.7125
997	0.7591
988	0.8118
979	0.8247
970	0.794
961	0.8171
952	0.6735
943	0.8099
934	0.5372
925	0.7864
916	0.838
907	0.8557
898	0.855
889	0.7767
880	0.8638
871	0.8701
862	0.8718
853	0.8717
844	0.8488
835	0.7347
826	0.5429
817	0.1569
808	0.7989
799	0.853
790	0.8657
781	0.8671
772	0.8128
763	0.6872
754	0.8556
745	0.8535
736	0.6218
727	0.7578
718	0.793
709	0.7682
700	0.8589
691	0.8251
682	0.7528
673	0.7367
664	0.8028
655	0.857
646	0.8816
637	0.8931
628	0.8799
619	0.887
610	0.8837
601	0.7718
592	0.862
583	0.8583
574	0.7998
565	0.8784
556	0.8517
547	0.7628
538	0.8383
529	0.5815
520	0.8716
511	0.7875
502	0.8755
493	0.8891
484	0.7851
475	0.7825
466	0.8545
