Infrared Spectrum: 2,6-Dichloro-.omega.-nitrostyrene
Formula: C 8 H 5 Cl 2 N O 2
CAS: 22482-43-5
State: gas
Origin: EPA-IR VAPOR PHASE LIBRARY
1/CM	ABSORBANCE
549.8	0.002575
559.445	0.002635
569.09	0.0014528
578.734	0.002585
588.379	0.0009461
598.024	0.0010689
607.669	0.002115
617.313	0.002755
626.958	0.009205
636.603	0.011265
646.248	0.003535
655.893	0.002855
665.537	0.001725
675.182	0.002225
684.827	0.002885
694.472	0.004525
704.116	0.006405
713.761	0.011275
723.406	0.011875
733.051	0.012495
742.695	0.019745
752.34	0.024975
761.985	0.022515
771.63	0.064945
781.275	0.103535
790.919	0.041625
800.564	0.011995
810.209	0.006755
819.854	0.005915
829.498	0.008075
839.143	0.008355
848.788	0.009045
858.433	0.010625
868.078	0.012565
877.722	0.008765
887.367	0.006315
897.012	0.005235
906.657	0.006295
916.301	0.009455
925.946	0.015005
935.591	0.020725
945.236	0.030825
954.88	0.040565
964.525	0.033665
974.17	0.016095
983.815	0.007685
993.46	0.004355
1003.1	0.003545
1012.75	0.003575
1022.39	0.002655
1032.04	0.003205
1041.68	0.003345
1051.33	0.003535
1060.97	0.002495
1070.62	0.003015
1080.26	0.005645
1089.91	0.010595
1099.55	0.014465
1109.2	0.006995
1118.84	0.002805
1128.49	0.003105
1138.13	0.003955
1147.78	0.008765
1157.42	0.010345
1167.07	0.009325
1176.71	0.012935
1186.36	0.012765
1196	0.010905
1205.64	0.013235
1215.29	0.007695
1224.93	0.004235
1234.58	0.005835
1244.22	0.006265
1253.87	0.007335
1263.51	0.007825
1273.16	0.005885
1282.8	0.006825
1292.45	0.007755
1302.09	0.009315
1311.74	0.012185
1321.38	0.024245
1331.03	0.060285
1340.67	0.118405
1350.32	0.110705
1359.96	0.064745
1369.61	0.033955
1379.25	0.017325
1388.9	0.011135
1398.54	0.010595
1408.18	0.015595
1417.83	0.035185
1427.47	0.073595
1437.12	0.065715
1446.76	0.024395
1456.41	0.009525
1466.05	0.008425
1475.7	0.009425
1485.34	0.011235
1494.99	0.014635
1504.63	0.018435
1514.28	0.026815
1523.92	0.046915
1533.57	0.076175
1543.21	0.124495
1552.86	0.169695
1562.5	0.122485
1572.15	0.070855
1581.79	0.039165
1591.44	0.019415
1601.08	0.013125
1610.73	0.010555
1620.37	0.009515
1630.01	0.009605
1639.66	0.012665
1649.3	0.015255
1658.95	0.011325
1668.59	0.007665
1678.24	0.005255
1687.88	0.003555
1697.53	0.002875
1707.17	0.002535
1716.82	0.002175
1726.46	0.001775
1736.11	0.001895
1745.75	0.001665
1755.4	0.001805
1765.04	0.001825
1774.69	0.002505
1784.33	0.003895
1793.98	0.003145
1803.62	0.002595
1813.27	0.001795
1822.91	0.001735
1832.55	0.001715
1842.2	0.001815
1851.84	0.002835
1861.49	0.003005
1871.13	0.001775
1880.78	0.001755
1890.42	0.001645
1900.07	0.001605
1909.71	0.001955
1919.36	0.002755
1929	0.004095
1938.65	0.003065
1948.29	0.001595
1957.94	0.0011472
1967.58	0.0012294
1977.23	0.0012026
1986.87	0.0010753
1996.52	0.0013121
2006.16	0.0009583
2015.81	0.0010642
2025.45	0.0011685
2035.1	0.0009684
2044.74	0.001021
2054.38	0.0011697
2064.03	0.0012849
2073.67	0.0010735
2083.32	0.000876
2092.96	0.0009858
2102.61	0.0007834
2112.25	0.0010985
2121.9	0.0009638
2131.54	0.000871
2141.19	0.0009798
2150.83	0.0009947
2160.48	0.0006738
2170.12	0.0010772
2179.77	0.0008649
2189.41	0.0012133
2199.06	0.0011067
2208.7	0.0010317
2218.35	0.001256
2227.99	0.0014608
2237.64	0.0009365
2247.28	0.0012487
2256.92	0.0009413
2266.57	0.001085
2276.21	0.0010697
2285.86	0.0013023
2295.5	0.001516
2305.15	0.001425
2314.79	0.0012243
2324.44	0.0014453
2334.08	0.0011729
2343.73	0.0012412
2353.37	0.0010201
2363.02	0.0008916
2372.66	0.0010066
2382.31	0.0008843
2391.95	0.00111
2401.6	0.0011115
2411.24	0.0010558
2420.89	0.0012735
2430.53	0.0010483
2440.18	0.0008813
2449.82	0.0010865
2459.47	0.0011484
2469.11	0.001182
2478.75	0.0013686
2488.4	0.0012153
2498.04	0.001585
2507.69	0.0012281
2517.33	0.0014118
2526.98	0.0011218
2536.62	0.0009526
2546.27	0.0011585
2555.91	0.0009934
2565.56	0.0011799
2575.2	0.0012971
2584.85	0.001402
2594.49	0.0015086
2604.14	0.0015461
2613.78	0.0013907
2623.43	0.0012785
2633.07	0.001745
2642.72	0.0014806
2652.36	0.001665
2662.01	0.001775
2671.65	0.002005
2681.29	0.001995
2690.94	0.002215
2700.58	0.0013102
2710.23	0.0014162
2719.87	0.0013433
2729.52	0.0011077
2739.16	0.0008976
2748.81	0.0011744
2758.45	0.0009647
2768.1	0.0013473
2777.74	0.0012011
2787.39	0.0010566
2797.03	0.0013986
2806.68	0.001565
2816.32	0.0013196
2825.97	0.0014215
2835.61	0.0012424
2845.26	0.002185
2854.9	0.002295
2864.55	0.002535
2874.19	0.003745
2883.84	0.003985
2893.48	0.003845
2903.12	0.003495
2912.77	0.002855
2922.41	0.002395
2932.06	0.0014902
2941.7	0.001715
2951.35	0.001845
2960.99	0.0011729
2970.64	0.001645
2980.28	0.001795
2989.93	0.002135
2999.57	0.001805
3009.22	0.001825
3018.86	0.0011116
3028.51	0.001615
3038.15	0.002095
3047.8	0.003315
3057.44	0.005745
3067.09	0.004695
3076.73	0.004395
3086.38	0.003735
3096.02	0.002495
3105.67	0.002985
3115.31	0.003795
3124.95	0.005885
3134.6	0.004205
3144.24	0.002605
3153.89	0.001725
3163.53	0.001685
3173.18	0.001534
3182.82	0.0008342
3192.47	0.00061381
3202.11	0.00056924
3211.76	0.0008239
3221.4	0.0007849
3231.05	0.000367
3240.69	0.0011343
3250.34	0.0009235
3259.98	0.00036
3269.63	0.00060701
3279.27	0.0011642
3288.92	0.001138
3298.56	0.0009301
3308.21	0.00064671
3317.85	4.1e-05
3327.49	0.00065352
3337.14	0.000353
3346.78	0.00063719
3356.43	0.0007555
3366.07	0.00062563
3375.72	0.0008236
3385.36	0.0011445
3395.01	0.0004922
3404.65	0.0004934
3414.3	0.0009389
3423.94	0.0008603
3433.59	0.00045
3443.23	0.00058126
3452.88	0.0006879
3462.52	0.0008131
3472.17	0.0009612
3481.81	0.0005414
3491.46	0.0008622
3501.1	0.0010713
3510.75	0.0005205
3520.39	0.0014437
3530.04	0.0005163
3539.68	0.0006933
3549.32	0.000727
3558.97	0.0013574
3568.61	0.0008586
3578.26	0.000322
3587.9	0.0006879
3597.55	0.0007268
3607.19	0.0010844
3616.84	0.0004956
3626.48	0.0011337
3636.13	0.0008524
3645.77	0.0007742
3655.42	0.0010643
3665.06	0.0009694
3674.71	0.0004564
3684.35	0.0010652
3694	0.00057141
3703.64	0.000444
3713.29	0.000309
3722.93	0.001625
3732.58	0.0011566
3742.22	0.0008134
3751.86	0.001565
3761.51	0.0009974
3771.15	0.0013092
3780.8	0.0008404
3790.44	0.0009241
3800.09	0.0008905
3809.73	0.0008732
3819.38	0.001195
3829.02	0.000411
3838.67	0.00061483
3848.31	0.00058839
3857.96	0.0005137
3867.6	0.0010104
3877.25	0.000861
3886.89	0.00056742
3896.54	0.0012408
3906.18	0.0008729
3915.83	0.001615
3925.47	0.0012457
3935.12	0.0011004
3944.76	0.0011486
3954.41	0.0005276
3964.05	0.001169
3973.69	0.0004626
3983.34	0.0015159
3992.98	0.0008961
