Infrared Spectrum: 2,3,4-Trimethoxyphenylacetic acid
Formula: C 11 H 14 O 5
CAS: 22480-91-7
State: gas
Origin: EPA-IR VAPOR PHASE LIBRARY
1/CM	ABSORBANCE
549.8	0.008392
559.445	0.008342
569.09	0.009562
578.734	0.012922
588.379	0.013782
598.024	0.010652
607.669	0.009432
617.313	0.008712
626.958	0.008772
636.603	0.008402
646.248	0.007532
655.893	0.007602
665.537	0.008212
675.182	0.007532
684.827	0.006182
694.472	0.004452
704.116	0.003182
713.761	0.002222
723.406	0.001972
733.051	0.001652
742.695	0.001912
752.34	0.002372
761.985	0.003632
771.63	0.003682
781.275	0.003182
790.919	0.005392
800.564	0.005302
810.209	0.004822
819.854	0.003232
829.498	0.002022
839.143	0.001782
848.788	0.001722
858.433	0.002032
868.078	0.002432
877.722	0.002632
887.367	0.002762
897.012	0.003982
906.657	0.005572
916.301	0.005662
925.946	0.004862
935.591	0.003912
945.236	0.004462
954.88	0.005662
964.525	0.005612
974.17	0.004152
983.815	0.003912
993.46	0.005072
1003.1	0.009202
1012.75	0.017652
1022.39	0.023692
1032.04	0.023852
1041.68	0.029132
1051.33	0.026622
1060.97	0.020442
1070.62	0.024082
1080.26	0.035542
1089.91	0.048582
1099.55	0.064812
1109.2	0.085152
1118.84	0.073032
1128.49	0.041932
1138.13	0.028522
1147.78	0.020492
1157.42	0.018432
1167.07	0.016822
1176.71	0.014552
1186.36	0.015842
1196	0.017502
1205.64	0.016662
1215.29	0.014512
1224.93	0.016572
1234.58	0.022662
1244.22	0.026192
1253.87	0.029192
1263.51	0.027062
1273.16	0.026632
1282.8	0.032102
1292.45	0.037262
1302.09	0.031072
1311.74	0.021062
1321.38	0.014222
1331.03	0.011282
1340.67	0.010602
1350.32	0.010602
1359.96	0.011102
1369.61	0.009932
1379.25	0.007432
1388.9	0.006822
1398.54	0.008732
1408.18	0.016942
1417.83	0.028332
1427.47	0.024472
1437.12	0.020162
1446.76	0.016342
1456.41	0.022142
1466.05	0.036992
1475.7	0.032022
1485.34	0.036532
1494.99	0.049392
1504.63	0.020722
1514.28	0.007732
1523.92	0.005032
1533.57	0.004262
1543.21	0.003862
1552.86	0.003812
1562.5	0.004202
1572.15	0.005132
1581.79	0.006722
1591.44	0.009702
1601.08	0.011842
1610.73	0.007952
1620.37	0.004112
1630.01	0.002712
1639.66	0.002072
1649.3	0.001762
1658.95	0.001692
1668.59	0.001672
1678.24	0.001892
1687.88	0.002012
1697.53	0.002302
1707.17	0.003022
1716.82	0.004112
1726.46	0.006032
1736.11	0.009332
1745.75	0.014072
1755.4	0.020992
1765.04	0.033742
1774.69	0.052762
1784.33	0.050052
1793.98	0.032302
1803.62	0.017782
1813.27	0.009692
1822.91	0.005902
1832.55	0.003942
1842.2	0.002832
1851.84	0.002232
1861.49	0.001742
1871.13	0.001542
1880.78	0.0012726
1890.42	0.0012057
1900.07	0.001322
1909.71	0.001302
1919.36	0.001462
1929	0.001652
1938.65	0.001542
1948.29	0.001402
1957.94	0.001322
1967.58	0.001332
1977.23	0.001452
1986.87	0.001532
1996.52	0.001552
2006.16	0.001522
2015.81	0.001382
2025.45	0.001302
2035.1	0.0010733
2044.74	0.0010757
2054.38	0.0011965
2064.03	0.0010857
2073.67	0.0009845
2083.32	0.0009768
2092.96	0.0009771
2102.61	0.0009851
2112.25	0.0010419
2121.9	0.0010781
2131.54	0.0011231
2141.19	0.0009843
2150.83	0.0010811
2160.48	0.0009596
2170.12	0.0010402
2179.77	0.0009614
2189.41	0.0009336
2199.06	0.0011598
2208.7	0.0010579
2218.35	0.000979
2227.99	0.0008498
2237.64	0.0007297
2247.28	0.0007007
2256.92	0.0007304
2266.57	0.0007463
2276.21	0.0006311
2285.86	0.000638
2295.5	0.0006827
2305.15	0.0006483
2314.79	0.000833
2324.44	0.0008595
2334.08	0.0008717
2343.73	0.0007947
2353.37	0.0009857
2363.02	0.0009724
2372.66	0.0010962
2382.31	0.0008977
2391.95	0.0007714
2401.6	0.0008033
2411.24	0.0007836
2420.89	0.0006894
2430.53	0.0005789
2440.18	0.0007015
2449.82	0.0007531
2459.47	0.0007882
2469.11	0.0008757
2478.75	0.0008689
2488.4	0.0008597
2498.04	0.0007149
2507.69	0.0008363
2517.33	0.0007778
2526.98	0.000876
2536.62	0.0008988
2546.27	0.0008461
2555.91	0.000777
2565.56	0.0007623
2575.2	0.0007173
2584.85	0.0008471
2594.49	0.00079
2604.14	0.0008404
2613.78	0.000774
2623.43	0.0007333
2633.07	0.0008117
2642.72	0.0006682
2652.36	0.000801
2662.01	0.0006019
2671.65	0.0007675
2681.29	0.000496
2690.94	0.0005037
2700.58	0.0007697
2710.23	0.0006899
2719.87	0.0006307
2729.52	0.0006658
2739.16	0.0007413
2748.81	0.0008123
2758.45	0.0008667
2768.1	0.0008493
2777.74	0.0010978
2787.39	0.001264
2797.03	0.001852
2806.68	0.002572
2816.32	0.003982
2825.97	0.007102
2835.61	0.011932
2845.26	0.012622
2854.9	0.009272
2864.55	0.007352
2874.19	0.007242
2883.84	0.008372
2893.48	0.008852
2903.12	0.009912
2912.77	0.011702
2922.41	0.014112
2932.06	0.019132
2941.7	0.028232
2951.35	0.028822
2960.99	0.020412
2970.64	0.015832
2980.28	0.013742
2989.93	0.013802
2999.57	0.015782
3009.22	0.014112
3018.86	0.008792
3028.51	0.006692
3038.15	0.005952
3047.8	0.004942
3057.44	0.004572
3067.09	0.004072
3076.73	0.003982
3086.38	0.003532
3096.02	0.002902
3105.67	0.002112
3115.31	0.001452
3124.95	0.0012055
3134.6	0.0009269
3144.24	0.0009761
3153.89	0.0006586
3163.53	0.0007559
3173.18	0.0005431
3182.82	0.0004045
3192.47	0.0004674
3202.11	0.000601
3211.76	0.0005631
3221.4	0.0003871
3231.05	0.000289977
3240.69	0.00031835
3250.34	0.0004327
3259.98	0.0003946
3269.63	0.0004144
3279.27	0.0004581
3288.92	0.00032223
3298.56	0.0002646
3308.21	0.00030117
3317.85	0.0004393
3327.49	0.00033434
3337.14	0.0007443
3346.78	0.0005261
3356.43	0.0003886
3366.07	0.0006375
3375.72	0.00032674
3385.36	0.0004264
3395.01	0.0005779
3404.65	0.0005781
3414.3	0.0006372
3423.94	0.0007276
3433.59	0.0007413
3443.23	0.0006933
3452.88	0.0007822
3462.52	0.0008844
3472.17	0.0005581
3481.81	0.0006563
3491.46	0.0007323
3501.1	0.0008646
3510.75	0.0009394
3520.39	0.0010798
3530.04	0.001292
3539.68	0.001672
3549.32	0.002412
3558.97	0.004512
3568.61	0.016142
3578.26	0.022052
3587.9	0.005672
3597.55	0.001812
3607.19	0.0011751
3616.84	0.0010581
3626.48	0.0005212
3636.13	0.0004316
3645.77	0.00036312
3655.42	0.0007261
3665.06	0.0002115
3674.71	0.0002697
3684.35	0.00036506
3694	0.0001968
3703.64	0.0004179
3713.29	0.000101
3722.93	0.000288868
3732.58	0.0004711
3742.22	0.0001867
3751.86	0.0002384
3761.51	0.000161
3771.15	0.000164
3780.8	0.0003151
3790.44	0.00028068
3800.09	0.00034447
3809.73	0.000407
3819.38	0.0002212
3829.02	8.6e-05
3838.67	0.0002661
3848.31	0.0002323
3857.96	0.0002146
3867.6	0.00031141
3877.25	0.000286187
3886.89	0.00038031
3896.54	0.0002019
3906.18	0.000173
3915.83	0.0004075
3925.47	0.0004873
3935.12	0.000248
3944.76	0.000534
3954.41	0.0004812
3964.05	0.0004674
3973.69	0.00030678
3983.34	0.00033262
3992.98	0.00037085
