Infrared Spectrum: Aminoacetaldehyde dimethyl acetal
Formula: C 4 H 11 N O 2
CAS: 22483-09-6
State: gas
Instrument: HP-GC/MS/IRD
Origin: NIST Mass Spectrometry Data Center
1/CM	ABSORBANCE
550	0.0005907
562	0.0004158
574	0.0001386
586	8.25e-05
598	0.0001122
610	0.0001155
622	0.0002211
634	0.0003267
646	0.0004785
658	0.0005775
670	0.0007953
682	0.0008646
694	0.0009207
706	0.0010197
718	0.0012804
730	0.0017391
742	0.0024948
754	0.0035937
766	0.0050589
778	0.0061611
790	0.0062205
802	0.0053493
814	0.0045177
826	0.0040887
838	0.0037686
850	0.003498
862	0.0027753
874	0.0021186
886	0.002046
898	0.0020889
910	0.0022308
922	0.0022275
934	0.0020097
946	0.0019173
958	0.0020889
970	0.0028512
982	0.0046101
994	0.0075471
1006	0.0097251
1018	0.0099957
1030	0.0112266
1042	0.0171897
1054	0.0276408
1066	0.033
1078	0.0281721
1090	0.0236082
1102	0.02112
1114	0.0190179
1126	0.0196812
1138	0.0190245
1150	0.0147906
1162	0.0103158
1174	0.0075867
1186	0.0061446
1198	0.0050127
1210	0.0035046
1222	0.0022341
1234	0.0016038
1246	0.0014718
1258	0.0016071
1270	0.0019107
1282	0.002145
1294	0.002442
1306	0.0028182
1318	0.0030921
1330	0.0037026
1342	0.0047619
1354	0.004224
1366	0.0043461
1378	0.0052041
1390	0.0037389
1402	0.0026037
1414	0.0018678
1426	0.0014916
1438	0.0016467
1450	0.0020361
1462	0.0018447
1474	0.0014685
1486	0.0011748
1498	0.0008217
1510	0.0005049
1522	0.0004158
1534	0.0003597
1546	0.00033
1558	0.0003663
1570	0.0004125
1582	0.0005346
1594	0.0007689
1606	0.0012309
1618	0.0016269
1630	0.001452
1642	0.0008844
1654	0.0004884
1666	0.0002739
1678	0.0001617
1690	8.91e-05
1702	7.26e-05
1714	3.3e-05
1726	4.95e-05
1738	3.3e-05
1750	6.6e-06
1762	4.29e-05
1774	0
1786	1.98e-05
1798	1.32e-05
1810	3.3e-05
1822	5.94e-05
1834	6.93e-05
1846	9.9e-05
1858	0.0001221
1870	8.91e-05
1882	0.0001254
1894	0.0001584
1906	0.0001617
1918	0.0001683
1930	0.0001914
1942	0.0002046
1954	0.0002211
1966	0.0002508
1978	0.0002277
1990	0.0001848
2002	0.000165
2014	0.0001386
2026	0.0001122
2038	0.0001122
2050	7.26e-05
2062	8.58e-05
2074	8.58e-05
2086	9.57e-05
2098	9.9e-05
2110	0.0001056
2122	0.0001221
2134	0.0001452
2146	0.0001518
2158	0.0001617
2170	0.0001419
2182	0.0001782
2194	0.000165
2206	0.0001551
2218	0.0001122
2230	9.9e-05
2242	0.0001089
2254	0.0001386
2266	0.0001287
2278	0.0001386
2290	0.0001188
2302	0.0001089
2314	8.91e-05
2326	7.92e-05
2338	0.0001023
2350	6.93e-05
2362	9.9e-05
2374	9.57e-05
2386	9.57e-05
2398	0.0001122
2410	0.000132
2422	0.0001221
2434	0.0001452
2446	0.0001188
2458	0.0001056
2470	0.0001188
2482	0.0001089
2494	0.0001122
2506	0.0001155
2518	0.0001155
2530	0.0001254
2542	0.0001452
2554	0.0001419
2566	0.0001749
2578	0.0002277
2590	0.0002871
2602	0.0003366
2614	0.0004422
2626	0.0005082
2638	0.0005577
2650	0.0005841
2662	0.0005907
2674	0.0006303
2686	0.0006435
2698	0.0006963
2710	0.0007326
2722	0.0008448
2734	0.0009669
2746	0.0011583
2758	0.0013629
2770	0.0015543
2782	0.0017622
2794	0.0020031
2806	0.0021879
2818	0.0025707
2830	0.0032901
2842	0.0045177
2854	0.0063624
2866	0.0093819
2878	0.0124971
2890	0.0128436
2902	0.0115962
2914	0.011583
2926	0.0130119
2938	0.0148797
2950	0.0139854
2962	0.0120351
2974	0.0143385
2986	0.015279
2998	0.0083358
3010	0.0040623
3022	0.0026202
3034	0.0017754
3046	0.0012474
3058	0.0008943
3070	0.0007755
3082	0.0006072
3094	0.0005676
3106	0.0004752
3118	0.0004455
3130	0.0004587
3142	0.0004125
3154	0.0004125
3166	0.0003399
3178	0.0003696
3190	0.0003168
3202	0.0003366
3214	0.0003069
3226	0.0002904
3238	0.0002145
3250	0.0002079
3262	0.0001914
3274	0.000198
3286	0.0001881
3298	0.0001419
3310	0.0001617
3322	0.0001089
3334	0.000198
3346	0.0002805
3358	0.00033
3370	0.0001947
3382	0.000165
3394	0.000165
3406	0.0003135
3418	0.0004059
3430	0.0003168
3442	0.0002706
3454	0.0002277
3466	0.0001386
3478	0.0001617
3490	0.000165
3502	0.0001848
3514	0.0001221
3526	0.000132
3538	0.0001485
3550	0.0001188
3562	0.0001254
3574	0.000132
3586	0.000132
3598	0.0001155
3610	0.0002046
3622	0.0001287
3634	0.0001551
3646	0.0001551
3658	0.0001089
3670	0.0001815
3682	0.0001254
3694	0.0001551
3706	0.0001452
3718	0.0001617
3730	0.0001782
3742	0.0002079
3754	0.0001584
3766	0.0001815
3778	0.0001683
3790	0.0002277
3802	0.0001782
3814	0.0002376
3826	0.0001815
3838	0.0001353
