Infrared Spectrum: Benzo[a]phenazine
Formula: C 16 H 10 N 2
CAS: 225-61-6
State: gas
Origin: EPA-IR VAPOR PHASE LIBRARY
1/CM	ABSORBANCE
549.8	0.004285
559.445	0.003285
569.09	0.003395
578.734	0.002535
588.379	0.0012126
598.024	0.0011936
607.669	0.003415
617.313	0.0014156
626.958	0.0014359
636.603	0.0012676
646.248	0.001532
655.893	0.002075
665.537	0.0012809
675.182	0.0011423
684.827	0.0016158
694.472	0.002535
704.116	0.0016787
713.761	0.0012036
723.406	0.0012604
733.051	0.001785
742.695	0.004245
752.34	0.015845
761.985	0.018985
771.63	0.006415
781.275	0.002195
790.919	0.003395
800.564	0.004705
810.209	0.002945
819.854	0.002555
829.498	0.004335
839.143	0.004265
848.788	0.002105
858.433	0.0015187
868.078	0.002195
877.722	0.004495
887.367	0.0016682
897.012	0.0015149
906.657	0.0011872
916.301	0.0011276
925.946	0.0011278
935.591	0.00099547
945.236	0.0011518
954.88	0.001419
964.525	0.0013215
974.17	0.0010604
983.815	0.0015622
993.46	0.003385
1003.1	0.007495
1012.75	0.004345
1022.39	0.0009438
1032.04	0.001328
1041.68	0.0013002
1051.33	0.0014725
1060.97	0
1070.62	0.001593
1080.26	0.00097937
1089.91	0.0016335
1099.55	0.003535
1109.2	0.004715
1118.84	0.004135
1128.49	0.002405
1138.13	0.001336
1147.78	0.0016544
1157.42	0.001884
1167.07	0.00103746
1176.71	0.0011369
1186.36	0.0017597
1196	0.002065
1205.64	0.002005
1215.29	0.002735
1224.93	0.002565
1234.58	0.002895
1244.22	0.002085
1253.87	0.0012927
1263.51	0.0015163
1273.16	0.0017641
1282.8	0.002175
1292.45	0.002255
1302.09	0.002385
1311.74	0.002345
1321.38	0.002535
1331.03	0.002085
1340.67	0.004635
1350.32	0.014075
1359.96	0.009195
1369.61	0.002865
1379.25	0.002615
1388.9	0.002095
1398.54	0.002625
1408.18	0.002945
1417.83	0.002235
1427.47	0.0015631
1437.12	0.0013817
1446.76	0.0017204
1456.41	0.002205
1466.05	0.003305
1475.7	0.003085
1485.34	0.003645
1494.99	0.006095
1504.63	0.003435
1514.28	0.002185
1523.92	0.002145
1533.57	0.003105
1543.21	0.002315
1552.86	0.0014674
1562.5	0.0012795
1572.15	0.001078
1581.79	0.00125
1591.44	0.0013741
1601.08	0.0018537
1610.73	0.0018506
1620.37	0.0018942
1630.01	0.0018149
1639.66	0.0014471
1649.3	0.0013259
1658.95	0.0014622
1668.59	0.001378
1678.24	0.0013173
1687.88	0.0013399
1697.53	0.0015698
1707.17	0.002025
1716.82	0.0016792
1726.46	0.0014852
1736.11	0.0014044
1745.75	0.0015947
1755.4	0.0016492
1765.04	0.0017468
1774.69	0.0014928
1784.33	0.0014575
1793.98	0.0015956
1803.62	0.001645
1813.27	0.001515
1822.91	0.0015739
1832.55	0.001579
1842.2	0.0018175
1851.84	0.0014794
1861.49	0.0012504
1871.13	0.00111
1880.78	0.0012329
1890.42	0.001234
1900.07	0.0015906
1909.71	0.0017422
1919.36	0.0016375
1929	0.002015
1938.65	0.0015861
1948.29	0.0016954
1957.94	0.0018022
1967.58	0.0012808
1977.23	0.0012497
1986.87	0.0012229
1996.52	0.0011515
2006.16	0.0012797
2015.81	0.0011263
2025.45	0.0010885
2035.1	0.00104766
2044.74	0.0012374
2054.38	0.0011038
2064.03	0.0011419
2073.67	0.0011906
2083.32	0.0013049
2092.96	0.0012001
2102.61	0.0011467
2112.25	0.0012191
2121.9	0.0011849
2131.54	0.0011978
2141.19	0.001183
2150.83	0.0011773
2160.48	0.0012564
2170.12	0.001144
2179.77	0.0011366
2189.41	0.0012792
2199.06	0.001234
2208.7	0.0010826
2218.35	0.0011737
2227.99	0.00124
2237.64	0.0011641
2247.28	0.0012107
2256.92	0.0011511
2266.57	0.0011526
2276.21	0.0013062
2285.86	0.0012324
2295.5	0.001141
2305.15	0.0012595
2314.79	0.0013402
2324.44	0.0012891
2334.08	0.0012828
2343.73	0.0011971
2353.37	0.0012553
2363.02	0.0011213
2372.66	0.0012212
2382.31	0.0012094
2391.95	0.0012378
2401.6	0.0011454
2411.24	0.0011727
2420.89	0.0011945
2430.53	0.0011639
2440.18	0.0011537
2449.82	0.0011883
2459.47	0.0012554
2469.11	0.0012234
2478.75	0.0011524
2488.4	0.0010582
2498.04	0.0012189
2507.69	0.001137
2517.33	0.0012099
2526.98	0.0011894
2536.62	0.0011098
2546.27	0.0011139
2555.91	0.0012002
2565.56	0.0011307
2575.2	0.0012949
2584.85	0.0011522
2594.49	0.0012888
2604.14	0.0011426
2613.78	0.00099854
2623.43	0.0011288
2633.07	0.00102719
2642.72	0.0012129
2652.36	0.0011309
2662.01	0.001299
2671.65	0.0011076
2681.29	0.0011917
2690.94	0.00103457
2700.58	0.0011127
2710.23	0.0009826
2719.87	0.0011915
2729.52	0.0012194
2739.16	0.0011622
2748.81	0.0012314
2758.45	0.0013301
2768.1	0.0010926
2777.74	0.0011273
2787.39	0.0010791
2797.03	0.00101073
2806.68	0.0010723
2816.32	0.0011522
2825.97	0.0010554
2835.61	0.0012095
2845.26	0.001256
2854.9	0.0011299
2864.55	0.0011518
2874.19	0.0012143
2883.84	0.0011521
2893.48	0.0012327
2903.12	0.0011784
2912.77	0.0012597
2922.41	0.0013966
2932.06	0.0013486
2941.7	0.0012064
2951.35	0.0011239
2960.99	0.0012478
2970.64	0.0010752
2980.28	0.0011547
2989.93	0.0013347
2999.57	0.0017093
3009.22	0.0016444
3018.86	0.002005
3028.51	0.002695
3038.15	0.003605
3047.8	0.005165
3057.44	0.007415
3067.09	0.011405
3076.73	0.008745
3086.38	0.004205
3096.02	0.003445
3105.67	0.002925
3115.31	0.0016315
3124.95	0.0014137
3134.6	0.0014105
3144.24	0.001347
3153.89	0.0010986
3163.53	0.000969725
3173.18	0.0013126
3182.82	0.0009441
3192.47	0.0011161
3202.11	0.0009112
3211.76	0.0012266
3221.4	0.0011688
3231.05	0.0010662
3240.69	0.0011017
3250.34	0.0011689
3259.98	0.0009463
3269.63	0.0011959
3279.27	0.0011041
3288.92	0.0010718
3298.56	0.00106032
3308.21	0.0012092
3317.85	0.0011938
3327.49	0.000971604
3337.14	0.00101496
3346.78	0.0010397
3356.43	0.00103684
3366.07	0.0013419
3375.72	0.0009024
3385.36	0.0010734
3395.01	0.0011198
3404.65	0.001175
3414.3	0.00095895
3423.94	0.0010704
3433.59	0.00103873
3443.23	0.00100905
3452.88	0.0012345
3462.52	0.0011722
3472.17	0.0010709
3481.81	0.0012973
3491.46	0.00104222
3501.1	0.000815
3510.75	0.000799
3520.39	0.00103825
3530.04	0.0011544
3539.68	0.00101246
3549.32	0.0008843
3558.97	0.0011173
3568.61	0.00099048
3578.26	0.0013922
3587.9	0.0011279
3597.55	0.000768
3607.19	0.0009119
3616.84	0.001127
3626.48	0.00105979
3636.13	0.0011321
3645.77	0.0011274
3655.42	0.00106266
3665.06	0.0011485
3674.71	0.0012044
3684.35	0.0013044
3694	0.0010944
3703.64	0.0012067
3713.29	0.0011059
3722.93	0.00097717
3732.58	0.0010934
3742.22	0.0009249
3751.86	0.000823
3761.51	0.000689
3771.15	0.0009208
3780.8	0.0008924
3790.44	0.00100312
3800.09	0.00098117
3809.73	0.000809
3819.38	0.0011223
3829.02	0.00095922
3838.67	0.0011073
3848.31	0.0009404
3857.96	0.0011686
3867.6	0.000693
3877.25	0.0008704
3886.89	0.0009202
3896.54	0.0009766
3906.18	0.0009306
3915.83	0.0013149
3925.47	0.0011937
3935.12	0.0011419
3944.76	0.0012538
3954.41	0.0011337
3964.05	0.0013205
3973.69	0.0009426
3983.34	0.000865
3992.98	0.0011481
