Infrared Spectrum: N-Carbethoxyphthalimide
Formula: C 11 H 9 N O 4
CAS: 22509-74-6
State: gas
Origin: EPA-IR VAPOR PHASE LIBRARY
1/CM	ABSORBANCE
549.8	0.001953
559.445	0.0010645
569.09	0.0010073
578.734	0.0003815
588.379	0.0004027
598.024	0.00030703
607.669	0.0004563
617.313	0.0003813
626.958	0.0008497
636.603	0.0007576
646.248	0.0010708
655.893	0.002923
665.537	0.010583
675.182	0.009523
684.827	0.003953
694.472	0.005423
704.116	0.011353
713.761	0.015273
723.406	0.009183
733.051	0.005043
742.695	0.005793
752.34	0.010473
761.985	0.009683
771.63	0.005353
781.275	0.003943
790.919	0.003123
800.564	0.002223
810.209	0.001853
819.854	0.001743
829.498	0.001903
839.143	0.001813
848.788	0.002113
858.433	0.003693
868.078	0.005733
877.722	0.010553
887.367	0.011393
897.012	0.005173
906.657	0.002633
916.301	0.002523
925.946	0.002853
935.591	0.003613
945.236	0.003353
954.88	0.002843
964.525	0.002383
974.17	0.002463
983.815	0.002923
993.46	0.004693
1003.1	0.009283
1012.75	0.013073
1022.39	0.018123
1032.04	0.013473
1041.68	0.007473
1051.33	0.006053
1060.97	0.006903
1070.62	0.009073
1080.26	0.011683
1089.91	0.014203
1099.55	0.019223
1109.2	0.019143
1118.84	0.012913
1128.49	0.009493
1138.13	0.010223
1147.78	0.020523
1157.42	0.019763
1167.07	0.019863
1176.71	0.028823
1186.36	0.017263
1196	0.015213
1205.64	0.023463
1215.29	0.042723
1224.93	0.074093
1234.58	0.089143
1244.22	0.060183
1253.87	0.037503
1263.51	0.024443
1273.16	0.022343
1282.8	0.030103
1292.45	0.052773
1302.09	0.092763
1311.74	0.098863
1321.38	0.052993
1331.03	0.040493
1340.67	0.038543
1350.32	0.026503
1359.96	0.020303
1369.61	0.020033
1379.25	0.011093
1388.9	0.006283
1398.54	0.005703
1408.18	0.004533
1417.83	0.004123
1427.47	0.003723
1437.12	0.003393
1446.76	0.003653
1456.41	0.004573
1466.05	0.006473
1475.7	0.006703
1485.34	0.004113
1494.99	0.003023
1504.63	0.002753
1514.28	0.002563
1523.92	0.002353
1533.57	0.002223
1543.21	0.002103
1552.86	0.001883
1562.5	0.001783
1572.15	0.001973
1581.79	0.002283
1591.44	0.002413
1601.08	0.002643
1610.73	0.003033
1620.37	0.002493
1630.01	0.002073
1639.66	0.001863
1649.3	0.001713
1658.95	0.001643
1668.59	0.001643
1678.24	0.001893
1687.88	0.002083
1697.53	0.002533
1707.17	0.003853
1716.82	0.006673
1726.46	0.013443
1736.11	0.031023
1745.75	0.051633
1755.4	0.045453
1765.04	0.044403
1774.69	0.068253
1784.33	0.088963
1793.98	0.063423
1803.62	0.036723
1813.27	0.047693
1822.91	0.062593
1832.55	0.029833
1842.2	0.013083
1851.84	0.007363
1861.49	0.004953
1871.13	0.003723
1880.78	0.002863
1890.42	0.002163
1900.07	0.001823
1909.71	0.001713
1919.36	0.001393
1929	0.001413
1938.65	0.001533
1948.29	0.001443
1957.94	0.0011497
1967.58	0.001263
1977.23	0.001343
1986.87	0.000936
1996.52	0.0008915
2006.16	0.0008263
2015.81	0.0008076
2025.45	0.0007457
2035.1	0.0006726
2044.74	0.0008256
2054.38	0.0007735
2064.03	0.0006702
2073.67	0.000735
2083.32	0.0008437
2092.96	0.0008437
2102.61	0.0007974
2112.25	0.0008062
2121.9	0.0007797
2131.54	0.0007559
2141.19	0.0007655
2150.83	0.0008889
2160.48	0.0009881
2170.12	0.0008775
2179.77	0.000921
2189.41	0.0009085
2199.06	0.0007424
2208.7	0.0007195
2218.35	0.000726
2227.99	0.0007726
2237.64	0.0007099
2247.28	0.000772
2256.92	0.0005804
2266.57	0.0006496
2276.21	0.0005485
2285.86	0.0006138
2295.5	0.0006628
2305.15	0.0008415
2314.79	0.0008728
2324.44	0.0008754
2334.08	0.0008963
2343.73	0.0007122
2353.37	0.000978
2363.02	0.0009442
2372.66	0.0009892
2382.31	0.0008482
2391.95	0.0008862
2401.6	0.000715
2411.24	0.0008683
2420.89	0.0008162
2430.53	0.0007478
2440.18	0.000575
2449.82	0.0006552
2459.47	0.0007173
2469.11	0.0005692
2478.75	0.0004729
2488.4	0.0005983
2498.04	0.0004502
2507.69	0.0004135
2517.33	0.0004847
2526.98	0.0006262
2536.62	0.0005306
2546.27	0.0006544
2555.91	0.0005219
2565.56	0.0004896
2575.2	0.0003371
2584.85	0.00027095
2594.49	0.00023933
2604.14	0.0004806
2613.78	0.0003988
2623.43	0.00022469
2633.07	0.0005435
2642.72	0.0004807
2652.36	0.0004591
2662.01	0.00041
2671.65	0.000372
2681.29	0.0007457
2690.94	0.0005336
2700.58	0.0003849
2710.23	0.0004015
2719.87	0.0004114
2729.52	0.00038
2739.16	0.00028186
2748.81	0.0003123
2758.45	0.0003529
2768.1	0.0003624
2777.74	0.0006697
2787.39	0.0006886
2797.03	0.0004812
2806.68	0.0006509
2816.32	0.0004407
2825.97	0.0003696
2835.61	0.0005725
2845.26	0.0007026
2854.9	0.0004708
2864.55	0.0007795
2874.19	0.0011047
2883.84	0.001513
2893.48	0.001603
2903.12	0.001793
2912.77	0.002253
2922.41	0.002353
2932.06	0.002653
2941.7	0.003863
2951.35	0.004063
2960.99	0.002843
2970.64	0.003783
2980.28	0.005613
2989.93	0.008723
2999.57	0.005573
3009.22	0.003893
3018.86	0.003003
3028.51	0.002093
3038.15	0.001503
3047.8	0.001733
3057.44	0.002363
3067.09	0.002373
3076.73	0.002253
3086.38	0.003363
3096.02	0.002543
3105.67	0.0011616
3115.31	0.0006255
3124.95	0.0005229
3134.6	0.0005391
3144.24	0.0003722
3153.89	0.0003738
3163.53	0.000478
3173.18	0.0004917
3182.82	0.0005023
3192.47	0.00030437
3202.11	0.000535
3211.76	0.0004677
3221.4	0.0006097
3231.05	0.0004848
3240.69	0.000481
3250.34	0.0003457
3259.98	0.0005149
3269.63	5.9e-05
3279.27	0.00025457
3288.92	0.00027099
3298.56	0.00025459
3308.21	0.0005433
3317.85	0.000230483
3327.49	0.0005314
3337.14	0.00026306
3346.78	0.0003562
3356.43	0.00032248
3366.07	0.0002557
3375.72	0.00035
3385.36	0.00025674
3395.01	0.0004251
3404.65	0.00021921
3414.3	0.0005658
3423.94	0.0004028
3433.59	0.00029144
3443.23	0.0005495
3452.88	0.000602
3462.52	0.0006435
3472.17	0.0005815
3481.81	0.000809
3491.46	0.0008797
3501.1	0.0009794
3510.75	0.0007953
3520.39	0.0009748
3530.04	0.0008007
3539.68	0.0010544
3549.32	0.0011236
3558.97	0.0009395
3568.61	0.0008904
3578.26	0.000887
3587.9	0.0007606
3597.55	0.0006419
3607.19	0.0007647
3616.84	0.0009091
3626.48	0.0006211
3636.13	0.0009501
3645.77	0.000752
3655.42	0.0006921
3665.06	0.0005431
3674.71	8.6e-05
3684.35	0.000354
3694	0.0004121
3703.64	0.0004927
3713.29	0.0002661
3722.93	0.0003755
3732.58	0.0006171
3742.22	0.0003257
3751.86	0.00025505
3761.51	0.0006331
3771.15	0.0005372
3780.8	0.0004253
3790.44	0.0006351
3800.09	0.0004582
3809.73	0.0004671
3819.38	0.0001521
3829.02	0.00027318
3838.67	0.00030784
3848.31	0.00033
3857.96	0.0003687
3867.6	0.0004198
3877.25	0.0005068
3886.89	0.0003772
3896.54	0.00029391
3906.18	0.000453
3915.83	0.0005174
3925.47	0.000222302
3935.12	0.00025913
3944.76	0.0003603
3954.41	0.0003451
3964.05	0.0004964
3973.69	0.0007716
3983.34	0.000591
3992.98	0.0003639
