Infrared Spectrum: Propionic acid, 3-mercapto-, ethylene ester
Formula: C8 H14 O4 S2
CAS: 22504-50-3
State: LIQUID (NEAT)
Class: COBLENTZ III
Instrument: DOW KBr FOREPRISM-GRATING
Instrument parameters: BLAZED AT 3.5, 12.0, 20.0 MICRON AND CHANGED AT 5.0, 7.5, 14.9 MICRON
Sampling: TRANSMISSION
Path length: CAPILLARY
Resolution: 2
Origin: DOW CHEMICAL COMPANY
1/CM	TRANSMITTANCE
471	0.7848
480	0.7846
489	0.7821
498	0.7786
507	0.778
516	0.7859
525	0.7983
534	0.8054
543	0.8095
552	0.8093
561	0.8018
570	0.7931
579	0.7868
588	0.7885
597	0.801
606	0.8121
615	0.8208
624	0.8249
633	0.8241
642	0.823
651	0.8208
660	0.8149
669	0.8022
678	0.7888
687	0.8091
696	0.8333
705	0.8363
714	0.835
723	0.8298
732	0.8228
741	0.8198
750	0.8168
759	0.8028
768	0.7927
777	0.7886
786	0.7897
795	0.7965
804	0.8056
813	0.809
822	0.8052
831	0.7962
840	0.7851
849	0.7706
858	0.755
867	0.7333
876	0.7063
885	0.7116
894	0.7385
903	0.7467
912	0.7464
921	0.736
930	0.7006
939	0.6773
948	0.6825
957	0.7096
966	0.7213
975	0.7209
984	0.7082
993	0.7022
1002	0.7099
1011	0.7325
1020	0.7166
1029	0.6831
1038	0.6466
1047	0.6103
1056	0.5319
1065	0.5218
1074	0.5758
1083	0.6628
1092	0.7353
1101	0.7682
1110	0.7567
1119	0.7056
1128	0.6002
1137	0.4446
1146	0.2212
1155	0.149
1164	0.1632
1173	0.2214
1182	0.227
1191	0.2027
1200	0.2107
1209	0.2629
1218	0.3101
1227	0.3116
1236	0.3035
1245	0.293
1254	0.2994
1263	0.3827
1272	0.492
1281	0.5083
1290	0.4897
1299	0.5371
1308	0.5913
1317	0.6953
1326	0.6689
1335	0.577
1344	0.4909
1353	0.4569
1362	0.4888
1371	0.5112
1380	0.4465
1389	0.5248
1398	0.5654
1407	0.5387
1416	0.5187
1425	0.5295
1434	0.5602
1443	0.567
1452	0.608
1461	0.6349
1470	0.7243
1479	0.7877
1488	0.8113
1497	0.8222
1506	0.8278
1515	0.8328
1524	0.8355
1533	0.8369
1542	0.8376
1551	0.8376
1560	0.8378
1569	0.8382
1578	0.8383
1587	0.8377
1596	0.8361
1605	0.8308
1614	0.82
1623	0.8118
1632	0.811
1641	0.8102
1650	0.8072
1659	0.7967
1668	0.7799
1677	0.7479
1686	0.6905
1695	0.6107
1704	0.5387
1713	0.4385
1722	0.2398
1731	0.0714
1740	0.0148
1749	0.0274
1758	0.2082
1767	0.548
1776	0.6712
1785	0.7328
1794	0.7643
1803	0.7833
1812	0.8007
1821	0.8112
1830	0.8199
1839	0.8258
1848	0.8312
1857	0.8358
1866	0.8399
1875	0.8425
1884	0.8433
1893	0.8442
1902	0.8458
1911	0.8452
1920	0.8465
1929	0.8484
1938	0.8506
1947	0.8514
1956	0.8499
1965	0.8588
1974	0.8466
1983	0.8471
1992	0.8479
2001	0.8485
2010	0.8482
2019	0.84
2028	0.8357
2037	0.8354
2046	0.8348
2055	0.8353
2064	0.8363
2073	0.8366
2082	0.8368
2091	0.8373
2100	0.8378
2109	0.8378
2118	0.8377
2127	0.8379
2136	0.838
2145	0.8375
2154	0.8363
2163	0.8354
2172	0.835
2181	0.8344
2190	0.834
2199	0.8334
2208	0.833
2217	0.8324
2226	0.832
2235	0.8314
2244	0.831
2253	0.8304
2262	0.83
2271	0.8294
2280	0.829
2289	0.8284
2298	0.8279
2307	0.8289
2316	0.8319
2325	0.8346
2334	0.8354
2343	0.835
2352	0.8347
2361	0.8346
2370	0.8348
2379	0.8344
2388	0.8341
2397	0.8338
2406	0.8333
2415	0.8328
2424	0.8324
2433	0.8309
2442	0.8293
2451	0.8276
2460	0.8265
2469	0.8257
2478	0.8248
2487	0.8238
2496	0.8199
2505	0.8156
2514	0.8108
2523	0.8054
2532	0.7975
2541	0.7899
2550	0.7818
2559	0.7706
2568	0.7563
2577	0.7429
2586	0.7489
2595	0.7741
2604	0.7912
2613	0.8091
2622	0.8121
2631	0.8127
2640	0.8127
2649	0.8128
2658	0.813
2667	0.8132
2676	0.8142
2685	0.8154
2694	0.8169
2703	0.8175
2712	0.8174
2721	0.817
2730	0.8165
2739	0.8157
2748	0.8149
2757	0.8138
2766	0.8128
2775	0.8118
2784	0.8108
2793	0.8093
2802	0.8075
2811	0.8044
2820	0.8008
2829	0.7956
2838	0.7896
2847	0.7819
2856	0.7743
2865	0.7654
2874	0.7548
2883	0.7429
2892	0.7292
2901	0.7167
2910	0.7024
2919	0.6845
2928	0.6619
2937	0.6388
2946	0.6138
2955	0.5873
2964	0.5922
2973	0.6287
2982	0.6622
2991	0.6872
3000	0.7099
3009	0.7304
3018	0.7444
3027	0.7584
3036	0.7692
3045	0.774
3054	0.7781
3063	0.7807
3072	0.7812
3081	0.7814
3090	0.7817
3099	0.7819
3108	0.782
3117	0.782
3126	0.7819
3135	0.7813
3144	0.7808
3153	0.7797
3162	0.7791
3171	0.7787
3180	0.7783
3189	0.7777
3198	0.7764
3207	0.7751
3216	0.7738
3225	0.7734
3234	0.7733
3243	0.773
3252	0.7729
3261	0.7726
3270	0.7728
3279	0.7731
3288	0.7735
3297	0.7738
3306	0.774
3315	0.7743
3324	0.7747
3333	0.775
3342	0.7753
3351	0.7756
3360	0.776
3369	0.7762
3378	0.7763
3387	0.7762
3396	0.775
3405	0.7721
3414	0.7693
3423	0.7666
3432	0.7635
3441	0.7602
3450	0.7577
3459	0.7554
3468	0.7571
3477	0.7605
3486	0.7622
3495	0.763
3504	0.7637
3513	0.7641
3522	0.7648
3531	0.7656
3540	0.768
3549	0.7719
3558	0.7803
3567	0.7911
3576	0.8016
3585	0.8123
3594	0.8229
3603	0.8304
3612	0.8348
3621	0.8382
3630	0.8416
3639	0.8453
3648	0.8499
3657	0.8547
3666	0.8597
3675	0.8654
3684	0.8697
3693	0.8718
3702	0.8726
3711	0.8732
3720	0.8732
3729	0.8732
3738	0.8735
3747	0.8739
3756	0.8742
3765	0.8739
3774	0.8736
3783	0.8732
3792	0.8729
3801	0.8738
