Infrared Spectrum: Pentafluorbenzoyl chloride
Formula: C 7 Cl F 5 O
CAS: 2251-50-5
State: gas
Origin: EPA-IR VAPOR PHASE LIBRARY
1/CM	ABSORBANCE
549.8	0.000574
559.445	0.0005819
569.09	0.0010698
578.734	0.003254
588.379	0.002914
598.024	0.0011001
607.669	0.0006422
617.313	0.0004492
626.958	0.000655
636.603	0.0010868
646.248	0.002064
655.893	0.005034
665.537	0.006904
675.182	0.003584
684.827	0.002254
694.472	0.003004
704.116	0.006024
713.761	0.017834
723.406	0.039254
733.051	0.017944
742.695	0.006454
752.34	0.012004
761.985	0.037024
771.63	0.049464
781.275	0.025094
790.919	0.022224
800.564	0.023424
810.209	0.020504
819.854	0.009094
829.498	0.006294
839.143	0.004484
848.788	0.002014
858.433	0.001228
868.078	0.0010715
877.722	0.0010229
887.367	0.0009155
897.012	0.0009607
906.657	0.0009242
916.301	0.0011579
925.946	0.001474
935.591	0.002384
945.236	0.003774
954.88	0.006984
964.525	0.014254
974.17	0.025504
983.815	0.038084
993.46	0.058934
1003.1	0.070784
1012.75	0.035984
1022.39	0.012634
1032.04	0.007344
1041.68	0.006064
1051.33	0.004514
1060.97	0.002834
1070.62	0.002974
1080.26	0.002624
1089.91	0.002604
1099.55	0.002834
1109.2	0.005114
1118.84	0.016824
1128.49	0.063664
1138.13	0.091424
1147.78	0.042924
1157.42	0.016904
1167.07	0.007154
1176.71	0.003894
1186.36	0.002384
1196	0.001814
1205.64	0.0010731
1215.29	0.0010439
1224.93	0.001334
1234.58	0.001594
1244.22	0.002234
1253.87	0.002214
1263.51	0.001724
1273.16	0.002104
1282.8	0.002334
1292.45	0.002444
1302.09	0.004594
1311.74	0.017104
1321.38	0.035634
1331.03	0.019504
1340.67	0.006554
1350.32	0.003634
1359.96	0.002474
1369.61	0.002804
1379.25	0.003234
1388.9	0.002794
1398.54	0.003554
1408.18	0.008034
1417.83	0.014984
1427.47	0.013554
1437.12	0.006764
1446.76	0.005234
1456.41	0.005614
1466.05	0.008444
1475.7	0.016134
1485.34	0.042884
1494.99	0.122704
1504.63	0.172824
1514.28	0.124834
1523.92	0.090214
1533.57	0.028864
1543.21	0.008824
1552.86	0.005104
1562.5	0.003724
1572.15	0.003154
1581.79	0.003404
1591.44	0.004444
1601.08	0.004934
1610.73	0.004354
1620.37	0.004954
1630.01	0.009194
1639.66	0.019584
1649.3	0.021804
1658.95	0.008034
1668.59	0.002824
1678.24	0.002104
1687.88	0.002124
1697.53	0.002674
1707.17	0.003314
1716.82	0.004324
1726.46	0.005214
1736.11	0.006154
1745.75	0.008474
1755.4	0.012364
1765.04	0.018454
1774.69	0.024404
1784.33	0.044054
1793.98	0.072344
1803.62	0.047344
1813.27	0.020404
1822.91	0.010984
1832.55	0.007104
1842.2	0.004414
1851.84	0.002994
1861.49	0.002784
1871.13	0.002014
1880.78	0.001354
1890.42	0.0010516
1900.07	0.000991
1909.71	0.0009649
1919.36	0.0008312
1929	0.0008741
1938.65	0.0009377
1948.29	0.0009556
1957.94	0.0011483
1967.58	0.0010547
1977.23	0.0008828
1986.87	0.0006868
1996.52	0.0005407
2006.16	0.0004998
2015.81	0.0005924
2025.45	0.0004998
2035.1	0.00039867
2044.74	0.00034476
2054.38	0.00034526
2064.03	0.00041
2073.67	0.0004708
2083.32	0.0005836
2092.96	0.0005541
2102.61	0.0005873
2112.25	0.0004725
2121.9	0.0005142
2131.54	0.0005126
2141.19	0.0004687
2150.83	0.0006115
2160.48	0.0006184
2170.12	0.00034776
2179.77	0.00032502
2189.41	0.00029789
2199.06	0.0003473
2208.7	0.0004609
2218.35	0.0004851
2227.99	0.0005963
2237.64	0.0005189
2247.28	0.00029977
2256.92	0.0004427
2266.57	0.0005403
2276.21	0.0005921
2285.86	0.0005605
2295.5	0.00039871
2305.15	0.0004395
2314.79	0.000432
2324.44	0.00039072
2334.08	0.0002617
2343.73	0.00030707
2353.37	0.00037043
2363.02	0.00035171
2372.66	0.000275
2382.31	0.00032778
2391.95	0.0005786
2401.6	0.0006427
2411.24	0.0008855
2420.89	0.0009347
2430.53	0.0008509
2440.18	0.0005813
2449.82	0.0006706
2459.47	0.0007968
2469.11	0.0010542
2478.75	0.001224
2488.4	0.0009765
2498.04	0.0009338
2507.69	0.0009636
2517.33	0.0008237
2526.98	0.0008013
2536.62	0.0006597
2546.27	0.0007182
2555.91	0.0006788
2565.56	0.0007044
2575.2	0.0006215
2584.85	0.0005466
2594.49	0.0004355
2604.14	0.0005224
2613.78	0.000646
2623.43	0.0006822
2633.07	0.0011602
2642.72	0.001384
2652.36	0.001504
2662.01	0.0012647
2671.65	0.0010844
2681.29	0.0008906
2690.94	0.0004885
2700.58	0.0004711
2710.23	0.0004703
2719.87	0.0004277
2729.52	0.0004923
2739.16	0.00058
2748.81	0.0005818
2758.45	0.000592
2768.1	0.0005487
2777.74	0.0007423
2787.39	0.0006476
2797.03	0.0005816
2806.68	0.00040143
2816.32	0.0005218
2825.97	0.0004485
2835.61	0.00039072
2845.26	0.0004709
2854.9	0.0005396
2864.55	0.0005224
2874.19	0.0004469
2883.84	0.0004892
2893.48	0.0005935
2903.12	0.000691
2912.77	0.0008405
2922.41	0.0009455
2932.06	0.0009718
2941.7	0.0009376
2951.35	0.0008189
2960.99	0.0007603
2970.64	0.0007509
2980.28	0.0005223
2989.93	0.000507
2999.57	0.0005104
3009.22	0.0006061
3018.86	0.0006698
3028.51	0.0006622
3038.15	0.0008178
3047.8	0.0008247
3057.44	0.0005831
3067.09	0.0005023
3076.73	0.0006382
3086.38	0.0004955
3096.02	0.0006647
3105.67	0.0006908
3115.31	0.0007967
3124.95	0.0006088
3134.6	0.0007955
3144.24	0.00051
3153.89	0.0006453
3163.53	0.000696
3173.18	0.000578
3182.82	0.0005777
3192.47	0.000568
3202.11	0.0006474
3211.76	0.0006494
3221.4	0.0005786
3231.05	0.0005231
3240.69	0.0005972
3250.34	0.0004123
3259.98	0.0006352
3269.63	0.0005925
3279.27	0.0007553
3288.92	0.0008091
3298.56	0.0006734
3308.21	0.0006755
3317.85	0.0005573
3327.49	0.0006468
3337.14	0.0004391
3346.78	0.0007268
3356.43	0.0008243
3366.07	0.0007858
3375.72	0.0005201
3385.36	0.0007195
3395.01	0.0005728
3404.65	0.0006757
3414.3	0.0005547
3423.94	0.0008417
3433.59	0.0006702
3443.23	0.0006963
3452.88	0.0008582
3462.52	0.0007688
3472.17	0.0008079
3481.81	0.0008508
3491.46	0.0007014
3501.1	0.0009607
3510.75	0.0008973
3520.39	0.0011749
3530.04	0.0010678
3539.68	0.001444
3549.32	0.001504
3558.97	0.001384
3568.61	0.001524
3578.26	0.001404
3587.9	0.0011262
3597.55	0.0010462
3607.19	0.0008876
3616.84	0.0009794
3626.48	0.0008019
3636.13	0.0007147
3645.77	0.000659
3655.42	0.0006717
3665.06	0.0009119
3674.71	0.0007931
3684.35	0.0007472
3694	0.0005518
3703.64	0.0006021
3713.29	0.0006657
3722.93	0.0007968
3732.58	0.0007068
3742.22	0.0006211
3751.86	0.0007426
3761.51	0.0007869
3771.15	0.0008684
3780.8	0.0007048
3790.44	0.0004795
3800.09	0.0005462
3809.73	0.0008179
3819.38	0.0006822
3829.02	0.000667
3838.67	0.0006414
3848.31	0.0007068
3857.96	0.0007896
3867.6	0.0006629
3877.25	0.0006622
3886.89	0.000766
3896.54	0.0007976
3906.18	0.0008148
3915.83	0.0005456
3925.47	0.0006195
3935.12	0.0007684
3944.76	0.0004912
3954.41	0.0007963
3964.05	0.0005808
3973.69	0.0005826
3983.34	0.0009336
3992.98	0.0010065
