Infrared Spectrum: 3-Trifluoromethylbenzoyl chloride
Formula: C 8 H 4 Cl F 3 O
CAS: 2251-65-2
State: gas
Origin: EPA-IR VAPOR PHASE LIBRARY
1/CM	ABSORBANCE
549.8	0.00305
559.445	0.00312
569.09	0.00403
578.735	0.00553
588.38	0.00696
598.025	0.00729
607.67	0.00616
617.315	0.00538
626.96	0.00652
636.605	0.01238
646.251	0.02633
655.896	0.0256
665.541	0.01737
675.186	0.06202
684.831	0.16609
694.476	0.14736
704.121	0.09901
713.766	0.02006
723.411	0.00985
733.056	0.00828
742.701	0.00689
752.346	0.0076
761.991	0.03106
771.636	0.06151
781.281	0.04221
790.926	0.06954
800.571	0.06422
810.216	0.04672
819.861	0.01842
829.507	0.00703
839.152	0.00544
848.797	0.00533
858.442	0.0065
868.087	0.00874
877.732	0.01326
887.377	0.02076
897.022	0.03772
906.667	0.08463
916.312	0.12151
925.957	0.08497
935.602	0.06547
945.247	0.04608
954.892	0.022
964.537	0.01157
974.182	0.00765
983.827	0.00527
993.472	0.00473
1003.12	0.005
1012.76	0.00516
1022.41	0.00504
1032.05	0.00513
1041.7	0.00603
1051.34	0.01001
1060.99	0.0289
1070.63	0.07343
1080.28	0.07818
1089.92	0.05316
1099.57	0.0426
1109.21	0.02903
1118.86	0.03314
1128.5	0.05193
1138.15	0.12132
1147.79	0.28982
1157.44	0.40273
1167.08	0.41739
1176.73	0.5393
1186.37	0.48706
1196.02	0.1858
1205.66	0.07862
1215.31	0.04635
1224.95	0.0311
1234.6	0.02311
1244.24	0.01731
1253.89	0.01389
1263.53	0.01546
1273.18	0.02081
1282.82	0.03072
1292.47	0.04023
1302.11	0.05693
1311.76	0.08722
1321.4	0.23439
1331.05	0.37447
1340.69	0.11368
1350.34	0.02297
1359.98	0.01151
1369.63	0.00811
1379.27	0.00718
1388.92	0.00718
1398.56	0.00668
1408.21	0.00678
1417.85	0.00864
1427.5	0.01395
1437.14	0.02545
1446.79	0.02004
1456.43	0.00584
1466.08	0.00395
1475.73	0.00419
1485.37	0.00518
1495.02	0.00539
1504.66	0.00373
1514.31	0.0025332
1523.95	0.0021061
1533.6	0.0020941
1543.24	0.002256
1552.89	0.0023931
1562.53	0.0027826
1572.18	0.00372
1581.82	0.00712
1591.47	0.01061
1601.11	0.01404
1610.76	0.02065
1620.4	0.01493
1630.05	0.00736
1639.69	0.0048
1649.34	0.0041
1658.98	0.0041
1668.63	0.00463
1678.27	0.00543
1687.92	0.00666
1697.56	0.00845
1707.21	0.00978
1716.85	0.00902
1726.5	0.01081
1736.14	0.01926
1745.79	0.02837
1755.43	0.03987
1765.08	0.10707
1774.72	0.25276
1784.37	0.19975
1794.01	0.06886
1803.66	0.03455
1813.3	0.03505
1822.95	0.02777
1832.59	0.02035
1842.24	0.01319
1851.88	0.00897
1861.53	0.00755
1871.17	0.00697
1880.82	0.0065
1890.46	0.00517
1900.11	0.00471
1909.75	0.00517
1919.4	0.00527
1929.04	0.0036
1938.69	0.002644
1948.33	0.0025806
1957.98	0.00307
1967.62	0.00343
1977.27	0.0027017
1986.91	0.0017931
1996.56	0.001613
2006.2	0.001477
2015.85	0.001333
2025.49	0.001273
2035.14	0.001264
2044.78	0.001223
2054.43	0.001258
2064.07	0.001418
2073.72	0.001598
2083.36	0.00194133
2093.01	0.0022995
2102.65	0.0023138
2112.3	0.0019727
2121.94	0.00194271
2131.59	0.001562
2141.23	0.001425
2150.88	0.00125
2160.52	0.001177
2170.17	0.001193
2179.81	0.00119
2189.46	0.001318
2199.1	0.001476
2208.75	0.001655
2218.39	0.001678
2228.04	0.00192456
2237.68	0.0020073
2247.33	0.0021596
2256.97	0.0021033
2266.62	0.002097
2276.26	0.0021112
2285.91	0.0021314
2295.55	0.0021252
2305.2	0.00187075
2314.84	0.001756
2324.49	0.0018158
2334.13	0.0021687
2343.78	0.0026157
2353.42	0.00299
2363.07	0.0027008
2372.72	0.0022728
2382.36	0.0018321
2392.01	0.00157
2401.65	0.001445
2411.3	0.001239
2420.94	0.001121
2430.59	0.001078
2440.23	0.000993
2449.88	0.00104
2459.52	0.001171
2469.17	0.001363
2478.81	0.001347
2488.46	0.001387
2498.1	0.001319
2507.75	0.00139
2517.39	0.001274
2527.04	0.001018
2536.68	0.000967
2546.33	0.001027
2555.97	0.000897
2565.62	0.00086
2575.26	0.000974
2584.91	0.000951
2594.55	0.000944
2604.2	0.001082
2613.84	0.001202
2623.49	0.001051
2633.13	0.000875
2642.78	0.00085
2652.42	0.001015
2662.07	0.000934
2671.71	0.00077
2681.36	0.00081
2691	0.00072
2700.65	0.00073
2710.29	0.00081
2719.94	0.00084
2729.58	0.0008
2739.23	0.00067
2748.87	0.000877
2758.52	0.000974
2768.16	0.001014
2777.81	0.001088
2787.45	0.000984
2797.1	0.000965
2806.74	0.00072
2816.39	0.0006
2826.03	0.0005
2835.68	0.0003
2845.32	0.00035
2854.97	0.00032
2864.61	0.00044
2874.26	0.00044
2883.9	0.00039
2893.55	0.00058
2903.19	0.0007
2912.84	0.00072
2922.48	0.000958
2932.13	0.00119
2941.77	0.001278
2951.42	0.001216
2961.06	0.001048
2970.71	0.00086
2980.35	0.00066
2990	0.00051
2999.64	0.00036
3009.29	0.00043
3018.93	0.00043
3028.58	0.00046
3038.22	0.00062
3047.87	0.001111
3057.51	0.001675
3067.16	0.0027048
3076.8	0.00644
3086.45	0.00906
3096.09	0.0051
3105.74	0.001562
3115.38	0.0007
3125.03	0.0004
3134.67	0.0001
3144.32	0.00025
3153.96	1e-05
3163.61	3e-05
3173.25	0.00023
3182.9	0.00022
3192.54	0.00037
3202.19	0.00025
3211.83	0.00046
3221.48	0.00037
3231.12	0.00011
3240.77	0.00028
3250.41	0.00011
3260.06	0.00015
3269.7	9e-05
3279.35	0.00017
3289	0.00018
3298.64	0.00012
3308.29	0
3317.93	8e-05
3327.58	0.00014
3337.22	0.00019
3346.87	0.00025
3356.51	0.0003
3366.16	0.00029
3375.8	0.00039
3385.45	0.00036
3395.09	0.00044
3404.74	0.00029
3414.38	0.0003
3424.03	0.00047
3433.67	0.00046
3443.32	0.0002
3452.96	0.00046
3462.61	0.00055
3472.25	0.00048
3481.9	0.0007
3491.54	0.00076
3501.19	0.00085
3510.83	0.001454
3520.48	0.0023715
3530.12	0.00366
3539.77	0.00352
3549.41	0.0021123
3559.06	0.001263
3568.7	0.001139
3578.35	0.001049
3587.99	0.00082
3597.64	0.0006
3607.28	0.0005
3616.93	0.00047
3626.57	0.00057
3636.22	0.00045
3645.86	0.00047
3655.51	0.00045
3665.15	0.00049
3674.8	0.00056
3684.44	0.00058
3694.09	0.00049
3703.73	0.00042
3713.38	0.00054
3723.02	0.00046
3732.67	0.0005
3742.31	0.00047
3751.96	0.00039
3761.6	0.00069
3771.25	0.00051
3780.89	0.00051
3790.54	0.00041
3800.18	0.00047
3809.83	0.0006
3819.47	0.00044
3829.12	0.00049
3838.76	0.00062
3848.41	0.00057
3858.05	0.00066
3867.7	0.00051
3877.34	0.0003
3886.99	0.00048
3896.63	0.0004
3906.28	0.0004
3915.92	0.00033
3925.57	0.0004
3935.21	0.00042
3944.86	0.00033
3954.5	0.00051
3964.15	0.00053
3973.79	0.00059
3983.44	0.00062
3993.08	0.0005
