Infrared Spectrum: 3-(Trifluoromethoxy)bromobenzene
Formula: C 7 H 4 Br F 3 O
CAS: 2252-44-0
State: gas
Origin: EPA-IR VAPOR PHASE LIBRARY
1/CM	ABSORBANCE
549.8	0.00143619
559.445	0.0012917
569.09	0.0016217
578.734	0.000595
588.379	0.00137528
598.024	0.0022986
607.669	0.00366
617.313	0.00683
626.958	0.01867
636.603	0.01896
646.248	0.00976
655.893	0.01573
665.537	0.02934
675.182	0.0406
684.827	0.02869
694.472	0.0174
704.116	0.02136
713.761	0.02282
723.406	0.0131
733.051	0.00744
742.695	0.00565
752.34	0.0065
761.985	0.01431
771.63	0.03553
781.275	0.04755
790.919	0.02231
800.564	0.00915
810.209	0.01103
819.854	0.02372
829.498	0.04838
839.143	0.03161
848.788	0.01127
858.433	0.01043
868.078	0.01809
877.722	0.01755
887.367	0.00958
897.012	0.0066
906.657	0.00526
916.301	0.00542
925.946	0.01108
935.591	0.02509
945.236	0.02035
954.88	0.00785
964.525	0.00482
974.17	0.00481
983.815	0.006
993.46	0.00917
1003.1	0.01079
1012.75	0.00629
1022.39	0.00547
1032.04	0.00472
1041.68	0.00573
1051.33	0.01165
1060.97	0.02764
1070.62	0.02995
1080.26	0.02153
1089.91	0.0184
1099.55	0.01142
1109.2	0.01265
1118.84	0.01388
1128.49	0.01713
1138.13	0.0194
1147.78	0.03302
1157.42	0.06469
1167.07	0.12106
1176.71	0.23067
1186.36	0.40129
1196	0.46331
1205.64	0.43842
1215.29	0.57825
1224.93	0.64104
1234.58	0.4034
1244.22	0.33989
1253.87	0.52349
1263.51	0.77352
1273.16	0.75051
1282.8	0.47402
1292.45	0.19177
1302.09	0.08055
1311.74	0.04406
1321.38	0.02904
1331.03	0.02393
1340.67	0.01869
1350.32	0.01181
1359.96	0.00864
1369.61	0.00834
1379.25	0.00921
1388.9	0.01025
1398.54	0.01164
1408.18	0.01373
1417.83	0.02255
1427.47	0.03609
1437.12	0.02903
1446.76	0.01797
1456.41	0.02418
1466.05	0.06866
1475.7	0.1325
1485.34	0.03598
1494.99	0.01195
1504.63	0.00931
1514.28	0.00954
1523.92	0.00987
1533.57	0.00882
1543.21	0.01169
1552.86	0.01666
1562.5	0.02765
1572.15	0.05916
1581.79	0.1382
1591.44	0.1309
1601.08	0.03592
1610.73	0.01628
1620.37	0.01018
1630.01	0.0076
1639.66	0.00651
1649.3	0.00618
1658.95	0.00461
1668.59	0.00432
1678.24	0.00394
1687.88	0.00272
1697.53	0.00283
1707.17	0.00315
1716.82	0.00329
1726.46	0.00326
1736.11	0.00379
1745.75	0.00386
1755.4	0.0039
1765.04	0.00472
1774.69	0.00482
1784.33	0.00392
1793.98	0.00333
1803.62	0.00286
1813.27	0.00245
1822.91	0.0023485
1832.55	0.00291
1842.2	0.00317
1851.84	0.00386
1861.49	0.00421
1871.13	0.00288
1880.78	0.00245
1890.42	0.0023145
1900.07	0.0021864
1909.71	0.00243
1919.36	0.00362
1929	0.00479
1938.65	0.00347
1948.29	0.0020387
1957.94	0.00143621
1967.58	0.0017569
1977.23	0.0017115
1986.87	0.0017709
1996.52	0.0021584
2006.16	0.00236
2015.81	0.00321
2025.45	0.00388
2035.1	0.00497
2044.74	0.005
2054.38	0.00417
2064.03	0.00328
2073.67	0.00281
2083.32	0.00323
2092.96	0.00355
2102.61	0.00383
2112.25	0.00321
2121.9	0.00273
2131.54	0.00273
2141.19	0.00258
2150.83	0.00303
2160.48	0.0032
2170.12	0.0023582
2179.77	0.0020434
2189.41	0.0019981
2199.06	0.0019858
2208.7	0.0019951
2218.35	0.0018532
2227.99	0.00138096
2237.64	0.0012682
2247.28	0.00143067
2256.92	0.001219
2266.57	0.001218
2276.21	0.0013494
2285.86	0.0012923
2295.5	0.00140158
2305.15	0.0016636
2314.79	0.0020268
2324.44	0.0022528
2334.08	0.0019745
2343.73	0.0022992
2353.37	0.0023162
2363.02	0.0023295
2372.66	0.0022023
2382.31	0.00277
2391.95	0.00287
2401.6	0.00383
2411.24	0.00458
2420.89	0.00514
2430.53	0.00632
2440.18	0.0064
2449.82	0.00576
2459.47	0.0048
2469.11	0.00443
2478.75	0.00499
2488.4	0.00448
2498.04	0.00405
2507.69	0.00402
2517.33	0.00346
2526.98	0.00329
2536.62	0.0025
2546.27	0.0020978
2555.91	0.0018507
2565.56	0.001551
2575.2	0.0019687
2584.85	0.001138
2594.49	0.0012885
2604.14	0.000968
2613.78	0.000882
2623.43	0.000856
2633.07	0.000997
2642.72	0.001094
2652.36	0.000877
2662.01	0.001112
2671.65	0.00142342
2681.29	0.0013358
2690.94	0.001235
2700.58	0.000861
2710.23	0.000628
2719.87	0.000981
2729.52	0.001021
2739.16	0.001225
2748.81	0.001246
2758.45	0.0014637
2768.1	0.000974
2777.74	0.001049
2787.39	0.0014266
2797.03	0.00140037
2806.68	0.0012831
2816.32	0.000912
2825.97	0.0013123
2835.61	0.00123
2845.26	0.0012781
2854.9	0.00096
2864.55	0.000849
2874.19	0.0013219
2883.84	0.001068
2893.48	0.001201
2903.12	0.001224
2912.77	0.000785
2922.41	0.000863
2932.06	0.000834
2941.7	0.0013567
2951.35	0.001141
2960.99	0.00073
2970.64	0.000585
2980.28	0.000431
2989.93	0.000429
2999.57	0.000709
3009.22	0.001219
3018.86	0.001016
3028.51	0.0021085
3038.15	0.0023578
3047.8	0.002312
3057.44	0.00267
3067.09	0.00497
3076.73	0.00926
3086.38	0.00925
3096.02	0.00481
3105.67	0.0018643
3115.31	0.000844
3124.95	0.00135056
3134.6	0.00068
3144.24	0.000848
3153.89	0.001092
3163.53	0.000689
3173.18	0.001248
3182.82	0.001024
3192.47	0.00135977
3202.11	0.001063
3211.76	0.00119
3221.4	0.000568
3231.05	0.000615
3240.69	0.00084
3250.34	0.000731
3259.98	0.000548
3269.63	0.00093
3279.27	0.000732
3288.92	0.000573
3298.56	0.000551
3308.21	0.000765
3317.85	0.000493
3327.49	0.000961
3337.14	0.000928
3346.78	0.000739
3356.43	0.001244
3366.07	0.000986
3375.72	0.001061
3385.36	0.000968
3395.01	0.000654
3404.65	0.000886
3414.3	0.000839
3423.94	0.000451
3433.59	0.000669
3443.23	0.000501
3452.88	0.000471
3462.52	0.000947
3472.17	0.00111
3481.81	0.001155
3491.46	0.000711
3501.1	0.000535
3510.75	0.000976
3520.39	0.000886
3530.04	0.00028
3539.68	0.00031
3549.32	0.0013203
3558.97	0.000815
3568.61	0.000582
3578.26	0.001062
3587.9	0.001127
3597.55	0.000835
3607.19	0.001147
3616.84	0.001199
3626.48	0.00062
3636.13	0.000495
3645.77	0.000794
3655.42	0.000815
3665.06	0.0017785
3674.71	0.001091
3684.35	0.001178
3694	0.000937
3703.64	0.001187
3713.29	0.001174
3722.93	0.000606
3732.58	0.000703
3742.22	0.001147
3751.86	0.0016654
3761.51	0.0003
3771.15	0.000765
3780.8	0.000915
3790.44	0.001101
3800.09	0.00098
3809.73	0.000613
3819.38	0.000813
3829.02	0.001195
3838.67	0.000966
3848.31	0.000814
3857.96	0.001023
3867.6	0.000953
3877.25	0.000893
3886.89	0.00125
3896.54	0.00011
3906.18	0.000895
3915.83	0.000986
3925.47	0.000912
3935.12	0.001052
3944.76	0.000562
3954.41	0.00032
3964.05	0.000804
3973.69	0.001097
3983.34	0.000504
3992.98	0.000698
