Infrared Spectrum: N-(4-Fluorophenyl)piperazine
Formula: C 10 H 13 F N 2
CAS: 2252-63-3
State: gas
Origin: EPA-IR VAPOR PHASE LIBRARY
1/CM	ABSORBANCE
549.9	0.01252
559.547	0.01073
569.193	0.01277
578.84	0.01467
588.486	0.01735
598.133	0.01502
607.779	0.006
617.426	0.00419
627.072	0.0039
636.719	0.00434
646.365	0.00525
656.012	0.00656
665.658	0.0086
675.305	0.01041
684.951	0.01305
694.598	0.01916
704.245	0.03081
713.891	0.03601
723.538	0.02937
733.184	0.033
742.831	0.04456
752.477	0.06325
762.124	0.07385
771.77	0.05192
781.417	0.02907
791.063	0.0228
800.71	0.03087
810.356	0.07248
820.003	0.10117
829.649	0.09078
839.296	0.05877
848.943	0.02325
858.589	0.01355
868.236	0.01431
877.882	0.01222
887.529	0.00948
897.175	0.00982
906.822	0.01314
916.468	0.02024
926.115	0.03752
935.761	0.0482
945.408	0.02612
955.054	0.00852
964.701	0.0045
974.347	0.00324
983.994	0.00295
993.64	0.00336
1003.29	0.00649
1012.93	0.00876
1022.58	0.00827
1032.23	0.00904
1041.87	0.01131
1051.52	0.01523
1061.17	0.01347
1070.81	0.00921
1080.46	0.0084
1090.11	0.01145
1099.75	0.01783
1109.4	0.02459
1119.05	0.03125
1128.69	0.04324
1138.34	0.05073
1147.99	0.04984
1157.63	0.05696
1167.28	0.03756
1176.92	0.02631
1186.57	0.03309
1196.22	0.05421
1205.86	0.08722
1215.51	0.14851
1225.16	0.2505
1234.8	0.26002
1244.45	0.1299
1254.1	0.05599
1263.74	0.03493
1273.39	0.02733
1283.04	0.02314
1292.68	0.01743
1302.33	0.01771
1311.98	0.02457
1321.62	0.03721
1331.27	0.04229
1340.92	0.03179
1350.56	0.02165
1360.21	0.01953
1369.86	0.03018
1379.5	0.0335
1389.15	0.01759
1398.79	0.01125
1408.44	0.00936
1418.09	0.01031
1427.73	0.01535
1437.38	0.02877
1447.03	0.05
1456.67	0.06434
1466.32	0.036
1475.97	0.02415
1485.61	0.04032
1495.26	0.11133
1504.91	0.34242
1514.55	0.41781
1524.2	0.11284
1533.85	0.03582
1543.49	0.02002
1553.14	0.01401
1562.79	0.01077
1572.43	0.0089
1582.08	0.00792
1591.73	0.00831
1601.37	0.00879
1611.02	0.00848
1620.67	0.00786
1630.31	0.00675
1639.96	0.00574
1649.6	0.00526
1659.25	0.00422
1668.9	0.0035
1678.54	0.00304
1688.19	0.0027335
1697.84	0.00277
1707.48	0.00296
1717.13	0.00371
1726.78	0.00409
1736.42	0.00332
1746.07	0.0020788
1755.72	0.001616
1765.36	0.001507
1775.01	0.001537
1784.66	0.0017169
1794.3	0.0017264
1803.95	0.0019236
1813.6	0.002736
1823.24	0.00356
1832.89	0.00403
1842.54	0.00497
1852.18	0.00547
1861.83	0.00492
1871.47	0.00398
1881.12	0.00327
1890.77	0.0025954
1900.41	0.0022485
1910.06	0.002351
1919.71	0.0024127
1929.35	0.002355
1939	0.0023619
1948.65	0.0021217
1958.29	0.001875
1967.94	0.0018659
1977.59	0.00178734
1987.23	0.0018808
1996.88	0.0018791
2006.53	0.0017206
2016.17	0.0018799
2025.82	0.0023333
2035.47	0.00311
2045.11	0.00392
2054.76	0.00334
2064.41	0.0024307
2074.05	0.0020352
2083.7	0.00177382
2093.35	0.001499
2102.99	0.001139
2112.64	0.000974
2122.28	0.000768
2131.93	0.000777
2141.58	0.000808
2151.22	0.000873
2160.87	0.000933
2170.52	0.000823
2180.16	0.00076
2189.81	0.000766
2199.46	0.000813
2209.1	0.000877
2218.75	0.000912
2228.4	0.000959
2238.04	0.001191
2247.69	0.001331
2257.34	0.00143
2266.98	0.001543
2276.63	0.001629
2286.28	0.0016605
2295.92	0.00181889
2305.57	0.002031
2315.22	0.0023307
2324.86	0.0023957
2334.51	0.0020529
2344.16	0.0016783
2353.8	0.0017426
2363.45	0.00182448
2373.09	0.0019874
2382.74	0.0021119
2392.39	0.002131
2402.03	0.0017469
2411.68	0.0015
2421.33	0.0017477
2430.97	0.0020245
2440.62	0.002326
2450.27	0.0025383
2459.91	0.00293
2469.56	0.00278
2479.21	0.0021953
2488.85	0.00177639
2498.5	0.00183358
2508.15	0.0019098
2517.79	0.0019942
2527.44	0.0021203
2537.09	0.0022817
2546.73	0.00233
2556.38	0.0025581
2566.03	0.00289
2575.67	0.00301
2585.32	0.00309
2594.96	0.00297
2604.61	0.00293
2614.26	0.00303
2623.9	0.00343
2633.55	0.00412
2643.2	0.00507
2652.84	0.00625
2662.49	0.0079
2672.14	0.00937
2681.78	0.00998
2691.43	0.00978
2701.08	0.00944
2710.72	0.00957
2720.37	0.01123
2730.02	0.01497
2739.66	0.01915
2749.31	0.02082
2758.96	0.02012
2768.6	0.02138
2778.25	0.0285
2787.9	0.04325
2797.54	0.06282
2807.19	0.07459
2816.84	0.08236
2826.48	0.09979
2836.13	0.0983
2845.77	0.06892
2855.42	0.04522
2865.07	0.03567
2874.71	0.03221
2884.36	0.0325
2894.01	0.03537
2903.65	0.0391
2913.3	0.04588
2922.95	0.053
2932.59	0.05815
2942.24	0.08961
2951.89	0.13649
2961.53	0.09722
2971.18	0.0502
2980.83	0.02804
2990.47	0.01493
3000.12	0.00892
3009.77	0.00623
3019.41	0.00474
3029.06	0.0043
3038.71	0.00645
3048.35	0.01454
3058	0.02131
3067.64	0.01389
3077.29	0.00955
3086.94	0.00718
3096.58	0.00582
3106.23	0.00561
3115.88	0.00511
3125.52	0.00367
3135.17	0.0019855
3144.82	0.001153
3154.46	0.00074
3164.11	0.00069
3173.76	0.00049
3183.4	0.00046
3193.05	0.00061
3202.7	0.00055
3212.34	0.00052
3221.99	0.00053
3231.64	0.00019
3241.28	0.00028
3250.93	1e-05
3260.58	0.00023
3270.22	0.00024
3279.87	0.00019
3289.52	0.00013
3299.16	0.00023
3308.81	0.00049
3318.45	0.00042
3328.1	0.000844
3337.75	0.000782
3347.39	0.00035
3357.04	0.00048
3366.69	0.00038
3376.33	0.00049
3385.98	0.00047
3395.63	0.00044
3405.27	0.00041
3414.92	0.00048
3424.57	0.00064
3434.21	0.0007
3443.86	0.00053
3453.51	0.0004
3463.15	0.00029
3472.8	0.00048
3482.45	0.0004
3492.09	0.00044
3501.74	0.00053
3511.39	0.00045
3521.03	0.00072
3530.68	0.00059
3540.33	0.00062
3549.97	0.00068
3559.62	0.00053
3569.26	0.00045
3578.91	0.0004
3588.56	0.00061
3598.2	0.00062
3607.85	0.00058
3617.5	0.0007
3627.14	0.0007
3636.79	0.00063
3646.44	0.000885
3656.08	0.000791
3665.73	0.00081
3675.38	0.000937
3685.02	0.000764
3694.67	0.000988
3704.32	0.000994
3713.96	0.000953
3723.61	0.000909
3733.26	0.000926
3742.9	0.001082
3752.55	0.000895
3762.2	0.000834
3771.84	0.000882
3781.49	0.000797
3791.13	0.001007
3800.78	0.000964
3810.43	0.000945
3820.07	0.000819
3829.72	0.00087
3839.37	0.001064
3849.01	0.001272
3858.66	0.001051
3868.31	0.001171
3877.95	0.001193
3887.6	0.001262
3897.25	0.00123
3906.89	0.001169
3916.54	0.001127
3926.19	0.001226
3935.83	0.001305
3945.48	0.001318
3955.13	0.001366
3964.77	0.001362
3974.42	0.001521
3984.07	0.001414
3993.71	0.001526
