Infrared Spectrum: 2-Chloro-4-fluorobenzoic acid
Formula: C 7 H 4 Cl F O 2
CAS: 2252-51-9
State: gas
Origin: EPA-IR VAPOR PHASE LIBRARY
1/CM	ABSORBANCE
549.9	0.001716
559.547	0.002246
569.193	0.002766
578.84	0.003826
588.486	0.003636
598.133	0.001876
607.779	0.0009884
617.426	0.0007338
627.072	0.00056618
636.719	0.00050142
646.365	0.0004182
656.012	0.0003908
665.658	0.00039
675.305	0.0006771
684.951	0.0011448
694.598	0.0012203
704.245	0.0008438
713.891	0.0006013
723.538	0.0008527
733.184	0.0008281
742.831	0.00052161
752.477	0.0006064
762.124	0.001142
771.77	0.001646
781.417	0.0011682
791.063	0.0007996
800.71	0.0007129
810.356	0.0006925
820.003	0.0007728
829.649	0.0008619
839.296	0.0006242
848.943	0.0007711
858.589	0.001576
868.236	0.002396
877.882	0.0013279
887.529	0.0008816
897.175	0.0012883
906.822	0.003116
916.468	0.003386
926.115	0.0012556
935.761	0.00057215
945.408	0.0004239
955.054	0.0004076
964.701	0.000379
974.347	0.0003951
983.994	0.000368
993.64	0.0004259
1003.29	0.00049893
1012.93	0.0007154
1022.58	0.0012309
1032.23	0.002286
1041.87	0.002496
1051.52	0.001526
1061.17	0.0014266
1070.81	0.002086
1080.46	0.004276
1090.11	0.006646
1099.75	0.005646
1109.4	0.002926
1119.05	0.001836
1128.69	0.001656
1138.34	0.001506
1147.99	0.0014391
1157.63	0.001836
1167.28	0.003116
1176.92	0.004716
1186.57	0.004316
1196.22	0.002506
1205.86	0.002666
1215.51	0.004696
1225.16	0.004716
1234.8	0.002416
1244.45	0.001906
1254.1	0.002706
1263.74	0.003196
1273.39	0.002206
1283.04	0.001716
1292.68	0.001986
1302.33	0.001926
1311.98	0.002266
1321.62	0.002716
1331.27	0.002556
1340.92	0.002096
1350.56	0.001786
1360.21	0.001806
1369.86	0.001606
1379.5	0.001576
1389.15	0.001976
1398.79	0.002196
1408.44	0.0014795
1418.09	0.0010354
1427.73	0.0006241
1437.38	0.0007748
1447.03	0.0007017
1456.67	0.00113
1466.32	0.0009691
1475.97	0.001516
1485.61	0.002836
1495.26	0.002956
1504.91	0.001422
1514.55	0.0008266
1524.2	0.0007249
1533.85	0.0007421
1543.49	0.0008748
1553.14	0.0009546
1562.79	0.0013859
1572.43	0.002506
1582.08	0.003656
1591.73	0.005156
1601.37	0.006666
1611.02	0.004246
1620.67	0.001496
1630.31	0.0008473
1639.96	0.0006848
1649.6	0.0006584
1659.25	0.0006207
1668.9	0.0006644
1678.54	0.00054486
1688.19	0.0006123
1697.84	0.0007616
1707.48	0.0008459
1717.13	0.0014229
1726.78	0.001796
1736.42	0.002986
1746.07	0.005516
1755.72	0.007526
1765.36	0.008146
1775.01	0.008386
1784.66	0.005256
1794.3	0.002686
1803.95	0.001816
1813.6	0.0009953
1823.24	0.0006365
1832.89	0.00049856
1842.54	0.0004527
1852.18	0.000352
1861.83	0.000358
1871.47	0.000365
1881.12	0.000366
1890.77	0.0004229
1900.41	0.000436
1910.06	0.0004401
1919.71	0.0003964
1929.35	0.00031
1939	0.00031
1948.65	0.000303
1958.29	0.000288
1967.94	0.000294
1977.59	0.000249
1987.23	0.000287
1996.88	0.000281
2006.53	0.000287
2016.17	0.000299
2025.82	0.000267
2035.47	0.000263
2045.11	0.000245
2054.76	0.000256
2064.41	0.000258
2074.05	0.000217
2083.7	0.000252
2093.35	0.000246
2102.99	0.000248
2112.64	0.00027
2122.28	0.000275
2131.93	0.00029
2141.58	0.000273
2151.22	0.000259
2160.87	0.000235
2170.52	0.000275
2180.16	0.000268
2189.81	0.000274
2199.46	0.000262
2209.1	0.000248
2218.75	0.000206
2228.4	0.000217
2238.04	0.000207
2247.69	0.00023
2257.34	0.000235
2266.98	0.000233
2276.63	0.000253
2286.28	0.000235
2295.92	0.000251
2305.57	0.000243
2315.22	0.000248
2324.86	0.000248
2334.51	0.000218
2344.16	0.000227
2353.8	0.000255
2363.45	0.000244
2373.09	0.00025
2382.74	0.000228
2392.39	0.000211
2402.03	0.000207
2411.68	0.000233
2421.33	0.000216
2430.97	0.000211
2440.62	0.000188
2450.27	0.000227
2459.91	0.00021
2469.56	0.000212
2479.21	0.000225
2488.85	0.000233
2498.5	0.000223
2508.15	0.000215
2517.79	0.000227
2527.44	0.000233
2537.09	0.000209
2546.73	0.000192
2556.38	0.000189
2566.03	0.000168
2575.67	0.00016
2585.32	0.000157
2594.96	0.000136
2604.61	0.000135
2614.26	0.000143
2623.9	0.000169
2633.55	0.000172
2643.2	0.000143
2652.84	0.000147
2662.49	0.000166
2672.14	0.000152
2681.78	0.000153
2691.43	0.00015
2701.08	0.000116
2710.72	0.000128
2720.37	7.4e-05
2730.02	0.000107
2739.66	0.000125
2749.31	0.000131
2758.96	0.000142
2768.6	0.000105
2778.25	0.00012
2787.9	9.4e-05
2797.54	0.000132
2807.19	0.000142
2816.84	0.000132
2826.48	0.000125
2836.13	0.000176
2845.77	0.000147
2855.42	0.000112
2865.07	0.00011
2874.71	0.000124
2884.36	0.000194
2894.01	0.000122
2903.65	0.000111
2913.3	0.000168
2922.95	6.5e-05
2932.59	9.2e-05
2942.24	0.000132
2951.89	0.000139
2961.53	0.000118
2971.18	0.00018
2980.83	0.00011
2990.47	3.1e-05
3000.12	0.000149
3009.77	0.000149
3019.41	0.000118
3029.06	9.7e-05
3038.71	0.000179
3048.35	0.00015
3058	0.000162
3067.64	0.00011
3077.29	0.000221
3086.94	0.000269
3096.58	0.000226
3106.23	0.000122
3115.88	0.00016
3125.52	0.000153
3135.17	0.000141
3144.82	6.4e-05
3154.46	0.000138
3164.11	0.00017
3173.76	0.000115
3183.4	8.6e-05
3193.05	0.000175
3202.7	8.7e-05
3212.34	9e-05
3221.99	5.9e-05
3231.64	0.000257
3241.28	0.000124
3250.93	1.9e-05
3260.58	0.000153
3270.22	0.000197
3279.87	8.9e-05
3289.52	0.000185
3299.16	9.8e-05
3308.81	0.000155
3318.45	0.000152
3328.1	0.000175
3337.75	0.000131
3347.39	0.000154
3357.04	0.000241
3366.69	0.00018
3376.33	0.000156
3385.98	0.00022
3395.63	0.000252
3405.27	0.000175
3414.92	9.3e-05
3424.57	0.00021
3434.21	0.000212
3443.86	6.9e-05
3453.51	0.000273
3463.15	0.000219
3472.8	0.000212
3482.45	0.000381
3492.09	0.000337
3501.74	0.000282
3511.39	0.0003961
3521.03	0.000357
3530.68	0.0003942
3540.33	0.000473
3549.97	0.00066
3559.62	0.001966
3569.26	0.004156
3578.91	0.003616
3588.56	0.001716
3598.2	0.0004694
3607.85	0.0003975
3617.5	0.000345
3627.14	0.000353
3636.79	0.000175
3646.44	0.00027
3656.08	0.000201
3665.73	0.000177
3675.38	0.000309
3685.02	0.000106
3694.67	0.000172
3704.32	0.000139
3713.96	0.000189
3723.61	0.000281
3733.26	0.000296
3742.9	0.000306
3752.55	0.000223
3762.2	0.000138
3771.84	0.00012
3781.49	0.000118
3791.13	0.000178
3800.78	0.000234
3810.43	0.000119
3820.07	0.000171
3829.72	0.000144
3839.37	0.000246
3849.01	0.000183
3858.66	0.000109
3868.31	0.000253
3877.95	0.000149
3887.6	0.000164
3897.25	0.000198
3906.89	0.000213
3916.54	0.000193
3926.19	0.000107
3935.83	0.000111
3945.48	0.000158
3955.13	9.6e-05
3964.77	8e-05
3974.42	8.8e-05
3984.07	0.000158
3993.71	0.000133
