Infrared Spectrum: 2-(4-Ethoxyphenyl)ethanol
Formula: C 10 H 14 O 2
CAS: 22545-15-9
State: gas
Origin: EPA-IR VAPOR PHASE LIBRARY
1/CM	ABSORBANCE
549.9	0.01527
559.547	0.01685
569.193	0.01777
578.84	0.0164
588.486	0.01222
598.133	0.00765
607.779	0.00554
617.426	0.0045
627.072	0.00407
636.719	0.00398
646.365	0.00365
656.012	0.00347
665.658	0.00349
675.305	0.00392
684.951	0.00509
694.598	0.00697
704.245	0.00742
713.891	0.00756
723.538	0.00708
733.184	0.0063
742.831	0.00521
752.477	0.00523
762.124	0.00591
771.77	0.00727
781.417	0.01005
791.063	0.01673
800.71	0.02738
810.356	0.03907
820.003	0.04763
829.649	0.04332
839.296	0.03077
848.943	0.01981
858.589	0.01355
868.236	0.01076
877.882	0.00996
887.529	0.01177
897.175	0.0177
906.822	0.02187
916.468	0.02369
926.115	0.02232
935.761	0.01655
945.408	0.01292
955.054	0.01097
964.701	0.01064
974.347	0.01195
983.994	0.01554
993.64	0.02348
1003.29	0.03615
1012.93	0.05233
1022.58	0.07675
1032.23	0.13523
1041.87	0.19106
1051.52	0.16061
1061.17	0.10287
1070.81	0.06073
1080.46	0.0437
1090.11	0.04496
1099.75	0.04567
1109.4	0.04498
1119.05	0.04038
1128.69	0.02871
1138.34	0.02296
1147.99	0.02228
1157.63	0.02914
1167.28	0.06165
1176.92	0.08183
1186.57	0.03988
1196.22	0.03421
1205.86	0.05145
1215.51	0.09644
1225.16	0.18708
1234.8	0.29941
1244.45	0.31011
1254.1	0.19185
1263.74	0.09161
1273.39	0.06468
1283.04	0.0616
1292.68	0.0643
1302.33	0.06126
1311.98	0.04405
1321.62	0.03025
1331.27	0.02523
1340.92	0.02355
1350.56	0.02174
1360.21	0.02265
1369.86	0.02892
1379.5	0.04049
1389.15	0.05413
1398.79	0.04913
1408.44	0.02721
1418.09	0.01882
1427.73	0.01802
1437.38	0.02002
1447.03	0.02115
1456.67	0.01978
1466.32	0.02205
1475.97	0.0398
1485.61	0.05313
1495.26	0.0698
1504.91	0.19758
1514.55	0.22225
1524.2	0.06151
1533.85	0.0234
1543.49	0.01504
1553.14	0.01248
1562.79	0.0132
1572.43	0.01732
1582.08	0.02304
1591.73	0.027
1601.37	0.04242
1611.02	0.05925
1620.67	0.04097
1630.31	0.01748
1639.96	0.01045
1649.6	0.00747
1659.25	0.00575
1668.9	0.0046
1678.54	0.00399
1688.19	0.00357
1697.84	0.003138
1707.48	0.0030203
1717.13	0.0031114
1726.78	0.0032707
1736.42	0.00356
1746.07	0.00428
1755.72	0.00446
1765.36	0.00382
1775.01	0.0029276
1784.66	0.00248595
1794.3	0.002322
1803.95	0.0023939
1813.6	0.00250832
1823.24	0.0026306
1832.89	0.0030059
1842.54	0.00353
1852.18	0.00418
1861.83	0.00517
1871.47	0.00615
1881.12	0.0061
1890.77	0.00513
1900.41	0.00448
1910.06	0.00409
1919.71	0.00412
1929.35	0.00421
1939	0.00435
1948.65	0.00439
1958.29	0.00429
1967.94	0.00419
1977.59	0.00409
1987.23	0.00381
1996.88	0.00367
2006.53	0.00356
2016.17	0.00355
2025.82	0.00365
2035.47	0.00394
2045.11	0.00427
2054.76	0.00457
2064.41	0.00442
2074.05	0.00396
2083.7	0.00351
2093.35	0.0030792
2102.99	0.002666
2112.64	0.0023968
2122.28	0.002169
2131.93	0.002054
2141.58	0.001996
2151.22	0.001845
2160.87	0.001743
2170.52	0.001714
2180.16	0.001649
2189.81	0.001641
2199.46	0.001629
2209.1	0.001637
2218.75	0.001672
2228.4	0.001654
2238.04	0.001657
2247.69	0.001664
2257.34	0.001846
2266.98	0.00198
2276.63	0.002174
2286.28	0.002289
2295.92	0.002356
2305.57	0.0023952
2315.22	0.0024086
2324.86	0.00229
2334.51	0.002236
2344.16	0.0022
2353.8	0.002113
2363.45	0.00193
2373.09	0.001933
2382.74	0.002068
2392.39	0.002281
2402.03	0.0026725
2411.68	0.0030456
2421.33	0.0031129
2430.97	0.0030815
2440.62	0.0029432
2450.27	0.0031996
2459.91	0.00346
2469.56	0.0034211
2479.21	0.0033916
2488.85	0.0031751
2498.5	0.0028925
2508.15	0.0027372
2517.79	0.0029126
2527.44	0.0031194
2537.09	0.0031577
2546.73	0.0028441
2556.38	0.0023722
2566.03	0.002075
2575.67	0.002034
2585.32	0.002001
2594.96	0.002072
2604.61	0.002027
2614.26	0.002025
2623.9	0.001924
2633.55	0.002174
2643.2	0.00215
2652.84	0.002291
2662.49	0.002326
2672.14	0.0023833
2681.78	0.0024244
2691.43	0.0026343
2701.08	0.0028697
2710.72	0.00348
2720.37	0.00432
2730.02	0.00514
2739.66	0.00577
2749.31	0.00591
2758.96	0.00602
2768.6	0.00607
2778.25	0.00635
2787.9	0.00663
2797.54	0.00697
2807.19	0.00791
2816.84	0.00936
2826.48	0.0114
2836.13	0.01512
2845.77	0.02087
2855.42	0.02927
2865.07	0.04246
2874.71	0.06166
2884.36	0.07362
2894.01	0.06858
2903.65	0.06924
2913.3	0.08125
2922.95	0.09292
2932.59	0.09887
2942.24	0.10598
2951.89	0.09081
2961.53	0.07689
2971.18	0.07071
2980.83	0.07338
2990.47	0.0723
3000.12	0.05119
3009.77	0.03457
3019.41	0.03005
3029.06	0.03823
3038.71	0.03871
3048.35	0.02144
3058	0.01598
3067.64	0.01721
3077.29	0.01574
3086.94	0.01285
3096.58	0.01152
3106.23	0.0091
3115.88	0.00624
3125.52	0.00447
3135.17	0.0031886
3144.82	0.002053
3154.46	0.00133
3164.11	0.00108
3173.76	0.00084
3183.4	0.00072
3193.05	0.00056
3202.7	0.00056
3212.34	0.00047
3221.99	0.00046
3231.64	0.00021
3241.28	0.00024
3250.93	0.00014
3260.58	0.00031
3270.22	0.00026
3279.87	0.00021
3289.52	0.0002
3299.16	0.00019
3308.81	0.00049
3318.45	0.00043
3328.1	0.0006
3337.75	0.00052
3347.39	0.00043
3357.04	0.00059
3366.69	0.00036
3376.33	0.00077
3385.98	0.00069
3395.63	0.00068
3405.27	0.00104
3414.92	0.00086
3424.57	0.00092
3434.21	0.00113
3443.86	0.0011
3453.51	0.00107
3463.15	0.00131
3472.8	0.00133
3482.45	0.00127
3492.09	0.00143
3501.74	0.0014
3511.39	0.001476
3521.03	0.00126
3530.68	0.001523
3540.33	0.001595
3549.97	0.00171
3559.62	0.001885
3569.26	0.001991
3578.91	0.002226
3588.56	0.0024186
3598.2	0.0027713
3607.85	0.00349
3617.5	0.00659
3627.14	0.01291
3636.79	0.01143
3646.44	0.00951
3656.08	0.01412
3665.73	0.01726
3675.38	0.01328
3685.02	0.00716
3694.67	0.00453
3704.32	0.00355
3713.96	0.0028944
3723.61	0.0023953
3733.26	0.002153
3742.9	0.002187
3752.55	0.001936
3762.2	0.002003
3771.84	0.001999
3781.49	0.001946
3791.13	0.001982
3800.78	0.001741
3810.43	0.001867
3820.07	0.001838
3829.72	0.001836
3839.37	0.001748
3849.01	0.002026
3858.66	0.001979
3868.31	0.00209
3877.95	0.00196
3887.6	0.002086
3897.25	0.002068
3906.89	0.001828
3916.54	0.001955
3926.19	0.002028
3935.83	0.001806
3945.48	0.001588
3955.13	0.001535
3964.77	0.001582
3974.42	0.001603
3984.07	0.001627
3993.71	0.001595
