Infrared Spectrum: ISOVALERALDEHYDE, 2,4-DINITROPHENYL HYDRAZONE
Formula: C11 H14 N4 O4
CAS: 2256-01-1
State: SOLID (KBr PELLET)
Melting point: 122 C
Class: COBLENTZ
Instrument: Not specified, most likely a prism, grating, or hybrid spectrometer.
Sampling: TRANSMISSION
Resolution: 4
MICROMETERS	TRANSMITTANCE
2.02	0.634
2.05335	0.637
2.0867	0.64
2.12005	0.644
2.1534	0.648
2.18675	0.649
2.2201	0.653
2.25345	0.656
2.28681	0.66
2.32016	0.667
2.35351	0.669
2.38686	0.675
2.42021	0.679
2.45356	0.681
2.48691	0.681
2.52026	0.685
2.55361	0.688
2.58696	0.689
2.62031	0.689
2.65366	0.692
2.68701	0.689
2.72036	0.685
2.75371	0.68
2.78706	0.673
2.82042	0.667
2.85377	0.661
2.88712	0.661
2.92047	0.664
2.95382	0.667
2.98717	0.641
3.02052	0.35
3.05387	0.641
3.08722	0.72
3.12057	0.758
3.15392	0.766
3.18727	0.75
3.22062	0.681
3.25397	0.732
3.28732	0.726
3.32068	0.711
3.35403	0.495
3.38738	0.514
3.42073	0.598
3.45408	0.601
3.48743	0.664
3.52078	0.702
3.55413	0.716
3.58748	0.722
3.62083	0.726
3.65418	0.73
3.68753	0.731
3.72088	0.732
3.75423	0.732
3.78758	0.736
3.82093	0.739
3.85429	0.74
3.88764	0.742
3.92099	0.746
3.95434	0.748
3.98769	0.75
4.02104	0.74
4.05439	0.74
4.08774	0.74
4.12109	0.744
4.15444	0.746
4.18779	0.753
4.22114	0.758
4.25449	0.769
4.28784	0.77
4.32119	0.77
4.35454	0.77
4.3879	0.77
4.42125	0.771
4.4546	0.771
4.48795	0.773
4.5213	0.774
4.55465	0.779
4.588	0.782
4.62135	0.785
4.6547	0.786
4.68805	0.786
4.7214	0.789
4.75475	0.787
4.7881	0.787
4.82145	0.787
4.8548	0.789
4.88816	0.791
4.92151	0.794
4.95486	0.795
4.98821	0.791
5.02156	0.791
5.05491	0.793
5.08826	0.795
5.12161	0.798
5.15496	0.802
5.18831	0.802
5.22166	0.804
5.25501	0.806
5.28836	0.806
5.32171	0.805
5.35506	0.802
5.38841	0.802
5.42177	0.802
5.45512	0.805
5.48847	0.808
5.52182	0.812
5.55517	0.813
5.58852	0.817
5.62187	0.817
5.65522	0.814
5.68857	0.813
5.72192	0.813
5.75527	0.809
5.78862	0.802
5.82197	0.793
5.85532	0.801
5.88867	0.798
5.92203	0.766
5.95538	0.753
5.98873	0.747
6.02208	0.714
6.05543	0.591
6.08878	0.496
6.12213	0.249
6.15548	0.103
6.18883	0.057
6.22218	0.195
6.25553	0.24
6.28888	0.194
6.32223	0.381
6.35558	0.636
6.38893	0.665
6.42228	0.651
6.45564	0.565
6.48899	0.485
6.52234	0.41
6.55569	0.158
6.58904	0.153
6.62239	0.259
6.65574	0.34
6.68909	0.479
6.72244	0.644
6.75579	0.653
6.78914	0.634
6.82249	0.609
6.85584	0.651
6.88919	0.656
6.92254	0.634
6.9559	0.563
6.98925	0.484
7.0226	0.369
7.05595	0.562
7.0893	0.731
7.12265	0.83
7.156	0.779
7.18935	0.716
7.2227	0.675
7.25605	0.621
7.2894	0.629
7.32275	0.601
7.3561	0.492
7.38945	0.28
7.4228	0.14
7.45615	0.079
7.48951	0.034
7.52286	0.021
7.55621	0.063
7.58956	0.134
7.62291	0.077
7.65626	0.169
7.68961	0.328
7.72296	0.395
7.75631	0.374
7.78966	0.302
7.82301	0.222
7.85636	0.182
7.88971	0.17
7.92306	0.213
7.95641	0.336
7.98977	0.457
8.02312	0.578
8.05647	0.651
8.08982	0.668
8.12317	0.642
8.15652	0.483
8.18987	0.397
8.22322	0.497
8.25657	0.61
8.28992	0.671
8.32327	0.707
8.35662	0.73
8.38997	0.739
8.42332	0.75
8.45667	0.739
8.49002	0.736
8.52338	0.71
8.55673	0.706
8.59008	0.722
8.62343	0.723
8.65678	0.714
8.69013	0.642
8.72348	0.467
8.75683	0.39
8.79018	0.504
8.82353	0.547
8.85688	0.524
8.89023	0.515
8.92358	0.538
8.95693	0.561
8.99028	0.581
9.02363	0.621
9.05699	0.634
9.09034	0.645
9.12369	0.652
9.15704	0.659
9.19039	0.652
9.22374	0.621
9.25709	0.522
9.29044	0.43
9.32379	0.402
9.35714	0.464
9.39049	0.542
9.42384	0.633
9.45719	0.691
9.49054	0.723
9.52389	0.736
9.55725	0.727
9.5906	0.722
9.62395	0.714
9.6573	0.702
9.69065	0.722
9.724	0.734
9.75735	0.786
9.7907	0.806
9.82405	0.824
9.8574	0.82
9.89075	0.84
9.9241	0.852
9.95745	0.855
9.9908	0.861
10.0242	0.861
10.0575	0.865
10.0909	0.865
10.1242	0.864
10.1576	0.856
10.1909	0.856
10.2243	0.857
10.2576	0.851
10.291	0.844
10.3243	0.83
10.3577	0.805
10.391	0.798
10.4244	0.804
10.4577	0.802
10.4911	0.802
10.5244	0.813
10.5578	0.812
10.5911	0.812
10.6245	0.814
10.6578	0.812
10.6912	0.806
10.7245	0.8
10.7579	0.779
10.7912	0.708
10.8246	0.583
10.8579	0.53
10.8913	0.555
10.9246	0.613
10.958	0.736
10.9913	0.798
11.0247	0.83
11.058	0.848
11.0914	0.86
11.1247	0.864
11.1581	0.868
11.1914	0.869
11.2248	0.869
11.2581	0.871
11.2915	0.872
11.3248	0.871
11.3582	0.871
11.3915	0.871
11.4249	0.872
11.4582	0.871
11.4916	0.868
11.5249	0.867
11.5583	0.865
11.5916	0.863
11.625	0.861
11.6583	0.857
11.6917	0.855
11.725	0.848
11.7584	0.837
11.7917	0.825
11.8251	0.808
11.8584	0.787
11.8918	0.751
11.9251	0.696
11.9585	0.675
11.9918	0.628
12.0252	0.5
12.0585	0.503
12.0919	0.693
12.1252	0.797
12.1586	0.834
12.1919	0.848
12.2253	0.851
12.2586	0.849
12.292	0.846
12.3253	0.842
12.3587	0.84
12.392	0.836
12.4254	0.838
12.4588	0.84
12.4921	0.842
12.5255	0.842
12.5588	0.842
12.5922	0.841
12.6255	0.841
12.6589	0.84
12.6922	0.834
12.7256	0.833
12.7589	0.83
12.7923	0.83
12.8256	0.83
12.859	0.83
12.8923	0.829
12.9257	0.826
12.959	0.822
12.9924	0.82
13.0257	0.813
13.0591	0.804
13.0924	0.769
13.1258	0.751
13.1591	0.779
13.1925	0.79
13.2258	0.789
13.2592	0.785
13.2925	0.775
13.3259	0.761
13.3592	0.718
13.3926	0.616
13.4259	0.467
13.4593	0.426
13.4926	0.534
13.526	0.655
13.5593	0.719
13.5927	0.734
13.626	0.735
13.6594	0.73
13.6927	0.724
13.7261	0.703
13.7594	0.655
13.7928	0.578
13.8261	0.542
13.8595	0.553
13.8928	0.609
13.9262	0.672
13.9595	0.708
13.9929	0.72
14.0262	0.726
14.0596	0.731
14.0929	0.732
14.1263	0.732
14.1596	0.731
14.193	0.734
14.2263	0.734
14.2597	0.734
14.293	0.73
14.3264	0.726
14.3597	0.722
14.3931	0.719
14.4264	0.71
14.4598	0.693
14.4931	0.683
14.5265	0.663
14.5598	0.652
14.5932	0.652
14.6265	0.652
14.6599	0.652
14.6932	0.651
14.7266	0.646
14.7599	0.642
14.7933	0.638
14.8266	0.626
14.86	0.606
14.8933	0.581
14.9267	0.565
14.96	0.566
14.9934	0.569
