Infrared Spectrum: TRICHLOROACRYLIC ACID
Formula: C3 H Cl3 O2
CAS: 2257-35-4
State: SOLUTION (SATURATED IN CCl4 FOR 5000-1350 CM^-^1, SATURATED IN CS2 FOR 1350-625 CM^-^1)
Class: COBLENTZ
Instrument: Not specified, most likely a prism, grating, or hybrid spectrometer.
Sampling: TRANSMISSION
Path length: 0.01 CM, 0.01 CM
Resolution: 4
Origin: DOW CHEMICAL COMPANY
MICROMETERS	TRANSMITTANCE
2.035	0.858
2.07412	0.862
2.11324	0.862
2.15235	0.863
2.19147	0.863
2.23059	0.865
2.26971	0.868
2.30882	0.868
2.34794	0.87
2.38706	0.873
2.42618	0.873
2.4653	0.873
2.50441	0.873
2.54353	0.873
2.58265	0.871
2.62177	0.87
2.66089	0.867
2.7	0.836
2.73912	0.823
2.77824	0.818
2.81736	0.761
2.85647	0.748
2.89559	0.727
2.93471	0.682
2.97383	0.619
3.01295	0.552
3.05206	0.474
3.09118	0.382
3.1303	0.301
3.16942	0.262
3.20853	0.231
3.24765	0.218
3.28677	0.215
3.32589	0.202
3.36501	0.231
3.40412	0.26
3.44324	0.228
3.48236	0.241
3.52148	0.293
3.56059	0.35
3.59971	0.419
3.63883	0.46
3.67795	0.479
3.71707	0.447
3.75618	0.385
3.7953	0.421
3.83442	0.491
3.87354	0.533
3.91266	0.529
3.95177	0.497
3.99089	0.528
4.03001	0.622
4.06913	0.682
4.10824	0.719
4.14736	0.742
4.18648	0.747
4.2256	0.747
4.26472	0.755
4.30383	0.779
4.34295	0.797
4.38207	0.81
4.42119	0.821
4.4603	0.828
4.49942	0.831
4.53854	0.839
4.57766	0.841
4.61678	0.842
4.65589	0.837
4.69501	0.824
4.73413	0.828
4.77325	0.833
4.81237	0.85
4.85148	0.86
4.8906	0.86
4.92972	0.858
4.96884	0.854
5.00795	0.836
5.04707	0.821
5.08619	0.815
5.12531	0.811
5.16443	0.816
5.20354	0.82
5.24266	0.82
5.28178	0.818
5.3209	0.815
5.36001	0.808
5.39913	0.792
5.43825	0.787
5.47737	0.79
5.51649	0.786
5.5556	0.761
5.59472	0.739
5.63384	0.638
5.67296	0.5
5.71207	0.429
5.75119	0.257
5.79031	0.085
5.82943	0.032
5.86855	0.084
5.90766	0.291
5.94678	0.468
5.9859	0.578
6.02502	0.62
6.06414	0.674
6.10325	0.685
6.14237	0.667
6.18149	0.606
6.22061	0.525
6.25972	0.471
6.29884	0.416
6.33796	0.304
6.37708	0.205
6.4162	0.056
6.45531	0.098
6.49443	0.306
6.53355	0.387
6.57267	0.491
6.61178	0.609
6.6509	0.667
6.69002	0.719
6.72914	0.758
6.76826	0.773
6.80737	0.773
6.84649	0.747
6.88561	0.705
6.92473	0.602
6.96384	0.447
7.00296	0.244
7.04208	0.082
7.0812	0.145
7.12032	0.329
7.15943	0.487
7.19855	0.586
7.23767	0.632
7.27679	0.67
7.31591	0.7
7.35502	0.711
7.39414	0.719
7.43326	0.724
7.47238	0.721
7.51149	0.7
7.55061	0.68
7.58973	0.648
7.62885	0.591
7.66797	0.505
7.70708	0.418
7.7462	0.259
7.78532	0.157
7.82444	0.068
7.86355	0.035
7.90267	0.029
7.94179	0.038
7.98091	0.089
8.02003	0.191
8.05914	0.304
8.09826	0.4
8.13738	0.471
8.1765	0.512
8.21562	0.541
8.25473	0.565
8.29385	0.599
8.33297	0.633
8.37209	0.661
8.4112	0.674
8.45032	0.682
8.48944	0.682
8.52856	0.682
8.56768	0.683
8.60679	0.693
8.64591	0.708
8.68503	0.722
8.72415	0.737
8.76326	0.752
8.80238	0.774
8.8415	0.795
8.88062	0.808
8.91974	0.828
8.95885	0.831
8.99797	0.841
9.03709	0.842
9.07621	0.842
9.11532	0.841
9.15444	0.834
9.19356	0.831
9.23268	0.824
9.2718	0.805
9.31091	0.755
9.35003	0.675
9.38915	0.67
9.42827	0.675
9.46739	0.586
9.5065	0.651
9.54562	0.735
9.58474	0.769
9.62386	0.779
9.66297	0.786
9.70209	0.79
9.74121	0.794
9.78033	0.797
9.81945	0.797
9.85856	0.795
9.89768	0.792
9.9368	0.789
9.97592	0.786
10.015	0.784
10.0542	0.782
10.0933	0.779
10.1324	0.776
10.1715	0.774
10.2106	0.769
10.2497	0.763
10.2889	0.755
10.328	0.748
10.3671	0.739
10.4062	0.722
10.4453	0.706
10.4844	0.685
10.5236	0.658
10.5627	0.625
10.6018	0.576
10.6409	0.526
10.68	0.465
10.7192	0.371
10.7583	0.246
10.7974	0.134
10.8365	0.03
10.8756	0.011
10.9147	0.03
10.9539	0.089
10.993	0.166
11.0321	0.257
11.0712	0.301
11.1103	0.325
11.1495	0.346
11.1886	0.363
11.2277	0.382
11.2668	0.401
11.3059	0.414
11.345	0.423
11.3842	0.429
11.4233	0.434
11.4624	0.434
11.5015	0.434
11.5406	0.431
11.5797	0.424
11.6189	0.413
11.658	0.401
11.6971	0.382
11.7362	0.353
11.7753	0.296
11.8145	0.199
11.8536	0.072
11.8927	0.063
11.9318	0.131
11.9709	0.209
12.01	0.307
12.0492	0.371
12.0883	0.423
12.1274	0.461
12.1665	0.491
12.2056	0.512
12.2448	0.523
12.2839	0.534
12.323	0.541
12.3621	0.547
12.4012	0.552
12.4403	0.554
12.4795	0.554
12.5186	0.555
12.5577	0.56
12.5968	0.572
12.6359	0.58
12.675	0.588
12.7142	0.594
12.7533	0.599
12.7924	0.602
12.8315	0.609
12.8706	0.614
12.9098	0.619
12.9489	0.622
12.988	0.623
13.0271	0.623
13.0662	0.622
13.1053	0.617
13.1445	0.615
13.1836	0.617
13.2227	0.627
13.2618	0.638
13.3009	0.649
13.34	0.661
13.3792	0.666
13.4183	0.672
13.4574	0.677
13.4965	0.677
13.5356	0.679
13.5748	0.68
13.6139	0.68
13.653	0.677
13.6921	0.672
13.7312	0.669
13.7703	0.666
13.8095	0.659
13.8486	0.653
13.8877	0.648
13.9268	0.64
13.9659	0.633
14.0051	0.619
14.0442	0.594
14.0833	0.576
14.1224	0.541
14.1615	0.499
14.2006	0.434
14.2398	0.341
14.2789	0.256
14.318	0.196
14.3571	0.147
14.3962	0.121
14.4353	0.129
14.4745	0.16
14.5136	0.205
14.5527	0.26
14.5918	0.299
14.6309	0.325
14.6701	0.343
14.7092	0.359
14.7483	0.379
14.7874	0.39
14.8265	0.397
14.8656	0.4
14.9048	0.403
14.9439	0.406
14.983	0.413
15.0221	0.416
15.0612	0.419
15.1004	0.421
15.1395	0.423
15.1786	0.423
15.2177	0.423
15.2568	0.423
15.2959	0.421
15.3351	0.418
15.3742	0.414
15.4133	0.411
15.4524	0.406
15.4915	0.401
15.5306	0.397
15.5698	0.39
15.6089	0.385
15.648	0.38
15.6871	0.376
15.7262	0.372
15.7654	0.367
15.8045	0.366
15.8436	0.363
15.8827	0.361
15.9218	0.371
15.9609	0.387
16.0001	0.401
