Infrared Spectrum: p-t-Butylpivalophenone
Formula: C 15 H 22 O
CAS: 22583-66-0
State: gas
Origin: EPA-IR VAPOR PHASE LIBRARY
1/CM	ABSORBANCE
551.7	0.0099655
563.274	0.0169355
574.848	0.0197355
586.421	0.0150655
597.995	0.0070755
609.569	0.0043455
621.143	0.0036755
632.717	0.0030555
644.291	0.0025755
655.864	0.0023355
667.438	0.0021855
679.012	0.0028855
690.586	0.0047155
702.16	0.0095455
713.734	0.0171155
725.307	0.0165555
736.881	0.0060955
748.455	0.0039755
760.029	0.0063455
771.603	0.0088355
783.177	0.0067955
794.75	0.0060355
806.324	0.0080955
817.898	0.0155855
829.472	0.0316155
841.046	0.0376655
852.619	0.0196555
864.193	0.0073455
875.767	0.0045955
887.341	0.0045755
898.915	0.0055555
910.489	0.0083555
922.062	0.0146955
933.636	0.0319255
945.21	0.0640455
956.784	0.129016
968.358	0.0948155
979.932	0.0290255
991.505	0.0137455
1003.08	0.0105855
1014.65	0.0148055
1026.23	0.0106355
1037.8	0.0070855
1049.37	0.0050155
1060.95	0.0044255
1072.52	0.0053455
1084.1	0.0092355
1095.67	0.0261555
1107.24	0.0647455
1118.82	0.0256455
1130.39	0.0117055
1141.97	0.0106355
1153.54	0.0156155
1165.11	0.0318555
1176.69	0.0788455
1188.26	0.0867855
1199.83	0.0510055
1211.41	0.0396555
1222.98	0.0243155
1234.56	0.0208155
1246.13	0.0248855
1257.7	0.0520455
1269.28	0.104576
1280.85	0.0540255
1292.42	0.0195355
1304	0.0110555
1315.57	0.0084655
1327.15	0.0074855
1338.72	0.0090955
1350.29	0.0180955
1361.87	0.0415755
1373.44	0.0515155
1385.02	0.0367755
1396.59	0.0572655
1408.16	0.0332155
1419.74	0.0160855
1431.31	0.0137455
1442.88	0.0189855
1454.46	0.0307055
1466.03	0.0461655
1477.61	0.0709955
1489.18	0.0455055
1500.75	0.0199755
1512.33	0.0113255
1523.9	0.0080155
1535.48	0.0074255
1547.05	0.0077055
1558.62	0.0089655
1570.2	0.0090555
1581.77	0.0105555
1593.34	0.0249455
1604.92	0.0535455
1616.49	0.0287255
1628.07	0.0123655
1639.64	0.0114155
1651.21	0.0166955
1662.79	0.0289355
1674.36	0.0637755
1685.93	0.136676
1697.51	0.144576
1709.08	0.0661155
1720.66	0.0247455
1732.23	0.0114755
1743.8	0.0072855
1755.38	0.0056155
1766.95	0.0051255
1778.53	0.0054355
1790.1	0.0052055
1801.67	0.0034055
1813.25	0.0023655
1824.82	0.0019555
1836.39	0.0017155
1847.97	0.0016055
1859.54	0.0014655
1871.12	0.0016655
1882.69	0.0023055
1894.26	0.0032755
1905.84	0.0035955
1917.41	0.0030355
1928.99	0.0022655
1940.56	0.0017455
1952.13	0.0013155
1963.71	0.0009968
1975.28	0.0009073
1986.85	0.0008782
1998.43	0.0008188
2010	0.0007593
2021.58	0.000679
2033.15	0.0006202
2044.72	0.0005837
2056.3	0.0005193
2067.87	0.0004817
2079.44	0.0004981
2091.02	0.0005048
2102.59	0.000547
2114.17	0.0005349
2125.74	0.0005525
2137.31	0.0005337
2148.89	0.0004844
2160.46	0.0005031
2172.04	0.0006482
2183.61	0.0007339
2195.18	0.0007811
2206.76	0.0008345
2218.33	0.0006861
2229.9	0.0006109
2241.48	0.0005037
2253.05	0.0003644
2264.63	0.0003957
2276.2	0.0005679
2287.77	0.0007913
2299.35	0.000916
2310.92	0.0009573
2322.5	0.0008999
2334.07	0.0008277
2345.64	0.0006963
2357.22	0.0007185
2368.79	0.0008506
2380.36	0.0011555
2391.94	0.0012655
2403.51	0.0010755
2415.09	0.001029
2426.66	0.000941
2438.23	0.0010102
2449.81	0.0010555
2461.38	0.0009202
2472.96	0.0009294
2484.53	0.0008667
2496.1	0.0007887
2507.68	0.000782
2519.25	0.0007096
2530.82	0.0008576
2542.4	0.0010855
2553.97	0.0014355
2565.55	0.0016755
2577.12	0.0014255
2588.69	0.0012655
2600.27	0.0013555
2611.84	0.0013255
2623.41	0.0014755
2634.99	0.0014955
2646.56	0.0015655
2658.14	0.0016555
2669.71	0.0016055
2681.28	0.0016455
2692.86	0.0018155
2704.43	0.0022455
2716.01	0.0030755
2727.58	0.0036555
2739.15	0.0033755
2750.73	0.0034955
2762.3	0.0037355
2773.87	0.0038955
2785.45	0.0049355
2797.02	0.0056255
2808.6	0.0064555
2820.17	0.0078355
2831.74	0.0094055
2843.32	0.0128355
2854.89	0.0219355
2866.47	0.0467855
2878.04	0.0757655
2889.61	0.0745455
2901.19	0.0767155
2912.76	0.0991355
2924.33	0.100855
2935.91	0.113266
2947.48	0.143146
2959.06	0.247426
2970.63	0.337096
2982.2	0.204066
2993.78	0.100296
3005.35	0.0407555
3016.92	0.0210355
3028.5	0.0176955
3040.07	0.0198855
3051.65	0.0166555
3063.22	0.0160055
3074.79	0.0179455
3086.37	0.0198855
3097.94	0.0183855
3109.52	0.0131255
3121.09	0.0093955
3132.66	0.0064455
3144.24	0.0048455
3155.81	0.0043055
3167.38	0.0042955
3178.96	0.0042055
3190.53	0.0040055
3202.11	0.0037555
3213.68	0.0035355
3225.25	0.0032655
3236.83	0.0028755
3248.4	0.0023755
3259.98	0.0020155
3271.55	0.0016255
3283.12	0.0016655
3294.7	0.0017655
3306.27	0.0016355
3317.84	0.0015855
3329.42	0.0018055
3340.99	0.0023155
3352.57	0.0031155
3364.14	0.0033555
3375.71	0.0026755
3387.29	0.0020355
3398.86	0.0014955
3410.43	0.0009725
3422.01	0.0008587
3433.58	0.0007259
3445.16	0.0004305
3456.73	0.0004334
3468.3	0.0003533
3479.88	0.0003077
3491.45	0.0002895
3503.03	0.0003083
3514.6	0.0003425
3526.17	0.0002328
3537.75	0.0002708
3549.32	0.000287
3560.89	0.0002227
3572.47	0.0001725
3584.04	0.00011264
3595.62	4.1842e-05
3607.19	0.0001499
3618.76	0.0001494
3630.34	1.11e-05
3641.91	7.552e-05
3653.49	4.751e-05
3665.06	0.00010223
3676.63	0.0002575
3688.21	0.0002778
3699.78	0.0002796
3711.35	0.0003041
3722.93	0.0002257
3734.5	0.0003708
3746.08	0.0003099
3757.65	0.0003171
3769.22	0.0001938
3780.8	0.0002906
3792.37	0.0003385
3803.94	0.0006439
3815.52	0.0005999
3827.09	0.0005495
3838.67	0.0005201
3850.24	0.0004476
3861.81	0.0005824
3873.39	0.0007755
3884.96	0.0008772
3896.54	0.0011155
3908.11	0.0009589
3919.68	0.0008319
3931.26	0.0006651
3942.83	0.0006683
3954.4	0.0006887
3965.98	0.000568
3977.55	0.0007542
3989.13	0.0008291
4000.7	0.0007475
