Infrared Spectrum: 1-(3-Indolyl)-1-propanone
Formula: C11 H11 N O
CAS: 22582-68-9
State: SOLID (SPLIT MULL), FLUOROLUBE FOR 3800-1330 CM^-^1, NUJOL FOR 1330-400 CM^-^1
Melting point: 160 C
Class: COBLENTZ II
Instrument: DOW KBr FOREPRISM-GRATING
Instrument parameters: BLAZED AT 3.5, 12.0, 20.0 MICRON AND CHANGED AT 5.0, 7.5, 14.9 MICRON
Sampling: TRANSMISSION
Resolution: 2
Origin: DOW CHEMICAL COMPANY
1/CM	TRANSMITTANCE
3788	0.7284
3779	0.7308
3770	0.7321
3761	0.7331
3752	0.7403
3743	0.7414
3734	0.7386
3725	0.7385
3716	0.7387
3707	0.7387
3698	0.7385
3689	0.7385
3680	0.7391
3671	0.7395
3662	0.7391
3653	0.7375
3644	0.7357
3635	0.7333
3626	0.7308
3617	0.7284
3608	0.7258
3599	0.7234
3590	0.7205
3581	0.7171
3572	0.714
3563	0.7106
3554	0.7064
3545	0.7021
3536	0.6975
3527	0.6926
3518	0.688
3509	0.6832
3500	0.6785
3491	0.674
3482	0.6701
3473	0.6669
3464	0.6645
3455	0.6624
3446	0.6578
3437	0.6598
3428	0.6592
3419	0.6586
3410	0.6583
3401	0.658
3392	0.6582
3383	0.6584
3374	0.6584
3365	0.6584
3356	0.6583
3347	0.6582
3338	0.6578
3329	0.6575
3320	0.6557
3311	0.6518
3302	0.6455
3293	0.6358
3284	0.619
3275	0.596
3266	0.5719
3257	0.5468
3248	0.4982
3239	0.4622
3230	0.4444
3221	0.3964
3212	0.3432
3203	0.3071
3194	0.3065
3185	0.2822
3176	0.2132
3167	0.2116
3158	0.2492
3149	0.2873
3140	0.3177
3131	0.3521
3122	0.3868
3113	0.3714
3104	0.3808
3095	0.4018
3086	0.439
3077	0.4701
3068	0.4391
3059	0.4835
3050	0.4174
3041	0.4615
3032	0.5074
3023	0.5466
3014	0.5438
3005	0.5352
2996	0.5617
2987	0.5234
2978	0.5108
2969	0.4701
2960	0.4966
2951	0.5365
2942	0.5464
2933	0.4677
2924	0.5022
2915	0.5319
2906	0.5704
2897	0.6116
2888	0.6212
2879	0.6077
2870	0.5704
2861	0.6309
2852	0.6383
2843	0.6658
2834	0.6804
2825	0.6822
2816	0.6839
2807	0.6974
2798	0.7151
2789	0.7248
2780	0.7295
2771	0.7321
2762	0.7332
2753	0.7322
2744	0.7303
2735	0.7278
2726	0.7378
2717	0.7446
2708	0.7465
2699	0.7465
2690	0.7449
2681	0.7461
2672	0.7498
2663	0.7535
2654	0.7557
2645	0.7569
2636	0.7584
2627	0.7605
2618	0.7628
2609	0.7653
2600	0.7633
2591	0.7569
2582	0.7571
2573	0.7608
2564	0.7662
2555	0.7715
2546	0.7767
2537	0.7795
2528	0.78
2519	0.7801
2510	0.7804
2501	0.7778
2492	0.7731
2483	0.773
2474	0.776
2465	0.7781
2456	0.7787
2447	0.7793
2438	0.78
2429	0.7805
2420	0.781
2411	0.7788
2402	0.7776
2393	0.7782
2384	0.7788
2375	0.7788
2366	0.7785
2357	0.778
2348	0.7778
2339	0.7772
2330	0.7758
2321	0.7675
2312	0.7721
2303	0.7717
2294	0.773
2285	0.7748
2276	0.7758
2267	0.7769
2258	0.7782
2249	0.7801
2240	0.7828
2231	0.7874
2222	0.7925
2213	0.7974
2204	0.8011
2195	0.8058
2186	0.8083
2177	0.8104
2168	0.8125
2159	0.8144
2150	0.8162
2141	0.8175
2132	0.8187
2123	0.8202
2114	0.8221
2105	0.8243
2096	0.8266
2087	0.8289
2078	0.8311
2069	0.8328
2060	0.832
2051	0.8341
2042	0.8366
2033	0.8391
2024	0.8412
2015	0.8427
2006	0.843
1997	0.8503
1988	0.8671
1979	0.8711
1970	0.8756
1961	0.8836
1952	0.8798
1943	0.8821
1934	0.8763
1925	0.8754
1916	0.8809
1907	0.8849
1898	0.8755
1889	0.8748
1880	0.8832
1871	0.8865
1862	0.8817
1853	0.8831
1844	0.8863
1835	0.8875
1826	0.8887
1817	0.8875
1808	0.8848
1799	0.8881
1790	0.8885
1781	0.872
1772	0.8791
1763	0.888
1754	0.8915
1745	0.8933
1736	0.8935
1727	0.8918
1718	0.8844
1709	0.8665
1700	0.8558
1691	0.8553
1682	0.8571
1673	0.8471
1664	0.8468
1655	0.823
1646	0.7758
1637	0.4469
1628	0.1533
1619	0.294
1610	0.493
1601	0.6083
1592	0.6933
1583	0.7165
1574	0.555
1565	0.6407
1556	0.6549
1547	0.6744
1538	0.7162
1529	0.5601
1520	0.4962
1511	0.6934
1502	0.7321
1493	0.5491
1484	0.6953
1475	0.7619
1466	0.5777
1457	0.4504
1448	0.5445
1439	0.1779
1430	0.4757
1421	0.5846
1412	0.5948
1403	0.6781
1394	0.6834
1385	0.6417
1376	0.6607
1367	0.6446
1358	0.69
1349	0.6958
1340	0.6548
1331	0.6515
1322	0.6739
1313	0.6635
1304	0.3376
1295	0.5882
1286	0.693
1277	0.7074
1268	0.7362
1259	0.7086
1250	0.7175
1241	0.3063
1232	0.6458
1223	0.739
1214	0.7646
1205	0.7555
1196	0.7576
1187	0.7707
1178	0.7682
1169	0.6958
1160	0.2607
1151	0.5124
1142	0.4568
1133	0.5636
1124	0.7436
1115	0.7728
1106	0.7743
1097	0.7089
1088	0.7731
1079	0.7583
1070	0.5802
1061	0.7305
1052	0.7771
1043	0.7886
1034	0.7969
1025	0.8039
1016	0.7956
1007	0.3638
998	0.7106
989	0.7951
980	0.8172
971	0.82
962	0.8117
953	0.8274
944	0.8317
935	0.806
926	0.8191
917	0.5337
908	0.5543
899	0.7494
890	0.7972
881	0.7999
872	0.6575
863	0.8101
854	0.8151
845	0.8221
836	0.8193
827	0.8065
818	0.7888
809	0.5817
800	0.6542
791	0.5755
782	0.5259
773	0.4641
764	0.6065
755	0.6032
746	0.0871
737	0.5398
728	0.6176
719	0.5836
710	0.7038
701	0.7481
692	0.7621
683	0.7678
674	0.7703
665	0.7761
656	0.7715
647	0.7711
638	0.7672
629	0.7121
620	0.5757
611	0.7408
602	0.7644
593	0.7678
584	0.7014
575	0.7146
566	0.7645
557	0.7687
548	0.766
539	0.7583
530	0.7622
521	0.7536
512	0.5847
503	0.7354
494	0.7457
485	0.7446
476	0.7354
467	0.7375
458	0.7311
449	0.7303
440	0.7311
431	0.728
422	0.5935
413	0.6551
404	0.6724
395	0.6837
386	0.6911
