Infrared Spectrum: 4-Methylcyclohexanol acetate
Formula: C 9 H 16 O 2
CAS: 22597-23-5
State: gas
Instrument: HP-GC/MS/IRD
Origin: NIST Mass Spectrometry Data Center
1/CM	ABSORBANCE
550	0.0001292
562	6.8e-06
574	0.00051
586	0.0005644
598	0.0005712
610	0.0008432
622	0.0006324
634	0.0003196
646	0.0006868
658	0.0011016
670	0.0005032
682	0.0001496
694	0.0001088
706	6.12e-05
718	6.8e-05
730	9.52e-05
742	8.16e-05
754	0.0001428
766	0.0001632
778	8.16e-05
790	0.000102
802	4.76e-05
814	7.48e-05
826	6.12e-05
838	0.0001632
850	0.0004148
862	0.0007412
874	0.0013396
886	0.0022644
898	0.0020604
910	0.0010608
922	0.0007888
934	0.0010948
946	0.0021352
958	0.0020332
970	0.0020128
982	0.0028152
994	0.0039032
1006	0.0066504
1018	0.0131648
1030	0.0216036
1042	0.0139196
1054	0.0063444
1066	0.0051816
1078	0.0083708
1090	0.0082008
1102	0.0034748
1114	0.0021896
1126	0.0018768
1138	0.0015844
1150	0.0017476
1162	0.0020128
1174	0.0021964
1186	0.002924
1198	0.0049368
1210	0.011764
1222	0.0316948
1234	0.0643348
1246	0.0541756
1258	0.0195296
1270	0.0066096
1282	0.0038148
1294	0.0029036
1306	0.0028968
1318	0.0026112
1330	0.0020468
1342	0.0023052
1354	0.0054128
1366	0.0115124
1378	0.0102068
1390	0.0052292
1402	0.0022372
1414	0.0015232
1426	0.0017272
1438	0.0026044
1450	0.0044676
1462	0.0046308
1474	0.0026384
1486	0.0012988
1498	0.000918
1510	0.0008704
1522	0.0008024
1534	0.0008228
1546	0.000748
1558	0.0005984
1570	0.0005372
1582	0.000578
1594	0.0005644
1606	0.000612
1618	0.0005712
1630	0.00051
1642	0.0006596
1654	0.0007548
1666	0.0009044
1678	0.0011356
1690	0.001428
1702	0.00204
1714	0.0030872
1726	0.0048416
1738	0.012988
1750	0.0305592
1762	0.0281656
1774	0.010302
1786	0.003876
1798	0.0024616
1810	0.0018564
1822	0.0015028
1834	0.0010404
1846	0.00068
1858	0.0003944
1870	0.0003196
1882	0.0003128
1894	0.0003536
1906	0.0003944
1918	0.0004284
1930	0.0003536
1942	0.0002652
1954	0.0001972
1966	0.00017
1978	0.0001428
1990	0.0001224
2002	0.000102
2014	0.0001088
2026	0.0001156
2038	9.52e-05
2050	7.48e-05
2062	5.44e-05
2074	8.16e-05
2086	0.0001564
2098	0.000238
2110	0.0003672
2122	0.000408
2134	0.0002924
2146	0.0001564
2158	9.52e-05
2170	9.52e-05
2182	8.84e-05
2194	0.000102
2206	6.8e-05
2218	4.76e-05
2230	0.000102
2242	0.000102
2254	0.000136
2266	0.0001292
2278	8.84e-05
2290	4.08e-05
2302	6.8e-05
2314	6.8e-05
2326	6.12e-05
2338	7.48e-05
2350	8.84e-05
2362	6.12e-05
2374	4.08e-05
2386	4.08e-05
2398	3.4e-05
2410	4.76e-05
2422	4.76e-05
2434	6.8e-05
2446	0.0001292
2458	0.0001836
2470	0.0001836
2482	0.0001156
2494	3.4e-05
2506	1.36e-05
2518	2.72e-05
2530	2.04e-05
2542	6.8e-06
2554	2.04e-05
2566	3.4e-05
2578	4.76e-05
2590	8.16e-05
2602	0.0001428
2614	0.0001564
2626	0.0001428
2638	0.0001972
2650	0.0002244
2662	0.0002176
2674	0.0002448
2686	0.0002584
2698	0.0002788
2710	0.0003196
2722	0.0003128
2734	0.000374
2746	0.0003672
2758	0.0003468
2770	0.0003332
2782	0.0003536
2794	0.000476
2806	0.0006732
2818	0.0008636
2830	0.0011764
2842	0.002414
2854	0.0062356
2866	0.009656
2878	0.0109956
2890	0.0079628
2902	0.0082348
2914	0.0121448
2926	0.019516
2938	0.0261732
2950	0.0245276
2962	0.0217328
2974	0.0093092
2986	0.0027404
2998	0.0013872
3010	0.0010404
3022	0.0009384
3034	0.0008568
3046	0.000748
3058	0.0007344
3070	0.0006664
3082	0.0005916
3094	0.0005304
3106	0.0004216
3118	0.0003808
3130	0.0003264
3142	0.000306
3154	0.000272
3166	0.0002652
3178	0.000204
3190	0.0001904
3202	8.16e-05
3214	7.48e-05
3226	8.84e-05
3238	9.52e-05
3250	7.48e-05
3262	6.8e-05
3274	1.36e-05
3286	7.48e-05
3298	6.12e-05
3310	0.000102
3322	0.0001088
3334	0.0001428
3346	0.0001292
3358	0.0001224
3370	0.0001428
3382	0.0001496
3394	0.0001224
3406	0.0001428
3418	0.0001768
3430	0.0001768
3442	0.0001836
3454	0.0002176
3466	0.0002244
3478	0.0004012
3490	0.000544
3502	0.000476
3514	0.0003128
3526	0.0002584
3538	0.0002176
3550	0.0002176
3562	0.0001564
3574	0.0002108
3586	0.0001768
3598	0.0001972
3610	0.0001632
3622	0.0002312
3634	0.0002108
3646	0.00017
3658	0.00017
3670	0.0001632
3682	0.0001836
3694	0.0002312
3706	0.0001632
3718	0.000238
3730	0.0002108
3742	0.0001836
3754	0.000238
3766	0.0002652
3778	0.0002516
3790	0.0002448
3802	0.0002448
3814	0.0002992
3826	0.0002652
3838	0.000272
