Infrared Spectrum: CYCLOTHIAZIDE
Formula: C14 H16 Cl N3 O4 S2
CAS: 2259-96-3
State: SOLID (KBr DISC) VS KCl
Class: COBLENTZ III
Instrument: PERKIN-ELMER 21 (GRATING)
Instrument parameters: FILTER AT ABOUT 10 MICRONS
Sampling: TRANSMISSION
Resolution: 2
1/CM	TRANSMITTANCE
4000	0.936
3991	0.9362
3982	0.9363
3973	0.9365
3964	0.9367
3955	0.9368
3946	0.937
3937	0.9371
3928	0.9371
3919	0.9373
3910	0.9373
3901	0.9374
3892	0.9374
3883	0.9375
3874	0.9375
3865	0.9375
3856	0.9375
3847	0.9375
3838	0.9375
3829	0.9375
3820	0.9375
3811	0.9375
3802	0.9375
3793	0.9375
3784	0.9375
3775	0.9373
3766	0.9371
3757	0.937
3748	0.9365
3739	0.9362
3730	0.9359
3721	0.9356
3712	0.9341
3703	0.9307
3694	0.9268
3685	0.9225
3676	0.9175
3667	0.9121
3658	0.907
3649	0.9012
3640	0.8953
3631	0.8894
3622	0.8827
3613	0.8759
3604	0.8675
3595	0.8611
3586	0.8556
3577	0.8504
3568	0.8465
3559	0.8443
3550	0.8423
3541	0.8402
3532	0.837
3523	0.8328
3514	0.8265
3505	0.8193
3496	0.8075
3487	0.7942
3478	0.7804
3469	0.7647
3460	0.7311
3451	0.6756
3442	0.6214
3433	0.5671
3424	0.5124
3415	0.4698
3406	0.4684
3397	0.4708
3388	0.482
3379	0.4934
3370	0.5047
3361	0.5162
3352	0.5278
3343	0.5323
3334	0.5279
3325	0.5027
3316	0.4762
3307	0.4515
3298	0.452
3289	0.4603
3280	0.486
3271	0.512
3262	0.5381
3253	0.5643
3244	0.5907
3235	0.6172
3226	0.6439
3217	0.6707
3208	0.6975
3199	0.7248
3190	0.7431
3181	0.7568
3172	0.7614
3163	0.7624
3154	0.7634
3145	0.7638
3136	0.7642
3127	0.7647
3118	0.7658
3109	0.7675
3100	0.7718
3091	0.7774
3082	0.7839
3073	0.7911
3064	0.799
3055	0.8051
3046	0.8068
3037	0.8047
3028	0.7938
3019	0.7641
3010	0.7271
3001	0.7101
2992	0.6985
2983	0.6938
2974	0.6935
2965	0.6951
2956	0.7007
2947	0.7139
2938	0.7351
2929	0.7565
2920	0.7675
2911	0.7718
2902	0.7738
2893	0.776
2884	0.7818
2875	0.7911
2866	0.8058
2857	0.8288
2848	0.8465
2839	0.8604
2830	0.8717
2821	0.8816
2812	0.891
2803	0.8961
2794	0.9011
2785	0.9058
2776	0.9087
2767	0.9117
2758	0.9143
2749	0.9158
2740	0.9171
2731	0.9181
2722	0.9186
2713	0.9191
2704	0.9196
2695	0.9201
2686	0.9207
2677	0.9214
2668	0.9221
2659	0.9228
2650	0.9236
2641	0.9243
2632	0.9249
2623	0.9256
2614	0.9262
2605	0.9267
2596	0.9271
2587	0.9274
2578	0.9277
2569	0.9281
2560	0.9287
2551	0.9293
2542	0.9299
2533	0.9306
2524	0.9313
2515	0.9327
2506	0.9341
2497	0.9355
2488	0.937
2479	0.9383
2470	0.9393
2461	0.9403
2452	0.9412
2443	0.9421
2434	0.9433
2425	0.9442
2416	0.9447
2407	0.9452
2398	0.9457
2389	0.9462
2380	0.9467
2371	0.9471
2362	0.9477
2353	0.9482
2344	0.9488
2335	0.9494
2326	0.9499
2317	0.9505
2308	0.9511
2299	0.9515
2290	0.9518
2281	0.9521
2272	0.9523
2263	0.9525
2254	0.9528
2245	0.9532
2236	0.9531
2227	0.9531
2218	0.9531
2209	0.9531
2200	0.9531
2191	0.9532
2182	0.9533
2173	0.9533
2164	0.9535
2155	0.9536
2146	0.9537
2137	0.9539
2128	0.954
2119	0.9543
2110	0.9547
2101	0.9552
2092	0.9557
2083	0.9561
2074	0.9564
2065	0.9566
2056	0.9568
2047	0.957
2038	0.9571
2029	0.9574
2020	0.9575
2011	0.9577
2002	0.9578
1993	0.958
1984	0.9584
1975	0.9588
1966	0.9594
1957	0.9599
1948	0.9603
1939	0.9604
1930	0.9604
1921	0.9605
1912	0.9603
1903	0.9602
1894	0.96
1885	0.96
1876	0.96
1867	0.9601
1858	0.9604
1849	0.9608
1840	0.961
1831	0.9594
1822	0.9544
1813	0.9496
1804	0.9494
1795	0.9499
1786	0.9517
1777	0.9495
1768	0.9447
1759	0.9341
1750	0.9192
1741	0.9142
1732	0.9128
1723	0.9135
1714	0.9152
1705	0.9159
1696	0.9145
1687	0.9098
1678	0.8995
1669	0.886
1660	0.8683
1651	0.8458
1642	0.8195
1633	0.7751
1624	0.6244
1615	0.2864
1606	0.1377
1597	0.5026
1588	0.6953
1579	0.7168
1570	0.6695
1561	0.5922
1552	0.6936
1543	0.7633
1534	0.7768
1525	0.6162
1516	0.4882
1507	0.4504
1498	0.5444
1489	0.7015
1480	0.7631
1471	0.7483
1462	0.7481
1453	0.8061
1444	0.8221
1435	0.8032
1426	0.7695
1417	0.793
1408	0.8192
1399	0.7987
1390	0.7861
1381	0.7808
1372	0.6415
1363	0.4658
1354	0.2878
1345	0.2429
1336	0.2888
1327	0.3645
1318	0.3662
1309	0.3974
1300	0.4684
1291	0.6359
1282	0.6937
1273	0.6975
1264	0.6978
1255	0.7525
1246	0.6887
1237	0.6969
1228	0.8074
1219	0.8399
1210	0.8314
1201	0.7637
1192	0.6565
1183	0.2806
1174	0.1498
1165	0.1849
1156	0.2376
1147	0.5127
1138	0.6584
1129	0.61
1120	0.6918
1111	0.6618
1102	0.6105
1093	0.6794
1084	0.572
1075	0.5107
1066	0.6778
1057	0.6936
1048	0.6388
1039	0.6162
1030	0.6576
1021	0.7371
1012	0.8022
1003	0.8
994	0.7749
985	0.6548
976	0.7186
967	0.6841
958	0.6406
949	0.6224
940	0.6159
931	0.6895
922	0.7221
913	0.6721
904	0.655
895	0.7337
886	0.7745
877	0.7768
868	0.7274
859	0.7562
850	0.7825
841	0.8353
832	0.8339
823	0.847
814	0.8487
805	0.8268
796	0.7894
787	0.7375
778	0.6899
769	0.6404
760	0.6192
751	0.6288
742	0.5992
733	0.5857
724	0.5575
715	0.6092
706	0.6901
697	0.7242
688	0.6551
679	0.6892
670	0.7099
