Infrared Spectrum: CARBOSTYRIL, N-METHYL-6-(TRIFLUOROMETHYL)-
Formula: C11 H8 F3 N O
CAS: 2261-94-1
State: SOLID (OIL MULL)
Class: COBLENTZ III
Instrument: PERKIN-ELMER 21 (GRATING)
Instrument parameters: NaCl PRISM
Sampling: TRANSMISSION
Resolution: 2
Origin: SMITH KLINE & FRENCH LABS.
MICROMETERS	TRANSMITTANCE
2.013	0.362
2.04722	0.369
2.08143	0.388
2.11565	0.387
2.14986	0.388
2.18408	0.39
2.21829	0.387
2.25251	0.398
2.28672	0.411
2.32094	0.423
2.35515	0.428
2.38937	0.431
2.42358	0.442
2.4578	0.442
2.49201	0.448
2.52623	0.451
2.56044	0.468
2.59466	0.476
2.62887	0.478
2.66309	0.478
2.6973	0.485
2.73152	0.494
2.76573	0.499
2.79995	0.504
2.83416	0.505
2.86838	0.51
2.90259	0.516
2.93681	0.516
2.97102	0.525
3.00524	0.533
3.03945	0.534
3.07367	0.533
3.10788	0.536
3.1421	0.553
3.17631	0.561
3.21053	0.562
3.24474	0.56
3.27896	0.542
3.31317	0.522
3.34739	0.501
3.3816	0.33
3.41582	0.111
3.45003	0.081
3.48425	0.089
3.51846	0.112
3.55268	0.25
3.58689	0.44
3.62111	0.562
3.65532	0.603
3.68954	0.614
3.72375	0.62
3.75797	0.621
3.79218	0.633
3.8264	0.633
3.86061	0.642
3.89483	0.649
3.92904	0.663
3.96326	0.671
3.99747	0.676
4.03169	0.678
4.0659	0.678
4.10012	0.682
4.13433	0.698
4.16855	0.695
4.20276	0.708
4.23698	0.713
4.27119	0.713
4.30541	0.722
4.33962	0.722
4.37384	0.722
4.40805	0.726
4.44227	0.732
4.47648	0.732
4.5107	0.736
4.54491	0.742
4.57913	0.743
4.61334	0.75
4.64756	0.752
4.68177	0.759
4.71599	0.76
4.7502	0.76
4.78442	0.763
4.81863	0.772
4.85285	0.77
4.88706	0.768
4.92128	0.772
4.95549	0.781
4.98971	0.778
5.02392	0.786
5.05814	0.788
5.09235	0.792
5.12657	0.799
5.16078	0.799
5.195	0.807
5.22921	0.808
5.26343	0.81
5.29764	0.81
5.33186	0.815
5.36607	0.816
5.40029	0.818
5.4345	0.82
5.46872	0.825
5.50293	0.82
5.53715	0.816
5.57136	0.819
5.60558	0.818
5.63979	0.818
5.67401	0.813
5.70822	0.81
5.74244	0.797
5.77665	0.791
5.81087	0.799
5.84508	0.796
5.8793	0.749
5.91351	0.503
5.94773	0.35
5.98194	0.164
6.01616	0.122
6.05037	0.129
6.08459	0.269
6.1188	0.349
6.15302	0.377
6.18723	0.529
6.22145	0.352
6.25566	0.271
6.28988	0.291
6.32409	0.424
6.35831	0.406
6.39252	0.499
6.42674	0.579
6.46095	0.643
6.49517	0.648
6.52938	0.67
6.5636	0.678
6.59781	0.688
6.63203	0.681
6.66624	0.688
6.70046	0.702
6.73467	0.692
6.76889	0.605
6.8031	0.379
6.83732	0.312
6.87153	0.317
6.90575	0.38
6.93996	0.509
6.97418	0.57
7.00839	0.538
7.04261	0.492
7.07682	0.633
7.11104	0.699
7.14525	0.722
7.17947	0.689
7.21368	0.539
7.2479	0.449
7.28211	0.439
7.31633	0.493
7.35054	0.493
7.38476	0.426
7.41897	0.352
7.45319	0.272
7.4874	0.266
7.52162	0.229
7.55583	0.137
7.59005	0.2
7.62426	0.268
7.65848	0.162
7.69269	0.184
7.72691	0.329
7.76112	0.449
7.79534	0.51
7.82955	0.559
7.86377	0.551
7.89798	0.51
7.9322	0.532
7.96641	0.605
8.00063	0.603
8.03484	0.6
8.06906	0.659
8.10327	0.682
8.13749	0.697
8.1717	0.688
8.20592	0.551
8.24013	0.323
8.27435	0.238
8.30856	0.181
8.34278	0.352
8.37699	0.492
8.41121	0.518
8.44542	0.478
8.47964	0.366
8.51385	0.35
8.54807	0.317
8.58228	0.297
8.6165	0.31
8.65071	0.344
8.68493	0.318
8.71914	0.228
8.75336	0.159
8.78757	0.168
8.82179	0.223
8.856	0.239
8.89022	0.207
8.92443	0.157
8.95865	0.122
8.99286	0.111
9.02708	0.111
9.06129	0.12
9.09551	0.168
9.12972	0.251
9.16394	0.288
9.19815	0.169
9.23237	0.179
9.26658	0.358
9.3008	0.479
9.33501	0.572
9.36923	0.625
9.40344	0.639
9.43766	0.644
9.47187	0.641
9.50609	0.627
9.5403	0.66
9.57452	0.702
9.60873	0.715
9.64295	0.716
9.67716	0.721
9.71138	0.725
9.74559	0.731
9.77981	0.735
9.81402	0.737
9.84824	0.731
9.88245	0.75
9.91667	0.753
9.95088	0.752
9.9851	0.75
10.0193	0.75
10.0535	0.75
10.0877	0.75
10.122	0.75
10.1562	0.752
10.1904	0.75
10.2246	0.731
10.2588	0.738
10.293	0.755
10.3272	0.757
10.3615	0.764
10.3957	0.763
10.4299	0.761
10.4641	0.765
10.4983	0.768
10.5325	0.759
10.5668	0.76
10.601	0.761
10.6352	0.769
10.6694	0.76
10.7036	0.748
10.7378	0.721
10.772	0.709
10.8063	0.706
10.8405	0.706
10.8747	0.713
10.9089	0.719
10.9431	0.711
10.9773	0.709
11.0115	0.691
11.0458	0.55
11.08	0.485
11.1142	0.522
11.1484	0.571
11.1826	0.597
11.2168	0.511
11.2511	0.463
11.2853	0.531
11.3195	0.649
11.3537	0.72
11.3879	0.757
11.4221	0.768
11.4563	0.772
11.4906	0.781
11.5248	0.789
11.559	0.789
11.5932	0.791
11.6274	0.792
11.6616	0.778
11.6958	0.757
11.7301	0.75
11.7643	0.732
11.7985	0.711
11.8327	0.691
11.8669	0.667
11.9011	0.612
11.9354	0.582
11.9696	0.548
12.0038	0.498
12.038	0.463
12.0722	0.468
12.1064	0.538
12.1406	0.561
12.1749	0.499
12.2091	0.347
12.2433	0.319
12.2775	0.379
12.3117	0.539
12.3459	0.677
12.3801	0.742
12.4144	0.776
12.4486	0.796
12.4828	0.799
12.517	0.749
12.5512	0.732
12.5854	0.763
12.6197	0.798
12.6539	0.811
12.6881	0.826
12.7223	0.838
12.7565	0.84
12.7907	0.841
12.8249	0.842
12.8592	0.842
12.8934	0.836
12.9276	0.838
12.9618	0.825
12.996	0.799
13.0302	0.706
13.0644	0.7
13.0987	0.75
13.1329	0.811
13.1671	0.83
13.2013	0.831
13.2355	0.84
13.2697	0.84
13.304	0.837
13.3382	0.841
13.3724	0.837
13.4066	0.838
13.4408	0.837
13.475	0.837
13.5092	0.837
13.5435	0.827
13.5777	0.821
13.6119	0.814
13.6461	0.797
13.6803	0.753
13.7145	0.77
13.7487	0.787
13.783	0.797
13.8172	0.798
13.8514	0.797
13.8856	0.796
13.9198	0.794
13.954	0.794
13.9883	0.799
14.0225	0.802
14.0567	0.797
14.0909	0.791
14.1251	0.791
14.1593	0.749
14.1935	0.721
14.2278	0.671
14.262	0.598
14.2962	0.584
14.3304	0.656
14.3646	0.716
14.3988	0.757
14.433	0.776
14.4673	0.776
14.5015	0.778
14.5357	0.78
14.5699	0.78
14.6041	0.776
14.6383	0.776
14.6726	0.776
14.7068	0.775
14.741	0.76
14.7752	0.754
14.8094	0.749
14.8436	0.752
14.8778	0.747
14.9121	0.738
14.9463	0.728
14.9805	0.717
15.0147	0.698
15.0489	0.71
15.0831	0.716
15.1173	0.703
15.1516	0.703
15.1858	0.699
15.22	0.699
15.2542	0.697
15.2884	0.686
15.3226	0.687
