Infrared Spectrum: BUTANOIC ACID, 4-([4H, 5H]THIAZOL-2-YLTHIO)-, ETHYL ESTER
Formula: C9 H15 N O2 S2
CAS: 22623-65-0
State: LIQUID (NEAT)
Class: COBLENTZ III
Instrument: PERKIN-ELMER 521 (GRATING)
Instrument parameters: GRATING FOR 2000, 620, FILTERS AT 3130, 2475, 2000, 1150, 700, 410 CM^-^1
Sampling: TRANSMISSION
Path length: CAPILLARY
Resolution: 4
Origin: SOUTHERN RESEARCH INSTITUTE
1/CM	TRANSMITTANCE
257.853	0.803
267.015	0.846
276.178	0.871
285.34	0.875
294.502	0.885
303.665	0.893
312.827	0.892
321.989	0.896
331.151	0.906
340.314	0.905
349.476	0.905
358.638	0.912
367.801	0.905
376.963	0.91
386.125	0.909
395.288	0.908
404.45	0.927
413.612	0.922
422.775	0.935
431.937	0.914
441.099	0.926
450.261	0.931
459.424	0.937
468.586	0.931
477.748	0.942
486.911	0.944
496.073	0.944
505.235	0.95
514.398	0.944
523.56	0.937
532.722	0.904
541.885	0.933
551.047	0.933
560.209	0.923
569.372	0.896
578.534	0.885
587.696	0.908
596.858	0.909
606.021	0.8951
615.183	0.885
624.345	0.878
633.508	0.853
642.67	0.836
651.832	0.876
660.995	0.884
670.157	0.887
679.319	0.883
688.482	0.876
697.644	0.861
706.806	0.867
715.968	0.874
725.131	0.872
734.293	0.876
743.455	0.875
752.618	0.878
761.78	0.876
770.942	0.865
780.105	0.844
789.267	0.857
798.429	0.87
807.592	0.88
816.754	0.885
825.916	0.872
835.078	0.863
844.241	0.846
853.403	0.807
862.565	0.823
871.728	0.842
880.89	0.853
890.052	0.862
899.215	0.841
908.377	0.7641
917.539	0.5332
926.702	0.657
935.864	0.771
945.026	0.739
954.189	0.587
963.351	0.387
972.513	0.5339
981.675	0.626
990.838	0.507
1000	0.5619
1009.16	0.643
1018.32	0.566
1027.49	0.606
1036.65	0.57
1045.81	0.659
1054.97	0.663
1064.14	0.7389
1073.3	0.802
1082.46	0.791
1091.62	0.741
1100.79	0.775
1109.95	0.752
1119.11	0.718
1128.27	0.6131
1137.43	0.539
1146.6	0.558
1155.76	0.576
1164.92	0.53
1174.08	0.454
1183.25	0.452
1192.41	0.45
1201.57	0.457
1210.73	0.482
1219.9	0.536
1229.06	0.529
1238.22	0.5669
1247.38	0.622
1256.54	0.614
1265.71	0.629
1274.87	0.646
1284.03	0.614
1293.19	0.566
1302.36	0.529
1311.52	0.57
1320.68	0.709
1329.84	0.731
1339.01	0.711
1348.17	0.674
1357.33	0.719
1366.49	0.5541
1375.65	0.5969
1384.82	0.684
1393.98	0.718
1403.14	0.702
1412.3	0.678
1421.47	0.716
1430.63	0.657
1439.79	0.634
1448.95	0.671
1458.12	0.698
1467.28	0.75
1476.44	0.768
1485.6	0.7641
1494.76	0.745
1503.93	0.792
1513.09	0.8249
1522.25	0.85
1531.41	0.842
1540.58	0.812
1549.74	0.7032
1558.9	0.456
1568.06	0.336
1577.23	0.5418
1586.39	0.7639
1595.55	0.813
1604.71	0.844
1613.87	0.859
1623.04	0.867
1632.2	0.87
1641.36	0.87
1650.52	0.866
1659.69	0.865
1668.85	0.857
1678.01	0.832
1687.17	0.798
1696.34	0.7371
1705.5	0.6501
1714.66	0.4151
1723.82	0.191
1732.98	0.221
1742.15	0.4899
1751.31	0.739
1760.47	0.804
1769.63	0.823
1778.8	0.847
1787.96	0.867
1797.12	0.878
1806.28	0.887
1815.45	0.892
1824.61	0.896
1833.77	0.895
1842.93	0.896
1852.09	0.897
1861.26	0.897
1870.42	0.895
1879.58	0.895
1888.74	0.895
1897.91	0.895
1907.07	0.895
1916.23	0.895
1925.39	0.896
1934.56	0.892
1943.72	0.8821
1952.88	0.892
1962.04	0.895
1971.2	0.892
1980.37	0.892
1989.53	0.895
1998.69	0.896
2007.85	0.895
2017.02	0.888
2026.18	0.893
2035.34	0.895
2044.5	0.893
2053.67	0.893
2062.83	0.893
2071.99	0.895
2081.15	0.893
2090.31	0.892
2099.48	0.896
2108.64	0.897
2117.8	0.897
2126.96	0.897
2136.13	0.899
2145.29	0.899
2154.45	0.899
2163.61	0.899
2172.78	0.899
2181.94	0.899
2191.1	0.899
2200.26	0.897
2209.42	0.8988
2218.59	0.896
2227.75	0.895
2236.91	0.896
2246.07	0.896
2255.24	0.895
2264.4	0.893
2273.56	0.896
2282.72	0.895
2291.89	0.895
2301.05	0.895
2310.21	0.896
2319.37	0.896
2328.53	0.896
2337.7	0.895
2346.86	0.895
2356.02	0.896
2365.18	0.892
2374.35	0.8872
2383.51	0.887
2392.67	0.885
2401.83	0.885
2411	0.885
2420.16	0.883
2429.32	0.8848
2438.48	0.885
2447.64	0.885
2456.81	0.885
2465.97	0.882
2475.13	0.883
2484.29	0.882
2493.46	0.882
2502.62	0.882
2511.78	0.88
2520.94	0.88
2530.11	0.88
2539.27	0.88
2548.43	0.8792
2557.59	0.879
2566.75	0.879
2575.92	0.879
2585.08	0.878
2594.24	0.8775
2603.4	0.876
2612.57	0.876
2621.73	0.878
2630.89	0.875
2640.05	0.8753
2649.22	0.875
2658.38	0.8726
2667.54	0.872
2676.7	0.871
2685.86	0.87
2695.03	0.871
2704.19	0.867
2713.35	0.866
2722.51	0.866
2731.68	0.865
2740.84	0.863
2750	0.859
2759.16	0.8573
2768.33	0.857
2777.49	0.8533
2786.65	0.851
2795.81	0.8477
2804.97	0.8413
2814.14	0.8323
2823.3	0.8244
2832.46	0.8067
2841.62	0.7543
2850.79	0.7096
2859.95	0.7306
2869.11	0.7366
2878.27	0.739
2887.44	0.7274
2896.6	0.6915
2905.76	0.6557
2914.92	0.6354
2924.09	0.5974
2933.25	0.5704
2942.41	0.5852
2951.57	0.6052
2960.73	0.619
2969.9	0.6065
2979.06	0.5757
2988.22	0.6449
2997.38	0.715
3006.55	0.7764
3015.71	0.8092
3024.87	0.8236
3034.03	0.829
3043.2	0.829
3052.36	0.83
3061.52	0.829
3070.68	0.829
3079.84	0.8269
3089.01	0.824
3098.17	0.8205
3107.33	0.815
3116.49	0.812
3125.66	0.816
3134.82	0.817
3143.98	0.817
3153.14	0.819
3162.31	0.817
3171.47	0.817
3180.63	0.819
3189.79	0.819
3198.95	0.818
3208.12	0.816
3217.28	0.815
3226.44	0.813
3235.6	0.811
3244.77	0.8085
3253.93	0.807
3263.09	0.804
3272.25	0.806
3281.42	0.804
3290.58	0.804
3299.74	0.804
3308.9	0.804
3318.06	0.806
3327.23	0.808
3336.39	0.809
3345.55	0.812
3354.71	0.815
3363.88	0.816
3373.04	0.819
3382.2	0.82
3391.36	0.82
3400.53	0.8204
3409.69	0.819
3418.85	0.812
3428.01	0.812
3437.17	0.816
3446.34	0.8164
3455.5	0.821
3464.66	0.8244
3473.82	0.8254
3482.99	0.828
3492.15	0.828
3501.31	0.828
3510.47	0.828
3519.64	0.828
3528.8	0.826
3537.96	0.826
3547.12	0.826
3556.28	0.826
3565.45	0.8267
3574.61	0.828
3583.77	0.828
3592.93	0.828
3602.1	0.828
3611.26	0.829
3620.42	0.8266
3629.58	0.828
3638.75	0.829
3647.91	0.828
3657.07	0.829
3666.23	0.8306
3675.39	0.828
3684.56	0.834
3693.72	0.836
3702.88	0.836
3712.04	0.834
3721.21	0.834
3730.37	0.837
3739.53	0.832
3748.69	0.832
3757.86	0.829
3767.02	0.8288
3776.18	0.8265
3785.34	0.8275
3794.5	0.826
