Infrared Spectrum: PYRIMIDINE, 4-(METHYLAMINO)-
Formula: C5 H7 N3
CAS: 22632-10-6
State: SOLID (0.7 mg / 650 mg KBr DISC)
Class: COBLENTZ III
Instrument: PERKIN-ELMER 21 (GRATING)
Instrument parameters: FILTER CHANGE ABOUT 1020 CM^-^1
Sampling: TRANSMISSION
Resolution: 4
Origin: SOUTHERN RESEARCH INSTITUTE
1/CM	TRANSMITTANCE
602.509	0.574
611.169	0.573
619.829	0.573
628.488	0.573
637.148	0.5724
645.808	0.5695
654.468	0.566
663.128	0.5574
671.787	0.5398
680.447	0.564
689.107	0.563
697.767	0.564
706.426	0.5622
715.086	0.558
723.746	0.553
732.406	0.552
741.066	0.552
749.725	0.558
758.385	0.5663
767.045	0.5745
775.705	0.6032
784.365	0.65
793.024	0.6443
801.684	0.6109
810.344	0.5737
819.004	0.5559
827.664	0.5327
836.323	0.4115
844.983	0.4689
853.643	0.6499
862.303	0.667
870.962	0.665
879.622	0.6632
888.282	0.663
896.942	0.662
905.602	0.661
914.261	0.658
922.921	0.6482
931.581	0.6187
940.241	0.6017
948.901	0.5799
957.56	0.5569
966.22	0.4868
974.88	0.4097
983.54	0.4387
992.2	0.7169
1000.86	0.7649
1009.52	0.7482
1018.18	0.765
1026.84	0.7238
1035.5	0.7036
1044.16	0.6909
1052.82	0.6761
1061.48	0.6524
1070.14	0.5986
1078.8	0.5347
1087.46	0.6424
1096.12	0.6575
1104.78	0.6546
1113.44	0.6444
1122.1	0.6168
1130.76	0.6332
1139.42	0.658
1148.08	0.6582
1156.74	0.6508
1165.4	0.6302
1174.06	0.6042
1182.71	0.601
1191.37	0.619
1200.03	0.6177
1208.69	0.5995
1217.35	0.5538
1226.01	0.536
1234.67	0.547
1243.33	0.5976
1251.99	0.6188
1260.65	0.6075
1269.31	0.5833
1277.97	0.5681
1286.63	0.5557
1295.29	0.5423
1303.95	0.4859
1312.61	0.4043
1321.27	0.3282
1329.93	0.5106
1338.59	0.581
1347.25	0.5464
1355.91	0.4499
1364.57	0.4057
1373.23	0.4559
1381.89	0.411
1390.55	0.3038
1399.21	0.3704
1407.87	0.6499
1416.53	0.7011
1425.19	0.6845
1433.85	0.6515
1442.51	0.5844
1451.17	0.5715
1459.83	0.5598
1468.49	0.5471
1477.15	0.5009
1485.81	0.4481
1494.47	0.4981
1503.13	0.4773
1511.79	0.4281
1520.45	0.41
1529.11	0.4334
1537.77	0.5189
1546.43	0.5247
1555.09	0.4663
1563.75	0.4198
1572.41	0.4033
1581.07	0.3579
1589.72	0.3106
1598.38	0.2301
1607.04	0.1385
1615.7	0.1403
1624.36	0.1865
1633.02	0.286
1641.68	0.4257
1650.34	0.5035
1659	0.5539
1667.66	0.6002
1676.32	0.6459
1684.98	0.6847
1693.64	0.7059
1702.3	0.7657
1710.96	0.7878
1719.62	0.7985
1728.28	0.8116
1736.94	0.8256
1745.6	0.8394
1754.26	0.8471
1762.92	0.85
1771.58	0.8529
1780.24	0.853
1788.9	0.854
1797.56	0.8494
1806.22	0.8344
1814.88	0.825
1823.54	0.831
1832.2	0.8395
1840.86	0.853
1849.52	0.852
1858.18	0.852
1866.84	0.854
1875.5	0.8505
1884.16	0.8443
1892.82	0.8399
1901.48	0.834
1910.14	0.832
1918.8	0.833
1927.46	0.8297
1936.12	0.8269
1944.78	0.825
1953.44	0.8191
1962.1	0.8152
1970.76	0.8046
1979.42	0.7974
1988.08	0.794
1996.74	0.7998
2005.39	0.8073
2014.05	0.808
2022.71	0.808
2031.37	0.805
2040.03	0.804
2048.69	0.801
2057.35	0.798
2066.01	0.798
2074.67	0.798
2083.33	0.798
2091.99	0.797
2100.65	0.797
2109.31	0.795
2117.97	0.788
2126.63	0.789
2135.29	0.788
2143.95	0.783
2152.61	0.782
2161.27	0.7824
2169.93	0.784
2178.59	0.786
2187.25	0.786
2195.91	0.7826
2204.57	0.779
2213.23	0.776
2221.89	0.775
2230.55	0.773
2239.21	0.7706
2247.87	0.7724
2256.53	0.773
2265.19	0.772
2273.85	0.7666
2282.51	0.7646
2291.17	0.765
2299.83	0.768
2308.49	0.77
2317.15	0.77
2325.81	0.77
2334.47	0.77
2343.13	0.771
2351.79	0.77
2360.45	0.7704
2369.11	0.768
2377.77	0.764
2386.43	0.7546
2395.09	0.7426
2403.75	0.7343
2412.4	0.7283
2421.06	0.7223
2429.72	0.716
2438.38	0.713
2447.04	0.7164
2455.7	0.721
2464.36	0.728
2473.02	0.732
2481.68	0.732
2490.34	0.731
2499	0.729
2507.66	0.7253
2516.32	0.716
2524.98	0.7063
2533.64	0.7013
2542.3	0.698
2550.96	0.696
2559.62	0.696
2568.28	0.6936
2576.94	0.69
2585.6	0.688
2594.26	0.687
2602.92	0.685
2611.58	0.685
2620.24	0.684
2628.9	0.6826
2637.56	0.6786
2646.22	0.678
2654.88	0.674
2663.54	0.673
2672.2	0.6686
2680.86	0.6656
2689.52	0.662
2698.18	0.663
2706.84	0.661
2715.5	0.66
2724.16	0.6566
2732.82	0.655
2741.48	0.651
2750.14	0.6449
2758.8	0.6302
2767.46	0.6173
2776.12	0.6056
2784.78	0.5916
2793.44	0.5796
2802.1	0.575
2810.76	0.5696
2819.42	0.566
2828.07	0.5603
2836.73	0.5526
2845.39	0.5476
2854.05	0.5396
2862.71	0.5306
2871.37	0.5182
2880.03	0.5036
2888.69	0.4963
2897.35	0.4889
2906.01	0.482
2914.67	0.48
2923.33	0.479
2931.99	0.4814
2940.65	0.4938
2949.31	0.5067
2957.97	0.5144
2966.63	0.5224
2975.29	0.528
2983.95	0.5253
2992.61	0.523
3001.27	0.5261
3009.93	0.528
3018.59	0.528
3027.25	0.526
3035.91	0.525
3044.57	0.5284
3053.23	0.535
3061.89	0.5478
3070.55	0.557
3079.21	0.557
3087.87	0.5543
3096.53	0.544
3105.19	0.541
3113.85	0.536
3122.51	0.53
3131.17	0.5296
3139.83	0.5317
3148.49	0.5321
3157.15	0.541
3165.81	0.5514
3174.47	0.561
3183.13	0.5586
3191.79	0.555
3200.45	0.553
3209.11	0.55
3217.77	0.5329
3226.43	0.5123
3235.08	0.4896
3243.74	0.4619
3252.4	0.4526
3261.06	0.453
3269.72	0.4577
3278.38	0.4714
3287.04	0.5004
3295.7	0.5161
3304.36	0.5334
3313.02	0.5481
3321.68	0.5591
3330.34	0.5754
3339	0.597
3347.66	0.6181
3356.32	0.6384
3364.98	0.6454
3373.64	0.6454
3382.3	0.646
3390.96	0.6464
3399.62	0.647
3408.28	0.646
3416.94	0.6466
3425.6	0.646
3434.26	0.647
3442.92	0.65
3451.58	0.652
3460.24	0.654
3468.9	0.654
3477.56	0.6554
3486.22	0.656
3494.88	0.66
3503.54	0.6614
3512.2	0.665
3520.86	0.666
3529.52	0.669
3538.18	0.6747
3546.84	0.678
3555.5	0.6784
3564.16	0.685
3572.82	0.688
3581.48	0.6934
3590.14	0.6954
3598.8	0.698
3607.46	0.7014
3616.12	0.7064
3624.78	0.712
3633.44	0.722
3642.09	0.728
3650.75	0.729
3659.41	0.729
3668.07	0.729
3676.73	0.7284
3685.39	0.729
3694.05	0.731
3702.71	0.731
3711.37	0.731
3720.03	0.731
3728.69	0.734
3737.35	0.734
3746.01	0.734
3754.67	0.731
3763.33	0.729
3771.99	0.731
3780.65	0.7297
3789.31	0.733
3797.97	0.735
3806.63	0.735
3815.29	0.7336
3823.95	0.732
3832.61	0.729
3841.27	0.7253
3849.93	0.718
3858.59	0.7116
3867.25	0.709
3875.91	0.71
3884.57	0.71
3893.23	0.71
3901.89	0.71
