Infrared Spectrum: 2,4-Difluoroiodobenzene
Formula: C 6 H 3 F 2 I
CAS: 2265-93-2
State: gas
Origin: EPA-IR VAPOR PHASE LIBRARY
1/CM	ABSORBANCE
549.9	0.0015376
559.547	0.0013677
569.193	0.003227
578.84	0.008597
588.486	0.007047
598.133	0.002847
607.779	0.002847
617.426	0.001466
627.072	0.000597
636.719	0.000527
646.365	0.000556
656.012	0.000512
665.658	0.000542
675.305	0.000759
684.951	0.000704
694.598	0.000687
704.245	0.000601
713.891	0.000695
723.538	0.0013566
733.184	0.0014471
742.831	0.0013517
752.477	0.0009392
762.124	0.000725
771.77	0.0011787
781.417	0.0016484
791.063	0.003557
800.71	0.005577
810.356	0.003807
820.003	0.001845
829.649	0.0019581
839.296	0.005587
848.943	0.010747
858.589	0.009637
868.236	0.004707
877.882	0.0014158
887.529	0.00086
897.175	0.000798
906.822	0.0009162
916.468	0.0009292
926.115	0.000753
935.761	0.00102484
945.408	0.0017586
955.054	0.005187
964.701	0.014337
974.347	0.008997
983.994	0.0018621
993.64	0.000877
1003.29	0.0008867
1012.93	0.0011771
1022.58	0.002747
1032.23	0.005527
1041.87	0.003267
1051.52	0.0017936
1061.17	0.0013203
1070.81	0.00103658
1080.46	0.0011609
1090.11	0.002087
1099.75	0.008577
1109.4	0.011327
1119.05	0.004567
1128.69	0.007927
1138.34	0.017207
1147.99	0.018547
1157.63	0.009287
1167.28	0.003777
1176.92	0.0014761
1186.57	0.0012681
1196.22	0.000629
1205.86	0.000834
1215.51	0.000763
1225.16	0.0018954
1234.8	0.002857
1244.45	0.004857
1254.1	0.012097
1263.74	0.014377
1273.39	0.008647
1283.04	0.013727
1292.68	0.015827
1302.33	0.007077
1311.98	0.003187
1321.62	0.0015929
1331.27	0.0011816
1340.92	0.00103822
1350.56	0.00100625
1360.21	0.0011788
1369.86	0.0016671
1379.5	0.002267
1389.15	0.002837
1398.79	0.004507
1408.44	0.007817
1418.09	0.011237
1427.73	0.009127
1437.38	0.004307
1447.03	0.005907
1456.67	0.012427
1466.32	0.013137
1475.97	0.028997
1485.61	0.030817
1495.26	0.008287
1504.91	0.002577
1514.55	0.002097
1524.2	0.002217
1533.85	0.002277
1543.49	0.002677
1553.14	0.002737
1562.79	0.004257
1572.43	0.009657
1582.08	0.018077
1591.73	0.023627
1601.37	0.017837
1611.02	0.012367
1620.67	0.005507
1630.31	0.003067
1639.96	0.002297
1649.6	0.0016307
1659.25	0.0013178
1668.9	0.00104462
1678.54	0.0010328
1688.19	0.001291
1697.84	0.0013536
1707.48	0.0013257
1717.13	0.0012183
1726.78	0.0012617
1736.42	0.0011616
1746.07	0.0009222
1755.72	0.000825
1765.36	0.000786
1775.01	0.0008823
1784.66	0.0008969
1794.3	0.000848
1803.95	0.000847
1813.6	0.000829
1823.24	0.000829
1832.89	0.0008983
1842.54	0.0009052
1852.18	0.0010861
1861.83	0.0013495
1871.47	0.0014179
1881.12	0.0012458
1890.77	0.0008802
1900.41	0.000793
1910.06	0.00079
1919.71	0.000861
1929.35	0.000777
1939	0.000797
1948.65	0.000736
1958.29	0.000783
1967.94	0.000794
1977.59	0.000833
1987.23	0.00096981
1996.88	0.000857
2006.53	0.000828
2016.17	0.00079
2025.82	0.000869
2035.47	0.000772
2045.11	0.000819
2054.76	0.0008836
2064.41	0.0009011
2074.05	0.000867
2083.7	0.000875
2093.35	0.0008811
2102.99	0.0008857
2112.64	0.00085
2122.28	0.000831
2131.93	0.000904
2141.58	0.00083
2151.22	0.000833
2160.87	0.000787
2170.52	0.0008
2180.16	0.000777
2189.81	0.000798
2199.46	0.0009097
2209.1	0.0008957
2218.75	0.000915
2228.4	0.0009024
2238.04	0.000819
2247.69	0.0009181
2257.34	0.0009311
2266.98	0.000857
2276.63	0.000867
2286.28	0.000833
2295.92	0.000863
2305.57	0.00085
2315.22	0.0009357
2324.86	0.0009382
2334.51	0.0008854
2344.16	0.0009203
2353.8	0.0009141
2363.45	0.0009129
2373.09	0.0009235
2382.74	0.00101792
2392.39	0.00104554
2402.03	0.0009345
2411.68	0.0009045
2421.33	0.000980617
2430.97	0.00103755
2440.62	0.000979258
2450.27	0.000852
2459.91	0.0008972
2469.56	0.000785
2479.21	0.000757
2488.85	0.000833
2498.5	0.0009362
2508.15	0.0009247
2517.79	0.000954
2527.44	0.0009019
2537.09	0.0009433
2546.73	0.00102522
2556.38	0.00098902
2566.03	0.00097504
2575.67	0.0009303
2585.32	0.000748
2594.96	0.000825
2604.61	0.000783
2614.26	0.000774
2623.9	0.000874
2633.55	0.000782
2643.2	0.000767
2652.84	0.000844
2662.49	0.000813
2672.14	0.000778
2681.78	0.000914
2691.43	0.00079
2701.08	0.000755
2710.72	0.000765
2720.37	0.000847
2730.02	0.0009159
2739.66	0.000846
2749.31	0.00074
2758.96	0.00067
2768.6	0.000719
2778.25	0.00083
2787.9	0.000687
2797.54	0.000759
2807.19	0.000763
2816.84	0.00078
2826.48	0.000755
2836.13	0.000655
2845.77	0.00073
2855.42	0.000829
2865.07	0.000763
2874.71	0.00067
2884.36	0.000736
2894.01	0.000635
2903.65	0.000604
2913.3	0.000489
2922.95	0.000622
2932.59	0.00049
2942.24	0.0007
2951.89	0.000598
2961.53	0.000542
2971.18	0.000579
2980.83	0.000504
2990.47	0.000678
3000.12	0.000484
3009.77	0.000558
3019.41	0.00045
3029.06	0.000395
3038.71	0.000607
3048.35	0.00027
3058	0.000639
3067.64	0.000734
3077.29	0.000795
3086.94	0.0009055
3096.58	0.00107224
3106.23	0.000839
3115.88	0.000603
3125.52	0.000622
3135.17	0.000377
3144.82	0.000297
3154.46	0.00036
3164.11	0.000318
3173.76	0.000694
3183.4	0.00034
3193.05	0.000307
3202.7	0.000509
3212.34	0.0004
3221.99	0.000532
3231.64	0.000495
3241.28	0.000566
3250.93	0.00049
3260.58	0.000216
3270.22	0.000321
3279.87	0.000249
3289.52	0.000557
3299.16	0.000531
3308.81	0.00059
3318.45	0.000371
3328.1	0.00033
3337.75	0
3347.39	0.000453
3357.04	0.000328
3366.69	0.000386
3376.33	0.000262
3385.98	0.000346
3395.63	0.000242
3405.27	0.000305
3414.92	0.000508
3424.57	0.000586
3434.21	0.000393
3443.86	0.000287
3453.51	0.000399
3463.15	0.000515
3472.8	0.000436
3482.45	0.000437
3492.09	0.000516
3501.74	0.000374
3511.39	0.000416
3521.03	0.000613
3530.68	0.000502
3540.33	0.000498
3549.97	0.000445
3559.62	0.000441
3569.26	0.000407
3578.91	0.00049
3588.56	0.000609
3598.2	0.000622
3607.85	0.000567
3617.5	0.000498
3627.14	0.000604
3636.79	0.000524
3646.44	0.00066
3656.08	0.000729
3665.73	0.000614
3675.38	0.000551
3685.02	0.000664
3694.67	0.000636
3704.32	0.000487
3713.96	0.000749
3723.61	0.000562
3733.26	0.000683
3742.9	0.000572
3752.55	0.000647
3762.2	0.000659
3771.84	0.000595
3781.49	0.000503
3791.13	0.000625
3800.78	0.000633
3810.43	0.000717
3820.07	0.000644
3829.72	0.000784
3839.37	0.000766
3849.01	0.000767
3858.66	0.000686
3868.31	0.000652
3877.95	0.000783
3887.6	0.000632
3897.25	0.000782
3906.89	0.000706
3916.54	0.000783
3926.19	0.000751
3935.83	0.000722
3945.48	0.000603
3955.13	0.000764
3964.77	0.000655
3974.42	0.00081
3984.07	0.000674
3993.71	0.00076
