Infrared Spectrum: 4-t-Butylbenzophenone
Formula: C 17 H 18 O
CAS: 22679-54-5
State: gas
Origin: EPA-IR VAPOR PHASE LIBRARY
1/CM	ABSORBANCE
549.9	0.0087
559.547	0.0119
569.193	0.00798
578.84	0.00785
588.486	0.01739
598.133	0.0151
607.779	0.00861
617.426	0.00795
627.072	0.00677
636.719	0.00892
646.365	0.01236
656.012	0.02708
665.658	0.09099
675.305	0.05158
684.951	0.04574
694.598	0.11336
704.245	0.11479
713.891	0.0446
723.538	0.02186
733.184	0.02126
742.831	0.02481
752.477	0.0296
762.124	0.01545
771.77	0.01017
781.417	0.01317
791.063	0.01668
800.71	0.01161
810.356	0.00947
820.003	0.01081
829.649	0.0202
839.296	0.03789
848.943	0.04076
858.589	0.01674
868.236	0.00861
877.882	0.00828
887.529	0.01142
897.175	0.01658
906.822	0.03153
916.468	0.07578
926.115	0.09234
935.761	0.14143
945.408	0.05278
955.054	0.01955
964.701	0.01535
974.347	0.00974
983.994	0.00592
993.64	0.00723
1003.29	0.01215
1012.93	0.01384
1022.58	0.0216
1032.23	0.0122
1041.87	0.0061
1051.52	0.00677
1061.17	0.0092
1070.81	0.01136
1080.46	0.01184
1090.11	0.01879
1099.75	0.04858
1109.4	0.03672
1119.05	0.01854
1128.69	0.01453
1138.34	0.01258
1147.99	0.01609
1157.63	0.01661
1167.28	0.01868
1176.92	0.05042
1186.57	0.03432
1196.22	0.04245
1205.86	0.02278
1215.51	0.01936
1225.16	0.03588
1234.8	0.05631
1244.45	0.05632
1254.1	0.09097
1263.74	0.24999
1273.39	0.35836
1283.04	0.20043
1292.68	0.13919
1302.33	0.08615
1311.98	0.10586
1321.62	0.06369
1331.27	0.02771
1340.92	0.01843
1350.56	0.02039
1360.21	0.03028
1369.86	0.03844
1379.5	0.03066
1389.15	0.02664
1398.79	0.04027
1408.44	0.03463
1418.09	0.01552
1427.73	0.01339
1437.38	0.01976
1447.03	0.03645
1456.67	0.02845
1466.32	0.02811
1475.97	0.03394
1485.61	0.03042
1495.26	0.01922
1504.91	0.01281
1514.55	0.00965
1524.2	0.00885
1533.85	0.00956
1543.49	0.01191
1553.14	0.016
1562.79	0.01979
1572.43	0.0217
1582.08	0.02661
1591.73	0.04301
1601.37	0.09086
1611.02	0.08638
1620.67	0.03391
1630.31	0.02215
1639.96	0.02093
1649.6	0.02274
1659.25	0.04133
1668.9	0.12921
1678.54	0.27249
1688.19	0.16707
1697.84	0.05284
1707.48	0.02357
1717.13	0.01894
1726.78	0.01682
1736.42	0.01036
1746.07	0.00765
1755.72	0.00696
1765.36	0.0067
1775.01	0.00672
1784.66	0.00686
1794.3	0.00897
1803.95	0.00956
1813.6	0.00728
1823.24	0.00522
1832.89	0.00418
1842.54	0.0035891
1852.18	0.0034282
1861.83	0.0033106
1871.47	0.0034586
1881.12	0.00413
1890.77	0.00522
1900.41	0.00629
1910.06	0.00673
1919.71	0.00696
1929.35	0.00583
1939	0.00511
1948.65	0.00583
1958.29	0.00572
1967.94	0.00487
1977.59	0.002649
1987.23	0.002042
1996.88	0.001924
2006.53	0.002204
2016.17	0.002115
2025.82	0.001968
2035.47	0.001947
2045.11	0.00171
2054.76	0.00168
2064.41	0.00166
2074.05	0.00171
2083.7	0.00174
2093.35	0.00157
2102.99	0.00144
2112.64	0.00131
2122.28	0.00127
2131.93	0.00126
2141.58	0.00132
2151.22	0.00137
2160.87	0.00141
2170.52	0.00147
2180.16	0.00157
2189.81	0.00164
2199.46	0.00178
2209.1	0.00178
2218.75	0.00167
2228.4	0.00168
2238.04	0.00164
2247.69	0.0016
2257.34	0.00149
2266.98	0.00152
2276.63	0.00161
2286.28	0.00181
2295.92	0.001924
2305.57	0.001997
2315.22	0.002629
2324.86	0.002387
2334.51	0.002293
2344.16	0.002219
2353.8	0.00181
2363.45	0.00175
2373.09	0.001886
2382.74	0.002242
2392.39	0.002413
2402.03	0.002428
2411.68	0.00287402
2421.33	0.0033025
2430.97	0.002556
2440.62	0.002054
2450.27	0.001823
2459.91	0.00179
2469.56	0.00176
2479.21	0.00169
2488.85	0.0017
2498.5	0.00167
2508.15	0.00172
2517.79	0.001811
2527.44	0.001806
2537.09	0.001867
2546.73	0.002106
2556.38	0.00249
2566.03	0.00288504
2575.67	0.00283985
2585.32	0.002599
2594.96	0.002429
2604.61	0.002231
2614.26	0.002108
2623.9	0.002267
2633.55	0.002016
2643.2	0.002006
2652.84	0.001959
2662.49	0.001948
2672.14	0.001796
2681.78	0.00166
2691.43	0.0017
2701.08	0.001852
2710.72	0.002259
2720.37	0.0028458
2730.02	0.0029697
2739.66	0.0031799
2749.31	0.0036897
2758.96	0.0036637
2768.6	0.0030184
2778.25	0.00288327
2787.9	0.0032733
2797.54	0.0034919
2807.19	0.00391
2816.84	0.00469
2826.48	0.00526
2836.13	0.00618
2845.77	0.00824
2855.42	0.0135
2865.07	0.02599
2874.71	0.04433
2884.36	0.04748
2894.01	0.04252
2903.65	0.04792
2913.3	0.06243
2922.95	0.05789
2932.59	0.05623
2942.24	0.06318
2951.89	0.09733
2961.53	0.18543
2971.18	0.26489
2980.83	0.1281
2990.47	0.05123
3000.12	0.02368
3009.77	0.01525
3019.41	0.01662
3029.06	0.02661
3038.71	0.03791
3048.35	0.02815
3058	0.03471
3067.64	0.06132
3077.29	0.05599
3086.94	0.04963
3096.58	0.03496
3106.23	0.01897
3115.88	0.01027
3125.52	0.00691
3135.17	0.00454
3144.82	0.003441
3154.46	0.0035051
3164.11	0.0032299
3173.76	0.002507
3183.4	0.002269
3193.05	0.002157
3202.7	0.002083
3212.34	0.001963
3221.99	0.00178
3231.64	0.0016
3241.28	0.00143
3250.93	0.00122
3260.58	0.00108
3270.22	0.00101
3279.87	0.00118
3289.52	0.00117
3299.16	0.00113
3308.81	0.00111
3318.45	0.00142
3328.1	0.002659
3337.75	0.00404
3347.39	0.0033482
3357.04	0.00152
3366.69	0.00087
3376.33	0.00089
3385.98	0.00089
3395.63	0.00057
3405.27	0.00047
3414.92	0.00029
3424.57	0.00036
3434.21	0.00042
3443.86	0.0003
3453.51	8e-05
3463.15	0.00014
3472.8	0.00024
3482.45	0.0002
3492.09	0.00022
3501.74	0.00012
3511.39	0.00038
3521.03	0.00026
3530.68	0.00014
3540.33	0.00034
3549.97	0.00023
3559.62	0.00019
3569.26	5e-05
3578.91	0.00022
3588.56	0.00012
3598.2	0.00027
3607.85	0.00045
3617.5	0.0004
3627.14	0.00038
3636.79	0.00079
3646.44	0.0008
3656.08	0.0008
3665.73	0.00092
3675.38	0.001
3685.02	0.00086
3694.67	0.00096
3704.32	0.00112
3713.96	0.001
3723.61	0.00113
3733.26	0.00108
3742.9	0.00105
3752.55	0.00086
3762.2	0.00101
3771.84	0.00089
3781.49	0.0009
3791.13	0.00101
3800.78	0.00117
3810.43	0.00126
3820.07	0.00109
3829.72	0.00109
3839.37	0.00116
3849.01	0.00098
3858.66	0.00117
3868.31	0.00117
3877.95	0.00114
3887.6	0.00141
3897.25	0.00159
3906.89	0.00143
3916.54	0.00141
3926.19	0.0013
3935.83	0.00123
3945.48	0.00131
3955.13	0.00131
3964.77	0.00135
3974.42	0.00153
3984.07	0.00173
3993.71	0.001952
