Infrared Spectrum: 2,4,5-Trifluorophenol
Formula: C 6 H 3 F 3 O
CAS: 2268-16-8
State: gas
Origin: EPA-IR VAPOR PHASE LIBRARY
1/CM	ABSORBANCE
549.8	0.000723
559.445	0.000235
569.09	0.00012
578.735	0.00011
588.38	0.00022
598.025	0.000433
607.67	0.000953
617.315	0.000933
626.96	0.0019347
636.605	0.0018348
646.251	0.00116392
655.896	0.000616
665.541	0.000957
675.186	0.0013181
684.831	0.00285
694.476	0.0083
704.121	0.009
713.766	0.00632
723.411	0.0019826
733.056	0.001398
742.701	0.001758
752.346	0.0015096
761.991	0.0012669
771.636	0.0011283
781.281	0.0011372
790.926	0.0010793
800.571	0.00118889
810.216	0.0013879
819.861	0.00242
829.507	0.00954
839.152	0.02287
848.797	0.02922
858.442	0.03521
868.087	0.03857
877.732	0.02229
887.377	0.00577
897.022	0.0019359
906.667	0.00125045
916.312	0.000957
925.957	0.000864
935.602	0.000856
945.247	0.00120921
954.892	0.0015021
964.537	0.0014263
974.182	0.00121886
983.827	0.00115812
993.472	0.001025
1003.12	0.000902
1012.76	0.000967
1022.41	0.0011408
1032.05	0.0012915
1041.7	0.0011122
1051.34	0.00088
1060.99	0.000865
1070.63	0.0011028
1080.28	0.0012871
1089.92	0.0014168
1099.57	0.0029
1109.21	0.00708
1118.86	0.00956
1128.5	0.01065
1138.15	0.0258
1147.79	0.04403
1157.44	0.03627
1167.08	0.0165
1176.73	0.01024
1186.37	0.00746
1196.02	0.00714
1205.66	0.01617
1215.31	0.01824
1224.95	0.01726
1234.6	0.02388
1244.24	0.02884
1253.89	0.02286
1263.53	0.0146
1273.18	0.01287
1282.82	0.01088
1292.47	0.0138
1302.11	0.01984
1311.76	0.01866
1321.4	0.00876
1331.05	0.00417
1340.69	0.00317
1350.34	0.00235
1359.98	0.00278
1369.63	0.00455
1379.27	0.0049
1388.92	0.00302
1398.56	0.0017153
1408.21	0.0016623
1417.85	0.00226
1427.5	0.00348
1437.14	0.00513
1446.79	0.00775
1456.43	0.00783
1466.08	0.00538
1475.73	0.00362
1485.37	0.00798
1495.02	0.02274
1504.66	0.03767
1514.31	0.0716
1523.95	0.12452
1533.6	0.10595
1543.24	0.02891
1552.89	0.00822
1562.53	0.00382
1572.18	0.00311
1581.82	0.00288
1591.47	0.00272
1601.11	0.0027
1610.76	0.00268
1620.4	0.0025
1630.05	0.00307
1639.69	0.00326
1649.34	0.00263
1658.98	0.00217
1668.63	0.0019665
1678.27	0.00226
1687.92	0.00281
1697.56	0.00275
1707.21	0.00219
1716.85	0.0015421
1726.5	0.0013035
1736.14	0.0013199
1745.79	0.0012623
1755.43	0.00121098
1765.08	0.00119873
1774.72	0.00117452
1784.37	0.00124988
1794.01	0.0014028
1803.66	0.0016688
1813.3	0.0018886
1822.95	0.0019557
1832.59	0.0016585
1842.24	0.0014244
1851.88	0.0013108
1861.53	0.00121982
1871.17	0.0012895
1880.82	0.0012743
1890.46	0.0013267
1900.11	0.00124505
1909.75	0.00121232
1919.4	0.0012675
1929.04	0.0013117
1938.69	0.0012791
1948.33	0.0012753
1957.98	0.0012827
1967.62	0.0013337
1977.27	0.0014037
1986.91	0.0014487
1996.56	0.0013995
2006.2	0.0012843
2015.85	0.00124885
2025.49	0.0012225
2035.14	0.00121229
2044.78	0.00121726
2054.43	0.00127
2064.07	0.0012729
2073.72	0.00122682
2083.36	0.0011855
2093.01	0.00117943
2102.65	0.00119901
2112.3	0.00121006
2121.94	0.00117512
2131.59	0.0011488
2141.23	0.00123145
2150.88	0.00122712
2160.52	0.0012627
2170.17	0.00123839
2179.81	0.0012836
2189.46	0.0012956
2199.1	0.0013586
2208.75	0.0014537
2218.39	0.0015395
2228.04	0.001628
2237.68	0.0016353
2247.33	0.0017697
2256.97	0.0017696
2266.62	0.0019067
2276.26	0.0018724
2285.91	0.0015879
2295.55	0.0014066
2305.2	0.0014336
2314.84	0.0016392
2324.49	0.0018298
2334.13	0.0018224
2343.78	0.0017967
2353.42	0.0018156
2363.07	0.0018534
2372.72	0.0016659
2382.36	0.0014833
2392.01	0.0015032
2401.65	0.0015377
2411.3	0.0015691
2420.94	0.0015826
2430.59	0.0015791
2440.23	0.0015029
2449.88	0.0015346
2459.52	0.0015247
2469.17	0.0015452
2478.81	0.0017098
2488.46	0.0018289
2498.1	0.0018345
2507.75	0.0017603
2517.39	0.0017733
2527.04	0.0017756
2536.68	0.0017311
2546.33	0.001731
2555.97	0.0018485
2565.62	0.0018518
2575.26	0.0018791
2584.91	0.0017553
2594.55	0.0016955
2604.2	0.0016317
2613.84	0.0016291
2623.49	0.0015433
2633.13	0.0015861
2642.78	0.0016216
2652.42	0.0015445
2662.07	0.0015291
2671.71	0.0015832
2681.36	0.0014659
2691	0.0014696
2700.65	0.0013991
2710.29	0.0013683
2719.94	0.0014045
2729.58	0.0014656
2739.23	0.0014751
2748.87	0.0014829
2758.52	0.0014806
2768.16	0.0014911
2777.81	0.0014895
2787.45	0.0014232
2797.1	0.0014738
2806.74	0.0013586
2816.39	0.0014122
2826.03	0.0013964
2835.68	0.0013536
2845.32	0.0013868
2854.97	0.0012848
2864.61	0.0013476
2874.26	0.0013931
2883.9	0.001431
2893.55	0.0014661
2903.19	0.0015005
2912.84	0.0014443
2922.48	0.0013279
2932.13	0.0013572
2941.77	0.00122906
2951.42	0.001265
2961.06	0.001197
2970.71	0.0010954
2980.35	0.0010782
2990	0.001074
2999.64	0.0010878
3009.29	0.000969
3018.93	0.000989
3028.58	0.000992
3038.22	0.000868
3047.87	0.000851
3057.51	0.001035
3067.16	0.0011292
3076.8	0.001439
3086.45	0.0014134
3096.09	0.0012786
3105.74	0.001068
3115.38	0.000881
3125.03	0.00088
3134.67	0.000838
3144.32	0.000982
3153.96	0.000921
3163.61	0.000923
3173.25	0.000859
3182.9	0.000766
3192.54	0.000752
3202.19	0.00079
3211.83	0.000689
3221.48	0.000739
3231.12	0.000778
3240.77	0.000693
3250.41	0.000621
3260.06	0.000777
3269.7	0.001015
3279.35	0.000802
3289	0.000743
3298.64	0.000748
3308.29	0.000906
3317.93	0.000638
3327.58	0.000699
3337.22	0.000686
3346.87	0.000755
3356.51	0.000795
3366.16	0.00063
3375.8	0.000546
3385.45	0.000661
3395.09	0.000685
3404.74	0.000626
3414.38	0.000657
3424.03	0.000626
3433.67	0.000639
3443.32	0.000583
3452.96	0.000685
3462.61	0.00058
3472.25	0.000464
3481.9	0.000629
3491.54	0.000424
3501.19	0.000438
3510.83	0.000665
3520.48	0.000587
3530.12	0.000575
3539.77	0.000581
3549.41	0.000662
3559.06	0.000668
3568.7	0.00066
3578.35	0.000748
3587.99	0.000996
3597.64	0.00117172
3607.28	0.00238
3616.93	0.01221
3626.57	0.0295
3636.22	0.02563
3645.86	0.00625
3655.51	0.00324
3665.15	0.00252
3674.8	0.0013629
3684.44	0.000809
3694.09	0.0007
3703.73	0.000691
3713.38	0.000721
3723.02	0.00074
3732.67	0.000673
3742.31	0.000743
3751.96	0.000639
3761.6	0.000773
3771.25	0.00071
3780.89	0.000802
3790.54	0.000747
3800.18	0.000822
3809.83	0.000816
3819.47	0.000905
3829.12	0.000828
3838.76	0.000887
3848.41	0.000774
3858.05	0.000825
3867.7	0.000845
3877.34	0.000877
3886.99	0.000905
3896.63	0.00099
3906.28	0.0010771
3915.92	0.000959
3925.57	0.0010966
3935.21	0.0010987
3944.86	0.0010964
3954.5	0.000937
3964.15	0.0010732
3973.79	0.00097
3983.44	0.000943
3993.08	0.0009
