Infrared Spectrum: 2,6-Dichlorofluorobenzene
Formula: C 6 H 3 Cl 2 F
CAS: 2268-05-5
State: gas
Origin: EPA-IR VAPOR PHASE LIBRARY
1/CM	ABSORBANCE
549.8	0.0010449
559.445	0.00039778
569.09	0.000325
578.734	0.0011363
588.379	0.003282
598.024	0.004162
607.669	0.003662
617.313	0.0009107
626.958	0.0003061
636.603	0.000182
646.248	0.000153
655.893	0.000226
665.537	0.000257
675.182	0.0003117
684.827	0.000831
694.472	0.003652
704.116	0.007542
713.761	0.007412
723.406	0.004022
733.051	0.0012868
742.695	0.001392
752.34	0.005552
761.985	0.015022
771.63	0.024452
781.275	0.017802
790.919	0.015972
800.564	0.031442
810.209	0.033402
819.854	0.013432
829.498	0.005752
839.143	0.003612
848.788	0.0012129
858.433	0.0006367
868.078	0.0003323
877.722	0.000277
887.367	0.00040775
897.012	0.00043482
906.657	0.0006631
916.301	0.0005529
925.946	0.00040009
935.591	0.00038037
945.236	0.00045665
954.88	0.000717
964.525	0.000606
974.17	0.0007052
983.815	0.0005774
993.46	0.000981
1003.1	0.0008081
1012.75	0.00061
1022.39	0.00048146
1032.04	0.0010496
1041.68	0.001572
1051.33	0.002672
1060.97	0.003102
1070.62	0.002162
1080.26	0.001542
1089.91	0.0008716
1099.55	0.001682
1109.2	0.003862
1118.84	0.003912
1128.49	0.001922
1138.13	0.0008657
1147.78	0.001602
1157.42	0.002232
1167.07	0.001762
1176.71	0.0010543
1186.36	0.0008633
1196	0.003152
1205.64	0.004692
1215.29	0.003092
1224.93	0.001572
1234.58	0.003012
1244.22	0.008562
1253.87	0.018672
1263.51	0.018682
1273.16	0.006822
1282.8	0.002032
1292.45	0.001572
1302.09	0.0013131
1311.74	0.0011111
1321.38	0.0006205
1331.03	0.00039399
1340.67	0.0003078
1350.32	0.00040812
1359.96	0.0006158
1369.61	0.0006872
1379.25	0.0009002
1388.9	0.0011205
1398.54	0.001592
1408.18	0.002042
1417.83	0.002592
1427.47	0.005342
1437.12	0.017172
1446.76	0.030432
1456.41	0.048242
1466.05	0.053962
1475.7	0.038032
1485.34	0.014482
1494.99	0.006872
1504.63	0.004132
1514.28	0.002462
1523.92	0.001662
1533.57	0.0013061
1543.21	0.0011768
1552.86	0.001214
1562.5	0.002662
1572.15	0.006952
1581.79	0.012882
1591.44	0.008912
1601.08	0.001672
1610.73	0.0009433
1620.37	0.0008243
1630.01	0.0008967
1639.66	0.0009242
1649.3	0.0013562
1658.95	0.0013099
1668.59	0.0008454
1678.24	0.00040612
1687.88	0.000514
1697.53	0.0003472
1707.17	0.00042537
1716.82	0.00044272
1726.46	0.0004676
1736.11	0.00044106
1745.75	0.00039677
1755.4	0.0005283
1765.04	0.0007783
1774.69	0.0009621
1784.33	0.0007807
1793.98	0.0005554
1803.62	0.00046312
1813.27	0.000385963
1822.91	0.0005309
1832.55	0.0008975
1842.2	0.001502
1851.84	0.001392
1861.49	0.0008507
1871.13	0.0005223
1880.78	0.0005035
1890.42	0.0005312
1900.07	0.0006748
1909.71	0.0010334
1919.36	0.0011119
1929	0.0008207
1938.65	0.0005602
1948.29	0.000351
1957.94	0.0004871
1967.58	0.0003668
1977.23	0.00040127
1986.87	0.00042944
1996.52	0.0004845
2006.16	0.00038061
2015.81	0.0003152
2025.45	0.0003479
2035.1	0.00046663
2044.74	0.0004492
2054.38	0.0005169
2064.03	0.0005536
2073.67	0.000516
2083.32	0.0005147
2092.96	0.0005241
2102.61	0.00039336
2112.25	0.00037268
2121.9	0.000386844
2131.54	0.0003713
2141.19	0.0003581
2150.83	0.0003485
2160.48	0.0003408
2170.12	0.00041986
2179.77	0.00042189
2189.41	0.000387098
2199.06	0.00043273
2208.7	0.0003634
2218.35	0.0003765
2227.99	0.00046598
2237.64	0.00043126
2247.28	0.00043761
2256.92	0.0004939
2266.57	0.0005311
2276.21	0.0006546
2285.86	0.0007136
2295.5	0.0006979
2305.15	0.0006979
2314.79	0.0006092
2324.44	0.00047168
2334.08	0.00040595
2343.73	0.0003299
2353.37	0.000386151
2363.02	0.00040044
2372.66	0.0003526
2382.31	0.00041348
2391.95	0.000527
2401.6	0.0005656
2411.24	0.000501
2420.89	0.000526
2430.53	0.000384486
2440.18	0.00039804
2449.82	0.00046539
2459.47	0.000553
2469.11	0.0005435
2478.75	0.0006438
2488.4	0.0005955
2498.04	0.0005047
2507.69	0.0006497
2517.33	0.0007104
2526.98	0.000705
2536.62	0.0007337
2546.27	0.0006672
2555.91	0.0006292
2565.56	0.0005477
2575.2	0.0005353
2584.85	0.0004591
2594.49	0.00041556
2604.14	0.0003595
2613.78	0.0003707
2623.43	0.00046444
2633.07	0.000355
2642.72	0.00037484
2652.36	0.0003604
2662.01	0.00041735
2671.65	0.00047983
2681.29	0.000385046
2690.94	0.00045189
2700.58	0.0005097
2710.23	0.0004994
2719.87	0.00044805
2729.52	0.0005783
2739.16	0.000506
2748.81	0.00045972
2758.45	0.00045201
2768.1	0.0003455
2777.74	0.000381416
2787.39	0.000388733
2797.03	0.00046799
2806.68	0.0005712
2816.32	0.00045695
2825.97	0.0005303
2835.61	0.00044222
2845.26	0.00042481
2854.9	0.0005491
2864.55	0.000506
2874.19	0.0004775
2883.84	0.00039981
2893.48	0.0003012
2903.12	0.0005766
2912.77	0.0003605
2922.41	0.00041296
2932.06	0.0005003
2941.7	0.0005264
2951.35	0.0003322
2960.99	0.0005866
2970.64	0.0005402
2980.28	0.0003769
2989.93	0.00037514
2999.57	0.0006457
3009.22	0.0007134
3018.86	0.0007876
3028.51	0.0005412
3038.15	0.0005338
3047.8	0.000594
3057.44	0.0006621
3067.09	0.0012367
3076.73	0.002372
3086.38	0.002692
3096.02	0.001712
3105.67	0.0007066
3115.31	0.0005594
3124.95	0.0005156
3134.6	0.0004885
3144.24	0.0004681
3153.89	0.00045568
3163.53	0.00046999
3173.18	0.00040659
3182.82	0.0003408
3192.47	0.00045138
3202.11	0.0003682
3211.76	0.00040936
3221.4	0.0003707
3231.05	0.0005273
3240.69	0.0005325
3250.34	0.00039654
3259.98	0.0003243
3269.63	0.000338
3279.27	0.0005127
3288.92	0.00041077
3298.56	0.00039475
3308.21	0.00042217
3317.85	0.0003539
3327.49	0.00048075
3337.14	0.000385314
3346.78	0.0003788
3356.43	0.0003263
3366.07	0.0003619
3375.72	0.000382419
3385.36	0.0003632
3395.01	0.00042786
3404.65	0.00042059
3414.3	0.0003018
3423.94	0.0003074
3433.59	0.000205
3443.23	0.00041861
3452.88	0.0003131
3462.52	0.00048068
3472.17	0.0003097
3481.81	0.00043963
3491.46	0.0003271
3501.1	0.00039477
3510.75	0.0006273
3520.39	0.0003407
3530.04	0.00043435
3539.68	0.0003707
3549.32	0.0005137
3558.97	0.00047671
3568.61	0.0005826
3578.26	0.0003925
3587.9	0.0004884
3597.55	0.0005138
3607.19	0.0004978
3616.84	0.0003396
3626.48	0.000331
3636.13	0.0005284
3645.77	0.00039263
3655.42	0.000246
3665.06	0.00042373
3674.71	0.0003059
3684.35	0.00045279
3694	0.0005076
3703.64	0.000275
3713.29	0.0003201
3722.93	0.000257
3732.58	0.0003586
3742.22	0.000262
3751.86	0.000277
3761.51	0.0003448
3771.15	0.00041952
3780.8	0.0003685
3790.44	0.00045124
3800.09	0.0005108
3809.73	0.00045815
3819.38	0.0005275
3829.02	0.000387229
3838.67	0.000537
3848.31	0.00040418
3857.96	0.0003521
3867.6	0.0005051
3877.25	0.00055
3886.89	0.0005703
3896.54	0.00043121
3906.18	0.0005579
3915.83	0.0005766
3925.47	0.00042468
3935.12	0.000281
3944.76	0.000648
3954.41	0.00041255
3964.05	0.000203
3973.69	0.00046702
3983.34	0.0004282
3992.98	0.0004192
