Infrared Spectrum: 11Alpha-ACETOXYPREGN-4-ENE-3,20-DIONE
Formula: C23 H32 O4
CAS: 2268-98-6
State: SOLID (KBr DISC)
Class: COBLENTZ III
Instrument: BECKMAN IR-7
Sampling: TRANSMISSION
Resolution: 4
Origin: THE WORCESTER FOUNDATION FOR EXPERIMENTAL BIOLOGY, Neal L. McNiven
1/CM	TRANSMITTANCE
597.083	0.75
605.833	0.711
614.583	0.668
623.333	0.743
632.083	0.791
640.833	0.831
649.583	0.872
658.333	0.888
667.083	0.904
675.833	0.884
684.583	0.838
693.333	0.9
702.083	0.917
710.833	0.918
719.583	0.925
728.333	0.927
737.083	0.926
745.833	0.921
754.583	0.93
763.333	0.928
772.083	0.927
780.833	0.892
789.583	0.919
798.333	0.929
807.083	0.927
815.833	0.919
824.583	0.925
833.333	0.894
842.084	0.905
850.834	0.904
859.584	0.914
868.334	0.9
877.084	0.876
885.834	0.7979
894.584	0.893
903.334	0.9
912.084	0.868
920.834	0.83
929.584	0.812
938.334	0.7719
947.084	0.705
955.834	0.754
964.584	0.669
973.334	0.774
982.084	0.82
990.834	0.822
999.584	0.806
1008.33	0.769
1017.08	0.64
1025.83	0.449
1034.58	0.652
1043.33	0.693
1052.08	0.706
1060.83	0.722
1069.58	0.779
1078.33	0.806
1087.08	0.809
1095.83	0.802
1104.58	0.803
1113.33	0.748
1122.08	0.784
1130.83	0.793
1139.58	0.757
1148.33	0.764
1157.08	0.6431
1165.83	0.653
1174.58	0.742
1183.33	0.636
1192.08	0.6579
1200.83	0.693
1209.58	0.704
1218.33	0.616
1227.08	0.534
1235.83	0.361
1244.58	0.14
1253.33	0.087
1262.08	0.4
1270.83	0.603
1279.58	0.657
1288.33	0.713
1297.08	0.768
1305.83	0.783
1314.58	0.796
1323.33	0.773
1332.08	0.684
1340.83	0.576
1349.58	0.465
1358.33	0.48
1367.08	0.591
1375.83	0.512
1384.58	0.524
1393.33	0.648
1402.08	0.718
1410.83	0.725
1419.58	0.69
1428.33	0.708
1437.08	0.643
1445.83	0.641
1454.58	0.692
1463.33	0.69
1472.08	0.692
1480.83	0.786
1489.58	0.803
1498.33	0.809
1507.08	0.816
1515.83	0.82
1524.58	0.821
1533.33	0.825
1542.08	0.828
1550.83	0.825
1559.58	0.824
1568.33	0.817
1577.09	0.812
1585.84	0.804
1594.59	0.788
1603.34	0.679
1612.09	0.653
1620.84	0.721
1629.59	0.697
1638.34	0.7
1647.09	0.679
1655.84	0.482
1664.59	0.182
1673.34	0.208
1682.09	0.412
1690.84	0.541
1699.59	0.374
1708.34	0.4389
1717.09	0.4521
1725.84	0.1829
1734.59	0.3791
1743.34	0.631
1752.09	0.712
1760.84	0.744
1769.59	0.772
1778.34	0.788
1787.09	0.796
1795.84	0.804
1804.59	0.81
1813.34	0.816
1822.09	0.818
1830.84	0.823
1839.59	0.828
1848.34	0.828
1857.09	0.829
1865.84	0.829
1874.59	0.829
1883.34	0.828
1892.09	0.827
1900.84	0.825
1909.59	0.823
1918.34	0.822
1927.09	0.824
1935.84	0.824
1944.59	0.824
1953.34	0.822
1962.09	0.82
1970.84	0.822
1979.59	0.821
1988.34	0.821
1997.09	0.82
2005.84	0.82
2014.59	0.82
2023.34	0.82
2032.09	0.82
2040.84	0.82
2049.59	0.819
2058.34	0.819
2067.09	0.819
2075.84	0.818
2084.59	0.818
2093.34	0.818
2102.09	0.8179
2110.84	0.817
2119.59	0.817
2128.34	0.817
2137.09	0.817
2145.84	0.816
2154.59	0.816
2163.34	0.816
2172.09	0.8159
2180.84	0.8148
2189.59	0.8128
2198.34	0.8078
2207.09	0.804
2215.84	0.801
2224.59	0.7988
2233.34	0.797
2242.09	0.796
2250.84	0.795
2259.59	0.794
2268.34	0.7938
2277.09	0.7928
2285.84	0.791
2294.59	0.791
2303.34	0.791
2312.09	0.791
2320.84	0.791
2329.59	0.791
2338.34	0.791
2347.09	0.791
2355.84	0.79
2364.59	0.789
2373.34	0.788
2382.09	0.7877
2390.84	0.785
2399.59	0.7837
2408.34	0.783
2417.09	0.781
2425.84	0.7796
2434.59	0.7776
2443.34	0.7766
2452.09	0.775
2460.84	0.774
2469.59	0.7726
2478.34	0.7716
2487.09	0.771
2495.84	0.77
2504.59	0.769
2513.34	0.769
2522.09	0.768
2530.84	0.767
2539.59	0.767
2548.34	0.767
2557.09	0.766
2565.84	0.765
2574.59	0.764
2583.34	0.762
2592.09	0.7605
2600.84	0.759
2609.59	0.7569
2618.34	0.755
2627.09	0.7534
2635.84	0.753
2644.59	0.752
2653.34	0.751
2662.09	0.749
2670.84	0.7474
2679.59	0.746
2688.34	0.7444
2697.09	0.743
2705.84	0.741
2714.59	0.74
2723.34	0.7384
2732.09	0.738
2740.84	0.7363
2749.59	0.735
2758.34	0.7333
2767.09	0.7303
2775.84	0.7273
2784.59	0.7243
2793.34	0.722
2802.09	0.7146
2810.84	0.7066
2819.59	0.6988
2828.34	0.6846
2837.09	0.6463
2845.84	0.5323
2854.59	0.552
2863.34	0.552
2872.09	0.522
2880.84	0.5601
2889.59	0.5612
2898.34	0.5487
2907.09	0.4945
2915.84	0.4344
2924.59	0.3869
2933.34	0.362
2942.09	0.3879
2950.84	0.4296
2959.59	0.43
2968.34	0.411
2977.09	0.4407
2985.84	0.5575
2994.59	0.6005
3003.34	0.6272
3012.09	0.6463
3020.84	0.654
3029.59	0.656
3038.34	0.6579
3047.09	0.6647
3055.84	0.6679
3064.59	0.669
3073.34	0.669
3082.09	0.668
3090.84	0.667
3099.59	0.666
3108.34	0.664
3117.09	0.664
3125.84	0.662
3134.59	0.661
3143.34	0.661
3152.09	0.658
3160.84	0.657
3169.59	0.656
3178.34	0.655
3187.09	0.654
3195.84	0.653
3204.59	0.653
3213.34	0.652
3222.09	0.6519
3230.84	0.65
3239.59	0.6489
3248.34	0.6469
3257.09	0.6449
3265.84	0.6429
3274.59	0.642
3283.34	0.6409
3292.09	0.6387
3300.84	0.6318
3309.59	0.6277
3318.34	0.6238
3327.09	0.6218
3335.84	0.621
3344.59	0.62
3353.34	0.6184
3362.09	0.6116
3370.84	0.6028
3379.59	0.5985
3388.34	0.5958
3397.09	0.5938
3405.84	0.592
3414.59	0.592
3423.34	0.592
3432.09	0.592
3440.84	0.5936
3449.59	0.597
3458.34	0.6
3467.09	0.602
3475.84	0.603
3484.59	0.6043
3493.34	0.6067
3502.09	0.6083
3510.84	0.611
3519.59	0.613
3528.34	0.6201
3537.09	0.6234
3545.84	0.6244
3554.59	0.6294
3563.34	0.632
3572.09	0.6368
3580.84	0.6412
3589.59	0.648
3598.34	0.6504
3607.09	0.6534
3615.84	0.656
3624.59	0.657
3633.34	0.658
3642.09	0.6585
3650.84	0.66
3659.59	0.661
3668.34	0.6615
3677.09	0.663
3685.84	0.663
3694.59	0.664
3703.34	0.6645
3712.09	0.665
3720.84	0.666
3729.59	0.6675
3738.34	0.669
3747.09	0.6674
3755.84	0.666
3764.59	0.6644
3773.34	0.6624
3782.09	0.661
3790.84	0.6584
3799.59	0.6564
3808.34	0.656
3817.09	0.6544
3825.84	0.655
3834.59	0.656
3843.34	0.656
3852.09	0.6537
3860.84	0.653
3869.59	0.6513
3878.34	0.65
3887.09	0.65
3895.84	0.65
3904.59	0.65
3913.34	0.65
3922.09	0.65
3930.84	0.65
3939.59	0.65
3948.34	0.65
3957.09	0.65
3965.84	0.6493
3974.59	0.65
3983.34	0.65
3992.09	0.65
4000.84	0.65
4009.59	0.65
