Infrared Spectrum: 2,4,6-Trifluorophenol
Formula: C 6 H 3 F 3 O
CAS: 2268-17-9
State: gas
Origin: EPA-IR VAPOR PHASE LIBRARY
1/CM	ABSORBANCE
549.8	0.00542
559.445	0.00485
569.09	0.00456
578.734	0.00666
588.379	0.01725
598.024	0.02756
607.669	0.02484
617.313	0.01967
626.958	0.01907
636.603	0.02347
646.248	0.01767
655.893	0.00464
665.537	0.00373
675.182	0.00306
684.827	0.00412
694.472	0.00519
704.116	0.00718
713.761	0.0122
723.406	0.00768
733.051	0.00467
742.695	0.00282
752.34	0.00308
761.985	0.0051
771.63	0.01265
781.275	0.07516
790.919	0.16206
800.564	0.14161
810.209	0.04591
819.854	0.03618
829.498	0.09531
839.143	0.17369
848.788	0.09228
858.433	0.03727
868.078	0.00653
877.722	0.0036
887.367	0.00364
897.012	0.00379
906.657	0.00478
916.301	0.00629
925.946	0.00734
935.591	0.00673
945.236	0.00695
954.88	0.0093
964.525	0.01279
974.17	0.02899
983.815	0.12729
993.46	0.21807
1003.1	0.26531
1012.75	0.23957
1022.39	0.21283
1032.04	0.13851
1041.68	0.07105
1051.33	0.03322
1060.97	0.01755
1070.62	0.01519
1080.26	0.01703
1089.91	0.01479
1099.55	0.02607
1109.2	0.15262
1118.84	0.27498
1128.49	0.22918
1138.13	0.03307
1147.78	0.01841
1157.42	0.03669
1167.07	0.07471
1176.71	0.09127
1186.36	0.08178
1196	0.1128
1205.64	0.24679
1215.29	0.44052
1224.93	0.38024
1234.58	0.11581
1244.22	0.09521
1253.87	0.09205
1263.51	0.06155
1273.16	0.02838
1282.8	0.03013
1292.45	0.04242
1302.09	0.06479
1311.74	0.07584
1321.38	0.06797
1331.03	0.06922
1340.67	0.07055
1350.32	0.04992
1359.96	0.02671
1369.61	0.02977
1379.25	0.02841
1388.9	0.01754
1398.54	0.01135
1408.18	0.01203
1417.83	0.02601
1427.47	0.05149
1437.12	0.08759
1446.76	0.13512
1456.41	0.14741
1466.05	0.09985
1475.7	0.04584
1485.34	0.03328
1494.99	0.08337
1504.63	0.29036
1514.28	0.62691
1523.92	0.71441
1533.57	0.40963
1543.21	0.11581
1552.86	0.03716
1562.5	0.02536
1572.15	0.02387
1581.79	0.0262
1591.44	0.0384
1601.08	0.07883
1610.73	0.16006
1620.37	0.23376
1630.01	0.24204
1639.66	0.14572
1649.3	0.07323
1658.95	0.05236
1668.59	0.04072
1678.24	0.02858
1687.88	0.02617
1697.53	0.02207
1707.17	0.01155
1716.82	0.00457
1726.46	0.00364
1736.11	0.00424
1745.75	0.00417
1755.4	0.00406
1765.04	0.00356
1774.69	0.00348
1784.33	0.0034
1793.98	0.00277
1803.62	0.00245
1813.27	0.00219
1822.91	0.00194
1832.55	0.00185
1842.2	0.00199
1851.84	0.00172
1861.49	0.00128
1871.13	0.00121
1880.78	0.00121
1890.42	0.00118
1900.07	0.00135
1909.71	0.00191
1919.36	0.00195
1929	0.00167
1938.65	0.00133
1948.29	0.00155
1957.94	0.00143
1967.58	0.00139
1977.23	0.00156
1986.87	0.00202
1996.52	0.003
2006.16	0.00422
2015.81	0.00439
2025.45	0.00303
2035.1	0.00269
2044.74	0.00236
2054.38	0.00206
2064.03	0.00101
2073.67	0.00147
2083.32	0.00205
2092.96	0.00275
2102.61	0.00313
2112.25	0.00308
2121.9	0.00355
2131.54	0.003
2141.19	0.00315
2150.83	0.00285
2160.48	0.00278
2170.12	0.00275
2179.77	0.00283
2189.41	0.00296
2199.06	0.00344
2208.7	0.00308
2218.35	0.0029
2227.99	0.00325
2237.64	0.00315
2247.28	0.00313
2256.92	0.00282
2266.57	0.0022
2276.21	0.00153
2285.86	0.00154
2295.5	0.00214
2305.15	0.00313
2314.79	0.00353
2324.44	0.00278
2334.08	0.00243
2343.73	0.0022
2353.37	0.00296
2363.02	0.0042
2372.66	0.00476
2382.31	0.00427
2391.95	0.00353
2401.6	0.00308
2411.24	0.00357
2420.89	0.00396
2430.53	0.00405
2440.18	0.00396
2449.82	0.00436
2459.47	0.00602
2469.11	0.00767
2478.75	0.00815
2488.4	0.00719
2498.04	0.00581
2507.69	0.00332
2517.33	0.00308
2526.98	0.00295
2536.62	0.00348
2546.27	0.00313
2555.91	0.00314
2565.56	0.00314
2575.2	0.00311
2584.85	0.00276
2594.49	0.00215
2604.14	0.00194
2613.78	0.00146
2623.43	0.00191
2633.07	0.00249
2642.72	0.00231
2652.36	0.00259
2662.01	0.00241
2671.65	0.00266
2681.29	0.00309
2690.94	0.00338
2700.58	0.00363
2710.23	0.00344
2719.87	0.00313
2729.52	0.00272
2739.16	0.00303
2748.81	0.002
2758.45	0.0014
2768.1	0.0008877
2777.74	0.0011
2787.39	0.0007453
2797.03	0.00109
2806.68	0.00168
2816.32	0.00131
2825.97	0.0015
2835.61	0.00229
2845.26	0.00221
2854.9	0.00197
2864.55	0.00211
2874.19	0.00221
2883.84	0.00241
2893.48	0.00239
2903.12	0.0016
2912.77	0.0009257
2922.41	0.001
2932.06	0.00115
2941.7	0.00146
2951.35	0.00149
2960.99	0.0011
2970.64	0.00138
2980.28	0.00112
2989.93	0.0007322
2999.57	0.0009482
3009.22	0.00123
3018.86	0.0007365
3028.51	0.001
3038.15	0.00128
3047.8	0.00121
3057.44	0.00135
3067.09	0.00125
3076.73	0.00182
3086.38	0.00267
3096.02	0.00453
3105.67	0.00471
3115.31	0.00224
3124.95	0.00107
3134.6	0.00126
3144.24	0.00178
3153.89	0.00118
3163.53	0.0014
3173.18	0.00108
3182.82	0.0009064
3192.47	0.0005576
3202.11	0.000103
3211.76	0.0006614
3221.4	0.0005497
3231.05	0.0005728
3240.69	0.00113
3250.34	0.0011
3259.98	0.0011
3269.63	0.00164
3279.27	0.00141
3288.92	0.00174
3298.56	0.00256
3308.21	0.00284
3317.85	0.00265
3327.49	0.00216
3337.14	0.0032
3346.78	0.00353
3356.43	0.0026
3366.07	0.00229
3375.72	0.00182
3385.36	0.00202
3395.01	0.00222
3404.65	0.00268
3414.3	0.00152
3423.94	0.00169
3433.59	0.00167
3443.23	0.00122
3452.88	0.0009653
3462.52	0.00139
3472.17	0.00103
3481.81	0.0006123
3491.46	0.00129
3501.1	0.0003652
3510.75	0.00129
3520.39	0.0008489
3530.04	0.00147
3539.68	0.00107
3549.32	0.001
3558.97	0.00151
3568.61	0.00258
3578.26	0.00296
3587.9	0.00385
3597.55	0.00713
3607.19	0.01709
3616.84	0.07709
3626.48	0.25183
3636.13	0.25544
3645.77	0.09206
3655.42	0.01484
3665.06	0.00643
3674.71	0.00395
3684.35	0.00259
3694	0.00203
3703.64	0.00175
3713.29	0.0009076
3722.93	0.0015
3732.58	0.0009353
3742.22	0.0009037
3751.86	0.00118
3761.51	0.00121
3771.15	0.0008137
3780.8	0.0014
3790.44	0.00136
3800.09	0.00168
3809.73	0.00215
3819.38	0.00215
3829.02	0.00191
3838.67	0.00299
3848.31	0.002
3857.96	0.00232
3867.6	0.00263
3877.25	0.00221
3886.89	0.00221
3896.54	0.00202
3906.18	0.00306
3915.83	0.00429
3925.47	0.00292
3935.12	0.00197
3944.76	0.00224
3954.41	0.00261
3964.05	0.00318
3973.69	0.00189
3983.34	0.00114
3992.98	0.0009213
