Infrared Spectrum: Benzophenone, 3,3',4,4',5-pentamethoxy-
Formula: C18 H20 O6
CAS: 22699-97-4
State: SOLID (SPLIT MULL), FLUOROLUBE FOR 3800-1330 CM^-^1, NUJOL FOR 1330-400 CM^-^1
Class: COBLENTZ III
Instrument: BECKMAN IR-9 (GRATING)
Instrument parameters: ORDER CHANGES: 670, 1200, 2000 CM^-^1
Sampling: TRANSMISSION
Resolution: 2
Origin: DOW CHEMICAL COMPANY
1/CM	TRANSMITTANCE
3800	0.6551
3791	0.6551
3782	0.6565
3773	0.658
3764	0.6596
3755	0.6611
3746	0.6626
3737	0.6642
3728	0.6658
3719	0.6667
3710	0.6676
3701	0.6686
3692	0.6695
3683	0.6705
3674	0.6712
3665	0.6715
3656	0.6718
3647	0.6721
3638	0.6725
3629	0.6728
3620	0.6731
3611	0.6739
3602	0.6747
3593	0.6755
3584	0.6764
3575	0.6772
3566	0.6782
3557	0.6791
3548	0.68
3539	0.6808
3530	0.6818
3521	0.6828
3512	0.6838
3503	0.6851
3494	0.6875
3485	0.6901
3476	0.6926
3467	0.6947
3458	0.696
3449	0.6971
3440	0.6984
3431	0.6996
3422	0.7006
3413	0.7003
3404	0.7001
3395	0.6999
3386	0.6997
3377	0.6998
3368	0.7004
3359	0.701
3350	0.7015
3341	0.7021
3332	0.7035
3323	0.7048
3314	0.7061
3305	0.7075
3296	0.7093
3287	0.711
3278	0.7128
3269	0.7149
3260	0.7171
3251	0.7192
3242	0.7211
3233	0.7228
3224	0.7245
3215	0.7258
3206	0.7274
3197	0.7293
3188	0.73
3179	0.7301
3170	0.7311
3161	0.7322
3152	0.7334
3143	0.7343
3134	0.7354
3125	0.7345
3116	0.7312
3107	0.7254
3098	0.7172
3089	0.7155
3080	0.726
3071	0.7358
3062	0.7411
3053	0.7432
3044	0.7417
3035	0.7361
3026	0.6951
3017	0.6371
3008	0.6886
2999	0.6557
2990	0.6668
2981	0.6517
2972	0.6288
2963	0.6437
2954	0.6191
2945	0.5745
2936	0.5748
2927	0.6008
2918	0.6143
2909	0.6302
2900	0.6557
2891	0.6771
2882	0.6888
2873	0.6915
2864	0.6911
2855	0.6768
2846	0.6505
2837	0.6578
2828	0.6844
2819	0.7084
2810	0.7248
2801	0.7317
2792	0.7367
2783	0.741
2774	0.7448
2765	0.7478
2756	0.75
2747	0.7518
2738	0.7533
2729	0.754
2720	0.7543
2711	0.7519
2702	0.7515
2693	0.7576
2684	0.7631
2675	0.7678
2666	0.7701
2657	0.7712
2648	0.7708
2639	0.7646
2630	0.7621
2621	0.7631
2612	0.7661
2603	0.7697
2594	0.7735
2585	0.7781
2576	0.7811
2567	0.7826
2558	0.7843
2549	0.7851
2540	0.785
2531	0.7848
2522	0.7844
2513	0.7842
2504	0.7844
2495	0.7845
2486	0.7845
2477	0.7841
2468	0.7838
2459	0.7833
2450	0.7834
2441	0.7835
2432	0.7832
2423	0.7821
2414	0.7812
2405	0.7805
2396	0.7797
2387	0.7775
2378	0.7758
2369	0.7746
2360	0.7736
2351	0.7725
2342	0.7728
2333	0.7742
2324	0.7758
2315	0.7776
2306	0.7795
2297	0.7814
2288	0.7837
2279	0.786
2270	0.7887
2261	0.7919
2252	0.7962
2243	0.8048
2234	0.8135
2225	0.8201
2216	0.8244
2207	0.8271
2198	0.829
2189	0.831
2180	0.8331
2171	0.8359
2162	0.8378
2153	0.8388
2144	0.8404
2135	0.842
2126	0.8468
2117	0.8528
2108	0.8575
2099	0.86
2090	0.8611
2081	0.8611
2072	0.8617
2063	0.8621
2054	0.8628
2045	0.8625
2036	0.8656
2027	0.8725
2018	0.8775
2009	0.8777
2000	0.856
1991	0.8743
1982	0.8766
1973	0.8817
1964	0.8832
1955	0.8847
1946	0.887
1937	0.8886
1928	0.8899
1919	0.8897
1910	0.8892
1901	0.8871
1892	0.8828
1883	0.8831
1874	0.8867
1865	0.8915
1856	0.8941
1847	0.8961
1838	0.8984
1829	0.9005
1820	0.9012
1811	0.9006
1802	0.9002
1793	0.9002
1784	0.9002
1775	0.9001
1766	0.8989
1757	0.8984
1748	0.8988
1739	0.9025
1730	0.9074
1721	0.9084
1712	0.9104
1703	0.9107
1694	0.9116
1685	0.911
1676	0.9093
1667	0.9055
1658	0.8915
1649	0.8108
1640	0.6414
1631	0.6376
1622	0.8403
1613	0.8493
1604	0.6725
1595	0.5395
1586	0.2284
1577	0.4154
1568	0.6799
1559	0.7865
1550	0.8324
1541	0.8487
1532	0.8361
1523	0.6954
1514	0.3923
1505	0.5272
1496	0.7656
1487	0.7986
1478	0.7717
1469	0.3968
1460	0.4439
1451	0.4534
1442	0.5897
1433	0.7218
1424	0.4429
1415	0.2312
1406	0.4989
1397	0.6982
1388	0.7472
1379	0.7625
1370	0.7603
1361	0.7401
1352	0.6754
1343	0.496
1334	0.1167
1325	0.3607
1316	0.6209
1307	0.7126
1298	0.7293
1289	0.6705
1280	0.5673
1271	0.1228
1262	0.3042
1253	0.5506
1244	0.3536
1235	0.492
1226	0.5851
1217	0.5432
1208	0.7445
1199	0.7242
1190	0.6724
1181	0.7307
1172	0.5001
1163	0.6508
1154	0.4102
1145	0.6108
1136	0.4833
1127	0.1339
1118	0.363
1109	0.7305
1100	0.7951
1091	0.8238
1082	0.835
1073	0.8418
1064	0.8437
1055	0.8195
1046	0.83
1037	0.6825
1028	0.4716
1019	0.7649
1010	0.7974
1001	0.4719
992	0.7489
983	0.8375
974	0.8595
965	0.8706
956	0.875
947	0.8655
938	0.8803
929	0.8825
920	0.8827
911	0.8809
902	0.8877
893	0.8805
884	0.7597
875	0.7868
866	0.8911
857	0.8958
848	0.8039
839	0.9078
830	0.8957
821	0.8402
812	0.9158
803	0.8499
794	0.9092
785	0.908
776	0.8435
767	0.2434
758	0.6953
749	0.8521
740	0.6519
731	0.7967
722	0.8308
713	0.8912
704	0.9196
695	0.9243
686	0.9125
677	0.8067
668	0.8468
659	0.912
650	0.8958
641	0.7469
632	0.8978
623	0.8833
614	0.912
605	0.9073
596	0.8592
587	0.8868
578	0.9127
569	0.904
560	0.9118
551	0.9111
542	0.9045
533	0.8828
524	0.8815
515	0.8839
506	0.875
497	0.8682
488	0.8668
479	0.8534
470	0.8295
461	0.79
452	0.7746
443	0.7298
434	0.713
425	0.7076
416	0.7131
407	0.7337
