Infrared Spectrum: DIBENZO(a1)PENTACENE
Formula: C30 H18
CAS: 227-09-8
State: SOLID (KBr PELLET)
Melting point: 440 C (D.)
Class: COBLENTZ
Instrument: Not specified, most likely a prism, grating, or hybrid spectrometer.
Sampling: TRANSMISSION
Resolution: 4
Origin: UNION CARBIDE CORPORATION (CARBON PRODUCTS DIVISION)
MICROMETERS	TRANSMITTANCE
2.02	0.16
2.05326	0.158
2.08653	0.158
2.11979	0.156
2.15306	0.156
2.18632	0.156
2.21958	0.159
2.25285	0.159
2.28611	0.163
2.31938	0.167
2.35264	0.168
2.38591	0.169
2.41917	0.171
2.45243	0.173
2.4857	0.177
2.51896	0.177
2.55223	0.18
2.58549	0.181
2.61875	0.183
2.65202	0.192
2.68528	0.193
2.71855	0.193
2.75181	0.195
2.78508	0.197
2.81834	0.2
2.8516	0.201
2.88487	0.204
2.91813	0.205
2.9514	0.208
2.98466	0.209
3.01792	0.225
3.05119	0.232
3.08445	0.243
3.11772	0.248
3.15098	0.253
3.18425	0.261
3.21751	0.268
3.25077	0.273
3.28404	0.272
3.3173	0.269
3.35057	0.269
3.38383	0.272
3.41709	0.278
3.45036	0.281
3.48362	0.285
3.51689	0.289
3.55015	0.298
3.58342	0.306
3.61668	0.31
3.64994	0.312
3.68321	0.318
3.71647	0.322
3.74974	0.326
3.783	0.329
3.81626	0.33
3.84953	0.342
3.88279	0.345
3.91606	0.347
3.94932	0.355
3.98259	0.358
4.01585	0.363
4.04911	0.369
4.08238	0.37
4.11564	0.374
4.14891	0.378
4.18217	0.381
4.21543	0.383
4.2487	0.383
4.28196	0.382
4.31523	0.383
4.34849	0.399
4.38176	0.405
4.41502	0.41
4.44828	0.414
4.48155	0.419
4.51481	0.424
4.54808	0.431
4.58134	0.435
4.6146	0.438
4.64787	0.44
4.68113	0.448
4.7144	0.45
4.74766	0.452
4.78093	0.456
4.81419	0.462
4.84745	0.464
4.88072	0.47
4.91398	0.476
4.94725	0.479
4.98051	0.482
5.01377	0.486
5.04704	0.491
5.0803	0.492
5.11357	0.498
5.14683	0.494
5.1801	0.496
5.21336	0.498
5.24662	0.5
5.27989	0.503
5.31315	0.507
5.34642	0.513
5.37968	0.516
5.41294	0.519
5.44621	0.524
5.47947	0.521
5.51274	0.516
5.546	0.521
5.57927	0.532
5.61253	0.532
5.64579	0.532
5.67906	0.535
5.71232	0.541
5.74559	0.543
5.77885	0.551
5.81211	0.552
5.84538	0.551
5.87864	0.549
5.91191	0.551
5.94517	0.555
5.97844	0.555
6.0117	0.552
6.04496	0.555
6.07823	0.56
6.11149	0.559
6.14476	0.551
6.17802	0.556
6.21128	0.565
6.24455	0.564
6.27781	0.579
6.31108	0.583
6.34434	0.585
6.37761	0.589
6.41087	0.589
6.44413	0.596
6.4774	0.596
6.51066	0.612
6.54393	0.612
6.57719	0.613
6.61045	0.602
6.64372	0.609
6.67698	0.6
6.71025	0.565
6.74351	0.589
6.77678	0.604
6.81004	0.624
6.8433	0.609
6.87657	0.571
6.90983	0.618
6.9431	0.617
6.97636	0.583
7.00962	0.59
7.04289	0.6
7.07615	0.632
7.10942	0.64
7.14268	0.642
7.17595	0.665
7.20921	0.691
7.24247	0.679
7.27574	0.678
7.309	0.674
7.34227	0.673
7.37553	0.671
7.40879	0.673
7.44206	0.656
7.47532	0.661
7.50859	0.667
7.54185	0.644
7.57512	0.589
7.60838	0.65
7.64164	0.544
7.67491	0.544
7.70817	0.601
7.74144	0.626
7.7747	0.65
7.80796	0.653
7.84123	0.652
7.87449	0.661
7.90776	0.674
7.94102	0.671
7.97429	0.67
8.00755	0.679
8.04081	0.677
8.07408	0.569
8.10734	0.618
8.14061	0.65
8.17387	0.67
8.20713	0.675
8.2404	0.669
8.27366	0.675
8.30693	0.679
8.34019	0.685
8.37346	0.689
8.40672	0.69
8.43998	0.694
8.47325	0.695
8.50651	0.699
8.53978	0.701
8.57304	0.697
8.6063	0.695
8.63957	0.693
8.67283	0.695
8.7061	0.65
8.73936	0.669
8.77263	0.694
8.80589	0.701
8.83915	0.706
8.87242	0.701
8.90568	0.706
8.93895	0.711
8.97221	0.714
9.00547	0.709
9.03874	0.699
9.072	0.689
9.10527	0.693
9.13853	0.711
9.1718	0.722
9.20506	0.722
9.23832	0.729
9.27159	0.733
9.30485	0.738
9.33812	0.739
9.37138	0.739
9.40464	0.739
9.43791	0.739
9.47117	0.739
9.50444	0.745
9.5377	0.749
9.57097	0.754
9.60423	0.741
9.63749	0.674
9.67076	0.71
9.70402	0.731
9.73729	0.741
9.77055	0.75
9.80381	0.759
9.83708	0.767
9.87034	0.766
9.90361	0.77
9.93687	0.771
9.97014	0.776
10.0034	0.779
10.0367	0.78
10.0699	0.782
10.1032	0.784
10.1365	0.784
10.1697	0.77
10.203	0.766
10.2362	0.768
10.2695	0.778
10.3028	0.779
10.336	0.779
10.3693	0.782
10.4026	0.792
10.4358	0.8
10.4691	0.808
10.5024	0.808
10.5356	0.8
10.5689	0.709
10.6022	0.67
10.6354	0.745
10.6687	0.788
10.7019	0.815
10.7352	0.826
10.7685	0.831
10.8017	0.837
10.835	0.841
10.8683	0.836
10.9015	0.804
10.9348	0.652
10.9681	0.232
11.0013	0.059
11.0346	0.147
11.0679	0.35
11.1011	0.5
11.1344	0.589
11.1676	0.638
11.2009	0.683
11.2342	0.698
11.2674	0.629
11.3007	0.577
11.334	0.583
11.3672	0.658
11.4005	0.727
11.4338	0.749
11.467	0.755
11.5003	0.749
11.5336	0.754
11.5668	0.775
11.6001	0.784
11.6333	0.798
11.6666	0.802
11.6999	0.799
11.7331	0.802
11.7664	0.81
11.7997	0.807
11.8329	0.699
11.8662	0.661
11.8995	0.721
11.9327	0.77
11.966	0.79
11.9992	0.807
12.0325	0.818
12.0658	0.82
12.099	0.833
12.1323	0.84
12.1656	0.844
12.1988	0.843
12.2321	0.837
12.2654	0.778
12.2986	0.678
12.3319	0.393
12.3652	0.209
12.3984	0.159
12.4317	0.261
12.4649	0.444
12.4982	0.527
12.5315	0.608
12.5647	0.658
12.598	0.707
12.6313	0.721
12.6645	0.754
12.6978	0.767
12.7311	0.778
12.7643	0.784
12.7976	0.787
12.8309	0.778
12.8641	0.75
12.8974	0.775
12.9306	0.794
12.9639	0.803
12.9972	0.807
13.0304	0.811
13.0637	0.818
13.097	0.822
13.1302	0.82
13.1635	0.819
13.1968	0.807
13.23	0.787
13.2633	0.719
13.2966	0.636
13.3298	0.528
13.3631	0.488
13.3963	0.5
13.4296	0.503
13.4629	0.413
13.4961	0.282
13.5294	0.221
13.5627	0.394
13.5959	0.524
13.6292	0.617
13.6625	0.666
13.6957	0.666
13.729	0.501
13.7623	0.507
13.7955	0.616
13.8288	0.67
13.862	0.693
13.8953	0.71
13.9286	0.726
13.9618	0.741
13.9951	0.749
14.0284	0.75
14.0616	0.75
14.0949	0.752
14.1282	0.75
14.1614	0.746
14.1947	0.747
14.2279	0.749
14.2612	0.752
14.2945	0.756
14.3277	0.756
14.361	0.755
14.3943	0.754
14.4275	0.754
14.4608	0.754
14.4941	0.749
14.5273	0.747
14.5606	0.747
14.5939	0.747
14.6271	0.743
14.6604	0.738
14.6936	0.734
14.7269	0.729
14.7602	0.722
14.7934	0.721
14.8267	0.719
14.86	0.715
14.8932	0.717
14.9265	0.71
14.9598	0.682
14.993	0.598
15.0263	0.613
