Infrared Spectrum: BENZOSELENADIAZOLE, 2,1,3-
Formula: C6 H4 N2 Se
CAS: 22706-23-6
State: SOLUTION (10% CCl4 FOR 3800-1325, 10% CS2 FOR 1325-400 CM^-^1)
Class: COBLENTZ III
Instrument: DOW KBr FOREPRISM-GRATING
Instrument parameters: BLAZED AT 3.5, 12.0, 20.0 MICRON AND CHANGED AT 5.0, 7.5, 14.9 MICRON
Sampling: TRANSMISSION
Path length: 0.011 CM, 0.011 CM
Resolution: 2
Origin: DOW CHEMICAL COMPANY
1/CM	TRANSMITTANCE
381	0.4714
390	0.4849
399	0.5393
408	0.6584
417	0.7208
426	0.7568
435	0.7891
444	0.8143
453	0.8317
462	0.8428
471	0.8514
480	0.8541
489	0.8528
498	0.8553
507	0.861
516	0.8608
525	0.8599
534	0.861
543	0.8598
552	0.8092
561	0.8653
570	0.8711
579	0.8705
588	0.8351
597	0.7391
606	0.8855
615	0.8931
624	0.8931
633	0.8857
642	0.8711
651	0.8513
660	0.8525
669	0.8762
678	0.8811
687	0.8636
696	0.7507
705	0.5426
714	0.8083
723	0.7917
732	0.676
741	0.0906
750	0.0167
759	0.5403
768	0.6978
777	0.8548
786	0.9175
795	0.9171
804	0.9577
813	0.962
822	0.9625
831	0.9431
840	0.8964
849	0.8201
858	0.8051
867	0.8427
876	0.8766
885	0.915
894	0.9433
903	0.9548
912	0.9685
921	0.9673
930	0.9641
939	0.9415
948	0.8718
957	0.9453
966	0.932
975	0.8799
984	0.9432
993	0.9514
1002	0.953
1011	0.9509
1020	0.9374
1029	0.9342
1038	0.9395
1047	0.9395
1056	0.9358
1065	0.9223
1074	0.9416
1083	0.9452
1092	0.9486
1101	0.9507
1110	0.9323
1119	0.8978
1128	0.7791
1137	0.8502
1146	0.771
1155	0.92
1164	0.9403
1173	0.9334
1182	0.9323
1191	0.9303
1200	0.9258
1209	0.9167
1218	0.9053
1227	0.9189
1236	0.9175
1245	0.9162
1254	0.9134
1263	0.9039
1272	0.8835
1281	0.8604
1290	0.3307
1299	0.7387
1308	0.9953
1317	1.0087
1326	1.0128
1335	1.0111
1344	0.9848
1353	0.8874
1362	1.034
1371	1.0383
1380	1.0315
1389	1.0274
1398	1.0196
1407	1.0145
1416	1.0066
1425	0.9971
1434	0.9736
1443	0.9702
1452	0.9603
1461	0.9486
1470	0.911
1479	0.7436
1488	0.8709
1497	0.8205
1506	0.5194
1515	0.4105
1524	0.6849
1533	0.6046
1542	0.5085
1551	0.4919
1560	0.5727
1569	0.6657
1578	0.6848
1587	0.7
1596	0.7891
1605	0.8821
1614	0.9383
1623	0.9723
1632	0.9845
1641	0.9923
1650	0.9973
1659	0.9987
1668	1.0036
1677	1.003
1686	0.9768
1695	0.9306
1704	0.9861
1713	0.9841
1722	0.999
1731	0.9878
1740	0.9908
1749	1.0105
1758	1.0123
1767	1.0112
1776	1.0005
1785	0.9731
1794	0.9251
1803	0.9618
1812	0.9478
1821	0.9202
1830	0.9802
1839	0.9852
1848	0.9861
1857	0.9861
1866	0.9857
1875	0.9846
1884	0.9817
1893	0.973
1902	0.9589
1911	0.9689
1920	0.9461
1929	0.957
1938	0.9567
1947	0.9249
1956	0.9463
1965	0.9735
1974	0.9758
1983	0.9744
1992	0.9686
2001	0.9798
2010	0.9808
2019	0.9805
2028	0.9803
2037	0.9807
2046	0.9821
2055	0.9841
2064	0.9847
2073	0.9852
2082	0.985
2091	0.9846
2100	0.9841
2109	0.9825
2118	0.9816
2127	0.9807
2136	0.9804
2145	0.9825
2154	0.9843
2163	0.9851
2172	0.9854
2181	0.9857
2190	0.986
2199	0.9859
2208	0.9851
2217	0.9836
2226	0.982
2235	0.9803
2244	0.9775
2253	0.9725
2262	0.9665
2271	0.9597
2280	0.9544
2289	0.9505
2298	0.9571
2307	0.9674
2316	0.9633
2325	0.9593
2334	0.9617
2343	0.9651
2352	0.9654
2361	0.9595
2370	0.9642
2379	0.9727
2388	0.9732
2397	0.9728
2406	0.9713
2415	0.9702
2424	0.9692
2433	0.9681
2442	0.968
2451	0.968
2460	0.9675
2469	0.967
2478	0.9662
2487	0.9656
2496	0.9654
2505	0.9665
2514	0.9677
2523	0.9717
2532	0.9754
2541	0.9775
2550	0.9764
2559	0.9746
2568	0.9748
2577	0.975
2586	0.9735
2595	0.9717
2604	0.9695
2613	0.9677
2622	0.9667
2631	0.9663
2640	0.9674
2649	0.968
2658	0.966
2667	0.9643
2676	0.9625
2685	0.9625
2694	0.9666
2703	0.9671
2712	0.9668
2721	0.9665
2730	0.9663
2739	0.9664
2748	0.9671
2757	0.968
2766	0.9685
2775	0.9678
2784	0.9668
2793	0.9659
2802	0.965
2811	0.9641
2820	0.9628
2829	0.9613
2838	0.9598
2847	0.9578
2856	0.9556
2865	0.9568
2874	0.9614
2883	0.9615
2892	0.9616
2901	0.9617
2910	0.9618
2919	0.9615
2928	0.9595
2937	0.9568
2946	0.9541
2955	0.9507
2964	0.9458
2973	0.9382
2982	0.9446
2991	0.9444
3000	0.9331
3009	0.9258
3018	0.9333
3027	0.93
3036	0.9155
3045	0.8583
3054	0.8443
3063	0.8521
3072	0.7617
3081	0.8414
3090	0.8571
3099	0.898
3108	0.9336
3117	0.9348
3126	0.9375
3135	0.9501
3144	0.9547
3153	0.9557
3162	0.9558
3171	0.9555
3180	0.9553
3189	0.9548
3198	0.9541
3207	0.9534
3216	0.9528
3225	0.9524
3234	0.9521
3243	0.9516
3252	0.9512
3261	0.9504
3270	0.9495
3279	0.9487
3288	0.9478
3297	0.9468
3306	0.9459
3315	0.9449
3324	0.944
3333	0.9433
3342	0.9425
3351	0.9418
3360	0.9413
3369	0.9406
3378	0.9399
3387	0.9392
3396	0.9385
3405	0.9375
3414	0.9365
3423	0.9353
3432	0.9343
3441	0.9334
3450	0.9325
3459	0.9318
3468	0.9316
3477	0.9312
3486	0.9313
3495	0.9318
3504	0.9325
3513	0.9337
3522	0.9352
3531	0.9373
3540	0.9396
3549	0.9411
3558	0.9414
3567	0.9409
3576	0.9354
3585	0.915
3594	0.9436
3603	0.9388
3612	0.9365
3621	0.944
3630	0.9448
3639	0.9454
3648	0.9462
3657	0.947
3666	0.9465
3675	0.939
3684	0.9306
3693	0.9373
3702	0.9442
3711	0.9497
3720	0.9534
3729	0.9556
3738	0.956
3747	0.9559
3756	0.9555
3765	0.9554
3774	0.9553
