Infrared Spectrum: 5-Phenylvaleric acid
Formula: C 11 H 14 O 2
CAS: 2270-20-4
State: gas
Origin: EPA-IR VAPOR PHASE LIBRARY
1/CM	ABSORBANCE
549.8	0.0263478
559.445	0.0274878
569.09	0.0268378
578.734	0.0297378
588.379	0.0333078
598.024	0.0338378
607.669	0.0334778
617.313	0.0315478
626.958	0.0298778
636.603	0.0253078
646.248	0.0194778
655.893	0.0162978
665.537	0.0161578
675.182	0.0193078
684.827	0.0279978
694.472	0.0464578
704.116	0.0420478
713.761	0.0298578
723.406	0.0300978
733.051	0.0418778
742.695	0.0429778
752.34	0.0245978
761.985	0.0125978
771.63	0.0080978
781.275	0.0067078
790.919	0.0049178
800.564	0.0037578
810.209	0.0035078
819.854	0.0030178
829.498	0.0032278
839.143	0.0032778
848.788	0.0036078
858.433	0.0039778
868.078	0.0045578
877.722	0.0042578
887.367	0.0045678
897.012	0.0049878
906.657	0.0056678
916.301	0.0048078
925.946	0.0041078
935.591	0.0037678
945.236	0.0036778
954.88	0.0035978
964.525	0.0037378
974.17	0.0042978
983.815	0.0050878
993.46	0.0062278
1003.1	0.0079778
1012.75	0.0108778
1022.39	0.0169278
1032.04	0.0247078
1041.68	0.0238878
1051.33	0.0255178
1060.97	0.0300778
1070.62	0.0380478
1080.26	0.0438878
1089.91	0.0489178
1099.55	0.0651078
1109.2	0.0947778
1118.84	0.123308
1128.49	0.101788
1138.13	0.0708278
1147.78	0.0548178
1157.42	0.0469878
1167.07	0.0437178
1176.71	0.0409678
1186.36	0.0369278
1196	0.0316178
1205.64	0.0273578
1215.29	0.0224678
1224.93	0.0191278
1234.58	0.0172478
1244.22	0.0165278
1253.87	0.0163378
1263.51	0.0166778
1273.16	0.0159078
1282.8	0.0153378
1292.45	0.0146878
1302.09	0.0143578
1311.74	0.0137278
1321.38	0.0136978
1331.03	0.0151578
1340.67	0.0181978
1350.32	0.0217778
1359.96	0.0242978
1369.61	0.0266478
1379.25	0.0286278
1388.9	0.0245878
1398.54	0.0169478
1408.18	0.0124078
1417.83	0.0115378
1427.47	0.0131378
1437.12	0.0152778
1446.76	0.0193378
1456.41	0.0219278
1466.05	0.0161178
1475.7	0.0099578
1485.34	0.0105478
1494.99	0.0205678
1504.63	0.0122378
1514.28	0.0039378
1523.92	0.0028578
1533.57	0.0025378
1543.21	0.0023478
1552.86	0.0020978
1562.5	0.0025078
1572.15	0.0033478
1581.79	0.0048178
1591.44	0.0073178
1601.08	0.0111878
1610.73	0.0079978
1620.37	0.0033378
1630.01	0.0023578
1639.66	0.0022678
1649.3	0.0024278
1658.95	0.0023878
1668.59	0.0026778
1678.24	0.0032078
1687.88	0.0040178
1697.53	0.0055178
1707.17	0.0077378
1716.82	0.0120278
1726.46	0.0194878
1736.11	0.0328778
1745.75	0.0543278
1755.4	0.0834178
1765.04	0.130838
1774.69	0.186658
1784.33	0.164458
1793.98	0.102978
1803.62	0.0621278
1813.27	0.0328078
1822.91	0.0167478
1832.55	0.0095378
1842.2	0.0064278
1851.84	0.0050678
1861.49	0.0046378
1871.13	0.0042978
1880.78	0.0036778
1890.42	0.0029378
1900.07	0.0024878
1909.71	0.0023478
1919.36	0.0026078
1929	0.0032378
1938.65	0.0037378
1948.29	0.0037178
1957.94	0.0027778
1967.58	0.0016378
1977.23	0.0014778
1986.87	0.0012978
1996.52	0.0012178
2006.16	0.0010978
2015.81	0.0009751
2025.45	0.0008979
2035.1	0.0009932
2044.74	0.0008586
2054.38	0.0008456
2064.03	0.0008485
2073.67	0.0007992
2083.32	0.0007989
2092.96	0.0006525
2102.61	0.0008087
2112.25	0.0007499
2121.9	0.0008052
2131.54	0.0008548
2141.19	0.0008837
2150.83	0.0009887
2160.48	0.0009887
2170.12	0.0009765
2179.77	0.0010015
2189.41	0.0011178
2199.06	0.0009867
2208.7	0.0011078
2218.35	0.0010678
2227.99	0.0011078
2237.64	0.0011078
2247.28	0.000967
2256.92	0.0010005
2266.57	0.0009055
2276.21	0.000811
2285.86	0.0008897
2295.5	0.000949
2305.15	0.0009402
2314.79	0.0010202
2324.44	0.0010478
2334.08	0.0010269
2343.73	0.0010978
2353.37	0.0008435
2363.02	0.0009911
2372.66	0.0008485
2382.31	0.0009186
2391.95	0.0007893
2401.6	0.0008615
2411.24	0.0007929
2420.89	0.0007264
2430.53	0.0008292
2440.18	0.0008676
2449.82	0.0008199
2459.47	0.0006947
2469.11	0.0006754
2478.75	0.000634
2488.4	0.0006964
2498.04	0.0007934
2507.69	0.0006746
2517.33	0.0006068
2526.98	0.0007064
2536.62	0.0006089
2546.27	0.0006302
2555.91	0.0006349
2565.56	0.0006086
2575.2	0.0006602
2584.85	0.0007349
2594.49	0.0007408
2604.14	0.000856
2613.78	0.0007445
2623.43	0.0007557
2633.07	0.0008681
2642.72	0.0009468
2652.36	0.0009182
2662.01	0.0010088
2671.65	0.0010087
2681.29	0.0009906
2690.94	0.0009581
2700.58	0.0009
2710.23	0.0009821
2719.87	0.0008519
2729.52	0.0007947
2739.16	0.000835
2748.81	0.0009036
2758.45	0.0009126
2768.1	0.0012078
2777.74	0.0014778
2787.39	0.0017978
2797.03	0.0019178
2806.68	0.0021878
2816.32	0.0026378
2825.97	0.0036978
2835.61	0.0051678
2845.26	0.0083378
2854.9	0.0153878
2864.55	0.0246078
2874.19	0.0259678
2883.84	0.0202778
2893.48	0.0168578
2903.12	0.0191278
2912.77	0.0284678
2922.41	0.0453878
2932.06	0.0612878
2941.7	0.0698278
2951.35	0.0634678
2960.99	0.0438278
2970.64	0.0258478
2980.28	0.0161878
2989.93	0.0115378
2999.57	0.0103478
3009.22	0.0123878
3018.86	0.0189478
3028.51	0.0332478
3038.15	0.0330578
3047.8	0.0185478
3057.44	0.0188078
3067.09	0.0314378
3076.73	0.0289878
3086.38	0.0185978
3096.02	0.0134778
3105.67	0.0090478
3115.31	0.0056378
3124.95	0.0025778
3134.6	0.0014478
3144.24	0.0011378
3153.89	0.0009136
3163.53	0.0009164
3173.18	0.0007337
3182.82	0.0003954
3192.47	0.0005041
3202.11	0.0002505
3211.76	0.0002981
3221.4	0.0004684
3231.05	0.000405
3240.69	0.0003622
3250.34	0.0002374
3259.98	0.0001524
3269.63	0.000338
3279.27	0.0003017
3288.92	0.0003503
3298.56	0.0003326
3308.21	0.0002221
3317.85	0.0003744
3327.49	0.0003659
3337.14	0.0002592
3346.78	0.00012748
3356.43	0.0002936
3366.07	0.0003021
3375.72	0.0002561
3385.36	0.0002423
3395.01	0.0002716
3404.65	0.0004288
3414.3	0.0005303
3423.94	0.0003674
3433.59	0.0003981
3443.23	0.0004873
3452.88	0.0005447
3462.52	0.0003457
3472.17	0.0007331
3481.81	0.0010254
3491.46	0.0010678
3501.1	0.0015078
3510.75	0.0019478
3520.39	0.0024878
3530.04	0.0031878
3539.68	0.0044878
3549.32	0.0074578
3558.97	0.0157378
3568.61	0.0534778
3578.26	0.0749578
3587.9	0.0212678
3597.55	0.0077378
3607.19	0.0044778
3616.84	0.0026478
3626.48	0.0018378
3636.13	0.0016078
3645.77	0.0013378
3655.42	0.0010978
3665.06	0.0009442
3674.71	0.0008345
3684.35	0.0007543
3694	0.0005644
3703.64	0.0007546
3713.29	0.0006284
3722.93	0.0004224
3732.58	0.0006035
3742.22	0.0005951
3751.86	0.0005497
3761.51	0.0006584
3771.15	0.0005361
3780.8	0.0005445
3790.44	0.0005029
3800.09	0.0004621
3809.73	0.0003774
3819.38	0.0004036
3829.02	0.0004713
3838.67	0.0004894
3848.31	0.0004995
3857.96	0.0004568
3867.6	0.0005489
3877.25	0.0005872
3886.89	0.0003322
3896.54	0.0003457
3906.18	0.0006643
3915.83	0.0005764
3925.47	0.0002927
3935.12	0.0004512
3944.76	0.0003555
3954.41	0.0005939
3964.05	0.0005512
3973.69	0.0008821
3983.34	0.0008018
3992.98	0.0003825
