Infrared Spectrum: 4-Chlorodibenzoyl
Formula: C 14 H 9 Cl O 2
CAS: 22711-23-5
State: gas
Origin: EPA-IR VAPOR PHASE LIBRARY
1/CM	ABSORBANCE
549.8	0.014453
559.445	0.004693
569.09	0.002803
578.734	0.002583
588.379	0.001773
598.024	0.002193
607.669	0.003873
617.313	0.007653
626.958	0.015173
636.603	0.016363
646.248	0.042253
655.893	0.087523
665.537	0.081903
675.182	0.039033
684.827	0.047583
694.472	0.040133
704.116	0.053003
713.761	0.061133
723.406	0.045753
733.051	0.029583
742.695	0.023653
752.34	0.033523
761.985	0.026753
771.63	0.027273
781.275	0.033353
790.919	0.049313
800.564	0.027833
810.209	0.024353
819.854	0.036753
829.498	0.058853
839.143	0.080143
848.788	0.035493
858.433	0.053213
868.078	0.098223
877.722	0.128353
887.367	0.048673
897.012	0.029103
906.657	0.013283
916.301	0.009743
925.946	0.010243
935.591	0.009643
945.236	0.007733
954.88	0.006433
964.525	0.006023
974.17	0.004993
983.815	0.003883
993.46	0.005983
1003.1	0.012303
1012.75	0.043473
1022.39	0.022883
1032.04	0.006943
1041.68	0.004173
1051.33	0.006263
1060.97	0.010643
1070.62	0.024893
1080.26	0.049023
1089.91	0.085653
1099.55	0.096243
1109.2	0.037483
1118.84	0.013123
1128.49	0.007423
1138.13	0.008763
1147.78	0.013693
1157.42	0.024263
1167.07	0.070383
1176.71	0.154453
1186.36	0.083613
1196	0.163813
1205.64	0.226513
1215.29	0.055513
1224.93	0.030623
1234.58	0.025423
1244.22	0.017203
1253.87	0.016993
1263.51	0.022173
1273.16	0.027713
1282.8	0.029563
1292.45	0.026603
1302.09	0.022983
1311.74	0.024643
1321.38	0.018923
1331.03	0.010973
1340.67	0.008543
1350.32	0.007793
1359.96	0.006473
1369.61	0.006553
1379.25	0.008153
1388.9	0.012773
1398.54	0.029343
1408.18	0.021253
1417.83	0.010513
1427.47	0.008103
1437.12	0.009813
1446.76	0.026363
1456.41	0.018233
1466.05	0.008813
1475.7	0.015343
1485.34	0.039973
1494.99	0.024383
1504.63	0.007403
1514.28	0.005603
1523.92	0.005843
1533.57	0.006813
1543.21	0.009163
1552.86	0.014583
1562.5	0.032223
1572.15	0.066073
1581.79	0.101593
1591.44	0.147113
1601.08	0.074133
1610.73	0.029203
1620.37	0.019753
1630.01	0.015193
1639.66	0.017063
1649.3	0.023553
1658.95	0.034993
1668.59	0.064043
1678.24	0.147963
1687.88	0.290933
1697.53	0.238233
1707.17	0.122013
1716.82	0.058513
1726.46	0.027193
1736.11	0.014833
1745.75	0.010133
1755.4	0.007843
1765.04	0.007893
1774.69	0.008063
1784.33	0.007413
1793.98	0.007223
1803.62	0.007193
1813.27	0.007123
1822.91	0.004843
1832.55	0.003903
1842.2	0.002843
1851.84	0.002583
1861.49	0.002533
1871.13	0.002423
1880.78	0.002743
1890.42	0.003943
1900.07	0.005693
1909.71	0.006403
1919.36	0.006323
1929	0.004603
1938.65	0.003603
1948.29	0.003573
1957.94	0.004513
1967.58	0.004093
1977.23	0.003473
1986.87	0.001823
1996.52	0.001733
2006.16	0.001499
2015.81	0.001703
2025.45	0.002033
2035.1	0.002013
2044.74	0.001573
2054.38	0.001613
2064.03	0.001583
2073.67	0.0014724
2083.32	0.001341
2092.96	0.0012934
2102.61	0.0013609
2112.25	0.0013119
2121.9	0.0013719
2131.54	0.00128
2141.19	0.0013292
2150.83	0.0014003
2160.48	0.0013277
2170.12	0.0010731
2179.77	0.0010392
2189.41	0.0010553
2199.06	0.000999
2208.7	0.0008345
2218.35	0.0009318
2227.99	0.0010725
2237.64	0.0009865
2247.28	0.0010532
2256.92	0.0011943
2266.57	0.0012152
2276.21	0.0014633
2285.86	0.001803
2295.5	0.001663
2305.15	0.0013108
2314.79	0.001673
2324.44	0.002153
2334.08	0.0015084
2343.73	0.001653
2353.37	0.0011167
2363.02	0.0010571
2372.66	0.0012302
2382.31	0.0014701
2391.95	0.0012189
2401.6	0.0012228
2411.24	0.0012365
2420.89	0.0014095
2430.53	0.0010697
2440.18	0.0014845
2449.82	0.001673
2459.47	0.001793
2469.11	0.001953
2478.75	0.002133
2488.4	0.002163
2498.04	0.001803
2507.69	0.001993
2517.33	0.001993
2526.98	0.002203
2536.62	0.002393
2546.27	0.002473
2555.91	0.002533
2565.56	0.002403
2575.2	0.002193
2584.85	0.002293
2594.49	0.002123
2604.14	0.001723
2613.78	0.0013562
2623.43	0.0012573
2633.07	0.001276
2642.72	0.001033
2652.36	0.0011988
2662.01	0.0012859
2671.65	0.00103
2681.29	0.001092
2690.94	0.0014281
2700.58	0.0012586
2710.23	0.0011854
2719.87	0.0013906
2729.52	0.001763
2739.16	0.001553
2748.81	0.0014559
2758.45	0.001703
2768.1	0.001943
2777.74	0.001843
2787.39	0.001813
2797.03	0.001843
2806.68	0.0011243
2816.32	0.0009292
2825.97	0.0006516
2835.61	0.0006984
2845.26	0.0011892
2854.9	0.0011531
2864.55	0.0013112
2874.19	0.001285
2883.84	0.0014898
2893.48	0.0013188
2903.12	0.0013226
2912.77	0.0010857
2922.41	0.0011564
2932.06	0.001084
2941.7	0.0013822
2951.35	0.0012754
2960.99	0.001583
2970.64	0.001643
2980.28	0.002143
2989.93	0.001893
2999.57	0.002023
3009.22	0.003103
3018.86	0.004433
3028.51	0.007483
3038.15	0.010443
3047.8	0.009713
3057.44	0.013133
3067.09	0.025013
3076.73	0.034173
3086.38	0.021953
3096.02	0.017313
3105.67	0.008953
3115.31	0.004703
3124.95	0.003333
3134.6	0.002473
3144.24	0.002033
3153.89	0.002263
3163.53	0.002063
3173.18	0.0014521
3182.82	0.0009381
3192.47	0.0010522
3202.11	0.0011544
3211.76	0.001025
3221.4	0.0008907
3231.05	0.00059276
3240.69	0.0006854
3250.34	0.0006667
3259.98	0.000331
3269.63	0.0009164
3279.27	0.0007564
3288.92	0.0007587
3298.56	0.0010965
3308.21	0.0008076
3317.85	0.0009075
3327.49	0.001753
3337.14	0.002063
3346.78	0.003213
3356.43	0.004363
3366.07	0.004393
3375.72	0.003383
3385.36	0.002763
3395.01	0.001923
3404.65	0.0012635
3414.3	0.0008009
3423.94	0.0006864
3433.59	0.0007683
3443.23	0.0004476
3452.88	0.0006951
3462.52	0.000213
3472.17	0.0007828
3481.81	0.00057802
3491.46	0.0004802
3501.1	0.000195
3510.75	0.000387
3520.39	0.0004813
3530.04	0.000263
3539.68	6.2e-05
3549.32	0.0004611
3558.97	0.000421
3568.61	0.0004498
3578.26	0.000423
3587.9	0.000178
3597.55	0.000258
3607.19	0.000253
3616.84	0.0007126
3626.48	0.000402
3636.13	0.00061644
3645.77	0.000324
3655.42	0.00059052
3665.06	0.0006465
3674.71	0.000331
3684.35	0.0008665
3694	0.000411
3703.64	0.0006335
3713.29	0.0007663
3722.93	0.0008392
3732.58	0.0009331
3742.22	0.0006428
3751.86	0.000299
3761.51	0.0007843
3771.15	0.000299
3780.8	0.00025
3790.44	0.0006877
3800.09	0.0003
3809.73	0.0007522
3819.38	0.00052919
3829.02	0.0005121
3838.67	0.00025
3848.31	0.00014
3857.96	0.0004699
3867.6	0.000125
3877.25	0.000277
3886.89	0.000273
3896.54	0.000386
3906.18	0.0001
3915.83	0.000336
3925.47	0.000116
3935.12	0.00057873
3944.76	0.0004712
3954.41	0.0004837
3964.05	0.000125
3973.69	9.6e-05
3983.34	0.000424
3992.98	0.0006828
