Infrared Spectrum: Pyrimidine, 2,5-diamino-
Formula: C4 H6 N4
CAS: 22715-27-1
State: SOLID (0.8 mg / 650 mg KBr DISC)
Class: COBLENTZ III
Instrument: PERKIN-ELMER 21 (GRATING)
Instrument parameters: FILTER CHANGE ABOUT 1020 CM^-^1
Resolution: 2
Origin: SOUTHERN RESEARCH INSTITUTE
1/CM	TRANSMITTANCE
602.99	0.4823
612.02	0.48
621.05	0.4768
630.08	0.4704
639.11	0.4583
648.14	0.4372
657.17	0.3997
666.2	0.4091
675.23	0.4434
684.26	0.444
693.29	0.4462
702.32	0.4511
711.35	0.4595
720.38	0.4652
729.41	0.4729
738.44	0.4838
747.47	0.5095
756.5	0.5482
765.53	0.588
774.56	0.6239
783.59	0.6168
792.62	0.7062
801.65	0.6912
810.68	0.6296
819.71	0.6187
828.74	0.5742
837.77	0.5782
846.8	0.6755
855.831	0.7019
864.861	0.705
873.891	0.7048
882.921	0.7704
891.951	0.7843
900.981	0.769
910.011	0.7404
919.041	0.7004
928.071	0.5893
937.101	0.6929
946.131	0.7885
955.161	0.7998
964.191	0.8004
973.221	0.803
982.251	0.8017
991.281	0.8024
1000.31	0.8024
1009.34	0.7979
1018.37	0.7926
1027.4	0.7878
1036.43	0.7838
1045.46	0.7851
1054.49	0.7858
1063.52	0.7775
1072.55	0.7665
1081.58	0.7568
1090.61	0.7517
1099.64	0.7434
1108.67	0.7296
1117.7	0.7168
1126.73	0.7053
1135.76	0.6964
1144.79	0.6967
1153.82	0.7126
1162.85	0.7305
1171.88	0.7307
1180.91	0.7212
1189.94	0.7004
1198.97	0.6637
1208	0.5776
1217.03	0.5493
1226.06	0.6354
1235.09	0.7095
1244.12	0.7232
1253.15	0.7196
1262.18	0.7101
1271.21	0.6915
1280.24	0.6257
1289.27	0.5783
1298.3	0.6696
1307.33	0.724
1316.36	0.759
1325.39	0.7706
1334.42	0.7649
1343.45	0.746
1352.48	0.7324
1361.51	0.7423
1370.54	0.7386
1379.57	0.7263
1388.6	0.7199
1397.63	0.7167
1406.66	0.7077
1415.69	0.6951
1424.72	0.6748
1433.75	0.6246
1442.78	0.5776
1451.81	0.5063
1460.84	0.2844
1469.87	0.1579
1478.9	0.1503
1487.93	0.3337
1496.96	0.5427
1505.99	0.6725
1515.02	0.7131
1524.05	0.717
1533.08	0.7095
1542.11	0.7144
1551.14	0.7127
1560.17	0.5971
1569.2	0.3898
1578.23	0.5426
1587.26	0.694
1596.29	0.6946
1605.32	0.634
1614.35	0.5734
1623.38	0.4847
1632.41	0.4431
1641.44	0.482
1650.47	0.6501
1659.5	0.6907
1668.53	0.7377
1677.56	0.8089
1686.59	0.8289
1695.62	0.8551
1704.65	0.8588
1713.68	0.8626
1722.71	0.8684
1731.74	0.8686
1740.77	0.8687
1749.8	0.8683
1758.83	0.8656
1767.86	0.8624
1776.89	0.8599
1785.92	0.8591
1794.95	0.8593
1803.98	0.8588
1813.01	0.8573
1822.04	0.856
1831.07	0.8536
1840.1	0.8508
1849.13	0.8481
1858.16	0.8457
1867.19	0.841
1876.22	0.8344
1885.25	0.8329
1894.28	0.8352
1903.31	0.8367
1912.34	0.8368
1921.37	0.8361
1930.4	0.8353
1939.43	0.8341
1948.46	0.8322
1957.49	0.8297
1966.52	0.8275
1975.55	0.8254
1984.58	0.8232
1993.61	0.821
2002.64	0.8194
2011.67	0.8139
2020.7	0.8133
2029.73	0.8132
2038.76	0.8131
2047.79	0.813
2056.82	0.8129
2065.85	0.8128
2074.88	0.8128
2083.91	0.8131
2092.94	0.813
2101.97	0.8125
2111	0.812
2120.03	0.8113
2129.06	0.811
2138.09	0.8111
2147.12	0.8111
2156.15	0.8115
2165.18	0.8122
2174.21	0.8123
2183.24	0.8123
2192.27	0.8123
2201.3	0.8111
2210.33	0.8085
2219.36	0.8088
2228.39	0.8087
2237.42	0.808
2246.45	0.8078
2255.48	0.8104
2264.51	0.812
2273.54	0.8108
2282.57	0.8053
2291.6	0.8047
2300.63	0.8048
2309.66	0.805
2318.69	0.8108
2327.72	0.8146
2336.75	0.8147
2345.78	0.8157
2354.81	0.8162
2363.84	0.8168
2372.87	0.8164
2381.9	0.8099
2390.93	0.8055
2399.96	0.8046
2408.99	0.8046
2418.02	0.8044
2427.05	0.8043
2436.08	0.8039
2445.11	0.8033
2454.14	0.8026
2463.17	0.8021
2472.2	0.8019
2481.23	0.8017
2490.26	0.8022
2499.29	0.8022
2508.32	0.8019
2517.35	0.8014
2526.38	0.8007
2535.41	0.7996
2544.44	0.7981
2553.47	0.7957
2562.5	0.7925
2571.53	0.788
2580.56	0.783
2589.59	0.7772
2598.62	0.7689
2607.65	0.763
2616.68	0.7587
2625.71	0.7547
2634.74	0.7507
2643.77	0.7453
2652.8	0.7377
2661.83	0.7348
2670.86	0.7339
2679.89	0.7334
2688.92	0.7339
2697.95	0.7349
2706.98	0.7332
2716.01	0.7309
2725.04	0.7274
2734.07	0.725
2743.1	0.7228
2752.13	0.7223
2761.16	0.7222
2770.19	0.7222
2779.22	0.7228
2788.25	0.7237
2797.28	0.7248
2806.31	0.7256
2815.34	0.7234
2824.37	0.7218
2833.4	0.7202
2842.43	0.7178
2851.46	0.7148
2860.49	0.7122
2869.52	0.71
2878.55	0.7084
2887.58	0.7075
2896.61	0.7059
2905.64	0.703
2914.67	0.6985
2923.7	0.6944
2932.73	0.6949
2941.76	0.6952
2950.79	0.6952
2959.82	0.6912
2968.85	0.6926
2977.88	0.6917
2986.91	0.6891
2995.94	0.6857
3004.97	0.6816
3014	0.6776
3023.03	0.6761
3032.06	0.6757
3041.09	0.6772
3050.12	0.6753
3059.15	0.6627
3068.18	0.6517
3077.21	0.6444
3086.24	0.6313
3095.28	0.6173
3104.31	0.6086
3113.34	0.6058
3122.37	0.5968
3131.4	0.5882
3140.43	0.5778
3149.46	0.5746
3158.49	0.5446
3167.52	0.5064
3176.55	0.4683
3185.58	0.4379
3194.61	0.4121
3203.64	0.3977
3212.67	0.3927
3221.7	0.3914
3230.73	0.3952
3239.76	0.3995
3248.79	0.3997
3257.82	0.3982
3266.85	0.3922
3275.88	0.376
3284.91	0.3573
3293.94	0.3461
3302.97	0.3384
3312	0.3235
3321.03	0.3086
3330.06	0.2959
3339.09	0.2868
3348.12	0.2836
3357.15	0.2831
3366.18	0.2778
3375.21	0.2641
3384.24	0.2559
3393.27	0.2661
3402.3	0.2816
3411.33	0.3037
3420.36	0.3271
3429.39	0.3474
3438.42	0.3743
3447.45	0.3945
3456.48	0.4024
3465.51	0.4095
3474.54	0.4202
3483.57	0.4313
3492.6	0.4423
3501.63	0.4547
3510.66	0.4663
3519.69	0.4769
3528.72	0.486
3537.75	0.5028
3546.78	0.5172
3555.81	0.5336
3564.84	0.5381
3573.87	0.5558
3582.9	0.573
3591.93	0.581
3600.96	0.5945
3609.99	0.6087
3619.02	0.6378
3628.05	0.6602
3637.08	0.6755
3646.11	0.6879
3655.14	0.6983
3664.17	0.7049
3673.2	0.7096
3682.23	0.7124
3691.26	0.7144
3700.29	0.7159
3709.32	0.7171
3718.35	0.7182
3727.38	0.7193
3736.41	0.72
3745.44	0.7208
3754.47	0.7214
3763.5	0.7213
3772.53	0.7212
3781.56	0.7215
3790.59	0.7219
3799.62	0.722
3808.65	0.7219
3817.68	0.722
3826.71	0.7224
3835.74	0.7217
3844.77	0.7201
3853.8	0.7182
3862.83	0.7151
3871.86	0.7152
3880.89	0.7153
3889.92	0.7154
3898.95	0.7155
3907.98	0.7156
