Infrared Spectrum: BENZAMIDE, m-BROMO-
Formula: C7 H6 Br N O
CAS: 22726-00-7
State: SOLID (SPLIT MULL), FLUOROLUBE FOR 3800-1330 CM^-^1, NUJOL FOR 1330-400 CM^-^1
Class: COBLENTZ III
Instrument: BECKMAN IR-9 (GRATING)
Instrument parameters: ORDER CHANGES: 670, 1200, 2000 CM^-^1
Sampling: TRANSMISSION
Resolution: 2
Origin: DOW CHEMICAL COMPANY
1/CM	TRANSMITTANCE
399	0.7205
408	0.6938
417	0.6436
426	0.6644
435	0.6996
444	0.7365
453	0.7365
462	0.5126
471	0.6865
480	0.7962
489	0.8453
498	0.8631
507	0.8677
516	0.8647
525	0.856
534	0.8368
543	0.8008
552	0.7194
561	0.6266
570	0.7101
579	0.7175
588	0.6561
597	0.6362
606	0.5628
615	0.4682
624	0.3214
633	0.222
642	0.1803
651	0.1967
660	0.1718
669	0.0869
678	0.0999
687	0.2492
696	0.363
705	0.4552
714	0.5054
723	0.4773
732	0.4474
741	0.3284
750	0.3773
759	0.5205
768	0.575
777	0.5384
786	0.4164
795	0.3045
804	0.416
813	0.4876
822	0.6721
831	0.6888
840	0.8032
849	0.8252
858	0.8545
867	0.8489
876	0.8508
885	0.8019
894	0.7615
903	0.2584
912	0.7455
921	0.8351
930	0.8516
939	0.8523
948	0.8481
957	0.8418
966	0.832
975	0.8136
984	0.8071
993	0.8125
1002	0.7978
1011	0.7582
1020	0.7293
1029	0.5708
1038	0.7804
1047	0.7921
1056	0.7718
1065	0.5796
1074	0.5331
1083	0.6083
1092	0.626
1101	0.6458
1110	0.5336
1119	0.3051
1128	0.1262
1137	0.4324
1146	0.5186
1155	0.4565
1164	0.6582
1173	0.6521
1182	0.6994
1191	0.7244
1200	0.7193
1209	0.7078
1218	0.6938
1227	0.6775
1236	0.6555
1245	0.6293
1254	0.593
1263	0.5497
1272	0.4607
1281	0.5129
1290	0.4916
1299	0.4145
1308	0.4371
1317	0.4343
1326	0.411
1335	0.4689
1344	0.456
1353	0.4604
1362	0.4431
1371	0.4186
1380	0.2843
1389	0.2084
1398	0.2629
1407	0.515
1416	0.4466
1425	0.2179
1434	0.2579
1443	0.506
1452	0.606
1461	0.6162
1470	0.6491
1479	0.6551
1488	0.6778
1497	0.6937
1506	0.7008
1515	0.6951
1524	0.6794
1533	0.6481
1542	0.5979
1551	0.5089
1560	0.393
1569	0.2839
1578	0.5899
1587	0.608
1596	0.553
1605	0.4749
1614	0.3042
1623	0.1267
1632	0.145
1641	0.1739
1650	0.1361
1659	0.0456
1668	0.0688
1677	0.3033
1686	0.5453
1695	0.6894
1704	0.7417
1713	0.6948
1722	0.8001
1731	0.865
1740	0.8816
1749	0.8825
1758	0.8785
1767	0.8712
1776	0.8625
1785	0.8531
1794	0.844
1803	0.8333
1812	0.8488
1821	0.8328
1830	0.8547
1839	0.8582
1848	0.8571
1857	0.8535
1866	0.8481
1875	0.8402
1884	0.8333
1893	0.8332
1902	0.8342
1911	0.8325
1920	0.8304
1929	0.8268
1938	0.8215
1947	0.8085
1956	0.7964
1965	0.8158
1974	0.8157
1983	0.8142
1992	0.8114
2001	0.8071
2010	0.8171
2019	0.8169
2028	0.8149
2037	0.8112
2046	0.8071
2055	0.8032
2064	0.7991
2073	0.7944
2082	0.7907
2091	0.7871
2100	0.7835
2109	0.7797
2118	0.776
2127	0.7717
2136	0.7675
2145	0.7631
2154	0.759
2163	0.7548
2172	0.7507
2181	0.7468
2190	0.743
2199	0.7387
2208	0.7337
2217	0.7286
2226	0.7231
2235	0.7171
2244	0.7115
2253	0.7065
2262	0.7015
2271	0.6971
2280	0.6934
2289	0.6901
2298	0.6875
2307	0.6853
2316	0.6839
2325	0.6822
2334	0.6818
2343	0.6812
2352	0.6803
2361	0.6793
2370	0.6788
2379	0.6789
2388	0.6791
2397	0.6798
2406	0.6801
2415	0.6797
2424	0.6785
2433	0.6774
2442	0.6762
2451	0.6748
2460	0.6728
2469	0.6695
2478	0.6651
2487	0.6615
2496	0.6599
2505	0.6585
2514	0.6575
2523	0.6568
2532	0.6565
2541	0.6561
2550	0.6555
2559	0.6543
2568	0.6531
2577	0.6512
2586	0.6495
2595	0.6468
2604	0.6439
2613	0.6401
2622	0.6353
2631	0.6308
2640	0.6269
2649	0.623
2658	0.6193
2667	0.6156
2676	0.6121
2685	0.6088
2694	0.6054
2703	0.602
2712	0.5995
2721	0.5944
2730	0.5876
2739	0.5806
2748	0.5738
2757	0.5668
2766	0.5601
2775	0.5503
2784	0.5401
2793	0.5354
2802	0.5388
2811	0.546
2820	0.5496
2829	0.5514
2838	0.552
2847	0.5523
2856	0.5506
2865	0.5469
2874	0.5454
2883	0.5446
2892	0.544
2901	0.5391
2910	0.532
2919	0.5231
2928	0.5145
2937	0.5065
2946	0.502
2955	0.5006
2964	0.498
2973	0.4899
2982	0.4831
2991	0.4766
3000	0.4679
3009	0.4578
3018	0.4471
3027	0.4338
3036	0.418
3045	0.4034
3054	0.3857
3063	0.3659
3072	0.3382
3081	0.3347
3090	0.3273
3099	0.3084
3108	0.2894
3117	0.2705
3126	0.248
3135	0.2168
3144	0.1894
3153	0.1609
3162	0.1355
3171	0.1224
3180	0.1222
3189	0.1335
3198	0.1531
3207	0.2007
3216	0.2638
3225	0.2954
3234	0.3177
3243	0.3287
3252	0.3291
3261	0.3229
3270	0.3108
3279	0.2951
3288	0.2769
3297	0.2532
3306	0.2287
3315	0.2035
3324	0.1732
3333	0.1336
3342	0.1069
3351	0.0907
3360	0.0917
3369	0.1245
3378	0.316
3387	0.4062
3396	0.4982
3405	0.5519
3414	0.5929
3423	0.615
3432	0.626
3441	0.6307
3450	0.6333
3459	0.6339
3468	0.6302
3477	0.6267
3486	0.6235
3495	0.6194
3504	0.6149
3513	0.6105
3522	0.6059
3531	0.6008
3540	0.5958
3549	0.5908
3558	0.5859
3567	0.581
3576	0.5771
3585	0.5731
3594	0.5693
3603	0.5664
3612	0.5635
3621	0.5606
3630	0.5586
3639	0.5569
3648	0.5552
3657	0.553
3666	0.5501
3675	0.5472
3684	0.5443
3693	0.5409
3702	0.5374
3711	0.5338
3720	0.5303
3729	0.5277
3738	0.525
3747	0.5224
3756	0.5202
3765	0.5179
3774	0.5159
3783	0.5138
3792	0.5117
