Infrared Spectrum: N,O-Bis(trimethylsilyl)hydroxylamine
Formula: C 6 H 19 N O Si 2
CAS: 22737-37-7
State: gas
Origin: EPA-IR VAPOR PHASE LIBRARY
1/CM	ABSORBANCE
549.8	0.0196283
559.445	0.0253183
569.09	0.0314783
578.734	0.0359583
588.379	0.0314483
598.024	0.0186383
607.669	0.0219683
617.313	0.0418283
626.958	0.0436083
636.603	0.0287383
646.248	0.0203883
655.893	0.0158883
665.537	0.0156283
675.182	0.0208183
684.827	0.0338083
694.472	0.0471683
704.116	0.0537683
713.761	0.0551783
723.406	0.0622283
733.051	0.0864683
742.695	0.122058
752.34	0.131268
761.985	0.111348
771.63	0.0833783
781.275	0.0666383
790.919	0.0612083
800.564	0.0626483
810.209	0.0807483
819.854	0.127118
829.498	0.239488
839.143	0.450028
848.788	0.579358
858.433	0.505468
868.078	0.394878
877.722	0.258478
887.367	0.159438
897.012	0.103018
906.657	0.0686383
916.301	0.0467783
925.946	0.0327283
935.591	0.0235183
945.236	0.0177283
954.88	0.0155283
964.525	0.0172083
974.17	0.0251183
983.815	0.0371183
993.46	0.0396383
1003.1	0.0284383
1012.75	0.0169383
1022.39	0.0108583
1032.04	0.0074883
1041.68	0.0062783
1051.33	0.0058883
1060.97	0.0042283
1070.62	0.0043983
1080.26	0.0019983
1089.91	0.0033383
1099.55	0.0003433
1109.2	0.0016783
1118.84	0.0009991
1128.49	0.0022383
1138.13	0.0014383
1147.78	0.0024283
1157.42	0.0023083
1167.07	0.0026383
1176.71	0.0025283
1186.36	0.0026683
1196	0.0040183
1205.64	0.0068583
1215.29	0.0096683
1224.93	0.0192883
1234.58	0.0478683
1244.22	0.119828
1253.87	0.207618
1263.51	0.184848
1273.16	0.0811183
1282.8	0.0349883
1292.45	0.0269683
1302.09	0.0232883
1311.74	0.0189383
1321.38	0.0162183
1331.03	0.0194283
1340.67	0.0329783
1350.32	0.0352283
1359.96	0.0205583
1369.61	0.0117683
1379.25	0.0095583
1388.9	0.0097783
1398.54	0.0117783
1408.18	0.0130083
1417.83	0.0127383
1427.47	0.0113283
1437.12	0.0100383
1446.76	0.0092483
1456.41	0.0081983
1466.05	0.0064583
1475.7	0.0049483
1485.34	0.0037183
1494.99	0.0033483
1504.63	0.0031783
1514.28	0.0028083
1523.92	0.0024783
1533.57	0.0022383
1543.21	0.0020983
1552.86	0.0022083
1562.5	0.0018283
1572.15	0.0015883
1581.79	0.0018983
1591.44	0.0011983
1601.08	0.0015483
1610.73	0.0010583
1620.37	0.0009635
1630.01	0.000821
1639.66	0.0009857
1649.3	0.0009358
1658.95	0.0007803
1668.59	0.0007264
1678.24	0.0007327
1687.88	0.0008512
1697.53	0.0009252
1707.17	0.0011083
1716.82	0.0011583
1726.46	0.0009582
1736.11	0.0012483
1745.75	0.0010483
1755.4	0.0010583
1765.04	0.0008067
1774.69	0.0004806
1784.33	0.0006349
1793.98	0.0005912
1803.62	0.0006391
1813.27	0.0007407
1822.91	0.0008878
1832.55	0.0014383
1842.2	0.0019883
1851.84	0.0026583
1861.49	0.0028383
1871.13	0.0024883
1880.78	0.0018283
1890.42	0.0013283
1900.07	0.0011483
1909.71	0.0011783
1919.36	0.0015783
1929	0.0019883
1938.65	0.0025483
1948.29	0.0026983
1957.94	0.0024883
1967.58	0.0021383
1977.23	0.0017983
1986.87	0.0014483
1996.52	0.0013883
2006.16	0.0013283
2015.81	0.0012583
2025.45	0.0011083
2035.1	0.0007982
2044.74	0.0007956
2054.38	0.0008736
2064.03	0.0007769
2073.67	0.0008947
2083.32	0.000869
2092.96	0.0012283
2102.61	0.0014383
2112.25	0.0015283
2121.9	0.0015083
2131.54	0.0012183
2141.19	0.0009995
2150.83	0.0010183
2160.48	0.0006673
2170.12	0.00078
2179.77	0.00087
2189.41	0.0005918
2199.06	0.000786
2208.7	0.0007397
2218.35	0.0006469
2227.99	0.0006069
2237.64	0.0006738
2247.28	0.0005622
2256.92	0.0005278
2266.57	0.0004711
2276.21	0.0003402
2285.86	0.0004934
2295.5	0.0003825
2305.15	0.0003521
2314.79	0.000407
2324.44	0.0003935
2334.08	0.0003017
2343.73	0.0004156
2353.37	0.0002632
2363.02	3.613e-05
2372.66	0.000271
2382.31	0.0003267
2391.95	0.0003713
2401.6	0.00010807
2411.24	0.0002705
2420.89	0.0004714
2430.53	0.0003056
2440.18	9.723e-05
2449.82	0.0002298
2459.47	0.0006314
2469.11	0.000489
2478.75	0.0005796
2488.4	0.0008266
2498.04	0.0008032
2507.69	0.0006061
2517.33	0.0001704
2526.98	0.0002074
2536.62	0.0001758
2546.27	0.0003224
2555.91	0.000317
2565.56	0.0002738
2575.2	0.0002907
2584.85	0.0002328
2594.49	0.0003215
2604.14	0.0004937
2613.78	0.0005211
2623.43	0.0003558
2633.07	0.0006651
2642.72	0.0006591
2652.36	0.0008525
2662.01	0.0013783
2671.65	0.0011383
2681.29	0.0010283
2690.94	0.0011283
2700.58	0.0012883
2710.23	0.0010683
2719.87	0.0011983
2729.52	0.0011383
2739.16	0.0013783
2748.81	0.0017783
2758.45	0.0019683
2768.1	0.0024383
2777.74	0.0031583
2787.39	0.0043983
2797.03	0.0055083
2806.68	0.0064783
2816.32	0.0073283
2825.97	0.0083883
2835.61	0.0093783
2845.26	0.0101783
2854.9	0.0108183
2864.55	0.0119183
2874.19	0.0141083
2883.84	0.0179983
2893.48	0.0270683
2903.12	0.0390783
2912.77	0.0381183
2922.41	0.0251483
2932.06	0.0211083
2941.7	0.0296783
2951.35	0.0639083
2960.99	0.117708
2970.64	0.109858
2980.28	0.0569583
2989.93	0.0261483
2999.57	0.0151783
3009.22	0.0115283
3018.86	0.0105683
3028.51	0.0105383
3038.15	0.0108683
3047.8	0.0119983
3057.44	0.0125183
3067.09	0.0126583
3076.73	0.0117283
3086.38	0.0104583
3096.02	0.0092383
3105.67	0.0077483
3115.31	0.0060583
3124.95	0.0046783
3134.6	0.0037383
3144.24	0.0032283
3153.89	0.0021783
3163.53	0.0020983
3173.18	0.0022683
3182.82	0.0022783
3192.47	0.0020783
3202.11	0.0018483
3211.76	0.0019083
3221.4	0.0017783
3231.05	0.0014383
3240.69	0.0013683
3250.34	0.0021283
3259.98	0.0012783
3269.63	0.0013983
3279.27	0.0014583
3288.92	0.0021083
3298.56	0.0035683
3308.21	0.0054583
3317.85	0.0037883
3327.49	0.0020283
3337.14	0.0013483
3346.78	0.0010883
3356.43	0.0007804
3366.07	0.0007932
3375.72	0.0005358
3385.36	0.0004224
3395.01	0.0003725
3404.65	0.0005469
3414.3	0.0006625
3423.94	0.0004849
3433.59	0.0004872
3443.23	0.0004994
3452.88	0.0004836
3462.52	0.0004985
3472.17	0.000618
3481.81	0.0009789
3491.46	0.000391
3501.1	0.0006408
3510.75	0.0004917
3520.39	0.0004607
3530.04	0.0009663
3539.68	0.0010183
3549.32	0.0008062
3558.97	0.0011283
3568.61	0.0013083
3578.26	0.0014883
3587.9	0.0015583
3597.55	0.0015883
3607.19	0.0013883
3616.84	0.0016583
3626.48	0.0020283
3636.13	0.0019783
3645.77	0.0020783
3655.42	0.0020683
3665.06	0.0020183
3674.71	0.0017583
3684.35	0.0019283
3694	0.0019183
3703.64	0.0019783
3713.29	0.0024483
3722.93	0.0021183
3732.58	0.0027283
3742.22	0.0026783
3751.86	0.0024383
3761.51	0.0022383
3771.15	0.0019583
3780.8	0.0018383
3790.44	0.0014783
3800.09	0.0018483
3809.73	0.0016383
3819.38	0.0016683
3829.02	0.0015483
3838.67	0.0010583
3848.31	0.0005344
3857.96	0.0006705
3867.6	0.0007098
3877.25	0.000352
3886.89	0.0005371
3896.54	0.0006119
3906.18	0.0002808
3915.83	0.0008206
3925.47	0.000923
3935.12	0.0007196
3944.76	0.0004753
3954.41	0.0007073
3964.05	0.0004571
3973.69	0.0005542
3983.34	0.0005374
3992.98	0.0005772
