Infrared Spectrum: Ethylene diacrylate
Formula: C 8 H 10 O 4
CAS: 2274-11-5
State: gas
Origin: EPA-IR VAPOR PHASE LIBRARY
1/CM	ABSORBANCE
501.5	2e-06
513.074	0.000147
524.648	0.0004055
536.222	0.0004897
547.796	0.000386
559.37	0.00035037
570.944	0.0003125
582.518	0.000197
594.092	0.0002452
605.666	0.00040415
617.24	0.0004414
628.814	0.0004617
640.388	0.00038776
651.962	0.0006307
663.536	0.0009885
675.11	0.0008745
686.684	0.00040837
698.258	0.000337709
709.832	0.0004005
721.406	0.0005153
732.98	0.0006443
744.554	0.0008215
756.128	0.0009893
767.702	0.001366
779.276	0.001946
790.85	0.002976
802.423	0.005436
813.997	0.005586
825.571	0.003406
837.145	0.002326
848.719	0.001976
860.293	0.001986
871.867	0.002036
883.441	0.002166
895.015	0.002256
906.589	0.002296
918.163	0.002626
929.737	0.003126
941.311	0.004516
952.885	0.007896
964.459	0.011356
976.033	0.012396
987.607	0.013256
999.181	0.009006
1010.76	0.006026
1022.33	0.005636
1033.9	0.007946
1045.48	0.013856
1057.05	0.021646
1068.63	0.017296
1080.2	0.009016
1091.77	0.005096
1103.35	0.003996
1114.92	0.004126
1126.49	0.004846
1138.07	0.006696
1149.64	0.010566
1161.22	0.019186
1172.79	0.044286
1184.36	0.085326
1195.94	0.053706
1207.51	0.020756
1219.09	0.012026
1230.66	0.011386
1242.23	0.016736
1253.81	0.031926
1265.38	0.037196
1276.96	0.021956
1288.53	0.017876
1300.1	0.017016
1311.68	0.008416
1323.25	0.005336
1334.83	0.004316
1346.4	0.004186
1357.97	0.004706
1369.55	0.006616
1381.12	0.010086
1392.7	0.010956
1404.27	0.020216
1415.84	0.018526
1427.42	0.007186
1438.99	0.006196
1450.57	0.008326
1462.14	0.011796
1473.71	0.009786
1485.29	0.004956
1496.86	0.002866
1508.44	0.002016
1520.01	0.001636
1531.58	0.001486
1543.16	0.0012195
1554.73	0.001113
1566.31	0.0011764
1577.88	0.0012547
1589.45	0.001576
1601.03	0.002086
1612.6	0.002986
1624.18	0.004146
1635.75	0.005056
1647.32	0.003096
1658.9	0.001876
1670.47	0.001726
1682.05	0.002146
1693.62	0.003336
1705.19	0.005726
1716.77	0.010706
1728.34	0.023256
1739.92	0.049166
1751.49	0.041636
1763.06	0.016636
1774.64	0.007246
1786.21	0.003876
1797.79	0.002446
1809.36	0.001696
1820.93	0.0012892
1832.51	0.0011229
1844.08	0.000982
1855.66	0.0009746
1867.23	0.0008796
1878.8	0.0009119
1890.38	0.0008933
1901.95	0.0010223
1913.53	0.0012522
1925.1	0.001636
1936.67	0.001336
1948.25	0.0010343
1959.82	0.0008746
1971.4	0.0007836
1982.97	0.0007406
1994.54	0.0007386
2006.12	0.000821
2017.69	0.0008612
2029.27	0.0009046
2040.84	0.0008817
2052.41	0.0008653
2063.99	0.0008614
2075.56	0.0008681
2087.14	0.0008538
2098.71	0.0007737
2110.28	0.0007548
2121.86	0.0007065
2133.43	0.0006853
2145.01	0.0006453
2156.58	0.0006232
2168.15	0.0006121
2179.73	0.0006173
2191.3	0.0005899
2202.88	0.0005757
2214.45	0.0005595
2226.02	0.000583
2237.6	0.0005899
2249.17	0.0005777
2260.74	0.0005872
2272.32	0.0005871
2283.89	0.0006072
2295.47	0.0006485
2307.04	0.0006549
2318.61	0.00065
2330.19	0.0006256
2341.76	0.0006816
2353.34	0.0007501
2364.91	0.0007503
2376.48	0.0007866
2388.06	0.0007155
2399.63	0.0007068
2411.21	0.000667
2422.78	0.0006392
2434.35	0.0006228
2445.93	0.0006272
2457.5	0.0006397
2469.08	0.0006309
2480.65	0.0006761
2492.22	0.0006882
2503.8	0.0007055
2515.37	0.0006927
2526.95	0.0007584
2538.52	0.0007591
2550.09	0.0007491
2561.67	0.000845
2573.24	0.0009044
2584.82	0.0009548
2596.39	0.0009908
2607.96	0.0010096
2619.54	0.0010346
2631.11	0.0010447
2642.69	0.0010858
2654.26	0.0010911
2665.83	0.0011644
2677.41	0.0012105
2688.98	0.0012195
2700.56	0.001356
2712.13	0.001436
2723.7	0.001576
2735.28	0.001806
2746.85	0.001826
2758.43	0.001766
2770	0.001796
2781.57	0.001936
2793.15	0.002256
2804.72	0.002666
2816.3	0.003196
2827.87	0.004116
2839.44	0.005906
2851.02	0.010146
2862.59	0.015436
2874.17	0.022216
2885.74	0.026586
2897.31	0.025036
2908.89	0.031866
2920.46	0.040836
2932.04	0.045066
2943.61	0.042406
2955.18	0.045696
2966.76	0.064076
2978.33	0.038656
2989.91	0.016496
3001.48	0.008656
3013.05	0.005226
3024.63	0.004146
3036.2	0.003986
3047.78	0.003736
3059.35	0.002686
3070.92	0.002516
3082.5	0.002416
3094.07	0.002296
3105.65	0.003006
3117.22	0.002496
3128.79	0.001716
3140.37	0.001476
3151.94	0.001386
3163.52	0.0013117
3175.09	0.0012902
3186.66	0.0011858
3198.24	0.0010122
3209.81	0.000909
3221.39	0.0008964
3232.96	0.000849
3244.53	0.0008072
3256.11	0.0008211
3267.68	0.0007659
3279.26	0.0007538
3290.83	0.0007653
3302.4	0.0007536
3313.98	0.0007059
3325.55	0.0007236
3337.13	0.0007671
3348.7	0.0007568
3360.27	0.0006723
3371.85	0.0007602
3383.42	0.0007571
3395	0.0007506
3406.57	0.0006789
3418.14	0.0006831
3429.72	0.0007347
3441.29	0.0008312
3452.86	0.0009901
3464.44	0.0011354
3476.01	0.0012291
3487.59	0.0009471
3499.16	0.0008107
3510.73	0.0007275
3522.31	0.0006939
3533.88	0.0006874
3545.46	0.0006315
3557.03	0.0006229
3568.6	0.0006066
3580.18	0.0006472
3591.75	0.0005637
3603.33	0.0006834
3614.9	0.0005785
3626.47	0.0005954
3638.05	0.0006615
3649.62	0.0005989
3661.2	0.0006265
3672.77	0.0005019
3684.34	0.0006717
3695.92	0.0007018
3707.49	0.0006984
3719.07	0.0007285
3730.64	0.0006571
3742.21	0.0006139
3753.79	0.0006632
3765.36	0.0006506
3776.94	0.0007375
3788.51	0.0007933
3800.08	0.000669
3811.66	0.0007038
3823.23	0.0006559
3834.81	0.0006779
3846.38	0.0007401
3857.95	0.000706
3869.53	0.0007195
3881.1	0.0008215
3892.68	0.0007685
3904.25	0.0006506
3915.82	0.0008197
3927.4	0.0007461
3938.97	0.0007373
3950.55	0.0007081
3962.12	0.0007704
3973.69	0.0008897
3985.27	0.0008601
3996.84	0.0008808
