Infrared Spectrum: Anilinoacetaldehyde diethyl acetal
Formula: C 12 H 19 N O 2
CAS: 22758-34-5
State: gas
Origin: EPA-IR VAPOR PHASE LIBRARY
1/CM	ABSORBANCE
549.8	0.0109115
559.445	0.0093815
569.09	0.0095415
578.734	0.0091815
588.379	0.0087615
598.024	0.0085215
607.669	0.0082815
617.313	0.0083915
626.958	0.0081215
636.603	0.0081515
646.248	0.0086815
655.893	0.0105215
665.537	0.0125115
675.182	0.0162515
684.827	0.0321115
694.472	0.0331515
704.116	0.0191615
713.761	0.0153215
723.406	0.0156015
733.051	0.0224715
742.695	0.0479315
752.34	0.0437715
761.985	0.0190915
771.63	0.0124115
781.275	0.0110615
790.919	0.0089615
800.564	0.0086115
810.209	0.0089115
819.854	0.0086515
829.498	0.0086415
839.143	0.0097215
848.788	0.0103415
858.433	0.0109115
868.078	0.0117515
877.722	0.0093915
887.367	0.0081915
897.012	0.0089815
906.657	0.0110715
916.301	0.0137815
925.946	0.0148915
935.591	0.0140015
945.236	0.0124415
954.88	0.0116015
964.525	0.0109115
974.17	0.0113815
983.815	0.0144615
993.46	0.0227215
1003.1	0.0279515
1012.75	0.0342815
1022.39	0.0412915
1032.04	0.0507815
1041.68	0.0721515
1051.33	0.111682
1060.97	0.154632
1070.62	0.167352
1080.26	0.146492
1089.91	0.121721
1099.55	0.107081
1109.2	0.105831
1118.84	0.131182
1128.49	0.155152
1138.13	0.137112
1147.78	0.0963115
1157.42	0.0695115
1167.07	0.0529715
1176.71	0.0469515
1186.36	0.0363415
1196	0.0258715
1205.64	0.0210215
1215.29	0.0200915
1224.93	0.0232515
1234.58	0.0344215
1244.22	0.0551115
1253.87	0.0642815
1263.51	0.0450515
1273.16	0.0329015
1282.8	0.0272915
1292.45	0.0326815
1302.09	0.0454615
1311.74	0.0550215
1321.38	0.0468315
1331.03	0.0347815
1340.67	0.0334715
1350.32	0.0345715
1359.96	0.0305715
1369.61	0.0336815
1379.25	0.0426615
1388.9	0.0288615
1398.54	0.0206715
1408.18	0.0169015
1417.83	0.0161115
1427.47	0.0211815
1437.12	0.0231315
1446.76	0.0194915
1456.41	0.0230415
1466.05	0.0277815
1475.7	0.0297315
1485.34	0.0408215
1494.99	0.0843015
1504.63	0.142862
1514.28	0.0743415
1523.92	0.0293215
1533.57	0.0180415
1543.21	0.0143315
1552.86	0.0139015
1562.5	0.0135115
1572.15	0.0153715
1581.79	0.0272715
1591.44	0.0657815
1601.08	0.124442
1610.73	0.0846215
1620.37	0.0323815
1630.01	0.0140815
1639.66	0.0083315
1649.3	0.0062615
1658.95	0.0055615
1668.59	0.0051815
1678.24	0.0049215
1687.88	0.0044015
1697.53	0.0039515
1707.17	0.0035815
1716.82	0.0033815
1726.46	0.0033915
1736.11	0.0032715
1745.75	0.0036615
1755.4	0.0039915
1765.04	0.0033715
1774.69	0.0028915
1784.33	0.0028015
1793.98	0.0026115
1803.62	0.0029215
1813.27	0.0034315
1822.91	0.0034115
1832.55	0.0031715
1842.2	0.0026515
1851.84	0.0023515
1861.49	0.0023615
1871.13	0.0024815
1880.78	0.0026315
1890.42	0.0033015
1900.07	0.0042515
1909.71	0.0052115
1919.36	0.0046515
1929	0.0044515
1938.65	0.0033115
1948.29	0.0030815
1957.94	0.0029015
1967.58	0.0029415
1977.23	0.0026615
1986.87	0.0027215
1996.52	0.0024915
2006.16	0.0022115
2015.81	0.0020915
2025.45	0.0021315
2035.1	0.0018215
2044.74	0.0018015
2054.38	0.0017615
2064.03	0.0016515
2073.67	0.0016315
2083.32	0.0016615
2092.96	0.0017415
2102.61	0.0017315
2112.25	0.0016615
2121.9	0.0016715
2131.54	0.0018015
2141.19	0.0016815
2150.83	0.0017615
2160.48	0.0017315
2170.12	0.0017615
2179.77	0.0017115
2189.41	0.0017715
2199.06	0.0016115
2208.7	0.0014315
2218.35	0.0013415
2227.99	0.0014615
2237.64	0.0013415
2247.28	0.0013415
2256.92	0.0014315
2266.57	0.0012415
2276.21	0.0014315
2285.86	0.0016115
2295.5	0.0015415
2305.15	0.0015015
2314.79	0.0013615
2324.44	0.0011315
2334.08	0.0012015
2343.73	0.0012815
2353.37	0.0014015
2363.02	0.0013615
2372.66	0.0013015
2382.31	0.0015115
2391.95	0.0015315
2401.6	0.0015015
2411.24	0.0014215
2420.89	0.0012915
2430.53	0.0014315
2440.18	0.0012815
2449.82	0.0012715
2459.47	0.0012615
2469.11	0.0010715
2478.75	0.0012915
2488.4	0.0012415
2498.04	0.0013815
2507.69	0.0011815
2517.33	0.0012315
2526.98	0.0013615
2536.62	0.0015015
2546.27	0.0019315
2555.91	0.0020615
2565.56	0.0024015
2575.2	0.0024015
2584.85	0.0022115
2594.49	0.0021915
2604.14	0.0023415
2613.78	0.0024215
2623.43	0.0026715
2633.07	0.0028215
2642.72	0.0028315
2652.36	0.0030215
2662.01	0.0029915
2671.65	0.0031315
2681.29	0.0030215
2690.94	0.0033615
2700.58	0.0032115
2710.23	0.0035015
2719.87	0.0036715
2729.52	0.0040715
2739.16	0.0047215
2748.81	0.0053315
2758.45	0.0058315
2768.1	0.0064315
2777.74	0.0067615
2787.39	0.0075415
2797.03	0.0085215
2806.68	0.0094915
2816.32	0.0106315
2825.97	0.0130115
2835.61	0.0164615
2845.26	0.0224615
2854.9	0.0310315
2864.55	0.0420615
2874.19	0.0534315
2883.84	0.0579715
2893.48	0.0542615
2903.12	0.0544715
2912.77	0.0586615
2922.41	0.0594215
2932.06	0.0622015
2941.7	0.0655915
2951.35	0.0533515
2960.99	0.0483115
2970.64	0.0597515
2980.28	0.0843315
2989.93	0.0670015
2999.57	0.0342015
3009.22	0.0266415
3018.86	0.0284315
3028.51	0.0292515
3038.15	0.0224815
3047.8	0.0248915
3057.44	0.0345115
3067.09	0.0279015
3076.73	0.0197215
3086.38	0.0190015
3096.02	0.0142015
3105.67	0.0098715
3115.31	0.0065715
3124.95	0.0040915
3134.6	0.0025915
3144.24	0.0021315
3153.89	0.0017915
3163.53	0.0016615
3173.18	0.0016715
3182.82	0.0014415
3192.47	0.0016515
3202.11	0.0015415
3211.76	0.0012315
3221.4	0.0011315
3231.05	0.0008765
3240.69	0.0008911
3250.34	0.0005562
3259.98	0.000454
3269.63	0.0003988
3279.27	0.0006745
3288.92	0.0006261
3298.56	0.0003711
3308.21	0.0004324
3317.85	0.0006232
3327.49	0.0004989
3337.14	0.0006024
3346.78	0.00074
3356.43	0.0006906
3366.07	0.0011115
3375.72	0.0014615
3385.36	0.0021615
3395.01	0.0032615
3404.65	0.0052615
3414.3	0.0091815
3423.94	0.0109815
3433.59	0.0093015
3443.23	0.0075015
3452.88	0.0058515
3462.52	0.0042515
3472.17	0.0029415
3481.81	0.0022915
3491.46	0.0014115
3501.1	0.0012215
3510.75	0.0009484
3520.39	0.0008286
3530.04	0.0007683
3539.68	0.0006154
3549.32	0.0004304
3558.97	0.0005343
3568.61	0.0003877
3578.26	0.0003638
3587.9	0.0001384
3597.55	0.0005773
3607.19	0.0004538
3616.84	0.0002587
3626.48	0.0004691
3636.13	0.0001951
3645.77	0.0005209
3655.42	0.0004207
3665.06	0.000754
3674.71	0.0004526
3684.35	0.0005752
3694	0.000627
3703.64	0.0001547
3713.29	0.0005031
3722.93	0.0005482
3732.58	0.0006849
3742.22	0.0003642
3751.86	0.0003564
3761.51	0.0002919
3771.15	0.0004849
3780.8	0.0002394
3790.44	0.0006586
3800.09	0.0004518
3809.73	0.0002728
3819.38	0.0004175
3829.02	0.0004213
3838.67	0.000196
3848.31	0.0004109
3857.96	0.000308
3867.6	0.0004615
3877.25	0.0006977
3886.89	0.0003963
3896.54	0.000549
3906.18	0.0003901
3915.83	0.0006016
3925.47	0.0003542
3935.12	0.0008162
3944.76	0.0003932
3954.41	0.0008282
3964.05	0.0006095
3973.69	0.0011415
3983.34	0.0012815
3992.98	0.0010037
