Infrared Spectrum: N-(1-pyrenyl)acetamide
Formula: C18 H13 N O
CAS: 22755-15-3
State: SOLID (SPLIT MULL), FLUOROLUBE FOR 3800-1330 CM^-^1, NUJOL FOR 1330-450 CM^-^1
Melting point: 260.1 C
Class: COBLENTZ III
Instrument: DOW KBr FOREPRISM-GRATING
Instrument parameters: BLAZED AT 3.5, 12.0, 20.0 MICRON AND CHANGED AT 5.0, 7.5, 14.9 MICRON
Sampling: TRANSMISSION
Resolution: 2
Origin: DOW CHEMICAL COMPANY
1/CM	TRANSMITTANCE
453	0.7076
462	0.7137
471	0.7184
480	0.723
489	0.7082
498	0.6976
507	0.7315
516	0.728
525	0.6878
534	0.7218
543	0.723
552	0.7535
561	0.763
570	0.7661
579	0.7265
588	0.7432
597	0.7728
606	0.7724
615	0.7421
624	0.7632
633	0.7595
642	0.7536
651	0.7691
660	0.7637
669	0.7469
678	0.7086
687	0.6711
696	0.6914
705	0.4012
714	0.6634
723	0.6407
732	0.699
741	0.6968
750	0.5643
759	0.644
768	0.7644
777	0.7544
786	0.7655
795	0.7812
804	0.7804
813	0.7489
822	0.7378
831	0.6671
840	0.0915
849	0.7508
858	0.7789
867	0.781
876	0.7764
885	0.6996
894	0.7418
903	0.7728
912	0.7732
921	0.7708
930	0.7601
939	0.766
948	0.7425
957	0.7333
966	0.7305
975	0.7261
984	0.753
993	0.7547
1002	0.734
1011	0.6911
1020	0.7047
1029	0.729
1038	0.7155
1047	0.7544
1056	0.7511
1065	0.7598
1074	0.7575
1083	0.7622
1092	0.758
1101	0.7008
1110	0.7444
1119	0.7632
1128	0.7546
1137	0.6544
1146	0.7478
1155	0.7443
1164	0.7475
1173	0.735
1182	0.6617
1191	0.7118
1200	0.7389
1209	0.7242
1218	0.736
1227	0.7356
1236	0.7165
1245	0.6882
1254	0.6812
1263	0.6339
1272	0.5108
1281	0.3971
1290	0.5819
1299	0.6321
1308	0.5549
1317	0.6496
1326	0.6351
1335	0.6278
1344	0.6139
1353	0.6266
1362	0.5698
1371	0.5179
1380	0.6964
1389	0.6945
1398	0.721
1407	0.6956
1416	0.6252
1425	0.7182
1434	0.6793
1443	0.7182
1452	0.7137
1461	0.6912
1470	0.7007
1479	0.6615
1488	0.6318
1497	0.6091
1506	0.5907
1515	0.5087
1524	0.4188
1533	0.436
1542	0.729
1551	0.5328
1560	0.6239
1569	0.7995
1578	0.8046
1587	0.7739
1596	0.6999
1605	0.7126
1614	0.6771
1623	0.6006
1632	0.5151
1641	0.2761
1650	0.2981
1659	0.7012
1668	0.8404
1677	0.8811
1686	0.8965
1695	0.8893
1704	0.8744
1713	0.8562
1722	0.8445
1731	0.8471
1740	0.8435
1749	0.8404
1758	0.837
1767	0.8224
1776	0.8164
1785	0.8224
1794	0.8228
1803	0.82
1812	0.8157
1821	0.8115
1830	0.8075
1839	0.8034
1848	0.798
1857	0.7906
1866	0.7837
1875	0.7921
1884	0.7925
1893	0.7838
1902	0.7746
1911	0.7732
1920	0.7751
1929	0.7793
1938	0.7838
1947	0.7815
1956	0.7748
1965	0.7711
1974	0.77
1983	0.7675
1992	0.7656
2001	0.7737
2010	0.7725
2019	0.7698
2028	0.7671
2037	0.7639
2046	0.7606
2055	0.7575
2064	0.7535
2073	0.7492
2082	0.7451
2091	0.7411
2100	0.7374
2109	0.7339
2118	0.7304
2127	0.7265
2136	0.7224
2145	0.7182
2154	0.714
2163	0.7101
2172	0.7069
2181	0.7037
2190	0.7005
2199	0.6972
2208	0.6933
2217	0.6891
2226	0.6843
2235	0.6789
2244	0.6737
2253	0.6687
2262	0.664
2271	0.6611
2280	0.6584
2289	0.6557
2298	0.653
2307	0.6504
2316	0.6482
2325	0.6468
2334	0.6458
2343	0.6446
2352	0.6431
2361	0.6397
2370	0.6373
2379	0.6349
2388	0.6326
2397	0.6303
2406	0.6283
2415	0.6267
2424	0.6252
2433	0.6235
2442	0.6215
2451	0.6194
2460	0.6174
2469	0.6154
2478	0.6134
2487	0.6114
2496	0.6094
2505	0.6073
2514	0.6053
2523	0.6036
2532	0.602
2541	0.6005
2550	0.5989
2559	0.5973
2568	0.5958
2577	0.5942
2586	0.5926
2595	0.5909
2604	0.5893
2613	0.5876
2622	0.586
2631	0.5839
2640	0.5815
2649	0.579
2658	0.5766
2667	0.5741
2676	0.5717
2685	0.5692
2694	0.5667
2703	0.5642
2712	0.5617
2721	0.5592
2730	0.5567
2739	0.5536
2748	0.5504
2757	0.547
2766	0.5438
2775	0.5408
2784	0.5385
2793	0.5372
2802	0.5357
2811	0.5312
2820	0.5259
2829	0.5209
2838	0.5155
2847	0.5104
2856	0.508
2865	0.5071
2874	0.5071
2883	0.5031
2892	0.496
2901	0.4876
2910	0.4762
2919	0.469
2928	0.4717
2937	0.4804
2946	0.4837
2955	0.4816
2964	0.4786
2973	0.4744
2982	0.4693
2991	0.4633
3000	0.4568
3009	0.4495
3018	0.4415
3027	0.4293
3036	0.4232
3045	0.4498
3054	0.4746
3063	0.4729
3072	0.47
3081	0.4665
3090	0.463
3099	0.4577
3108	0.4525
3117	0.4506
3126	0.4459
3135	0.4394
3144	0.4319
3153	0.4254
3162	0.4188
3171	0.4133
3180	0.4118
3189	0.4042
3198	0.3921
3207	0.3766
3216	0.3607
3225	0.3427
3234	0.3229
3243	0.2941
3252	0.2914
3261	0.3147
3270	0.36
3279	0.4064
3288	0.4629
3297	0.4762
3306	0.4786
3315	0.4781
3324	0.476
3333	0.4717
3342	0.4673
3351	0.4638
3360	0.4609
3369	0.4585
3378	0.456
3387	0.4537
3396	0.4516
3405	0.4495
3414	0.4475
3423	0.4453
3432	0.4429
3441	0.4406
3450	0.4383
3459	0.436
3468	0.4338
3477	0.4316
3486	0.4294
3495	0.4271
3504	0.4252
3513	0.4232
3522	0.4212
3531	0.4193
3540	0.4173
3549	0.4156
3558	0.4141
3567	0.4125
3576	0.4109
3585	0.4093
3594	0.408
3603	0.4066
3612	0.4055
3621	0.4041
3630	0.4024
3639	0.4003
3648	0.3982
3657	0.3962
3666	0.3948
3675	0.3932
3684	0.3916
3693	0.3902
3702	0.3884
3711	0.3868
3720	0.3853
3729	0.3842
3738	0.3834
3747	0.3826
3756	0.3818
3765	0.381
3774	0.3802
3783	0.3784
3792	0.3768
