Infrared Spectrum: 2,4,5-TRICHLOROPHENYL DIETHYLTHIONOCARBAMATE
Formula: C11 H12 Cl3 N O S
CAS: 22764-81-4
State: SOLUTION (10% CCl4 FOR 5000-1330, 10% CS2 FOR 1330-625 CM^-^1)
Class: COBLENTZ
Instrument: Not specified, most likely a prism, grating, or hybrid spectrometer.
Sampling: TRANSMISSION
Path length: 0.0125 CM, 0.0124 CM
Resolution: 4
Origin: DOW CHEMICAL COMPANY
MICROMETERS	TRANSMITTANCE
2.034	0.835
2.07518	0.837
2.11635	0.835
2.15753	0.835
2.19871	0.834
2.23989	0.825
2.28106	0.822
2.32224	0.832
2.36342	0.835
2.4046	0.832
2.44577	0.832
2.48695	0.832
2.52813	0.832
2.56931	0.835
2.61048	0.835
2.65166	0.834
2.69284	0.834
2.73401	0.83
2.77519	0.82
2.81637	0.813
2.85755	0.811
2.89872	0.811
2.9399	0.81
2.98108	0.805
3.02226	0.801
3.06343	0.796
3.10461	0.784
3.14579	0.772
3.18697	0.748
3.22814	0.729
3.26932	0.75
3.3105	0.61
3.35167	0.41
3.39285	0.49
3.43403	0.639
3.47521	0.709
3.51638	0.741
3.55756	0.745
3.59874	0.765
3.63992	0.762
3.68109	0.762
3.72227	0.767
3.76345	0.781
3.80463	0.782
3.8458	0.786
3.88698	0.786
3.92816	0.784
3.96933	0.784
4.01051	0.781
4.05169	0.776
4.09287	0.779
4.13404	0.777
4.17522	0.765
4.2164	0.758
4.25758	0.758
4.29875	0.758
4.33993	0.76
4.38111	0.767
4.42229	0.772
4.46346	0.772
4.50464	0.767
4.54582	0.764
4.58699	0.762
4.62817	0.769
4.66935	0.776
4.71053	0.781
4.7517	0.784
4.79288	0.786
4.83406	0.788
4.87524	0.786
4.91641	0.786
4.95759	0.781
4.99877	0.767
5.03994	0.774
5.08112	0.777
5.1223	0.784
5.16348	0.784
5.20465	0.786
5.24583	0.786
5.28701	0.781
5.32819	0.777
5.36936	0.776
5.41054	0.772
5.45172	0.765
5.4929	0.758
5.53407	0.757
5.57525	0.762
5.61643	0.765
5.6576	0.757
5.69878	0.755
5.73996	0.741
5.78114	0.716
5.82231	0.736
5.86349	0.75
5.90467	0.75
5.94585	0.747
5.98702	0.741
6.0282	0.738
6.06938	0.735
6.11056	0.733
6.15173	0.711
6.19291	0.682
6.23409	0.596
6.27526	0.497
6.31644	0.459
6.35762	0.442
6.3988	0.377
6.43997	0.307
6.48115	0.275
6.52233	0.22
6.56351	0.088
6.60468	0.027
6.64586	0.083
6.68704	0.314
6.72822	0.3
6.76939	0.172
6.81057	0.054
6.85175	0.023
6.89292	0.07
6.9341	0.107
6.97528	0.085
7.01646	0.355
7.05763	0.565
7.09881	0.596
7.13999	0.61
7.18117	0.531
7.22234	0.353
7.26352	0.427
7.3047	0.449
7.34588	0.266
7.38705	0.104
7.42823	0.4
7.46941	0.548
7.51058	0.483
7.55176	0.34
7.59294	0.138
7.63412	0.261
7.67529	0.314
7.71647	0.177
7.75765	0.051
7.79883	0.1
7.84	0.323
7.88118	0.377
7.92236	0.382
7.96354	0.376
8.00471	0.319
8.04589	0.324
8.08707	0.266
8.12824	0.177
8.16942	0.044
8.2106	0.018
8.25178	0.158
8.29295	0.355
8.33413	0.459
8.37531	0.509
8.41649	0.536
8.45766	0.545
8.49884	0.523
8.54002	0.482
8.5812	0.391
8.62237	0.164
8.66355	0.164
8.70473	0.358
8.7459	0.425
8.78708	0.429
8.82826	0.355
8.86944	0.208
8.91061	0.109
8.95179	0.107
8.99297	0.095
9.03415	0.034
9.07532	0.008
9.1165	0.008
9.15768	0.008
9.19886	0.037
9.24003	0.029
9.28121	0.008
9.32239	0.018
9.36356	0.157
9.40474	0.311
9.44592	0.403
9.4871	0.471
9.52827	0.514
9.56945	0.536
9.61063	0.558
9.65181	0.57
9.69298	0.579
9.73416	0.581
9.77534	0.581
9.81652	0.576
9.85769	0.577
9.89887	0.6
9.94005	0.622
9.98122	0.63
10.0224	0.641
10.0636	0.644
10.1048	0.644
10.1459	0.644
10.1871	0.641
10.2283	0.632
10.2695	0.615
10.3106	0.577
10.3518	0.504
10.393	0.417
10.4342	0.353
10.4754	0.463
10.5165	0.564
10.5577	0.601
10.5989	0.623
10.6401	0.629
10.6812	0.629
10.7224	0.598
10.7636	0.536
10.8048	0.514
10.8459	0.555
10.8871	0.601
10.9283	0.625
10.9695	0.637
11.0107	0.642
11.0518	0.644
11.093	0.644
11.1342	0.642
11.1754	0.629
11.2165	0.6
11.2577	0.56
11.2989	0.5
11.3401	0.341
11.3813	0.186
11.4224	0.123
11.4636	0.184
11.5048	0.394
11.546	0.487
11.5871	0.516
11.6283	0.523
11.6695	0.524
11.7107	0.526
11.7518	0.545
11.793	0.577
11.8342	0.615
11.8754	0.649
11.9166	0.67
11.9577	0.685
11.9989	0.697
12.0401	0.705
12.0813	0.712
12.1224	0.719
12.1636	0.723
12.2048	0.723
12.246	0.723
12.2872	0.723
12.3283	0.723
12.3695	0.721
12.4107	0.717
12.4519	0.714
12.493	0.709
12.5342	0.697
12.5754	0.675
12.6166	0.635
12.6578	0.598
12.6989	0.577
12.7401	0.576
12.7813	0.6
12.8225	0.637
12.8636	0.661
12.9048	0.675
12.946	0.68
12.9872	0.683
13.0283	0.683
13.0695	0.68
13.1107	0.668
13.1519	0.649
13.1931	0.613
13.2342	0.533
13.2754	0.451
13.3166	0.338
13.3578	0.302
13.3989	0.372
13.4401	0.485
13.4813	0.56
13.5225	0.594
13.5637	0.606
13.6048	0.61
13.646	0.61
13.6872	0.61
13.7284	0.606
13.7695	0.594
13.8107	0.57
13.8519	0.54
13.8931	0.497
13.9342	0.439
13.9754	0.389
14.0166	0.379
14.0578	0.446
14.099	0.512
14.1401	0.545
14.1813	0.56
14.2225	0.569
14.2637	0.57
14.3048	0.569
14.346	0.569
14.3872	0.565
14.4284	0.553
14.4696	0.545
14.5107	0.521
14.5519	0.488
14.5931	0.43
14.6343	0.35
14.6754	0.312
14.7166	0.317
14.7578	0.377
14.799	0.427
14.8401	0.452
14.8813	0.458
14.9225	0.459
14.9637	0.459
15.0049	0.456
15.046	0.447
15.0872	0.435
15.1284	0.427
15.1696	0.42
15.2107	0.413
15.2519	0.406
15.2931	0.4
15.3343	0.394
15.3755	0.384
15.4166	0.381
15.4578	0.381
15.499	0.376
15.5402	0.367
15.5813	0.36
15.6225	0.352
15.6637	0.34
15.7049	0.333
15.7461	0.324
15.7872	0.314
15.8284	0.307
15.8696	0.302
15.9108	0.299
15.9519	0.299
