Infrared Spectrum: PHOSPHORAMIDIC ACID, (2,4-DIMETHYLPHENYL)-,DIETHYL ESTER
Formula: C12 H20 N O3 P
CAS: 22767-82-4
State: SOLID (KBr PELLET)
Class: COBLENTZ
Instrument: PERKIN-ELMER
Sampling: TRANSMISSION
Resolution: 4
Origin: STANDARD OIL OF OHIO
MICROMETERS	TRANSMITTANCE
2	0.966
2.03371	0.966
2.06743	0.966
2.10114	0.966
2.13486	0.962
2.16857	0.964
2.20229	0.964
2.236	0.962
2.26972	0.95
2.30343	0.947
2.33715	0.952
2.37086	0.96
2.40458	0.962
2.43829	0.959
2.47201	0.959
2.50572	0.957
2.53944	0.96
2.57315	0.962
2.60687	0.966
2.64058	0.966
2.6743	0.967
2.70801	0.966
2.74172	0.952
2.77544	0.91
2.80915	0.852
2.84287	0.82
2.87658	0.801
2.9103	0.792
2.94401	0.799
2.97773	0.792
3.01144	0.714
3.04516	0.543
3.07887	0.346
3.11259	0.38
3.1463	0.595
3.18002	0.716
3.21373	0.784
3.24745	0.791
3.28116	0.721
3.31488	0.511
3.34859	0.539
3.3823	0.561
3.41602	0.558
3.44973	0.663
3.48345	0.718
3.51716	0.833
3.55088	0.886
3.58459	0.92
3.61831	0.928
3.65202	0.93
3.68574	0.943
3.71945	0.952
3.75317	0.954
3.78688	0.954
3.8206	0.957
3.85431	0.957
3.88803	0.954
3.92174	0.957
3.95546	0.955
3.98917	0.955
4.02289	0.954
4.0566	0.952
4.09031	0.952
4.12403	0.952
4.15774	0.952
4.19146	0.95
4.22517	0.954
4.25889	0.962
4.2926	0.964
4.32632	0.964
4.36003	0.959
4.39375	0.957
4.42746	0.957
4.46118	0.955
4.49489	0.952
4.52861	0.952
4.56232	0.954
4.59604	0.952
4.62975	0.952
4.66347	0.952
4.69718	0.952
4.7309	0.949
4.76461	0.949
4.79832	0.945
4.83204	0.945
4.86575	0.949
4.89947	0.95
4.93318	0.95
4.9669	0.949
5.00061	0.947
5.03433	0.942
5.06804	0.94
5.10176	0.942
5.13547	0.942
5.16919	0.94
5.2029	0.938
5.23662	0.938
5.27033	0.932
5.30405	0.92
5.33776	0.916
5.37148	0.921
5.40519	0.926
5.4389	0.926
5.47262	0.93
5.50633	0.933
5.54005	0.935
5.57376	0.93
5.60748	0.92
5.64119	0.918
5.67491	0.92
5.70862	0.923
5.74234	0.925
5.77605	0.928
5.80977	0.935
5.84348	0.93
5.8772	0.938
5.91091	0.94
5.94463	0.943
5.97834	0.935
6.01206	0.913
6.04577	0.903
6.07949	0.884
6.1132	0.872
6.14691	0.799
6.18063	0.838
6.21434	0.865
6.24806	0.806
6.28177	0.782
6.31549	0.879
6.3492	0.904
6.38292	0.904
6.41663	0.887
6.45035	0.852
6.48406	0.789
6.51778	0.662
6.55149	0.41
6.58521	0.129
6.61892	0.195
6.65264	0.441
6.68635	0.653
6.72007	0.677
6.75378	0.66
6.78749	0.68
6.82121	0.685
6.85492	0.631
6.88864	0.553
6.92235	0.528
6.95607	0.519
6.98978	0.448
7.0235	0.264
7.05721	0.315
7.09093	0.346
7.12464	0.363
7.15836	0.415
7.19207	0.456
7.22579	0.612
7.2595	0.701
7.29322	0.731
7.32693	0.821
7.36065	0.857
7.39436	0.877
7.42808	0.886
7.46179	0.889
7.4955	0.884
7.52922	0.874
7.56293	0.86
7.59665	0.835
7.63036	0.786
7.66408	0.592
7.69779	0.419
7.73151	0.322
7.76522	0.29
7.79894	0.436
7.83265	0.482
7.86637	0.363
7.90008	0.353
7.9338	0.344
7.96751	0.249
8.00123	0.073
8.03494	0.022
8.06866	0.093
8.10237	0.268
8.13609	0.407
8.1698	0.342
8.20351	0.157
8.23723	0.219
8.27094	0.434
8.30466	0.607
8.33837	0.691
8.37209	0.726
8.4058	0.747
8.43952	0.755
8.47323	0.753
8.50695	0.694
8.54066	0.567
8.57438	0.47
8.60809	0.531
8.64181	0.611
8.67552	0.685
8.70924	0.731
8.74295	0.764
8.77667	0.775
8.81038	0.767
8.84409	0.697
8.87781	0.589
8.91152	0.594
8.94524	0.646
8.97895	0.675
9.01267	0.641
9.04638	0.561
9.0801	0.5
9.11381	0.502
9.14753	0.541
9.18124	0.55
9.21496	0.533
9.24867	0.475
9.28239	0.393
9.3161	0.297
9.34982	0.202
9.38353	0.127
9.41725	0.081
9.45096	0.074
9.48468	0.084
9.51839	0.106
9.5521	0.108
9.58582	0.076
9.61953	0.033
9.65325	0.016
9.68696	0.015
9.72068	0.016
9.75439	0.023
9.78811	0.056
9.82182	0.129
9.85554	0.212
9.88925	0.286
9.92297	0.354
9.95668	0.366
9.9904	0.317
10.0241	0.225
10.0578	0.13
10.0915	0.081
10.1253	0.054
10.159	0.045
10.1927	0.05
10.2264	0.061
10.2601	0.062
10.2938	0.056
10.3275	0.061
10.3613	0.095
10.395	0.152
10.4287	0.22
10.4624	0.281
10.4961	0.342
10.5298	0.38
10.5635	0.426
10.5973	0.483
10.631	0.543
10.6647	0.57
10.6984	0.602
10.7321	0.623
10.7658	0.614
10.7996	0.543
10.8333	0.526
10.867	0.577
10.9007	0.658
10.9344	0.721
10.9681	0.774
11.0018	0.809
11.0356	0.828
11.0693	0.843
11.103	0.853
11.1367	0.859
11.1704	0.86
11.2041	0.843
11.2378	0.831
11.2716	0.833
11.3053	0.848
11.339	0.853
11.3727	0.857
11.4064	0.855
11.4401	0.852
11.4738	0.859
11.5076	0.872
11.5413	0.884
11.575	0.893
11.6087	0.898
11.6424	0.899
11.6761	0.899
11.7098	0.898
11.7436	0.894
11.7773	0.889
11.811	0.881
11.8447	0.872
11.8784	0.862
11.9121	0.845
11.9459	0.825
11.9796	0.803
12.0133	0.757
12.047	0.704
12.0807	0.599
12.1144	0.502
12.1481	0.422
12.1819	0.351
12.2156	0.336
12.2493	0.342
12.283	0.365
12.3167	0.402
12.3504	0.446
12.3841	0.478
12.4179	0.492
12.4516	0.492
12.4853	0.49
12.519	0.495
12.5527	0.516
12.5864	0.541
12.6201	0.58
12.6539	0.623
12.6876	0.665
12.7213	0.704
12.755	0.747
12.7887	0.775
12.8224	0.801
12.8562	0.813
12.8899	0.828
12.9236	0.835
12.9573	0.843
12.991	0.848
13.0247	0.853
13.0584	0.857
13.0922	0.859
13.1259	0.859
13.1596	0.853
13.1933	0.85
13.227	0.845
13.2607	0.838
13.2944	0.83
13.3282	0.821
13.3619	0.813
13.3956	0.803
13.4293	0.796
13.463	0.787
13.4967	0.78
13.5304	0.777
13.5642	0.779
13.5979	0.782
13.6316	0.791
13.6653	0.799
13.699	0.809
13.7327	0.82
13.7664	0.826
13.8002	0.831
13.8339	0.838
13.8676	0.842
13.9013	0.84
13.935	0.84
13.9687	0.84
14.0025	0.833
14.0362	0.826
14.0699	0.823
14.1036	0.826
14.1373	0.83
14.171	0.835
14.2047	0.838
14.2385	0.843
14.2722	0.847
14.3059	0.852
14.3396	0.853
14.3733	0.853
14.407	0.855
14.4407	0.855
14.4745	0.855
14.5082	0.853
14.5419	0.852
14.5756	0.85
14.6093	0.848
14.643	0.85
14.6767	0.847
14.7105	0.842
14.7442	0.842
14.7779	0.838
14.8116	0.837
14.8453	0.835
14.879	0.831
14.9128	0.83
14.9465	0.828
14.9802	0.825
15.0139	0.823
15.0476	0.814
15.0813	0.811
15.115	0.806
15.1488	0.803
15.1825	0.794
15.2162	0.791
15.2499	0.786
15.2836	0.78
15.3173	0.777
15.351	0.775
15.3848	0.77
