Infrared Spectrum: 4-(P-CHLOROPHENYL) SULFONYL MORPHOLINE
Formula: C10 H12 Cl N O3 S
CAS: 22771-99-9
State: SOLID (MINERAL OIL MULL)
Class: COBLENTZ
Instrument: Not specified, most likely a prism, grating, or hybrid spectrometer.
Sampling: TRANSMISSION
Resolution: 4
Origin: DOW CHEMICAL COMPANY
MICROMETERS	TRANSMITTANCE
2.02	0.594
2.06023	0.599
2.10046	0.607
2.14069	0.613
2.18092	0.613
2.22114	0.6
2.26137	0.599
2.3016	0.602
2.34183	0.617
2.38206	0.622
2.42229	0.635
2.46252	0.655
2.50275	0.662
2.54298	0.667
2.58321	0.685
2.62343	0.688
2.66366	0.693
2.70389	0.703
2.74412	0.705
2.78435	0.705
2.82458	0.705
2.86481	0.702
2.90504	0.7
2.94527	0.703
2.9855	0.712
3.02572	0.718
3.06595	0.715
3.10618	0.703
3.14641	0.693
3.18664	0.65
3.22687	0.637
3.2671	0.618
3.30733	0.495
3.34756	0.131
3.38779	0.018
3.42801	0.053
3.46824	0.104
3.50847	0.55
3.5487	0.703
3.58893	0.728
3.62916	0.725
3.66939	0.733
3.70962	0.74
3.74985	0.765
3.79007	0.778
3.8303	0.792
3.87053	0.805
3.91076	0.826
3.95099	0.821
3.99122	0.828
4.03145	0.833
4.07168	0.84
4.11191	0.84
4.15214	0.843
4.19236	0.841
4.23259	0.858
4.27282	0.86
4.31305	0.861
4.35328	0.861
4.39351	0.876
4.43374	0.871
4.47397	0.881
4.5142	0.883
4.55443	0.885
4.59465	0.886
4.63488	0.893
4.67511	0.893
4.71534	0.898
4.75557	0.9
4.7958	0.9
4.83603	0.901
4.87626	0.903
4.91649	0.906
4.95671	0.91
4.99694	0.913
5.03717	0.92
5.0774	0.898
5.11763	0.895
5.15786	0.881
5.19809	0.893
5.23832	0.921
5.27855	0.93
5.31878	0.925
5.359	0.925
5.39923	0.93
5.43946	0.933
5.47969	0.933
5.51992	0.928
5.56015	0.928
5.60038	0.931
5.64061	0.94
5.68084	0.948
5.72107	0.951
5.76129	0.948
5.80152	0.946
5.84175	0.931
5.88198	0.921
5.92221	0.911
5.96244	0.89
6.00267	0.883
6.0429	0.883
6.08313	0.916
6.12336	0.931
6.16358	0.935
6.20381	0.935
6.24404	0.853
6.28427	0.67
6.3245	0.718
6.36473	0.737
6.40496	0.838
6.44519	0.883
6.48542	0.906
6.52564	0.911
6.56587	0.908
6.6061	0.903
6.64633	0.875
6.68656	0.806
6.72679	0.66
6.76702	0.425
6.80725	0.178
6.84748	0.174
6.88771	0.337
6.92793	0.547
6.96816	0.722
7.00839	0.762
7.04862	0.78
7.08885	0.738
7.12908	0.525
7.16931	0.43
7.20954	0.452
7.24977	0.352
7.29	0.42
7.33022	0.4
7.37045	0.138
7.41068	0.196
7.45091	0.294
7.49114	0.244
7.53137	0.49
7.5716	0.665
7.61183	0.623
7.65206	0.497
7.69228	0.485
7.73251	0.682
7.77274	0.61
7.81297	0.549
7.8532	0.574
7.89343	0.289
7.93366	0.427
7.97389	0.747
8.01412	0.803
8.05435	0.805
8.09457	0.792
8.1348	0.79
8.17503	0.712
8.21526	0.665
8.25549	0.758
8.29572	0.78
8.33595	0.78
8.37618	0.743
8.41641	0.66
8.45664	0.49
8.49686	0.362
8.53709	0.104
8.57732	0.041
8.61755	0.189
8.65778	0.374
8.69801	0.562
8.73824	0.685
8.77847	0.71
8.8187	0.677
8.85893	0.537
8.89915	0.442
8.93938	0.412
8.97961	0.146
9.01984	0.094
9.06007	0.181
9.1003	0.174
9.14053	0.207
9.18076	0.281
9.22099	0.292
9.26121	0.332
9.30144	0.394
9.34167	0.311
9.3819	0.495
9.42213	0.702
9.46236	0.773
9.50259	0.801
9.54282	0.808
9.58305	0.81
9.62328	0.808
9.6635	0.808
9.70373	0.811
9.74396	0.805
9.78419	0.752
9.82442	0.617
9.86465	0.412
9.90488	0.652
9.94511	0.755
9.98534	0.795
10.0256	0.813
10.0658	0.821
10.106	0.821
10.1463	0.815
10.1865	0.81
10.2267	0.801
10.2669	0.768
10.3072	0.7
10.3474	0.69
10.3876	0.69
10.4279	0.59
10.4681	0.459
10.5083	0.174
10.5485	0.033
10.5888	0.088
10.629	0.264
10.6692	0.48
10.7095	0.642
10.7497	0.702
10.7899	0.643
10.8301	0.607
10.8704	0.773
10.9106	0.808
10.9508	0.826
10.9911	0.836
11.0313	0.848
11.0715	0.855
11.1117	0.856
11.152	0.856
11.1922	0.855
11.2324	0.855
11.2727	0.86
11.3129	0.865
11.3531	0.871
11.3934	0.87
11.4336	0.855
11.4738	0.848
11.514	0.855
11.5543	0.87
11.5945	0.871
11.6347	0.866
11.675	0.833
11.7152	0.713
11.7554	0.507
11.7956	0.545
11.8359	0.618
11.8761	0.542
11.9163	0.682
11.9566	0.752
11.9968	0.504
12.037	0.269
12.0772	0.342
12.1175	0.65
12.1577	0.762
12.1979	0.806
12.2382	0.833
12.2784	0.845
12.3186	0.858
12.3588	0.868
12.3991	0.878
12.4393	0.883
12.4795	0.886
12.5198	0.886
12.56	0.885
12.6002	0.878
12.6404	0.871
12.6807	0.858
12.7209	0.846
12.7611	0.831
12.8014	0.818
12.8416	0.798
12.8818	0.748
12.9221	0.64
12.9623	0.474
13.0025	0.202
13.0427	0.049
13.083	0.089
13.1232	0.196
13.1634	0.351
13.2037	0.52
13.2439	0.613
13.2841	0.683
13.3243	0.71
13.3646	0.72
13.4048	0.715
13.445	0.72
13.4853	0.738
13.5255	0.74
13.5657	0.738
13.6059	0.733
13.6462	0.717
13.6864	0.663
13.7266	0.53
13.7669	0.369
13.8071	0.229
13.8473	0.227
13.8875	0.371
13.9278	0.525
13.968	0.595
14.0082	0.61
14.0485	0.6
14.0887	0.585
14.1289	0.62
14.1691	0.662
14.2094	0.68
14.2496	0.69
14.2898	0.693
14.3301	0.693
14.3703	0.693
14.4105	0.692
14.4508	0.683
14.491	0.675
14.5312	0.673
14.5714	0.672
14.6117	0.668
14.6519	0.66
14.6921	0.652
14.7324	0.647
14.7726	0.638
14.8128	0.632
14.853	0.622
14.8933	0.613
14.9335	0.605
14.9737	0.6
15.014	0.594
15.0542	0.584
15.0944	0.575
15.1346	0.569
15.1749	0.559
15.2151	0.55
15.2553	0.539
15.2956	0.532
15.3358	0.527
15.376	0.512
15.4162	0.505
15.4565	0.497
15.4967	0.482
15.5369	0.472
15.5772	0.464
15.6174	0.457
15.6576	0.447
15.6979	0.439
15.7381	0.422
15.7783	0.412
15.8185	0.412
15.8588	0.409
15.899	0.405
