Infrared Spectrum: Aniline, N-(Beta-methylallyl)-
Formula: C10 H13 N
CAS: 22774-81-8
State: LIQUID (NEAT)
Class: COBLENTZ III
Instrument: BECKMAN IR-4 (HYBRID PRISM-GRATING)
Instrument parameters: NaCl PRISM
Sampling: TRANSMISSION
Path length: CAPILLARY
Resolution: 2
Origin: MONSANTO (J. FREEMAN)
1/CM	TRANSMITTANCE
3952.57	0.8463
3943.7	0.8471
3934.83	0.8478
3925.97	0.8487
3917.1	0.8495
3908.23	0.8502
3899.36	0.851
3890.49	0.8517
3881.62	0.8524
3872.76	0.8529
3863.89	0.8537
3855.02	0.8544
3846.15	0.855
3837.28	0.8556
3828.42	0.8562
3819.55	0.8568
3810.68	0.8575
3801.81	0.8582
3792.94	0.8589
3784.07	0.8595
3775.21	0.8602
3766.34	0.8608
3757.47	0.8612
3748.6	0.8615
3739.73	0.8618
3730.87	0.8592
3722	0.8567
3713.13	0.8541
3704.26	0.8518
3695.39	0.8502
3686.53	0.8485
3677.66	0.8469
3668.79	0.8453
3659.92	0.8437
3651.05	0.8423
3642.18	0.8412
3633.32	0.8401
3624.45	0.839
3615.58	0.8384
3606.71	0.8375
3597.84	0.8365
3588.98	0.8356
3580.11	0.8343
3571.24	0.8324
3562.37	0.8298
3553.5	0.8262
3544.63	0.8224
3535.77	0.8183
3526.9	0.814
3518.03	0.8097
3509.16	0.8044
3500.29	0.7968
3491.43	0.763
3482.56	0.705
3473.69	0.6534
3464.82	0.6019
3455.95	0.5498
3447.08	0.4976
3438.22	0.4451
3429.35	0.3924
3420.48	0.369
3411.61	0.3691
3402.74	0.4024
3393.88	0.4575
3385.01	0.513
3376.14	0.5687
3367.27	0.6247
3358.4	0.6809
3349.53	0.7375
3340.67	0.7845
3331.8	0.7998
3322.93	0.8101
3314.06	0.8185
3305.19	0.8254
3296.33	0.8296
3287.46	0.8332
3278.59	0.8362
3269.72	0.8382
3260.85	0.8395
3251.99	0.8403
3243.12	0.8406
3234.25	0.8406
3225.38	0.8397
3216.51	0.8387
3207.64	0.8378
3198.78	0.8358
3189.91	0.8334
3181.04	0.8301
3172.17	0.8262
3163.3	0.8214
3154.44	0.8144
3145.57	0.8065
3136.7	0.7746
3127.83	0.7268
3118.96	0.6812
3110.09	0.6355
3101.23	0.5893
3092.36	0.5429
3083.49	0.5031
3074.62	0.4987
3065.75	0.498
3056.89	0.5088
3048.02	0.5272
3039.15	0.5456
3030.28	0.5641
3021.41	0.5719
3012.54	0.5601
3003.68	0.5412
2994.81	0.5227
2985.94	0.5209
2977.07	0.536
2968.2	0.5608
2959.34	0.5641
2950.47	0.5444
2941.6	0.4856
2932.73	0.4402
2923.86	0.4432
2914.99	0.4602
2906.13	0.4794
2897.26	0.4984
2888.39	0.5092
2879.52	0.5133
2870.65	0.5178
2861.79	0.5238
2852.92	0.5326
2844.05	0.5837
2835.18	0.7078
2826.31	0.7427
2817.44	0.7804
2808.58	0.81
2799.71	0.8256
2790.84	0.8347
2781.97	0.843
2773.1	0.8505
2764.24	0.8536
2755.37	0.8551
2746.5	0.8576
2737.63	0.8607
2728.76	0.8644
2719.9	0.8687
2711.03	0.8729
2702.16	0.8767
2693.29	0.8804
2684.42	0.8827
2675.55	0.8851
2666.69	0.8868
2657.82	0.8885
2648.95	0.8888
2640.08	0.8865
2631.21	0.8835
2622.35	0.8813
2613.48	0.88
2604.61	0.8792
2595.74	0.8795
2586.87	0.8802
2578	0.882
2569.14	0.8864
2560.27	0.8924
2551.4	0.8985
2542.53	0.9024
2533.66	0.9033
2524.8	0.9034
2515.93	0.9035
2507.06	0.9039
2498.19	0.9047
2489.32	0.9065
2480.45	0.9092
2471.59	0.9123
2462.72	0.9139
2453.85	0.9136
2444.98	0.9107
2436.11	0.909
2427.25	0.9071
2418.38	0.9065
2409.51	0.9062
2400.64	0.9059
2391.77	0.9057
2382.9	0.9063
2374.04	0.9068
2365.17	0.9075
2356.3	0.9083
2347.43	0.9091
2338.56	0.91
2329.7	0.9109
2320.83	0.9118
2311.96	0.9136
2303.09	0.9153
2294.22	0.9171
2285.36	0.9183
2276.49	0.9194
2267.62	0.9206
2258.75	0.9208
2249.88	0.9206
2241.01	0.9203
2232.15	0.919
2223.28	0.9165
2214.41	0.9143
2205.54	0.9124
2196.67	0.9112
2187.81	0.9107
2178.94	0.9122
2170.07	0.9147
2161.2	0.9161
2152.33	0.9161
2143.46	0.9161
2134.6	0.9159
2125.73	0.9156
2116.86	0.9152
2107.99	0.9147
2099.12	0.9136
2090.26	0.9125
2081.39	0.9114
2072.52	0.9102
2063.65	0.9095
2054.78	0.9087
2045.91	0.9081
2037.05	0.9078
2028.18	0.9075
2019.31	0.9071
2010.44	0.9073
2001.57	0.9074
1992.71	0.9075
1983.84	0.9068
1974.97	0.9054
1966.1	0.9013
1957.23	0.8881
1948.36	0.8613
1939.5	0.84
1930.63	0.8353
1921.76	0.8489
1912.89	0.8698
1904.02	0.886
1895.16	0.8949
1886.29	0.8985
1877.42	0.8985
1868.55	0.8948
1859.68	0.887
1850.82	0.8745
1841.95	0.8594
1833.08	0.8442
1824.21	0.8412
1815.34	0.8437
1806.47	0.8455
1797.61	0.8491
1788.74	0.8609
1779.87	0.8624
1771	0.8648
1762.13	0.8762
1753.27	0.8858
1744.4	0.8867
1735.53	0.8856
1726.66	0.8805
1717.79	0.8595
1708.92	0.8174
1700.06	0.8016
1691.19	0.7798
1682.32	0.758
1673.45	0.7284
1664.58	0.5599
1655.72	0.5959
1646.85	0.6433
1637.98	0.6431
1629.11	0.5439
1620.24	0.3263
1611.37	0.1063
1602.51	0.0745
1593.64	0.2612
1584.77	0.4574
1575.9	0.6285
1567.03	0.6745
1558.17	0.6997
1549.3	0.6495
1540.43	0.4674
1531.56	0.2833
1522.69	0.1557
1513.82	0.0967
1504.96	0.1203
1496.09	0.3115
1487.22	0.4726
1478.35	0.5275
1469.48	0.5181
1460.62	0.4105
1451.75	0.3155
1442.88	0.3084
1434.01	0.3689
1425.14	0.5096
1416.27	0.6443
1407.41	0.7013
1398.54	0.7348
1389.67	0.715
1380.8	0.5885
1371.93	0.5143
1363.07	0.628
1354.2	0.706
1345.33	0.5979
1336.46	0.4194
1327.59	0.2345
1318.73	0.2149
1309.86	0.3155
1300.99	0.5283
1292.12	0.5608
1283.25	0.4095
1274.38	0.3352
1265.52	0.334
1256.65	0.3047
1247.78	0.3774
1238.91	0.3546
1230.04	0.4941
1221.18	0.6531
1212.31	0.7578
1203.44	0.8015
1194.57	0.8053
1185.7	0.6304
1176.83	0.4293
1167.97	0.7961
1159.1	0.6845
1150.23	0.6992
1141.36	0.836
1132.49	0.8062
1123.63	0.6624
1114.76	0.5128
1105.89	0.549
1097.02	0.5525
1088.15	0.7176
1079.28	0.7651
1070.42	0.6255
1061.55	0.7307
1052.68	0.7794
1043.81	0.7891
1034.94	0.7965
1026.08	0.69
1017.21	0.7768
1008.34	0.8393
999.471	0.8009
990.603	0.5473
981.735	0.793
972.867	0.8025
963.999	0.7981
955.13	0.8028
946.262	0.7899
937.394	0.8435
928.526	0.8409
919.658	0.7815
910.79	0.5811
901.921	0.349
893.053	0.2358
884.185	0.3963
875.317	0.5618
866.449	0.5467
857.581	0.7275
848.712	0.8007
839.844	0.8142
830.976	0.8032
822.108	0.752
813.24	0.7103
804.372	0.7743
795.503	0.77
786.635	0.7488
777.767	0.752
768.899	0.6869
760.031	0.4248
751.163	0.0822
742.294	0.262
733.426	0.5918
724.558	0.6885
715.69	0.6883
706.822	0.6361
697.954	0.3549
689.085	0.2013
680.217	0.6011
671.349	0.6011
662.481	0.599
653.613	0.6466
644.745	0.6419
635.876	0.6361
