Infrared Spectrum: Bendiocarb
Formula: C 11 H 13 N O 4
CAS: 22781-23-3
State: gas
Instrument: HP-GC/MS/IRD
Origin: NIST Mass Spectrometry Data Center
1/CM	ABSORBANCE
550	0.0033696
562	0.0018096
574	0.0014976
586	0.0012948
598	0.0009048
610	0.0006396
622	0.0002808
634	6.24e-05
646	6.24e-05
658	0.0001248
670	0.0001248
682	0.0004212
694	0.0021684
706	0.0132132
718	0.0168324
730	0.0063804
742	0.0078
754	0.0111228
766	0.0124176
778	0.0122616
790	0.0156312
802	0.01209
814	0.006942
826	0.0103428
838	0.0214188
850	0.0158652
862	0.0094224
874	0.0054288
886	0.0057408
898	0.0071604
910	0.0114816
922	0.0161772
934	0.0090324
946	0.0064116
958	0.0088764
970	0.0164112
982	0.0115596
994	0.0061152
1006	0.008424
1018	0.0222144
1030	0.0402948
1042	0.0387816
1054	0.0329628
1066	0.0267852
1078	0.0209508
1090	0.022308
1102	0.036426
1114	0.09009
1126	0.0946452
1138	0.0336648
1150	0.04914
1162	0.0972972
1174	0.0488904
1186	0.05304
1198	0.100745
1210	0.149713
1222	0.127702
1234	0.128248
1246	0.116002
1258	0.107921
1270	0.0838968
1282	0.0416988
1294	0.0217932
1306	0.0177372
1318	0.0235872
1330	0.0318864
1342	0.0220116
1354	0.019422
1366	0.018096
1378	0.0326352
1390	0.0270036
1402	0.0108264
1414	0.0115752
1426	0.0201396
1438	0.0255372
1450	0.046332
1462	0.118654
1474	0.12129
1486	0.142054
1498	0.135143
1510	0.06279
1522	0.0364884
1534	0.0253344
1546	0.018018
1558	0.0140556
1570	0.0125892
1582	0.0105768
1594	0.0089232
1606	0.0098748
1618	0.0131976
1630	0.0189852
1642	0.0137748
1654	0.00585
1666	0.0040092
1678	0.0036504
1690	0.0033228
1702	0.0036348
1714	0.004836
1726	0.0075816
1738	0.0130572
1750	0.0187824
1762	0.0400764
1774	0.111899
1786	0.133006
1798	0.0433992
1810	0.0155844
1822	0.0104832
1834	0.0070512
1846	0.0038844
1858	0.002652
1870	0.0026832
1882	0.0017004
1894	0.000702
1906	0.0004368
1918	0.000312
1930	0.0002028
1942	0.000156
1954	0.0001248
1966	9.36e-05
1978	0.0001248
1990	0.0002496
2002	0.0004056
2014	0.0004836
2026	0.0004212
2038	0.0003276
2050	0.0002808
2062	0.000234
2074	0.00039
2086	0.0006396
2098	0.0008112
2110	0.0007644
2122	0.0008112
2134	0.0005772
2146	0.0002652
2158	6.24e-05
2170	0
2182	0.0001248
2194	0.0002184
2206	0.0004836
2218	0.0009984
2230	0.0017316
2242	0.0028236
2254	0.0041028
2266	0.0049764
2278	0.0058812
2290	0.0052884
2302	0.0044304
2314	0.003978
2326	0.002106
2338	0.0016068
2350	0.0011544
2362	0.0004212
2374	0.0002496
2386	0.0001716
2398	0.0001092
2410	0.0001248
2422	0.0001248
2434	9.36e-05
2446	0.0001872
2458	0.0004056
2470	0.000624
2482	0.0006084
2494	0.0005616
2506	0.0005616
2518	0.000546
2530	0.0002652
2542	7.8e-05
2554	4.68e-05
2566	6.24e-05
2578	0.0002652
2590	0.0005148
2602	0.0008268
2614	0.0011388
2626	0.0010608
2638	0.000702
2650	0.0004836
2662	0.0003744
2674	0.0003432
2686	0.0004056
2698	0.0004524
2710	0.0005148
2722	0.0004992
2734	0.000468
2746	0.0004056
2758	0.0002496
2770	0.0001872
2782	0.0002964
2794	0.000546
2806	0.0009984
2818	0.0022776
2830	0.003666
2842	0.0026676
2854	0.002808
2866	0.003198
2878	0.003822
2890	0.00507
2902	0.006864
2914	0.0082212
2926	0.00975
2938	0.01521
2950	0.0205296
2962	0.0156156
2974	0.0099372
2986	0.0110448
2998	0.0291564
3010	0.0149136
3022	0.0044928
3034	0.0037752
3046	0.0048828
3058	0.0054912
3070	0.0056004
3082	0.0067704
3094	0.0040716
3106	0.0019968
3118	0.0011856
3130	0.0007176
3142	0.000468
3154	0.0003276
3166	0.0002652
3178	0.0002964
3190	0.000312
3202	0.0003588
3214	0.0003744
3226	0.0003276
3238	0.0002808
3250	0.0002028
3262	0.000156
3274	0.0001248
3286	4.68e-05
3298	6.24e-05
3310	6.24e-05
3322	1.56e-05
3334	1.56e-05
3346	4.68e-05
3358	0
3370	9.36e-05
3382	4.68e-05
3394	9.36e-05
3406	0.000156
3418	0.0002808
3430	0.000546
3442	0.0009828
3454	0.0019812
3466	0.0041808
3478	0.0090168
3490	0.0133848
3502	0.0090636
3514	0.0034164
3526	0.001794
3538	0.0015912
3550	0.001404
3562	0.0009204
3574	0.0005928
3586	0.000468
3598	0.000312
3610	0.00039
3622	0.0008892
3634	0.0009048
3646	0.0004992
3658	0.00039
3670	0.0002496
3682	0.0002496
3694	0.0002184
3706	0.0002496
3718	0.0002496
3730	0.0002496
3742	0.000312
3754	0.0002808
3766	0.0002496
3778	0.0002028
3790	0.0002028
3802	0.0001872
3814	0.000234
3826	0.0002184
3838	0.0002652
