Infrared Spectrum: D-GLUCOSE ANHYDROUS
Formula: C6 H12 O6
CAS: 2280-44-6
Melting point: 134-149 C
Class: COBLENTZ
Instrument: Not specified, most likely a prism, grating, or hybrid spectrometer.
Sampling: TRANSMISSION
Resolution: 4
Origin: WYANDOTTE CHEMICALS CORP., WYANDOTTE, MICHIGAN, USA
MICROMETERS	TRANSMITTANCE
2.034	0.9
2.07359	0.905
2.11318	0.92
2.15277	0.925
2.19235	0.927
2.23194	0.908
2.27153	0.905
2.31112	0.912
2.35071	0.918
2.3903	0.923
2.42989	0.925
2.46948	0.932
2.50906	0.938
2.54865	0.948
2.58824	0.981
2.62783	0.985
2.66742	1
2.70701	1.001
2.7466	0.97
2.78618	0.883
2.82577	0.726
2.86536	0.49
2.90495	0.265
2.94454	0.081
2.98413	0.028
3.02372	0.026
3.0633	0.029
3.10289	0.026
3.14248	0.028
3.18207	0.033
3.22166	0.069
3.26125	0.127
3.30084	0.2
3.34042	0.155
3.38001	0.019
3.4196	0.024
3.45919	0.033
3.49878	0.029
3.53837	0.134
3.57796	0.339
3.61755	0.404
3.65713	0.456
3.69672	0.479
3.73631	0.485
3.7759	0.517
3.81549	0.572
3.85508	0.601
3.89467	0.625
3.93425	0.658
3.97384	0.663
4.01343	0.676
4.05302	0.698
4.09261	0.721
4.1322	0.749
4.17179	0.767
4.21138	0.787
4.25096	0.796
4.29055	0.8
4.33014	0.835
4.36973	0.862
4.40932	0.885
4.44891	0.873
4.4885	0.873
4.52808	0.895
4.56767	0.897
4.60726	0.888
4.64685	0.892
4.68644	0.885
4.72603	0.9
4.76562	0.908
4.8052	0.917
4.84479	0.92
4.88438	0.915
4.92397	0.905
4.96356	0.903
5.00315	0.92
5.04274	0.925
5.08232	0.93
5.12191	0.935
5.1615	0.933
5.20109	0.946
5.24068	0.95
5.28027	0.948
5.31986	0.946
5.35945	0.945
5.39903	0.951
5.43862	0.935
5.47821	0.933
5.5178	0.943
5.55739	0.95
5.59698	0.948
5.63657	0.936
5.67615	0.935
5.71574	0.93
5.75533	0.928
5.79492	0.913
5.83451	0.912
5.8741	0.913
5.91369	0.9
5.95327	0.903
5.99286	0.903
6.03245	0.892
6.07204	0.903
6.11163	0.898
6.15122	0.902
6.19081	0.89
6.2304	0.882
6.26998	0.864
6.30957	0.854
6.34916	0.834
6.38875	0.834
6.42834	0.819
6.46793	0.802
6.50752	0.771
6.5471	0.749
6.58669	0.713
6.62628	0.641
6.66587	0.572
6.70546	0.429
6.74505	0.262
6.78464	0.058
6.82423	0.053
6.86381	0.064
6.9034	0.086
6.94299	0.15
6.98258	0.187
7.02217	0.235
7.06176	0.248
7.10135	0.266
7.14093	0.301
7.18052	0.237
7.22011	0.101
7.2597	0.099
7.29929	0.182
7.33888	0.275
7.37847	0.237
7.41805	0.199
7.45764	0.199
7.49723	0.253
7.53682	0.449
7.57641	0.509
7.616	0.509
7.65559	0.417
7.69518	0.343
7.73476	0.398
7.77435	0.404
7.81394	0.424
7.85353	0.446
7.89312	0.497
7.93271	0.548
7.9723	0.573
8.01188	0.57
8.05147	0.525
8.09106	0.419
8.13065	0.228
8.17024	0.265
8.20983	0.447
8.24942	0.417
8.289	0.258
8.32859	0.373
8.36818	0.462
8.40777	0.494
8.44736	0.48
8.48695	0.442
8.52654	0.366
8.56612	0.283
8.60571	0.155
8.6453	0.072
8.68489	0.043
8.72448	0.069
8.76407	0.154
8.80366	0.192
8.84325	0.162
8.88283	0.076
8.92242	0.038
8.96201	0.029
9.0016	0.034
9.04119	0.054
9.08078	0.172
9.12037	0.248
9.15995	0.233
9.19954	0.179
9.23913	0.139
9.27872	0.164
9.31831	0.21
9.3579	0.16
9.39749	0.102
9.43708	0.044
9.47666	0.029
9.51625	0.031
9.55584	0.041
9.59543	0.056
9.63502	0.036
9.67461	0.026
9.7142	0.028
9.75378	0.028
9.79337	0.028
9.83296	0.024
9.87255	0.034
9.91214	0.029
9.95173	0.029
9.99132	0.031
10.0309	0.029
10.0705	0.039
10.1101	0.077
10.1497	0.162
10.1893	0.237
10.2288	0.291
10.2684	0.341
10.308	0.391
10.3476	0.426
10.3872	0.456
10.4268	0.477
10.4664	0.5
10.506	0.522
10.5456	0.55
10.5851	0.567
10.6247	0.587
10.6643	0.593
10.7039	0.605
10.7435	0.613
10.7831	0.611
10.8227	0.568
10.8623	0.431
10.9019	0.275
10.9414	0.281
10.981	0.461
11.0206	0.567
11.0602	0.62
11.0998	0.655
11.1394	0.665
11.179	0.676
11.2186	0.689
11.2582	0.703
11.2977	0.719
11.3373	0.726
11.3769	0.733
11.4165	0.733
11.4561	0.734
11.4957	0.737
11.5353	0.739
11.5749	0.734
11.6145	0.734
11.654	0.721
11.6936	0.704
11.7332	0.679
11.7728	0.641
11.8124	0.585
11.852	0.469
11.8916	0.318
11.9312	0.217
11.9707	0.288
12.0103	0.515
12.0499	0.59
12.0895	0.653
12.1291	0.678
12.1687	0.693
12.2083	0.698
12.2479	0.704
12.2875	0.706
12.327	0.703
12.3666	0.701
12.4062	0.698
12.4458	0.691
12.4854	0.678
12.525	0.668
12.5646	0.656
12.6042	0.636
12.6438	0.616
12.6833	0.565
12.7229	0.505
12.7625	0.414
12.8021	0.315
12.8417	0.245
12.8813	0.237
12.9209	0.281
12.9605	0.339
13.0001	0.399
13.0396	0.446
13.0792	0.459
13.1188	0.482
13.1584	0.48
13.198	0.475
13.2376	0.469
13.2772	0.454
13.3168	0.442
13.3564	0.434
13.3959	0.422
13.4355	0.412
13.4751	0.391
13.5147	0.384
13.5543	0.373
13.5939	0.369
13.6335	0.368
13.6731	0.361
13.7126	0.363
13.7522	0.363
13.7918	0.366
13.8314	0.366
13.871	0.366
13.9106	0.374
13.9502	0.383
13.9898	0.393
14.0294	0.399
14.0689	0.404
14.1085	0.414
14.1481	0.422
14.1877	0.426
14.2273	0.434
14.2669	0.439
14.3065	0.441
14.3461	0.437
14.3857	0.442
14.4252	0.446
14.4648	0.446
14.5044	0.441
14.544	0.446
14.5836	0.442
14.6232	0.437
14.6628	0.439
14.7024	0.431
14.742	0.427
14.7815	0.424
14.8211	0.419
14.8607	0.414
14.9003	0.412
14.9399	0.411
14.9795	0.416
15.0191	0.422
15.0587	0.411
15.0983	0.381
15.1378	0.364
15.1774	0.371
15.217	0.374
15.2566	0.374
15.2962	0.374
15.3358	0.373
15.3754	0.368
15.415	0.369
15.4545	0.374
15.4941	0.381
15.5337	0.379
15.5733	0.396
15.6129	0.404
15.6525	0.416
15.6921	0.426
15.7317	0.437
15.7713	0.456
15.8108	0.461
15.8504	0.464
15.89	0.464
15.9296	0.479
15.9692	0.495
