Infrared Spectrum: 2-Naphthol, 3,5,5,8,8-pentamethyl-5,6,7,8-tetrahydro-,
Formula: C15 H22 O
CAS: 22825-14-5
State: SOLUTION (7% CHCl3 FOR 2-15 MICRON) VS SOLVENT
Class: COBLENTZ
Instrument: PERKIN-ELMER 21 (GRATING)
Instrument parameters: FILTER AT ABOUT 10 MICRONS
Path length: 0.010 CM
Resolution: 2
Origin: ABBOTT LABORATORIES
1/CM	TRANSMITTANCE
807	0.9378
815	0.9214
823	0.9053
831	0.8947
839	0.7894
847	0.7541
855	0.8104
863	0.8162
871	0.8054
879	0.5709
887	0.7006
895	0.874
903	0.8918
911	0.8945
919	0.903
927	0.8818
935	0.8762
943	0.831
951	0.871
959	0.8789
967	0.8774
975	0.8672
983	0.8574
991	0.8432
999	0.7772
1007	0.5209
1015	0.7041
1023	0.821
1031	0.8209
1039	0.8227
1047	0.8921
1055	0.8829
1063	0.8399
1071	0.8497
1079	0.8484
1087	0.864
1095	0.8215
1103	0.7782
1111	0.8168
1119	0.7145
1127	0.2957
1135	0.4471
1143	0.593
1151	0.7399
1159	0.6483
1167	0.5732
1175	0.4604
1183	0.4871
1191	0.7588
1199	0.7786
1207	0.7705
1215	0.7579
1223	0.7396
1231	0.703
1239	0.5893
1247	0.3931
1255	0.6997
1263	0.645
1271	0.4799
1279	0.6122
1287	0.7717
1295	0.7522
1303	0.5999
1311	0.7934
1319	0.8236
1327	0.8034
1335	0.8353
1343	0.81
1351	0.494
1359	0.7879
1367	0.7063
1375	0.6749
1383	0.6058
1391	0.514
1399	0.7305
1407	0.7963
1415	0.7805
1423	0.7339
1431	0.6458
1439	0.4937
1447	0.4935
1455	0.5329
1463	0.6667
1471	0.7103
1479	0.5075
1487	0.3069
1495	0.5315
1503	0.7787
1511	0.8388
1519	0.8611
1527	0.8733
1535	0.8555
1543	0.8131
1551	0.7693
1559	0.727
1567	0.7228
1575	0.7274
1583	0.8327
1591	0.8385
1599	0.8081
1607	0.7341
1615	0.7999
1623	0.8839
1631	0.8911
1639	0.9068
1647	0.9081
1655	0.9086
1663	0.9089
1671	0.9085
1679	0.9079
1687	0.9077
1695	0.9073
1703	0.9065
1711	0.9054
1719	0.904
1727	0.903
1735	0.9022
1743	0.9028
1751	0.9073
1759	0.912
1767	0.9177
1775	0.921
1783	0.9217
1791	0.9218
1799	0.9218
1807	0.9215
1815	0.921
1823	0.9205
1831	0.9197
1839	0.9189
1847	0.9181
1855	0.9176
1863	0.917
1871	0.9166
1879	0.9163
1887	0.916
1895	0.9158
1903	0.9155
1911	0.9158
1919	0.9163
1927	0.9167
1935	0.9172
1943	0.9177
1951	0.9182
1959	0.9187
1967	0.9193
1975	0.9198
1983	0.9204
1991	0.9209
1999	0.9215
2007	0.922
2015	0.9227
2023	0.9239
2031	0.9252
2039	0.9264
2047	0.9289
2055	0.932
2063	0.9336
2071	0.9334
2079	0.9331
2087	0.9329
2095	0.9327
2103	0.9321
2111	0.9316
2119	0.9313
2127	0.9314
2135	0.9335
2143	0.9362
2151	0.9366
2159	0.9368
2167	0.9369
2175	0.9369
2183	0.9369
2191	0.9368
2199	0.937
2207	0.9372
2215	0.9374
2223	0.9378
2231	0.9385
2239	0.9392
2247	0.9405
2255	0.9421
2263	0.9444
2271	0.9489
2279	0.9536
2287	0.9579
2295	0.959
2303	0.9594
2311	0.9591
2319	0.9587
2327	0.9579
2335	0.9568
2343	0.9541
2351	0.9515
2359	0.9508
2367	0.9504
2375	0.9502
2383	0.9502
2391	0.9503
2399	0.9506
2407	0.951
2415	0.9513
2423	0.9518
2431	0.9522
2439	0.9527
2447	0.9532
2455	0.9537
2463	0.9542
2471	0.9545
2479	0.9547
2487	0.955
2495	0.9552
2503	0.9554
2511	0.9556
2519	0.9558
2527	0.9559
2535	0.956
2543	0.9559
2551	0.9555
2559	0.9547
2567	0.9525
2575	0.951
2583	0.95
2591	0.9496
2599	0.9493
2607	0.9491
2615	0.9488
2623	0.9483
2631	0.9478
2639	0.9472
2647	0.9462
2655	0.9451
2663	0.9438
2671	0.9423
2679	0.9409
2687	0.9395
2695	0.9379
2703	0.9364
2711	0.9353
2719	0.9344
2727	0.9331
2735	0.9316
2743	0.9283
2751	0.9234
2759	0.9175
2767	0.9092
2775	0.8996
2783	0.8883
2791	0.8773
2799	0.862
2807	0.8353
2815	0.7551
2823	0.6606
2831	0.5666
2839	0.4764
2847	0.4532
2855	0.4556
2863	0.4595
2871	0.4544
2879	0.4045
2887	0.355
2895	0.3057
2903	0.2567
2911	0.2409
2919	0.2415
2927	0.2433
2935	0.2472
2943	0.3098
2951	0.5254
2959	0.6876
2967	0.7024
2975	0.7426
2983	0.7999
2991	0.8575
2999	0.8936
3007	0.906
3015	0.916
3023	0.9223
3031	0.9252
3039	0.9251
3047	0.9241
3055	0.9226
3063	0.92
3071	0.917
3079	0.914
3087	0.9109
3095	0.908
3103	0.9045
3111	0.9007
3119	0.897
3127	0.8933
3135	0.8895
3143	0.8855
3151	0.8813
3159	0.8773
3167	0.8736
3175	0.8698
3183	0.8661
3191	0.8624
3199	0.8586
3207	0.8544
3215	0.8501
3223	0.8458
3231	0.8416
3239	0.8372
3247	0.8326
3255	0.828
3263	0.8234
3271	0.8186
3279	0.8137
3287	0.8088
3295	0.8036
3303	0.7985
3311	0.7964
3319	0.7954
3327	0.7958
3335	0.7964
3343	0.797
3351	0.7989
3359	0.8018
3367	0.8053
3375	0.8092
3383	0.8134
3391	0.8176
3399	0.8216
3407	0.8258
3415	0.8303
3423	0.8348
3431	0.8384
3439	0.8412
3447	0.843
3455	0.8439
3463	0.8443
3471	0.8443
3479	0.8436
3487	0.8422
3495	0.8401
3503	0.8362
3511	0.8289
3519	0.8083
3527	0.7678
3535	0.7244
3543	0.6813
3551	0.6383
3559	0.5966
3567	0.5854
3575	0.5861
3583	0.6288
3591	0.7069
3599	0.7846
3607	0.862
3615	0.9118
3623	0.9168
3631	0.9205
3639	0.9233
3647	0.9259
3655	0.928
3663	0.93
3671	0.9319
3679	0.9338
3687	0.9352
3695	0.9361
3703	0.9369
3711	0.9369
3719	0.9368
3727	0.9362
3735	0.9356
3743	0.9349
3751	0.9343
3759	0.9338
3767	0.9332
3775	0.9328
3783	0.9322
3791	0.9317
3799	0.9312
3807	0.9307
3815	0.9302
3823	0.9297
3831	0.9292
3839	0.9286
3847	0.9281
3855	0.9276
3863	0.927
3871	0.9265
3879	0.9258
3887	0.9253
3895	0.9248
3903	0.9241
3911	0.9235
3919	0.9228
3927	0.9222
3935	0.9214
3943	0.9208
3951	0.9201
3959	0.9195
3967	0.919
3975	0.9187
3983	0.9185
3991	0.9181
3999	0.9179
