Infrared Spectrum: Acetanilide, 4'-(methylsulfonyl)-
Formula: C9 H11 N O3 S
CAS: 22821-80-3
State: SOLID (SPLIT MULL), FLUOROLUBE FOR 3800-1330 CM^-^1, NUJOL FOR 1330-400 CM^-^1
Class: COBLENTZ III
Instrument: DOW KBr FOREPRISM-GRATING
Instrument parameters: BLAZED AT 3.5, 12.0, 20.0 MICRON AND CHANGED AT 5.0, 7.5, 14.9 MICRON
Sampling: TRANSMISSION
Resolution: 2
Origin: DOW CHEMICAL COMPANY
1/CM	TRANSMITTANCE
3798	0.7578
3789	0.7578
3780	0.758
3771	0.758
3762	0.758
3753	0.759
3744	0.76
3735	0.761
3726	0.7618
3717	0.7626
3708	0.7636
3699	0.7644
3690	0.7649
3681	0.7654
3672	0.7658
3663	0.7665
3654	0.7671
3645	0.7678
3636	0.7684
3627	0.769
3618	0.7698
3609	0.7705
3600	0.7714
3591	0.7721
3582	0.773
3573	0.7738
3564	0.7748
3555	0.7758
3546	0.7768
3537	0.7778
3528	0.779
3519	0.78
3510	0.7811
3501	0.7818
3492	0.7826
3483	0.7834
3474	0.7842
3465	0.785
3456	0.7858
3447	0.7865
3438	0.7875
3429	0.7881
3420	0.788
3411	0.7878
3402	0.7862
3393	0.7835
3384	0.7646
3375	0.698
3366	0.5794
3357	0.3799
3348	0.3318
3339	0.452
3330	0.5604
3321	0.6396
3312	0.6801
3303	0.7041
3294	0.7105
3285	0.6928
3276	0.6886
3267	0.7187
3258	0.7339
3249	0.7437
3240	0.7501
3231	0.7549
3222	0.7561
3213	0.7547
3204	0.7524
3195	0.7497
3186	0.7483
3177	0.7561
3168	0.7638
3159	0.7711
3150	0.775
3141	0.7754
3132	0.7696
3123	0.7599
3114	0.7349
3105	0.7446
3096	0.7575
3087	0.7661
3078	0.7714
3069	0.7739
3060	0.7661
3051	0.7311
3042	0.7508
3033	0.7488
3024	0.4594
3015	0.7045
3006	0.5873
2997	0.6989
2988	0.7451
2979	0.7568
2970	0.7631
2961	0.7671
2952	0.7707
2943	0.7728
2934	0.7695
2925	0.6116
2916	0.688
2907	0.7371
2898	0.7618
2889	0.7737
2880	0.7808
2871	0.7837
2862	0.7837
2853	0.781
2844	0.7805
2835	0.783
2826	0.7882
2817	0.7944
2808	0.8007
2799	0.8039
2790	0.8011
2781	0.7987
2772	0.8025
2763	0.8062
2754	0.8054
2745	0.8087
2736	0.8134
2727	0.8165
2718	0.8161
2709	0.8155
2700	0.8161
2691	0.8174
2682	0.8186
2673	0.8196
2664	0.8205
2655	0.8211
2646	0.821
2637	0.8211
2628	0.822
2619	0.8228
2610	0.824
2601	0.8255
2592	0.8271
2583	0.8282
2574	0.8281
2565	0.8277
2556	0.8268
2547	0.8258
2538	0.826
2529	0.8265
2520	0.827
2511	0.8275
2502	0.828
2493	0.8285
2484	0.8291
2475	0.8296
2466	0.8301
2457	0.8305
2448	0.8309
2439	0.8309
2430	0.8308
2421	0.8301
2412	0.8261
2403	0.8235
2394	0.822
2385	0.8217
2376	0.8215
2367	0.8216
2358	0.822
2349	0.8228
2340	0.8245
2331	0.8316
2322	0.8402
2313	0.8383
2304	0.8297
2295	0.8299
2286	0.8264
2277	0.8248
2268	0.8243
2259	0.83
2250	0.8314
2241	0.8325
2232	0.834
2223	0.8353
2214	0.8377
2205	0.8399
2196	0.8421
2187	0.844
2178	0.8458
2169	0.8474
2160	0.8489
2151	0.8503
2142	0.8518
2133	0.853
2124	0.8543
2115	0.8554
2106	0.8567
2097	0.8578
2088	0.8591
2079	0.8602
2070	0.862
2061	0.8639
2052	0.8658
2043	0.868
2034	0.8698
2025	0.8686
2016	0.8665
2007	0.866
1998	0.8691
1989	0.8778
1980	0.8797
1971	0.8807
1962	0.8857
1953	0.8864
1944	0.884
1935	0.882
1926	0.8797
1917	0.8681
1908	0.8742
1899	0.8803
1890	0.8852
1881	0.8865
1872	0.8874
1863	0.8855
1854	0.8847
1845	0.8848
1836	0.8858
1827	0.8871
1818	0.8883
1809	0.8893
1800	0.8892
1791	0.8847
1782	0.8757
1773	0.8853
1764	0.889
1755	0.893
1746	0.8964
1737	0.8982
1728	0.8989
1719	0.8966
1710	0.8801
1701	0.7771
1692	0.33
1683	0.2779
1674	0.6645
1665	0.716
1656	0.7251
1647	0.7718
1638	0.7893
1629	0.8078
1620	0.8161
1611	0.6853
1602	0.5439
1593	0.1249
1584	0.4254
1575	0.7287
1566	0.7991
1557	0.7889
1548	0.623
1539	0.0658
1530	0.2299
1521	0.5178
1512	0.6165
1503	0.4699
1494	0.6728
1485	0.6845
1476	0.7624
1467	0.7915
1458	0.7997
1449	0.8037
1440	0.8028
1431	0.8101
1422	0.7983
1413	0.7786
1404	0.4024
1395	0.6712
1386	0.7554
1377	0.6795
1368	0.4246
1359	0.5887
1350	0.7067
1341	0.7042
1332	0.5412
1323	0.4547
1314	0.3675
1305	0.6041
1296	0.6421
1287	0.2606
1278	0.3047
1269	0.4969
1260	0.2854
1251	0.5566
1242	0.7128
1233	0.7406
1224	0.771
1215	0.7782
1206	0.7805
1197	0.7858
1188	0.7881
1179	0.7807
1170	0.7901
1161	0.7914
1152	0.6235
1143	0.073
1134	0.1794
1125	0.6501
1116	0.7068
1107	0.7369
1098	0.7445
1089	0.5212
1080	0.7245
1071	0.7678
1062	0.785
1053	0.7932
1044	0.7893
1035	0.7656
1026	0.7853
1017	0.7876
1008	0.734
999	0.7972
990	0.811
981	0.805
972	0.514
963	0.5169
954	0.8018
945	0.8306
936	0.8375
927	0.8433
918	0.8477
909	0.8514
900	0.8528
891	0.8541
882	0.8592
873	0.8647
864	0.865
855	0.8594
846	0.7707
837	0.6815
828	0.8039
819	0.7975
810	0.8609
801	0.8667
792	0.8612
783	0.2742
774	0.6841
765	0.8232
756	0.8439
747	0.8445
738	0.8281
729	0.7969
720	0.7476
711	0.7761
702	0.7798
693	0.8058
684	0.7458
675	0.6336
666	0.5819
657	0.7261
648	0.8086
639	0.8498
630	0.8359
621	0.8787
612	0.8824
603	0.8178
594	0.7361
585	0.5601
576	0.8386
567	0.8661
558	0.8709
549	0.8474
540	0.5662
531	0.4253
522	0.5244
513	0.8363
504	0.8751
495	0.8715
486	0.8502
477	0.8758
468	0.8802
459	0.8824
450	0.8833
441	0.8821
432	0.8791
423	0.8771
414	0.8775
405	0.8723
396	0.8661
387	0.8625
