Infrared Spectrum: 6-HYDROXY-1,1,4,4-TETRAMETHYL-1,2,3,4-TETRAHYDRONAPHTHALENE
Formula: C14 H20 O
CAS: 22824-31-3
State: SOLUTION (7% IN CHCl3)
Class: COBLENTZ
Instrument: PERKIN-ELMER
Sampling: TRANSMISSION
Path length: 0.01 CM CELL
Resolution: 4
Origin: ABBOTT LABORATORIES - WASHBURN
MICROMETERS	TRANSMITTANCE
2.02	0.918
2.05333	0.92
2.08667	0.92
2.12	0.918
2.15334	0.9159
2.18667	0.916
2.22001	0.918
2.25334	0.921
2.28668	0.921
2.32001	0.9151
2.35335	0.9199
2.38668	0.92
2.42002	0.918
2.45335	0.918
2.48669	0.918
2.52002	0.921
2.55336	0.923
2.58669	0.925
2.62003	0.928
2.65336	0.928
2.6867	0.926
2.72003	0.9214
2.75337	0.5541
2.7867	0.7088
2.82004	0.805
2.85337	0.795
2.88671	0.7354
2.92004	0.6847
2.95338	0.659
2.98671	0.6571
3.02005	0.6771
3.05338	0.714
3.08672	0.7398
3.12005	0.7735
3.15339	0.8004
3.18672	0.8221
3.22006	0.835
3.25339	0.823
3.28673	0.8071
3.32006	0.6811
3.3534	0.2667
3.38673	0.2571
3.42007	0.3373
3.4534	0.451
3.48674	0.4709
3.52007	0.811
3.55341	0.8471
3.58674	0.8701
3.62008	0.877
3.65341	0.88
3.68675	0.888
3.72008	0.8872
3.75342	0.89
3.78675	0.888
3.82009	0.893
3.85342	0.901
3.88676	0.8981
3.92009	0.903
3.95343	0.9011
3.98676	0.9011
4.0201	0.901
4.05343	0.9
4.08677	0.901
4.1201	0.905
4.15344	0.9061
4.18677	0.9101
4.22011	0.913
4.25344	0.908
4.28678	0.91
4.32011	0.9129
4.35345	0.915
4.38678	0.915
4.42012	0.915
4.45345	0.916
4.48679	0.9161
4.52012	0.915
4.55346	0.916
4.58679	0.9149
4.62013	0.911
4.65346	0.911
4.6868	0.913
4.72013	0.9131
4.75347	0.9111
4.7868	0.916
4.82014	0.916
4.85347	0.916
4.88681	0.9131
4.92014	0.91
4.95348	0.916
4.98681	0.9149
5.02015	0.91
5.05348	0.911
5.08682	0.9129
5.12015	0.915
5.15349	0.911
5.18682	0.9127
5.22016	0.915
5.25349	0.91
5.28683	0.9017
5.32016	0.897
5.3535	0.898
5.38683	0.9033
5.42017	0.91
5.4535	0.912
5.48684	0.908
5.52017	0.908
5.55351	0.908
5.58684	0.905
5.62018	0.903
5.65351	0.8989
5.68685	0.893
5.72018	0.888
5.75352	0.8872
5.78685	0.888
5.82019	0.887
5.85352	0.887
5.88686	0.883
5.92019	0.882
5.95353	0.882
5.98686	0.8751
6.0202	0.8701
6.05353	0.8601
6.08687	0.8357
6.1202	0.7204
6.15354	0.5817
6.18687	0.4106
6.22021	0.5804
6.25354	0.6983
6.28688	0.621
6.32021	0.5413
6.35354	0.7044
6.38688	0.792
6.42021	0.8476
6.45355	0.8664
6.48688	0.8675
6.52022	0.8676
6.55355	0.8603
6.58689	0.83
6.62022	0.6466
6.65356	0.343
6.68689	0.3478
6.72023	0.4371
6.75356	0.506
6.7869	0.49
6.82023	0.4695
6.85357	0.4388
6.8869	0.5664
6.92024	0.6169
6.95357	0.6211
6.98691	0.5831
7.02024	0.538
7.05358	0.6785
7.08691	0.7915
7.12025	0.812
7.15358	0.813
7.18692	0.735
7.22025	0.6269
7.25359	0.7767
7.28692	0.79
7.32026	0.451
7.35359	0.6449
7.38693	0.7665
7.42026	0.7723
7.4536	0.7419
7.48693	0.755
7.52027	0.759
7.5536	0.7585
7.58694	0.731
7.62027	0.6023
7.65361	0.5177
7.68694	0.5049
7.72028	0.4345
7.75361	0.5344
7.78695	0.5246
7.82028	0.6442
7.85362	0.7415
7.88695	0.759
7.92029	0.7064
7.95362	0.6952
7.98696	0.6914
8.02029	0.5453
8.05363	0.4418
8.08696	0.4558
8.1203	0.466
8.15363	0.4723
8.18697	0.481
8.2203	0.503
8.25364	0.5155
8.28697	0.5324
8.32031	0.5508
8.35364	0.537
8.38698	0.4519
8.42031	0.4075
8.45365	0.3644
8.48698	0.358
8.52032	0.3505
8.55365	0.3298
8.58699	0.4051
8.62032	0.5158
8.65366	0.594
8.68699	0.6568
8.72033	0.7016
8.75366	0.7166
8.787	0.7337
8.82033	0.7437
8.85367	0.7686
8.887	0.7836
8.92034	0.7948
8.95367	0.8042
8.98701	0.8056
9.02034	0.7906
9.05368	0.7379
9.08701	0.7578
9.12035	0.7932
9.15368	0.81
9.18702	0.8007
9.22035	0.7492
9.25369	0.7469
9.28702	0.7857
9.32036	0.8143
9.35369	0.813
9.38703	0.768
9.42036	0.7649
9.4537	0.8268
9.48703	0.8446
9.52037	0.8391
9.5537	0.8019
9.58704	0.779
9.62037	0.7721
9.65371	0.7748
9.68704	0.8057
9.72038	0.8424
9.75371	0.8358
9.78705	0.7707
9.82038	0.8
9.85372	0.8389
9.88705	0.848
9.92039	0.852
9.95372	0.8527
9.98706	0.8564
10.0204	0.8626
10.0537	0.875
10.0871	0.88
10.1204	0.8759
10.1537	0.873
10.1871	0.8758
10.2204	0.873
10.2537	0.8707
10.2871	0.8671
10.3204	0.8577
10.3537	0.8255
10.3871	0.79
10.4204	0.8082
10.4537	0.837
10.4871	0.843
10.5204	0.845
10.5538	0.847
10.5871	0.847
10.6204	0.837
10.6538	0.8323
10.6871	0.8233
10.7204	0.813
10.7538	0.7809
10.7871	0.6209
10.8204	0.4654
10.8538	0.4496
10.8871	0.5847
10.9204	0.705
10.9538	0.7791
10.9871	0.8125
11.0204	0.8359
11.0538	0.8464
11.0871	0.8533
11.1204	0.8596
11.1538	0.8663
11.1871	0.858
11.2204	0.853
11.2538	0.8464
11.2871	0.842
11.3205	0.8316
11.3538	0.8091
11.3871	0.7543
11.4205	0.6888
11.4538	0.661
11.4871	0.6659
11.5205	0.6997
11.5538	0.7098
11.5871	0.719
11.6205	0.71
11.6538	0.7041
11.6871	0.7187
11.7205	0.7613
11.7538	0.8124
11.7871	0.8431
11.8205	0.8542
11.8538	0.858
11.8871	0.8625
11.9205	0.859
11.9538	0.8501
11.9872	0.8337
12.0205	0.8137
12.0538	0.7923
12.0872	0.7408
12.1205	0.6708
12.1538	0.6283
12.1872	0.612
12.2205	0.6143
12.2538	0.6261
12.2872	0.622
12.3205	0.6294
12.3538	0.6623
12.3872	0.7192
12.4205	0.7669
12.4538	0.8069
12.4872	0.8376
12.5205	0.8665
12.5538	0.8866
12.5872	0.9048
12.6205	0.9244
12.6539	0.9307
12.6872	0.931
12.7205	0.928
12.7539	0.9238
12.7872	0.9204
12.8205	0.9155
12.8539	0.9105
12.8872	0.909
12.9205	0.906
12.9539	0.906
12.9872	0.9022
13.0205	0.893
13.0539	0.8936
13.0872	0.898
13.1205	0.9033
13.1539	0.9047
13.1872	0.901
13.2205	0.9009
13.2539	0.9
13.2872	0.9001
13.3206	0.903
13.3539	0.901
13.3872	0.8922
13.4206	0.8851
13.4539	0.882
13.4872	0.88
13.5206	0.877
13.5539	0.8814
13.5872	0.885
13.6206	0.8873
13.6539	0.8838
13.6872	0.8792
13.7206	0.878
13.7539	0.8774
13.7872	0.873
13.8206	0.8725
13.8539	0.872
13.8872	0.8759
13.9206	0.8838
13.9539	0.887
13.9873	0.888
14.0206	0.888
14.0539	0.8884
14.0873	0.893
14.1206	0.895
14.1539	0.8948
14.1873	0.893
14.2206	0.893
14.2539	0.892
14.2873	0.89
14.3206	0.883
14.3539	0.8754
14.3873	0.8657
14.4206	0.8572
14.4539	0.855
14.4873	0.857
14.5206	0.8564
14.5539	0.858
14.5873	0.863
14.6206	0.87
14.654	0.872
14.6873	0.875
14.7206	0.8725
14.754	0.8684
14.7873	0.865
14.8206	0.8657
14.854	0.8694
14.8873	0.867
14.9206	0.8672
14.954	0.8595
14.9873	0.845
