Infrared Spectrum: 2-Hydroxy-1-naphthoic acid
Formula: C 11 H 8 O 3
CAS: 2283-08-1
State: gas
Origin: EPA-IR VAPOR PHASE LIBRARY
1/CM	ABSORBANCE
549.9	0.001912
559.547	0.0016414
569.193	0.0015541
578.84	0.001574
588.486	0.0015226
598.133	0.0014721
607.779	0.001822
617.426	0.003302
627.072	0.003382
636.719	0.001892
646.365	0.0013204
656.012	0.001092
665.658	0.0009474
675.305	0.0009873
684.951	0.0009165
694.598	0.00123
704.245	0.002062
713.891	0.004072
723.538	0.006092
733.184	0.008002
742.831	0.011282
752.477	0.006522
762.124	0.002822
771.77	0.001742
781.417	0.002762
791.063	0.005082
800.71	0.006552
810.356	0.005442
820.003	0.006512
829.649	0.010012
839.296	0.010832
848.943	0.007712
858.589	0.004422
868.236	0.003652
877.882	0.002622
887.529	0.002552
897.175	0.004352
906.822	0.004282
916.468	0.002142
926.115	0.001912
935.761	0.001762
945.408	0.002112
955.054	0.004672
964.701	0.004162
974.347	0.0014371
983.994	0.0009883
993.64	0.0009664
1003.29	0.00106
1012.93	0.0015635
1022.58	0.0015408
1032.23	0.0009755
1041.87	0.0009271
1051.52	0.0010034
1061.17	0.0010871
1070.81	0.0012341
1080.46	0.0014094
1090.11	0.001732
1099.75	0.002252
1109.4	0.005572
1119.05	0.011502
1128.69	0.011612
1138.34	0.008922
1147.99	0.011072
1157.63	0.020202
1167.28	0.029892
1176.92	0.033732
1186.57	0.027922
1196.22	0.017172
1205.86	0.012962
1215.51	0.010472
1225.16	0.006202
1234.8	0.004022
1244.45	0.005852
1254.1	0.010022
1263.74	0.013792
1273.39	0.011622
1283.04	0.006102
1292.68	0.002262
1302.33	0.0011893
1311.98	0.0013157
1321.62	0.001852
1331.27	0.002242
1340.92	0.002542
1350.56	0.003412
1360.21	0.004722
1369.86	0.007112
1379.5	0.008092
1389.15	0.006252
1398.79	0.002932
1408.44	0.0014955
1418.09	0.0014393
1427.73	0.001692
1437.38	0.002482
1447.03	0.004542
1456.67	0.006232
1466.32	0.006822
1475.97	0.006052
1485.61	0.003932
1495.26	0.004162
1504.91	0.008382
1514.55	0.011782
1524.2	0.007402
1533.85	0.002442
1543.49	0.001682
1553.14	0.0014429
1562.79	0.002172
1572.43	0.003952
1582.08	0.005892
1591.73	0.008172
1601.37	0.010932
1611.02	0.010662
1620.67	0.012102
1630.31	0.015992
1639.96	0.011622
1649.6	0.005282
1659.25	0.003742
1668.9	0.003792
1678.54	0.003352
1688.19	0.002422
1697.84	0.0015762
1707.48	0.0012236
1717.13	0.0011157
1726.78	0.0011564
1736.42	0.0010953
1746.07	0.0010983
1755.72	0.0010268
1765.36	0.0010319
1775.01	0.0011028
1784.66	0.0009225
1794.3	0.0008886
1803.95	0.000964
1813.6	0.0010579
1823.24	0.0010318
1832.89	0.0009227
1842.54	0.00072554
1852.18	0.00067305
1861.83	0.0007777
1871.47	0.0009882
1881.12	0.0012961
1890.77	0.0014279
1900.41	0.0013929
1910.06	0.0012372
1919.71	0.0011698
1929.35	0.001248
1939	0.0011007
1948.65	0.0006983
1958.29	0.000508
1967.94	0.000534
1977.59	0.0005806
1987.23	0.0005803
1996.88	0.000523
2006.53	0.000525
2016.17	0.000523
2025.82	0.000495
2035.47	0.0005672
2045.11	0.000529
2054.76	0.0005761
2064.41	0.0006325
2074.05	0.00067001
2083.7	0.000653006
2093.35	0.0006282
2102.99	0.000544
2112.64	0.000503
2122.28	0.00054
2131.93	0.0005531
2141.58	0.0005843
2151.22	0.0005626
2160.87	0.0006169
2170.52	0.0005584
2180.16	0.0006312
2189.81	0.000546
2199.46	0.000522
2209.1	0.000453
2218.75	0.000499
2228.4	0.000513
2238.04	0.000481
2247.69	0.000506
2257.34	0.0005605
2266.98	0.00065675
2276.63	0.0006335
2286.28	0.00067292
2295.92	0.0006229
2305.57	0.00067138
2315.22	0.0006907
2324.86	0.00072765
2334.51	0.0007806
2344.16	0.0007614
2353.8	0.0007736
2363.45	0.0006402
2373.09	0.000659153
2382.74	0.00069632
2392.39	0.0007568
2402.03	0.0007674
2411.68	0.00069878
2421.33	0.00072677
2430.97	0.00075081
2440.62	0.00067584
2450.27	0.00069875
2459.91	0.0007188
2469.56	0.00070071
2479.21	0.00064708
2488.85	0.0006308
2498.5	0.0006196
2508.15	0.0006403
2517.79	0.0005952
2527.44	0.0005598
2537.09	0.0006113
2546.73	0.0006169
2556.38	0.0005697
2566.03	0.0006158
2575.67	0.0005668
2585.32	0.000499
2594.96	0.000486
2604.61	0.000489
2614.26	0.000485
2623.9	0.000473
2633.55	0.0006139
2643.2	0.000539
2652.84	0.000541
2662.49	0.000452
2672.14	0.000403
2681.78	0.000437
2691.43	0.000437
2701.08	0.000365
2710.72	0.000486
2720.37	0.000474
2730.02	0.000482
2739.66	0.000536
2749.31	0.000536
2758.96	0.000523
2768.6	0.000531
2778.25	0.00043
2787.9	0.000457
2797.54	0.000479
2807.19	0.000437
2816.84	0.000434
2826.48	0.000465
2836.13	0.000381
2845.77	0.000393
2855.42	0.000387
2865.07	0.000442
2874.71	0.000395
2884.36	0.000461
2894.01	0.000512
2903.65	0.000436
2913.3	0.000433
2922.95	0.000481
2932.59	0.0006405
2942.24	0.00064437
2951.89	0.0009759
2961.53	0.0011729
2971.18	0.0013658
2980.83	0.0014551
2990.47	0.0016419
3000.12	0.002142
3009.77	0.003312
3019.41	0.004932
3029.06	0.006052
3038.71	0.006242
3048.35	0.008432
3058	0.012202
3067.64	0.013082
3077.29	0.009462
3086.94	0.005042
3096.58	0.002762
3106.23	0.0014732
3115.88	0.0006321
3125.52	0.000291
3135.17	0.000259
3144.82	0.000224
3154.46	0.000213
3164.11	0.000247
3173.76	0.000189
3183.4	0.000209
3193.05	0.000259
3202.7	4.6e-05
3212.34	0.000113
3221.99	0.000248
3231.64	8.3e-05
3241.28	0.000292
3250.93	0.000206
3260.58	0.000182
3270.22	0.000103
3279.87	3e-06
3289.52	0
3299.16	0.00016
3308.81	9.1e-05
3318.45	0.000316
3328.1	0.000123
3337.75	0.000184
3347.39	0.000202
3357.04	0.000324
3366.69	0.000174
3376.33	0.000282
3385.98	0.000216
3395.63	0.000288
3405.27	0.000216
3414.92	0.000165
3424.57	0.000127
3434.21	0.000266
3443.86	0.000217
3453.51	0.000287
3463.15	0.000332
3472.8	0.00023
3482.45	0.00032
3492.09	0.000142
3501.74	0.000243
3511.39	0.000353
3521.03	0.000152
3530.68	0.000313
3540.33	0.000163
3549.97	0.000261
3559.62	0.000496
3569.26	0.000373
3578.91	0.000346
3588.56	0.000357
3598.2	0.000482
3607.85	0.000485
3617.5	0.0009549
3627.14	0.002132
3636.79	0.008442
3646.44	0.017182
3656.08	0.015962
3665.73	0.005482
3675.38	0.0008942
3685.02	0.0006061
3694.67	0.000334
3704.32	0.000318
3713.96	0.000355
3723.61	0.000223
3733.26	0.000314
3742.9	0.000244
3752.55	0.000389
3762.2	0.000427
3771.84	0.000441
3781.49	0.000488
3791.13	0.00036
3800.78	0.000347
3810.43	0.0004
3820.07	0.000445
3829.72	0.000519
3839.37	0.000409
3849.01	0.000325
3858.66	0.000344
3868.31	0.000458
3877.95	0.000431
3887.6	0.000409
3897.25	0.00051
3906.89	0.000457
3916.54	0.00043
3926.19	0.0005663
3935.83	0.00049
3945.48	0.00058
3955.13	0.0005984
3964.77	0.0005776
3974.42	0.00055
3984.07	0.000541
3993.71	0.000545
