Infrared Spectrum: 4-Methoxyphenyl isothiocyanate
Formula: C 8 H 7 N O S
CAS: 2284-20-0
State: gas
Origin: EPA-IR VAPOR PHASE LIBRARY
1/CM	ABSORBANCE
549.8	0.024192
559.445	0.018382
569.09	0.013412
578.734	0.011102
588.379	0.011232
598.024	0.012342
607.669	0.014052
617.313	0.014202
626.958	0.012942
636.603	0.011252
646.248	0.010332
655.893	0.009182
665.537	0.006072
675.182	0.003832
684.827	0.002442
694.472	0.001982
704.116	0.001762
713.761	0.0013601
723.406	0.0012682
733.051	0.0013585
742.695	0.0016187
752.34	0.002482
761.985	0.002442
771.63	0.002782
781.275	0.004212
790.919	0.006132
800.564	0.008702
810.209	0.017002
819.854	0.035072
829.498	0.054372
839.143	0.044472
848.788	0.024772
858.433	0.011992
868.078	0.008552
877.722	0.006522
887.367	0.006282
897.012	0.008852
906.657	0.011932
916.301	0.014442
925.946	0.022092
935.591	0.035752
945.236	0.033902
954.88	0.019502
964.525	0.011162
974.17	0.008152
983.815	0.007502
993.46	0.007622
1003.1	0.009202
1012.75	0.013872
1022.39	0.024242
1032.04	0.040432
1041.68	0.047122
1051.33	0.030162
1060.97	0.013122
1070.62	0.008062
1080.26	0.006952
1089.91	0.008792
1099.55	0.011902
1109.2	0.011772
1118.84	0.008372
1128.49	0.005632
1138.13	0.005032
1147.78	0.006152
1157.42	0.020292
1167.07	0.048312
1176.71	0.031582
1186.36	0.025722
1196	0.015642
1205.64	0.020222
1215.29	0.029162
1224.93	0.056862
1234.58	0.148882
1244.22	0.242632
1253.87	0.159742
1263.51	0.087462
1273.16	0.076522
1282.8	0.084512
1292.45	0.076112
1302.09	0.042262
1311.74	0.020422
1321.38	0.010242
1331.03	0.006352
1340.67	0.005002
1350.32	0.004192
1359.96	0.003732
1369.61	0.003292
1379.25	0.003182
1388.9	0.003472
1398.54	0.004032
1408.18	0.005382
1417.83	0.008812
1427.47	0.014692
1437.12	0.021282
1446.76	0.028742
1456.41	0.026952
1466.05	0.037242
1475.7	0.033972
1485.34	0.038562
1494.99	0.141112
1504.63	0.339292
1514.28	0.142952
1523.92	0.027622
1533.57	0.018222
1543.21	0.014582
1552.86	0.012592
1562.5	0.013472
1572.15	0.017472
1581.79	0.020502
1591.44	0.020232
1601.08	0.021352
1610.73	0.018422
1620.37	0.010042
1630.01	0.007052
1639.66	0.005982
1649.3	0.004642
1658.95	0.003672
1668.59	0.003172
1678.24	0.002772
1687.88	0.002622
1697.53	0.002632
1707.17	0.002732
1716.82	0.002942
1726.46	0.003322
1736.11	0.004062
1745.75	0.004082
1755.4	0.003332
1765.04	0.003292
1774.69	0.003642
1784.33	0.003832
1793.98	0.004292
1803.62	0.004522
1813.27	0.004462
1822.91	0.004822
1832.55	0.005732
1842.2	0.007172
1851.84	0.008902
1861.49	0.010402
1871.13	0.011612
1880.78	0.012462
1890.42	0.012712
1900.07	0.012252
1909.71	0.013032
1919.36	0.015802
1929	0.020912
1938.65	0.028922
1948.29	0.040252
1957.94	0.054112
1967.58	0.071172
1977.23	0.093572
1986.87	0.122662
1996.52	0.160812
2006.16	0.213462
2015.81	0.279322
2025.45	0.345792
2035.1	0.406822
2044.74	0.480662
2054.38	0.518492
2064.03	0.369492
2073.67	0.234302
2083.32	0.210242
2092.96	0.253792
2102.61	0.318372
2112.25	0.293522
2121.9	0.182152
2131.54	0.116152
2141.19	0.096602
2150.83	0.090092
2160.48	0.086612
2170.12	0.074402
2179.77	0.059102
2189.41	0.045802
2199.06	0.033392
2208.7	0.023642
2218.35	0.017602
2227.99	0.013842
2237.64	0.010782
2247.28	0.008182
2256.92	0.006492
2266.57	0.005072
2276.21	0.004312
2285.86	0.004142
2295.5	0.004042
2305.15	0.003172
2314.79	0.002412
2324.44	0.002162
2334.08	0.002292
2343.73	0.002402
2353.37	0.002582
2363.02	0.002912
2372.66	0.003422
2382.31	0.003622
2391.95	0.004302
2401.6	0.005052
2411.24	0.004972
2420.89	0.004192
2430.53	0.003572
2440.18	0.003572
2449.82	0.003652
2459.47	0.004012
2469.11	0.004332
2478.75	0.005062
2488.4	0.005582
2498.04	0.005382
2507.69	0.004962
2517.33	0.005052
2526.98	0.005622
2536.62	0.006062
2546.27	0.005872
2555.91	0.005442
2565.56	0.005212
2575.2	0.004802
2584.85	0.004152
2594.49	0.003382
2604.14	0.003042
2613.78	0.002822
2623.43	0.002912
2633.07	0.003282
2642.72	0.003542
2652.36	0.003772
2662.01	0.004172
2671.65	0.005202
2681.29	0.006102
2690.94	0.007012
2700.58	0.007332
2710.23	0.006842
2719.87	0.005022
2729.52	0.003302
2739.16	0.002692
2748.81	0.002552
2758.45	0.002572
2768.1	0.002732
2777.74	0.002572
2787.39	0.002862
2797.03	0.003372
2806.68	0.004322
2816.32	0.005832
2825.97	0.008252
2835.61	0.013222
2845.26	0.022762
2854.9	0.017132
2864.55	0.009742
2874.19	0.007942
2883.84	0.007902
2893.48	0.009312
2903.12	0.012282
2912.77	0.016982
2922.41	0.018072
2932.06	0.019412
2941.7	0.027692
2951.35	0.031042
2960.99	0.027402
2970.64	0.020642
2980.28	0.015842
2989.93	0.013992
2999.57	0.017032
3009.22	0.027072
3018.86	0.020772
3028.51	0.009592
3038.15	0.009552
3047.8	0.011912
3057.44	0.010892
3067.09	0.007632
3076.73	0.007152
3086.38	0.006822
3096.02	0.006032
3105.67	0.005882
3115.31	0.004942
3124.95	0.003432
3134.6	0.002152
3144.24	0.0013999
3153.89	0.0011778
3163.53	0.0009433
3173.18	0.0009032
3182.82	0.0008436
3192.47	0.0006252
3202.11	0.0007967
3211.76	0.000533
3221.4	0.000483
3231.05	0.00038
3240.69	0.000347
3250.34	0.000272
3259.98	0.000172
3269.63	0.000193
3279.27	0.000268
3288.92	0.000293
3298.56	6.7e-05
3308.21	0.000414
3317.85	0.000304
3327.49	0.000385
3337.14	0.000389
3346.78	0.000311
3356.43	0.000303
3366.07	0.000181
3375.72	0.000247
3385.36	0.000147
3395.01	0.000434
3404.65	0.000321
3414.3	0.000263
3423.94	0.00033
3433.59	0.000449
3443.23	9.1e-05
3452.88	0.0005489
3462.52	0.000322
3472.17	0.000348
3481.81	0.000397
3491.46	0.000395
3501.1	0.000195
3510.75	0.0003
3520.39	0.000281
3530.04	0.000444
3539.68	0.000184
3549.32	0.000232
3558.97	0.000184
3568.61	0.000493
3578.26	0.000395
3587.9	0.00027
3597.55	0.0005667
3607.19	0.000317
3616.84	0.000373
3626.48	0.000473
3636.13	0.000394
3645.77	0.0005517
3655.42	0.0005747
3665.06	0.000398
3674.71	0.000479
3684.35	0.0006408
3694	0.000464
3703.64	0.0008123
3713.29	0.0006099
3722.93	0.000435
3732.58	0.0005689
3742.22	0.000485
3751.86	0.0005449
3761.51	0.000518
3771.15	0.0006015
3780.8	0.000405
3790.44	0.0006069
3800.09	0.0005
3809.73	0.0006034
3819.38	0.0008808
3829.02	0.00067988
3838.67	0.00070689
3848.31	0.00074087
3857.96	0.0008472
3867.6	0.0009707
3877.25	0.0010977
3886.89	0.0012338
3896.54	0.001065
3906.18	0.0012717
3915.83	0.001094
3925.47	0.0014412
3935.12	0.0013648
3944.76	0.0014541
3954.41	0.001672
3964.05	0.001702
3973.69	0.001872
3983.34	0.002242
3992.98	0.002102
