Infrared Spectrum: CYCLOPROPANE, 3-METHOXY-1,1,2,2-TETRAMETHYL-
Formula: C8 H16 O
CAS: 22859-35-4
State: SOLUTION (9% IN CCl4 FOR 3800-1300, 9% IN CS2 FOR 1300-620, 9% IN CCl4 FOR 620-300 CM^-^1) VERSUS SOLVENT
Class: COBLENTZ III
Instrument: PERKIN-ELMER 521 (GRATING)
Instrument parameters: FILTERS AT 3150, 2500, 2000, 1150, 700, 410; GRATING CHANGES AT 2000, 630 CM^-^1
Sampling: TRANSMISSION
Path length: 0.011, 0.011, AND 0.011 CM (CsBr CELL)
Resolution: 4
Origin: DOW CORNING CORP.
1/CM	TRANSMITTANCE
300.438	0.69
309.3	0.717
318.162	0.75
327.024	0.76
335.887	0.757
344.749	0.756
353.611	0.776
362.473	0.788
371.335	0.789
380.197	0.79
389.06	0.793
397.922	0.797
406.784	0.792
415.646	0.765
424.508	0.788
433.37	0.789
442.233	0.798
451.095	0.812
459.957	0.817
468.819	0.822
477.681	0.83
486.543	0.84
495.406	0.844
504.268	0.836
513.13	0.794
521.992	0.653
530.854	0.822
539.716	0.832
548.579	0.829
557.441	0.796
566.303	0.774
575.165	0.841
584.027	0.854
592.889	0.861
601.752	0.857
610.614	0.854
619.476	0.874
628.338	0.88
637.2	0.881
646.062	0.884
654.924	0.9
663.787	0.908
672.649	0.914
681.511	0.914
690.373	0.91
699.235	0.916
708.097	0.91
716.96	0.868
725.822	0.806
734.684	0.913
743.546	0.921
752.408	0.926
761.27	0.929
770.133	0.93
778.995	0.93
787.857	0.928
796.719	0.928
805.581	0.918
814.443	0.902
823.306	0.873
832.168	0.88
841.03	0.864
849.892	0.865
858.754	0.886
867.616	0.892
876.479	0.894
885.341	0.905
894.203	0.905
903.065	0.898
911.927	0.89
920.789	0.876
929.652	0.7961
938.514	0.6129
947.376	0.84
956.238	0.741
965.1	0.66
973.962	0.828
982.825	0.812
991.687	0.84
1000.55	0.808
1009.41	0.709
1018.27	0.709
1027.14	0.6928
1036	0.762
1044.86	0.841
1053.72	0.86
1062.58	0.852
1071.45	0.821
1080.31	0.797
1089.17	0.706
1098.03	0.4089
1106.89	0.3419
1115.76	0.522
1124.62	0.564
1133.48	0.382
1142.34	0.43
1151.21	0.701
1160.07	0.789
1168.93	0.762
1177.79	0.6559
1186.65	0.7091
1195.52	0.79
1204.38	0.726
1213.24	0.361
1222.1	0.82
1230.97	0.873
1239.83	0.877
1248.69	0.872
1257.55	0.86
1266.41	0.846
1275.28	0.857
1284.14	0.86
1293	0.844
1301.86	0.818
1310.72	0.772
1319.59	0.758
1328.45	0.841
1337.31	0.844
1346.17	0.84
1355.04	0.814
1363.9	0.765
1372.76	0.5412
1381.62	0.5378
1390.48	0.77
1399.35	0.752
1408.21	0.478
1417.07	0.726
1425.93	0.745
1434.79	0.708
1443.66	0.4689
1452.52	0.244
1461.38	0.389
1470.24	0.44
1479.11	0.288
1487.97	0.612
1496.83	0.733
1505.69	0.752
1514.55	0.798
1523.42	0.856
1532.28	0.864
1541.14	0.868
1550	0.866
1558.87	0.865
1567.73	0.861
1576.59	0.86
1585.45	0.856
1594.31	0.853
1603.18	0.852
1612.04	0.849
1620.9	0.848
1629.76	0.853
1638.62	0.852
1647.49	0.85
1656.35	0.849
1665.21	0.853
1674.07	0.861
1682.94	0.861
1691.8	0.864
1700.66	0.866
1709.52	0.865
1718.38	0.865
1727.25	0.864
1736.11	0.858
1744.97	0.858
1753.83	0.862
1762.69	0.866
1771.56	0.868
1780.42	0.868
1789.28	0.868
1798.14	0.869
1807.01	0.869
1815.87	0.869
1824.73	0.87
1833.59	0.87
1842.45	0.87
1851.32	0.87
1860.18	0.868
1869.04	0.868
1877.9	0.869
1886.77	0.869
1895.63	0.868
1904.49	0.869
1913.35	0.866
1922.21	0.865
1931.08	0.862
1939.94	0.864
1948.8	0.862
1957.66	0.864
1966.52	0.861
1975.39	0.861
1984.25	0.853
1993.11	0.856
2001.97	0.862
2010.84	0.865
2019.7	0.8639
2028.56	0.8555
2037.42	0.854
2046.28	0.854
2055.15	0.854
2064.01	0.853
2072.87	0.853
2081.73	0.854
2090.59	0.8559
2099.46	0.853
2108.32	0.8521
2117.18	0.854
2126.04	0.856
2134.91	0.856
2143.77	0.857
2152.63	0.857
2161.49	0.858
2170.35	0.86
2179.22	0.86
2188.08	0.862
2196.94	0.865
2205.8	0.866
2214.67	0.865
2223.53	0.866
2232.39	0.865
2241.25	0.8646
2250.11	0.8659
2258.98	0.8646
2267.84	0.866
2276.7	0.8697
2285.56	0.87
2294.42	0.87
2303.29	0.87
2312.15	0.868
2321.01	0.8652
2329.87	0.868
2338.74	0.868
2347.6	0.865
2356.46	0.865
2365.32	0.8687
2374.18	0.8688
2383.05	0.8683
2391.91	0.865
2400.77	0.8647
2409.63	0.864
2418.49	0.864
2427.36	0.862
2436.22	0.864
2445.08	0.865
2453.94	0.866
2462.81	0.8683
2471.67	0.869
2480.53	0.8665
2489.39	0.868
2498.25	0.868
2507.12	0.87
2515.98	0.869
2524.84	0.87
2533.7	0.87
2542.57	0.87
2551.43	0.869
2560.29	0.8664
2569.15	0.865
2578.01	0.864
2586.88	0.861
2595.74	0.86
2604.6	0.8647
2613.46	0.865
2622.32	0.8647
2631.19	0.862
2640.05	0.864
2648.91	0.862
2657.77	0.864
2666.64	0.8623
2675.5	0.86
2684.36	0.86
2693.22	0.856
2702.08	0.8503
2710.95	0.8404
2719.81	0.8295
2728.67	0.7363
2737.53	0.7923
2746.39	0.821
2755.26	0.8182
2764.12	0.8132
2772.98	0.8013
2781.84	0.7951
2790.71	0.7695
2799.57	0.7443
2808.43	0.5539
2817.29	0.408
2826.15	0.479
2835.02	0.5397
2843.88	0.565
2852.74	0.4645
2861.6	0.2596
2870.47	0.1192
2879.33	0.1538
2888.19	0.148
2897.05	0.152
2905.91	0.1174
2914.78	0.0679
2923.64	0.025
2932.5	0.02
2941.36	0.0235
2950.22	0.0618
2959.09	0.1511
2967.95	0.2019
2976.81	0.1395
2985.67	0.1219
2994.54	0.2173
3003.4	0.3774
3012.26	0.563
3021.12	0.702
3029.98	0.7643
3038.85	0.7902
3047.71	0.8006
3056.57	0.8121
3065.43	0.8176
3074.29	0.821
3083.16	0.825
3092.02	0.828
3100.88	0.8326
3109.74	0.8365
3118.61	0.8432
3127.47	0.841
3136.33	0.8521
3145.19	0.8601
3154.05	0.8673
3162.92	0.8731
3171.78	0.8776
3180.64	0.886
3189.5	0.89
3198.37	0.8922
3207.23	0.8937
3216.09	0.896
3224.95	0.897
3233.81	0.896
3242.68	0.896
3251.54	0.896
3260.4	0.896
3269.26	0.894
3278.12	0.894
3286.99	0.8928
3295.85	0.892
3304.71	0.892
3313.57	0.89
3322.44	0.89
3331.3	0.889
3340.16	0.889
3349.02	0.889
3357.88	0.888
3366.75	0.888
3375.61	0.889
3384.47	0.889
3393.33	0.8897
3402.19	0.889
3411.06	0.89
3419.92	0.89
3428.78	0.89
3437.64	0.889
3446.51	0.89
3455.37	0.89
3464.23	0.89
3473.09	0.8892
3481.95	0.889
3490.82	0.889
3499.68	0.89
3508.54	0.889
3517.4	0.89
3526.27	0.8917
3535.13	0.8924
3543.99	0.892
3552.85	0.893
3561.71	0.893
3570.58	0.8913
3579.44	0.89
3588.3	0.894
3597.16	0.894
3606.02	0.8952
3614.89	0.8958
3623.75	0.896
3632.61	0.894
3641.47	0.893
3650.34	0.893
3659.2	0.892
3668.06	0.8918
3676.92	0.8924
3685.78	0.894
3694.65	0.893
3703.51	0.897
3712.37	0.894
3721.23	0.894
3730.09	0.892
3738.96	0.889
3747.82	0.897
3756.68	0.896
3765.54	0.896
3774.41	0.896
3783.27	0.894
3792.13	0.894
