Infrared Spectrum: Bis(2-ethylhexyl) itaconate
Formula: C21 H38 O4
CAS: 2287-83-4
State: SOLUTION (10% CCl4 FOR 2.7-7.5, 10% CS2 FOR 7.5-26 MICRON) VS SOLVENT
Class: COBLENTZ III
Instrument: DOW KBr FOREPRISM-GRATING
Instrument parameters: BLAZED AT 3.5, 12.0, 20.0 MICRON AND CHANGED AT 5.0, 7.5, 14.9 MICRON
Sampling: TRANSMISSION
Path length: 0.011 CM, 0.011 CM
Resolution: 2
Origin: DOW CHEMICAL COMPANY
1/CM	TRANSMITTANCE
3798	0.8558
3789	0.8558
3780	0.8561
3771	0.8566
3762	0.857
3753	0.8571
3744	0.8571
3735	0.8574
3726	0.8578
3717	0.858
3708	0.8582
3699	0.8578
3690	0.8575
3681	0.8571
3672	0.8574
3663	0.8575
3654	0.8582
3645	0.8584
3636	0.8552
3627	0.8494
3618	0.8498
3609	0.8524
3600	0.855
3591	0.8573
3582	0.8584
3573	0.8594
3564	0.8598
3555	0.8598
3546	0.8585
3537	0.8581
3528	0.8589
3519	0.8617
3510	0.8643
3501	0.8665
3492	0.8685
3483	0.8703
3474	0.8706
3465	0.8688
3456	0.8662
3447	0.8637
3438	0.8631
3429	0.8625
3420	0.863
3411	0.8636
3402	0.8662
3393	0.8697
3384	0.8745
3375	0.8782
3366	0.879
3357	0.8784
3348	0.878
3339	0.8774
3330	0.8768
3321	0.8768
3312	0.8765
3303	0.8757
3294	0.8746
3285	0.8735
3276	0.8725
3267	0.8718
3258	0.8712
3249	0.8705
3240	0.8701
3231	0.8695
3222	0.8681
3213	0.8654
3204	0.8628
3195	0.8605
3186	0.8583
3177	0.856
3168	0.8535
3159	0.851
3150	0.85
3141	0.8489
3132	0.8475
3123	0.8444
3114	0.8398
3105	0.8275
3096	0.8213
3087	0.8218
3078	0.821
3069	0.816
3060	0.8098
3051	0.8024
3042	0.7942
3033	0.784
3024	0.7739
3015	0.7589
3006	0.7207
2997	0.6253
2988	0.5276
2979	0.2719
2970	0.0611
2961	0.0234
2952	0.0484
2943	0.0892
2934	0.0477
2925	0.0332
2916	0.0845
2907	0.1481
2898	0.2118
2889	0.2754
2880	0.2243
2871	0.1648
2862	0.1361
2853	0.2918
2844	0.5583
2835	0.6071
2826	0.6615
2817	0.7119
2808	0.7487
2799	0.7636
2790	0.7771
2781	0.789
2772	0.7991
2763	0.8065
2754	0.8115
2745	0.8128
2736	0.809
2727	0.8015
2718	0.8036
2709	0.8096
2700	0.815
2691	0.8202
2682	0.8225
2673	0.8218
2664	0.82
2655	0.8209
2646	0.8248
2637	0.8271
2628	0.8288
2619	0.8299
2610	0.8311
2601	0.8323
2592	0.8336
2583	0.8357
2574	0.8381
2565	0.8406
2556	0.8431
2547	0.8456
2538	0.8481
2529	0.8505
2520	0.853
2511	0.8554
2502	0.8578
2493	0.8596
2484	0.8612
2475	0.8628
2466	0.8642
2457	0.8654
2448	0.8663
2439	0.8668
2430	0.8667
2421	0.8642
2412	0.8628
2403	0.8625
2394	0.8621
2385	0.8617
2376	0.8614
2367	0.8614
2358	0.8614
2349	0.8614
2340	0.8614
2331	0.8611
2322	0.8605
2313	0.8589
2304	0.8586
2295	0.8587
2286	0.8592
2277	0.8601
2268	0.8611
2259	0.8625
2250	0.8641
2241	0.8656
2232	0.8671
2223	0.868
2214	0.8688
2205	0.87
2196	0.8714
2187	0.8718
2178	0.8757
2169	0.8752
2160	0.8716
2151	0.8705
2142	0.8699
2133	0.8693
2124	0.8687
2115	0.8683
2106	0.8684
2097	0.8685
2088	0.8686
2079	0.8686
2070	0.8687
2061	0.8687
2052	0.8687
2043	0.8687
2034	0.8687
2025	0.8687
2016	0.8688
2007	0.869
1998	0.8692
1989	0.8696
1980	0.8703
1971	0.8712
1962	0.8718
1953	0.872
1944	0.8721
1935	0.8706
1926	0.8663
1917	0.8611
1908	0.8512
1899	0.8428
1890	0.8437
1881	0.8495
1872	0.8538
1863	0.8561
1854	0.8574
1845	0.8584
1836	0.8552
1827	0.8503
1818	0.8433
1809	0.8352
1800	0.8256
1791	0.8099
1782	0.7868
1773	0.7601
1764	0.7219
1755	0.583
1746	0.1804
1737	0.0204
1728	0.015
1719	0.0204
1710	0.0494
1701	0.3691
1692	0.5847
1683	0.6718
1674	0.7339
1665	0.7691
1656	0.7865
1647	0.7678
1638	0.5399
1629	0.6264
1620	0.7558
1611	0.8019
1602	0.8264
1593	0.8402
1584	0.8428
1575	0.8427
1566	0.8428
1557	0.844
1548	0.847
1539	0.8474
1530	0.8439
1521	0.8373
1512	0.8278
1503	0.8112
1494	0.7939
1485	0.7561
1476	0.5232
1467	0.2054
1458	0.2332
1449	0.4571
1440	0.6115
1431	0.6248
1422	0.4408
1413	0.5429
1404	0.5393
1395	0.5018
1386	0.3925
1377	0.4797
1368	0.5796
1359	0.5443
1350	0.4643
1341	0.342
1332	0.2952
1323	0.3602
1314	0.1794
1305	0.2516
1296	0.3185
1287	0.317
1278	0.366
1269	0.3866
1260	0.3056
1251	0.2728
1242	0.2953
1233	0.3571
1224	0.4089
1215	0.3559
1206	0.2293
1197	0.1596
1188	0.1066
1179	0.0942
1170	0.1424
1161	0.1549
1152	0.1242
1143	0.0963
1134	0.102
1125	0.2842
1116	0.5345
1107	0.6597
1098	0.7588
1089	0.7793
1080	0.7637
1071	0.7583
1062	0.7669
1053	0.775
1044	0.7617
1035	0.6984
1026	0.5647
1017	0.5347
1008	0.4358
999	0.4576
990	0.5453
981	0.5814
972	0.6072
963	0.5909
954	0.4996
945	0.3603
936	0.5375
927	0.6312
918	0.6965
909	0.7365
900	0.7357
891	0.7633
882	0.7987
873	0.7969
864	0.8141
855	0.8377
846	0.8442
837	0.8275
828	0.7911
819	0.6231
810	0.6442
801	0.813
792	0.8168
783	0.7743
774	0.7464
765	0.7525
756	0.7817
747	0.7781
738	0.7683
729	0.741
720	0.8205
711	0.8638
702	0.8791
693	0.8836
684	0.8844
675	0.8789
666	0.8641
657	0.8435
648	0.8289
639	0.8233
630	0.8236
621	0.8256
612	0.8277
603	0.8295
594	0.8299
585	0.8287
576	0.8248
567	0.8178
558	0.8097
549	0.8087
540	0.8137
531	0.8157
522	0.8212
513	0.8262
504	0.8275
495	0.823
486	0.8161
477	0.8158
468	0.8158
459	0.8156
450	0.8153
441	0.8151
432	0.8153
423	0.8165
414	0.8176
405	0.8185
396	0.8182
