Infrared Spectrum: Isopropyl linolate
Formula: C 21 H 38 O 2
CAS: 22882-95-7
State: gas
Origin: EPA-IR VAPOR PHASE LIBRARY
1/CM	ABSORBANCE
501.5	0.0012069
513.074	0.0012497
524.648	0.0013701
536.222	0.00155
547.796	0.0017111
559.37	0.002193
570.944	0.002883
582.518	0.003413
594.092	0.004103
605.666	0.004263
617.24	0.003943
628.814	0.003913
640.388	0.004103
651.962	0.004583
663.536	0.005713
675.11	0.007503
686.684	0.009783
698.258	0.011863
709.832	0.013103
721.406	0.012843
732.98	0.010593
744.554	0.007803
756.128	0.005933
767.702	0.005093
779.276	0.004393
790.85	0.003863
802.423	0.003923
813.997	0.005043
825.571	0.005953
837.145	0.004863
848.719	0.004313
860.293	0.004353
871.867	0.004883
883.441	0.005343
895.015	0.005893
906.589	0.006343
918.163	0.007073
929.737	0.008713
941.311	0.010743
952.885	0.012453
964.459	0.012793
976.033	0.010763
987.607	0.009153
999.181	0.007933
1010.76	0.007363
1022.33	0.007123
1033.9	0.007763
1045.48	0.009103
1057.05	0.010183
1068.63	0.012303
1080.2	0.016963
1091.77	0.025323
1103.35	0.047423
1114.92	0.066543
1126.49	0.050163
1138.07	0.046763
1149.64	0.043403
1161.22	0.044693
1172.79	0.052813
1184.36	0.053213
1195.94	0.043773
1207.51	0.036943
1219.09	0.035513
1230.66	0.038563
1242.23	0.041863
1253.81	0.037973
1265.38	0.030423
1276.96	0.025123
1288.53	0.020923
1300.1	0.019263
1311.68	0.019173
1323.25	0.018943
1334.83	0.019583
1346.4	0.020263
1357.97	0.021963
1369.55	0.026533
1381.12	0.026463
1392.7	0.019953
1404.27	0.013023
1415.84	0.009733
1427.42	0.012223
1438.99	0.015863
1450.57	0.020663
1462.14	0.023233
1473.71	0.016443
1485.29	0.008033
1496.86	0.004803
1508.44	0.003463
1520.01	0.002893
1531.58	0.002583
1543.16	0.002373
1554.73	0.002173
1566.31	0.002143
1577.88	0.002093
1589.45	0.002163
1601.03	0.002293
1612.6	0.002493
1624.18	0.002943
1635.75	0.003723
1647.32	0.004673
1658.9	0.004603
1670.47	0.004573
1682.05	0.005123
1693.62	0.006383
1705.19	0.008823
1716.77	0.014283
1728.34	0.032923
1739.92	0.075843
1751.49	0.085973
1763.06	0.037823
1774.64	0.013253
1786.21	0.006723
1797.79	0.004573
1809.36	0.003423
1820.93	0.002703
1832.51	0.002253
1844.08	0.001983
1855.66	0.001803
1867.23	0.0016859
1878.8	0.0016001
1890.38	0.001493
1901.95	0.0014338
1913.53	0.0014478
1925.1	0.0014741
1936.67	0.001477
1948.25	0.0013661
1959.82	0.0013
1971.4	0.0012399
1982.97	0.0012245
1994.54	0.0012139
2006.12	0.0012356
2017.69	0.0012366
2029.27	0.0012632
2040.84	0.0012657
2052.41	0.0012574
2063.99	0.0012379
2075.56	0.0011848
2087.14	0.0010568
2098.71	0.0009582
2110.28	0.0009237
2121.86	0.0008612
2133.43	0.0008739
2145.01	0.0008469
2156.58	0.00083028
2168.15	0.0008851
2179.73	0.000908
2191.3	0.0008719
2202.88	0.0009192
2214.45	0.0008734
2226.02	0.0008868
2237.6	0.0009201
2249.17	0.0009207
2260.74	0.0009767
2272.32	0.0009752
2283.89	0.0009394
2295.47	0.0009475
2307.04	0.0009902
2318.61	0.0009793
2330.19	0.0009485
2341.76	0.0009057
2353.34	0.0008678
2364.91	0.00078002
2376.48	0.00083077
2388.06	0.0008334
2399.63	0.0008371
2411.21	0.000837
2422.78	0.00081002
2434.35	0.00080471
2445.93	0.00082243
2457.5	0.00077847
2469.08	0.00080429
2480.65	0.0008774
2492.22	0.0008922
2503.8	0.0009265
2515.37	0.0010304
2526.95	0.0010587
2538.52	0.0010318
2550.09	0.0010362
2561.67	0.001048
2573.24	0.0010308
2584.82	0.0011324
2596.39	0.0011588
2607.96	0.0012796
2619.54	0.0014632
2631.11	0.0016012
2642.69	0.001773
2654.26	0.001973
2665.83	0.002163
2677.41	0.002333
2688.98	0.002333
2700.56	0.002323
2712.13	0.002333
2723.7	0.002433
2735.28	0.002763
2746.85	0.003023
2758.43	0.003133
2770	0.003433
2781.57	0.004013
2793.15	0.004983
2804.72	0.006333
2816.3	0.008463
2827.87	0.012383
2839.44	0.019613
2851.02	0.037283
2862.59	0.067193
2874.17	0.060073
2885.74	0.050483
2897.31	0.052193
2908.89	0.072083
2920.46	0.115413
2932.04	0.171653
2943.61	0.145323
2955.18	0.092603
2966.76	0.079113
2978.33	0.069763
2989.91	0.054723
3001.48	0.035233
3013.05	0.044883
3024.63	0.031623
3036.2	0.012033
3047.78	0.006993
3059.35	0.005453
3070.92	0.004423
3082.5	0.003293
3094.07	0.002683
3105.65	0.002343
3117.22	0.002053
3128.79	0.001793
3140.37	0.0016883
3151.94	0.0015701
3163.52	0.0014261
3175.09	0.0013412
3186.66	0.0012509
3198.24	0.0010178
3209.81	0.0009002
3221.39	0.00079007
3232.96	0.0006338
3244.53	0.000477
3256.11	0.000439
3267.68	0.000367
3279.26	0.000363
3290.83	0.000367
3302.4	0.000304
3313.98	0.000311
3325.55	0.000222
3337.13	0.000245
3348.7	0.000197
3360.27	0.000236
3371.85	0.000258
3383.42	0.00024
3395	0.000293
3406.57	0.000318
3418.14	0.000316
3429.72	0.000242
3441.29	0.000325
3452.86	0.000475
3464.44	0.0008483
3476.01	0.0010516
3487.59	0.00077079
3499.16	0.000383
3510.73	0.000238
3522.31	0.000168
3533.88	0.000101
3545.46	3.1e-05
3557.03	0
3568.6	2.7e-05
3580.18	0.00011
3591.75	0.000114
3603.33	4.6e-05
3614.9	0.000103
3626.47	0.000174
3638.05	0.000205
3649.62	0.000137
3661.2	6e-05
3672.77	5.8e-05
3684.34	0.000165
3695.92	0.000126
3707.49	3.5e-05
3719.07	0.000107
3730.64	4.1e-05
3742.21	5.1e-05
3753.79	0.000161
3765.36	0.000156
3776.94	0.000214
3788.51	0.000205
3800.08	0.000114
3811.66	0.000156
3823.23	0.000202
3834.81	0.000154
3846.38	0.000156
3857.95	0.000146
3869.53	0.000143
3881.1	0.000211
3892.68	0.000211
3904.25	7.3e-05
3915.82	0.000148
3927.4	0.000203
3938.97	0.000295
3950.55	0.000312
3962.12	0.000182
3973.69	0.000214
3985.27	0.000311
3996.84	0.000339
