Infrared Spectrum: Phenathridine
Formula: C 13 H 9 N
CAS: 229-87-8
State: gas
Instrument: HP-GC/MS/IRD
Origin: NIST Mass Spectrometry Data Center
1/CM	ABSORBANCE
550	0.000476
562	0.0001876
574	0.0001316
586	0.0002548
598	0.000616
610	0.0019404
622	0.0014588
634	0.0002968
646	0.0002548
658	0.0003192
670	0.0003108
682	0.0003556
694	0.0006888
706	0.0021028
718	0.0057848
730	0.011242
742	0.028
754	0.0136836
766	0.004158
778	0.001358
790	0.0006356
802	0.0003556
814	0.0003108
826	0.000322
838	0.0002772
850	0.0004088
862	0.0008176
874	0.0019936
886	0.0033936
898	0.0015232
910	0.0005208
922	0.0012628
934	0.0012208
946	0.0013272
958	0.00203
970	0.0006384
982	0.0002268
994	0.0006244
1006	0.0010108
1018	0.0004116
1030	0.00147
1042	0.0010248
1054	8.96e-05
1066	2.8e-05
1078	1.68e-05
1090	5.6e-05
1102	7.56e-05
1114	7e-05
1126	0.000672
1138	0.0014
1150	0.0007224
1162	0.0003388
1174	0.0003276
1186	0.000644
1198	0.0006244
1210	0.000574
1222	0.001708
1234	0.0034776
1246	0.0017528
1258	0.0004564
1270	0.0006188
1282	0.0008148
1294	0.0006524
1306	0.0002912
1318	0.0004956
1330	0.0011844
1342	0.0008232
1354	0.0003416
1366	0.0003388
1378	0.0004704
1390	0.0006328
1402	0.0005236
1414	0.0005684
1426	0.0005432
1438	0.001568
1450	0.003164
1462	0.00252
1474	0.001652
1486	0.0031136
1498	0.0017948
1510	0.0009772
1522	0.0017472
1534	0.0013496
1546	0.0006776
1558	0.0008204
1570	0.0022456
1582	0.0035924
1594	0.0042028
1606	0.0034832
1618	0.0038948
1630	0.0015008
1642	0.0008176
1654	0.0003808
1666	0.0002828
1678	0.0004732
1690	0.00084
1702	0.000658
1714	0.0007
1726	0.0005236
1738	0.0003052
1750	0.0002464
1762	0.0004564
1774	0.000434
1786	0.0003556
1798	0.0005068
1810	0.0005936
1822	0.0008316
1834	0.0007056
1846	0.0008792
1858	0.000574
1870	0.0003892
1882	0.0004452
1894	0.0006412
1906	0.0007588
1918	0.0007252
1930	0.0006944
1942	0.001008
1954	0.0010192
1966	0.0002632
1978	0.0001512
1990	8.68e-05
2002	0.000112
2014	0.0001204
2026	0.000126
2038	0.000112
2050	0.0001316
2062	0.0001344
2074	0.0001288
2086	0.0001008
2098	0.0001008
2110	0.0001148
2122	0.0001092
2134	8.12e-05
2146	7.28e-05
2158	9.52e-05
2170	0.000112
2182	8.96e-05
2194	7.56e-05
2206	6.72e-05
2218	0.0001036
2230	0.000126
2242	0.0001148
2254	0.0001008
2266	0.0001288
2278	0.0001232
2290	0.0001596
2302	0.0002072
2314	0.0001932
2326	0.0002044
2338	0.000112
2350	0.0001232
2362	0.0001344
2374	0.0001092
2386	8.96e-05
2398	6.16e-05
2410	8.68e-05
2422	0.0001092
2434	9.24e-05
2446	0.0001036
2458	6.16e-05
2470	9.52e-05
2482	6.16e-05
2494	6.72e-05
2506	8.96e-05
2518	7e-05
2530	8.12e-05
2542	9.52e-05
2554	0.0001036
2566	8.68e-05
2578	7e-05
2590	7.28e-05
2602	0.0001008
2614	0.0001008
2626	7.84e-05
2638	6.16e-05
2650	8.12e-05
2662	3.64e-05
2674	9.24e-05
2686	7e-05
2698	7e-05
2710	4.48e-05
2722	1.68e-05
2734	4.2e-05
2746	2.8e-05
2758	5.6e-05
2770	1.68e-05
2782	0
2794	4.76e-05
2806	3.64e-05
2818	7.56e-05
2830	7.56e-05
2842	9.52e-05
2854	0.0001316
2866	0.0001232
2878	0.0001428
2890	0.0001988
2902	0.0002408
2914	0.0003024
2926	0.0004424
2938	0.0006916
2950	0.0011424
2962	0.0014364
2974	0.0011424
2986	0.001162
2998	0.0020244
3010	0.0033068
3022	0.0035672
3034	0.0037492
3046	0.0042224
3058	0.0056028
3070	0.0099988
3082	0.00938
3094	0.0043736
3106	0.0023884
3118	0.0010416
3130	0.0003584
3142	0.0002632
3154	0.0002548
3166	0.000252
3178	0.0002436
3190	0.000168
3202	0.0001288
3214	7.56e-05
3226	5.04e-05
3238	5.32e-05
3250	3.36e-05
3262	2.52e-05
3274	2.8e-05
3286	3.08e-05
3298	4.48e-05
3310	4.2e-05
3322	2.52e-05
3334	2.24e-05
3346	1.68e-05
3358	4.76e-05
3370	1.96e-05
3382	0
3394	4.48e-05
3406	1.96e-05
3418	6.44e-05
3430	1.68e-05
3442	5.04e-05
3454	5.88e-05
3466	5.88e-05
3478	8.4e-05
3490	3.64e-05
3502	7.84e-05
3514	6.44e-05
3526	5.04e-05
3538	5.04e-05
3550	8.68e-05
3562	7.56e-05
3574	7e-05
3586	5.88e-05
3598	7.56e-05
3610	4.2e-05
3622	5.04e-05
3634	5.04e-05
3646	8.4e-05
3658	7e-05
3670	4.2e-05
3682	9.24e-05
3694	7.28e-05
3706	7.84e-05
3718	5.88e-05
3730	6.16e-05
3742	2.24e-05
3754	5.32e-05
3766	7e-05
3778	6.44e-05
3790	7.56e-05
3802	5.6e-05
3814	8.12e-05
3826	4.76e-05
3838	3.64e-05
