Infrared Spectrum: 1,4-Di-isopropylcyclohexane
Formula: C 12 H 24
CAS: 22907-72-8
State: gas
Instrument: HP-GC/MS/IRD
Origin: NIST Mass Spectrometry Data Center
1/CM	ABSORBANCE
550	0.0001036
562	0.0001624
574	7.56e-05
586	3.92e-05
598	2.24e-05
610	0.0001008
622	0.000182
634	0.0001036
646	7.28e-05
658	5.32e-05
670	3.92e-05
682	9.52e-05
694	3.92e-05
706	8.4e-05
718	4.48e-05
730	4.2e-05
742	6.72e-05
754	5.32e-05
766	7.84e-05
778	8.68e-05
790	0.0001176
802	0.0001596
814	0.0001204
826	0.0001064
838	0.0001064
850	0.0001736
862	0.0002436
874	0.0002296
886	0.0002884
898	0.000364
910	0.0002744
922	0.0003192
934	0.0003444
946	0.0002744
958	0.000252
970	0.000154
982	0.0001792
994	0.0003108
1006	0.0006664
1018	0.0008428
1030	0.0006888
1042	0.000378
1054	0.0002352
1066	0.000266
1078	0.00042
1090	0.0004984
1102	0.0004256
1114	0.000308
1126	0.0002548
1138	0.0002716
1150	0.000406
1162	0.0006328
1174	0.0007308
1186	0.0004956
1198	0.0002576
1210	0.0002912
1222	0.0005684
1234	0.000448
1246	0.0002688
1258	0.0002884
1270	0.0004312
1282	0.0005208
1294	0.0005852
1306	0.0005768
1318	0.0006104
1330	0.0008428
1342	0.0007504
1354	0.0010164
1366	0.0022792
1378	0.003164
1390	0.0033544
1402	0.0011872
1414	0.0006748
1426	0.0007168
1438	0.0013412
1450	0.0029792
1462	0.0037884
1474	0.00308
1486	0.0013944
1498	0.0005964
1510	0.0003808
1522	0.0002716
1534	0.0001932
1546	0.0001568
1558	0.0001512
1570	0.0001176
1582	9.24e-05
1594	9.24e-05
1606	9.24e-05
1618	9.8e-05
1630	0.0001008
1642	0.0001344
1654	0.0001316
1666	0.0001092
1678	9.52e-05
1690	0.0001064
1702	0.0001092
1714	8.12e-05
1726	6.44e-05
1738	5.6e-05
1750	6.44e-05
1762	5.6e-05
1774	6.72e-05
1786	4.2e-05
1798	5.6e-05
1810	3.64e-05
1822	5.88e-05
1834	3.92e-05
1846	4.76e-05
1858	2.8e-05
1870	3.92e-05
1882	2.52e-05
1894	2.24e-05
1906	8.4e-06
1918	2.52e-05
1930	1.96e-05
1942	2.52e-05
1954	2.8e-05
1966	1.4e-05
1978	2.24e-05
1990	2.8e-06
2002	1.96e-05
2014	1.96e-05
2026	8.4e-06
2038	1.12e-05
2050	1.96e-05
2062	1.4e-05
2074	0
2086	1.96e-05
2098	2.52e-05
2110	3.64e-05
2122	2.52e-05
2134	3.36e-05
2146	2.52e-05
2158	1.12e-05
2170	3.36e-05
2182	2.52e-05
2194	5.32e-05
2206	4.2e-05
2218	3.92e-05
2230	5.6e-05
2242	5.04e-05
2254	5.88e-05
2266	3.36e-05
2278	5.32e-05
2290	6.16e-05
2302	6.44e-05
2314	5.6e-05
2326	5.88e-05
2338	7.56e-05
2350	6.72e-05
2362	8.96e-05
2374	0.0001092
2386	0.0001176
2398	0.0001036
2410	0.0001036
2422	0.0001008
2434	0.0001148
2446	9.52e-05
2458	8.12e-05
2470	0.0001008
2482	9.52e-05
2494	0.0001204
2506	0.0001316
2518	0.00014
2530	0.0001652
2542	0.0001736
2554	0.0001876
2566	0.0002128
2578	0.0002884
2590	0.0003444
2602	0.0003808
2614	0.0004256
2626	0.000448
2638	0.0004228
2650	0.0003892
2662	0.0004172
2674	0.0004536
2686	0.0004564
2698	0.000448
2710	0.0004788
2722	0.0005712
2734	0.000644
2746	0.0005824
2758	0.00056
2770	0.00063
2782	0.0006888
2794	0.000812
2806	0.001022
2818	0.0013608
2830	0.0019824
2842	0.0040348
2854	0.0094024
2866	0.013916
2878	0.0162148
2890	0.0130928
2902	0.0123816
2914	0.0171276
2926	0.0242704
2938	0.02772
2950	0.0245952
2962	0.028
2974	0.0199556
2986	0.008484
2998	0.0029372
3010	0.0016072
3022	0.0012376
3034	0.0009296
3046	0.0006636
3058	0.000588
3070	0.0005488
3082	0.0005376
3094	0.0005208
3106	0.0005096
3118	0.0004592
3130	0.0004676
3142	0.0004452
3154	0.0004368
3166	0.0003948
3178	0.0003808
3190	0.0003556
3202	0.0002968
3214	0.0002436
3226	0.0001624
3238	0.0001708
3250	0.000154
3262	0.0001372
3274	0.000154
3286	0.0001008
3298	0.0001288
3310	0.0001344
3322	0.0001232
3334	0.000112
3346	0.0001148
3358	0.0001176
3370	0.0001484
3382	0.0001288
3394	0.000112
3406	0.0001092
3418	0.0001176
3430	0.0001036
3442	0.0001036
3454	7.28e-05
3466	8.4e-05
3478	9.52e-05
3490	3.64e-05
3502	6.44e-05
3514	7.28e-05
3526	9.24e-05
3538	7.56e-05
3550	9.52e-05
3562	7e-05
3574	9.8e-05
3586	6.72e-05
3598	0.0001036
3610	0.0001036
3622	8.12e-05
3634	0.0001036
3646	0.0001204
3658	8.4e-05
3670	9.24e-05
3682	8.4e-05
3694	0.0001092
3706	0.0001204
3718	0.0001456
3730	0.0001036
3742	0.0001596
3754	0.0001176
3766	0.00014
3778	0.0001624
3790	0.0001372
3802	0.000182
3814	0.000168
3826	0.0001596
3838	0.0001512
