Infrared Spectrum: Benzenemethanamine, N-phenyl-, hydrochloride
Formula: C13 H14 Cl N
CAS: 2290-89-3
State: SOLID (KBr DISC, 0.8 and 0.2% WT.)
Class: COBLENTZ III
Instrument: PERKIN-ELMER 157
Sampling: TRANSMISSION
Resolution: 2
Origin: BRITISH PETROLEUM CO. LTD., ENGLAND
1/CM	TRANSMITTANCE
668	0.5886
677	0.3758
686	0.0383
695	0.0351
704	0.3969
713	0.8767
722	0.9632
731	0.9119
740	0.6792
749	0.163
758	0.0301
767	0.4954
776	0.6843
785	0.9407
794	0.9196
803	0.9899
812	0.9916
821	0.9974
830	0.9815
839	0.9578
848	0.9382
857	0.7962
866	0.9605
875	0.9364
884	0.9081
893	0.8581
902	0.6743
911	0.208
920	0.8121
929	0.7995
938	0.4369
947	0.7639
956	0.642
965	0.6102
974	0.3599
983	0.7245
992	0.7381
1001	0.6996
1010	0.6314
1019	0.681
1028	0.3579
1037	0.9425
1046	0.9567
1055	0.9364
1064	0.8674
1073	0.5154
1082	0.6184
1091	0.9137
1100	0.8594
1109	0.8798
1118	0.9134
1127	0.9143
1136	0.9131
1145	0.8941
1154	0.7755
1163	0.7578
1172	0.7808
1181	0.3795
1190	0.7069
1199	0.5278
1208	0.5372
1217	0.5404
1226	0.6895
1235	0.8332
1244	0.8321
1253	0.8059
1262	0.8045
1271	0.7574
1280	0.5249
1289	0.6735
1298	0.7363
1307	0.7341
1316	0.7057
1325	0.5954
1334	0.6455
1343	0.6147
1352	0.6762
1361	0.648
1370	0.6062
1379	0.457
1388	0.4461
1397	0.3956
1406	0.2869
1415	0.3823
1424	0.246
1433	0.1047
1442	0.1197
1451	0.115
1460	0.3781
1469	0.3206
1478	0.1035
1487	0.2415
1496	0.0723
1505	0.61
1514	0.7175
1523	0.7223
1532	0.7201
1541	0.7076
1550	0.6937
1559	0.5555
1568	0.4223
1577	0.1975
1586	0.2283
1595	0.2794
1604	0.2643
1613	0.6767
1622	0.7674
1631	0.7801
1640	0.7913
1649	0.7911
1658	0.7901
1667	0.7897
1676	0.7919
1685	0.7905
1694	0.792
1703	0.7958
1712	0.7997
1721	0.7921
1730	0.7535
1739	0.7377
1748	0.7454
1757	0.7633
1766	0.7735
1775	0.7728
1784	0.7621
1793	0.7487
1802	0.7508
1811	0.7646
1820	0.7656
1829	0.7895
1838	0.7954
1847	0.7901
1856	0.779
1865	0.7058
1874	0.6744
1883	0.6732
1892	0.6614
1901	0.6688
1910	0.6853
1919	0.6907
1928	0.6869
1937	0.6722
1946	0.6005
1955	0.5861
1964	0.5876
1973	0.542
1982	0.4745
1991	0.4616
2000	0.483
2009	0.5244
2018	0.6019
2027	0.645
2036	0.7069
2045	0.7263
2054	0.7283
2063	0.722
2072	0.7139
2081	0.7084
2090	0.6996
2099	0.6918
2108	0.6788
2117	0.6777
2126	0.6767
2135	0.6676
2144	0.6556
2153	0.6405
2162	0.6097
2171	0.5853
2180	0.5413
2189	0.5403
2198	0.5457
2207	0.5418
2216	0.5256
2225	0.5019
2234	0.477
2243	0.478
2252	0.4791
2261	0.473
2270	0.4609
2279	0.4352
2288	0.3882
2297	0.34
2306	0.273
2315	0.2301
2324	0.2093
2333	0.1736
2342	0.154
2351	0.1364
2360	0.1259
2369	0.1234
2378	0.1218
2387	0.0989
2396	0.0572
2405	0.0427
2414	0.0414
2423	0.0493
2432	0.0558
2441	0.0585
2450	0.058
2459	0.0546
2468	0.0388
2477	0.0268
2486	0.0255
2495	0.0246
2504	0.0239
2513	0.0236
2522	0.0235
2531	0.0233
2540	0.023
2549	0.0228
2558	0.0225
2567	0.0226
2576	0.0226
2585	0.0227
2594	0.0227
2603	0.0228
2612	0.0228
2621	0.0229
2630	0.023
2639	0.023
2648	0.0232
2657	0.0235
2666	0.0238
2675	0.024
2684	0.0243
2693	0.0245
2702	0.0247
2711	0.025
2720	0.0252
2729	0.0254
2738	0.0261
2747	0.027
2756	0.0286
2765	0.0303
2774	0.0321
2783	0.0334
2792	0.0347
2801	0.0351
2810	0.0352
2819	0.035
2828	0.0349
2837	0.0345
2846	0.0341
2855	0.0337
2864	0.0336
2873	0.0337
2882	0.0348
2891	0.0403
2900	0.0658
2909	0.081
2918	0.0932
2927	0.1029
2936	0.1364
2945	0.1585
2954	0.1804
2963	0.2023
2972	0.224
2981	0.2456
2990	0.2669
2999	0.2761
3008	0.2677
3017	0.2586
3026	0.2501
3035	0.2669
3044	0.3266
3053	0.4646
3062	0.482
3071	0.51
3080	0.5249
3089	0.5399
3098	0.5454
3107	0.5464
3116	0.5478
3125	0.5495
3134	0.5565
3143	0.5733
3152	0.5957
3161	0.6019
3170	0.605
3179	0.6067
3188	0.6077
3197	0.6077
3206	0.6081
3215	0.6075
3224	0.6073
3233	0.6068
3242	0.6059
3251	0.6048
3260	0.6024
3269	0.5993
3278	0.5955
3287	0.5915
3296	0.5874
3305	0.5829
3314	0.578
3323	0.573
3332	0.5682
3341	0.5633
3350	0.5584
3359	0.5536
3368	0.5495
3377	0.5454
3386	0.5422
3395	0.5392
3404	0.5361
3413	0.5329
3422	0.5299
3431	0.5274
3440	0.5257
3449	0.5248
3458	0.5242
3467	0.5242
3476	0.5242
3485	0.5242
3494	0.5246
3503	0.5251
3512	0.5263
3521	0.5276
3530	0.5298
3539	0.5328
3548	0.5376
3557	0.5413
3566	0.5443
3575	0.5467
3584	0.5475
3593	0.5479
3602	0.5482
3611	0.5485
3620	0.5485
3629	0.5485
3638	0.5485
3647	0.5483
3656	0.5482
3665	0.5482
3674	0.5478
3683	0.547
3692	0.5461
3701	0.5438
3710	0.5416
3719	0.5394
3728	0.538
3737	0.5368
3746	0.5358
3755	0.5352
3764	0.5344
3773	0.5338
3782	0.5323
3791	0.5294
3800	0.5258
3809	0.5213
3818	0.517
3827	0.5123
3836	0.5074
3845	0.5031
3854	0.4992
3863	0.4951
3872	0.4929
3881	0.4909
3890	0.4896
3899	0.4883
3908	0.4871
3917	0.4858
3926	0.4845
3935	0.4828
3944	0.481
3953	0.479
3962	0.4773
3971	0.4772
3980	0.477
3989	0.4768
3998	0.4767
