Infrared Spectrum: Trimethylsilyl isothiocyanate
Formula: C 4 H 9 N S Si
CAS: 2290-65-5
State: gas
Origin: EPA-IR VAPOR PHASE LIBRARY
1/CM	ABSORBANCE
549.8	0.003664
559.445	0.003934
569.09	0.003124
578.734	0.002214
588.379	0.0015674
598.024	0.001794
607.669	0.003914
617.313	0.019914
626.958	0.062774
636.603	0.072004
646.248	0.034494
655.893	0.015484
665.537	0.010454
675.182	0.009284
684.827	0.010504
694.472	0.014574
704.116	0.020474
713.761	0.024654
723.406	0.024284
733.051	0.021874
742.695	0.023434
752.34	0.034464
761.985	0.050414
771.63	0.055694
781.275	0.045404
790.919	0.034344
800.564	0.035474
810.209	0.054514
819.854	0.104614
829.498	0.198524
839.143	0.323154
848.788	0.384304
858.433	0.274774
868.078	0.149754
877.722	0.089014
887.367	0.063474
897.012	0.047764
906.657	0.034594
916.301	0.025274
925.946	0.021544
935.591	0.022424
945.236	0.026204
954.88	0.036604
964.525	0.054414
974.17	0.055884
983.815	0.035634
993.46	0.019884
1003.1	0.017234
1012.75	0.013304
1022.39	0.007084
1032.04	0.003334
1041.68	0.002684
1051.33	0.002474
1060.97	0.002604
1070.62	0.002034
1080.26	0.0010871
1089.91	0.0009515
1099.55	0.0009536
1109.2	0.0009724
1118.84	0.0013084
1128.49	0.0009076
1138.13	0.000489
1147.78	0.000416
1157.42	0.000389
1167.07	0.000475
1176.71	0.000419
1186.36	0.0009987
1196	0.0012188
1205.64	0.002714
1215.29	0.004254
1224.93	0.006844
1234.58	0.013184
1244.22	0.034304
1253.87	0.074244
1263.51	0.101294
1273.16	0.078324
1282.8	0.035204
1292.45	0.011504
1302.09	0.008264
1311.74	0.007474
1321.38	0.006954
1331.03	0.006314
1340.67	0.005294
1350.32	0.004134
1359.96	0.003284
1369.61	0.003124
1379.25	0.003384
1388.9	0.004244
1398.54	0.005454
1408.18	0.006224
1417.83	0.006074
1427.47	0.004844
1437.12	0.003844
1446.76	0.003604
1456.41	0.003784
1466.05	0.003504
1475.7	0.002904
1485.34	0.002224
1494.99	0.001894
1504.63	0.001684
1514.28	0.001774
1523.92	0.002094
1533.57	0.002264
1543.21	0.002374
1552.86	0.002204
1562.5	0.002064
1572.15	0.001914
1581.79	0.001874
1591.44	0.001864
1601.08	0.001694
1610.73	0.0016325
1620.37	0.0015292
1630.01	0.0014654
1639.66	0.001422
1649.3	0.0010949
1658.95	0.00070615
1668.59	0.0006539
1678.24	0.00055
1687.88	0.000545
1697.53	0.0006534
1707.17	0.0006203
1716.82	0.0006478
1726.46	0.000673703
1736.11	0.000675195
1745.75	0.000803
1755.4	0.0009567
1765.04	0.0011472
1774.69	0.0014089
1784.33	0.001694
1793.98	0.002174
1803.62	0.002874
1813.27	0.003604
1822.91	0.004374
1832.55	0.005174
1842.2	0.006094
1851.84	0.006894
1861.49	0.007704
1871.13	0.008874
1880.78	0.010744
1890.42	0.013824
1900.07	0.017734
1909.71	0.022714
1919.36	0.029664
1929	0.040824
1938.65	0.058644
1948.29	0.081044
1957.94	0.108344
1967.58	0.146234
1977.23	0.177804
1986.87	0.186534
1996.52	0.213074
2006.16	0.306164
2015.81	0.458574
2025.45	0.625084
2035.1	0.776234
2044.74	0.900044
2054.38	0.929744
2064.03	0.860124
2073.67	0.748734
2083.32	0.549294
2092.96	0.273034
2102.61	0.109934
2112.25	0.076464
2121.9	0.071714
2131.54	0.059054
2141.19	0.035784
2150.83	0.016554
2160.48	0.007724
2170.12	0.004654
2179.77	0.003284
2189.41	0.002864
2199.06	0.003164
2208.7	0.003104
2218.35	0.002294
2227.99	0.002084
2237.64	0.002294
2247.28	0.002744
2256.92	0.003264
2266.57	0.003674
2276.21	0.003864
2285.86	0.003884
2295.5	0.003714
2305.15	0.002834
2314.79	0.001964
2324.44	0.00148
2334.08	0.0010105
2343.73	0.0009937
2353.37	0.0008368
2363.02	0.0007612
2372.66	0.00073062
2382.31	0.000539
2391.95	0.000455
2401.6	0.000459
2411.24	0.0005924
2420.89	0.00067232
2430.53	0.0007804
2440.18	0.0011108
2449.82	0.0013858
2459.47	0.001844
2469.11	0.002604
2478.75	0.003194
2488.4	0.004484
2498.04	0.005954
2507.69	0.007754
2517.33	0.009194
2526.98	0.009474
2536.62	0.009134
2546.27	0.008814
2555.91	0.008214
2565.56	0.007914
2575.2	0.008954
2584.85	0.008504
2594.49	0.006424
2604.14	0.004734
2613.78	0.004294
2623.43	0.003994
2633.07	0.003194
2642.72	0.002264
2652.36	0.002084
2662.01	0.002174
2671.65	0.002374
2681.29	0.002504
2690.94	0.002304
2700.58	0.001924
2710.23	0.0014832
2719.87	0.0010476
2729.52	0.00070896
2739.16	0.0006175
2748.81	0.00077262
2758.45	0.000974
2768.1	0.0013005
2777.74	0.0015403
2787.39	0.001934
2797.03	0.002494
2806.68	0.002684
2816.32	0.002904
2825.97	0.003094
2835.61	0.003144
2845.26	0.003364
2854.9	0.003664
2864.55	0.003944
2874.19	0.004674
2883.84	0.005544
2893.48	0.007594
2903.12	0.011154
2912.77	0.012174
2922.41	0.009574
2932.06	0.007414
2941.7	0.008524
2951.35	0.017134
2960.99	0.041544
2970.64	0.053994
2980.28	0.036334
2989.93	0.016494
2999.57	0.008304
3009.22	0.006514
3018.86	0.005564
3028.51	0.005024
3038.15	0.005254
3047.8	0.005974
3057.44	0.006474
3067.09	0.006554
3076.73	0.006164
3086.38	0.005604
3096.02	0.005134
3105.67	0.004544
3115.31	0.003914
3124.95	0.003234
3134.6	0.002534
3144.24	0.001884
3153.89	0.001684
3163.53	0.0016448
3173.18	0.001724
3182.82	0.0011672
3192.47	0.0008242
3202.11	0.0006541
3211.76	0.0006657
3221.4	0.00066763
3231.05	0.0005971
3240.69	0.0007755
3250.34	0.00066552
3259.98	0.0005901
3269.63	0.000197
3279.27	0.000146
3288.92	0.000307
3298.56	0.000109
3308.21	0.000183
3317.85	7e-05
3327.49	0.000191
3337.14	0.000306
3346.78	0.000101
3356.43	7.6e-05
3366.07	0.000256
3375.72	0.000205
3385.36	0.000232
3395.01	0.000418
3404.65	0.000196
3414.3	0.00032
3423.94	0.000232
3433.59	0.000408
3443.23	0.00052
3452.88	0.000321
3462.52	0.000404
3472.17	0.000529
3481.81	0.000498
3491.46	0.000413
3501.1	0.000526
3510.75	0.0006082
3520.39	0.0010288
3530.04	0.0006398
3539.68	0.00073723
3549.32	0.0006376
3558.97	0.00076909
3568.61	0.0008417
3578.26	0.0011149
3587.9	0.0010161
3597.55	0.0010415
3607.19	0.0010714
3616.84	0.0011003
3626.48	0.0010785
3636.13	0.0011366
3645.77	0.0013567
3655.42	0.0015946
3665.06	0.001824
3674.71	0.001774
3684.35	0.0014926
3694	0.0012466
3703.64	0.0012188
3713.29	0.0015007
3722.93	0.001724
3732.58	0.001714
3742.22	0.001934
3751.86	0.002044
3761.51	0.001834
3771.15	0.0016708
3780.8	0.001674
3790.44	0.0015288
3800.09	0.001442
3809.73	0.0016053
3819.38	0.0015307
3829.02	0.001694
3838.67	0.0013147
3848.31	0.0011036
3857.96	0.0008337
3867.6	0.0009653
3877.25	0.0009529
3886.89	0.0009685
3896.54	0.0011261
3906.18	0.0010565
3915.83	0.0014149
3925.47	0.0013099
3935.12	0.0013466
3944.76	0.001744
3954.41	0.001473
3964.05	0.001884
3973.69	0.002084
3983.34	0.001934
3992.98	0.002424
