Infrared Spectrum: Methyl benzo[b]thiophene-2-carboxylate
Formula: C 10 H 8 O 2 S
CAS: 22913-24-2
State: gas
Origin: EPA-IR VAPOR PHASE LIBRARY
1/CM	ABSORBANCE
549.8	0.00401
559.445	0.00376
569.09	0.00442
578.735	0.00734
588.38	0.00524
598.025	0.0014281
607.67	0.0014469
617.315	0.0010651
626.96	0.000936
636.605	0.000914
646.251	0.000718
655.896	0.00119875
665.541	0.0016794
675.186	0.0020331
684.831	0.00308
694.476	0.00319
704.121	0.00586
713.766	0.0176
723.411	0.0346
733.056	0.03244
742.701	0.03318
752.346	0.03497
761.991	0.03701
771.636	0.02604
781.281	0.0175
790.926	0.00846
800.571	0.00377
810.216	0.00307
819.861	0.00249
829.507	0.00284
839.152	0.00406
848.797	0.00473
858.442	0.0095
868.087	0.0133
877.732	0.00769
887.377	0.00323
897.022	0.00282
906.667	0.00478
916.312	0.00856
925.957	0.01101
935.602	0.00946
945.247	0.0058
954.892	0.00463
964.537	0.0033
974.182	0.00231
983.827	0.00233
993.472	0.00297
1003.12	0.00707
1012.76	0.01115
1022.41	0.00618
1032.05	0.00888
1041.7	0.02138
1051.34	0.05433
1060.99	0.06902
1070.63	0.04442
1080.28	0.04415
1089.92	0.02164
1099.57	0.01249
1109.21	0.01333
1118.86	0.01076
1128.5	0.01445
1138.15	0.0159
1147.79	0.02548
1157.44	0.06472
1167.08	0.05748
1176.73	0.10435
1186.37	0.12922
1196.02	0.04601
1205.66	0.0306
1215.31	0.03939
1224.95	0.09006
1234.6	0.19217
1244.24	0.29296
1253.89	0.19569
1263.53	0.10922
1273.18	0.1461
1282.82	0.14876
1292.47	0.0727
1302.11	0.03208
1311.76	0.02847
1321.4	0.03063
1331.05	0.04009
1340.69	0.02247
1350.34	0.01299
1359.98	0.0097
1369.63	0.00821
1379.27	0.00789
1388.92	0.00722
1398.56	0.00603
1408.21	0.00744
1417.85	0.01141
1427.5	0.01933
1437.14	0.04283
1446.79	0.03447
1456.43	0.02264
1466.08	0.01763
1475.73	0.00946
1485.37	0.00846
1495.02	0.00991
1504.66	0.01826
1514.31	0.04428
1523.95	0.07077
1533.6	0.04129
1543.24	0.0147
1552.89	0.02027
1562.53	0.02541
1572.18	0.01406
1581.82	0.01
1591.47	0.01082
1601.11	0.00846
1610.76	0.00453
1620.4	0.00416
1630.05	0.00509
1639.69	0.00514
1649.34	0.00457
1658.98	0.00487
1668.63	0.0062
1678.27	0.00775
1687.92	0.00929
1697.56	0.01225
1707.21	0.01411
1716.85	0.0262
1726.5	0.08716
1736.14	0.24276
1745.79	0.23963
1755.43	0.079
1765.08	0.02076
1774.72	0.01072
1784.37	0.00956
1794.01	0.0101
1803.66	0.00856
1813.3	0.00613
1822.95	0.00479
1832.59	0.00513
1842.24	0.00624
1851.88	0.00504
1861.53	0.00339
1871.17	0.00354
1880.82	0.00255
1890.46	0.00248
1900.11	0.00335
1909.75	0.00316
1919.4	0.00235
1929.04	0.00324
1938.69	0.00351
1948.33	0.001843
1957.98	0.0015543
1967.62	0.0017416
1977.27	0.0020718
1986.91	0.00238
1996.56	0.00255
2006.2	0.00282
2015.85	0.00277
2025.49	0.00233
2035.14	0.0019505
2044.78	0.0017869
2054.43	0.0017294
2064.07	0.0016694
2073.72	0.0014296
2083.36	0.0014734
2093.01	0.0016904
2102.65	0.0018594
2112.3	0.0018102
2121.94	0.0015792
2131.59	0.0012941
2141.23	0.0013193
2150.88	0.0011094
2160.52	0.001057
2170.17	0.0011374
2179.81	0.0013377
2189.46	0.0016906
2199.1	0.0018663
2208.75	0.0017264
2218.39	0.0014533
2228.04	0.00115526
2237.68	0.00117884
2247.33	0.00120616
2256.97	0.0011798
2266.62	0.0011315
2276.26	0.0010643
2285.91	0.000921
2295.55	0.0010681
2305.2	0.0010955
2314.84	0.0010964
2324.49	0.001047
2334.13	0.0011309
2343.78	0.0010967
2353.42	0.001065
2363.07	0.0010886
2372.72	0.0011026
2382.36	0.00116522
2392.01	0.0010613
2401.65	0.001038
2411.3	0.000915
2420.94	0.00104
2430.59	0.001047
2440.23	0.00116585
2449.88	0.0011122
2459.52	0.00118619
2469.17	0.00101
2478.81	0.0010665
2488.46	0.00115899
2498.1	0.000928
2507.75	0.000896
2517.39	0.000878
2527.04	0.000803
2536.68	0.000733
2546.33	0.000782
2555.97	0.000838
2565.62	0.000912
2575.26	0.001008
2584.91	0.000986
2594.55	0.000991
2604.2	0.00118594
2613.84	0.001051
2623.49	0.001011
2633.13	0.001009
2642.78	0.0010661
2652.42	0.000995
2662.07	0.000951
2671.71	0.0010803
2681.36	0.0010719
2691	0.001017
2700.65	0.00104
2710.29	0.000874
2719.94	0.000802
2729.58	0.000796
2739.23	0.000867
2748.87	0.000965
2758.52	0.0013215
2768.16	0.0013775
2777.81	0.0014039
2787.45	0.001434
2797.1	0.0015425
2806.74	0.0015567
2816.39	0.001674
2826.03	0.0018561
2835.68	0.00305
2845.32	0.00649
2854.97	0.00622
2864.61	0.00315
2874.26	0.00259
2883.9	0.00311
2893.55	0.00454
2903.19	0.00592
2912.84	0.00671
2922.48	0.00627
2932.13	0.00599
2941.77	0.0082
2951.42	0.01923
2961.06	0.03961
2970.71	0.02296
2980.35	0.00824
2990	0.00791
2999.64	0.00972
3009.29	0.01025
3018.93	0.00986
3028.58	0.01053
3038.22	0.00989
3047.87	0.00917
3057.51	0.01517
3067.16	0.02402
3076.8	0.02527
3086.45	0.01535
3096.09	0.00676
3105.74	0.00462
3115.38	0.00264
3125.03	0.0021421
3134.67	0.0014895
3144.32	0.0011003
3153.96	0.000924
3163.61	0.001019
3173.25	0.000835
3182.9	0.000588
3192.54	0.000407
3202.19	0.000237
3211.83	0.000163
3221.48	0.00011
3231.12	0.0001
3240.77	0.000164
3250.41	0.00039
3260.06	0.00064
3269.7	0.000527
3279.35	0.000266
3289	0.000241
3298.64	0.000328
3308.29	0.00031
3317.93	4e-05
3327.58	0.000182
3337.22	0.00031
3346.87	8e-05
3356.51	0.000219
3366.16	0.000179
3375.8	9e-05
3385.45	0.000314
3395.09	0.00015
3404.74	0.000273
3414.38	0.00013
3424.03	0.000357
3433.67	0.000404
3443.32	0.000895
3452.96	0.0018596
3462.61	0.0021297
3472.25	0.0019467
3481.9	0.000888
3491.54	0.000441
3501.19	0.000297
3510.83	0.000228
3520.48	0.000231
3530.12	0.00012
3539.77	0.00018
3549.41	0.000437
3559.06	0.000409
3568.7	0.000304
3578.35	0.000204
3587.99	0.000196
3597.64	0.000307
3607.28	0.00023
3616.93	0.000211
3626.57	0.000249
3636.22	0.000302
3645.86	0.000395
3655.51	0.000364
3665.15	0.00026
3674.8	0.000433
3684.44	0.000303
3694.09	0.000402
3703.73	0.00034
3713.38	0.000356
3723.02	0.000337
3732.67	0.00033
3742.31	0.000371
3751.96	0.000458
3761.6	0.000554
3771.25	0.000543
3780.89	0.000627
3790.54	0.000536
3800.18	0.000437
3809.83	0.000459
3819.47	0.000487
3829.12	0.000495
3838.76	0.000491
3848.41	0.000457
3858.05	0.00045
3867.7	0.000482
3877.34	0.000479
3886.99	0.000485
3896.63	0.0005
3906.28	0.000741
3915.92	0.000991
3925.57	0.00097
3935.21	0.000795
3944.86	0.000759
3954.5	0.000538
3964.15	0.000505
3973.79	0.000586
3983.44	0.000738
3993.08	0.00056
