Infrared Spectrum: 3-BUTOXY-2,2-DIMETHYLCYCLOBUTANONE
Formula: C10 H18 O2
CAS: 2292-83-3
Boiling point: 75-78 C AT 6.5 mmHg
Class: COBLENTZ
Instrument: Not specified, most likely a prism, grating, or hybrid spectrometer.
Sampling: TRANSMISSION
Path length: SMEAR
Resolution: 4
Origin: TENNESSEE EASTMAN COMPANY, RESEARCH LABORATORIES
MICROMETERS	TRANSMITTANCE
2.02	0.96
2.06092	0.96
2.10184	0.964
2.14275	0.965
2.18367	0.965
2.22459	0.919
2.26551	0.885
2.30642	0.905
2.34734	0.914
2.38826	0.917
2.42918	0.914
2.47009	0.923
2.51101	0.94
2.55193	0.943
2.59285	0.945
2.63377	0.958
2.67468	0.958
2.7156	0.95
2.75652	0.905
2.79744	0.854
2.83835	0.941
2.87927	0.952
2.92019	0.955
2.96111	0.955
3.00203	0.955
3.04294	0.95
3.08386	0.94
3.12478	0.921
3.1657	0.914
3.20661	0.914
3.24753	0.882
3.28845	0.753
3.32937	0.056
3.37028	0.035
3.4112	0.08
3.45212	0.186
3.49304	0.596
3.53396	0.692
3.57487	0.747
3.61579	0.82
3.65671	0.834
3.69763	0.88
3.73854	0.892
3.77946	0.923
3.82038	0.933
3.8613	0.941
3.90221	0.953
3.94313	0.962
3.98405	0.958
4.02497	0.952
4.06589	0.969
4.1068	0.962
4.14772	0.96
4.18864	0.958
4.22956	0.923
4.27047	0.924
4.31139	0.929
4.35231	0.957
4.39323	0.962
4.43415	0.964
4.47506	0.964
4.51598	0.964
4.5569	0.962
4.59782	0.962
4.63873	0.95
4.67965	0.936
4.72057	0.945
4.76149	0.952
4.8024	0.955
4.84332	0.952
4.88424	0.952
4.92516	0.955
4.96608	0.953
5.00699	0.95
5.04791	0.953
5.08883	0.953
5.12975	0.921
5.17066	0.9
5.21158	0.916
5.2525	0.917
5.29342	0.89
5.33433	0.841
5.37525	0.8
5.41617	0.74
5.45709	0.56
5.49801	0.444
5.53892	0.105
5.57984	0.003
5.62076	0.182
5.66168	0.384
5.70259	0.47
5.74351	0.622
5.78443	0.719
5.82535	0.829
5.86627	0.861
5.90718	0.894
5.9481	0.899
5.98902	0.9
6.02994	0.905
6.07085	0.917
6.11177	0.923
6.15269	0.928
6.19361	0.938
6.23452	0.941
6.27544	0.948
6.31636	0.95
6.35728	0.948
6.3982	0.936
6.43911	0.938
6.48003	0.931
6.52095	0.921
6.56187	0.904
6.60278	0.875
6.6437	0.829
6.68462	0.705
6.72554	0.475
6.76646	0.201
6.80737	0.141
6.84829	0.338
6.88921	0.415
6.93013	0.57
6.97104	0.682
7.01196	0.697
7.05288	0.596
7.0938	0.57
7.13471	0.524
7.17563	0.353
7.21655	0.189
7.25747	0.335
7.29839	0.411
7.3393	0.352
7.38022	0.357
7.42114	0.213
7.46206	0.314
7.50297	0.505
7.54389	0.67
7.58481	0.723
7.62573	0.716
7.66664	0.673
7.70756	0.671
7.74848	0.588
7.7894	0.504
7.83032	0.464
7.87123	0.511
7.91215	0.596
7.95307	0.663
7.99399	0.699
8.0349	0.673
8.07582	0.598
8.11674	0.552
8.15766	0.598
8.19858	0.562
8.23949	0.388
8.28041	0.252
8.32133	0.338
8.36225	0.256
8.40316	0.208
8.44408	0.297
8.485	0.323
8.52592	0.237
8.56683	0.133
8.60775	0.083
8.64867	0.092
8.68959	0.126
8.73051	0.138
8.77142	0.109
8.81234	0.075
8.85326	0.051
8.89418	0.052
8.93509	0.092
8.97601	0.104
9.01693	0.099
9.05785	0.099
9.09876	0.128
9.13968	0.153
9.1806	0.184
9.22152	0.213
9.26244	0.218
9.30335	0.169
9.34427	0.095
9.38519	0.051
9.42611	0.082
9.46702	0.201
9.50794	0.316
9.54886	0.389
9.58978	0.447
9.6307	0.463
9.67161	0.446
9.71253	0.408
9.75345	0.403
9.79437	0.439
9.83528	0.468
9.8762	0.485
9.91712	0.5
9.95804	0.521
9.99895	0.565
10.0399	0.601
10.0808	0.603
10.1217	0.603
10.1626	0.613
10.2035	0.615
10.2445	0.6
10.2854	0.589
10.3263	0.548
10.3672	0.531
10.4081	0.581
10.449	0.634
10.49	0.68
10.5309	0.716
10.5718	0.741
10.6127	0.76
10.6536	0.769
10.6946	0.764
10.7355	0.719
10.7764	0.707
10.8173	0.779
10.8582	0.825
10.8991	0.844
10.9401	0.851
10.981	0.854
11.0219	0.847
11.0628	0.822
11.1037	0.837
11.1447	0.863
11.1856	0.873
11.2265	0.875
11.2674	0.863
11.3083	0.851
11.3492	0.839
11.3902	0.825
11.4311	0.808
11.472	0.793
11.5129	0.77
11.5538	0.762
11.5947	0.782
11.6357	0.789
11.6766	0.794
11.7175	0.8
11.7584	0.806
11.7993	0.82
11.8403	0.835
11.8812	0.851
11.9221	0.861
11.963	0.87
12.0039	0.878
12.0448	0.883
12.0858	0.883
12.1267	0.882
12.1676	0.88
12.2085	0.88
12.2494	0.882
12.2903	0.885
12.3313	0.883
12.3722	0.88
12.4131	0.875
12.454	0.875
12.4949	0.873
12.5359	0.873
12.5768	0.87
12.6177	0.866
12.6586	0.863
12.6995	0.861
12.7404	0.854
12.7814	0.852
12.8223	0.851
12.8632	0.839
12.9041	0.832
12.945	0.822
12.9859	0.817
13.0269	0.81
13.0678	0.808
13.1087	0.806
13.1496	0.806
13.1905	0.81
13.2315	0.813
13.2724	0.817
13.3133	0.818
13.3542	0.815
13.3951	0.8
13.436	0.782
13.477	0.77
13.5179	0.767
13.5588	0.781
13.5997	0.801
13.6406	0.817
13.6815	0.818
13.7225	0.82
13.7634	0.818
13.8043	0.805
13.8452	0.8
13.8861	0.798
13.9271	0.798
13.968	0.798
14.0089	0.796
14.0498	0.789
14.0907	0.788
14.1316	0.793
14.1726	0.796
14.2135	0.8
14.2544	0.801
14.2953	0.801
14.3362	0.801
14.3772	0.801
14.4181	0.798
14.459	0.796
14.4999	0.791
14.5408	0.786
14.5817	0.784
14.6227	0.777
14.6636	0.77
14.7045	0.767
14.7454	0.76
14.7863	0.753
14.8272	0.747
14.8682	0.74
14.9091	0.724
14.95	0.709
14.9909	0.697
15.0318	0.688
15.0728	0.68
15.1137	0.675
15.1546	0.666
15.1955	0.659
15.2364	0.654
15.2773	0.649
15.3183	0.644
15.3592	0.642
15.4001	0.642
15.441	0.642
15.4819	0.642
15.5228	0.642
15.5638	0.641
15.6047	0.642
15.6456	0.642
15.6865	0.641
15.7274	0.641
15.7684	0.641
15.8093	0.641
15.8502	0.641
15.8911	0.641
15.932	0.641
15.9729	0.639
