Infrared Spectrum: p-Tritylaniline
Formula: C 25 H 21 N
CAS: 22948-06-7
State: gas
Origin: EPA-IR VAPOR PHASE LIBRARY
1/CM	ABSORBANCE
549.8	0.0009786
559.445	0.0008069
569.09	0.001572
578.734	0.003952
588.379	0.003842
598.024	0.0011186
607.669	0.0011192
617.313	0.002002
626.958	0.004652
636.603	0.004232
646.248	0.003672
655.893	0.004602
665.537	0.004522
675.182	0.004182
684.827	0.005262
694.472	0.010802
704.116	0.016742
713.761	0.005972
723.406	0.003862
733.051	0.003582
742.695	0.007352
752.34	0.006662
761.985	0.004822
771.63	0.002522
781.275	0.001962
790.919	0.001692
800.564	0.002062
810.209	0.003662
819.854	0.005152
829.498	0.002302
839.143	0.001452
848.788	0.0012201
858.433	0.0009729
868.078	0.0011219
877.722	0.0010058
887.367	0.001502
897.012	0.0010027
906.657	0.0007884
916.301	0.0006498
925.946	0.0004037
935.591	0.0005467
945.236	0.0003868
954.88	0.000693
964.525	0.0005365
974.17	0.0009025
983.815	0.0006672
993.46	0.0007791
1003.1	0.0012252
1012.75	0.001402
1022.39	0.001352
1032.04	0.002902
1041.68	0.002062
1051.33	0.0006551
1060.97	0.0008272
1070.62	0.0006434
1080.26	0.001582
1089.91	0.0012228
1099.55	0.001342
1109.2	0.0010972
1118.84	0.0007661
1128.49	0.0005814
1138.13	0.0010024
1147.78	0.0010275
1157.42	0.0008493
1167.07	0.0010434
1176.71	0.001652
1186.36	0.005392
1196	0.004282
1205.64	0.000716
1215.29	0.0006311
1224.93	0.0008629
1234.58	0.0008052
1244.22	0.0011332
1253.87	0.001592
1263.51	0.003522
1273.16	0.007462
1282.8	0.007022
1292.45	0.002382
1302.09	0.0009923
1311.74	0.0007868
1321.38	0.0006836
1331.03	0.0007478
1340.67	0.0005961
1350.32	0.0005875
1359.96	0.0005245
1369.61	0.0004681
1379.25	0.0005333
1388.9	0.0005131
1398.54	0.0005123
1408.18	0.0005712
1417.83	0.0007296
1427.47	0.0010645
1437.12	0.002282
1446.76	0.003742
1456.41	0.001922
1466.05	0.001982
1475.7	0.002582
1485.34	0.005592
1494.99	0.009462
1504.63	0.010432
1514.28	0.013662
1523.92	0.003082
1533.57	0.001922
1543.21	0.001802
1552.86	0.001562
1562.5	0.001422
1572.15	0.001742
1581.79	0.002572
1591.44	0.003982
1601.08	0.005172
1610.73	0.005502
1620.37	0.010052
1630.01	0.009982
1639.66	0.003432
1649.3	0.001582
1658.95	0.0011467
1668.59	0.0009645
1678.24	0.0008788
1687.88	0.0007115
1697.53	0.0006916
1707.17	0.0006276
1716.82	0.0006096
1726.46	0.0005499
1736.11	0.0004569
1745.75	0.0004088
1755.4	0.0005924
1765.04	0.0006993
1774.69	0.0007577
1784.33	0.0005338
1793.98	0.0005571
1803.62	0.0010496
1813.27	0.0010713
1822.91	0.0006598
1832.55	0.0004625
1842.2	0.0004081
1851.84	0.0005372
1861.49	0.0006613
1871.13	0.0006738
1880.78	0.0005704
1890.42	0.0007689
1900.07	0.0009088
1909.71	0.00073
1919.36	0.0005523
1929	0.0005066
1938.65	0.000841
1948.29	0.0011266
1957.94	0.000884
1967.58	0.0004743
1977.23	0.000241429
1986.87	0.0003737
1996.52	0.00031795
2006.16	0.0003754
2015.81	0.00028594
2025.45	0.00035
2035.1	0.00030662
2044.74	0.0002715
2054.38	0.00030675
2064.03	0.000247426
2073.67	0.00025753
2083.32	0.0002224
2092.96	0.00023775
2102.61	0.00031395
2112.25	0.00026251
2121.9	0.0001937
2131.54	0.000203
2141.19	0.00032372
2150.83	0.0001955
2160.48	0.0001959
2170.12	0.000228
2179.77	0.000250122
2189.41	0.00027301
2199.06	0.00023477
2208.7	0.0001925
2218.35	0.0002115
2227.99	0.000243607
2237.64	0.0002925
2247.28	0.000241908
2256.92	0.0002177
2266.57	0.00025537
2276.21	0.000246059
2285.86	0.0002245
2295.5	0.0001695
2305.15	0.00031478
2314.79	0.0004291
2324.44	0.0003709
2334.08	0.00029687
2343.73	0.00033082
2353.37	0.0003631
2363.02	0.0002301
2372.66	0.0003618
2382.31	0.00028889
2391.95	0.0003096
2401.6	0.00023868
2411.24	0.0001926
2420.89	0.00030107
2430.53	0.00028777
2440.18	0.00033113
2449.82	0.00023936
2459.47	0.000245437
2469.11	0.0001994
2478.75	0.000181
2488.4	0.0001533
2498.04	0.0001803
2507.69	0.0002316
2517.33	0.00030801
2526.98	0.00027313
2536.62	0.000164
2546.27	0.00029896
2555.91	0.0003622
2565.56	0.00030643
2575.2	0.0002389
2584.85	0.00032151
2594.49	0.00030775
2604.14	0.00023588
2613.78	0.00027336
2623.43	0.00028455
2633.07	0.00025939
2642.72	0.000241037
2652.36	0.0002105
2662.01	0.000347
2671.65	0.0002031
2681.29	0.0002784
2690.94	0.0001569
2700.58	0.0002173
2710.23	0.00029117
2719.87	0.00027465
2729.52	0.000241218
2739.16	0.0002036
2748.81	0.00030996
2758.45	0.00025244
2768.1	0.0003561
2777.74	0.0004255
2787.39	0.0003228
2797.03	0.0002297
2806.68	0.00027028
2816.32	0.00023969
2825.97	0.00023272
2835.61	0.0003772
2845.26	0.00029882
2854.9	0.0003979
2864.55	0.00042
2874.19	0.0004758
2883.84	0.0004633
2893.48	0.0005045
2903.12	0.0003979
2912.77	0.0003437
2922.41	0.0004279
2932.06	0.0006616
2941.7	0.0005013
2951.35	0.0004526
2960.99	0.0003811
2970.64	0.0005906
2980.28	0.0007422
2989.93	0.0009045
2999.57	0.001552
3009.22	0.002392
3018.86	0.004132
3028.51	0.007152
3038.15	0.006712
3047.8	0.004282
3057.44	0.008032
3067.09	0.012192
3076.73	0.005892
3086.38	0.005002
3096.02	0.003752
3105.67	0.002002
3115.31	0.0011802
3124.95	0.0007334
3134.6	0.0005899
3144.24	0.0006021
3153.89	0.0006584
3163.53	0.0005029
3173.18	0.0002099
3182.82	0.0004064
3192.47	0.0004219
3202.11	0.0003515
3211.76	0.000481
3221.4	0.0002277
3231.05	0.00027392
3240.69	0.00032584
3250.34	0.0002185
3259.98	0.00026789
3269.63	0.000111
3279.27	0.0003578
3288.92	0.0001596
3298.56	0.00029336
3308.21	0.0002111
3317.85	0.0001991
3327.49	0.00023818
3337.14	0.000131
3346.78	0.0002076
3356.43	0.000243239
3366.07	0.000245425
3375.72	0.00032005
3385.36	0.0003445
3395.01	0.0007554
3404.65	0.001442
3414.3	0.001392
3423.94	0.0007315
3433.59	0.0003738
3443.23	0.0004448
3452.88	0.00032887
3462.52	0.00033805
3472.17	0.0005338
3481.81	0.0007317
3491.46	0.0007562
3501.1	0.0007506
3510.75	0.0005548
3520.39	0.0003718
3530.04	0.000135
3539.68	0.0003256
3549.32	9.2e-05
3558.97	6.9e-05
3568.61	0.00031146
3578.26	0.000385
3587.9	0.00029629
3597.55	0.0003499
3607.19	0.0003824
3616.84	0.00029055
3626.48	0.00030312
3636.13	1.4e-05
3645.77	0.00029728
3655.42	0.00027494
3665.06	0.0001976
3674.71	0.00033831
3684.35	0.000139
3694	0.0002116
3703.64	0.0003126
3713.29	0.000250503
3722.93	0.00031929
3732.58	0.00035
3742.22	0.00026275
3751.86	0.0001512
3761.51	0.0004432
3771.15	0.0001868
3780.8	0.00023865
3790.44	0.00029174
3800.09	0.0002055
3809.73	0.0001899
3819.38	0.0001433
3829.02	0.00030664
3838.67	0.0003184
3848.31	0.0001905
3857.96	0.0002037
3867.6	0.0004611
3877.25	0.00031858
3886.89	0.0003858
3896.54	0.0004034
3906.18	0.0003684
3915.83	0.00030615
3925.47	0.00027901
3935.12	0.0001914
3944.76	0.0002073
3954.41	3e-06
3964.05	0.0002044
3973.69	0.0001999
3983.34	0.000169
3992.98	0.00033568
