Infrared Spectrum: 3-Aminobenzenethiol
Formula: C 6 H 7 N S
CAS: 22948-02-3
State: gas
Instrument: HP-GC/MS/IRD
Origin: NIST Mass Spectrometry Data Center
1/CM	ABSORBANCE
550	0.0008046
562	0.0009252
574	0.0008784
586	0.0007992
598	0.0008496
610	0.0009126
622	0.001134
634	0.0017334
646	0.0031932
658	0.006498
670	0.0081702
682	0.0074376
694	0.004923
706	0.0029178
718	0.001962
730	0.0017928
742	0.0026424
754	0.0050562
766	0.0073134
778	0.0046368
790	0.002493
802	0.0017046
814	0.0015048
826	0.0017262
838	0.0020466
850	0.0025578
862	0.0025236
874	0.0032382
886	0.0032274
898	0.0015912
910	0.0010206
922	0.00099
934	0.000846
946	0.0006066
958	0.0006084
970	0.0006102
982	0.0009504
994	0.0012708
1006	0.0009306
1018	0.0004428
1030	0.0004266
1042	0.0004698
1054	0.0006804
1066	0.0013626
1078	0.0022482
1090	0.0021366
1102	0.0014976
1114	0.001017
1126	0.0005094
1138	0.0001818
1150	0.0003546
1162	0.0009342
1174	0.000792
1186	9.72e-05
1198	0
1210	2.7e-05
1222	0.0001044
1234	0.0005328
1246	0.0019458
1258	0.0037332
1270	0.0038916
1282	0.0027072
1294	0.002457
1306	0.0017658
1318	0.0013392
1330	0.0008658
1342	0.0002988
1354	0.0001674
1366	0.000171
1378	0.000342
1390	0.000567
1402	0.0009864
1414	0.001278
1426	0.0018342
1438	0.0026838
1450	0.0027864
1462	0.0030816
1474	0.0064512
1486	0.0070524
1498	0.0035892
1510	0.001953
1522	0.001845
1534	0.0015966
1546	0.0015588
1558	0.0023112
1570	0.0047196
1582	0.0120222
1594	0.018
1606	0.0138096
1618	0.0132084
1630	0.0109656
1642	0.0045252
1654	0.0019152
1666	0.0013518
1678	0.0012258
1690	0.0011322
1702	0.0009648
1714	0.0007956
1726	0.0006354
1738	0.0005058
1750	0.0004248
1762	0.000387
1774	0.0003852
1786	0.0004374
1798	0.0004698
1810	0.0005094
1822	0.0004824
1834	0.0004266
1846	0.0004248
1858	0.0004212
1870	0.0004176
1882	0.000459
1894	0.0005724
1906	0.000657
1918	0.0006246
1930	0.0005328
1942	0.0004536
1954	0.0004482
1966	0.000414
1978	0.000396
1990	0.0004068
2002	0.0004446
2014	0.0004212
2026	0.0004446
2038	0.0004716
2050	0.0004734
2062	0.0004608
2074	0.0004464
2086	0.0004248
2098	0.0004356
2110	0.00045
2122	0.0004698
2134	0.0004752
2146	0.0004968
2158	0.0004842
2170	0.000468
2182	0.00045
2194	0.000441
2206	0.0004176
2218	0.0004158
2230	0.000441
2242	0.0004356
2254	0.00045
2266	0.000459
2278	0.000486
2290	0.0004734
2302	0.000477
2314	0.0004824
2326	0.0005094
2338	0.0004986
2350	0.000486
2362	0.0005238
2374	0.000513
2386	0.0004896
2398	0.0004968
2410	0.0004788
2422	0.000477
2434	0.0004788
2446	0.0004446
2458	0.0004806
2470	0.0004968
2482	0.0005058
2494	0.0005166
2506	0.0005184
2518	0.0005328
2530	0.000567
2542	0.0005706
2554	0.0005904
2566	0.0005742
2578	0.0006246
2590	0.0006426
2602	0.000603
2614	0.000549
2626	0.0005004
2638	0.0005238
2650	0.0005706
2662	0.0005616
2674	0.000594
2686	0.0005904
2698	0.000585
2710	0.0005994
2722	0.0006102
2734	0.0006354
2746	0.0006156
2758	0.0005652
2770	0.0005688
2782	0.0005814
2794	0.0005508
2806	0.0005634
2818	0.000567
2830	0.0005724
2842	0.00063
2854	0.0006192
2866	0.0006156
2878	0.0006606
2890	0.0006102
2902	0.0005652
2914	0.0006012
2926	0.0005904
2938	0.0006102
2950	0.0005904
2962	0.0006066
2974	0.0006246
2986	0.0006948
2998	0.0009378
3010	0.001485
3022	0.0021384
3034	0.0025254
3046	0.002943
3058	0.0032382
3070	0.00279
3082	0.0021996
3094	0.0015912
3106	0.0010404
3118	0.0007092
3130	0.0005886
3142	0.0005526
3154	0.0005994
3166	0.000612
3178	0.0006174
3190	0.0006282
3202	0.0006966
3214	0.0007794
3226	0.0007308
3238	0.0007254
3250	0.0006264
3262	0.0006156
3274	0.000594
3286	0.00054
3298	0.0005472
3310	0.0005292
3322	0.0005418
3334	0.0005418
3346	0.0005166
3358	0.0005562
3370	0.0005652
3382	0.0007866
3394	0.0012438
3406	0.001854
3418	0.001944
3430	0.0015354
3442	0.000963
3454	0.0007146
3466	0.000864
3478	0.0011898
3490	0.0014958
3502	0.0014544
3514	0.001215
3526	0.0008424
3538	0.0006246
3550	0.0004968
3562	0.0004824
3574	0.0004716
3586	0.000459
3598	0.0004266
3610	0.0004932
3622	0.000477
3634	0.0005598
3646	0.0005058
3658	0.0004248
3670	0.0004968
3682	0.0004536
3694	0.000513
3706	0.0005238
3718	0.0005148
3730	0.0005706
3742	0.000576
3754	0.000558
3766	0.0005616
3778	0.0005688
3790	0.0005562
3802	0.0005382
3814	0.0005058
3826	0.000504
3838	0.0006696
