Infrared Spectrum: 1,1,1,2-Tetraphenylethane
Formula: C 26 H 22
CAS: 2294-94-2
State: gas
Instrument: HP-GC/MS/IRD
Origin: NIST Mass Spectrometry Data Center
1/CM	ABSORBANCE
550	0.0049879
562	0.0045539
574	0.0019189
586	0.0012865
598	0.002294
610	0.0097309
622	0.0015469
634	0.0009765
646	0.0011098
658	0.0016771
670	0.0034162
682	0.0055025
694	0.0263717
706	0.0151962
718	0.0040579
730	0.0050468
742	0.0142321
754	0.0030752
766	0.0013826
778	0.0009951
790	0.0007471
802	0.0007192
814	0.0004805
826	0.0003317
838	0.0002325
850	9.61e-05
862	9.92e-05
874	0.0002418
886	0.0002325
898	0.0005332
910	0.0008897
922	0.0006479
934	0.0002976
946	0.0002201
958	0.0002511
970	0.0003224
982	0.0004774
994	0.0005363
1006	0.0009517
1018	0.0010633
1030	0.003565
1042	0.0009765
1054	0.0004619
1066	0.001705
1078	0.0016771
1090	0.0003627
1102	0.0004092
1114	0.0003007
1126	0.0001488
1138	0.0001302
1150	0.0001612
1162	0.0001798
1174	0.0004371
1186	0.0006913
1198	0.0004588
1210	0.0005642
1222	0.0004154
1234	0.000403
1246	0.000186
1258	0.0001395
1270	0.0002511
1282	0.0003627
1294	0.0002821
1306	0.0002046
1318	0.0004123
1330	0.0005828
1342	0.0007781
1354	0.0004123
1366	0.0005394
1378	0.0006138
1390	0.0005642
1402	0.0005177
1414	0.0005735
1426	0.0007037
1438	0.0016182
1450	0.004185
1462	0.0014756
1474	0.0015376
1486	0.0045384
1498	0.0086087
1510	0.0021917
1522	0.0010478
1534	0.0007378
1546	0.0006572
1558	0.0007626
1570	0.0010757
1582	0.0025978
1594	0.004898
1606	0.0036673
1618	0.0009331
1630	0.0004433
1642	0.0004278
1654	0.0006727
1666	0.0004464
1678	0.000403
1690	0.0003348
1702	0.0005053
1714	0.0005921
1726	0.0004619
1738	0.000744
1750	0.0008122
1762	0.0005394
1774	0.000806
1786	0.0015407
1798	0.0012028
1810	0.0007006
1822	0.0004712
1834	0.000434
1846	0.0005952
1858	0.0006944
1870	0.0008897
1882	0.0007843
1894	0.0005177
1906	0.0003751
1918	0.0005704
1930	0.0012214
1942	0.0011346
1954	0.0010664
1966	0.0002945
1978	0.0002201
1990	0.0002263
2002	0.000155
2014	0.0001364
2026	0.0001209
2038	0.000124
2050	0.0001302
2062	0.0001023
2074	0.0001085
2086	0.0001085
2098	9.61e-05
2110	8.99e-05
2122	6.82e-05
2134	9.92e-05
2146	0.0001023
2158	9.3e-05
2170	9.3e-05
2182	0.0001364
2194	9.61e-05
2206	0.0001209
2218	0.0001147
2230	0.0001178
2242	8.99e-05
2254	0.0001364
2266	0.0001488
2278	0.0001767
2290	0.0002387
2302	0.000403
2314	0.0006975
2326	0.0007409
2338	0.0007719
2350	0.0005828
2362	0.0009114
2374	0.0006417
2386	0.0002294
2398	0.0001736
2410	0.0001984
2422	0.0001953
2434	0.0001643
2446	0.0001519
2458	0.0001333
2470	0.0001736
2482	0.0001364
2494	0.0001333
2506	0.0001426
2518	0.0001364
2530	0.0001612
2542	0.0001302
2554	0.0001457
2566	0.000155
2578	0.0002015
2590	0.0001798
2602	0.0001984
2614	0.0001705
2626	0.0001705
2638	0.0002077
2650	0.000155
2662	0.0001581
2674	0.0001395
2686	8.06e-05
2698	9.92e-05
2710	0.0001302
2722	9.3e-05
2734	0.000124
2746	0.0001271
2758	0.0001519
2770	0.0001891
2782	0.0002232
2794	0.0002077
2806	0.0002108
2818	0.000155
2830	0.0001612
2842	0.0002418
2854	0.0003751
2866	0.0003782
2878	0.0004805
2890	0.0006758
2902	0.0012059
2914	0.00248
2926	0.0017329
2938	0.0009052
2950	0.0006169
2962	0.0005611
2974	0.0005363
2986	0.0007223
2998	0.0013268
3010	0.0025885
3022	0.0070215
3034	0.0126449
3046	0.0071207
3058	0.0084816
3070	0.0168516
3082	0.0085653
3094	0.0062124
3106	0.0033046
3118	0.0015407
3130	0.0007285
3142	0.0005053
3154	0.0005146
3166	0.0004464
3178	0.0002666
3190	0.0002449
3202	0.0002294
3214	0.0002232
3226	0.0001674
3238	0.0002046
3250	0.0001519
3262	0.000186
3274	0.000155
3286	0.0001426
3298	0.000124
3310	0.0001488
3322	0.0001333
3334	0.0001519
3346	0.0001457
3358	0.0001147
3370	0.0001395
3382	0.0001147
3394	6.51e-05
3406	7.44e-05
3418	7.13e-05
3430	9.92e-05
3442	0.0001302
3454	0.0001178
3466	8.99e-05
3478	0.0001333
3490	0.0001333
3502	0.0002449
3514	0.0001364
3526	0.000248
3538	0.0001085
3550	0.0002108
3562	0.0002201
3574	7.44e-05
3586	0.0003813
3598	0.0001891
3610	0.0003441
3622	0.0002511
3634	0.000279
3646	0.0003007
3658	0.0001798
3670	0.0002728
3682	0.0001643
3694	0.0001922
3706	0.0001953
3718	0.0002294
3730	0.0002604
3742	0.0002852
3754	0.0001364
3766	8.06e-05
3778	3.1e-06
3790	9.61e-05
3802	6.82e-05
3814	5.27e-05
3826	2.17e-05
3838	0.0001612
