Infrared Spectrum: 9-Ethylfluorene
Formula: C 15 H 14
CAS: 2294-82-8
State: gas
Instrument: HP-GC/MS/IRD
Origin: NIST Mass Spectrometry Data Center
1/CM	ABSORBANCE
550	0.002343
562	0.0004331
574	0.0004615
586	0.0006035
598	0.0001349
610	0.0004828
622	0.0046789
634	0.0011928
646	0.001491
658	0.0026767
670	0.0009585
682	0.0005467
694	0.0005609
706	0.0012283
718	0.0075189
730	0.0510419
742	0.0564663
754	0.0192978
766	0.0057936
778	0.0010792
790	0.000426
802	0.0004828
814	0.0010011
826	0.0010366
838	0.0013561
850	0.0008307
862	0.0008449
874	0.0009372
886	0.0005041
898	0.0006816
910	0.0008804
922	0.0010224
934	0.0015336
946	0.0003124
958	8.52e-05
970	0.0002201
982	0.0005893
994	0.0020874
1006	0.0028542
1018	0.0024992
1030	0.0037488
1042	0.0013632
1054	0.0009514
1066	0.0007029
1078	0.000568
1090	0.0008733
1102	0.0020306
1114	0.0007952
1126	0.0001207
1138	0.0002485
1150	0.0018318
1162	0.0024069
1174	0.0022649
1186	0.0021087
1198	0.0013845
1210	0.0007384
1222	0.0010863
1234	0.0012283
1246	0.0010082
1258	0.001136
1270	0.0011147
1282	0.0020093
1294	0.0025134
1306	0.0021939
1318	0.0046576
1330	0.003124
1342	0.0023146
1354	0.0007881
1366	0.0010224
1378	0.0030459
1390	0.0041038
1402	0.0019738
1414	0.0022436
1426	0.0031808
1438	0.0093862
1450	0.0243672
1462	0.013987
1474	0.0092584
1486	0.0041961
1498	0.0013845
1510	0.0020022
1522	0.0013987
1534	0.000781
1546	0.0009443
1558	0.0012354
1570	0.0012922
1582	0.0026838
1594	0.0027051
1606	0.0027761
1618	0.0012212
1630	0.0005325
1642	0.0007739
1654	0.0011431
1666	0.0014413
1678	0.0011573
1690	0.0007384
1702	0.0011999
1714	0.001207
1726	0.0006745
1738	0.0008946
1750	0.0010792
1762	0.0006887
1774	0.0009727
1786	0.0014555
1798	0.0020732
1810	0.0011218
1822	0.0008946
1834	0.0013206
1846	0.0009159
1858	0.0010011
1870	0.0015833
1882	0.0006248
1894	0.0020093
1906	0.0023572
1918	0.0008023
1930	0.0018744
1942	0.0026909
1954	0.0004473
1966	0.000213
1978	0.0001633
1990	0.0001917
2002	6.39e-05
2014	9.23e-05
2026	5.68e-05
2038	0.0001065
2050	7.81e-05
2062	8.52e-05
2074	3.55e-05
2086	4.97e-05
2098	5.68e-05
2110	7.81e-05
2122	3.55e-05
2134	3.55e-05
2146	4.97e-05
2158	7.81e-05
2170	2.84e-05
2182	2.13e-05
2194	5.68e-05
2206	7.1e-05
2218	7.81e-05
2230	9.94e-05
2242	7.81e-05
2254	0.0001775
2266	0.0001562
2278	7.81e-05
2290	0.0001207
2302	0.000284
2314	0.0003053
2326	7.81e-05
2338	0
2350	4.26e-05
2362	0
2374	0
2386	0.0001491
2398	0.0001775
2410	0.0002485
2422	0.0002059
2434	0.0002272
2446	0.0002556
2458	0.0002272
2470	0.0002414
2482	0.0003195
2494	0.0003479
2506	0.0002414
2518	0.0002414
2530	0.0002556
2542	0.0002485
2554	0.0002272
2566	0.0001917
2578	0.0001988
2590	0.0002911
2602	0.0004047
2614	0.000426
2626	0.0004757
2638	0.0003621
2650	0.0003408
2662	0.0004473
2674	0.0004757
2686	0.0003621
2698	0.0002911
2710	0.0002982
2722	0.000355
2734	0.0004402
2746	0.0005609
2758	0.0005467
2770	0.0005538
2782	0.0007029
2794	0.0008662
2806	0.0010082
2818	0.0009727
2830	0.0011857
2842	0.0016614
2854	0.0031169
2866	0.0091448
2878	0.0175725
2890	0.0145479
2902	0.0076538
2914	0.0092513
2926	0.0206681
2938	0.0231602
2950	0.014839
2962	0.0154851
2974	0.0261493
2986	0.0130782
2998	0.0056516
3010	0.00852
3022	0.015833
3034	0.0152011
3046	0.0170471
3058	0.0208811
3070	0.0373673
3082	0.0211296
3094	0.0099968
3106	0.0035926
3118	0.0013987
3130	0.0011502
3142	0.0012638
3154	0.0013987
3166	0.0011999
3178	0.0005609
3190	0.0004615
3202	0.0003124
3214	0.000426
3226	0.0003053
3238	0.0002201
3250	0.0001136
3262	0.0001349
3274	0.0001349
3286	6.39e-05
3298	9.23e-05
3310	9.23e-05
3322	7.81e-05
3334	6.39e-05
3346	5.68e-05
3358	5.68e-05
3370	6.39e-05
3382	4.97e-05
3394	3.55e-05
3406	2.84e-05
3418	1.42e-05
3430	7.1e-06
3442	6.39e-05
3454	3.55e-05
3466	2.84e-05
3478	0.0001207
3490	4.26e-05
3502	0.0002982
3514	0.0001065
3526	0.0002698
3538	9.23e-05
3550	0.0002343
3562	0.0003195
3574	0.0001136
3586	0.0004686
3598	0.0002201
3610	0.0004402
3622	0.0002343
3634	0.0002556
3646	0.0004544
3658	0.0002201
3670	0.0003976
3682	0.000142
3694	0.0001988
3706	0.0002414
3718	0.000213
3730	0.0003621
3742	0.0004899
3754	0.0003763
3766	0.0002627
3778	0.000142
3790	0.0001988
3802	0.0003621
3814	0.0002485
3826	0.0002343
3838	0.0003692
