Infrared Spectrum: INDOLINE, 1-ACETYL-6-NITRO-
Formula: C10 H10 N2 O3
CAS: 22949-08-2
State: SOLID (SPLIT MULL)
Melting point: 154.5 C
Class: COBLENTZ III
Instrument: DOW KBr FOREPRISM-GRATING
Instrument parameters: BLAZED AT 3.5, 12.0, 20.0 MICRON AND CHANGED AT 5.0, 7.5, 14.9 MICRON
Sampling: TRANSMISSION
Resolution: 2
Origin: DOW CHEMICAL COMPANY
1/CM	TRANSMITTANCE
458	0.8718
467	0.8783
476	0.8921
485	0.897
494	0.8984
503	0.9011
512	0.871
521	0.7418
530	0.8816
539	0.8493
548	0.8586
557	0.8908
566	0.7958
575	0.9174
584	0.929
593	0.9025
602	0.8984
611	0.9225
620	0.9328
629	0.9213
638	0.564
647	0.9678
656	0.9716
665	0.9511
674	0.9192
683	0.9589
692	0.9621
701	0.9556
710	0.9157
719	0.8265
728	0.85
737	0.7896
746	0.3566
755	0.7832
764	0.9108
773	0.9195
782	0.9224
791	0.912
800	0.8749
809	0.6986
818	0.7264
827	0.8816
836	0.8552
845	0.8677
854	0.8512
863	0.8218
872	0.8725
881	0.774
890	0.4055
899	0.8442
908	0.869
917	0.8716
926	0.8684
935	0.8537
944	0.7867
953	0.851
962	0.8263
971	0.8325
980	0.839
989	0.7987
998	0.8453
1007	0.8277
1016	0.7871
1025	0.6826
1034	0.6595
1043	0.7478
1052	0.7598
1061	0.6924
1070	0.3809
1079	0.7678
1088	0.7615
1097	0.6795
1106	0.6077
1115	0.7778
1124	0.7025
1133	0.725
1142	0.7571
1151	0.7594
1160	0.7375
1169	0.6818
1178	0.7258
1187	0.7318
1196	0.7234
1205	0.6981
1214	0.6383
1223	0.5825
1232	0.6506
1241	0.5334
1250	0.5954
1259	0.5934
1268	0.5259
1277	0.4437
1286	0.4093
1295	0.4312
1304	0.3695
1313	0.2706
1322	0.108
1331	0.0869
1340	0.0859
1349	0.1072
1358	0.5071
1367	0.6003
1376	0.5307
1385	0.4224
1394	0.1874
1403	0.0904
1412	0.2334
1421	0.4541
1430	0.2647
1439	0.4501
1448	0.7365
1457	0.6988
1466	0.504
1475	0.287
1484	0.1357
1493	0.4868
1502	0.6587
1511	0.3437
1520	0.1355
1529	0.1118
1538	0.5607
1547	0.9784
1556	0.965
1565	0.9059
1574	0.8253
1583	0.6418
1592	0.5104
1601	0.7724
1610	0.8075
1619	0.8258
1628	0.7842
1637	0.7486
1646	0.6746
1655	0.4794
1664	0.2148
1673	0.3574
1682	0.8011
1691	0.9693
1700	0.9761
1709	0.9643
1718	0.9585
1727	0.9462
1736	0.9344
1745	0.9244
1754	0.9207
1763	0.9148
1772	0.8939
1781	0.8864
1790	0.9006
1799	0.8935
1808	0.8875
1817	0.8828
1826	0.8782
1835	0.8733
1844	0.8678
1853	0.8625
1862	0.8583
1871	0.8541
1880	0.8505
1889	0.8485
1898	0.8497
1907	0.8456
1916	0.8377
1925	0.8295
1934	0.8258
1943	0.8182
1952	0.8188
1961	0.8203
1970	0.8147
1979	0.8107
1988	0.8093
1997	0.8359
2006	0.8468
2015	0.8407
2024	0.8387
2033	0.8368
2042	0.8343
2051	0.8309
2060	0.8271
2069	0.8232
2078	0.8188
2087	0.8144
2096	0.8095
2105	0.804
2114	0.7986
2123	0.7932
2132	0.7876
2141	0.7821
2150	0.7769
2159	0.7718
2168	0.7665
2177	0.7614
2186	0.7561
2195	0.7508
2204	0.7454
2213	0.74
2222	0.7345
2231	0.7284
2240	0.7221
2249	0.7158
2258	0.7095
2267	0.7031
2276	0.6965
2285	0.6899
2294	0.6833
2303	0.6776
2312	0.6725
2321	0.6681
2330	0.6643
2339	0.6624
2348	0.661
2357	0.6614
2366	0.6618
2375	0.6622
2384	0.6625
2393	0.6574
2402	0.6511
2411	0.6489
2420	0.6499
2429	0.6517
2438	0.6521
2447	0.6528
2456	0.6518
2465	0.6506
2474	0.6491
2483	0.6475
2492	0.6455
2501	0.6431
2510	0.6408
2519	0.6377
2528	0.6347
2537	0.6315
2546	0.6281
2555	0.6246
2564	0.6212
2573	0.6178
2582	0.6146
2591	0.6112
2600	0.6082
2609	0.6051
2618	0.6015
2627	0.5979
2636	0.5944
2645	0.5908
2654	0.5873
2663	0.584
2672	0.5807
2681	0.5777
2690	0.5748
2699	0.5719
2708	0.5688
2717	0.5656
2726	0.5625
2735	0.5598
2744	0.5571
2753	0.5546
2762	0.5522
2771	0.5498
2780	0.547
2789	0.5431
2798	0.5369
2807	0.5298
2816	0.5204
2825	0.5101
2834	0.5037
2843	0.504
2852	0.5066
2861	0.5075
2870	0.5025
2879	0.4908
2888	0.4799
2897	0.47
2906	0.4657
2915	0.4671
2924	0.459
2933	0.4542
2942	0.4573
2951	0.4562
2960	0.4484
2969	0.4482
2978	0.4539
2987	0.4708
2996	0.4775
3005	0.4762
3014	0.4736
3023	0.4688
3032	0.4615
3041	0.451
3050	0.4505
3059	0.4693
3068	0.4654
3077	0.4578
3086	0.4504
3095	0.4344
3104	0.4371
3113	0.4632
3122	0.459
3131	0.4042
3140	0.3772
3149	0.4886
3158	0.4897
3167	0.4869
3176	0.4823
3185	0.4773
3194	0.4728
3203	0.4693
3212	0.4668
3221	0.4644
3230	0.462
3239	0.4595
3248	0.457
3257	0.4543
3266	0.4517
3275	0.4491
3284	0.4464
3293	0.4437
3302	0.441
3311	0.4383
3320	0.4355
3329	0.4327
3338	0.4299
3347	0.4274
3356	0.4254
3365	0.4233
3374	0.4212
3383	0.4193
3392	0.4177
3401	0.416
3410	0.4143
3419	0.4127
3428	0.4115
3437	0.4104
3446	0.4092
3455	0.4079
3464	0.4059
3473	0.4042
3482	0.4023
3491	0.4005
3500	0.3987
3509	0.3973
3518	0.3959
3527	0.3946
3536	0.3932
3545	0.3921
3554	0.3909
3563	0.3898
3572	0.3887
3581	0.3873
3590	0.3858
3599	0.3842
3608	0.3827
3617	0.3809
3626	0.3791
3635	0.3772
3644	0.3755
3653	0.3739
3662	0.3724
3671	0.3708
3680	0.3692
3689	0.3677
3698	0.3662
3707	0.3648
3716	0.3632
3725	0.3623
3734	0.3614
3743	0.3605
3752	0.3593
3761	0.3574
3770	0.3554
3779	0.3532
3788	0.3512
3797	0.3491
