Infrared Spectrum: 5-Undecyne
Formula: C 11 H 20
CAS: 2294-72-6
State: gas
Instrument: HP-GC/MS/IRD
Origin: NIST Mass Spectrometry Data Center
1/CM	ABSORBANCE
550	0.0004324
562	0.000138
574	7.82e-05
586	9.2e-05
598	0.000138
610	0.000138
622	0.00023
634	0.000184
646	0.0001426
658	0.0001472
670	0.0001472
682	0.0001702
694	0.0002944
706	0.0003818
718	0.000552
730	0.0007636
742	0.000874
754	0.000736
766	0.0005658
778	0.000483
790	0.0003818
802	0.000368
814	0.0002852
826	0.0001932
838	0.000207
850	0.0001978
862	0.0002254
874	0.0002852
886	0.000345
898	0.0003726
910	0.0003266
922	0.0003082
934	0.0003772
946	0.0003404
958	0.0004416
970	0.0005106
982	0.000506
994	0.0003726
1006	0.0002668
1018	0.0002484
1030	0.0001886
1042	0.0001426
1054	0.0002208
1066	0.0002484
1078	0.0002392
1090	0.0003956
1102	0.0005842
1114	0.0003956
1126	0.000184
1138	0.0002116
1150	0.0002162
1162	0.0002392
1174	0.000253
1186	0.0003312
1198	0.0004232
1210	0.0004324
1222	0.000437
1234	0.000483
1246	0.0007038
1258	0.0007314
1270	0.0007958
1282	0.001127
1294	0.0014674
1306	0.0017664
1318	0.002622
1330	0.0043746
1342	0.0033258
1354	0.0025806
1366	0.0021022
1378	0.0019504
1390	0.0017848
1402	0.0012052
1414	0.001196
1426	0.0019044
1438	0.0036662
1450	0.0043148
1462	0.0045034
1474	0.003335
1486	0.0017066
1498	0.0009338
1510	0.0006394
1522	0.0004554
1534	0.0003864
1546	0.0003174
1558	0.00023
1570	0.000207
1582	0.000207
1594	0.0001748
1606	0.000161
1618	0.0001656
1630	0.0001426
1642	0.000138
1654	0.000115
1666	0.0001288
1678	0.0001242
1690	0.0001242
1702	0.0001334
1714	9.2e-05
1726	7.36e-05
1738	6.44e-05
1750	5.06e-05
1762	8.28e-05
1774	5.98e-05
1786	4.14e-05
1798	4.6e-05
1810	4.6e-05
1822	5.06e-05
1834	5.52e-05
1846	5.98e-05
1858	5.98e-05
1870	3.68e-05
1882	1.38e-05
1894	2.3e-05
1906	2.3e-05
1918	1.38e-05
1930	0
1942	1.38e-05
1954	4.6e-06
1966	2.3e-05
1978	1.38e-05
1990	1.38e-05
2002	1.84e-05
2014	5.06e-05
2026	7.36e-05
2038	6.9e-05
2050	7.82e-05
2062	5.52e-05
2074	5.52e-05
2086	5.98e-05
2098	4.14e-05
2110	5.52e-05
2122	4.14e-05
2134	2.76e-05
2146	5.98e-05
2158	4.6e-05
2170	5.98e-05
2182	6.9e-05
2194	6.44e-05
2206	4.6e-05
2218	5.06e-05
2230	5.98e-05
2242	5.06e-05
2254	6.44e-05
2266	6.9e-05
2278	5.98e-05
2290	7.36e-05
2302	8.28e-05
2314	5.98e-05
2326	7.82e-05
2338	9.2e-05
2350	8.28e-05
2362	9.2e-05
2374	9.66e-05
2386	0.0001012
2398	0.0001104
2410	0.0001426
2422	0.0001426
2434	0.000115
2446	0.0001012
2458	0.000115
2470	0.0001242
2482	0.0001242
2494	0.0001242
2506	0.0001242
2518	0.0001702
2530	0.0001794
2542	0.0002162
2554	0.0002392
2566	0.0002944
2578	0.0003036
2590	0.0003174
2602	0.0002898
2614	0.0003082
2626	0.0003588
2638	0.0004508
2650	0.0005704
2662	0.0006118
2674	0.000621
2686	0.0005888
2698	0.0005428
2710	0.0005152
2722	0.000598
2734	0.0006992
2746	0.0008188
2758	0.000874
2770	0.000897
2782	0.0010626
2794	0.0012834
2806	0.0016192
2818	0.0021114
2830	0.0031326
2842	0.0055108
2854	0.010281
2866	0.0156814
2878	0.0165692
2890	0.0148948
2902	0.015134
2914	0.0220938
2926	0.035351
2938	0.046
2950	0.0356776
2962	0.0306912
2974	0.0247342
2986	0.0111274
2998	0.0055108
3010	0.0035006
3022	0.0025714
3034	0.0019504
3046	0.0015778
3058	0.0012742
3070	0.0010626
3082	0.0009522
3094	0.0008418
3106	0.0007544
3118	0.0006946
3130	0.0005934
3142	0.0005612
3154	0.0005014
3166	0.0004692
3178	0.0004968
3190	0.0004462
3202	0.0004048
3214	0.0002852
3226	0.0002714
3238	0.0002622
3250	0.0002346
3262	0.0002162
3274	0.0002162
3286	0.0001702
3298	0.0001564
3310	0.0001978
3322	0.0002162
3334	0.0002208
3346	0.000207
3358	0.000161
3370	0.0001886
3382	0.0001518
3394	0.0001702
3406	0.0001288
3418	0.0001426
3430	0.0001886
3442	0.0001656
3454	0.0001334
3466	0.000115
3478	0.0001426
3490	0.0001334
3502	0.0001012
3514	0.0001012
3526	5.52e-05
3538	9.66e-05
3550	6.9e-05
3562	7.36e-05
3574	9.2e-05
3586	0.0001104
3598	0.000115
3610	0.0001288
3622	6.9e-05
3634	0.000161
3646	0.0001104
3658	0.0001472
3670	0.0001334
3682	0.0001472
3694	0.0001518
3706	0.0001288
3718	0.0001564
3730	0.0001242
3742	0.0001012
3754	0.0001058
3766	8.28e-05
3778	0.0001426
3790	0.0001242
3802	0.0001518
3814	0.0001702
3826	0.000161
3838	0.000138
