Infrared Spectrum: OCTANAMINE, N-OCTYL-, HYDROCHLORIDE
Formula: C16 H36 Cl N
CAS: 2296-14-2
State: SOLID (KBr DISC, 0.8% WT.)
Class: COBLENTZ III
Instrument: PERKIN-ELMER 157
Sampling: TRANSMISSION
Resolution: 2
Origin: BRITISH PETROLEUM CO. LTD., ENGLAND
1/CM	TRANSMITTANCE
668	0.9621
677	0.9473
686	0.9213
695	0.8926
704	0.8517
713	0.7631
722	0.4902
731	0.6236
740	0.6514
749	0.6691
758	0.6342
767	0.6332
776	0.6757
785	0.6913
794	0.69
803	0.7011
812	0.7028
821	0.7048
830	0.6914
839	0.6738
848	0.6613
857	0.6714
866	0.6897
875	0.6849
884	0.6776
893	0.6725
902	0.6852
911	0.6898
920	0.691
929	0.6904
938	0.6905
947	0.6796
956	0.6672
965	0.6457
974	0.6298
983	0.6234
992	0.6273
1001	0.6177
1010	0.5904
1019	0.5728
1028	0.5511
1037	0.5349
1046	0.5274
1055	0.5378
1064	0.566
1073	0.572
1082	0.5927
1091	0.6224
1100	0.6244
1109	0.6062
1118	0.582
1127	0.6023
1136	0.5993
1145	0.6162
1154	0.6167
1163	0.617
1172	0.6168
1181	0.6179
1190	0.6124
1199	0.6043
1208	0.6044
1217	0.6025
1226	0.6005
1235	0.5945
1244	0.5869
1253	0.5716
1262	0.5685
1271	0.5679
1280	0.5566
1289	0.5476
1298	0.5378
1307	0.5268
1316	0.5264
1325	0.525
1334	0.501
1343	0.4721
1352	0.4838
1361	0.4839
1370	0.3935
1379	0.3382
1388	0.4305
1397	0.4162
1406	0.359
1415	0.3565
1424	0.3453
1433	0.2588
1442	0.2077
1451	0.1491
1460	0.1256
1469	0.1544
1478	0.2169
1487	0.3267
1496	0.3865
1505	0.4013
1514	0.4072
1523	0.4083
1532	0.4083
1541	0.4068
1550	0.3956
1559	0.3777
1568	0.3683
1577	0.3443
1586	0.3176
1595	0.3234
1604	0.364
1613	0.403
1622	0.4189
1631	0.4274
1640	0.4408
1649	0.4434
1658	0.4455
1667	0.4479
1676	0.4509
1685	0.4514
1694	0.4509
1703	0.4503
1712	0.4494
1721	0.4484
1730	0.4477
1739	0.4469
1748	0.4437
1757	0.4452
1766	0.4456
1775	0.4442
1784	0.4421
1793	0.4394
1802	0.4345
1811	0.43
1820	0.4278
1829	0.4273
1838	0.4269
1847	0.4271
1856	0.4272
1865	0.4273
1874	0.4275
1883	0.4278
1892	0.428
1901	0.4282
1910	0.4284
1919	0.4287
1928	0.4289
1937	0.4291
1946	0.4293
1955	0.4291
1964	0.4289
1973	0.4277
1982	0.4263
1991	0.4249
2000	0.423
2009	0.4212
2018	0.4195
2027	0.4182
2036	0.4167
2045	0.4154
2054	0.4145
2063	0.4135
2072	0.4125
2081	0.4113
2090	0.4102
2099	0.4092
2108	0.4083
2117	0.4074
2126	0.4066
2135	0.4056
2144	0.4048
2153	0.4039
2162	0.4028
2171	0.4018
2180	0.4008
2189	0.4
2198	0.399
2207	0.3972
2216	0.3954
2225	0.393
2234	0.3901
2243	0.3882
2252	0.3864
2261	0.3835
2270	0.3796
2279	0.3748
2288	0.37
2297	0.3676
2306	0.3662
2315	0.3608
2324	0.3399
2333	0.3245
2342	0.3103
2351	0.2967
2360	0.2837
2369	0.2654
2378	0.255
2387	0.2462
2396	0.2385
2405	0.231
2414	0.2283
2423	0.2276
2432	0.2278
2441	0.2283
2450	0.2277
2459	0.227
2468	0.2264
2477	0.2272
2486	0.2278
2495	0.2282
2504	0.2272
2513	0.225
2522	0.2207
2531	0.2159
2540	0.2146
2549	0.2141
2558	0.2153
2567	0.2167
2576	0.2154
2585	0.2106
2594	0.1945
2603	0.1802
2612	0.1708
2621	0.1618
2630	0.1529
2639	0.145
2648	0.1378
2657	0.1275
2666	0.1149
2675	0.1006
2684	0.0891
2693	0.0788
2702	0.0702
2711	0.0625
2720	0.0563
2729	0.0522
2738	0.0488
2747	0.0456
2756	0.0411
2765	0.0404
2774	0.0403
2783	0.0405
2792	0.0412
2801	0.0423
2810	0.0422
2819	0.0415
2828	0.0402
2837	0.0393
2846	0.039
2855	0.0393
2864	0.0396
2873	0.0344
2882	0.03
2891	0.0289
2900	0.0282
2909	0.0284
2918	0.0286
2927	0.0289
2936	0.0295
2945	0.0304
2954	0.0322
2963	0.0346
2972	0.0393
2981	0.0439
2990	0.049
2999	0.0552
3008	0.0611
3017	0.0665
3026	0.0719
3035	0.0759
3044	0.0797
3053	0.0837
3062	0.089
3071	0.0899
3080	0.0903
3089	0.0948
3098	0.1024
3107	0.1079
3116	0.1117
3125	0.1151
3134	0.117
3143	0.1188
3152	0.1202
3161	0.1212
3170	0.1223
3179	0.1233
3188	0.1241
3197	0.1246
3206	0.1251
3215	0.1256
3224	0.1261
3233	0.1263
3242	0.1263
3251	0.1264
3260	0.1264
3269	0.1265
3278	0.1265
3287	0.1265
3296	0.1265
3305	0.1264
3314	0.1264
3323	0.1264
3332	0.1263
3341	0.1263
3350	0.1263
3359	0.1262
3368	0.1262
3377	0.1262
3386	0.1262
3395	0.1262
3404	0.1262
3413	0.1261
3422	0.1261
3431	0.1261
3440	0.1261
3449	0.1261
3458	0.1261
3467	0.1261
3476	0.1261
3485	0.126
3494	0.126
3503	0.126
3512	0.1259
3521	0.1259
3530	0.1259
3539	0.1258
3548	0.1258
3557	0.1258
3566	0.1258
3575	0.1257
3584	0.1257
3593	0.1257
3602	0.1256
3611	0.1255
3620	0.1254
3629	0.1253
3638	0.1252
3647	0.1251
3656	0.125
3665	0.1249
3674	0.1248
3683	0.1246
3692	0.1246
3701	0.1244
3710	0.1243
3719	0.1242
3728	0.1236
3737	0.1229
3746	0.1222
3755	0.1216
3764	0.1209
3773	0.1199
3782	0.1184
3791	0.117
3800	0.116
3809	0.1154
3818	0.1148
3827	0.1144
3836	0.1142
3845	0.114
3854	0.1137
3863	0.1135
3872	0.1133
3881	0.1129
3890	0.1126
3899	0.1123
3908	0.1119
3917	0.1116
3926	0.1112
3935	0.1108
3944	0.1104
3953	0.11
3962	0.1096
3971	0.1092
3980	0.1088
3989	0.1085
3998	0.108
