Infrared Spectrum: HEXANAMINE, N-HEXYL-, HYDROCHLORIDE
Formula: C12 H28 Cl N
CAS: 2296-13-1
State: SOLID (KBr DISC, 0.8% WT.)
Class: COBLENTZ III
Instrument: PERKIN-ELMER 157
Sampling: TRANSMISSION
Resolution: 2
Origin: BRITISH PETROLEUM CO. LTD., ENGLAND
1/CM	TRANSMITTANCE
667	0.8615
676	0.8508
685	0.8175
694	0.803
703	0.7767
712	0.7394
721	0.5862
730	0.4508
739	0.5559
748	0.5728
757	0.5761
766	0.5588
775	0.5852
784	0.5827
793	0.5222
802	0.5425
811	0.5728
820	0.6022
829	0.6171
838	0.6057
847	0.5845
856	0.5761
865	0.5819
874	0.595
883	0.5837
892	0.5606
901	0.5825
910	0.565
919	0.575
928	0.5725
937	0.56
946	0.5675
955	0.5759
964	0.5683
973	0.5692
982	0.5551
991	0.516
1000	0.481
1009	0.4774
1018	0.4685
1027	0.4419
1036	0.4415
1045	0.4337
1054	0.4179
1063	0.4604
1072	0.502
1081	0.5194
1090	0.5439
1099	0.5411
1108	0.5067
1117	0.5062
1126	0.534
1135	0.5135
1144	0.5136
1153	0.5332
1162	0.5362
1171	0.5486
1180	0.5517
1189	0.5534
1198	0.5498
1207	0.5463
1216	0.5384
1225	0.5367
1234	0.5294
1243	0.5291
1252	0.5277
1261	0.5197
1270	0.4885
1279	0.4822
1288	0.4806
1297	0.4783
1306	0.4651
1315	0.4501
1324	0.4487
1333	0.4432
1342	0.4138
1351	0.4195
1360	0.4244
1369	0.3979
1378	0.2556
1387	0.3364
1396	0.3449
1405	0.3132
1414	0.2804
1423	0.2848
1432	0.2074
1441	0.1631
1450	0.1187
1459	0.1008
1468	0.0997
1477	0.1627
1486	0.2199
1495	0.3018
1504	0.3357
1513	0.3504
1522	0.351
1531	0.3506
1540	0.3488
1549	0.343
1558	0.3333
1567	0.3208
1576	0.2969
1585	0.2636
1594	0.254
1603	0.284
1612	0.3267
1621	0.3694
1630	0.3874
1639	0.4008
1648	0.4044
1657	0.4058
1666	0.407
1675	0.4183
1684	0.4195
1693	0.4203
1702	0.4212
1711	0.4221
1720	0.4228
1729	0.4235
1738	0.4239
1747	0.4242
1756	0.4244
1765	0.4243
1774	0.4239
1783	0.4231
1792	0.4223
1801	0.4206
1810	0.4185
1819	0.4157
1828	0.4131
1837	0.4131
1846	0.4136
1855	0.4149
1864	0.4161
1873	0.4181
1882	0.4204
1891	0.4219
1900	0.4229
1909	0.4234
1918	0.4241
1927	0.4244
1936	0.4249
1945	0.4251
1954	0.4252
1963	0.425
1972	0.4245
1981	0.4244
1990	0.4254
1999	0.4312
2008	0.4295
2017	0.4262
2026	0.4254
2035	0.4251
2044	0.4248
2053	0.4245
2062	0.4242
2071	0.4236
2080	0.423
2089	0.4225
2098	0.422
2107	0.4215
2116	0.4211
2125	0.4207
2134	0.4202
2143	0.4198
2152	0.4193
2161	0.4186
2170	0.4181
2179	0.4175
2188	0.417
2197	0.4167
2206	0.4164
2215	0.416
2224	0.4147
2233	0.4133
2242	0.4119
2251	0.4094
2260	0.4078
2269	0.4078
2278	0.4076
2287	0.4073
2296	0.3974
2305	0.396
2314	0.387
2323	0.3707
2332	0.3494
2341	0.3364
2350	0.3216
2359	0.3071
2368	0.2926
2377	0.2783
2386	0.2641
2395	0.2499
2404	0.2359
2413	0.2219
2422	0.2025
2431	0.1917
2440	0.1944
2449	0.2139
2458	0.2332
2467	0.2426
2476	0.2418
2485	0.2371
2494	0.2164
2503	0.2072
2512	0.2045
2521	0.2049
2530	0.2071
2539	0.2106
2548	0.2118
2557	0.2117
2566	0.2112
2575	0.2092
2584	0.1947
2593	0.1792
2602	0.1717
2611	0.1644
2620	0.1572
2629	0.1466
2638	0.1359
2647	0.1255
2656	0.1104
2665	0.0992
2674	0.0836
2683	0.0724
2692	0.0622
2701	0.0543
2710	0.0493
2719	0.0466
2728	0.0447
2737	0.0432
2746	0.0423
2755	0.0418
2764	0.0415
2773	0.0412
2782	0.041
2791	0.0411
2800	0.0412
2809	0.0419
2818	0.0418
2827	0.0403
2836	0.0379
2845	0.0372
2854	0.0377
2863	0.0393
2872	0.0404
2881	0.0373
2890	0.0305
2899	0.029
2908	0.0283
2917	0.028
2926	0.0284
2935	0.0291
2944	0.0301
2953	0.0314
2962	0.0333
2971	0.0356
2980	0.0378
2989	0.0412
2998	0.0445
3007	0.0481
3016	0.0584
3025	0.0634
3034	0.066
3043	0.076
3052	0.0845
3061	0.0969
3070	0.0998
3079	0.1014
3088	0.1055
3097	0.1145
3106	0.1175
3115	0.119
3124	0.1197
3133	0.1204
3142	0.1208
3151	0.1254
3160	0.1305
3169	0.1319
3178	0.1345
3187	0.142
3196	0.147
3205	0.1486
3214	0.1493
3223	0.1499
3232	0.1502
3241	0.1507
3250	0.151
3259	0.1513
3268	0.1516
3277	0.1519
3286	0.1521
3295	0.1523
3304	0.1524
3313	0.1519
3322	0.1514
3331	0.1511
3340	0.1509
3349	0.151
3358	0.1512
3367	0.1514
3376	0.1516
3385	0.152
3394	0.1525
3403	0.1529
3412	0.1533
3421	0.1537
3430	0.154
3439	0.1543
3448	0.1544
3457	0.1547
3466	0.155
3475	0.1552
3484	0.1554
3493	0.1556
3502	0.1558
3511	0.1559
3520	0.1561
3529	0.1562
3538	0.1563
3547	0.1564
3556	0.1565
3565	0.1566
3574	0.1567
3583	0.1568
3592	0.1568
3601	0.1568
3610	0.1565
3619	0.156
3628	0.1557
3637	0.1552
3646	0.1548
3655	0.1544
3664	0.1533
3673	0.1523
3682	0.1516
3691	0.1512
3700	0.151
3709	0.1509
3718	0.1507
3727	0.1505
3736	0.1505
3745	0.1503
3754	0.1502
3763	0.1501
3772	0.15
3781	0.15
3790	0.1501
3799	0.1501
3808	0.1501
3817	0.1501
3826	0.1501
3835	0.1501
3844	0.1501
3853	0.15
3862	0.15
3871	0.1499
3880	0.1498
3889	0.1497
3898	0.1496
3907	0.1494
3916	0.1493
3925	0.1492
3934	0.1491
3943	0.149
3952	0.1488
3961	0.1488
3970	0.1486
3979	0.1485
3988	0.1483
3997	0.1483
