Infrared Spectrum: Benzamide, 2-chloro-N-cyanomethyl-N-(2-ethoxyethyl)-4-nitro-
Formula: C13 H14 Cl N3 O4
CAS: 22978-00-3
State: SOLUTION (7% CHCl3) VS SOLVENT
Melting point: 68 C
Class: COBLENTZ III
Instrument: PERKIN-ELMER 421 (GRATING)
Instrument parameters: GRATINGS: 1999 CM^-^1
Sampling: TRANSMISSION
Path length: 0.01 CM
Resolution: 2
Origin: ABBOTT LABORATORIES - WASHBURN
1/CM	TRANSMITTANCE
650	0.91
659	0.9115
668	0.9103
677	0.8944
686	0.88
695	0.8669
704	0.8533
713	0.8438
722	0.8391
731	0.8397
740	0.8404
749	0.841
758	0.8417
767	0.8418
776	0.8419
785	0.8417
794	0.8395
803	0.8087
812	0.7699
821	0.7091
830	0.6064
839	0.6811
848	0.7039
857	0.6866
866	0.6938
875	0.6873
884	0.5351
893	0.5394
902	0.7033
911	0.7341
920	0.7818
929	0.7982
938	0.7954
947	0.7835
956	0.756
965	0.6901
974	0.6788
983	0.6701
992	0.7123
1001	0.7261
1010	0.6767
1019	0.6021
1028	0.5485
1037	0.5423
1046	0.5952
1055	0.62
1064	0.5376
1073	0.4838
1082	0.5032
1091	0.4567
1100	0.3005
1109	0.2032
1118	0.1966
1127	0.3842
1136	0.535
1145	0.5859
1154	0.6072
1163	0.6715
1172	0.6956
1181	0.6579
1190	0.5693
1199	0.4861
1208	0.4763
1217	0.4836
1226	0.4856
1235	0.4847
1244	0.5599
1253	0.5839
1262	0.5364
1271	0.4368
1280	0.4028
1289	0.4348
1298	0.4545
1307	0.5942
1316	0.5985
1325	0.5326
1334	0.2927
1343	0.1007
1352	0.1531
1361	0.4191
1370	0.4605
1379	0.4857
1388	0.5299
1397	0.4761
1406	0.3971
1415	0.3778
1424	0.3881
1433	0.4626
1442	0.4107
1451	0.466
1460	0.5494
1469	0.531
1478	0.5017
1487	0.6371
1496	0.5947
1505	0.4197
1514	0.1885
1523	0.1433
1532	0.2513
1541	0.5312
1550	0.6913
1559	0.6947
1568	0.6809
1577	0.6174
1586	0.5611
1595	0.6041
1604	0.6859
1613	0.6585
1622	0.6216
1631	0.408
1640	0.16
1649	0.0818
1658	0.0852
1667	0.2868
1676	0.5585
1685	0.6289
1694	0.7308
1703	0.7643
1712	0.7889
1721	0.812
1730	0.8249
1739	0.8286
1748	0.8309
1757	0.8329
1766	0.8334
1775	0.8322
1784	0.8352
1793	0.8424
1802	0.845
1811	0.8468
1820	0.8482
1829	0.8476
1838	0.8463
1847	0.8517
1856	0.851
1865	0.85
1874	0.8486
1883	0.8472
1892	0.8451
1901	0.8401
1910	0.837
1919	0.8399
1928	0.8438
1937	0.846
1946	0.8481
1955	0.8497
1964	0.8511
1973	0.8514
1982	0.8449
1991	0.8321
2000	0.8544
2009	0.853
2018	0.8536
2027	0.8535
2036	0.8524
2045	0.8517
2054	0.851
2063	0.8501
2072	0.8493
2081	0.849
2090	0.8493
2099	0.8488
2108	0.8485
2117	0.8477
2126	0.8469
2135	0.8463
2144	0.8459
2153	0.8456
2162	0.8456
2171	0.8464
2180	0.8476
2189	0.8471
2198	0.849
2207	0.8501
2216	0.8495
2225	0.8479
2234	0.8454
2243	0.8457
2252	0.8463
2261	0.8472
2270	0.8487
2279	0.8529
2288	0.8596
2297	0.8619
2306	0.8652
2315	0.8693
2324	0.873
2333	0.8733
2342	0.873
2351	0.872
2360	0.8716
2369	0.8724
2378	0.8746
2387	0.8771
2396	0.8662
2405	0.8522
2414	0.8454
2423	0.8424
2432	0.8406
2441	0.839
2450	0.8376
2459	0.8374
2468	0.8372
2477	0.8383
2486	0.836
2495	0.8348
2504	0.8368
2513	0.838
2522	0.8389
2531	0.8398
2540	0.8409
2549	0.842
2558	0.8415
2567	0.8409
2576	0.8406
2585	0.843
2594	0.8441
2603	0.8434
2612	0.8445
2621	0.8455
2630	0.8454
2639	0.8439
2648	0.8434
2657	0.8436
2666	0.8411
2675	0.8368
2684	0.832
2693	0.8286
2702	0.8278
2711	0.828
2720	0.8279
2729	0.8284
2738	0.8302
2747	0.8314
2756	0.8275
2765	0.8214
2774	0.8109
2783	0.8023
2792	0.7849
2801	0.7756
2810	0.7849
2819	0.7857
2828	0.7745
2837	0.7358
2846	0.6756
2855	0.585
2864	0.525
2873	0.5191
2882	0.5369
2891	0.6167
2900	0.6863
2909	0.7348
2918	0.7112
2927	0.6786
2936	0.6875
2945	0.7226
2954	0.7264
2963	0.6339
2972	0.5244
2981	0.5552
2990	0.6513
2999	0.6624
3008	0.7107
3017	0.7211
3026	0.7295
3035	0.7882
3044	0.8119
3053	0.8139
3062	0.8105
3071	0.8013
3080	0.7777
3089	0.7415
3098	0.7256
3107	0.7992
3116	0.8363
3125	0.8456
3134	0.8502
3143	0.8517
3152	0.8525
3161	0.8539
3170	0.8552
3179	0.8564
3188	0.8577
3197	0.859
3206	0.8602
3215	0.8605
3224	0.8609
3233	0.8614
3242	0.8621
3251	0.8601
3260	0.859
3269	0.8591
3278	0.8569
3287	0.8548
3296	0.8559
3305	0.8565
3314	0.8575
3323	0.8585
3332	0.8594
3341	0.8597
3350	0.8597
3359	0.8588
3368	0.8565
3377	0.8541
3386	0.8513
3395	0.8481
3404	0.8431
3413	0.838
3422	0.8353
3431	0.8381
3440	0.8513
3449	0.8597
3458	0.8604
3467	0.8612
3476	0.8616
3485	0.8619
3494	0.8621
3503	0.8622
3512	0.8624
3521	0.8625
3530	0.8626
3539	0.8626
3548	0.8626
3557	0.8637
3566	0.8649
3575	0.8663
3584	0.8673
3593	0.8676
3602	0.8679
3611	0.8682
3620	0.867
3629	0.8653
3638	0.8638
3647	0.8628
3656	0.8631
3665	0.8657
3674	0.8705
3683	0.8691
3692	0.866
3701	0.8655
3710	0.8654
3719	0.8653
3728	0.8648
3737	0.8648
3746	0.8662
3755	0.8682
3764	0.8687
3773	0.8682
3782	0.8667
3791	0.8649
3800	0.8667
3809	0.868
3818	0.8674
3827	0.867
3836	0.8672
3845	0.8669
3854	0.8663
3863	0.8656
3872	0.8648
3881	0.864
3890	0.8628
3899	0.8615
3908	0.8604
3917	0.8597
3926	0.8599
3935	0.8615
3944	0.8647
3953	0.8633
3962	0.8591
3971	0.8589
3980	0.8598
3989	0.8599
3998	0.8596
