Infrared Spectrum: BENZAMIDE, 2-CHLORO-N-(CYANOETHYL)-N-METHYL-4-NITRO-
Formula: C11 H10 Cl N3 O3
CAS: 22977-90-8
State: SOLUTION (7% CHCl3)
Melting point: 99 C
Class: COBLENTZ III
Instrument: PERKIN-ELMER 421 (GRATING)
Instrument parameters: GRATINGS: 1999 CM^-^1
Sampling: TRANSMISSION
Path length: 0.01 CM
Resolution: 2
Origin: ABBOTT LABORATORIES
1/CM	TRANSMITTANCE
676.815	0.94
686.175	0.94
695.536	0.943
704.896	0.941
714.257	0.937
723.617	0.932
732.977	0.9241
742.338	0.912
751.698	0.9041
761.058	0.8951
770.419	0.8891
779.779	0.8821
789.14	0.8712
798.5	0.8522
807.86	0.8244
817.221	0.782
826.581	0.6905
835.941	0.5921
845.302	0.7503
854.662	0.781
864.023	0.78
873.383	0.7601
882.743	0.6373
892.104	0.4985
901.464	0.7314
910.825	0.8715
920.185	0.876
929.545	0.8655
938.906	0.8304
948.266	0.823
957.626	0.8358
966.987	0.837
976.347	0.8242
985.708	0.8152
995.068	0.7999
1004.43	0.7857
1013.79	0.761
1023.15	0.6451
1032.51	0.5567
1041.87	0.5653
1051.23	0.765
1060.59	0.7593
1069.95	0.6605
1079.31	0.4516
1088.67	0.5523
1098.03	0.7637
1107.39	0.7236
1116.75	0.5669
1126.11	0.6987
1135.47	0.6724
1144.83	0.7621
1154.19	0.751
1163.55	0.7413
1172.92	0.7693
1182.28	0.787
1191.64	0.7458
1201	0.6504
1210.36	0.6287
1219.72	0.626
1229.08	0.6253
1238.44	0.6339
1247.8	0.6576
1257.16	0.664
1266.52	0.6442
1275.88	0.5958
1285.24	0.434
1294.6	0.5462
1303.96	0.6247
1313.32	0.5203
1322.68	0.4487
1332.04	0.2684
1341.4	0.0801
1350.76	0.1093
1360.12	0.3901
1369.48	0.5354
1378.84	0.5415
1388.2	0.527
1397.56	0.2747
1406.92	0.2915
1416.29	0.546
1425.65	0.5835
1435.01	0.5625
1444.37	0.5521
1453.73	0.519
1463.09	0.5388
1472.45	0.5749
1481.81	0.4863
1491.17	0.371
1500.53	0.407
1509.89	0.2873
1519.25	0.1534
1528.61	0.2037
1537.97	0.4274
1547.33	0.6347
1556.69	0.707
1566.05	0.6916
1575.41	0.6406
1584.77	0.5617
1594.13	0.5665
1603.49	0.6274
1612.85	0.561
1622.21	0.4675
1631.57	0.1158
1640.93	0.0804
1650.29	0.0924
1659.66	0.3171
1669.02	0.685
1678.38	0.7857
1687.74	0.8063
1697.1	0.8323
1706.46	0.84
1715.82	0.8476
1725.18	0.8549
1734.54	0.8663
1743.9	0.868
1753.26	0.868
1762.62	0.867
1771.98	0.8647
1781.34	0.861
1790.7	0.8643
1800.06	0.869
1809.42	0.876
1818.78	0.8752
1828.14	0.881
1837.5	0.881
1846.86	0.881
1856.22	0.882
1865.58	0.8822
1874.94	0.883
1884.3	0.8818
1893.66	0.8738
1903.02	0.871
1912.39	0.869
1921.75	0.8693
1931.11	0.878
1940.47	0.88
1949.83	0.88
1959.19	0.882
1968.55	0.883
1977.91	0.883
1987.27	0.8882
1996.63	0.8941
2005.99	0.9031
2015.35	0.907
2024.71	0.905
2034.07	0.9071
2043.43	0.9081
2052.79	0.91
2062.15	0.904
2071.51	0.904
2080.87	0.905
2090.23	0.907
2099.59	0.908
2108.95	0.909
2118.31	0.91
2127.67	0.91
2137.03	0.91
2146.39	0.91
2155.76	0.91
2165.12	0.908
2174.48	0.9068
2183.84	0.903
2193.2	0.9
2202.56	0.8969
2211.92	0.8939
2221.28	0.889
2230.64	0.8717
2240	0.8513
2249.36	0.8333
2258.72	0.8773
2268.08	0.9105
2277.44	0.915
2286.8	0.916
2296.16	0.9211
2305.52	0.9331
2314.88	0.9371
2324.24	0.9342
2333.6	0.939
2342.96	0.9399
2352.32	0.938
2361.68	0.937
2371.04	0.9369
2380.4	0.9371
2389.76	0.953
2399.13	0.9406
2408.49	0.9019
2417.85	0.8968
2427.21	0.89
2436.57	0.889
2445.93	0.889
2455.29	0.889
2464.65	0.89
2474.01	0.89
2483.37	0.886
2492.73	0.8891
2502.09	0.894
2511.45	0.894
2520.81	0.893
2530.17	0.893
2539.53	0.893
2548.89	0.893
2558.25	0.893
2567.61	0.895
2576.97	0.8951
2586.33	0.8959
2595.69	0.895
2605.05	0.8951
2614.41	0.896
2623.77	0.897
2633.13	0.896
2642.5	0.8971
2651.86	0.8959
2661.22	0.891
2670.58	0.891
2679.94	0.888
2689.3	0.886
2698.66	0.886
2708.02	0.885
2717.38	0.8859
2726.74	0.886
2736.1	0.8871
2745.46	0.89
2754.82	0.888
2764.18	0.887
2773.54	0.886
2782.9	0.882
2792.26	0.8798
2801.62	0.875
2810.98	0.878
2820.34	0.8758
2829.7	0.8659
2839.06	0.865
2848.42	0.8549
2857.78	0.8458
2867.14	0.84
2876.5	0.842
2885.86	0.8473
2895.23	0.858
2904.59	0.8549
2913.95	0.8416
2923.31	0.7944
2932.67	0.7519
2942.03	0.747
2951.39	0.762
2960.75	0.787
2970.11	0.782
2979.47	0.7818
2988.83	0.7451
2998.19	0.6547
3007.55	0.6211
3016.91	0.6581
3026.27	0.6643
3035.63	0.7344
3044.99	0.8035
3054.35	0.8221
3063.71	0.8208
3073.07	0.7929
3082.43	0.7829
3091.79	0.7391
3101.15	0.7072
3110.51	0.7801
3119.87	0.8312
3129.23	0.8461
3138.6	0.855
3147.96	0.86
3157.32	0.865
3166.68	0.868
3176.04	0.868
3185.4	0.868
3194.76	0.8684
3204.12	0.8741
3213.48	0.876
3222.84	0.879
3232.2	0.879
3241.56	0.8739
3250.92	0.871
3260.28	0.8679
3269.64	0.866
3279	0.866
3288.36	0.8669
3297.72	0.8741
3307.08	0.878
3316.44	0.88
3325.8	0.88
3335.16	0.88
3344.52	0.88
3353.88	0.88
3363.24	0.88
3372.6	0.88
3381.97	0.879
3391.33	0.879
3400.69	0.879
3410.05	0.879
3419.41	0.879
3428.77	0.879
3438.13	0.879
3447.49	0.879
3456.85	0.8778
3466.21	0.876
3475.57	0.878
3484.93	0.879
3494.29	0.88
3503.65	0.88
3513.01	0.879
3522.37	0.879
3531.73	0.8781
3541.09	0.8801
3550.45	0.881
3559.81	0.88
3569.17	0.88
3578.53	0.8811
3587.89	0.886
3597.25	0.888
3606.61	0.891
3615.97	0.893
3625.34	0.891
3634.7	0.8859
3644.06	0.882
3653.42	0.882
3662.78	0.885
3672.14	0.89
3681.5	0.891
3690.86	0.893
3700.22	0.894
3709.58	0.895
3718.94	0.896
3728.3	0.896
3737.66	0.8959
3747.02	0.895
3756.38	0.895
3765.74	0.895
3775.1	0.894
3784.46	0.896
3793.82	0.898
3803.18	0.896
3812.54	0.895
3821.9	0.894
3831.26	0.894
3840.62	0.891
3849.98	0.891
3859.34	0.891
3868.7	0.891
3878.07	0.891
3887.43	0.891
3896.79	0.89
3906.15	0.889
3915.51	0.889
3924.87	0.889
3934.23	0.889
3943.59	0.889
3952.95	0.888
3962.31	0.8869
3971.67	0.886
3981.03	0.886
3990.39	0.8848
