Infrared Spectrum: Benzamide, 2-chloro-N-cyanoethyl-N-ethyl-4-nitro-
Formula: C12 H12 Cl N3 O3
CAS: 22977-91-9
State: SOLUTION (7% CHCl3) VS SOLVENT
Melting point: 204 C AT 0.6 mmHg
Class: COBLENTZ III
Instrument: PERKIN-ELMER 421 (GRATING)
Instrument parameters: GRATINGS: 1999 CM^-^1
Sampling: TRANSMISSION
Path length: 0.01 CM
Resolution: 2
Origin: ABBOTT LABORATORIES - WASHBURN
1/CM	TRANSMITTANCE
688	0.7769
697	0.7709
706	0.7622
715	0.7555
724	0.7526
733	0.7511
742	0.7499
751	0.7477
760	0.745
769	0.742
778	0.7378
787	0.7312
796	0.7224
805	0.7126
814	0.7008
823	0.6692
832	0.5026
841	0.6091
850	0.5977
859	0.6187
868	0.6311
877	0.6
886	0.5345
895	0.4518
904	0.6578
913	0.6874
922	0.698
931	0.6963
940	0.698
949	0.7027
958	0.6935
967	0.6674
976	0.6514
985	0.6636
994	0.6606
1003	0.6497
1012	0.6334
1021	0.604
1030	0.5804
1039	0.5603
1048	0.546
1057	0.6132
1066	0.5898
1075	0.5273
1084	0.5967
1093	0.5618
1102	0.5641
1111	0.5515
1120	0.4851
1129	0.5462
1138	0.5308
1147	0.5833
1156	0.5551
1165	0.5934
1174	0.6444
1183	0.6376
1192	0.5882
1201	0.5617
1210	0.5458
1219	0.5417
1228	0.5394
1237	0.5468
1246	0.5395
1255	0.6466
1264	0.6409
1273	0.583
1282	0.3211
1291	0.335
1300	0.5346
1309	0.5565
1318	0.5063
1327	0.4785
1336	0.3275
1345	0.0997
1354	0.1602
1363	0.4008
1372	0.4625
1381	0.4439
1390	0.6176
1399	0.664
1408	0.58
1417	0.4095
1426	0.3132
1435	0.3551
1444	0.4761
1453	0.4383
1462	0.5164
1471	0.5628
1480	0.4855
1489	0.545
1498	0.5501
1507	0.3798
1516	0.1846
1525	0.1591
1534	0.2773
1543	0.5795
1552	0.6983
1561	0.6969
1570	0.6775
1579	0.6355
1588	0.5525
1597	0.5733
1606	0.5885
1615	0.4822
1624	0.2719
1633	0.0908
1642	0.1272
1651	0.1988
1660	0.5257
1669	0.717
1678	0.7463
1687	0.7615
1696	0.7924
1705	0.8001
1714	0.8051
1723	0.812
1732	0.8185
1741	0.8225
1750	0.8233
1759	0.8239
1768	0.8228
1777	0.8203
1786	0.8203
1795	0.8254
1804	0.8296
1813	0.8339
1822	0.8396
1831	0.8446
1840	0.8437
1849	0.8431
1858	0.8451
1867	0.8467
1876	0.8473
1885	0.8475
1894	0.8467
1903	0.8443
1912	0.8396
1921	0.8441
1930	0.8503
1939	0.8528
1948	0.8521
1957	0.8501
1966	0.8489
1975	0.8521
1984	0.8567
1993	0.8606
2002	0.8616
2011	0.8621
2020	0.8611
2029	0.8617
2038	0.8634
2047	0.865
2056	0.8638
2065	0.8642
2074	0.8649
2083	0.8654
2092	0.866
2101	0.8659
2110	0.8652
2119	0.8652
2128	0.8651
2137	0.8643
2146	0.863
2155	0.8608
2164	0.8576
2173	0.8574
2182	0.8571
2191	0.8561
2200	0.8544
2209	0.8513
2218	0.8438
2227	0.8258
2236	0.7994
2245	0.7765
2254	0.7953
2263	0.8366
2272	0.8477
2281	0.8493
2290	0.8495
2299	0.8497
2308	0.8479
2317	0.8491
2326	0.8482
2335	0.8467
2344	0.8455
2353	0.8444
2362	0.8435
2371	0.8441
2380	0.8464
2389	0.8505
2398	0.8423
2407	0.8353
2416	0.8338
2425	0.8338
2434	0.8338
2443	0.8334
2452	0.8332
2461	0.8335
2470	0.8341
2479	0.8348
2488	0.8359
2497	0.8369
2506	0.84
2515	0.8427
2524	0.8434
2533	0.8452
2542	0.8469
2551	0.8483
2560	0.8497
2569	0.8507
2578	0.8502
2587	0.8488
2596	0.8473
2605	0.8469
2614	0.8465
2623	0.8458
2632	0.8448
2641	0.8438
2650	0.8425
2659	0.8406
2668	0.8381
2677	0.8353
2686	0.8323
2695	0.8294
2704	0.8266
2713	0.8264
2722	0.8266
2731	0.8272
2740	0.8279
2749	0.8285
2758	0.8291
2767	0.8294
2776	0.8271
2785	0.824
2794	0.8201
2803	0.8162
2812	0.8123
2821	0.8091
2830	0.8034
2839	0.7966
2848	0.7889
2857	0.7777
2866	0.7667
2875	0.7575
2884	0.7626
2893	0.7728
2902	0.776
2911	0.7733
2920	0.755
2929	0.7081
2938	0.6844
2947	0.7006
2956	0.6986
2965	0.6604
2974	0.6057
2983	0.5709
2992	0.5572
3001	0.5583
3010	0.5789
3019	0.5986
3028	0.6275
3037	0.7084
3046	0.7503
3055	0.7582
3064	0.7553
3073	0.7451
3082	0.7277
3091	0.6941
3100	0.6992
3109	0.7338
3118	0.7695
3127	0.7819
3136	0.7923
3145	0.7996
3154	0.8039
3163	0.8059
3172	0.8069
3181	0.8076
3190	0.8079
3199	0.808
3208	0.8076
3217	0.8074
3226	0.8068
3235	0.806
3244	0.8046
3253	0.8028
3262	0.8017
3271	0.8028
3280	0.8036
3289	0.8035
3298	0.803
3307	0.8023
3316	0.8023
3325	0.8024
3334	0.8026
3343	0.8019
3352	0.8005
3361	0.8004
3370	0.8004
3379	0.7999
3388	0.7987
3397	0.801
3406	0.8038
3415	0.8073
3424	0.8111
3433	0.8146
3442	0.8178
3451	0.8208
3460	0.8231
3469	0.8253
3478	0.8274
3487	0.8292
3496	0.831
3505	0.8326
3514	0.8342
3523	0.8358
3532	0.8378
3541	0.8397
3550	0.8414
3559	0.8432
3568	0.8448
3577	0.8459
3586	0.8476
3595	0.8507
3604	0.8556
3613	0.8606
3622	0.8644
3631	0.8671
3640	0.8679
3649	0.8679
3658	0.8677
3667	0.8689
3676	0.8712
3685	0.8746
3694	0.8778
3703	0.8794
3712	0.8801
3721	0.8799
3730	0.8796
3739	0.8792
3748	0.8775
3757	0.8762
3766	0.8762
3775	0.8786
3784	0.8784
3793	0.8783
3802	0.8786
3811	0.8791
3820	0.8795
3829	0.8792
3838	0.8791
3847	0.8806
3856	0.8817
3865	0.8799
3874	0.8771
3883	0.8752
3892	0.8738
3901	0.8732
3910	0.8758
3919	0.8727
3928	0.8728
3937	0.8732
3946	0.8739
3955	0.8751
3964	0.8761
3973	0.877
3982	0.8776
3991	0.8781
4000	0.8786
