Infrared Spectrum: Benzamide, 2-chloro-N-(cyanomethyl)-4-nitro-N-propyl-
Formula: C12 H12 Cl N3 O3
CAS: 22977-93-1
State: SOLUTION (7% CHCl3) VS SOLVENT
Melting point: 89 C
Class: COBLENTZ III
Instrument: PERKIN-ELMER 421 (GRATING)
Instrument parameters: GRATINGS: 1999 CM^-^1
Sampling: TRANSMISSION
Path length: 0.01 CM
Resolution: 2
Origin: ABBOTT LABORATORIES - WASHBURN
1/CM	TRANSMITTANCE
776	0.9951
785	0.9981
794	0.997
803	0.9943
812	0.9813
821	0.9308
830	0.7666
839	0.6606
848	0.8892
857	0.886
866	0.7829
875	0.705
884	0.6993
893	0.4713
902	0.7175
911	0.8018
920	0.8575
929	0.8869
938	0.9159
947	0.9235
956	0.9083
965	0.8615
974	0.8562
983	0.756
992	0.871
1001	0.906
1010	0.9064
1019	0.8894
1028	0.8626
1037	0.7904
1046	0.5589
1055	0.8233
1064	0.8378
1073	0.8238
1082	0.782
1091	0.7238
1100	0.468
1109	0.6507
1118	0.4878
1127	0.6898
1136	0.6163
1145	0.7969
1154	0.7921
1163	0.7641
1172	0.7641
1181	0.8017
1190	0.7443
1199	0.6262
1208	0.5197
1217	0.5183
1226	0.5186
1235	0.4895
1244	0.3812
1253	0.6695
1262	0.5401
1271	0.5799
1280	0.5
1289	0.4593
1298	0.4513
1307	0.5458
1316	0.6578
1325	0.6431
1334	0.2894
1343	0.0804
1352	0.1534
1361	0.3154
1370	0.5502
1379	0.5584
1388	0.562
1397	0.5966
1406	0.4423
1415	0.3438
1424	0.1983
1433	0.3457
1442	0.4978
1451	0.4459
1460	0.4803
1469	0.5482
1478	0.4792
1487	0.6907
1496	0.6747
1505	0.4772
1514	0.2566
1523	0.1228
1532	0.2116
1541	0.5354
1550	0.7986
1559	0.8077
1568	0.8025
1577	0.7756
1586	0.5925
1595	0.6317
1604	0.7576
1613	0.7152
1622	0.659
1631	0.48
1640	0.0976
1649	0.0483
1658	0.0538
1667	0.1845
1676	0.5875
1685	0.7499
1694	0.8727
1703	0.8931
1712	0.905
1721	0.9163
1730	0.9277
1739	0.9369
1748	0.9446
1757	0.9464
1766	0.9415
1775	0.9347
1784	0.9304
1793	0.9392
1802	0.9477
1811	0.9532
1820	0.9558
1829	0.9564
1838	0.9569
1847	0.9574
1856	0.9577
1865	0.9584
1874	0.9603
1883	0.9627
1892	0.9538
1901	0.9524
1910	0.9384
1919	0.9397
1928	0.9514
1937	0.956
1946	0.9546
1955	0.954
1964	0.9541
1973	0.9549
1982	0.9581
1991	0.9645
2000	0.9269
2009	0.9194
2018	0.9188
2027	0.9186
2036	0.919
2045	0.9188
2054	0.9187
2063	0.9186
2072	0.918
2081	0.9166
2090	0.9162
2099	0.9157
2108	0.9152
2117	0.915
2126	0.9158
2135	0.9164
2144	0.9166
2153	0.9164
2162	0.9145
2171	0.9122
2180	0.912
2189	0.9125
2198	0.912
2207	0.9097
2216	0.9083
2225	0.9077
2234	0.9071
2243	0.9064
2252	0.9063
2261	0.907
2270	0.9089
2279	0.9108
2288	0.9128
2297	0.9136
2306	0.9143
2315	0.9161
2324	0.9164
2333	0.9165
2342	0.9169
2351	0.918
2360	0.9203
2369	0.9224
2378	0.9246
2387	0.9287
2396	0.9236
2405	0.9155
2414	0.9062
2423	0.9047
2432	0.9032
2441	0.9033
2450	0.9015
2459	0.8959
2468	0.8944
2477	0.8886
2486	0.8824
2495	0.8859
2504	0.8883
2513	0.8895
2522	0.8901
2531	0.8904
2540	0.891
2549	0.8916
2558	0.8921
2567	0.8918
2576	0.8916
2585	0.8914
2594	0.8911
2603	0.8908
2612	0.8902
2621	0.8897
2630	0.8892
2639	0.8883
2648	0.8875
2657	0.8868
2666	0.8861
2675	0.885
2684	0.883
2693	0.8813
2702	0.8801
2711	0.8794
2720	0.8792
2729	0.8793
2738	0.8801
2747	0.8819
2756	0.8849
2765	0.8856
2774	0.8853
2783	0.8849
2792	0.8828
2801	0.8806
2810	0.875
2819	0.8685
2828	0.8619
2837	0.8556
2846	0.8467
2855	0.8396
2864	0.8067
2873	0.6986
2882	0.7023
2891	0.7909
2900	0.8012
2909	0.8057
2918	0.7872
2927	0.6929
2936	0.6079
2945	0.6787
2954	0.7061
2963	0.5352
2972	0.5043
2981	0.5389
2990	0.6645
2999	0.7018
3008	0.6611
3017	0.6215
3026	0.6309
3035	0.7074
3044	0.7885
3053	0.812
3062	0.8181
3071	0.8004
3080	0.7985
3089	0.7722
3098	0.695
3107	0.7346
3116	0.8185
3125	0.8414
3134	0.8555
3143	0.8632
3152	0.8653
3161	0.8664
3170	0.8669
3179	0.8673
3188	0.8681
3197	0.8691
3206	0.8695
3215	0.8695
3224	0.8689
3233	0.8683
3242	0.8675
3251	0.866
3260	0.8637
3269	0.8594
3278	0.853
3287	0.8517
3296	0.8523
3305	0.8541
3314	0.8591
3323	0.8643
3332	0.865
3341	0.8671
3350	0.8694
3359	0.8699
3368	0.8702
3377	0.8704
3386	0.8706
3395	0.871
3404	0.8718
3413	0.8723
3422	0.8726
3431	0.8732
3440	0.8744
3449	0.8757
3458	0.877
3467	0.8777
3476	0.8789
3485	0.8801
3494	0.8806
3503	0.8809
3512	0.8813
3521	0.8819
3530	0.8823
3539	0.885
3548	0.8853
3557	0.8859
3566	0.8866
3575	0.8872
3584	0.889
3593	0.8967
3602	0.8977
3611	0.8977
3620	0.8979
3629	0.8983
3638	0.8989
3647	0.8996
3656	0.9002
3665	0.9011
3674	0.9032
3683	0.9035
3692	0.8999
3701	0.9042
3710	0.9102
3719	0.9092
3728	0.9067
3737	0.9046
3746	0.9044
3755	0.9066
3764	0.9084
3773	0.9072
3782	0.9085
3791	0.9081
3800	0.9039
3809	0.903
3818	0.9053
3827	0.9093
3836	0.9094
3845	0.9048
3854	0.8989
3863	0.9033
3872	0.9064
3881	0.906
3890	0.9041
3899	0.903
3908	0.9002
3917	0.9059
3926	0.9053
3935	0.9034
3944	0.9021
3953	0.9019
3962	0.9021
3971	0.9026
3980	0.9029
3989	0.9022
3998	0.9013
