Infrared Spectrum: 5-(2-Thienoyl)butyric acid
Formula: C 9 H 10 O 3 S
CAS: 22971-62-6
State: gas
Origin: EPA-IR VAPOR PHASE LIBRARY
1/CM	ABSORBANCE
549.8	0.007462
559.445	0.008682
569.09	0.008222
578.735	0.007972
588.38	0.008242
598.025	0.008532
607.67	0.008672
617.315	0.008142
626.96	0.007562
636.605	0.007012
646.251	0.005832
655.896	0.004732
665.541	0.004482
675.186	0.003932
684.831	0.004032
694.476	0.005422
704.121	0.012272
713.766	0.021362
723.411	0.012862
733.056	0.005682
742.701	0.004312
752.346	0.004172
761.991	0.003572
771.636	0.003392
781.281	0.003922
790.926	0.004862
800.571	0.005122
810.216	0.003592
819.861	0.003432
829.507	0.004172
839.152	0.005802
848.797	0.006862
858.442	0.006922
868.087	0.003772
877.732	0.002672
887.377	0.002492
897.022	0.002362
906.667	0.002322
916.312	0.002532
925.957	0.003272
935.602	0.004072
945.247	0.004152
954.892	0.004292
964.537	0.003792
974.182	0.003672
983.827	0.003772
993.472	0.003912
1003.12	0.004472
1012.76	0.005252
1022.41	0.005922
1032.05	0.007982
1041.7	0.008832
1051.34	0.009642
1060.99	0.008982
1070.63	0.007572
1080.28	0.009322
1089.92	0.010752
1099.57	0.014132
1109.21	0.023142
1118.86	0.033132
1128.5	0.027472
1138.15	0.018492
1147.79	0.014842
1157.44	0.014112
1167.08	0.014352
1176.73	0.013712
1186.37	0.013272
1196.02	0.012992
1205.66	0.012652
1215.31	0.012252
1224.95	0.014422
1234.6	0.020882
1244.24	0.017972
1253.89	0.013182
1263.53	0.010942
1273.18	0.009172
1282.82	0.007822
1292.47	0.007142
1302.11	0.007122
1311.76	0.006812
1321.4	0.006472
1331.05	0.006272
1340.69	0.007612
1350.34	0.011212
1359.98	0.013462
1369.63	0.011052
1379.27	0.009372
1388.92	0.008892
1398.56	0.009172
1408.21	0.015092
1417.85	0.021372
1427.5	0.011882
1437.14	0.006652
1446.79	0.005242
1456.43	0.004592
1466.08	0.003212
1475.73	0.002472
1485.37	0.002862
1495.02	0.003062
1504.66	0.005132
1514.31	0.009632
1523.95	0.005922
1533.6	0.002882
1543.24	0.002902
1552.89	0.002652
1562.53	0.002092
1572.18	0.001762
1581.82	0.001702
1591.47	0.001892
1601.11	0.001712
1610.76	0.001602
1620.4	0.001762
1630.05	0.001752
1639.69	0.002262
1649.34	0.003092
1658.98	0.005042
1668.63	0.010562
1678.27	0.022622
1687.92	0.031522
1697.56	0.022792
1707.21	0.009832
1716.85	0.005732
1726.5	0.006192
1736.14	0.008482
1745.79	0.012672
1755.43	0.019552
1765.08	0.030282
1774.72	0.040282
1784.37	0.034522
1794.01	0.022572
1803.66	0.013742
1813.3	0.007522
1822.95	0.004232
1832.59	0.002552
1842.24	0.001772
1851.88	0.0012697
1861.53	0.0010493
1871.17	0.0009604
1880.82	0.0008261
1890.46	0.000764
1900.11	0.0008137
1909.75	0.0008032
1919.4	0.0006426
1929.04	0.0006352
1938.69	0.00057916
1948.33	0.00058806
1957.98	0.00056322
1967.62	0.000499491
1977.27	0.00048604
1986.91	0.0004564
1996.56	0.000368
2006.2	0.0003986
2015.85	0.000378
2025.49	0.000346
2035.14	0.000328
2044.78	0.000337
2054.43	0.000358
2064.07	0.000315
2073.72	0.000358
2083.36	0.00035
2093.01	0.00039
2102.65	0.000313
2112.3	0.000359
2121.94	0.000311
2131.59	0.000322
2141.23	0.00031
2150.88	0.000293
2160.52	0.0004052
2170.17	0.0004043
2179.81	0.000315
2189.46	0.000323
2199.1	0.000243
2208.75	0.0003
2218.39	0.000263
2228.04	0.000283
2237.68	0.000286
2247.33	0.000304
2256.97	0.000274
2266.62	0.000264
2276.26	0.000307
2285.91	0.000222
2295.55	0.000239
2305.2	0.000205
2314.84	0.000279
2324.49	0.000229
2334.13	0.000219
2343.78	0.000159
2353.42	0.000213
2363.07	0.000212
2372.72	0.000154
2382.36	0.000231
2392.01	0.000176
2401.65	0.000225
2411.3	0.000169
2420.94	0.00025
2430.59	0.00025
2440.23	0.000241
2449.88	0.00022
2459.52	0.000244
2469.17	0.000259
2478.81	8.9e-05
2488.46	0.000199
2498.1	0.000104
2507.75	0.00016
2517.39	9e-05
2527.04	9.5e-05
2536.68	0.00015
2546.33	6.8e-05
2555.97	0
2565.62	9.2e-05
2575.26	0.000101
2584.91	8.9e-05
2594.55	2.5e-05
2604.2	5.3e-05
2613.84	0.000142
2623.49	0.000119
2633.13	0.000122
2642.78	0.000197
2652.42	0.00013
2662.07	0.000172
2671.71	0.000151
2681.36	0.000137
2691	8.8e-05
2700.65	0.000143
2710.29	0.000137
2719.94	0.000168
2729.58	9.9e-05
2739.23	0.000199
2748.87	0.00013
2758.52	0.000203
2768.16	0.000101
2777.81	0.000118
2787.45	0.000248
2797.1	0.000308
2806.74	0.000263
2816.39	0.00052556
2826.03	0.0004802
2835.68	0.00054817
2845.32	0.00055868
2854.97	0.0007634
2864.61	0.0009282
2874.26	0.0011474
2883.9	0.001492
2893.55	0.001732
2903.19	0.002422
2912.84	0.003042
2922.48	0.003372
2932.13	0.003962
2941.77	0.004702
2951.42	0.005072
2961.06	0.005132
2970.71	0.004792
2980.35	0.003802
2990	0.002522
2999.64	0.001612
3009.29	0.0010994
3018.93	0.0009489
3028.58	0.0006768
3038.22	0.0006988
3047.87	0.0007858
3057.51	0.00062
3067.16	0.0007455
3076.8	0.00138
3086.45	0.001902
3096.09	0.001522
3105.74	0.0010383
3115.38	0.0008356
3125.03	0.0007023
3134.67	0.000662
3144.32	0.0006826
3153.96	0.0007276
3163.61	0.00057605
3173.25	0.0006229
3182.9	0.00057409
3192.54	0.0005959
3202.19	0.0006445
3211.83	0.0006029
3221.48	0.00056453
3231.12	0.0007327
3240.77	0.000715
3250.41	0.0006916
3260.06	0.0008048
3269.7	0.0006754
3279.35	0.0007528
3289	0.0008698
3298.64	0.0008928
3308.29	0.0009523
3317.93	0.0010709
3327.58	0.0009429
3337.22	0.0009698
3346.87	0.0012504
3356.51	0.0012145
3366.16	0.0012877
3375.8	0.0012214
3385.45	0.0010658
3395.09	0.0008656
3404.74	0.0011061
3414.38	0.0010549
3424.03	0.0010123
3433.67	0.0010962
3443.32	0.0009776
3452.96	0.0009417
3462.61	0.0010732
3472.25	0.0010213
3481.9	0.0011725
3491.54	0.0012245
3501.19	0.0011392
3510.83	0.0014234
3520.48	0.0014457
3530.12	0.001692
3539.77	0.001942
3549.41	0.002492
3559.06	0.004922
3568.7	0.014022
3578.35	0.016892
3587.99	0.005452
3597.64	0.002422
3607.28	0.001712
3616.93	0.0013475
3626.57	0.0013728
3636.22	0.0012483
3645.86	0.0011784
3655.51	0.0011539
3665.15	0.0010959
3674.8	0.0011352
3684.44	0.0009258
3694.09	0.0010332
3703.73	0.0010363
3713.38	0.0009057
3723.02	0.0008846
3732.67	0.0011196
3742.31	0.0011591
3751.96	0.0010663
3761.6	0.001172
3771.25	0.0011262
3780.89	0.0009001
3790.54	0.0009659
3800.18	0.0010579
3809.83	0.0009671
3819.47	0.001032
3829.12	0.0009826
3838.76	0.0010078
3848.41	0.0011375
3858.05	0.0009909
3867.7	0.0009117
3877.34	0.0008415
3886.99	0.0009463
3896.63	0.0009134
3906.28	0.0009188
3915.92	0.000945
3925.57	0.0008868
3935.21	0.0008591
3944.86	0.0010884
3954.5	0.0010999
3964.15	0.000966
3973.79	0.0007424
3983.44	0.0008252
3993.08	0.0009066
