Infrared Spectrum: BENZAMIDE,N-[2-(2-CYANO)PROPYL]-2-CHLORO-4-NITRO-
Formula: C11 H10 Cl N3 O3
CAS: 22977-97-5
State: SOLID (NUJOL MULL)
Melting point: 175 C
Class: COBLENTZ III
Instrument: PERKIN-ELMER 421 (GRATING)
Instrument parameters: GRATINGS: 1999 CM^-^1
Sampling: TRANSMISSION
Resolution: 2
Origin: ABBOTT LABORATORIES - WASHBURN
1/CM	TRANSMITTANCE
677	0.7749
686	0.7642
695	0.7605
704	0.752
713	0.6777
722	0.5797
731	0.4217
740	0.6414
749	0.5938
758	0.3944
767	0.7052
776	0.6799
785	0.7851
794	0.7824
803	0.7783
812	0.7733
821	0.7583
830	0.7115
839	0.498
848	0.5009
857	0.7466
866	0.76
875	0.748
884	0.4395
893	0.6673
902	0.7399
911	0.7452
920	0.7241
929	0.7056
938	0.7157
947	0.6977
956	0.6729
965	0.6856
974	0.7279
983	0.7304
992	0.7235
1001	0.7177
1010	0.708
1019	0.6904
1028	0.6684
1037	0.6023
1046	0.5415
1055	0.6806
1064	0.6764
1073	0.6616
1082	0.6565
1091	0.6444
1100	0.6195
1109	0.594
1118	0.5697
1127	0.5609
1136	0.5319
1145	0.5883
1154	0.5812
1163	0.538
1172	0.5564
1181	0.5508
1190	0.4819
1199	0.5004
1208	0.5026
1217	0.406
1226	0.4888
1235	0.5542
1244	0.5128
1253	0.3152
1262	0.5218
1271	0.3971
1280	0.2741
1289	0.4338
1298	0.4049
1307	0.2621
1316	0.5131
1325	0.4995
1334	0.3894
1343	0.2017
1352	0.1424
1361	0.2948
1370	0.2302
1379	0.3343
1388	0.3655
1397	0.617
1406	0.6326
1415	0.6148
1424	0.5484
1433	0.2905
1442	0.1976
1451	0.1203
1460	0.1161
1469	0.3048
1478	0.4148
1487	0.4233
1496	0.3741
1505	0.2586
1514	0.1403
1523	0.1234
1532	0.1668
1541	0.3865
1550	0.6057
1559	0.665
1568	0.6909
1577	0.6673
1586	0.5588
1595	0.5262
1604	0.705
1613	0.6907
1622	0.6765
1631	0.6256
1640	0.5982
1649	0.5424
1658	0.5043
1667	0.1946
1676	0.2041
1685	0.3329
1694	0.5964
1703	0.6582
1712	0.6832
1721	0.6895
1730	0.7064
1739	0.7236
1748	0.7374
1757	0.7415
1766	0.7381
1775	0.7343
1784	0.7406
1793	0.7291
1802	0.7255
1811	0.7381
1820	0.7362
1829	0.7327
1838	0.7302
1847	0.7286
1856	0.7271
1865	0.7256
1874	0.7242
1883	0.7227
1892	0.7199
1901	0.7163
1910	0.7108
1919	0.704
1928	0.7034
1937	0.7095
1946	0.7103
1955	0.7071
1964	0.7024
1973	0.6964
1982	0.699
1991	0.6896
2000	0.7018
2009	0.6737
2018	0.6737
2027	0.6714
2036	0.6686
2045	0.667
2054	0.6658
2063	0.6644
2072	0.6628
2081	0.6603
2090	0.6577
2099	0.655
2108	0.6519
2117	0.6498
2126	0.6479
2135	0.6461
2144	0.6444
2153	0.6427
2162	0.641
2171	0.6394
2180	0.6335
2189	0.6319
2198	0.6282
2207	0.6219
2216	0.6112
2225	0.597
2234	0.5776
2243	0.6309
2252	0.6329
2261	0.6266
2270	0.6221
2279	0.6222
2288	0.6199
2297	0.6134
2306	0.612
2315	0.6104
2324	0.6068
2333	0.6033
2342	0.5999
2351	0.5985
2360	0.6001
2369	0.602
2378	0.598
2387	0.6003
2396	0.6016
2405	0.6014
2414	0.5996
2423	0.5978
2432	0.596
2441	0.5942
2450	0.5924
2459	0.5906
2468	0.5879
2477	0.5848
2486	0.5816
2495	0.5789
2504	0.5763
2513	0.5736
2522	0.5704
2531	0.5646
2540	0.5627
2549	0.5622
2558	0.5568
2567	0.549
2576	0.542
2585	0.537
2594	0.5335
2603	0.5301
2612	0.5273
2621	0.5242
2630	0.5212
2639	0.5185
2648	0.5152
2657	0.5117
2666	0.5094
2675	0.5074
2684	0.5073
2693	0.5058
2702	0.5008
2711	0.4911
2720	0.4875
2729	0.4922
2738	0.5051
2747	0.5152
2756	0.5166
2765	0.5121
2774	0.5015
2783	0.4845
2792	0.465
2801	0.4396
2810	0.4092
2819	0.3532
2828	0.2892
2837	0.1226
2846	0.0321
2855	0.0245
2864	0.03
2873	0.0378
2882	0.0456
2891	0.0316
2900	0.0191
2909	0.0165
2918	0.017
2927	0.0182
2936	0.0195
2945	0.0209
2954	0.0246
2963	0.0324
2972	0.0494
2981	0.1207
2990	0.2239
2999	0.273
3008	0.3166
3017	0.3392
3026	0.3414
3035	0.3436
3044	0.3755
3053	0.3948
3062	0.3982
3071	0.4001
3080	0.3954
3089	0.3892
3098	0.3831
3107	0.3746
3116	0.4147
3125	0.4232
3134	0.4245
3143	0.4253
3152	0.4256
3161	0.4233
3170	0.422
3179	0.422
3188	0.4206
3197	0.4193
3206	0.4184
3215	0.4175
3224	0.4162
3233	0.4139
3242	0.4089
3251	0.4009
3260	0.3933
3269	0.3865
3278	0.3786
3287	0.369
3296	0.3582
3305	0.3428
3314	0.3042
3323	0.2436
3332	0.1981
3341	0.2611
3350	0.3462
3359	0.4138
3368	0.4325
3377	0.4435
3386	0.4523
3395	0.4592
3404	0.4632
3413	0.4649
3422	0.4658
3431	0.4663
3440	0.4664
3449	0.4664
3458	0.4664
3467	0.4661
3476	0.4674
3485	0.4717
3494	0.4641
3503	0.4599
3512	0.4598
3521	0.4604
3530	0.4615
3539	0.4622
3548	0.4627
3557	0.4621
3566	0.4612
3575	0.4596
3584	0.4581
3593	0.4569
3602	0.4556
3611	0.4545
3620	0.4535
3629	0.4534
3638	0.4534
3647	0.4534
3656	0.4533
3665	0.4535
3674	0.4538
3683	0.4487
3692	0.4479
3701	0.4484
3710	0.4445
3719	0.4418
3728	0.4409
3737	0.4412
3746	0.4414
3755	0.4403
3764	0.4393
3773	0.4385
3782	0.4377
3791	0.4343
3800	0.4311
3809	0.4287
3818	0.4276
3827	0.4267
3836	0.4259
3845	0.425
3854	0.4242
3863	0.4231
3872	0.4218
3881	0.4206
3890	0.4195
3899	0.4185
3908	0.4174
3917	0.4165
3926	0.4156
3935	0.4195
3944	0.4137
3953	0.4125
3962	0.4121
3971	0.412
3980	0.4113
3989	0.4121
3998	0.4195
