Infrared Spectrum: BENZAMIDE, N-BUTYL-2-CHLORO-N-CYANOMETHYL-4-NITRO-
Formula: C13 H14 Cl N3 O3
CAS: 22977-94-2
State: SOLUTION (7% CHCl3 FOR 2.5-15 MICRON) VS SOLVENT
Class: COBLENTZ III
Instrument: PERKIN-ELMER 421 (GRATING)
Instrument parameters: GRATINGS: 1999 CM^-^1
Sampling: TRANSMISSION
Path length: 0.010 CM
Resolution: 2
Origin: ABBOTT LABORATORIES
1/CM	TRANSMITTANCE
709.267	0.955
718.478	0.955
727.688	0.956
736.899	0.955
746.109	0.954
755.32	0.954
764.53	0.954
773.741	0.955
782.951	0.956
792.162	0.956
801.372	0.9529
810.583	0.9419
819.793	0.9201
829.004	0.8566
838.214	0.6809
847.425	0.8302
856.635	0.9
865.846	0.8737
875.057	0.776
884.267	0.7495
893.478	0.541
902.688	0.7727
911.899	0.86
921.109	0.85
930.32	0.86
939.53	0.8499
948.741	0.8766
957.951	0.888
967.162	0.8794
976.372	0.8742
985.583	0.7928
994.793	0.8469
1004	0.9135
1013.21	0.928
1022.42	0.9269
1031.64	0.9125
1040.85	0.8455
1050.06	0.6985
1059.27	0.8619
1068.48	0.9083
1077.69	0.912
1086.9	0.8932
1096.11	0.7648
1105.32	0.6551
1114.53	0.6954
1123.74	0.676
1132.95	0.7661
1142.16	0.807
1151.37	0.8877
1160.58	0.8453
1169.79	0.827
1179	0.8165
1188.21	0.7844
1197.43	0.6783
1206.64	0.5349
1215.85	0.524
1225.06	0.526
1234.27	0.537
1243.48	0.6089
1252.69	0.7005
1261.9	0.6634
1271.11	0.6338
1280.32	0.5838
1289.53	0.5003
1298.74	0.5131
1307.95	0.5512
1317.16	0.6869
1326.37	0.7026
1335.58	0.4264
1344.79	0.1371
1354	0.2204
1363.21	0.4603
1372.43	0.5634
1381.64	0.5757
1390.85	0.6504
1400.06	0.6653
1409.27	0.5187
1418.48	0.4121
1427.69	0.274
1436.9	0.4851
1446.11	0.5279
1455.32	0.4996
1464.53	0.5235
1473.74	0.606
1482.95	0.5658
1492.16	0.7374
1501.37	0.7146
1510.58	0.4878
1519.79	0.187
1529	0.203
1538.21	0.4274
1547.43	0.6361
1556.64	0.796
1565.85	0.793
1575.06	0.78
1584.27	0.6963
1593.48	0.6485
1602.69	0.6956
1611.9	0.7507
1621.11	0.7072
1630.32	0.6262
1639.53	0.2229
1648.74	0.075
1657.95	0.0658
1667.16	0.203
1676.37	0.5584
1685.58	0.7419
1694.79	0.8206
1704	0.8718
1713.21	0.886
1722.43	0.887
1731.64	0.8931
1740.85	0.9047
1750.06	0.9152
1759.27	0.922
1768.48	0.92
1777.69	0.916
1786.9	0.911
1796.11	0.915
1805.32	0.921
1814.53	0.925
1823.74	0.93
1832.95	0.933
1842.16	0.937
1851.37	0.939
1860.58	0.935
1869.79	0.935
1879	0.934
1888.21	0.933
1897.43	0.932
1906.64	0.928
1915.85	0.918
1925.06	0.92
1934.27	0.9287
1943.48	0.933
1952.69	0.933
1961.9	0.934
1971.11	0.935
1980.32	0.935
1989.53	0.937
1998.74	0.935
2007.95	0.892
2017.16	0.89
2026.37	0.891
2035.58	0.891
2044.79	0.891
2054	0.891
2063.21	0.891
2072.43	0.891
2081.64	0.891
2090.85	0.891
2100.06	0.89
2109.27	0.89
2118.48	0.888
2127.69	0.888
2136.9	0.887
2146.11	0.887
2155.32	0.887
2164.53	0.886
2173.74	0.886
2182.95	0.884
2192.16	0.883
2201.37	0.883
2210.58	0.882
2219.79	0.884
2229	0.8809
2238.21	0.874
2247.43	0.877
2256.64	0.882
2265.85	0.883
2275.06	0.883
2284.27	0.883
2293.48	0.883
2302.69	0.8859
2311.9	0.887
2321.11	0.888
2330.32	0.89
2339.53	0.892
2348.74	0.892
2357.95	0.892
2367.16	0.891
2376.37	0.8899
2385.58	0.888
2394.79	0.888
2404	0.884
2413.21	0.874
2422.43	0.873
2431.64	0.874
2440.85	0.87
2450.06	0.867
2459.27	0.869
2468.48	0.867
2477.69	0.867
2486.9	0.862
2496.11	0.8621
2505.32	0.867
2514.53	0.867
2523.74	0.869
2532.95	0.869
2542.16	0.87
2551.37	0.871
2560.58	0.869
2569.79	0.866
2579	0.864
2588.21	0.867
2597.43	0.869
2606.64	0.87
2615.85	0.87
2625.06	0.865
2634.27	0.865
2643.48	0.864
2652.69	0.862
2661.9	0.862
2671.11	0.86
2680.32	0.858
2689.53	0.858
2698.74	0.856
2707.95	0.8559
2717.16	0.854
2726.37	0.854
2735.58	0.856
2744.79	0.857
2754	0.86
2763.21	0.861
2772.43	0.861
2781.64	0.858
2790.85	0.854
2800.06	0.8519
2809.27	0.844
2818.48	0.839
2827.69	0.8349
2836.9	0.8149
2846.11	0.7938
2855.32	0.7292
2864.53	0.6296
2873.74	0.5895
2882.95	0.6587
2892.16	0.7319
2901.37	0.7199
2910.58	0.7039
2919.79	0.6297
2929	0.514
2938.21	0.4963
2947.43	0.5716
2956.64	0.4875
2965.85	0.4575
2975.06	0.54
2984.27	0.6264
2993.48	0.694
3002.69	0.6527
3011.9	0.615
3021.11	0.618
3030.32	0.6391
3039.53	0.7345
3048.74	0.7852
3057.95	0.793
3067.16	0.7849
3076.37	0.7761
3085.58	0.7749
3094.79	0.7145
3104	0.7263
3113.22	0.8002
3122.43	0.8241
3131.64	0.835
3140.85	0.8411
3150.06	0.847
3159.27	0.849
3168.48	0.849
3177.69	0.85
3186.9	0.853
3196.11	0.856
3205.32	0.861
3214.53	0.862
3223.74	0.861
3232.95	0.864
3242.16	0.865
3251.37	0.865
3260.58	0.858
3269.79	0.853
3279	0.85
3288.22	0.852
3297.43	0.853
3306.64	0.853
3315.85	0.857
3325.06	0.8581
3334.27	0.862
3343.48	0.865
3352.69	0.865
3361.9	0.865
3371.11	0.865
3380.32	0.865
3389.53	0.866
3398.74	0.867
3407.95	0.867
3417.16	0.867
3426.37	0.867
3435.58	0.867
3444.79	0.869
3454	0.87
3463.22	0.871
3472.43	0.871
3481.64	0.871
3490.85	0.871
3500.06	0.871
3509.27	0.871
3518.48	0.871
3527.69	0.871
3536.9	0.871
3546.11	0.873
3555.32	0.877
3564.53	0.875
3573.74	0.867
3582.95	0.8711
3592.16	0.886
3601.37	0.886
3610.58	0.884
3619.79	0.884
3629	0.882
3638.22	0.877
3647.43	0.874
3656.64	0.877
3665.85	0.878
3675.06	0.881
3684.27	0.882
3693.48	0.882
3702.69	0.882
3711.9	0.881
3721.11	0.881
3730.32	0.881
3739.53	0.881
3748.74	0.881
3757.95	0.878
3767.16	0.879
3776.37	0.881
3785.58	0.882
3794.79	0.884
3804	0.886
3813.22	0.886
3822.43	0.883
3831.64	0.879
3840.85	0.879
3850.06	0.879
3859.27	0.881
3868.48	0.881
3877.69	0.878
3886.9	0.875
3896.11	0.877
3905.32	0.878
3914.53	0.878
3923.74	0.878
3932.95	0.878
3942.16	0.878
3951.37	0.878
3960.58	0.877
3969.79	0.875
3979	0.874
3988.22	0.871
