Infrared Spectrum: Benzamide, 2,5-dichloro-N-cyanomethyl-3-nitro-
Formula: C9 H5 Cl2 N3 O3
CAS: 22978-18-3
State: SOLID (NUJOL MULL)
Melting point: 176 C
Class: COBLENTZ III
Instrument: PERKIN-ELMER 421 (GRATING)
Instrument parameters: GRATINGS: 1999 CM^-^1
Sampling: TRANSMISSION
Resolution: 2
Origin: ABBOTT LABORATORIES - WASHBURN
1/CM	TRANSMITTANCE
686	0.5913
695	0.5237
704	0.505
713	0.6045
722	0.7022
731	0.7388
740	0.7552
749	0.7612
758	0.7888
767	0.6715
776	0.8487
785	0.8714
794	0.8729
803	0.8714
812	0.8726
821	0.8678
830	0.8641
839	0.8599
848	0.852
857	0.8218
866	0.7207
875	0.5671
884	0.6499
893	0.8021
902	0.7286
911	0.7863
920	0.763
929	0.8261
938	0.8369
947	0.8356
956	0.8267
965	0.8169
974	0.8132
983	0.7675
992	0.6097
1001	0.6987
1010	0.8102
1019	0.8262
1028	0.8217
1037	0.7923
1046	0.7101
1055	0.7438
1064	0.7786
1073	0.7526
1082	0.7712
1091	0.8048
1100	0.7975
1109	0.7713
1118	0.6905
1127	0.5295
1136	0.7283
1145	0.7436
1154	0.7353
1163	0.7196
1172	0.677
1181	0.6549
1190	0.746
1199	0.7352
1208	0.7155
1217	0.6972
1226	0.6711
1235	0.6668
1244	0.6378
1253	0.5674
1262	0.6059
1271	0.6226
1280	0.5566
1289	0.4166
1298	0.4963
1307	0.5905
1316	0.6003
1325	0.5682
1334	0.4224
1343	0.3549
1352	0.3404
1361	0.3216
1370	0.3624
1379	0.5317
1388	0.626
1397	0.6368
1406	0.608
1415	0.5483
1424	0.3916
1433	0.3295
1442	0.3003
1451	0.2494
1460	0.2874
1469	0.4974
1478	0.5497
1487	0.5309
1496	0.4702
1505	0.3642
1514	0.2358
1523	0.1533
1532	0.184
1541	0.2361
1550	0.4575
1559	0.5052
1568	0.6298
1577	0.5902
1586	0.6161
1595	0.6651
1604	0.644
1613	0.5986
1622	0.5278
1631	0.4141
1640	0.327
1649	0.1297
1658	0.1466
1667	0.3579
1676	0.4457
1685	0.6482
1694	0.7137
1703	0.7734
1712	0.8091
1721	0.8254
1730	0.8372
1739	0.8449
1748	0.8437
1757	0.842
1766	0.8439
1775	0.8473
1784	0.8509
1793	0.8525
1802	0.8492
1811	0.846
1820	0.8425
1829	0.8399
1838	0.8383
1847	0.8383
1856	0.8423
1865	0.8417
1874	0.8396
1883	0.8374
1892	0.8342
1901	0.8306
1910	0.8287
1919	0.8271
1928	0.8277
1937	0.8289
1946	0.8223
1955	0.8196
1964	0.8156
1973	0.8114
1982	0.8011
1991	0.8084
2000	0.8245
2009	0.8204
2018	0.8181
2027	0.8159
2036	0.8143
2045	0.8127
2054	0.8109
2063	0.8081
2072	0.8083
2081	0.8051
2090	0.8019
2099	0.798
2108	0.7934
2117	0.7895
2126	0.7861
2135	0.7833
2144	0.781
2153	0.7794
2162	0.7778
2171	0.7761
2180	0.7745
2189	0.7729
2198	0.7713
2207	0.7697
2216	0.7682
2225	0.7664
2234	0.7637
2243	0.7549
2252	0.7502
2261	0.7617
2270	0.7627
2279	0.7614
2288	0.7593
2297	0.7565
2306	0.7536
2315	0.7509
2324	0.7482
2333	0.7475
2342	0.7473
2351	0.7464
2360	0.7443
2369	0.7418
2378	0.7389
2387	0.7365
2396	0.7338
2405	0.7305
2414	0.7278
2423	0.7254
2432	0.7236
2441	0.7231
2450	0.7238
2459	0.7232
2468	0.7211
2477	0.7187
2486	0.7164
2495	0.7137
2504	0.711
2513	0.7065
2522	0.7026
2531	0.6991
2540	0.6956
2549	0.6929
2558	0.6898
2567	0.6818
2576	0.677
2585	0.6731
2594	0.6695
2603	0.666
2612	0.6626
2621	0.6607
2630	0.6575
2639	0.6517
2648	0.6488
2657	0.6464
2666	0.645
2675	0.6435
2684	0.642
2693	0.6407
2702	0.6367
2711	0.6277
2720	0.625
2729	0.628
2738	0.6312
2747	0.6288
2756	0.6246
2765	0.6208
2774	0.6081
2783	0.5884
2792	0.5694
2801	0.5448
2810	0.5111
2819	0.4572
2828	0.3319
2837	0.1422
2846	0.0645
2855	0.0763
2864	0.0926
2873	0.1182
2882	0.1039
2891	0.0662
2900	0.0385
2909	0.0225
2918	0.0185
2927	0.0285
2936	0.0404
2945	0.0416
2954	0.0578
2963	0.1188
2972	0.2289
2981	0.3244
2990	0.3638
2999	0.396
3008	0.4223
3017	0.432
3026	0.431
3035	0.4217
3044	0.3971
3053	0.363
3062	0.3494
3071	0.4069
3080	0.4227
3089	0.4824
3098	0.4953
3107	0.4934
3116	0.4891
3125	0.4863
3134	0.4894
3143	0.4659
3152	0.4607
3161	0.4561
3170	0.4438
3179	0.4237
3188	0.4018
3197	0.379
3206	0.355
3215	0.3336
3224	0.3086
3233	0.2808
3242	0.2523
3251	0.2333
3260	0.2324
3269	0.2485
3278	0.3057
3287	0.3557
3296	0.397
3305	0.455
3314	0.5059
3323	0.5482
3332	0.5729
3341	0.5864
3350	0.5944
3359	0.6
3368	0.6036
3377	0.6038
3386	0.6033
3395	0.6021
3404	0.5998
3413	0.5974
3422	0.595
3431	0.5932
3440	0.5911
3449	0.5891
3458	0.5877
3467	0.5863
3476	0.5848
3485	0.5832
3494	0.5816
3503	0.5791
3512	0.5765
3521	0.574
3530	0.572
3539	0.5704
3548	0.5688
3557	0.5671
3566	0.5654
3575	0.5636
3584	0.5617
3593	0.5595
3602	0.554
3611	0.55
3620	0.5476
3629	0.5465
3638	0.5453
3647	0.5444
3656	0.5437
3665	0.5429
3674	0.5421
3683	0.5403
3692	0.5385
3701	0.5367
3710	0.535
3719	0.5334
3728	0.5317
3737	0.5301
3746	0.5287
3755	0.5276
3764	0.5265
3773	0.5254
3782	0.5241
3791	0.5229
3800	0.5216
3809	0.5204
3818	0.5194
3827	0.5184
3836	0.5174
3845	0.5164
3854	0.5162
3863	0.516
3872	0.5155
3881	0.5146
3890	0.5136
3899	0.5101
3908	0.5063
3917	0.5023
3926	0.5019
3935	0.5019
3944	0.502
3953	0.5013
3962	0.5004
3971	0.4993
3980	0.4988
3989	0.4991
3998	0.4993
