Infrared Spectrum: BENZAMIDE, 2-CHLORO-N-CYANOMETHYL-4-NITRO-N-PHENYL-
Formula: C15 H10 Cl N3 O3
CAS: 22977-96-4
State: SOLUTION (7% CHCl3) VS SOLVENT
Melting point: 92 C
Class: COBLENTZ III
Instrument: PERKIN-ELMER 421 (GRATING)
Instrument parameters: GRATINGS: 1999 CM^-^1
Sampling: TRANSMISSION
Path length: 0.01 CM
Resolution: 2
Origin: ABBOTT LABORATORIES - WASHBURN
1/CM	TRANSMITTANCE
669.014	0.887
678.382	0.8653
687.749	0.671
697.117	0.6518
706.485	0.9609
715.852	0.963
725.22	0.963
734.588	0.963
743.955	0.963
753.323	0.963
762.691	0.963
772.058	0.963
781.426	0.963
790.794	0.963
800.162	0.963
809.529	0.9487
818.897	0.8975
828.265	0.7898
837.632	0.6516
847	0.8169
856.368	0.913
865.735	0.9114
875.103	0.8974
884.471	0.7134
893.838	0.5483
903.206	0.769
912.574	0.8316
921.941	0.9294
931.309	0.9351
940.677	0.915
950.044	0.9101
959.412	0.8968
968.78	0.8852
978.147	0.7684
987.515	0.5677
996.883	0.852
1006.25	0.867
1015.62	0.8136
1024.99	0.8617
1034.35	0.8475
1043.72	0.7528
1053.09	0.6655
1062.46	0.815
1071.82	0.7468
1081.19	0.8406
1090.56	0.8563
1099.93	0.8456
1109.29	0.8003
1118.66	0.7264
1128.03	0.7864
1137.4	0.7074
1146.77	0.804
1156.13	0.6959
1165.5	0.605
1174.87	0.8016
1184.24	0.875
1193.6	0.8037
1202.97	0.6384
1212.34	0.6099
1221.71	0.6199
1231.07	0.6637
1240.44	0.6751
1249.81	0.609
1259.18	0.773
1268.55	0.7614
1277.91	0.5347
1287.28	0.3505
1296.65	0.3715
1306.02	0.3446
1315.38	0.5542
1324.75	0.6341
1334.12	0.4019
1343.49	0.1071
1352.85	0.163
1362.22	0.3892
1371.59	0.3429
1380.96	0.2781
1390.33	0.3139
1399.69	0.4664
1409.06	0.3925
1418.43	0.4705
1427.8	0.7515
1437.16	0.822
1446.53	0.8049
1455.9	0.7471
1465.27	0.7646
1474.63	0.6449
1484	0.6422
1493.37	0.3962
1502.74	0.5604
1512.11	0.2765
1521.47	0.1384
1530.84	0.2054
1540.21	0.5648
1549.58	0.7501
1558.94	0.8134
1568.31	0.802
1577.68	0.7046
1587.05	0.4304
1596.41	0.3956
1605.78	0.794
1615.15	0.79
1624.52	0.7717
1633.89	0.6856
1643.25	0.4014
1652.62	0.219
1661.99	0.1469
1671.36	0.102
1680.72	0.2425
1690.09	0.4103
1699.46	0.8024
1708.83	0.8655
1718.19	0.889
1727.56	0.9036
1736.93	0.9019
1746.3	0.9077
1755.66	0.9088
1765.03	0.917
1774.4	0.9152
1783.77	0.912
1793.14	0.9097
1802.5	0.9187
1811.87	0.93
1821.24	0.93
1830.61	0.93
1839.97	0.9323
1849.34	0.93
1858.71	0.927
1868.08	0.929
1877.44	0.925
1886.81	0.925
1896.18	0.927
1905.55	0.921
1914.92	0.919
1924.28	0.925
1933.65	0.9265
1943.02	0.92
1952.39	0.918
1961.75	0.9248
1971.12	0.9264
1980.49	0.929
1989.86	0.926
1999.22	0.9213
2008.59	0.9127
2017.96	0.906
2027.33	0.9037
2036.7	0.9
2046.06	0.898
2055.43	0.898
2064.8	0.898
2074.17	0.897
2083.53	0.897
2092.9	0.897
2102.27	0.897
2111.64	0.897
2121	0.897
2130.37	0.897
2139.74	0.897
2149.11	0.897
2158.48	0.896
2167.84	0.896
2177.21	0.896
2186.58	0.895
2195.95	0.895
2205.31	0.893
2214.68	0.891
2224.05	0.89
2233.42	0.889
2242.78	0.8877
2252.15	0.887
2261.52	0.8873
2270.89	0.889
2280.25	0.8903
2289.62	0.891
2298.99	0.891
2308.36	0.891
2317.73	0.893
2327.09	0.893
2336.46	0.893
2345.83	0.894
2355.2	0.894
2364.56	0.893
2373.93	0.893
2383.3	0.891
2392.67	0.89
2402.03	0.8897
2411.4	0.8797
2420.77	0.879
2430.14	0.88
2439.51	0.877
2448.87	0.8797
2458.24	0.8783
2467.61	0.88
2476.98	0.877
2486.34	0.8727
2495.71	0.869
2505.08	0.868
2514.45	0.8693
2523.81	0.869
2533.18	0.869
2542.55	0.869
2551.92	0.869
2561.29	0.8687
2570.65	0.8693
2580.02	0.869
2589.39	0.8677
2598.76	0.865
2608.12	0.869
2617.49	0.873
2626.86	0.869
2636.23	0.8687
2645.59	0.867
2654.96	0.867
2664.33	0.868
2673.7	0.867
2683.07	0.867
2692.43	0.869
2701.8	0.8617
2711.17	0.862
2720.54	0.8653
2729.9	0.8677
2739.27	0.869
2748.64	0.869
2758.01	0.869
2767.37	0.869
2776.74	0.869
2786.11	0.87
2795.48	0.87
2804.85	0.8677
2814.21	0.862
2823.58	0.861
2832.95	0.859
2842.32	0.8587
2851.68	0.8597
2861.05	0.8557
2870.42	0.855
2879.79	0.8607
2889.15	0.8683
2898.52	0.87
2907.89	0.872
2917.26	0.872
2926.62	0.864
2935.99	0.851
2945.36	0.8543
2954.73	0.869
2964.1	0.8533
2973.46	0.8153
2982.83	0.797
2992.2	0.796
3001.57	0.771
3010.93	0.644
3020.3	0.643
3029.67	0.6483
3039.04	0.7143
3048.4	0.7607
3057.77	0.768
3067.14	0.767
3076.51	0.767
3085.88	0.7687
3095.24	0.7283
3104.61	0.71
3113.98	0.7857
3123.35	0.8273
3132.71	0.8347
3142.08	0.841
3151.45	0.84
3160.82	0.84
3170.18	0.84
3179.55	0.841
3188.92	0.845
3198.29	0.8453
3207.66	0.8477
3217.02	0.847
3226.39	0.844
3235.76	0.844
3245.13	0.84
3254.49	0.837
3263.86	0.838
3273.23	0.8377
3282.6	0.8327
3291.96	0.83
3301.33	0.831
3310.7	0.8293
3320.07	0.829
3329.44	0.83
3338.8	0.832
3348.17	0.837
3357.54	0.836
3366.91	0.8373
3376.27	0.84
3385.64	0.844
3395.01	0.843
3404.38	0.841
3413.74	0.845
3423.11	0.845
3432.48	0.8463
3441.85	0.848
3451.21	0.8503
3460.58	0.8533
3469.95	0.854
3479.32	0.856
3488.69	0.856
3498.05	0.858
3507.42	0.856
3516.79	0.8567
3526.16	0.8637
3535.52	0.865
3544.89	0.865
3554.26	0.863
3563.63	0.863
3572.99	0.8613
3582.36	0.866
3591.73	0.869
3601.1	0.87
3610.47	0.87
3619.83	0.87
3629.2	0.872
3638.57	0.8723
3647.94	0.873
3657.3	0.873
3666.67	0.873
3676.04	0.873
3685.41	0.875
3694.77	0.875
3704.14	0.875
3713.51	0.874
3722.88	0.874
3732.25	0.873
3741.61	0.8753
3750.98	0.879
3760.35	0.8803
3769.72	0.881
3779.08	0.877
3788.45	0.879
3797.82	0.879
3807.19	0.877
3816.55	0.878
3825.92	0.875
3835.29	0.873
3844.66	0.875
3854.03	0.875
3863.39	0.876
3872.76	0.876
3882.13	0.874
3891.5	0.8743
3900.86	0.874
3910.23	0.874
3919.6	0.874
3928.97	0.874
3938.33	0.875
3947.7	0.874
3957.07	0.873
3966.44	0.874
3975.81	0.875
3985.17	0.875
3994.54	0.8747
4003.91	0.874
