Infrared Spectrum: Benzamide, 2,5-dichloro-N-cyanomethyl-N-ethyl-3-nitro-
Formula: C11 H9 Cl2 N3 O3
CAS: 22978-19-4
State: SOLUTION (7% CHCl3) VS SOLVENT
Melting point: 100 C
Class: COBLENTZ III
Instrument: PERKIN-ELMER 421 (GRATING)
Instrument parameters: GRATINGS: 1999 CM^-^1
Sampling: TRANSMISSION
Path length: 0.01 CM
Resolution: 2
Origin: ABBOTT LABORATORIES - WASHBURN
1/CM	TRANSMITTANCE
652	0.9356
661	0.9887
670	0.9933
679	0.9779
688	0.9855
697	0.9751
706	0.9426
715	0.9142
724	0.9109
733	0.9132
742	0.9112
751	0.9104
760	0.911
769	0.9138
778	0.9175
787	0.9219
796	0.921
805	0.9199
814	0.9178
823	0.9096
832	0.9097
841	0.9136
850	0.8909
859	0.8544
868	0.7873
877	0.4844
886	0.6744
895	0.6968
904	0.6569
913	0.8098
922	0.9122
931	0.8929
940	0.8842
949	0.8838
958	0.8615
967	0.7265
976	0.7283
985	0.8181
994	0.8141
1003	0.758
1012	0.8476
1021	0.8422
1030	0.8347
1039	0.8168
1048	0.7505
1057	0.6885
1066	0.7208
1075	0.6348
1084	0.7737
1093	0.7633
1102	0.6268
1111	0.4825
1120	0.4015
1129	0.686
1138	0.7707
1147	0.8085
1156	0.8076
1165	0.7658
1174	0.6225
1183	0.6652
1192	0.6883
1201	0.6327
1210	0.6366
1219	0.6673
1228	0.6873
1237	0.6872
1246	0.5604
1255	0.4026
1264	0.4752
1273	0.4657
1282	0.2785
1291	0.457
1300	0.5709
1309	0.6769
1318	0.7034
1327	0.6848
1336	0.287
1345	0.219
1354	0.2245
1363	0.5747
1372	0.6539
1381	0.526
1390	0.617
1399	0.4889
1408	0.3887
1417	0.2508
1426	0.3425
1435	0.3297
1444	0.3861
1453	0.3772
1462	0.4322
1471	0.4843
1480	0.701
1489	0.7697
1498	0.746
1507	0.7091
1516	0.6193
1525	0.4718
1534	0.2036
1543	0.1141
1552	0.4596
1561	0.5681
1570	0.7143
1579	0.6621
1588	0.6043
1597	0.7352
1606	0.7296
1615	0.6968
1624	0.6597
1633	0.3818
1642	0.0921
1651	0.0606
1660	0.0743
1669	0.2159
1678	0.5915
1687	0.7835
1696	0.8213
1705	0.8383
1714	0.8545
1723	0.8678
1732	0.8683
1741	0.8671
1750	0.8681
1759	0.8698
1768	0.8645
1777	0.8624
1786	0.8659
1795	0.8706
1804	0.876
1813	0.8826
1822	0.8876
1831	0.8893
1840	0.8903
1849	0.8913
1858	0.8918
1867	0.8924
1876	0.8929
1885	0.8935
1894	0.8911
1903	0.8898
1912	0.8901
1921	0.8913
1930	0.8899
1939	0.8864
1948	0.8943
1957	0.8924
1966	0.8902
1975	0.8882
1984	0.8849
1993	0.8702
2002	0.8791
2011	0.879
2020	0.8801
2029	0.8811
2038	0.8815
2047	0.8817
2056	0.8819
2065	0.8822
2074	0.8824
2083	0.8827
2092	0.8832
2101	0.8805
2110	0.8837
2119	0.885
2128	0.8843
2137	0.8816
2146	0.8833
2155	0.8837
2164	0.8831
2173	0.8802
2182	0.8768
2191	0.8839
2200	0.8841
2209	0.8851
2218	0.8866
2227	0.8856
2236	0.8754
2245	0.8765
2254	0.8788
2263	0.8819
2272	0.8854
2281	0.8886
2290	0.8946
2299	0.9014
2308	0.9035
2317	0.9047
2326	0.9057
2335	0.906
2344	0.9069
2353	0.908
2362	0.9072
2371	0.9083
2380	0.9183
2389	0.9375
2398	0.9229
2407	0.8901
2416	0.8786
2425	0.8768
2434	0.8723
2443	0.8687
2452	0.8677
2461	0.8679
2470	0.8684
2479	0.8699
2488	0.8705
2497	0.8665
2506	0.866
2515	0.8653
2524	0.8644
2533	0.8642
2542	0.8659
2551	0.8686
2560	0.869
2569	0.8689
2578	0.8688
2587	0.8685
2596	0.8682
2605	0.8678
2614	0.8675
2623	0.8674
2632	0.8675
2641	0.8676
2650	0.8676
2659	0.8675
2668	0.8674
2677	0.8675
2686	0.8677
2695	0.8678
2704	0.8677
2713	0.8676
2722	0.8673
2731	0.8669
2740	0.8668
2749	0.8669
2758	0.8669
2767	0.867
2776	0.8673
2785	0.8675
2794	0.8671
2803	0.8667
2812	0.8665
2821	0.8664
2830	0.8747
2839	0.8836
2848	0.8842
2857	0.8822
2866	0.8634
2875	0.8299
2884	0.8297
2893	0.8389
2902	0.854
2911	0.8681
2920	0.87
2929	0.8222
2938	0.8092
2947	0.8532
2956	0.8591
2965	0.7792
2974	0.6962
2983	0.6683
2992	0.6978
3001	0.7364
3010	0.78
3019	0.7701
3028	0.7875
3037	0.8416
3046	0.8643
3055	0.854
3064	0.7998
3073	0.733
3082	0.8154
3091	0.8535
3100	0.8678
3109	0.8705
3118	0.8718
3127	0.8777
3136	0.8827
3145	0.8869
3154	0.8908
3163	0.8945
3172	0.8981
3181	0.9
3190	0.9012
3199	0.9022
3208	0.9027
3217	0.9032
3226	0.9034
3235	0.9031
3244	0.9026
3253	0.9014
3262	0.8991
3271	0.8957
3280	0.8938
3289	0.8935
3298	0.8932
3307	0.8929
3316	0.894
3325	0.8954
3334	0.897
3343	0.8985
3352	0.8976
3361	0.8947
3370	0.8933
3379	0.8925
3388	0.8923
3397	0.892
3406	0.8915
3415	0.8911
3424	0.8912
3433	0.8918
3442	0.8917
3451	0.891
3460	0.8906
3469	0.8898
3478	0.8879
3487	0.8868
3496	0.8866
3505	0.8866
3514	0.8867
3523	0.8867
3532	0.8868
3541	0.8867
3550	0.8865
3559	0.8864
3568	0.8864
3577	0.8872
3586	0.8868
3595	0.887
3604	0.8887
3613	0.892
3622	0.8937
3631	0.8899
3640	0.8869
3649	0.8853
3658	0.8851
3667	0.8898
3676	0.8968
3685	0.8962
3694	0.8939
3703	0.8916
3712	0.8901
3721	0.8893
3730	0.8897
3739	0.8928
3748	0.8955
3757	0.895
3766	0.8945
3775	0.8943
3784	0.8943
3793	0.8933
3802	0.8886
3811	0.886
3820	0.8832
3829	0.8904
3838	0.8917
3847	0.8919
3856	0.8916
3865	0.8916
3874	0.8914
3883	0.8909
3892	0.8912
3901	0.8921
3910	0.8932
3919	0.8944
3928	0.8957
3937	0.892
3946	0.8862
3955	0.884
3964	0.8847
3973	0.8858
3982	0.8869
3991	0.8861
4000	0.882
