Infrared Spectrum: Benzamide, 2-chloro-N-cyanomethyl-N-cyclopropyl-4-nitro-
Formula: C12 H10 Cl N3 O3
CAS: 22977-92-0
State: SOLUTION (7% CHCl3) VS SOLVENT
Melting point: 136 C
Class: COBLENTZ III
Instrument: PERKIN-ELMER 421 (GRATING)
Instrument parameters: GRATINGS: 1999 CM^-^1
Sampling: TRANSMISSION
Path length: 0.01 CM
Resolution: 2
Origin: ABBOTT LABORATORIES - WASHBURN
1/CM	TRANSMITTANCE
797	0.9871
806	0.9358
815	0.8549
824	0.6548
833	0.4853
842	0.6526
851	0.8911
860	0.8932
869	0.8839
878	0.6686
887	0.5235
896	0.5713
905	0.8282
914	0.8785
923	0.8876
932	0.8815
941	0.861
950	0.8936
959	0.8972
968	0.8889
977	0.7707
986	0.5792
995	0.8005
1004	0.857
1013	0.8286
1022	0.7679
1031	0.533
1040	0.7434
1049	0.6347
1058	0.721
1067	0.7586
1076	0.7874
1085	0.8113
1094	0.7899
1103	0.6745
1112	0.6479
1121	0.7528
1130	0.6385
1139	0.7744
1148	0.7836
1157	0.6634
1166	0.6144
1175	0.7755
1184	0.8305
1193	0.7706
1202	0.6335
1211	0.6083
1220	0.5842
1229	0.5781
1238	0.597
1247	0.5085
1256	0.7094
1265	0.6827
1274	0.4307
1283	0.2893
1292	0.2953
1301	0.3154
1310	0.6187
1319	0.6062
1328	0.53
1337	0.1284
1346	0.0804
1355	0.201
1364	0.1681
1373	0.4019
1382	0.393
1391	0.2642
1400	0.2603
1409	0.249
1418	0.2643
1427	0.5383
1436	0.6659
1445	0.6694
1454	0.7027
1463	0.693
1472	0.6157
1481	0.7242
1490	0.7527
1499	0.6598
1508	0.4251
1517	0.1405
1526	0.1387
1535	0.33
1544	0.6661
1553	0.8048
1562	0.8023
1571	0.7848
1580	0.6723
1589	0.6285
1598	0.7615
1607	0.7778
1616	0.747
1625	0.7078
1634	0.4477
1643	0.2187
1652	0.0875
1661	0.0713
1670	0.1806
1679	0.5086
1688	0.7214
1697	0.8174
1706	0.8588
1715	0.8854
1724	0.8993
1733	0.9101
1742	0.9184
1751	0.9197
1760	0.919
1769	0.916
1778	0.9089
1787	0.9084
1796	0.9151
1805	0.9241
1814	0.926
1823	0.932
1832	0.9322
1841	0.9337
1850	0.9324
1859	0.9335
1868	0.9317
1877	0.9279
1886	0.9252
1895	0.9223
1904	0.9166
1913	0.9114
1922	0.917
1931	0.9233
1940	0.9288
1949	0.9296
1958	0.9296
1967	0.9292
1976	0.9283
1985	0.9249
1994	0.9233
2003	0.9115
2012	0.9091
2021	0.9094
2030	0.911
2039	0.9112
2048	0.9104
2057	0.9089
2066	0.9078
2075	0.9068
2084	0.9063
2093	0.9071
2102	0.9077
2111	0.9088
2120	0.9076
2129	0.9072
2138	0.9096
2147	0.9119
2156	0.9115
2165	0.911
2174	0.9098
2183	0.908
2192	0.9045
2201	0.9028
2210	0.9036
2219	0.9013
2228	0.8998
2237	0.8999
2246	0.9004
2255	0.9027
2264	0.9043
2273	0.9062
2282	0.9092
2291	0.9145
2300	0.9189
2309	0.9223
2318	0.9255
2327	0.9266
2336	0.9262
2345	0.9259
2354	0.9254
2363	0.9227
2372	0.921
2381	0.9278
2390	0.9375
2399	0.9169
2408	0.9015
2417	0.8986
2426	0.896
2435	0.8896
2444	0.8846
2453	0.8819
2462	0.8819
2471	0.8804
2480	0.8713
2489	0.8669
2498	0.873
2507	0.8749
2516	0.8759
2525	0.8761
2534	0.876
2543	0.8763
2552	0.877
2561	0.8748
2570	0.8753
2579	0.8761
2588	0.8769
2597	0.8781
2606	0.8792
2615	0.8791
2624	0.8784
2633	0.877
2642	0.8755
2651	0.8745
2660	0.876
2669	0.8738
2678	0.8709
2687	0.8696
2696	0.8691
2705	0.8692
2714	0.8694
2723	0.8703
2732	0.8714
2741	0.8729
2750	0.874
2759	0.8747
2768	0.8747
2777	0.8744
2786	0.874
2795	0.8734
2804	0.8729
2813	0.8721
2822	0.8704
2831	0.8684
2840	0.8673
2849	0.8669
2858	0.8672
2867	0.8683
2876	0.871
2885	0.8766
2894	0.8879
2903	0.8968
2912	0.9013
2921	0.9006
2930	0.8732
2939	0.856
2948	0.8837
2957	0.8935
2966	0.8462
2975	0.8036
2984	0.7742
2993	0.7447
3002	0.6565
3011	0.6004
3020	0.5893
3029	0.6378
3038	0.7414
3047	0.7836
3056	0.7931
3065	0.7844
3074	0.7648
3083	0.7567
3092	0.6776
3101	0.6621
3110	0.7771
3119	0.8139
3128	0.8338
3137	0.8426
3146	0.8445
3155	0.8455
3164	0.847
3173	0.8486
3182	0.8507
3191	0.8512
3200	0.851
3209	0.8508
3218	0.8511
3227	0.851
3236	0.8509
3245	0.8504
3254	0.8496
3263	0.8486
3272	0.847
3281	0.8445
3290	0.8413
3299	0.8384
3308	0.8366
3317	0.8387
3326	0.8409
3335	0.8445
3344	0.8498
3353	0.8529
3362	0.8536
3371	0.8552
3380	0.8557
3389	0.8568
3398	0.8579
3407	0.8587
3416	0.8598
3425	0.8592
3434	0.8584
3443	0.8588
3452	0.8624
3461	0.8645
3470	0.8654
3479	0.8657
3488	0.8657
3497	0.866
3506	0.8666
3515	0.8672
3524	0.8678
3533	0.8683
3542	0.8688
3551	0.8693
3560	0.8697
3569	0.8693
3578	0.872
3587	0.8848
3596	0.8875
3605	0.8896
3614	0.8917
3623	0.8902
3632	0.8853
3641	0.8846
3650	0.8818
3659	0.8818
3668	0.8867
3677	0.8863
3686	0.8866
3695	0.8864
3704	0.8917
3713	0.8925
3722	0.8934
3731	0.8935
3740	0.8934
3749	0.8917
3758	0.8898
3767	0.889
3776	0.8891
3785	0.8918
3794	0.8955
3803	0.8912
3812	0.8918
3821	0.8945
3830	0.8918
3839	0.8876
3848	0.8869
3857	0.8869
3866	0.8871
3875	0.8876
3884	0.8878
3893	0.8874
3902	0.8867
3911	0.8857
3920	0.8846
3929	0.8841
3938	0.8837
3947	0.8835
3956	0.8832
3965	0.8827
3974	0.8826
3983	0.8834
3992	0.8816
