Infrared Spectrum: Benzamide, 2-chloro-N-(cyanomethyl)-N-cyclohexyl-4-nitro-
Formula: C15 H16 Cl N3 O3
CAS: 22977-95-3
State: SOLUTION (7% CHCl3) VS SOLVENT
Melting point: 169 C
Class: COBLENTZ III
Instrument: PERKIN-ELMER 421 (GRATING)
Instrument parameters: GRATINGS: 1999 CM^-^1
Sampling: TRANSMISSION
Path length: 0.01 CM
Resolution: 2
Origin: ABBOTT LABORATORIES - WASHBURN
1/CM	TRANSMITTANCE
803	0.9606
811	0.9484
819	0.9274
827	0.8596
835	0.6339
843	0.8252
851	0.9192
859	0.9087
867	0.8602
875	0.732
883	0.7813
891	0.4435
899	0.7018
907	0.7797
915	0.8047
923	0.9269
931	0.9303
939	0.922
947	0.9133
955	0.8651
963	0.8353
971	0.853
979	0.7746
987	0.7399
995	0.6276
1003	0.7302
1011	0.8335
1019	0.8289
1027	0.8074
1035	0.8152
1043	0.7149
1051	0.6996
1059	0.8242
1067	0.8265
1075	0.8303
1083	0.833
1091	0.8425
1099	0.8445
1107	0.7838
1115	0.737
1123	0.6997
1131	0.4852
1139	0.6144
1147	0.7481
1155	0.6906
1163	0.6666
1171	0.7326
1179	0.7084
1187	0.7982
1195	0.718
1203	0.6305
1211	0.6218
1219	0.6224
1227	0.6194
1235	0.5877
1243	0.5558
1251	0.731
1259	0.7253
1267	0.7244
1275	0.7125
1283	0.5064
1291	0.4673
1299	0.5202
1307	0.5784
1315	0.418
1323	0.5004
1331	0.4562
1339	0.1529
1347	0.1176
1355	0.3232
1363	0.4852
1371	0.6118
1379	0.6231
1387	0.5992
1395	0.5428
1403	0.3788
1411	0.416
1419	0.2732
1427	0.3353
1435	0.577
1443	0.5907
1451	0.4617
1459	0.643
1467	0.6419
1475	0.6042
1483	0.742
1491	0.7601
1499	0.6001
1507	0.5016
1515	0.2152
1523	0.1737
1531	0.2313
1539	0.5921
1547	0.7245
1555	0.8126
1563	0.8151
1571	0.8064
1579	0.739
1587	0.6397
1595	0.6656
1603	0.7539
1611	0.7173
1619	0.6417
1627	0.4747
1635	0.234
1643	0.0912
1651	0.0946
1659	0.2162
1667	0.467
1675	0.7179
1683	0.7856
1691	0.8799
1699	0.8938
1707	0.8998
1715	0.9073
1723	0.9042
1731	0.9079
1739	0.9131
1747	0.9196
1755	0.9252
1763	0.9245
1771	0.9212
1779	0.9144
1787	0.9137
1795	0.92
1803	0.9267
1811	0.9316
1819	0.9328
1827	0.9313
1835	0.9325
1843	0.9343
1851	0.9327
1859	0.9303
1867	0.9317
1875	0.9329
1883	0.9346
1891	0.9334
1899	0.9313
1907	0.9246
1915	0.9194
1923	0.9223
1931	0.9287
1939	0.9303
1947	0.9284
1955	0.9274
1963	0.9271
1971	0.9276
1979	0.9295
1987	0.9318
1995	0.912
2003	0.8921
2011	0.8915
2019	0.8913
2027	0.8907
2035	0.89
2043	0.8894
2051	0.889
2059	0.8886
2067	0.8882
2075	0.8875
2083	0.8865
2091	0.8855
2099	0.8848
2107	0.8841
2115	0.8835
2123	0.8829
2131	0.8824
2139	0.8821
2147	0.8817
2155	0.8815
2163	0.8815
2171	0.8816
2179	0.8816
2187	0.8817
2195	0.8818
2203	0.8819
2211	0.8819
2219	0.8813
2227	0.8806
2235	0.8808
2243	0.8816
2251	0.8827
2259	0.8839
2267	0.8852
2275	0.8866
2283	0.888
2291	0.8895
2299	0.8909
2307	0.8926
2315	0.8945
2323	0.8954
2331	0.8963
2339	0.8972
2347	0.8979
2355	0.8983
2363	0.8987
2371	0.8996
2379	0.9008
2387	0.9047
2395	0.9013
2403	0.8891
2411	0.8809
2419	0.8772
2427	0.8749
2435	0.8731
2443	0.8719
2451	0.8704
2459	0.8689
2467	0.8674
2475	0.8651
2483	0.8543
2491	0.8612
2499	0.8666
2507	0.8653
2515	0.8639
2523	0.8636
2531	0.8667
2539	0.8677
2547	0.8676
2555	0.8667
2563	0.8658
2571	0.865
2579	0.8647
2587	0.8645
2595	0.8646
2603	0.8647
2611	0.865
2619	0.8653
2627	0.8629
2635	0.8606
2643	0.8586
2651	0.8571
2659	0.8568
2667	0.8578
2675	0.8584
2683	0.8586
2691	0.8584
2699	0.8582
2707	0.8584
2715	0.8587
2723	0.8591
2731	0.8598
2739	0.8605
2747	0.8619
2755	0.8633
2763	0.8615
2771	0.8576
2779	0.8532
2787	0.8483
2795	0.843
2803	0.8484
2811	0.845
2819	0.8395
2827	0.8322
2835	0.8089
2843	0.7687
2851	0.6022
2859	0.441
2867	0.6736
2875	0.7519
2883	0.7626
2891	0.734
2899	0.6573
2907	0.6425
2915	0.6304
2923	0.4763
2931	0.3174
2939	0.2846
2947	0.335
2955	0.4889
2963	0.6418
2971	0.7428
2979	0.7641
2987	0.7646
2995	0.7425
3003	0.6783
3011	0.6427
3019	0.6414
3027	0.6519
3035	0.7232
3043	0.7683
3051	0.8069
3059	0.8098
3067	0.8025
3075	0.796
3083	0.7963
3091	0.7642
3099	0.7171
3107	0.7605
3115	0.8121
3123	0.8299
3131	0.8356
3139	0.8407
3147	0.8424
3155	0.8427
3163	0.8429
3171	0.8427
3179	0.8422
3187	0.842
3195	0.842
3203	0.8419
3211	0.8417
3219	0.8415
3227	0.8407
3235	0.8397
3243	0.8387
3251	0.8377
3259	0.8358
3267	0.8337
3275	0.8329
3283	0.8326
3291	0.8331
3299	0.8343
3307	0.8355
3315	0.8369
3323	0.8381
3331	0.839
3339	0.8398
3347	0.8405
3355	0.841
3363	0.8412
3371	0.8415
3379	0.8417
3387	0.8418
3395	0.842
3403	0.8421
3411	0.8425
3419	0.8431
3427	0.8437
3435	0.8445
3443	0.8454
3451	0.8463
3459	0.8479
3467	0.8495
3475	0.8513
3483	0.8523
3491	0.852
3499	0.8517
3507	0.8515
3515	0.8515
3523	0.8526
3531	0.8534
3539	0.8541
3547	0.8546
3555	0.855
3563	0.855
3571	0.8532
3579	0.8507
3587	0.8581
3595	0.8638
3603	0.8655
3611	0.8664
3619	0.8671
3627	0.868
3635	0.8686
3643	0.8686
3651	0.8672
3659	0.8666
3667	0.8663
3675	0.8646
3683	0.8721
3691	0.8698
3699	0.8695
3707	0.872
3715	0.875
3723	0.8779
3731	0.8806
3739	0.8827
3747	0.8829
3755	0.8811
3763	0.879
3771	0.8766
3779	0.8764
3787	0.8761
3795	0.8755
3803	0.8748
3811	0.8743
3819	0.8739
3827	0.8737
3835	0.874
3843	0.8742
3851	0.8745
3859	0.8747
3867	0.875
3875	0.8754
3883	0.8757
3891	0.8763
3899	0.8769
3907	0.8775
3915	0.8775
3923	0.8774
3931	0.8759
3939	0.8739
3947	0.8737
3955	0.8735
3963	0.8727
3971	0.8718
3979	0.8711
3987	0.8722
3995	0.8736
