Infrared Spectrum: Benzamide, 2-chloro-N-(cyanomethyl)-N-ethyl-4-nitro-
Formula: C11 H10 Cl N3 O3
CAS: 22977-88-4
State: SOLUTION (7% CHCl3) VS SOLVENT
Melting point: 109 C
Class: COBLENTZ III
Instrument: PERKIN-ELMER 421 (GRATING)
Instrument parameters: GRATINGS: 1999 CM^-^1
Sampling: TRANSMISSION
Path length: 0.01 CM
Resolution: 2
Origin: ABBOTT LABORATORIES - WASHBURN
1/CM	TRANSMITTANCE
678	0.8839
687	0.8803
696	0.8701
705	0.8554
714	0.8476
723	0.8488
732	0.8498
741	0.8508
750	0.85
759	0.8491
768	0.8478
777	0.8461
786	0.8435
795	0.8365
804	0.8181
813	0.7866
822	0.697
831	0.6391
840	0.7438
849	0.7218
858	0.7367
867	0.7434
876	0.6709
885	0.466
894	0.6286
903	0.7339
912	0.8282
921	0.835
930	0.8168
939	0.7931
948	0.759
957	0.7171
966	0.6867
975	0.6916
984	0.7739
993	0.8012
1002	0.7945
1011	0.7793
1020	0.7514
1029	0.6748
1038	0.5778
1047	0.737
1056	0.694
1065	0.5896
1074	0.6466
1083	0.6317
1092	0.5408
1101	0.5895
1110	0.5206
1119	0.6047
1128	0.5634
1137	0.6948
1146	0.7026
1155	0.6882
1164	0.6924
1173	0.7108
1182	0.6754
1191	0.6129
1200	0.5719
1209	0.5633
1218	0.5619
1227	0.555
1236	0.5228
1245	0.6189
1254	0.5699
1263	0.4505
1272	0.3042
1281	0.3203
1290	0.4024
1299	0.5795
1308	0.6313
1317	0.5955
1326	0.3921
1335	0.1247
1344	0.1542
1353	0.3107
1362	0.5376
1371	0.5047
1380	0.4912
1389	0.5497
1398	0.4778
1407	0.3905
1416	0.2773
1425	0.2795
1434	0.4658
1443	0.4156
1452	0.5327
1461	0.5455
1470	0.4907
1479	0.5401
1488	0.6373
1497	0.5027
1506	0.2639
1515	0.131
1524	0.1424
1533	0.3768
1542	0.7078
1551	0.7261
1560	0.7172
1569	0.6702
1578	0.5804
1587	0.5767
1596	0.6787
1605	0.6774
1614	0.6454
1623	0.5327
1632	0.2131
1641	0.0649
1650	0.0602
1659	0.1615
1668	0.5244
1677	0.6943
1686	0.7594
1695	0.7965
1704	0.8209
1713	0.8313
1722	0.84
1731	0.8472
1740	0.8542
1749	0.8599
1758	0.8621
1767	0.8584
1776	0.854
1785	0.8577
1794	0.8649
1803	0.8671
1812	0.8677
1821	0.8708
1830	0.8721
1839	0.8719
1848	0.8716
1857	0.8708
1866	0.87
1875	0.8689
1884	0.8679
1893	0.8664
1902	0.8671
1911	0.8712
1920	0.8759
1929	0.8779
1938	0.8792
1947	0.8809
1956	0.8821
1965	0.8827
1974	0.8839
1983	0.8878
1992	0.8949
2001	0.8998
2010	0.9015
2019	0.9022
2028	0.9033
2037	0.9037
2046	0.9042
2055	0.9046
2064	0.905
2073	0.9053
2082	0.9054
2091	0.9056
2100	0.9056
2109	0.9055
2118	0.9055
2127	0.9051
2136	0.9045
2145	0.9042
2154	0.9043
2163	0.9044
2172	0.9043
2181	0.9042
2190	0.9041
2199	0.904
2208	0.904
2217	0.904
2226	0.9039
2235	0.9051
2244	0.9065
2253	0.9082
2262	0.9105
2271	0.9135
2280	0.9188
2289	0.9241
2298	0.9274
2307	0.9302
2316	0.9325
2325	0.9341
2334	0.9344
2343	0.9334
2352	0.9319
2361	0.931
2370	0.9325
2379	0.9387
2388	0.9461
2397	0.9326
2406	0.9035
2415	0.8978
2424	0.8979
2433	0.8972
2442	0.8959
2451	0.894
2460	0.8922
2469	0.8903
2478	0.8882
2487	0.8892
2496	0.8914
2505	0.8919
2514	0.8916
2523	0.8911
2532	0.8906
2541	0.8908
2550	0.8911
2559	0.8914
2568	0.8914
2577	0.8915
2586	0.8916
2595	0.8915
2604	0.891
2613	0.8906
2622	0.8901
2631	0.8895
2640	0.8889
2649	0.8883
2658	0.8877
2667	0.887
2676	0.8864
2685	0.8858
2694	0.8852
2703	0.8847
2712	0.8848
2721	0.8858
2730	0.8881
2739	0.889
2748	0.8895
2757	0.889
2766	0.8884
2775	0.8878
2784	0.8861
2793	0.8841
2802	0.8813
2811	0.8788
2820	0.8725
2829	0.8658
2838	0.8598
2847	0.8561
2856	0.8479
2865	0.8313
2874	0.8234
2883	0.8286
2892	0.8388
2901	0.843
2910	0.8399
2919	0.8174
2928	0.781
2937	0.7958
2946	0.8256
2955	0.8044
2964	0.7174
2973	0.6513
2982	0.6633
2991	0.6899
3000	0.712
3009	0.7202
3018	0.7208
3027	0.7558
3036	0.8133
3045	0.8398
3054	0.8383
3063	0.83
3072	0.8103
3081	0.7972
3090	0.7442
3099	0.7684
3108	0.8342
3117	0.8511
3126	0.86
3135	0.8658
3144	0.8685
3153	0.8706
3162	0.8712
3171	0.8715
3180	0.8713
3189	0.8711
3198	0.8709
3207	0.8707
3216	0.8703
3225	0.8699
3234	0.8695
3243	0.8688
3252	0.8676
3261	0.8654
3270	0.8633
3279	0.8614
3288	0.8611
3297	0.8628
3306	0.8649
3315	0.8683
3324	0.8724
3333	0.8745
3342	0.8765
3351	0.8775
3360	0.8783
3369	0.8786
3378	0.8788
3387	0.8791
3396	0.8794
3405	0.8796
3414	0.8797
3423	0.8796
3432	0.8794
3441	0.8792
3450	0.879
3459	0.879
3468	0.879
3477	0.8791
3486	0.8791
3495	0.8792
3504	0.8792
3513	0.8793
3522	0.8797
3531	0.8801
3540	0.8805
3549	0.8809
3558	0.8813
3567	0.8818
3576	0.8829
3585	0.8857
3594	0.8875
3603	0.8881
3612	0.8895
3621	0.8914
3630	0.8921
3639	0.8931
3648	0.8941
3657	0.8952
3666	0.8972
3675	0.902
3684	0.9025
3693	0.9025
3702	0.9024
3711	0.9021
3720	0.9018
3729	0.9015
3738	0.9012
3747	0.9008
3756	0.9003
3765	0.8998
3774	0.8993
3783	0.8988
3792	0.8982
3801	0.8977
3810	0.8971
3819	0.8968
3828	0.8964
3837	0.8961
3846	0.8957
3855	0.8956
3864	0.8955
3873	0.8953
3882	0.8948
3891	0.8943
3900	0.8938
3909	0.8932
3918	0.8927
3927	0.8932
3936	0.8936
3945	0.8939
3954	0.8941
3963	0.8944
3972	0.8951
3981	0.8966
3990	0.898
3999	0.8995
