Infrared Spectrum: Benzamide, N-(cyanomethyl)-N-methyl-4-nitro-
Formula: C10 H9 N3 O3
CAS: 22978-12-7
State: SOLUTION (7% CHCl3) VS SOLVENT
Melting point: 88 C
Class: COBLENTZ III
Instrument: PERKIN-ELMER 421 (GRATING)
Instrument parameters: GRATINGS: 1999 CM^-^1
Sampling: TRANSMISSION
Path length: 0.01 CM
Resolution: 2
Origin: ABBOTT LABORATORIES - WASHBURN
1/CM	TRANSMITTANCE
801	0.9779
809	0.9527
817	0.9119
825	0.8683
833	0.7867
841	0.5479
849	0.4409
857	0.3091
865	0.7761
873	0.8136
881	0.742
889	0.7806
897	0.8497
905	0.8266
913	0.8104
921	0.8668
929	0.8807
937	0.8789
945	0.8786
953	0.8475
961	0.839
969	0.8585
977	0.8418
985	0.8611
993	0.8661
1001	0.8248
1009	0.6039
1017	0.8757
1025	0.8677
1033	0.8496
1041	0.8114
1049	0.7406
1057	0.4831
1065	0.1897
1073	0.6167
1081	0.7806
1089	0.8117
1097	0.8012
1105	0.8529
1113	0.8951
1121	0.9023
1129	0.9109
1137	0.9096
1145	0.9025
1153	0.8893
1161	0.8608
1169	0.8056
1177	0.7987
1185	0.9128
1193	0.8845
1201	0.6734
1209	0.6427
1217	0.634
1225	0.6319
1233	0.6402
1241	0.6507
1249	0.5646
1257	0.476
1265	0.4686
1273	0.4289
1281	0.3421
1289	0.2969
1297	0.48
1305	0.475
1313	0.5648
1321	0.5794
1329	0.5092
1337	0.0927
1345	0.0405
1353	0.3023
1361	0.5012
1369	0.5386
1377	0.4679
1385	0.2419
1393	0.2393
1401	0.3638
1409	0.4281
1417	0.6598
1425	0.6921
1433	0.5785
1441	0.4736
1449	0.5164
1457	0.5626
1465	0.4752
1473	0.3996
1481	0.5073
1489	0.3846
1497	0.4546
1505	0.4517
1513	0.1579
1521	0.0731
1529	0.2318
1537	0.5885
1545	0.7097
1553	0.7638
1561	0.7635
1569	0.7529
1577	0.6689
1585	0.565
1593	0.3973
1601	0.5625
1609	0.6333
1617	0.6266
1625	0.551
1633	0.2053
1641	0.0708
1649	0.0531
1657	0.0895
1665	0.3453
1673	0.6459
1681	0.7112
1689	0.7711
1697	0.8164
1705	0.8548
1713	0.8775
1721	0.8809
1729	0.8931
1737	0.8956
1745	0.8971
1753	0.8991
1761	0.9048
1769	0.9031
1777	0.8975
1785	0.8903
1793	0.8758
1801	0.879
1809	0.8936
1817	0.9033
1825	0.9081
1833	0.9108
1841	0.9111
1849	0.9104
1857	0.9102
1865	0.9099
1873	0.9097
1881	0.9094
1889	0.9081
1897	0.9051
1905	0.8987
1913	0.8886
1921	0.8802
1929	0.8777
1937	0.8957
1945	0.909
1953	0.9088
1961	0.9088
1969	0.9124
1977	0.9115
1985	0.91
1993	0.9079
2001	0.915
2009	0.9126
2017	0.9109
2025	0.9106
2033	0.9111
2041	0.9117
2049	0.9109
2057	0.91
2065	0.9096
2073	0.9092
2081	0.9088
2089	0.9085
2097	0.9082
2105	0.908
2113	0.9078
2121	0.9079
2129	0.9086
2137	0.9094
2145	0.9102
2153	0.9111
2161	0.9112
2169	0.9105
2177	0.9093
2185	0.9078
2193	0.906
2201	0.9052
2209	0.9061
2217	0.9099
2225	0.9116
2233	0.9085
2241	0.9046
2249	0.9055
2257	0.9109
2265	0.9147
2273	0.9172
2281	0.9198
2289	0.9233
2297	0.9279
2305	0.9341
2313	0.9404
2321	0.9444
2329	0.9463
2337	0.9468
2345	0.9459
2353	0.9445
2361	0.942
2369	0.9394
2377	0.9421
2385	0.9651
2393	0.9635
2401	0.9448
2409	0.9209
2417	0.9055
2425	0.8999
2433	0.8961
2441	0.8915
2449	0.8908
2457	0.8945
2465	0.8997
2473	0.9006
2481	0.8987
2489	0.8973
2497	0.897
2505	0.8984
2513	0.9001
2521	0.9021
2529	0.9039
2537	0.9036
2545	0.9015
2553	0.8992
2561	0.8986
2569	0.8996
2577	0.9005
2585	0.9003
2593	0.8987
2601	0.8988
2609	0.9002
2617	0.9016
2625	0.903
2633	0.9039
2641	0.9043
2649	0.9042
2657	0.9029
2665	0.9014
2673	0.8997
2681	0.8979
2689	0.8959
2697	0.8939
2705	0.8926
2713	0.8938
2721	0.8961
2729	0.8959
2737	0.8948
2745	0.8925
2753	0.8897
2761	0.8868
2769	0.884
2777	0.8833
2785	0.8831
2793	0.8848
2801	0.8842
2809	0.8818
2817	0.8774
2825	0.8684
2833	0.8595
2841	0.8536
2849	0.8492
2857	0.8455
2865	0.8574
2873	0.8621
2881	0.8623
2889	0.8621
2897	0.858
2905	0.8462
2913	0.8272
2921	0.8062
2929	0.8076
2937	0.8168
2945	0.8295
2953	0.8282
2961	0.8071
2969	0.775
2977	0.7485
2985	0.7441
2993	0.7081
3001	0.6739
3009	0.6587
3017	0.655
3025	0.6839
3033	0.7334
3041	0.789
3049	0.8228
3057	0.828
3065	0.8204
3073	0.8055
3081	0.809
3089	0.8156
3097	0.8052
3105	0.8041
3113	0.8303
3121	0.8471
3129	0.8618
3137	0.8712
3145	0.874
3153	0.8778
3161	0.8815
3169	0.8861
3177	0.8923
3185	0.8939
3193	0.8952
3201	0.8963
3209	0.8973
3217	0.8984
3225	0.8996
3233	0.8988
3241	0.8976
3249	0.8972
3257	0.8944
3265	0.8916
3273	0.889
3281	0.8879
3289	0.8896
3297	0.8925
3305	0.896
3313	0.8989
3321	0.9011
3329	0.9037
3337	0.9059
3345	0.9065
3353	0.9068
3361	0.9072
3369	0.9075
3377	0.9076
3385	0.9077
3393	0.9081
3401	0.9085
3409	0.9092
3417	0.9075
3425	0.9056
3433	0.9058
3441	0.9057
3449	0.9053
3457	0.9049
3465	0.9061
3473	0.9059
3481	0.9055
3489	0.9045
3497	0.9012
3505	0.9003
3513	0.9
3521	0.8998
3529	0.8999
3537	0.9003
3545	0.9018
3553	0.9022
3561	0.9002
3569	0.8956
3577	0.8949
3585	0.9066
3593	0.9087
3601	0.9085
3609	0.9082
3617	0.9089
3625	0.9078
3633	0.9056
3641	0.9032
3649	0.9004
3657	0.8986
3665	0.9024
3673	0.908
3681	0.9096
3689	0.9084
3697	0.9079
3705	0.9084
3713	0.9091
3721	0.9105
3729	0.9111
3737	0.9096
3745	0.9049
3753	0.9022
3761	0.9038
3769	0.9054
3777	0.9065
3785	0.9062
3793	0.9046
3801	0.9032
3809	0.903
3817	0.9042
3825	0.9026
3833	0.9031
3841	0.9041
3849	0.904
3857	0.9035
3865	0.9025
3873	0.9
3881	0.8967
3889	0.8938
3897	0.8928
3905	0.8927
3913	0.8935
3921	0.8942
3929	0.8945
3937	0.8946
3945	0.8943
3953	0.894
3961	0.8936
3969	0.8939
3977	0.8945
3985	0.8952
3993	0.8959
