Infrared Spectrum: 4,7-Phenanthroline
Formula: C 12 H 8 N 2
CAS: 230-07-9
State: gas
Instrument: HP-GC/MS/IRD
Origin: NIST Mass Spectrometry Data Center
1/CM	ABSORBANCE
550	0.0010899
562	0.0006687
574	6.75e-05
586	0.0001188
598	0.0001575
610	0.0002187
622	0.0001944
634	0.0002565
646	0.0002232
658	0.0002457
670	0.0002385
682	0.0002592
694	0.0003798
706	0.0007182
718	0.0006543
730	0.000513
742	0.0004221
754	0.0005994
766	0.003006
778	0.009
790	0.0040977
802	0.0008478
814	0.000657
826	0.0012951
838	0.0049122
850	0.0070227
862	0.0023436
874	0.0006723
886	0.0004608
898	0.0003249
910	0.0002763
922	0.0003555
934	0.0004329
946	0.0003609
958	0.0003978
970	0.0005445
982	0.0006957
994	0.0010296
1006	0.000288
1018	0.0003393
1030	0.0002781
1042	0.0005148
1054	0.0012591
1066	0.0005886
1078	0.001224
1090	0.0020709
1102	0.0007191
1114	0.0003474
1126	0.0003879
1138	0.0011178
1150	0.0005814
1162	0.0003393
1174	0.0003321
1186	0.0002412
1198	0.0003969
1210	0.0003645
1222	0.0005418
1234	0.000531
1246	0.0006768
1258	0.0006444
1270	0.0005049
1282	0.000756
1294	0.0022158
1306	0.0017199
1318	0.0008289
1330	0.0004455
1342	0.0003303
1354	0.0005184
1366	0.0015552
1378	0.0027576
1390	0.00315
1402	0.0022563
1414	0.0006957
1426	0.00135
1438	0.0044586
1450	0.0020583
1462	0.000954
1474	0.002196
1486	0.0065682
1498	0.0030132
1510	0.001089
1522	0.0010476
1534	0.000612
1546	0.0006651
1558	0.0008514
1570	0.0019143
1582	0.0029142
1594	0.0024768
1606	0.0017352
1618	0.0005607
1630	0.000297
1642	0.0002124
1654	0.0001764
1666	0.0002034
1678	0.0002466
1690	0.0004923
1702	0.0005283
1714	0.000486
1726	0.0003465
1738	0.0003177
1750	0.000342
1762	0.0002331
1774	0.0002331
1786	0.0001809
1798	0.0001944
1810	0.0004869
1822	0.0005094
1834	0.0002394
1846	0.000207
1858	0.0002601
1870	0.000423
1882	0.0004491
1894	0.0004275
1906	0.0006003
1918	0.0004275
1930	0.0005886
1942	0.0008676
1954	0.0004644
1966	0.0001971
1978	0.0001575
1990	0.0001242
2002	0.0001179
2014	0.0001278
2026	0.0001305
2038	0.0001476
2050	0.0001665
2062	0.0001512
2074	0.0001395
2086	0.0001791
2098	0.0001989
2110	0.0001395
2122	0.000126
2134	0.0001422
2146	0.0001296
2158	0.0001332
2170	9.72e-05
2182	0.0001404
2194	0.0001431
2206	0.000153
2218	0.0001125
2230	0.0001683
2242	0.0001377
2254	0.0001647
2266	0.0001494
2278	0.0001899
2290	0.0001962
2302	0.0001314
2314	0.000135
2326	0.0001089
2338	0.0001341
2350	0.0001431
2362	0.0001008
2374	0.0001314
2386	0.0001107
2398	9.81e-05
2410	7.29e-05
2422	0.0001062
2434	0.0001017
2446	0.0001197
2458	0.0001053
2470	7.29e-05
2482	7.11e-05
2494	9.27e-05
2506	9.99e-05
2518	0.0001179
2530	0.0001242
2542	0.0001116
2554	9.54e-05
2566	9.72e-05
2578	8.55e-05
2590	8.82e-05
2602	8.73e-05
2614	0.0001098
2626	0.0001008
2638	4.14e-05
2650	7.56e-05
2662	5.94e-05
2674	6.3e-05
2686	2.7e-05
2698	4.5e-05
2710	5.67e-05
2722	6.12e-05
2734	4.68e-05
2746	3.33e-05
2758	4.23e-05
2770	4.59e-05
2782	4.32e-05
2794	6.39e-05
2806	5.4e-05
2818	2.97e-05
2830	4.77e-05
2842	5.85e-05
2854	8.73e-05
2866	0.0001134
2878	0.0001422
2890	0.0001611
2902	0.0001647
2914	0.0002619
2926	0.0003969
2938	0.0002493
2950	0.0001665
2962	0.0003006
2974	0.0004446
2986	0.0005832
2998	0.0011385
3010	0.0016956
3022	0.0018243
3034	0.0028728
3046	0.0030258
3058	0.0043452
3070	0.0046557
3082	0.0041013
3094	0.0020853
3106	0.000918
3118	0.0003618
3130	0.0002358
3142	0.0001692
3154	0.0002403
3166	0.0001854
3178	0.0001755
3190	0.0001206
3202	0.0001098
3214	7.83e-05
3226	8.28e-05
3238	4.32e-05
3250	4.05e-05
3262	5.49e-05
3274	6.57e-05
3286	5.58e-05
3298	1.17e-05
3310	1.89e-05
3322	0.0001161
3334	0.0001305
3346	7.38e-05
3358	0
3370	3.51e-05
3382	7.65e-05
3394	4.95e-05
3406	0.000144
3418	2.7e-06
3430	4.59e-05
3442	0.0001035
3454	5.67e-05
3466	8.19e-05
3478	6.75e-05
3490	6.3e-05
3502	3.33e-05
3514	4.5e-05
3526	7.65e-05
3538	4.5e-05
3550	2.88e-05
3562	7.83e-05
3574	0.000117
3586	2.25e-05
3598	9.63e-05
3610	5.94e-05
3622	0.0001494
3634	5.76e-05
3646	0.0001188
3658	7.2e-05
3670	8.46e-05
3682	4.32e-05
3694	7.2e-05
3706	4.41e-05
3718	7.02e-05
3730	9.99e-05
3742	0.0001296
3754	0.0001584
3766	0.0001224
3778	0.0001746
3790	0.000162
3802	9e-05
3814	8.28e-05
3826	0.000126
3838	0.0001773
