Infrared Spectrum: 1,7-Phenanthroline
Formula: C 12 H 8 N 2
CAS: 230-46-6
State: gas
Instrument: HP-GC/MS/IRD
Origin: NIST Mass Spectrometry Data Center
1/CM	ABSORBANCE
550	0.0007192
562	0.0005146
574	0.0001395
586	0.0009269
598	0.0024397
610	0.0033139
622	0.0034844
634	0.000434
646	0.0001209
658	4.96e-05
670	0.0001054
682	6.2e-05
694	0.0002883
706	0.0006603
718	0.001705
730	0.0025203
742	0.0021421
754	0.0080662
766	0.0217868
778	0.0110484
790	0.0041881
802	0.0029946
814	0.0030132
826	0.0126883
838	0.031
850	0.0124155
862	0.004154
874	0.0012152
886	0.001023
898	0.0006758
910	0.0003472
922	0.0002232
934	0.0004123
946	0.0004464
958	0.000465
970	0.0007719
982	0.0007781
994	0.0006789
1006	0.0012555
1018	0.0009703
1030	0.0003069
1042	0.0008122
1054	0.0025823
1066	0.0018414
1078	0.0030535
1090	0.0050902
1102	0.0017298
1114	0.0006572
1126	0.0014756
1138	0.0031372
1150	0.0013454
1162	0.0010571
1174	0.0018786
1186	0.0020863
1198	0.0030969
1210	0.0026753
1222	0.0010385
1234	0.0005983
1246	0.0005301
1258	0.0007595
1270	0.0005115
1282	0.0013051
1294	0.0035433
1306	0.0027683
1318	0.0008432
1330	0.0008091
1342	0.0005642
1354	0.0004805
1366	0.00093
1378	0.0023033
1390	0.0037386
1402	0.0100843
1414	0.0168392
1426	0.021235
1438	0.0055769
1450	0.0017081
1462	0.0012183
1474	0.0025358
1486	0.0114483
1498	0.0094519
1510	0.0040548
1522	0.0015438
1534	0.0011811
1546	0.0019995
1558	0.0062186
1570	0.0098208
1582	0.0114979
1594	0.0115382
1606	0.0108345
1618	0.0091946
1630	0.0031558
1642	0.0011067
1654	0.0006727
1666	0.0006603
1678	0.0009207
1690	0.0011842
1702	0.0007812
1714	0.0005859
1726	0.000651
1738	0.001054
1750	0.0008525
1762	0.0006665
1774	0.000961
1786	0.0011501
1798	0.0016182
1810	0.0007068
1822	0.0002697
1834	0.0002511
1846	0.0001829
1858	0.000279
1870	0.0006417
1882	0.0010106
1894	0.0011377
1906	0.0018972
1918	0.0015779
1930	0.0017732
1942	0.0019747
1954	0.0010695
1966	0.000713
1978	0.0003441
1990	0.0001519
2002	0.0001426
2014	0.0001302
2026	8.37e-05
2038	8.99e-05
2050	0.0001085
2062	0.0001426
2074	0.0001612
2086	0.0001767
2098	0.0001829
2110	0.0001519
2122	9.92e-05
2134	0.0001519
2146	7.75e-05
2158	7.13e-05
2170	8.99e-05
2182	0.0001302
2194	8.37e-05
2206	9.61e-05
2218	0.0001457
2230	0.0001891
2242	0.0001643
2254	0.0003224
2266	0.0003906
2278	0.0002232
2290	0.0002077
2302	0.0001891
2314	0.0002325
2326	0.0002294
2338	0.000217
2350	0.0001891
2362	0.0001395
2374	8.06e-05
2386	9.3e-05
2398	8.06e-05
2410	0.0001147
2422	0.0001271
2434	0.000186
2446	0.0001829
2458	0.0001829
2470	0.0001488
2482	0.0001147
2494	9.3e-05
2506	0.0001395
2518	0.0001116
2530	0.0001767
2542	0.0001302
2554	0.0001178
2566	0.0001209
2578	0.0001519
2590	0.0001364
2602	0.0001829
2614	0.0001798
2626	0.0001891
2638	0.0001364
2650	7.44e-05
2662	7.13e-05
2674	0.0001178
2686	8.99e-05
2698	9.3e-06
2710	3.72e-05
2722	2.79e-05
2734	3.72e-05
2746	3.41e-05
2758	2.79e-05
2770	1.86e-05
2782	4.96e-05
2794	5.58e-05
2806	3.41e-05
2818	0.0001395
2830	0.0001116
2842	0.0002139
2854	0.0001984
2866	0.0001922
2878	0.0003379
2890	0.0003999
2902	0.0003999
2914	0.0005053
2926	0.0008587
2938	0.0009052
2950	0.0007564
2962	0.0009486
2974	0.0015624
2986	0.0023405
2998	0.003379
3010	0.0061659
3022	0.00868
3034	0.0123628
3046	0.015097
3058	0.0165354
3070	0.0142104
3082	0.0116932
3094	0.0059427
3106	0.0024242
3118	0.0012059
3130	0.0006169
3142	0.0003751
3154	0.0004557
3166	0.0005115
3178	0.0004619
3190	0.0004278
3202	0.0002387
3214	0.0002418
3226	0.0001643
3238	0.0001054
3250	9.92e-05
3262	8.68e-05
3274	8.99e-05
3286	0.0001023
3298	8.06e-05
3310	0.0001147
3322	0.0001147
3334	7.44e-05
3346	9.61e-05
3358	8.99e-05
3370	6.82e-05
3382	5.27e-05
3394	5.27e-05
3406	0.0001457
3418	7.13e-05
3430	0.0001023
3442	9.61e-05
3454	0.0001054
3466	5.58e-05
3478	0.0001519
3490	8.99e-05
3502	0.0001395
3514	0.0001457
3526	0.0001643
3538	0.0001581
3550	0.0001457
3562	0.0001891
3574	0.0002077
3586	0.0001674
3598	0.0001674
3610	0.0002201
3622	0.0002077
3634	0.0001209
3646	0.0001178
3658	0.0001302
3670	0.0002108
3682	0.0001798
3694	0.0002139
3706	0.0002294
3718	9.92e-05
3730	0.0001364
3742	0.0001953
3754	0.0002697
3766	0.0002356
3778	0.0002387
3790	0.0003224
3802	0.0002852
3814	0.0001922
3826	0.0001953
3838	0.0001767
