Infrared Spectrum: 7,8-Benzoquinoline
Formula: C 13 H 9 N
CAS: 230-27-3
State: gas
Instrument: HP-GC/MS/IRD
Origin: NIST Mass Spectrometry Data Center
1/CM	ABSORBANCE
550	0.0003276
562	2.76e-05
574	2.76e-05
586	0.0002604
598	0.0002412
610	0.0010224
622	0.0015696
634	0.0002628
646	0.00012
658	5.64e-05
670	0.0001416
682	0.0001272
694	0.000336
706	0.001602
718	0.0037608
730	0.0058956
742	0.012
754	0.0040308
766	0.0005256
778	0.0005472
790	0.0020436
802	0.0051996
814	0.004236
826	0.0068868
838	0.0047388
850	0.0012552
862	0.0006096
874	0.001452
886	0.0012336
898	0.0003888
910	0.0001704
922	0.0001728
934	0.0002808
946	0.0003924
958	0.0006804
970	0.000426
982	0.00042
994	0.0002616
1006	0.0006936
1018	0.001464
1030	0.0007848
1042	0.0003456
1054	0.0002736
1066	0.0002028
1078	0.0004212
1090	0.0009228
1102	0.000468
1114	0.0002652
1126	0.000702
1138	0.0005196
1150	0.0012732
1162	0.0005712
1174	0.0001656
1186	0.00018
1198	0.0002808
1210	0.0003852
1222	0.0003792
1234	0.000288
1246	0.000144
1258	0.0002796
1270	0.0003912
1282	0.0004968
1294	0.0004896
1306	0.0002964
1318	0.0006636
1330	0.0006912
1342	0.0003084
1354	0.0001932
1366	0.0003588
1378	0.000828
1390	0.0023676
1402	0.0054204
1414	0.00246
1426	0.0013956
1438	0.0034464
1450	0.0028644
1462	0.0006084
1474	0.0005028
1486	0.0012012
1498	0.0023112
1510	0.0025836
1522	0.0014388
1534	0.000534
1546	0.0007104
1558	0.0014748
1570	0.0019932
1582	0.0019884
1594	0.00288
1606	0.001866
1618	0.0012708
1630	0.0007872
1642	0.000546
1654	0.0004344
1666	0.0005028
1678	0.0004152
1690	0.000336
1702	0.0004932
1714	0.0003888
1726	0.0003852
1738	0.0004872
1750	0.0005376
1762	0.0004644
1774	0.0005772
1786	0.0004896
1798	0.0001776
1810	0.0002004
1822	0.0003504
1834	0.0003648
1846	0.0003528
1858	0.0003132
1870	0.0003732
1882	0.0004392
1894	0.0005316
1906	0.00069
1918	0.0006132
1930	0.0007284
1942	0.0007104
1954	0.0004428
1966	0.0002604
1978	0.0001008
1990	6.6e-05
2002	9.48e-05
2014	8.4e-05
2026	6.12e-05
2038	4.8e-05
2050	5.04e-05
2062	7.92e-05
2074	8.88e-05
2086	9.36e-05
2098	9.24e-05
2110	8.88e-05
2122	6.48e-05
2134	5.16e-05
2146	4.68e-05
2158	5.4e-05
2170	6e-05
2182	4.44e-05
2194	4.08e-05
2206	6e-05
2218	8.4e-05
2230	8.28e-05
2242	0.000114
2254	8.88e-05
2266	8.28e-05
2278	0.0001488
2290	0.0001308
2302	7.44e-05
2314	8.16e-05
2326	8.4e-05
2338	0.0001092
2350	9.72e-05
2362	7.68e-05
2374	4.08e-05
2386	6.12e-05
2398	5.76e-05
2410	6.96e-05
2422	6.12e-05
2434	6.6e-05
2446	0.0001032
2458	0.0001056
2470	7.8e-05
2482	8.4e-05
2494	7.68e-05
2506	5.16e-05
2518	8.4e-05
2530	8.16e-05
2542	5.52e-05
2554	6.36e-05
2566	7.32e-05
2578	8.04e-05
2590	7.44e-05
2602	7.68e-05
2614	8.52e-05
2626	8.76e-05
2638	6.84e-05
2650	6.24e-05
2662	6e-05
2674	4.56e-05
2686	6e-05
2698	6.84e-05
2710	3.96e-05
2722	4.08e-05
2734	4.56e-05
2746	2.16e-05
2758	3.24e-05
2770	2.88e-05
2782	5.04e-05
2794	5.16e-05
2806	3.24e-05
2818	6.36e-05
2830	7.8e-05
2842	0.0001308
2854	0.0001536
2866	0.0001476
2878	0.0001524
2890	0.0001452
2902	0.00018
2914	0.000174
2926	0.0002988
2938	0.0004848
2950	0.000498
2962	0.0003432
2974	0.0003672
2986	0.000666
2998	0.001152
3010	0.0018516
3022	0.0031512
3034	0.0051048
3046	0.0086328
3058	0.0106548
3070	0.0063888
3082	0.0037632
3094	0.0030948
3106	0.001428
3118	0.0006672
3130	0.0003276
3142	0.0002244
3154	0.0001932
3166	0.0002232
3178	0.0002232
3190	0.0002076
3202	0.0001524
3214	0.0001188
3226	0.0001116
3238	6e-05
3250	6.48e-05
3262	3.84e-05
3274	2.28e-05
3286	3.48e-05
3298	6.12e-05
3310	4.56e-05
3322	2.4e-05
3334	3.96e-05
3346	4.56e-05
3358	1.92e-05
3370	3.96e-05
3382	5.28e-05
3394	4.44e-05
3406	3.96e-05
3418	3.48e-05
3430	7.56e-05
3442	1.56e-05
3454	5.76e-05
3466	6.24e-05
3478	4.2e-05
3490	4.68e-05
3502	5.52e-05
3514	5.88e-05
3526	6.6e-05
3538	2.4e-05
3550	4.92e-05
3562	5.52e-05
3574	5.64e-05
3586	7.56e-05
3598	6.48e-05
3610	5.76e-05
3622	7.2e-05
3634	9e-05
3646	6e-05
3658	7.92e-05
3670	8.52e-05
3682	4.68e-05
3694	0.0001008
3706	7.08e-05
3718	7.32e-05
3730	7.2e-05
3742	8.52e-05
3754	0.0001056
3766	0.0001392
3778	0.0001356
3790	9.12e-05
3802	6.12e-05
3814	5.52e-05
3826	6.6e-05
3838	9.6e-05
