Infrared Spectrum: 3'-Trifluoromethylpropionanilide
Formula: C 10 H 10 F 3 N O
CAS: 2300-88-1
State: gas
Origin: EPA-IR VAPOR PHASE LIBRARY
1/CM	ABSORBANCE
551.7	0.00869
563.274	0.00607
574.848	0.00488
586.421	0.00438
597.995	0.00313
609.569	0.00266
621.143	0.0023
632.717	0.00259
644.291	0.00481
655.864	0.01247
667.438	0.01259
679.012	0.00899
690.586	0.02238
702.16	0.02434
713.734	0.0077
725.307	0.00395
736.881	0.00339
748.455	0.00459
760.029	0.00535
771.603	0.00634
783.177	0.01948
794.75	0.026
806.324	0.01043
817.898	0.00479
829.472	0.00371
841.046	0.00371
852.619	0.00467
864.193	0.0097
875.767	0.01577
887.341	0.01428
898.915	0.01773
910.489	0.01634
922.062	0.00986
933.636	0.00687
945.21	0.00583
956.784	0.00474
968.358	0.00513
979.932	0.00642
991.505	0.00861
1003.08	0.01209
1014.65	0.01126
1026.23	0.01166
1037.8	0.01833
1049.37	0.02715
1060.95	0.04209
1072.52	0.06025
1084.1	0.04074
1095.67	0.04672
1107.24	0.03574
1118.82	0.03611
1130.39	0.08089
1141.97	0.20049
1153.54	0.20751
1165.11	0.16909
1176.69	0.20907
1188.26	0.11636
1199.83	0.05034
1211.41	0.0391
1222.98	0.04425
1234.56	0.04596
1246.13	0.03648
1257.7	0.02738
1269.28	0.03092
1280.85	0.03568
1292.42	0.04295
1304	0.05948
1315.57	0.09824
1327.15	0.30708
1338.72	0.19521
1350.29	0.0424
1361.87	0.02288
1373.44	0.01668
1385.02	0.0159
1396.59	0.01793
1408.16	0.02933
1419.74	0.05492
1431.31	0.11119
1442.88	0.09002
1454.46	0.03779
1466.03	0.04194
1477.61	0.06826
1489.18	0.10298
1500.75	0.08256
1512.33	0.09823
1523.9	0.1228
1535.48	0.07474
1547.05	0.03122
1558.62	0.01977
1570.2	0.01694
1581.77	0.01984
1593.34	0.03012
1604.92	0.03212
1616.49	0.02862
1628.07	0.01444
1639.64	0.00789
1651.21	0.0069
1662.79	0.00726
1674.36	0.00934
1685.93	0.01395
1697.51	0.02346
1709.08	0.04201
1720.66	0.08669
1732.23	0.1081
1743.8	0.05259
1755.38	0.0257
1766.95	0.01491
1778.53	0.00794
1790.1	0.00542
1801.67	0.00422
1813.25	0.00354
1824.82	0.00289
1836.39	0.00237
1847.97	0.00229
1859.54	0.0023
1871.12	0.00209
1882.69	0.00232
1894.26	0.00189
1905.84	0.00154
1917.41	0.00165
1928.99	0.002
1940.56	0.00194
1952.13	0.00173
1963.71	0.00127
1975.28	0.0010469
1986.85	0.0009969
1998.43	0.0008607
2010	0.0008616
2021.58	0.0008902
2033.15	0.0008978
2044.72	0.001042
2056.3	0.0011044
2067.87	0.0011615
2079.44	0.00141
2091.02	0.00155
2102.59	0.0011478
2114.17	0.0009484
2125.74	0.0008633
2137.31	0.0009336
2148.89	0.0008471
2160.46	0.0009005
2172.04	0.0010307
2183.61	0.0010604
2195.18	0.0009725
2206.76	0.0009667
2218.33	0.0010184
2229.9	0.0010902
2241.48	0.0011667
2253.05	0.0011237
2264.63	0.0011878
2276.2	0.00131
2287.77	0.00124
2299.35	0.0010548
2310.92	0.0010767
2322.5	0.0011202
2334.07	0.00131
2345.64	0.00147
2357.22	0.00136
2368.79	0.0011631
2380.36	0.0010988
2391.94	0.0011074
2403.51	0.0011169
2415.09	0.0009813
2426.66	0.0008915
2438.23	0.0008689
2449.81	0.000887
2461.38	0.0008751
2472.96	0.0008651
2484.53	0.0009247
2496.1	0.000946
2507.68	0.0011166
2519.25	0.0011256
2530.82	0.0009105
2542.4	0.0007147
2553.97	0.0006617
2565.55	0.0006116
2577.12	0.0005622
2588.69	0.0006713
2600.27	0.0007567
2611.84	0.0007444
2623.41	0.0006299
2634.99	0.0006987
2646.56	0.0008237
2658.14	0.0010556
2669.71	0.0008154
2681.28	0.0005782
2692.86	0.0005907
2704.43	0.000645
2716.01	0.0006806
2727.58	0.000698
2739.15	0.0008091
2750.73	0.001059
2762.3	0.0010034
2773.87	0.0009823
2785.45	0.0009051
2797.02	0.0009423
2808.6	0.0010339
2820.17	0.00138
2831.74	0.0018
2843.32	0.00234
2854.89	0.00284
2866.47	0.00362
2878.04	0.00509
2889.61	0.00801
2901.19	0.00915
2912.76	0.01058
2924.33	0.01291
2935.91	0.01311
2947.48	0.01672
2959.06	0.01621
2970.63	0.01589
2982.2	0.02039
2993.78	0.01794
3005.35	0.00984
3016.92	0.00696
3028.5	0.00614
3040.07	0.0059
3051.65	0.00614
3063.22	0.00576
3074.79	0.00509
3086.37	0.00532
3097.94	0.00487
3109.52	0.00368
3121.09	0.0029
3132.66	0.00191
3144.24	0.00137
3155.81	0.001007
3167.38	0.0008712
3178.96	0.0007592
3190.53	0.0007101
3202.11	0.0006212
3213.68	0.0004686
3225.25	0.0003939
3236.83	0.0003403
3248.4	0.00023353
3259.98	0.0001797
3271.55	0.0001255
3283.12	0.00024005
3294.7	0.0001393
3306.27	9.29e-05
3317.84	0.0001542
3329.42	0.000189918
3340.99	0.00026002
3352.57	0.0003378
3364.14	0.00024441
3375.71	0.0004431
3387.29	0.0007321
3398.86	0.00131
3410.43	0.00236
3422.01	0.00329
3433.58	0.00441
3445.16	0.00693
3456.73	0.01129
3468.3	0.00996
3479.88	0.0037
3491.45	0.00183
3503.03	0.0010626
3514.6	0.0006168
3526.17	0.0004235
3537.75	0.00028759
3549.32	0.00018561
3560.89	0.00018451
3572.47	0.0001563
3584.04	1.6e-05
3595.62	3.3e-05
3607.19	0.0001013
3618.76	5.3e-05
3630.34	4.2e-05
3641.91	0.0001397
3653.49	7.7e-05
3665.06	0.000191081
3676.63	9.73e-05
3688.21	0.0002292
3699.78	0.0001611
3711.35	0.000189574
3722.93	0.0001798
3734.5	0.0001353
3746.08	0.000191992
3757.65	0.0001164
3769.22	8.9e-05
3780.8	0.0001216
3792.37	9e-05
3803.94	0.0001436
3815.52	9.2e-05
3827.09	0.000133
3838.67	0.0001103
3850.24	0.0001498
3861.81	8.1e-05
3873.39	0.0001325
3884.96	0.0001106
3896.54	8.3e-05
3908.11	9.48e-05
3919.68	0.0001597
3931.26	0.00023046
3942.83	0.00026165
3954.4	0.0004287
3965.98	0.000402
3977.55	0.0003065
3989.13	0.0003793
4000.7	0.0004547
