Infrared Spectrum: 3'-Trifluoromethyl-2,2-dimethylvaleranilide
Formula: C 14 H 18 F 3 N O
CAS: 2300-87-0
State: gas
Origin: EPA-IR VAPOR PHASE LIBRARY
1/CM	ABSORBANCE
551.7	0.0059
563.274	0.00661
574.848	0.00573
586.421	0.00429
597.995	0.00212
609.569	0.00188
621.143	0.0014
632.717	0.00151
644.291	0.00271
655.864	0.01039
667.438	0.00902
679.012	0.00362
690.586	0.01463
702.16	0.015
713.734	0.00342
725.307	0.00234
736.881	0.00327
748.455	0.00567
760.029	0.00372
771.603	0.00471
783.177	0.01454
794.75	0.01782
806.324	0.00505
817.898	0.00255
829.472	0.00232
841.046	0.00232
852.619	0.00316
864.193	0.00674
875.767	0.01153
887.341	0.0099
898.915	0.01214
910.489	0.01189
922.062	0.00948
933.636	0.00728
945.21	0.00496
956.784	0.00387
968.358	0.00336
979.932	0.00309
991.505	0.0036
1003.08	0.00553
1014.65	0.00458
1026.23	0.0046
1037.8	0.00601
1049.37	0.00975
1060.95	0.02288
1072.52	0.04189
1084.1	0.02695
1095.67	0.03496
1107.24	0.0276
1118.82	0.04025
1130.39	0.10166
1141.97	0.1857
1153.54	0.12732
1165.11	0.08056
1176.69	0.10109
1188.26	0.05783
1199.83	0.02445
1211.41	0.02332
1222.98	0.03005
1234.56	0.03106
1246.13	0.02115
1257.7	0.01659
1269.28	0.02043
1280.85	0.02455
1292.42	0.03127
1304	0.04668
1315.57	0.06525
1327.15	0.20993
1338.72	0.13155
1350.29	0.02459
1361.87	0.01489
1373.44	0.01433
1385.02	0.01495
1396.59	0.01899
1408.16	0.0234
1419.74	0.04241
1431.31	0.08377
1442.88	0.05446
1454.46	0.03102
1466.03	0.03598
1477.61	0.06127
1489.18	0.08885
1500.75	0.05815
1512.33	0.06752
1523.9	0.09484
1535.48	0.06189
1547.05	0.02867
1558.62	0.01706
1570.2	0.01376
1581.77	0.01528
1593.34	0.02169
1604.92	0.02181
1616.49	0.02096
1628.07	0.00963
1639.64	0.0057
1651.21	0.00532
1662.79	0.0065
1674.36	0.00883
1685.93	0.0131
1697.51	0.02392
1709.08	0.06176
1720.66	0.05926
1732.23	0.01947
1743.8	0.00955
1755.38	0.006
1766.95	0.00416
1778.53	0.00318
1790.1	0.00255
1801.67	0.00216
1813.25	0.00193
1824.82	0.00157
1836.39	0.00126
1847.97	0.00136
1859.54	0.0014
1871.12	0.00129
1882.69	0.0015
1894.26	0.00118
1905.84	0.0009195
1917.41	0.00111
1928.99	0.00138
1940.56	0.0012
1952.13	0.00113
1963.71	0.0007431
1975.28	0.000603
1986.85	0.0006006
1998.43	0.0005984
2010	0.0005894
2021.58	0.000548
2033.15	0.0006102
2044.72	0.00073
2056.3	0.0007965
2067.87	0.0008744
2079.44	0.00111
2091.02	0.0009227
2102.59	0.0008112
2114.17	0.0007545
2125.74	0.0007097
2137.31	0.0007217
2148.89	0.0006914
2160.46	0.0006595
2172.04	0.000755
2183.61	0.0008082
2195.18	0.0007633
2206.76	0.0007605
2218.33	0.0007479
2229.9	0.0007852
2241.48	0.0008089
2253.05	0.0008175
2264.63	0.0009198
2276.2	0.00101
2287.77	0.0008452
2299.35	0.0008461
2310.92	0.0008016
2322.5	0.0008392
2334.07	0.000932
2345.64	0.00107
2357.22	0.0009818
2368.79	0.0009307
2380.36	0.0008701
2391.94	0.000817
2403.51	0.0007821
2415.09	0.0008286
2426.66	0.0006562
2438.23	0.0006455
2449.81	0.0007116
2461.38	0.0006484
2472.96	0.0007248
2484.53	0.0007598
2496.1	0.0007837
2507.68	0.0008646
2519.25	0.0009016
2530.82	0.0007724
2542.4	0.00078
2553.97	0.0008117
2565.55	0.0006895
2577.12	0.000684
2588.69	0.000727
2600.27	0.000781
2611.84	0.0008436
2623.41	0.0008436
2634.99	0.0009011
2646.56	0.00111
2658.14	0.00123
2669.71	0.0009232
2681.28	0.0007541
2692.86	0.0006348
2704.43	0.0007798
2716.01	0.0009082
2727.58	0.00115
2739.15	0.00144
2750.73	0.00154
2762.3	0.00144
2773.87	0.00145
2785.45	0.00146
2797.02	0.00167
2808.6	0.00209
2820.17	0.00283
2831.74	0.00372
2843.32	0.00576
2854.89	0.00997
2866.47	0.01313
2878.04	0.0207
2889.61	0.02342
2901.19	0.02437
2912.76	0.02578
2924.33	0.02677
2935.91	0.0347
2947.48	0.03995
2959.06	0.05002
2970.63	0.06501
2982.2	0.03594
2993.78	0.01742
3005.35	0.00903
3016.92	0.00592
3028.5	0.00552
3040.07	0.00527
3051.65	0.00516
3063.22	0.00462
3074.79	0.00408
3086.37	0.00423
3097.94	0.00399
3109.52	0.00308
3121.09	0.00252
3132.66	0.00194
3144.24	0.00156
3155.81	0.00121
3167.38	0.00116
3178.96	0.00115
3190.53	0.00106
3202.11	0.00104
3213.68	0.000918
3225.25	0.000732
3236.83	0.0006638
3248.4	0.0004958
3259.98	0.0004397
3271.55	0.0004281
3283.12	0.0003946
3294.7	0.0002162
3306.27	0.0003325
3317.84	0.0002439
3329.42	0.0003139
3340.99	0.0003959
3352.57	0.0003219
3364.14	0.0003373
3375.71	0.0004964
3387.29	0.0005192
3398.86	0.0009632
3410.43	0.00128
3422.01	0.00138
3433.58	0.00155
3445.16	0.00271
3456.73	0.00615
3468.3	0.01227
3479.88	0.00908
3491.45	0.00275
3503.03	0.00133
3514.6	0.000893
3526.17	0.0004851
3537.75	0.0003332
3549.32	0.0002054
3560.89	0.0001228
3572.47	3.105e-05
3584.04	0.0001382
3595.62	8.445e-05
3607.19	0.0001002
3618.76	0.0001456
3630.34	0.0001867
3641.91	0.0002185
3653.49	0.0001304
3665.06	0.0002045
3676.63	0.0001382
3688.21	0.0002912
3699.78	0.0002905
3711.35	0.0001484
3722.93	0.0001877
3734.5	0.0001399
3746.08	4.086e-05
3757.65	0.0001755
3769.22	0.0001213
3780.8	9.385e-05
3792.37	0.000166
3803.94	0.000124
3815.52	0.0001571
3827.09	0.0001993
3838.67	3.405e-05
3850.24	1.072e-05
3861.81	7.414e-05
3873.39	0.00011
3884.96	0.0001842
3896.54	0.0001649
3908.11	0.0002847
3919.68	0.0002239
3931.26	0.0001938
3942.83	0.0002318
3954.4	0.0002763
3965.98	0.0004321
3977.55	0.000273
3989.13	0.0002886
4000.7	0.0003362
