Infrared Spectrum: 1-(4-Nitrophenyl)imidazole
Formula: C 9 H 7 N 3 O 2
CAS: 2301-25-9
State: gas
Origin: EPA-IR VAPOR PHASE LIBRARY
1/CM	ABSORBANCE
549.8	9.2e-05
559.445	0.0007137
569.09	0.0009053
578.734	0
588.379	0.0003486
598.024	0.000149
607.669	0.00047878
617.313	0.00053694
626.958	0.0006594
636.603	0.0007354
646.248	0.0009997
655.893	0.0009594
665.537	0.0007664
675.182	0.0005497
684.827	0.0009388
694.472	0.0007066
704.116	0.0009398
713.761	0.0013429
723.406	0.0013605
733.051	0.0009396
742.695	0.0008939
752.34	0.0008583
761.985	0.0005482
771.63	0.0004319
781.275	0.0007139
790.919	0.0006405
800.564	0.0009268
810.209	0.001627
819.854	0.0013349
829.498	0.0009368
839.143	0.001537
848.788	0.003477
858.433	0.003487
868.078	0.0014351
877.722	0.0008319
887.367	0.00045782
897.012	0.0006809
906.657	0.00047705
916.301	0.00049274
925.946	0.0005195
935.591	0.000323
945.236	0.0004432
954.88	0.0008435
964.525	0.001376
974.17	0.000344
983.815	0.000266
993.46	0.0005517
1003.1	0.0006756
1012.75	0.0005814
1022.39	0.0008672
1032.04	0.001177
1041.68	0.002347
1051.33	0.004497
1060.97	0.001517
1070.62	0.0005963
1080.26	0.0008545
1089.91	0.0003577
1099.55	0.0014374
1109.2	0.001967
1118.84	0.0012245
1128.49	0.000329
1138.13	0.00045772
1147.78	0.00048285
1157.42	0.000663
1167.07	0.0007623
1176.71	0.0009646
1186.36	0.0005062
1196	0.0008671
1205.64	0.0006217
1215.29	0.000659
1224.93	0.000578
1234.58	0.0013805
1244.22	0.002497
1253.87	0.001757
1263.51	0.0008471
1273.16	0.0008971
1282.8	0.0012185
1292.45	0.003167
1302.09	0.006507
1311.74	0.003157
1321.38	0.001837
1331.03	0.003427
1340.67	0.005947
1350.32	0.005177
1359.96	0.004307
1369.61	0.003327
1379.25	0.002557
1388.9	0.001497
1398.54	0.000856
1408.18	0.0007101
1417.83	0.0006404
1427.47	0.0007673
1437.12	0.0009983
1446.76	0.0010175
1456.41	0.0011853
1466.05	0.001527
1475.7	0.003757
1485.34	0.002897
1494.99	0.003987
1504.63	0.010327
1514.28	0.007137
1523.92	0.003487
1533.57	0.005067
1543.21	0.006197
1552.86	0.004657
1562.5	0.002587
1572.15	0.002087
1581.79	0.002277
1591.44	0.003547
1601.08	0.005417
1610.73	0.003887
1620.37	0.001937
1630.01	0.0009213
1639.66	0.0007754
1649.3	0.0006491
1658.95	0.0005566
1668.59	0.0006129
1678.24	0.0006271
1687.88	0.00048792
1697.53	0.000455314
1707.17	0.00047814
1716.82	0.00054564
1726.46	0.000396
1736.11	0.000346
1745.75	0.0004117
1755.4	0.000344
1765.04	0.00047563
1774.69	0.0004092
1784.33	0.0004211
1793.98	0.0004343
1803.62	0.0004101
1813.27	0.00051798
1822.91	0.00044011
1832.55	0.000363
1842.2	0.0003473
1851.84	0.000417
1861.49	0.0004065
1871.13	0.00048606
1880.78	0.0003707
1890.42	0.0004253
1900.07	0.0003956
1909.71	0.0004688
1919.36	0.000448969
1929	0.0003776
1938.65	0.0004323
1948.29	0.000377
1957.94	0.0003642
1967.58	0.0004058
1977.23	0.000323
1986.87	0.0004318
1996.52	0.000316
2006.16	0.000331
2015.81	0.0003819
2025.45	0.0003525
2035.1	0.0004299
2044.74	0.0004096
2054.38	0.000354
2064.03	0.000312
2073.67	0.0004397
2083.32	0.0004167
2092.96	0.0003921
2102.61	0.0003835
2112.25	0.0003989
2121.9	0.0003694
2131.54	0.000341
2141.19	0.0003788
2150.83	0.0004129
2160.48	0.0003575
2170.12	0.0003832
2179.77	0.000313
2189.41	0.0003611
2199.06	0.0004074
2208.7	0.0004342
2218.35	0.00046373
2227.99	0.000333
2237.64	0.0003753
2247.28	0.000422
2256.92	0.0003957
2266.57	0.0003601
2276.21	0.000389
2285.86	0.0004158
2295.5	0.0003499
2305.15	0.0003676
2314.79	0.0003742
2324.44	0.0003618
2334.08	0.00053458
2343.73	0.0004288
2353.37	0.000448034
2363.02	0.000344
2372.66	0.0004099
2382.31	0.0003486
2391.95	0.0003867
2401.6	0.00046369
2411.24	0.0004291
2420.89	0.000384
2430.53	0.000268
2440.18	0.00035
2449.82	0.00050456
2459.47	0.000313
2469.11	0.000323
2478.75	0.0004249
2488.4	0.00044152
2498.04	0.0004202
2507.69	0.0003834
2517.33	0.0003628
2526.98	0.000452803
2536.62	0.00045356
2546.27	0.000454426
2555.91	0.0003971
2565.56	0.00051681
2575.2	0.000344
2584.85	0.000456766
2594.49	0.0004615
2604.14	0.0005845
2613.78	0.0005232
2623.43	0.00047928
2633.07	0.00048712
2642.72	0.000432
2652.36	0.000367
2662.01	0.0005758
2671.65	0.000447084
2681.29	0.0006278
2690.94	0.0005495
2700.58	0.0005992
2710.23	0.0005558
2719.87	0.00051762
2729.52	0.00053665
2739.16	0.0004318
2748.81	0.000359
2758.45	0.00054272
2768.1	0.00047956
2777.74	0.0006084
2787.39	0.0004305
2797.03	0.00053208
2806.68	0.0003865
2816.32	0.0003971
2825.97	0.0005909
2835.61	0.000453328
2845.26	0.0004151
2854.9	0.00052306
2864.55	0.00051808
2874.19	0.0006707
2883.84	0.0006386
2893.48	0.00048382
2903.12	0.00052881
2912.77	0.0005744
2922.41	0.00050788
2932.06	0.00044115
2941.7	0.00044562
2951.35	0.0006963
2960.99	0.0003589
2970.64	0.00053662
2980.28	0.0003944
2989.93	0.0003545
2999.57	0.00047458
3009.22	0.00045925
3018.86	0.0006056
3028.51	0.0005619
3038.15	0.0006299
3047.8	0.00047348
3057.44	0.000446765
3067.09	0.0005548
3076.73	0.0005537
3086.38	0.0008477
3096.02	0.0006204
3105.67	0.00048336
3115.31	0.00048395
3124.95	0.0005626
3134.6	0.0006708
3144.24	0.000334
3153.89	0.0006816
3163.53	0.0005633
3173.18	0.0006052
3182.82	0.00051428
3192.47	0.0003531
3202.11	0.0004204
3211.76	0.0006899
3221.4	0.0005868
3231.05	0.000375
3240.69	0.00049839
3250.34	0.0006541
3259.98	0.00052814
3269.63	0.0004079
3279.27	0.0004943
3288.92	0.0005859
3298.56	0.0007291
3308.21	0.0005858
3317.85	0.0005685
3327.49	0.0005767
3337.14	0.00049465
3346.78	0.0006489
3356.43	0.0005737
3366.07	0.00043984
3375.72	0.0005593
3385.36	0.00031
3395.01	0.00074
3404.65	0.0005664
3414.3	0.00048497
3423.94	0.0004227
3433.59	0.00050669
3443.23	0.0006525
3452.88	0.0006252
3462.52	0.00056
3472.17	0.0004277
3481.81	0.0008695
3491.46	0.00044403
3501.1	0.0005476
3510.75	0.00045747
3520.39	0.0005815
3530.04	0.0006272
3539.68	0.00047125
3549.32	0.0006002
3558.97	0.00053931
3568.61	0.00050692
3578.26	0.0006755
3587.9	0.0004221
3597.55	0.0006252
3607.19	0.00054162
3616.84	0.0003645
3626.48	0.0005567
3636.13	0.0007879
3645.77	0.0005997
3655.42	0.00045954
3665.06	0.000567
3674.71	0.0005628
3684.35	0.00053558
3694	0.0006337
3703.64	0.0005626
3713.29	0.00054128
3722.93	0.0003993
3732.58	0.0005948
3742.22	0.0005905
3751.86	0.00048001
3761.51	0.0004215
3771.15	0.0008634
3780.8	0.0003946
3790.44	0.000755
3800.09	0.0005589
3809.73	0.0004996
3819.38	0.0006638
3829.02	0.00052984
3838.67	0.00051068
3848.31	0.0006121
3857.96	0.0007885
3867.6	0.000557
3877.25	0.0008494
3886.89	0.0005927
3896.54	0.0008108
3906.18	0.0005518
3915.83	0.000574
3925.47	0.0006566
3935.12	0.0005002
3944.76	0.000316
3954.41	0.0006921
3964.05	0.0005677
3973.69	0.000582
3983.34	0.00053036
3992.98	0.0007841
