Infrared Spectrum: n-Butylphosphonic dichloride
Formula: C 4 H 9 Cl 2 O P
CAS: 2302-80-9
State: gas
Origin: EPA-IR VAPOR PHASE LIBRARY
1/CM	ABSORBANCE
501.5	0.0572129
513.074	0.0717829
524.648	0.0581929
536.222	0.0604229
547.796	0.0838229
559.37	0.145013
570.944	0.148883
582.518	0.0468729
594.092	0.0103729
605.666	0.0050229
617.24	0.0038529
628.814	0.0028829
640.388	0.0030129
651.962	0.0037529
663.536	0.0060129
675.11	0.0111829
686.684	0.0211529
698.258	0.0249529
709.832	0.0194629
721.406	0.0188629
732.98	0.0176029
744.554	0.0183729
756.128	0.0208129
767.702	0.0208129
779.276	0.0182429
790.85	0.0149329
802.423	0.0099929
813.997	0.0048629
825.571	0.0031529
837.145	0.0025229
848.719	0.0023529
860.293	0.0029829
871.867	0.0037729
883.441	0.0050029
895.015	0.0076129
906.589	0.0080029
918.163	0.0060429
929.737	0.0051529
941.311	0.0054129
952.885	0.0071629
964.459	0.0097629
976.033	0.0106129
987.607	0.0108129
999.181	0.0093429
1010.76	0.0069429
1022.33	0.0046829
1033.9	0.0042629
1045.48	0.0059129
1057.05	0.0057629
1068.63	0.0042029
1080.2	0.0027929
1091.77	0.0025129
1103.35	0.0018829
1114.92	0.0022329
1126.49	0.0026529
1138.07	0.0019429
1149.64	0.0011529
1161.22	0.0017629
1172.79	0.0023629
1184.36	0.0022529
1195.94	0.0018629
1207.51	0.0032329
1219.09	0.0042929
1230.66	0.0020729
1242.23	0.0013529
1253.81	0.0043429
1265.38	0.0141429
1276.96	0.0396429
1288.53	0.0883129
1300.1	0.106113
1311.68	0.0564229
1323.25	0.0223129
1334.83	0.0124329
1346.4	0.0090129
1357.97	0.0055829
1369.55	0.0040229
1381.12	0.0056729
1392.7	0.0083729
1404.27	0.0086429
1415.84	0.0054329
1427.42	0.0035329
1438.99	0.0043029
1450.57	0.0075529
1462.14	0.0104529
1473.71	0.0084029
1485.29	0.0042829
1496.86	0.0021829
1508.44	0.0014229
1520.01	0.0011029
1531.58	0.0007946
1543.16	0.0005152
1554.73	0.0003415
1566.31	0.0002421
1577.88	0.0002269
1589.45	0.0002169
1601.03	0.0002091
1612.6	0.0001572
1624.18	0.00014224
1635.75	8.018e-05
1647.32	6.805e-05
1658.9	7.854e-05
1670.47	0.00011265
1682.05	7.148e-05
1693.62	3.65e-05
1705.19	3.58e-05
1716.77	0.00012471
1728.34	0.000293
1739.92	0.0003853
1751.49	0.000421
1763.06	0.0004395
1774.64	0.0004215
1786.21	0.0003986
1797.79	0.0003457
1809.36	0.0003165
1820.93	0.0002525
1832.51	0.0002313
1844.08	0.000175
1855.66	0.0001889
1867.23	0.0001682
1878.8	0.0001787
1890.38	0.000171
1901.95	0.0001861
1913.53	0.0002013
1925.1	0.0002041
1936.67	0.000211
1948.25	0.0002426
1959.82	0.0003712
1971.4	0.0004421
1982.97	0.0004331
1994.54	0.0003459
2006.12	0.0003887
2017.69	0.0004399
2029.27	0.0004138
2040.84	0.000372
2052.41	0.0003518
2063.99	0.0003872
2075.56	0.0004257
2087.14	0.0004501
2098.71	0.0004114
2110.28	0.0004046
2121.86	0.0003719
2133.43	0.0003721
2145.01	0.000417
2156.58	0.0004413
2168.15	0.0004089
2179.73	0.0004014
2191.3	0.0003658
2202.88	0.0003438
2214.45	0.0003466
2226.02	0.0003353
2237.6	0.0003766
2249.17	0.000377
2260.74	0.0003981
2272.32	0.0003616
2283.89	0.0003707
2295.47	0.0003568
2307.04	0.0003677
2318.61	0.0004139
2330.19	0.0003922
2341.76	0.0004583
2353.34	0.0005158
2364.91	0.0005426
2376.48	0.0005094
2388.06	0.000481
2399.63	0.0004715
2411.21	0.0004831
2422.78	0.0004687
2434.35	0.0004999
2445.93	0.0004544
2457.5	0.000396
2469.08	0.0003938
2480.65	0.0003809
2492.22	0.000394
2503.8	0.0004429
2515.37	0.0005109
2526.95	0.0005304
2538.52	0.0005344
2550.09	0.0006159
2561.67	0.0007512
2573.24	0.0008728
2584.82	0.0008411
2596.39	0.0007678
2607.96	0.0007065
2619.54	0.0006937
2631.11	0.0006542
2642.69	0.0006249
2654.26	0.0007185
2665.83	0.0007613
2677.41	0.0008853
2688.98	0.0008282
2700.56	0.0008764
2712.13	0.0007835
2723.7	0.0010036
2735.28	0.0011029
2746.85	0.0014329
2758.43	0.0014729
2770	0.0014929
2781.57	0.0015629
2793.15	0.0018929
2804.72	0.0022629
2816.3	0.0026129
2827.87	0.0031329
2839.44	0.0041329
2851.02	0.0057329
2862.59	0.0100429
2874.17	0.0188329
2885.74	0.0246329
2897.31	0.0196629
2908.89	0.0189329
2920.46	0.0235629
2932.04	0.0303929
2943.61	0.0415729
2955.18	0.0427229
2966.76	0.0535229
2978.33	0.0506529
2989.91	0.0214229
3001.48	0.0100129
3013.05	0.0065129
3024.63	0.0047729
3036.2	0.0036929
3047.78	0.0028229
3059.35	0.0023529
3070.92	0.0020329
3082.5	0.0018229
3094.07	0.0016529
3105.65	0.0014629
3117.22	0.0013129
3128.79	0.0012129
3140.37	0.0010929
3151.94	0.0010461
3163.52	0.0010435
3175.09	0.0010138
3186.66	0.0009235
3198.24	0.0007963
3209.81	0.000729
3221.39	0.0006959
3232.96	0.0006228
3244.53	0.0005823
3256.11	0.0005184
3267.68	0.0004413
3279.26	0.0004302
3290.83	0.0003978
3302.4	0.0004242
3313.98	0.00044
3325.55	0.0003927
3337.13	0.0003382
3348.7	0.0004556
3360.27	0.0004247
3371.85	0.0003352
3383.42	0.0004027
3395	0.0004343
3406.57	0.0003414
3418.14	0.0003653
3429.72	0.0003306
3441.29	0.0003315
3452.86	0.0004281
3464.44	0.000359
3476.01	0.0004044
3487.59	0.0003725
3499.16	0.0003766
3510.73	0.0003578
3522.31	0.0003672
3533.88	0.0003515
3545.46	0.0002352
3557.03	0.0003035
3568.6	0.0003217
3580.18	0.0002791
3591.75	0.0002657
3603.33	0.0003482
3614.9	0.0003508
3626.47	0.0003746
3638.05	0.0003336
3649.62	0.0003441
3661.2	0.0003912
3672.77	0.0004659
3684.34	0.0004338
3695.92	0.000441
3707.49	0.0004109
3719.07	0.0004016
3730.64	0.0004493
3742.21	0.0004016
3753.79	0.0003857
3765.36	0.0004061
3776.94	0.0003917
3788.51	0.0004207
3800.08	0.0004424
3811.66	0.0004702
3823.23	0.0004165
3834.81	0.0004745
3846.38	0.0004693
3857.95	0.0004583
3869.53	0.0003991
3881.1	0.0003814
3892.68	0.0004079
3904.25	0.000372
3915.82	0.0003919
3927.4	0.0003829
3938.97	0.0004312
3950.55	0.0004696
3962.12	0.0004679
3973.69	0.0004801
3985.27	0.0004409
3996.84	0.0005874
