Infrared Spectrum: Triallate
Formula: C 10 H 16 Cl 3 N O S
CAS: 2303-17-5
State: gas
Instrument: HP-GC/MS/IRD
Origin: NIST Mass Spectrometry Data Center
1/CM	ABSORBANCE
550	0.001651
562	0.0003683
574	0.0017145
586	0.0065913
598	0.006604
610	0.0091567
622	0.0177419
634	0.0042926
646	0.0023114
658	0.0022606
670	0.0037338
682	0.0009652
694	0.0012065
706	0.0031242
718	0.0044196
730	0.0031369
742	0.0038862
754	0.0065786
766	0.0070231
778	0.0047498
790	0.0051562
802	0.007874
814	0.0232537
826	0.0127508
838	0.0038735
850	0.0034036
862	0.0064389
874	0.0126238
886	0.0198501
898	0.0209296
910	0.0163322
922	0.0095758
934	0.0202438
946	0.0213106
958	0.005461
970	0.0020955
982	0.0014351
994	0.0016129
1006	0.002667
1018	0.0060579
1030	0.0208153
1042	0.02159
1054	0.0061976
1066	0.0037973
1078	0.0048514
1090	0.0099695
1102	0.018034
1114	0.0243078
1126	0.0206121
1138	0.0216027
1150	0.0234442
1162	0.0164338
1174	0.0118872
1186	0.0130556
1198	0.0222758
1210	0.0280543
1222	0.0218059
1234	0.0319786
1246	0.0330581
1258	0.0491744
1270	0.108077
1282	0.106299
1294	0.0296164
1306	0.0132588
1318	0.0090043
1330	0.0107823
1342	0.0077216
1354	0.0073533
1366	0.0156083
1378	0.0275971
1390	0.018034
1402	0.0127127
1414	0.0254635
1426	0.0311023
1438	0.013081
1450	0.0096901
1462	0.0107569
1474	0.0090805
1486	0.0040894
1498	0.0019939
1510	0.0014732
1522	0.0013335
1534	0.0013208
1546	0.0013589
1558	0.001651
1570	0.0025146
1582	0.0056261
1594	0.0081915
1606	0.0039243
1618	0.0043688
1630	0.0071247
1642	0.0123825
1654	0.0289814
1666	0.0641858
1678	0.115087
1690	0.0333502
1702	0.0099568
1714	0.0053975
1726	0.0036195
1738	0.0020828
1750	0.0013716
1762	0.0009525
1774	0.000762
1786	0.0006477
1798	0.0005461
1810	0.0005715
1822	0.000508
1834	0.0004064
1846	0.0003429
1858	0.0003048
1870	0.0002794
1882	0.0003175
1894	0.0003302
1906	0.0002921
1918	0.0001905
1930	0.0001651
1942	0.0001651
1954	0.0001778
1966	0.000127
1978	0.0001016
1990	7.62e-05
2002	0.0001143
2014	0.0001524
2026	0.0001651
2038	0.0001905
2050	0.0001778
2062	0.0001651
2074	0.0001778
2086	0.0001143
2098	0.000127
2110	0.0001397
2122	0.0001651
2134	0.0001524
2146	0.0001905
2158	0.0001905
2170	0.0002032
2182	0.0002667
2194	0.0001778
2206	0.0001651
2218	0.0001651
2230	0.000254
2242	0.0002921
2254	0.0002032
2266	0.0002032
2278	0.0002159
2290	0.0002667
2302	0.0002921
2314	0.000254
2326	0.0002159
2338	0.0001524
2350	0.0002159
2362	0.0002413
2374	0.0003175
2386	0.0004064
2398	0.000381
2410	0.0003302
2422	0.0003556
2434	0.0003175
2446	0.0002921
2458	0.0003048
2470	0.0002794
2482	0.0003683
2494	0.0004699
2506	0.0004191
2518	0.0004064
2530	0.0003937
2542	0.0004572
2554	0.0004191
2566	0.0003302
2578	0.0003175
2590	0.0004191
2602	0.0004826
2614	0.0004572
2626	0.0004572
2638	0.0004953
2650	0.0004953
2662	0.0004572
2674	0.0004572
2686	0.0005842
2698	0.0005715
2710	0.0005588
2722	0.0007493
2734	0.0009779
2746	0.0009779
2758	0.0009779
2770	0.0011049
2782	0.0012573
2794	0.0014732
2806	0.0016129
2818	0.002032
2830	0.0024638
2842	0.0027559
2854	0.0033655
2866	0.005334
2878	0.009906
2890	0.0120396
2902	0.0116967
2914	0.0130429
2926	0.0185801
2938	0.0311912
2950	0.0276225
2962	0.0241427
2974	0.0452882
2986	0.0486664
2998	0.0208661
3010	0.0149987
3022	0.0054102
3034	0.003175
3046	0.0022606
3058	0.001905
3070	0.0016637
3082	0.0015621
3094	0.001524
3106	0.0014605
3118	0.001397
3130	0.0012192
3142	0.0011557
3154	0.001016
3166	0.001016
3178	0.0009525
3190	0.000889
3202	0.0008255
3214	0.0005842
3226	0.0005588
3238	0.0004826
3250	0.0003683
3262	0.0003683
3274	0.0004191
3286	0.0004445
3298	0.0005461
3310	0.0006731
3322	0.0008255
3334	0.0009906
3346	0.000762
3358	0.0005715
3370	0.0003683
3382	0.0002667
3394	0.0002159
3406	0.000254
3418	0.0002286
3430	0.0001778
3442	0.0001778
3454	0.0002032
3466	0.000254
3478	0.0002921
3490	0.0002413
3502	0.000254
3514	0.0002159
3526	0.0001905
3538	0.0002286
3550	0.0002032
3562	0.0002159
3574	0.0001778
3586	0.0002032
3598	0.0002286
3610	0.0002413
3622	0.0002413
3634	0.0002286
3646	0.0001778
3658	0.0002413
3670	0.0001524
3682	0.0002032
3694	0.000254
3706	0.0002413
3718	0.0002159
3730	0.0002159
3742	0.000254
3754	0.0002286
3766	0.0001651
3778	0.0003048
3790	0.0002413
3802	0.0001905
3814	0.0003048
3826	0.0003048
3838	0.0002921
