Infrared Spectrum: Diallate
Formula: C 10 H 17 Cl 2 N O S
CAS: 2303-16-4
State: gas
Instrument: HP-GC/MS/IRD
Origin: NIST Mass Spectrometry Data Center
1/CM	ABSORBANCE
550	0.0004896
562	0.0005576
574	0.0001972
586	0.0002006
598	0.0005814
610	0.0020502
622	0.0043044
634	0.0024208
646	0.0016422
658	0.0013294
670	0.0017136
682	0.0004964
694	0.0003808
706	0.0009656
718	0.0018564
730	0.000901
742	0.000425
754	0.000306
766	0.0004386
778	0.0012138
790	0.0024786
802	0.0031926
814	0.0072284
826	0.004879
838	0.0012308
850	0.0007786
862	0.0011424
874	0.0017034
886	0.0016082
898	0.0028764
910	0.0053924
922	0.002193
934	0.000561
946	0.0002108
958	0.0001904
970	0.000119
982	7.82e-05
994	0.0001462
1006	0.000442
1018	0.0014008
1030	0.0054434
1042	0.0059534
1054	0.0023018
1066	0.0018904
1078	0.0024548
1090	0.0041106
1102	0.0055624
1114	0.006443
1126	0.0055794
1138	0.0057358
1150	0.0060112
1162	0.0038964
1174	0.0023494
1186	0.0024752
1198	0.0051136
1210	0.0070652
1222	0.0060214
1234	0.0083708
1246	0.0076568
1258	0.0128044
1270	0.027812
1282	0.0303892
1294	0.0097988
1306	0.003774
1318	0.002227
1330	0.0023732
1342	0.0022372
1354	0.0019958
1366	0.0042228
1378	0.0076602
1390	0.0050048
1402	0.0041242
1414	0.006783
1426	0.0077962
1438	0.0034816
1450	0.0025976
1462	0.0029716
1474	0.002482
1486	0.0011152
1498	0.0005372
1510	0.0004012
1522	0.0004046
1534	0.0003808
1546	0.0003944
1558	0.0004488
1570	0.0005848
1582	0.0009656
1594	0.001785
1606	0.0029444
1618	0.002958
1630	0.0032062
1642	0.0051068
1654	0.0106148
1666	0.0244052
1678	0.023409
1690	0.00765
1702	0.0023324
1714	0.0013124
1726	0.0009282
1738	0.0005338
1750	0.000323
1762	0.0001972
1774	0.0001326
1786	0.000102
1798	8.84e-05
1810	0.0001088
1822	8.84e-05
1834	4.08e-05
1846	5.44e-05
1858	5.1e-05
1870	3.06e-05
1882	4.42e-05
1894	8.84e-05
1906	6.8e-05
1918	3.06e-05
1930	3.4e-05
1942	3.06e-05
1954	6.8e-06
1966	2.04e-05
1978	2.38e-05
1990	2.38e-05
2002	3.06e-05
2014	5.44e-05
2026	3.06e-05
2038	7.14e-05
2050	6.12e-05
2062	6.12e-05
2074	8.5e-05
2086	9.52e-05
2098	9.52e-05
2110	3.74e-05
2122	5.78e-05
2134	3.4e-05
2146	7.82e-05
2158	9.52e-05
2170	6.8e-05
2182	9.86e-05
2194	7.48e-05
2206	9.52e-05
2218	0.0001054
2230	0.0001224
2242	0.000119
2254	9.86e-05
2266	0.000102
2278	8.84e-05
2290	8.5e-05
2302	7.82e-05
2314	4.08e-05
2326	4.08e-05
2338	7.14e-05
2350	6.12e-05
2362	7.14e-05
2374	0.000136
2386	8.84e-05
2398	0.0001156
2410	0.0001088
2422	8.5e-05
2434	7.14e-05
2446	8.16e-05
2458	6.46e-05
2470	8.84e-05
2482	9.52e-05
2494	0.0001224
2506	8.84e-05
2518	0.0001156
2530	9.86e-05
2542	0.0001156
2554	0.0001496
2566	9.52e-05
2578	9.52e-05
2590	9.18e-05
2602	0.000102
2614	0.000119
2626	0.0001156
2638	0.0001428
2650	0.000119
2662	0.0001564
2674	0.0001564
2686	0.0001768
2698	0.0001632
2710	0.0001462
2722	0.0001904
2734	0.0002448
2746	0.0002652
2758	0.0002448
2770	0.0003366
2782	0.0003638
2794	0.0004556
2806	0.0004488
2818	0.000544
2830	0.0006698
2842	0.000748
2854	0.0009316
2866	0.0014586
2878	0.0027336
2890	0.0033422
2902	0.0031348
2914	0.0034952
2926	0.0052054
2938	0.0087142
2950	0.0074902
2962	0.0065586
2974	0.0125392
2986	0.0136068
2998	0.0056406
3010	0.0040256
3022	0.001462
3034	0.0008874
3046	0.0007548
3058	0.0007514
3070	0.0009214
3082	0.001394
3094	0.0010234
3106	0.0005508
3118	0.0005338
3130	0.0003876
3142	0.0003842
3154	0.0002652
3166	0.0003094
3178	0.0003094
3190	0.000323
3202	0.0003128
3214	0.0003026
3226	0.000221
3238	0.00017
3250	0.000187
3262	0.0001938
3274	8.84e-05
3286	0.0001938
3298	0.0001938
3310	0.0002006
3322	0.0003264
3334	0.0002754
3346	0.0002346
3358	0.000204
3370	0.0001666
3382	0.000204
3394	0.0001768
3406	0.0001054
3418	0.0001666
3430	9.18e-05
3442	9.18e-05
3454	7.48e-05
3466	0.0001564
3478	0.000136
3490	0.0001292
3502	7.14e-05
3514	0.0001666
3526	0.0001224
3538	8.16e-05
3550	0.0001938
3562	0.0001156
3574	0.000102
3586	6.46e-05
3598	6.46e-05
3610	0.0001564
3622	0.0001326
3634	0.0002108
3646	0.0001122
3658	0.0001258
3670	0.0001258
3682	0.000153
3694	8.16e-05
3706	0.0001394
3718	9.86e-05
3730	0.0001054
3742	0.0001292
3754	0.0001666
3766	0.0001054
3778	0.0001224
3790	0.0001564
3802	0.0001768
3814	0.000187
3826	0.000153
3838	0.0001768
