Infrared Spectrum: Tris(3-fluorophenyl)phosphine
Formula: C 18 H 12 F 3 P
CAS: 23039-94-3
State: gas
Origin: EPA-IR VAPOR PHASE LIBRARY
1/CM	ABSORBANCE
549.8	0.002866
559.445	0.004596
569.09	0.012916
578.734	0.009276
588.379	0.005126
598.024	0.002836
607.669	0.001966
617.313	0.001946
626.958	0.002106
636.603	0.002776
646.248	0.003576
655.893	0.006986
665.537	0.016046
675.182	0.037746
684.827	0.112356
694.472	0.055376
704.116	0.014006
713.761	0.006516
723.406	0.005126
733.051	0.004036
742.695	0.004136
752.34	0.005496
761.985	0.012556
771.63	0.032476
781.275	0.130076
790.919	0.042456
800.564	0.011366
810.209	0.006666
819.854	0.005786
829.498	0.005336
839.143	0.006546
848.788	0.008716
858.433	0.016466
868.078	0.044326
877.722	0.099346
887.367	0.059586
897.012	0.029616
906.657	0.013796
916.301	0.008156
925.946	0.005196
935.591	0.003896
945.236	0.003016
954.88	0.001986
964.525	0.002416
974.17	0.002656
983.815	0.003096
993.46	0.008086
1003.1	0.011666
1012.75	0.004116
1022.39	0.002226
1032.04	0.003036
1041.68	0.001626
1051.33	0.004726
1060.97	0.004886
1070.62	0.007686
1080.26	0.017096
1089.91	0.044866
1099.55	0.022666
1109.2	0.009216
1118.84	0.006336
1128.49	0.007206
1138.13	0.005816
1147.78	0.005276
1157.42	0.014116
1167.07	0.010226
1176.71	0.006946
1186.36	0.010986
1196	0.027006
1205.64	0.064486
1215.29	0.189336
1224.93	0.240396
1234.58	0.071586
1244.22	0.050646
1253.87	0.086276
1263.51	0.119486
1273.16	0.029016
1282.8	0.014566
1292.45	0.015436
1302.09	0.011056
1311.74	0.005536
1321.38	0.004016
1331.03	0.004376
1340.67	0.004106
1350.32	0.004076
1359.96	0.004636
1369.61	0.004426
1379.25	0.005576
1388.9	0.011536
1398.54	0.029686
1408.18	0.063946
1417.83	0.113276
1427.47	0.062376
1437.12	0.040526
1446.76	0.050356
1456.41	0.042686
1466.05	0.065736
1475.7	0.143896
1485.34	0.069576
1494.99	0.020256
1504.63	0.012486
1514.28	0.013406
1523.92	0.017906
1533.57	0.016356
1543.21	0.019476
1552.86	0.028216
1562.5	0.061806
1572.15	0.164186
1581.79	0.196166
1591.44	0.138626
1601.08	0.113816
1610.73	0.021596
1620.37	0.010566
1630.01	0.006916
1639.66	0.005476
1649.3	0.004396
1658.95	0.004646
1668.59	0.006186
1678.24	0.008306
1687.88	0.004416
1697.53	0.002386
1707.17	0.002246
1716.82	0.002336
1726.46	0.003456
1736.11	0.005486
1745.75	0.008126
1755.4	0.007066
1765.04	0.006566
1774.69	0.006226
1784.33	0.004916
1793.98	0.004386
1803.62	0.002886
1813.27	0.002236
1822.91	0.002306
1832.55	0.002416
1842.2	0.003306
1851.84	0.005266
1861.49	0.007956
1871.13	0.004286
1880.78	0.002456
1890.42	0.002206
1900.07	0.002336
1909.71	0.002526
1919.36	0.003786
1929	0.007246
1938.65	0.005816
1948.29	0.002756
1957.94	0.001746
1967.58	0.001936
1977.23	0.001696
1986.87	0.0014754
1996.52	0.0012563
2006.16	0.0013081
2015.81	0.001313
2025.45	0.0014552
2035.1	0.001856
2044.74	0.001586
2054.38	0.0014636
2064.03	0.001736
2073.67	0.002076
2083.32	0.002716
2092.96	0.003626
2102.61	0.003136
2112.25	0.002316
2121.9	0.001926
2131.54	0.001906
2141.19	0.001876
2150.83	0.0014229
2160.48	0.0014553
2170.12	0.0013276
2179.77	0.0011692
2189.41	0.001434
2199.06	0.000941
2208.7	0.0008567
2218.35	0.0011946
2227.99	0.0013294
2237.64	0.0013998
2247.28	0.0014319
2256.92	0.001776
2266.57	0.0011613
2276.21	0.001676
2285.86	0.0015199
2295.5	0.0014344
2305.15	0.001146
2314.79	0.001816
2324.44	0.002016
2334.08	0.001846
2343.73	0.001926
2353.37	0.002116
2363.02	0.002176
2372.66	0.001606
2382.31	0.001646
2391.95	0.001716
2401.6	0.0013887
2411.24	0.001706
2420.89	0.002346
2430.53	0.003356
2440.18	0.003486
2449.82	0.003156
2459.47	0.003726
2469.11	0.003606
2478.75	0.003806
2488.4	0.002726
2498.04	0.002066
2507.69	0.0014248
2517.33	0.0014901
2526.98	0.001746
2536.62	0.0012067
2546.27	0.0013563
2555.91	0.001686
2565.56	0.001656
2575.2	0.0014547
2584.85	0.001576
2594.49	0.0013773
2604.14	0.0011946
2613.78	0.0013337
2623.43	0.0012036
2633.07	0.0014393
2642.72	0.0013269
2652.36	0.001706
2662.01	0.001666
2671.65	0.001706
2681.29	0.001876
2690.94	0.001342
2700.58	0.0009393
2710.23	0.001686
2719.87	0.0013452
2729.52	0.0012282
2739.16	0.0011445
2748.81	0.001366
2758.45	0.0010183
2768.1	0.0013518
2777.74	0.0010905
2787.39	0.001296
2797.03	0.0011158
2806.68	0.0012782
2816.32	0.001706
2825.97	0.001676
2835.61	0.001524
2845.26	0.001526
2854.9	0.0014566
2864.55	0.0012562
2874.19	0.0012501
2883.84	0.000412
2893.48	0.0014421
2903.12	0.0012974
2912.77	0.0012583
2922.41	0.0010863
2932.06	0.0014115
2941.7	0.001946
2951.35	0.002116
2960.99	0.0014098
2970.64	0.001676
2980.28	0.001546
2989.93	0.0015007
2999.57	0.001986
3009.22	0.003066
3018.86	0.005776
3028.51	0.008036
3038.15	0.009286
3047.8	0.011676
3057.44	0.020236
3067.09	0.034276
3076.73	0.030266
3086.38	0.016806
3096.02	0.010876
3105.67	0.003926
3115.31	0.002506
3124.95	0.001836
3134.6	0.001302
3144.24	0.002276
3153.89	0.001636
3163.53	0.001586
3173.18	0.0012967
3182.82	0.0012814
3192.47	0.0015086
3202.11	0.0013423
3211.76	0.0010779
3221.4	0.001576
3231.05	0.0009398
3240.69	0.0008708
3250.34	0.0010302
3259.98	0.0008042
3269.63	0.0008505
3279.27	0.00051649
3288.92	0.0013205
3298.56	0.001124
3308.21	0.001626
3317.85	0.0011721
3327.49	0.001646
3337.14	0.0008318
3346.78	0.00060057
3356.43	0.00061114
3366.07	0.00062277
3375.72	0.00058163
3385.36	0.0007777
3395.01	0.0008964
3404.65	0.00051688
3414.3	0.00054715
3423.94	0.0010766
3433.59	0.0010471
3443.23	0.0013347
3452.88	0.0013286
3462.52	0.0007223
3472.17	0.0011527
3481.81	0.001726
3491.46	0.001606
3501.1	0.0013109
3510.75	0.0006312
3520.39	0.0013321
3530.04	0.0004906
3539.68	0.0008616
3549.32	0.0007557
3558.97	0.001956
3568.61	0.0006501
3578.26	0.001726
3587.9	0.001796
3597.55	0.001716
3607.19	0.0011796
3616.84	0.001494
3626.48	0.00053901
3636.13	0.0008533
3645.77	0.0011028
3655.42	0.0013035
3665.06	0.0014381
3674.71	0.0012696
3684.35	0.0007948
3694	0.0014941
3703.64	0.0010578
3713.29	0.0011805
3722.93	0.0012437
3732.58	0.0012902
3742.22	0.0011488
3751.86	0.0013576
3761.51	0.001706
3771.15	0.0013045
3780.8	0.0012441
3790.44	0.0009575
3800.09	0.001946
3809.73	0.0012177
3819.38	0.0011561
3829.02	0.001716
3838.67	0.001586
3848.31	0.0015196
3857.96	0.0004934
3867.6	0.0007702
3877.25	0.0010488
3886.89	0.0008205
3896.54	0.0010569
3906.18	0.002066
3915.83	0.002006
3925.47	0.0012306
3935.12	0.001856
3944.76	0.0009409
3954.41	0.00116
3964.05	0.001756
3973.69	0.001626
3983.34	0.001626
3992.98	0.002136
