Infrared Spectrum: p-Toluic acid, 2-amino-
Formula: C8 H9 N O2
CAS: 2305-36-4
State: SOLID (SPLIT MULL), FLUOROLUBE FOR 3800-1330 CM^-^1, NUJOL FOR 1330-400 CM^-^1
Class: COBLENTZ III
Instrument: BECKMAN IR-9 (GRATING)
Instrument parameters: ORDER CHANGES: 670, 1200, 2000 CM^-^1
Sampling: TRANSMISSION
Resolution: 2
Origin: DOW CHEMICAL COMPANY
1/CM	TRANSMITTANCE
405	0.2642
414	0.2507
423	0.2539
432	0.2946
441	0.1989
450	0.2235
459	0.4924
468	0.5511
477	0.5653
486	0.5538
495	0.5285
504	0.393
513	0.2482
522	0.2413
531	0.121
540	0.5066
549	0.629
558	0.7316
567	0.774
576	0.6442
585	0.2487
594	0.7025
603	0.8029
612	0.1307
621	0.77
630	0.8106
639	0.8056
648	0.8086
657	0.8125
666	0.8116
675	0.7802
684	0.7335
693	0.6576
702	0.445
711	0.6163
720	0.541
729	0.425
738	0.1253
747	0.4896
756	0.4637
765	0.3483
774	0.0142
783	0.1769
792	0.1165
801	0.4441
810	0.4732
819	0.4144
828	0.3968
837	0.5132
846	0.5585
855	0.3753
864	0.1062
873	0.4453
882	0.4934
891	0.4914
900	0.4583
909	0.3072
918	0.1939
927	0.1024
936	0.0697
945	0.1531
954	0.2598
963	0.3664
972	0.4647
981	0.5165
990	0.5197
999	0.4761
1008	0.4154
1017	0.4975
1026	0.4849
1035	0.4303
1044	0.4778
1053	0.5318
1062	0.5415
1071	0.5176
1080	0.5305
1089	0.5239
1098	0.4696
1107	0.4011
1116	0.36
1125	0.2227
1134	0.2483
1143	0.3519
1152	0.3265
1161	0.1202
1170	0.4087
1179	0.407
1188	0.2851
1197	0.2747
1206	0.192
1215	0.0771
1224	0.0388
1233	0.0176
1242	0.0001
1251	0.0001
1260	0.0084
1269	0.0419
1278	0.2401
1287	0.2628
1296	0.1228
1305	0.0424
1314	0.0282
1323	0.0043
1332	0.1403
1341	0.2043
1350	0.3271
1359	0.5275
1368	0.5502
1377	0.5112
1386	0.5205
1395	0.4264
1404	0.3305
1413	0.186
1422	0.0518
1431	0.1287
1440	0.3584
1449	0.3755
1458	0.3767
1467	0.4141
1476	0.4351
1485	0.4258
1494	0.22
1503	0.2575
1512	0.3236
1521	0.3025
1530	0.2226
1539	0.1418
1548	0.0636
1557	0.1291
1566	0.221
1575	0.2135
1584	0.0708
1593	0.0111
1602	0.0259
1611	0.0727
1620	0.0719
1629	0.0375
1638	0.067
1647	0.0298
1656	0.0054
1665	0.0033
1674	0.0353
1683	0.232
1692	0.4731
1701	0.6457
1710	0.7419
1719	0.7943
1728	0.8659
1737	0.8478
1746	0.8397
1755	0.8272
1764	0.7779
1773	0.7505
1782	0.7621
1791	0.7747
1800	0.7723
1809	0.7651
1818	0.7575
1827	0.7588
1836	0.7433
1845	0.7287
1854	0.7235
1863	0.7164
1872	0.7027
1881	0.6958
1890	0.7012
1899	0.69
1908	0.6572
1917	0.7019
1926	0.708
1935	0.7042
1944	0.6974
1953	0.6885
1962	0.6791
1971	0.6697
1980	0.6614
1989	0.653
1998	0.646
2007	0.6428
2016	0.6369
2025	0.6322
2034	0.63
2043	0.6315
2052	0.6304
2061	0.6186
2070	0.5982
2079	0.5782
2088	0.5647
2097	0.5627
2106	0.565
2115	0.5667
2124	0.5559
2133	0.5429
2142	0.532
2151	0.5275
2160	0.5221
2169	0.5154
2178	0.5062
2187	0.4958
2196	0.4861
2205	0.4781
2214	0.4728
2223	0.4671
2232	0.4589
2241	0.4491
2250	0.4415
2259	0.4342
2268	0.4268
2277	0.4192
2286	0.4112
2295	0.4029
2304	0.3955
2313	0.389
2322	0.3836
2331	0.3803
2340	0.3776
2349	0.376
2358	0.3745
2367	0.3718
2376	0.359
2385	0.3315
2394	0.3124
2403	0.3021
2412	0.2927
2421	0.2807
2430	0.2669
2439	0.2549
2448	0.2441
2457	0.2347
2466	0.2253
2475	0.2174
2484	0.2144
2493	0.2113
2502	0.2006
2511	0.1855
2520	0.1699
2529	0.1552
2538	0.1519
2547	0.16
2556	0.1751
2565	0.18
2574	0.1779
2583	0.1724
2592	0.1645
2601	0.1565
2610	0.1485
2619	0.1474
2628	0.1537
2637	0.1582
2646	0.1589
2655	0.1628
2664	0.1757
2673	0.1802
2682	0.1773
2691	0.1687
2700	0.158
2709	0.1491
2718	0.1458
2727	0.1501
2736	0.1627
2745	0.1712
2754	0.1717
2763	0.1705
2772	0.1616
2781	0.1503
2790	0.1401
2799	0.1318
2808	0.1241
2817	0.1167
2826	0.1095
2835	0.1024
2844	0.0966
2853	0.0952
2862	0.0971
2871	0.0981
2880	0.0963
2889	0.0937
2898	0.0927
2907	0.0929
2916	0.0939
2925	0.0971
2934	0.104
2943	0.1071
2952	0.1051
2961	0.1041
2970	0.1049
2979	0.1067
2988	0.1024
2997	0.1009
3006	0.103
3015	0.1081
3024	0.1146
3033	0.1251
3042	0.1294
3051	0.1313
3060	0.1366
3069	0.1475
3078	0.16
3087	0.174
3096	0.1877
3105	0.2
3114	0.2113
3123	0.2204
3132	0.2272
3141	0.2333
3150	0.2407
3159	0.2489
3168	0.2579
3177	0.2721
3186	0.2879
3195	0.3029
3204	0.3178
3213	0.3302
3222	0.3404
3231	0.3491
3240	0.3574
3249	0.365
3258	0.3724
3267	0.3779
3276	0.3828
3285	0.3869
3294	0.3877
3303	0.3845
3312	0.3796
3321	0.3733
3330	0.3629
3339	0.3463
3348	0.3147
3357	0.2561
3366	0.1182
3375	0.0233
3384	0.4122
3393	0.4243
3402	0.4259
3411	0.4209
3420	0.4058
3429	0.3861
3438	0.3605
3447	0.3174
3456	0.2659
3465	0.101
3474	0.0273
3483	0.014
3492	0.1836
3501	0.4177
3510	0.4456
3519	0.4512
3528	0.4444
3537	0.4362
3546	0.4269
3555	0.4178
3564	0.4091
3573	0.4006
3582	0.3907
3591	0.3809
3600	0.3807
3609	0.382
3618	0.38
3627	0.3761
3636	0.3715
3645	0.3663
3654	0.3616
3663	0.3572
3672	0.3527
3681	0.3484
3690	0.3448
3699	0.3411
3708	0.3375
3717	0.3357
3726	0.3339
3735	0.3307
3744	0.3263
3753	0.3207
3762	0.3178
3771	0.3152
3780	0.3127
3789	0.3101
3798	0.3074
