Infrared Spectrum: PIPERIDINE, 4-ANILINO-
Formula: C11 H16 N2
CAS: 23056-29-3
State: SOLID (SPLIT MULL), FLUOROLUBE FOR 3800-1330 CM^-^1, NUJOL FOR 1330-400 CM^-^1
Class: COBLENTZ III
Instrument: BECKMAN IR-9 (GRATING)
Instrument parameters: ORDER CHANGES: 670, 1200, 2000 CM^-^1
Sampling: TRANSMISSION
Resolution: 2
Origin: DOW CHEMICAL COMPANY
1/CM	TRANSMITTANCE
399	0.7451
408	0.7364
417	0.7199
426	0.7303
435	0.7658
444	0.7928
453	0.7814
462	0.8011
471	0.7686
480	0.7626
489	0.847
498	0.7397
507	0.5912
516	0.6193
525	0.6521
534	0.7267
543	0.7192
552	0.7
561	0.6789
570	0.6838
579	0.7214
588	0.7806
597	0.8418
606	0.7317
615	0.6391
624	0.6865
633	0.7311
642	0.7951
651	0.8307
660	0.8338
669	0.8427
678	0.835
687	0.6484
696	0.1228
705	0.7354
714	0.7392
723	0.6731
732	0.6908
741	0.267
750	0.1942
759	0.6754
768	0.6928
777	0.6064
786	0.293
795	0.0897
804	0.2076
813	0.5391
822	0.5132
831	0.6286
840	0.4434
849	0.7544
858	0.8273
867	0.6938
876	0.8767
885	0.879
894	0.8505
903	0.5771
912	0.6381
921	0.587
930	0.8049
939	0.827
948	0.8158
957	0.4986
966	0.7326
975	0.7347
984	0.5046
993	0.4629
1002	0.5958
1011	0.7343
1020	0.7793
1029	0.6762
1038	0.7826
1047	0.7839
1056	0.7741
1065	0.7318
1074	0.5573
1083	0.7211
1092	0.6172
1101	0.6808
1110	0.6726
1119	0.5314
1128	0.5676
1137	0.4809
1146	0.2084
1155	0.4399
1164	0.1878
1173	0.4876
1182	0.6201
1191	0.7247
1200	0.7258
1209	0.7234
1218	0.7111
1227	0.5668
1236	0.6608
1245	0.4368
1254	0.4916
1263	0.2045
1272	0.5273
1281	0.464
1290	0.3395
1299	0.3362
1308	0.4645
1317	0.2806
1326	0.0668
1335	0.4686
1344	0.5768
1353	0.6639
1362	0.5512
1371	0.7712
1380	0.7934
1389	0.8144
1398	0.8161
1407	0.8147
1416	0.8078
1425	0.7797
1434	0.7118
1443	0.6123
1452	0.7145
1461	0.7404
1470	0.7658
1479	0.7275
1488	0.6439
1497	0.2999
1506	0.6117
1515	0.7124
1524	0.5449
1533	0.421
1542	0.7542
1551	0.8202
1560	0.7997
1569	0.7801
1578	0.7111
1587	0.5752
1596	0.4665
1605	0.182
1614	0.5118
1623	0.8121
1632	0.8639
1641	0.8675
1650	0.8683
1659	0.8721
1668	0.88
1677	0.8796
1686	0.878
1695	0.8793
1704	0.8813
1713	0.881
1722	0.8804
1731	0.8837
1740	0.8839
1749	0.8821
1758	0.8808
1767	0.8795
1776	0.8771
1785	0.8752
1794	0.8736
1803	0.8721
1812	0.8687
1821	0.8709
1830	0.8753
1839	0.8793
1848	0.882
1857	0.8803
1866	0.8781
1875	0.8751
1884	0.8743
1893	0.8684
1902	0.859
1911	0.8452
1920	0.8603
1929	0.8612
1938	0.8681
1947	0.8665
1956	0.8641
1965	0.8613
1974	0.8585
1983	0.8566
1992	0.8528
2001	0.8374
2010	0.8643
2019	0.8657
2028	0.8632
2037	0.8603
2046	0.8561
2055	0.8498
2064	0.8445
2073	0.8389
2082	0.833
2091	0.8271
2100	0.8214
2109	0.8168
2118	0.8124
2127	0.8078
2136	0.8028
2145	0.7984
2154	0.7951
2163	0.7918
2172	0.7885
2181	0.7858
2190	0.7833
2199	0.7808
2208	0.7792
2217	0.7762
2226	0.7705
2235	0.7641
2244	0.7589
2253	0.7546
2262	0.7505
2271	0.7471
2280	0.7441
2289	0.7411
2298	0.7382
2307	0.7351
2316	0.7325
2325	0.7299
2334	0.7274
2343	0.7268
2352	0.7265
2361	0.7262
2370	0.7276
2379	0.7291
2388	0.7305
2397	0.7314
2406	0.7312
2415	0.7305
2424	0.7275
2433	0.7283
2442	0.7293
2451	0.7306
2460	0.7308
2469	0.7304
2478	0.7297
2487	0.7271
2496	0.725
2505	0.7225
2514	0.7195
2523	0.7181
2532	0.7193
2541	0.7221
2550	0.7248
2559	0.7234
2568	0.7208
2577	0.7165
2586	0.7108
2595	0.7071
2604	0.7051
2613	0.7032
2622	0.7014
2631	0.6995
2640	0.6976
2649	0.6955
2658	0.6921
2667	0.6891
2676	0.6867
2685	0.6842
2694	0.6817
2703	0.6791
2712	0.6765
2721	0.673
2730	0.6691
2739	0.6651
2748	0.6595
2757	0.6538
2766	0.6481
2775	0.6421
2784	0.6359
2793	0.6297
2802	0.6229
2811	0.6154
2820	0.6042
2829	0.589
2838	0.5623
2847	0.4912
2856	0.4392
2865	0.501
2874	0.566
2883	0.5693
2892	0.5633
2901	0.5537
2910	0.5243
2919	0.4741
2928	0.4068
2937	0.4159
2946	0.4427
2955	0.4457
2964	0.5491
2973	0.6511
2982	0.6536
2991	0.6428
3000	0.6174
3009	0.5914
3018	0.5997
3027	0.5608
3036	0.5109
3045	0.5471
3054	0.5777
3063	0.5865
3072	0.616
3081	0.6196
3090	0.6045
3099	0.5751
3108	0.5445
3117	0.6265
3126	0.6344
3135	0.6321
3144	0.6262
3153	0.6149
3162	0.5949
3171	0.5844
3180	0.5891
3189	0.5872
3198	0.5796
3207	0.5648
3216	0.5435
3225	0.5169
3234	0.4854
3243	0.4602
3252	0.4236
3261	0.4115
3270	0.4274
3279	0.4903
3288	0.5495
3297	0.5529
3306	0.4972
3315	0.6219
3324	0.6325
3333	0.6373
3342	0.6414
3351	0.6435
3360	0.6449
3369	0.6468
3378	0.6487
3387	0.6506
3396	0.6511
3405	0.6515
3414	0.6518
3423	0.6519
3432	0.6515
3441	0.6505
3450	0.6495
3459	0.6485
3468	0.6471
3477	0.6458
3486	0.6446
3495	0.6433
3504	0.6421
3513	0.6412
3522	0.6403
3531	0.6394
3540	0.6384
3549	0.6373
3558	0.6362
3567	0.6353
3576	0.6343
3585	0.6328
3594	0.6314
3603	0.6299
3612	0.6284
3621	0.6269
3630	0.6252
3639	0.6235
3648	0.6219
3657	0.6203
3666	0.6194
3675	0.6184
3684	0.6175
3693	0.6166
3702	0.6156
3711	0.6145
3720	0.6135
3729	0.6125
3738	0.6114
3747	0.6103
3756	0.6086
3765	0.6069
3774	0.6057
3783	0.6047
3792	0.6037
