Infrared Spectrum: 2-Methyl-1-hexen-3-yne
Formula: C 7 H 10
CAS: 23056-94-2
State: gas
Instrument: HP-GC/MS/IRD
Origin: NIST Mass Spectrometry Data Center
1/CM	ABSORBANCE
550	0.0009603
562	0.0008109
574	0.0005976
586	0.0004536
598	0.0002844
610	0.0002556
622	0.0003519
634	0.0006336
646	0.0004212
658	0.0002853
670	0.0002475
682	0.0002025
694	0.0001539
706	0.0002097
718	0.0001179
730	8.91e-05
742	1.17e-05
754	4.14e-05
766	0.0001035
778	8.55e-05
790	0.0001341
802	0.0002079
814	0.0001791
826	0.0001152
838	0.0002331
850	0.0004797
862	0.0011223
874	0.002421
886	0.0038313
898	0.0042066
910	0.0028314
922	0.0013113
934	0.0004491
946	0.0001863
958	0.0001656
970	0.0001557
982	0.0001593
994	0.0002169
1006	0.000333
1018	0.0003501
1030	0.0003267
1042	0.0004086
1054	0.000531
1066	0.0004347
1078	0.0003051
1090	0.0002457
1102	0.0002286
1114	0.0001971
1126	0.0001773
1138	0.0002097
1150	0.0001404
1162	0.0002169
1174	0.0001872
1186	0.0001836
1198	0.0002376
1210	0.00018
1222	0.0002475
1234	0.0002529
1246	0.0003465
1258	0.0005076
1270	0.0009081
1282	0.0016344
1294	0.0017595
1306	0.0025677
1318	0.0054648
1330	0.0045162
1342	0.001152
1354	0.0008154
1366	0.0013293
1378	0.001647
1390	0.0012987
1402	0.0010026
1414	0.0010728
1426	0.0014202
1438	0.0018495
1450	0.0021222
1462	0.0019854
1474	0.0012951
1486	0.0007335
1498	0.0004797
1510	0.0003483
1522	0.0002781
1534	0.0003087
1546	0.0003366
1558	0.0004392
1570	0.0007074
1582	0.0011286
1594	0.0019314
1606	0.0027783
1618	0.0027369
1630	0.0018378
1642	0.0007353
1654	0.0003402
1666	0.0001944
1678	0.0001134
1690	0.000126
1702	0.0001035
1714	7.65e-05
1726	6.12e-05
1738	7.56e-05
1750	0.0001107
1762	0.0001935
1774	0.0003537
1786	0.0006435
1798	0.0006255
1810	0.0003411
1822	0.0001449
1834	0.0001062
1846	3.42e-05
1858	8.64e-05
1870	5.31e-05
1882	4.5e-05
1894	4.14e-05
1906	8.46e-05
1918	1.26e-05
1930	5.4e-05
1942	3.33e-05
1954	5.67e-05
1966	3.06e-05
1978	6.03e-05
1990	6.57e-05
2002	3.42e-05
2014	3.69e-05
2026	7.38e-05
2038	5.49e-05
2050	5.94e-05
2062	4.68e-05
2074	6.75e-05
2086	3.33e-05
2098	3.42e-05
2110	7.2e-06
2122	5.4e-05
2134	6.48e-05
2146	7.92e-05
2158	0.0001107
2170	0.0001161
2182	0.0001449
2194	0.000225
2206	0.0004176
2218	0.0005832
2230	0.0006093
2242	0.0003672
2254	0.0001683
2266	9.27e-05
2278	8.91e-05
2290	4.05e-05
2302	2.34e-05
2314	4.77e-05
2326	4.95e-05
2338	8.46e-05
2350	4.68e-05
2362	6.48e-05
2374	6.12e-05
2386	4.14e-05
2398	9e-05
2410	7.92e-05
2422	8.82e-05
2434	7.92e-05
2446	2.25e-05
2458	5.31e-05
2470	3.33e-05
2482	7.11e-05
2494	7.2e-05
2506	5.4e-05
2518	5.04e-05
2530	8.19e-05
2542	6.48e-05
2554	1.89e-05
2566	1.26e-05
2578	6.75e-05
2590	8.1e-06
2602	7.47e-05
2614	8.19e-05
2626	0.0001143
2638	9.54e-05
2650	8.73e-05
2662	3.33e-05
2674	3.15e-05
2686	2.52e-05
2698	8.1e-06
2710	6.12e-05
2722	9.18e-05
2734	0.0001737
2746	0.0001395
2758	0.0002043
2770	0.0001692
2782	0.000153
2794	0.0002484
2806	0.0003231
2818	0.000468
2830	0.0006768
2842	0.0010233
2854	0.0015714
2866	0.0021267
2878	0.0026523
2890	0.0034011
2902	0.003951
2914	0.0044667
2926	0.0053262
2938	0.0065646
2950	0.0069984
2962	0.0062307
2974	0.0079047
2986	0.0088614
2998	0.0053388
3010	0.0030951
3022	0.0020007
3034	0.0012555
3046	0.0007497
3058	0.00072
3070	0.0007281
3082	0.0010305
3094	0.0019755
3106	0.0019719
3118	0.0008109
3130	0.0003915
3142	0.000216
3154	0.0001764
3166	0.0001611
3178	0.0001215
3190	8.73e-05
3202	6.93e-05
3214	8.91e-05
3226	2.43e-05
3238	3.69e-05
3250	2.79e-05
3262	5.94e-05
3274	2.7e-06
3286	2.43e-05
3298	2.7e-06
3310	2.07e-05
3322	9.9e-06
3334	5.49e-05
3346	3.87e-05
3358	3.69e-05
3370	1.35e-05
3382	8.37e-05
3394	3.06e-05
3406	6.12e-05
3418	9.81e-05
3430	3.06e-05
3442	3.6e-05
3454	0.000144
3466	6.48e-05
3478	9e-05
3490	1.89e-05
3502	8.46e-05
3514	4.05e-05
3526	0.0001044
3538	0.0001116
3550	4.95e-05
3562	5.4e-05
3574	8.73e-05
3586	3.24e-05
3598	6.21e-05
3610	6.48e-05
3622	5.4e-05
3634	8.82e-05
3646	0.0001098
3658	0.0001332
3670	6.93e-05
3682	8.73e-05
3694	0.0001368
3706	3.06e-05
3718	8.91e-05
3730	0.0001116
3742	0.0001071
3754	0.0001152
3766	0.0001026
3778	0.0001485
3790	5.58e-05
3802	0.0001008
3814	0.0001242
3826	6.21e-05
3838	8.1e-05
