Infrared Spectrum: ACETIC ACID, THIO-, S-PROPYL ESTER
Formula: C5 H10 O S
CAS: 2307-10-0
State: SOLUTION (10% IN CCl4 FOR 4000-1330 CM^-^1, 10% IN CS2 FOR 1330-600 CM^-^1)
Class: COBLENTZ III
Instrument: BECKMAN IR-7 (GRATING)
Instrument parameters: GRATING CHANGES AT 3000, 2200, 1150 CM^-^1
Sampling: TRANSMISSION
Path length: 0.010 CM, 0.011 CM
Resolution: 4
Origin: WESTERN REGIONAL RES. USDA
1/CM	TRANSMITTANCE
602.785	0.753
611.835	0.74
620.885	0.084
629.936	0.223
638.986	0.446
648.036	0.607
657.086	0.688
666.137	0.692
675.187	0.621
684.237	0.715
693.287	0.785
702.337	0.8
711.388	0.803
720.438	0.799
729.488	0.768
738.538	0.731
747.589	0.718
756.639	0.796
765.689	0.822
774.739	0.828
783.79	0.79
792.84	0.72
801.89	0.795
810.94	0.825
819.99	0.834
829.041	0.831
838.091	0.786
847.141	0.768
856.191	0.714
865.242	0.703
874.292	0.729
883.342	0.74
892.392	0.673
901.442	0.6741
910.493	0.782
919.543	0.804
928.593	0.779
937.643	0.679
946.694	0.255
955.744	0.211
964.794	0.401
973.844	0.557
982.895	0.654
991.945	0.704
1000.99	0.701
1010.05	0.657
1019.1	0.672
1028.15	0.699
1037.2	0.723
1046.25	0.714
1055.3	0.72
1064.35	0.683
1073.4	0.655
1082.45	0.64
1091.5	0.469
1100.55	0.131
1109.6	0.134
1118.65	0.204
1127.7	0.045
1136.75	0.048
1145.8	0.269
1154.85	0.491
1163.9	0.6
1172.95	0.681
1182	0.739
1191.05	0.768
1200.1	0.779
1209.15	0.786
1218.2	0.779
1227.25	0.784
1236.3	0.779
1245.35	0.587
1254.4	0.714
1263.45	0.784
1272.5	0.799
1281.55	0.805
1290.6	0.765
1299.65	0.606
1308.7	0.734
1317.75	0.765
1326.8	0.762
1335.85	0.718
1344.9	0.622
1353.95	0.172
1363	0.475
1372.05	0.645
1381.1	0.4442
1390.15	0.629
1399.2	0.66
1408.26	0.565
1417.31	0.469
1426.36	0.475
1435.41	0.475
1444.46	0.485
1453.51	0.464
1462.56	0.354
1471.61	0.499
1480.66	0.623
1489.71	0.656
1498.76	0.651
1507.81	0.627
1516.86	0.587
1525.91	0.547
1534.96	0.518
1544.01	0.449
1553.06	0.415
1562.11	0.45
1571.16	0.513
1580.21	0.549
1589.26	0.566
1598.31	0.617
1607.36	0.686
1616.41	0.713
1625.46	0.731
1634.51	0.736
1643.56	0.725
1652.61	0.677
1661.66	0.58
1670.71	0.54
1679.76	0.26
1688.81	0.002
1697.86	0
1706.91	0.047
1715.96	0.259
1725.01	0.438
1734.06	0.561
1743.11	0.634
1752.16	0.669
1761.21	0.682
1770.26	0.705
1779.31	0.739
1788.36	0.77
1797.41	0.788
1806.47	0.8
1815.52	0.804
1824.57	0.809
1833.62	0.812
1842.67	0.813
1851.72	0.813
1860.77	0.815
1869.82	0.816
1878.87	0.815
1887.92	0.813
1896.97	0.812
1906.02	0.813
1915.07	0.815
1924.12	0.818
1933.17	0.821
1942.22	0.822
1951.27	0.821
1960.32	0.82
1969.37	0.818
1978.42	0.814
1987.47	0.816
1996.52	0.818
2005.57	0.816
2014.62	0.8137
2023.67	0.813
2032.72	0.8112
2041.77	0.811
2050.82	0.813
2059.87	0.813
2068.92	0.8138
2077.97	0.815
2087.02	0.8153
2096.07	0.818
2105.12	0.82
2114.17	0.8221
2123.22	0.8244
2132.27	0.8256
2141.32	0.8279
2150.37	0.829
2159.42	0.829
2168.47	0.8307
2177.52	0.831
2186.57	0.832
2195.62	0.832
2204.68	0.832
2213.73	0.8311
2222.78	0.831
2231.83	0.83
2240.88	0.829
2249.93	0.829
2258.98	0.827
2268.03	0.826
2277.08	0.825
2286.13	0.819
2295.18	0.8137
2304.23	0.807
2313.28	0.804
2322.33	0.8041
2331.38	0.8139
2340.43	0.8186
2349.48	0.82
2358.53	0.8211
2367.58	0.823
2376.63	0.826
2385.68	0.827
2394.73	0.829
2403.78	0.829
2412.83	0.83
2421.88	0.83
2430.93	0.83
2439.98	0.83
2449.03	0.829
2458.08	0.829
2467.13	0.829
2476.18	0.829
2485.23	0.829
2494.28	0.829
2503.33	0.8302
2512.38	0.831
2521.43	0.8317
2530.48	0.832
2539.53	0.832
2548.58	0.832
2557.63	0.832
2566.68	0.832
2575.73	0.832
2584.78	0.831
2593.83	0.831
2602.89	0.83
2611.94	0.829
2620.99	0.8274
2630.04	0.8252
2639.09	0.8168
2648.14	0.8083
2657.19	0.8054
2666.24	0.8058
2675.29	0.8134
2684.34	0.8214
2693.39	0.8246
2702.44	0.825
2711.49	0.825
2720.54	0.8216
2729.59	0.8161
2738.64	0.8092
2747.69	0.8038
2756.74	0.8063
2765.79	0.815
2774.84	0.815
2783.89	0.8092
2792.94	0.7922
2801.99	0.7805
2811.04	0.7721
2820.09	0.7695
2829.14	0.7541
2838.19	0.7375
2847.24	0.713
2856.29	0.6481
2865.34	0.5186
2874.39	0.364
2883.44	0.4804
2892.49	0.595
2901.54	0.5939
2910.59	0.4294
2919.64	0.3469
2928.69	0.2555
2937.74	0.3015
2946.79	0.3831
2955.84	0.1848
2964.89	0.1004
2973.94	0.1875
2982.99	0.2829
2992.04	0.4857
3001.1	0.6025
3010.15	0.6908
3019.2	0.714
3028.25	0.74
3037.3	0.7587
3046.35	0.7714
3055.4	0.7799
3064.45	0.7852
3073.5	0.7895
3082.55	0.7937
3091.6	0.7989
3100.65	0.804
3109.7	0.8055
3118.75	0.8077
3127.8	0.809
3136.85	0.8093
3145.9	0.81
3154.95	0.809
3164	0.808
3173.05	0.806
3182.1	0.805
3191.15	0.804
3200.2	0.8061
3209.25	0.8083
3218.3	0.8106
3227.35	0.8118
3236.4	0.8131
3245.45	0.815
3254.5	0.816
3263.55	0.817
3272.6	0.818
3281.65	0.818
3290.7	0.8174
3299.75	0.817
3308.8	0.8158
3317.85	0.8146
3326.9	0.813
3335.95	0.811
3345	0.8074
3354.05	0.7873
3363.1	0.7643
3372.15	0.7402
3381.2	0.7312
3390.25	0.7499
3399.31	0.7857
3408.36	0.8
3417.41	0.8043
3426.46	0.806
3435.51	0.808
3444.56	0.809
3453.61	0.8103
3462.66	0.811
3471.71	0.811
3480.76	0.811
3489.81	0.81
3498.86	0.81
3507.91	0.809
3516.96	0.808
3526.01	0.807
3535.06	0.806
3544.11	0.805
3553.16	0.804
3562.21	0.804
3571.26	0.804
3580.31	0.806
3589.36	0.809
3598.41	0.8114
3607.46	0.8144
3616.51	0.815
3625.56	0.817
3634.61	0.817
3643.66	0.817
3652.71	0.816
3661.76	0.815
3670.81	0.814
3679.86	0.813
3688.91	0.809
3697.96	0.8077
3707.01	0.8075
3716.06	0.809
3725.11	0.811
3734.16	0.8113
3743.21	0.8125
3752.26	0.813
3761.31	0.813
3770.36	0.813
3779.41	0.813
3788.46	0.813
3797.52	0.813
3806.57	0.813
3815.62	0.813
3824.67	0.812
3833.72	0.811
3842.77	0.811
3851.82	0.81
3860.87	0.81
3869.92	0.809
3878.97	0.808
3888.02	0.8063
3897.07	0.806
3906.12	0.804
3915.17	0.804
3924.22	0.803
3933.27	0.802
3942.32	0.802
3951.37	0.801
3960.42	0.8
3969.47	0.799
3978.52	0.7987
3987.57	0.797
3996.62	0.796
