Infrared Spectrum: 5-Ethylfurfural
Formula: C 7 H 8 O 2
CAS: 23074-10-4
State: gas
Origin: EPA-IR VAPOR PHASE LIBRARY
1/CM	ABSORBANCE
549.8	0.0012886
559.445	0.001612
569.09	0.000678
578.734	0.0006816
588.379	0.0014272
598.024	0.002162
607.669	0.004162
617.313	0.005072
626.958	0.005362
636.603	0.004722
646.248	0.004432
655.893	0.003312
665.537	0.002782
675.182	0.003362
684.827	0.004622
694.472	0.004172
704.116	0.003472
713.761	0.004142
723.406	0.007932
733.051	0.018262
742.695	0.050192
752.34	0.080732
761.985	0.089372
771.63	0.068072
781.275	0.059542
790.919	0.065062
800.564	0.056912
810.209	0.034382
819.854	0.017342
829.498	0.008532
839.143	0.005472
848.788	0.003542
858.433	0.003402
868.078	0.003392
877.722	0.003122
887.367	0.003412
897.012	0.002562
906.657	0.002572
916.301	0.003192
925.946	0.005782
935.591	0.008942
945.236	0.014192
954.88	0.022862
964.525	0.035102
974.17	0.036072
983.815	0.023662
993.46	0.024112
1003.1	0.042862
1012.75	0.068962
1022.39	0.062572
1032.04	0.031432
1041.68	0.010452
1051.33	0.009812
1060.97	0.010382
1070.62	0.007342
1080.26	0.004712
1089.91	0.003912
1099.55	0.002452
1109.2	0.002832
1118.84	0.003712
1128.49	0.002172
1138.13	0.002812
1147.78	0.002832
1157.42	0.004492
1167.07	0.006102
1176.71	0.011212
1186.36	0.022382
1196	0.038332
1205.64	0.040862
1215.29	0.030972
1224.93	0.020982
1234.58	0.012952
1244.22	0.011212
1253.87	0.013342
1263.51	0.018602
1273.16	0.020492
1282.8	0.015562
1292.45	0.010312
1302.09	0.013212
1311.74	0.025452
1321.38	0.036912
1331.03	0.031652
1340.67	0.016232
1350.32	0.011702
1359.96	0.011952
1369.61	0.012182
1379.25	0.013022
1388.9	0.019072
1398.54	0.022082
1408.18	0.018322
1417.83	0.012002
1427.47	0.010682
1437.12	0.011652
1446.76	0.012392
1456.41	0.013202
1466.05	0.013882
1475.7	0.015142
1485.34	0.021222
1494.99	0.042222
1504.63	0.111552
1514.28	0.232382
1523.92	0.237222
1533.57	0.105112
1543.21	0.027562
1552.86	0.015682
1562.5	0.014822
1572.15	0.020012
1581.79	0.027702
1591.44	0.027682
1601.08	0.019042
1610.73	0.009962
1620.37	0.005992
1630.01	0.004662
1639.66	0.004872
1649.3	0.006502
1658.95	0.012122
1668.59	0.020432
1678.24	0.040772
1687.88	0.124792
1697.53	0.337692
1707.17	0.378782
1716.82	0.208732
1726.46	0.099902
1736.11	0.055162
1745.75	0.022472
1755.4	0.013512
1765.04	0.010532
1774.69	0.008072
1784.33	0.005942
1793.98	0.004202
1803.62	0.003492
1813.27	0.003072
1822.91	0.002932
1832.55	0.003012
1842.2	0.003212
1851.84	0.003252
1861.49	0.003102
1871.13	0.002672
1880.78	0.002172
1890.42	0.001942
1900.07	0.001792
1909.71	0.001942
1919.36	0.001862
1929	0.001972
1938.65	0.002112
1948.29	0.002182
1957.94	0.002452
1967.58	0.002282
1977.23	0.001992
1986.87	0.001822
1996.52	0.002082
2006.16	0.002152
2015.81	0.002302
2025.45	0.002412
2035.1	0.002152
2044.74	0.001722
2054.38	0.0013568
2064.03	0.0012342
2073.67	0.0009492
2083.32	0.0007208
2092.96	0.0008109
2102.61	0.0009396
2112.25	0.0010245
2121.9	0.0010876
2131.54	0.0010781
2141.19	0.001452
2150.83	0.001512
2160.48	0.001692
2170.12	0.002022
2179.77	0.002132
2189.41	0.002162
2199.06	0.002522
2208.7	0.002702
2218.35	0.002442
2227.99	0.002032
2237.64	0.001812
2247.28	0.0014157
2256.92	0.0013775
2266.57	0.001632
2276.21	0.001572
2285.86	0.0012501
2295.5	0.0009583
2305.15	0.0008146
2314.79	0.0009454
2324.44	0.0011174
2334.08	0.0013178
2343.73	0.001462
2353.37	0.001512
2363.02	0.001682
2372.66	0.001902
2382.31	0.001862
2391.95	0.001852
2401.6	0.001952
2411.24	0.001912
2420.89	0.001742
2430.53	0.0013535
2440.18	0.0014065
2449.82	0.001562
2459.47	0.001462
2469.11	0.001502
2478.75	0.001722
2488.4	0.002062
2498.04	0.002292
2507.69	0.002112
2517.33	0.002002
2526.98	0.001702
2536.62	0.001782
2546.27	0.001652
2555.91	0.001942
2565.56	0.001602
2575.2	0.001582
2584.85	0.001752
2594.49	0.001572
2604.14	0.001762
2613.78	0.001742
2623.43	0.001782
2633.07	0.001922
2642.72	0.002302
2652.36	0.002892
2662.01	0.003192
2671.65	0.003562
2681.29	0.004432
2690.94	0.007142
2700.58	0.013722
2710.23	0.017392
2719.87	0.017222
2729.52	0.017202
2739.16	0.019052
2748.81	0.019242
2758.45	0.017782
2768.1	0.017642
2777.74	0.021282
2787.39	0.031422
2797.03	0.053842
2806.68	0.057562
2816.32	0.046902
2825.97	0.038102
2835.61	0.034162
2845.26	0.024042
2854.9	0.016152
2864.55	0.013882
2874.19	0.015142
2883.84	0.019222
2893.48	0.022622
2903.12	0.023022
2912.77	0.022042
2922.41	0.023802
2932.06	0.029552
2941.7	0.036312
2951.35	0.038362
2960.99	0.034632
2970.64	0.037362
2980.28	0.057202
2989.93	0.056482
2999.57	0.031222
3009.22	0.014832
3018.86	0.009332
3028.51	0.006952
3038.15	0.005542
3047.8	0.004132
3057.44	0.003872
3067.09	0.003812
3076.73	0.003512
3086.38	0.003362
3096.02	0.003702
3105.67	0.003212
3115.31	0.004362
3124.95	0.005542
3134.6	0.005062
3144.24	0.002712
3153.89	0.002492
3163.53	0.002082
3173.18	0.002072
3182.82	0.001532
3192.47	0.001424
3202.11	0.0014251
3211.76	0.001502
3221.4	0.001672
3231.05	0.001682
3240.69	0.0014276
3250.34	0.000705
3259.98	0.0007804
3269.63	0.0006333
3279.27	0.0007333
3288.92	0.000574
3298.56	0.0008429
3308.21	0.0006969
3317.85	0.0007237
3327.49	0.0006891
3337.14	0.0006349
3346.78	0.0011366
3356.43	0.0010987
3366.07	0.002022
3375.72	0.004592
3385.36	0.006352
3395.01	0.006602
3404.65	0.003752
3414.3	0.002322
3423.94	0.001462
3433.59	0.0009088
3443.23	0.0006377
3452.88	0.0010228
3462.52	0.0009811
3472.17	0.0007491
3481.81	0.00046681
3491.46	0.0006661
3501.1	0.0005917
3510.75	0.0006778
3520.39	0.0006199
3530.04	0.0006314
3539.68	0.0006691
3549.32	0.00052887
3558.97	0.000324
3568.61	0.0006518
3578.26	0.00049482
3587.9	0.00046594
3597.55	0.00053356
3607.19	0.0006225
3616.84	0.0009523
3626.48	0.0005832
3636.13	0.0006825
3645.77	0.0007534
3655.42	0.0010193
3665.06	0.0008321
3674.71	0.0007431
3684.35	0.0008226
3694	0.00047508
3703.64	0.00051022
3713.29	0
3722.93	0.0006471
3732.58	0.0005505
3742.22	0.0006722
3751.86	0.0005404
3761.51	0.0007923
3771.15	0.0004137
3780.8	0.0006207
3790.44	0.0006495
3800.09	0.0007215
3809.73	0.0005717
3819.38	0.0008406
3829.02	0.000227
3838.67	0.0008445
3848.31	0.0004195
3857.96	0.000665
3867.6	0.0006089
3877.25	0.0006678
3886.89	0.0005075
3896.54	0.0009467
3906.18	0.0004336
3915.83	0.0006638
3925.47	0.0003715
3935.12	0.00048903
3944.76	0.001003
3954.41	0.0010191
3964.05	0.0009112
3973.69	0.0007491
3983.34	0.0008573
3992.98	0.001009
