Infrared Spectrum: 1-Adamantane carbonitrile
Formula: C 11 H 15 N
CAS: 23074-42-2
State: gas
Instrument: HP-GC/MS/IRD
Origin: NIST Mass Spectrometry Data Center
1/CM	ABSORBANCE
550	0.0002016
562	0.0001656
574	5.04e-05
586	0.0001512
598	0.0001512
610	0.0001224
622	7.92e-05
634	0.0001728
646	0.0002664
658	0.0003816
670	0.0005472
682	0.0004608
694	0.0003816
706	0.0003168
718	0.0001656
730	0.00018
742	7.92e-05
754	0.0001944
766	0.0001944
778	0.0001872
790	0.000216
802	0.0003024
814	0.000396
826	0.0002664
838	0.000216
850	0.0002232
862	0.0001728
874	0.0002088
886	0.0001656
898	0.0001296
910	0.0001152
922	0.000144
934	0.0002304
946	0.0002232
958	0.0003744
970	0.0008136
982	0.001008
994	0.0003312
1006	0.0001584
1018	0.0001656
1030	0.000144
1042	0.0001944
1054	0.0002808
1066	0.0005616
1078	0.0004968
1090	0.0013392
1102	0.0024264
1114	0.0007272
1126	0.000396
1138	0.0002592
1150	0.0001728
1162	0.0001656
1174	0.000216
1186	0.0003168
1198	0.0001584
1210	0.0001224
1222	7.92e-05
1234	7.92e-05
1246	9.36e-05
1258	6.48e-05
1270	7.92e-05
1282	0.0001296
1294	0.00018
1306	0.0005832
1318	0.0010872
1330	0.0004896
1342	0.0005688
1354	0.0007344
1366	0.0006192
1378	0.0002736
1390	0.000324
1402	0.000396
1414	0.0005544
1426	0.0008568
1438	0.0018432
1450	0.00612
1462	0.0069984
1474	0.0022896
1486	0.0005184
1498	0.0003096
1510	0.0002232
1522	0.0001656
1534	0.000108
1546	9.36e-05
1558	7.92e-05
1570	6.48e-05
1582	8.64e-05
1594	7.92e-05
1606	6.48e-05
1618	6.48e-05
1630	0.0001008
1642	7.2e-05
1654	7.92e-05
1666	5.76e-05
1678	3.6e-05
1690	3.6e-05
1702	4.32e-05
1714	7.2e-06
1726	3.6e-05
1738	5.04e-05
1750	3.6e-05
1762	7.2e-05
1774	5.76e-05
1786	1.44e-05
1798	0
1810	3.6e-05
1822	5.04e-05
1834	3.6e-05
1846	3.6e-05
1858	2.88e-05
1870	4.32e-05
1882	3.6e-05
1894	5.04e-05
1906	6.48e-05
1918	8.64e-05
1930	8.64e-05
1942	3.6e-05
1954	4.32e-05
1966	3.6e-05
1978	2.88e-05
1990	6.48e-05
2002	6.48e-05
2014	5.04e-05
2026	4.32e-05
2038	4.32e-05
2050	2.16e-05
2062	3.6e-05
2074	2.88e-05
2086	4.32e-05
2098	3.6e-05
2110	2.88e-05
2122	7.92e-05
2134	7.2e-05
2146	7.92e-05
2158	5.76e-05
2170	4.32e-05
2182	7.2e-06
2194	7.2e-06
2206	9.36e-05
2218	0.0003456
2230	0.000648
2242	0.0006624
2254	0.00054
2266	0.0003816
2278	0.0001296
2290	9.36e-05
2302	8.64e-05
2314	7.2e-05
2326	4.32e-05
2338	6.48e-05
2350	7.2e-05
2362	0.000108
2374	9.36e-05
2386	9.36e-05
2398	7.2e-05
2410	8.64e-05
2422	0.0001224
2434	0.0001368
2446	7.92e-05
2458	7.92e-05
2470	7.92e-05
2482	9.36e-05
2494	0.0001152
2506	0.0001296
2518	8.64e-05
2530	0.0001368
2542	0.0001584
2554	0.0001944
2566	0.0002232
2578	0.0002376
2590	0.0002016
2602	0.0002736
2614	0.0004104
2626	0.0004248
2638	0.0004752
2650	0.0006768
2662	0.0008856
2674	0.0009072
2686	0.000612
2698	0.000324
2710	0.000216
2722	0.0002232
2734	0.000288
2746	0.0003312
2758	0.0003744
2770	0.0003672
2782	0.0004608
2794	0.000648
2806	0.0008568
2818	0.0009864
2830	0.001188
2842	0.0022464
2854	0.0090504
2866	0.016704
2878	0.0106344
2890	0.005256
2902	0.0118728
2914	0.0463248
2926	0.072
2938	0.052416
2950	0.0231912
2962	0.004932
2974	0.0014256
2986	0.0007776
2998	0.0004968
3010	0.0003672
3022	0.0002448
3034	0.0001728
3046	7.92e-05
3058	0.000144
3070	0.0001224
3082	0.000144
3094	0.0001224
3106	0.0001584
3118	8.64e-05
3130	0.0001728
3142	0.000144
3154	0.0001224
3166	6.48e-05
3178	5.76e-05
3190	5.04e-05
3202	0.000108
3214	7.92e-05
3226	0.000216
3238	0.000288
3250	0.00018
3262	8.64e-05
3274	0.0001008
3286	4.32e-05
3298	6.48e-05
3310	0.0001296
3322	0.0001512
3334	0.000144
3346	0.0001584
3358	0.0002016
3370	0.0002016
3382	0.00018
3394	0.0001296
3406	0.000108
3418	0.0001584
3430	0.000144
3442	7.92e-05
3454	7.92e-05
3466	7.2e-05
3478	2.88e-05
3490	2.88e-05
3502	4.32e-05
3514	5.76e-05
3526	5.76e-05
3538	7.2e-05
3550	6.48e-05
3562	0.0001728
3574	0.000108
3586	7.92e-05
3598	3.6e-05
3610	0.0001224
3622	7.2e-05
3634	2.88e-05
3646	5.04e-05
3658	6.48e-05
3670	0.000108
3682	0.0001152
3694	8.64e-05
3706	0.0001008
3718	0.0001008
3730	0.0001368
3742	0.0001584
3754	0.0001584
3766	7.92e-05
3778	5.04e-05
3790	9.36e-05
3802	0.0002088
3814	0.0001944
3826	0.0001584
3838	0.0001296
