Infrared Spectrum: PHOSPHONIC ACID, (2,4-DINITROPHENYL)-, DIETHYL ESTER
Formula: C10 H13 N2 O7 P
CAS: 23081-75-6
State: LIQUID (NEAT)
Class: COBLENTZ III
Instrument: PERKIN-ELMER 21 (GRATING)
Instrument parameters: FILTER CHANGE AT 1075 CM^-^1
Sampling: TRANSMISSION
Path length: CAPILLARY
Resolution: 4
Origin: SOUTHERN RESEARCH INSTITUTE
1/CM	TRANSMITTANCE
603.858	0.756
612.859	0.758
621.861	0.774
630.862	0.79
639.863	0.797
648.864	0.82
657.866	0.845
666.867	0.862
675.868	0.864
684.869	0.863
693.871	0.854
702.872	0.84
711.873	0.816
720.875	0.779
729.876	0.738
738.877	0.693
747.878	0.695
756.88	0.735
765.881	0.746
774.882	0.737
783.884	0.669
792.885	0.571
801.886	0.404
810.887	0.419
819.889	0.408
828.89	0.463
837.891	0.628
846.892	0.735
855.894	0.747
864.895	0.748
873.896	0.744
882.898	0.741
891.899	0.734
900.9	0.718
909.901	0.705
918.903	0.676
927.904	0.607
936.905	0.525
945.907	0.325
954.908	0.205
963.909	0.1
972.91	0.073
981.912	0.103
990.913	0.215
999.914	0.312
1008.92	0.247
1017.92	0.036
1026.92	0.008
1035.92	0.014
1044.92	0.028
1053.92	0.061
1062.92	0.178
1071.92	0.211
1080.93	0.27
1089.93	0.372
1098.93	0.372
1107.93	0.396
1116.93	0.533
1125.93	0.599
1134.93	0.607
1143.93	0.595
1152.94	0.567
1161.94	0.478
1170.94	0.389
1179.94	0.572
1188.94	0.673
1197.94	0.692
1206.94	0.695
1215.94	0.678
1224.95	0.661
1233.95	0.609
1242.95	0.515
1251.95	0.341
1260.95	0.119
1269.95	0.113
1278.95	0.161
1287.96	0.241
1296.96	0.389
1305.96	0.502
1314.96	0.641
1323.96	0.683
1332.96	0.704
1341.96	0.711
1350.96	0.71
1359.97	0.701
1368.97	0.631
1377.97	0.613
1386.97	0.628
1395.97	0.508
1404.97	0.559
1413.97	0.67
1422.97	0.693
1431.98	0.69
1440.98	0.639
1449.98	0.565
1458.98	0.633
1467.98	0.661
1476.98	0.65
1485.98	0.605
1494.98	0.693
1503.99	0.725
1512.99	0.729
1521.99	0.737
1530.99	0.738
1539.99	0.738
1548.99	0.738
1557.99	0.743
1566.99	0.742
1576	0.738
1585	0.737
1594	0.738
1603	0.734
1612	0.725
1621	0.719
1630	0.709
1639	0.71
1648.01	0.709
1657.01	0.711
1666.01	0.716
1675.01	0.724
1684.01	0.725
1693.01	0.721
1702.01	0.719
1711.02	0.719
1720.02	0.715
1729.02	0.714
1738.02	0.715
1747.02	0.709
1756.02	0.706
1765.02	0.706
1774.02	0.707
1783.03	0.716
1792.03	0.719
1801.03	0.72
1810.03	0.721
1819.03	0.716
1828.03	0.71
1837.03	0.709
1846.03	0.707
1855.04	0.707
1864.04	0.707
1873.04	0.713
1882.04	0.711
1891.04	0.714
1900.04	0.718
1909.04	0.72
1918.04	0.72
1927.05	0.716
1936.05	0.714
1945.05	0.719
1954.05	0.719
1963.05	0.725
1972.05	0.728
1981.05	0.732
1990.05	0.728
1999.06	0.73
2008.06	0.727
2017.06	0.728
2026.06	0.73
2035.06	0.73
2044.06	0.73
2053.06	0.73
2062.06	0.73
2071.07	0.729
2080.07	0.721
2089.07	0.723
2098.07	0.723
2107.07	0.719
2116.07	0.721
2125.07	0.723
2134.08	0.723
2143.08	0.72
2152.08	0.724
2161.08	0.72
2170.08	0.725
2179.08	0.724
2188.08	0.721
2197.08	0.723
2206.09	0.72
2215.09	0.723
2224.09	0.723
2233.09	0.721
2242.09	0.72
2251.09	0.723
2260.09	0.727
2269.09	0.725
2278.1	0.723
2287.1	0.724
2296.1	0.73
2305.1	0.738
2314.1	0.748
2323.1	0.758
2332.1	0.758
2341.1	0.755
2350.11	0.752
2359.11	0.747
2368.11	0.734
2377.11	0.719
2386.11	0.715
2395.11	0.713
2404.11	0.711
2413.11	0.709
2422.12	0.709
2431.12	0.714
2440.12	0.716
2449.12	0.716
2458.12	0.72
2467.12	0.723
2476.12	0.723
2485.12	0.723
2494.13	0.723
2503.13	0.724
2512.13	0.725
2521.13	0.724
2530.13	0.723
2539.13	0.723
2548.13	0.723
2557.14	0.725
2566.14	0.723
2575.14	0.723
2584.14	0.723
2593.14	0.723
2602.14	0.724
2611.14	0.724
2620.14	0.724
2629.15	0.724
2638.15	0.724
2647.15	0.724
2656.15	0.724
2665.15	0.725
2674.15	0.728
2683.15	0.728
2692.15	0.724
2701.16	0.72
2710.16	0.719
2719.16	0.711
2728.16	0.71
2737.16	0.709
2746.16	0.706
2755.16	0.702
2764.16	0.702
2773.17	0.702
2782.17	0.702
2791.17	0.701
2800.17	0.698
2809.17	0.695
2818.17	0.691
2827.17	0.692
2836.17	0.678
2845.18	0.672
2854.18	0.658
2863.18	0.633
2872.18	0.617
2881.18	0.609
2890.18	0.603
2899.18	0.584
2908.18	0.501
2917.19	0.485
2926.19	0.498
2935.19	0.487
2944.19	0.485
2953.19	0.497
2962.19	0.489
2971.19	0.447
2980.2	0.363
2989.2	0.331
2998.2	0.36
3007.2	0.408
3016.2	0.494
3025.2	0.595
3034.2	0.635
3043.2	0.655
3052.21	0.668
3061.21	0.678
3070.21	0.682
3079.21	0.686
3088.21	0.688
3097.21	0.691
3106.21	0.693
3115.21	0.692
3124.22	0.691
3133.22	0.69
3142.22	0.69
3151.22	0.69
3160.22	0.688
3169.22	0.687
3178.22	0.687
3187.22	0.684
3196.23	0.684
3205.23	0.683
3214.23	0.682
3223.23	0.681
3232.23	0.678
3241.23	0.677
3250.23	0.674
3259.23	0.674
3268.24	0.674
3277.24	0.672
3286.24	0.67
3295.24	0.67
3304.24	0.67
3313.24	0.672
3322.24	0.672
3331.24	0.672
3340.25	0.672
3349.25	0.672
3358.25	0.673
3367.25	0.673
3376.25	0.673
3385.25	0.673
3394.25	0.673
3403.26	0.674
3412.26	0.674
3421.26	0.674
3430.26	0.674
3439.26	0.674
3448.26	0.676
3457.26	0.676
3466.26	0.676
3475.27	0.676
3484.27	0.676
3493.27	0.677
3502.27	0.677
3511.27	0.677
3520.27	0.677
3529.27	0.677
3538.27	0.678
3547.28	0.678
3556.28	0.678
3565.28	0.678
3574.28	0.678
3583.28	0.679
3592.28	0.679
3601.28	0.681
3610.28	0.681
3619.29	0.681
3628.29	0.682
3637.29	0.683
3646.29	0.683
3655.29	0.684
3664.29	0.684
3673.29	0.684
3682.29	0.686
3691.3	0.686
3700.3	0.687
3709.3	0.688
3718.3	0.688
3727.3	0.688
3736.3	0.688
3745.3	0.688
3754.3	0.686
3763.31	0.684
3772.31	0.683
3781.31	0.684
3790.31	0.684
3799.31	0.686
3808.31	0.687
3817.31	0.688
3826.32	0.69
3835.32	0.688
3844.32	0.688
3853.32	0.691
3862.32	0.69
3871.32	0.688
3880.32	0.687
3889.32	0.683
3898.33	0.682
3907.33	0.683
3916.33	0.681
3925.33	0.681
3934.33	0.676
3943.33	0.676
3952.33	0.674
3961.33	0.674
3970.34	0.678
3979.34	0.678
3988.34	0.673
3997.34	0.665
4006.34	0.665
4015.34	0.664
4024.34	0.669
4033.34	0.668
4042.35	0.674
4051.35	0.676
4060.35	0.672
