Infrared Spectrum: trans-6-Phenyl-2-hexene
Formula: C 12 H 16
CAS: 23086-43-3
State: gas
Instrument: HP-GC/MS/IRD
Origin: NIST Mass Spectrometry Data Center
1/CM	ABSORBANCE
550	0.00016
562	0.00037
574	0.000265
586	0.0003525
598	0.0002525
610	0.0001675
622	6.25e-05
634	5.25e-05
646	0.000265
658	0.0006025
670	0.00142
682	0.0035225
694	0.008315
706	0.00704
718	0.0047625
730	0.00596
742	0.006565
754	0.0034525
766	0.00167
778	0.000875
790	0.00052
802	0.0004625
814	0.0004525
826	0.00023
838	0.000325
850	0.0003575
862	0.0004225
874	0.0004775
886	0.00067
898	0.001065
910	0.0013525
922	0.00132
934	0.0017375
946	0.003245
958	0.006405
970	0.005845
982	0.002815
994	0.0018275
1006	0.0015325
1018	0.001615
1030	0.0021975
1042	0.001185
1054	0.001075
1066	0.0016375
1078	0.0015725
1090	0.0008075
1102	0.000565
1114	0.00044
1126	0.0003125
1138	0.0001925
1150	0.00024
1162	0.0002725
1174	0.00035
1186	0.0003075
1198	0.0004625
1210	0.000415
1222	0.00042
1234	0.0004725
1246	0.0004225
1258	0.0004225
1270	0.00057
1282	0.0007275
1294	0.0008725
1306	0.00093
1318	0.000925
1330	0.001055
1342	0.0014725
1354	0.00145
1366	0.0010325
1378	0.00109
1390	0.00103
1402	0.0008675
1414	0.0010175
1426	0.0015125
1438	0.0031575
1450	0.0047325
1462	0.00374
1474	0.00216
1486	0.0026975
1498	0.00454
1510	0.001435
1522	0.00069
1534	0.000545
1546	0.0004725
1558	0.0004525
1570	0.0005875
1582	0.0010475
1594	0.0020225
1606	0.002295
1618	0.0007725
1630	0.000365
1642	0.0003225
1654	0.0002725
1666	0.0002775
1678	0.00025
1690	0.000265
1702	0.0003175
1714	0.0003775
1726	0.0004375
1738	0.0004
1750	0.0003175
1762	0.000265
1774	0.0003625
1786	0.0005875
1798	0.00066
1810	0.000375
1822	0.00025
1834	0.0002175
1846	0.000265
1858	0.0003725
1870	0.000445
1882	0.0003625
1894	0.00017
1906	0.0001575
1918	0.0002825
1930	0.0004975
1942	0.00056
1954	0.0004625
1966	0.00013
1978	0.00011
1990	0.0001075
2002	0.000105
2014	8.75e-05
2026	3.5e-05
2038	4.5e-05
2050	2.5e-05
2062	1.25e-05
2074	2.5e-05
2086	2.25e-05
2098	3.25e-05
2110	0
2122	2.25e-05
2134	3.5e-05
2146	2.75e-05
2158	2.5e-05
2170	2e-05
2182	2e-05
2194	4e-05
2206	1.5e-05
2218	7.5e-06
2230	5e-06
2242	3.25e-05
2254	2.75e-05
2266	2e-05
2278	5.25e-05
2290	3.5e-05
2302	9.75e-05
2314	0.000145
2326	0.000105
2338	0.00011
2350	0.00012
2362	0.00012
2374	0.0001275
2386	8.5e-05
2398	9.75e-05
2410	9.5e-05
2422	6.75e-05
2434	4.5e-05
2446	7.75e-05
2458	6.25e-05
2470	9.75e-05
2482	9.75e-05
2494	9.25e-05
2506	5.75e-05
2518	8.25e-05
2530	8.75e-05
2542	9.75e-05
2554	9.5e-05
2566	0.000105
2578	0.0001175
2590	0.000145
2602	0.000165
2614	0.000175
2626	0.0002175
2638	0.0002325
2650	0.00022
2662	0.00026
2674	0.000275
2686	0.000245
2698	0.000225
2710	0.00022
2722	0.000305
2734	0.00045
2746	0.000525
2758	0.000435
2770	0.0004775
2782	0.0006175
2794	0.0007575
2806	0.000875
2818	0.001195
2830	0.00185
2842	0.003685
2854	0.0068775
2866	0.009665
2878	0.008135
2890	0.007175
2902	0.009185
2914	0.0131025
2926	0.021235
2938	0.024625
2950	0.016365
2962	0.0088175
2974	0.006535
2986	0.00544
2998	0.00547
3010	0.0067375
3022	0.009595
3034	0.0114075
3046	0.0069025
3058	0.00628
3070	0.008595
3082	0.0058275
3094	0.0039675
3106	0.00252
3118	0.0014025
3130	0.0007625
3142	0.000485
3154	0.000405
3166	0.0003275
3178	0.00026
3190	0.000185
3202	0.00018
3214	0.00018
3226	0.0001075
3238	9e-05
3250	0.00012
3262	8.25e-05
3274	7.5e-05
3286	0.0001175
3298	5.5e-05
3310	9.75e-05
3322	5.25e-05
3334	5.75e-05
3346	6.25e-05
3358	6.5e-05
3370	2.25e-05
3382	5.75e-05
3394	2.25e-05
3406	5e-06
3418	4.75e-05
3430	0.0001025
3442	8.5e-05
3454	3.25e-05
3466	9.5e-05
3478	1.5e-05
3490	5e-06
3502	2.25e-05
3514	8.25e-05
3526	4.75e-05
3538	0
3550	4.25e-05
3562	5e-06
3574	7.5e-06
3586	2.25e-05
3598	3.75e-05
3610	5.5e-05
3622	4.5e-05
3634	7e-05
3646	0.0001025
3658	7.5e-05
3670	6.5e-05
3682	7e-05
3694	7e-05
3706	7.75e-05
3718	6.5e-05
3730	9.75e-05
3742	0.0001
3754	8.75e-05
3766	5.75e-05
3778	7e-05
3790	8.75e-05
3802	6.25e-05
3814	9.5e-05
3826	0.000135
3838	0.0001225
