Infrared Spectrum: 5-Bromo-2-methoxybenzenesulphonyl chloride
Formula: C 7 H 6 Br Cl O 3 S
CAS: 23095-05-8
State: gas
Origin: EPA-IR VAPOR PHASE LIBRARY
1/CM	ABSORBANCE
549.8	0.077805
559.445	0.091935
569.09	0.124805
578.734	0.087805
588.379	0.169295
598.024	0.124325
607.669	0.046755
617.313	0.029235
626.958	0.026035
636.603	0.011735
646.248	0.006585
655.893	0.004955
665.537	0.004885
675.182	0.005385
684.827	0.006615
694.472	0.013345
704.116	0.027335
713.761	0.026655
723.406	0.010925
733.051	0.005565
742.695	0.004595
752.34	0.003755
761.985	0.002635
771.63	0.002015
781.275	0.002505
790.919	0.004985
800.564	0.013525
810.209	0.035585
819.854	0.043885
829.498	0.027885
839.143	0.008445
848.788	0.003975
858.433	0.002735
868.078	0.002445
877.722	0.003195
887.367	0.005075
897.012	0.008135
906.657	0.003705
916.301	0.002015
925.946	0.001735
935.591	0.002135
945.236	0.002595
954.88	0.003265
964.525	0.004545
974.17	0.006195
983.815	0.007975
993.46	0.011515
1003.1	0.022245
1012.75	0.038735
1022.39	0.042435
1032.04	0.025905
1041.68	0.015545
1051.33	0.024555
1060.97	0.055585
1070.62	0.038805
1080.26	0.021045
1089.91	0.030135
1099.55	0.019705
1109.2	0.012235
1118.84	0.010435
1128.49	0.012415
1138.13	0.019635
1147.78	0.029365
1157.42	0.034035
1167.07	0.056535
1176.71	0.115695
1186.36	0.164295
1196	0.120235
1205.64	0.034685
1215.29	0.015315
1224.93	0.015905
1234.58	0.024895
1244.22	0.041425
1253.87	0.055215
1263.51	0.076685
1273.16	0.150065
1282.8	0.168635
1292.45	0.072075
1302.09	0.022105
1311.74	0.011635
1321.38	0.008155
1331.03	0.007355
1340.67	0.007655
1350.32	0.007735
1359.96	0.010375
1369.61	0.017625
1379.25	0.028475
1388.9	0.055485
1398.54	0.171005
1408.18	0.159355
1417.83	0.043115
1427.47	0.040125
1437.12	0.060635
1446.76	0.056695
1456.41	0.039945
1466.05	0.085995
1475.7	0.186065
1485.34	0.179695
1494.99	0.061815
1504.63	0.018665
1514.28	0.010815
1523.92	0.008895
1533.57	0.007215
1543.21	0.007385
1552.86	0.012495
1562.5	0.021695
1572.15	0.021785
1581.79	0.033535
1591.44	0.025465
1601.08	0.008325
1610.73	0.004965
1620.37	0.004135
1630.01	0.003835
1639.66	0.003085
1649.3	0.002885
1658.95	0.002305
1668.59	0.001915
1678.24	0.001555
1687.88	0.0013364
1697.53	0.0011677
1707.17	0.0013906
1716.82	0.001555
1726.46	0.001505
1736.11	0.0013703
1745.75	0.001775
1755.4	0.002035
1765.04	0.002225
1774.69	0.002475
1784.33	0.003025
1793.98	0.002705
1803.62	0.001695
1813.27	0.0012072
1822.91	0.0013918
1832.55	0.002025
1842.2	0.002585
1851.84	0.001755
1861.49	0.001715
1871.13	0.002045
1880.78	0.003375
1890.42	0.003775
1900.07	0.002855
1909.71	0.001785
1919.36	0.0012573
1929	0.0008428
1938.65	0.0009237
1948.29	0.0010455
1957.94	0.0013344
1967.58	0.001675
1977.23	0.002055
1986.87	0.002155
1996.52	0.002375
2006.16	0.001925
2015.81	0.001915
2025.45	0.001855
2035.1	0.001895
2044.74	0.001935
2054.38	0.001685
2064.03	0.001495
2073.67	0.0014555
2083.32	0.001835
2092.96	0.002315
2102.61	0.002285
2112.25	0.002045
2121.9	0.001495
2131.54	0.00132
2141.19	0.0007698
2150.83	0.0008531
2160.48	0.0006943
2170.12	0.0009783
2179.77	0.0010897
2189.41	0.0013317
2199.06	0.0012682
2208.7	0.0011189
2218.35	0.0008404
2227.99	0.0007682
2237.64	0.001019
2247.28	0.0009409
2256.92	0.0011178
2266.57	0.0009828
2276.21	0.0012944
2285.86	0.001635
2295.5	0.001645
2305.15	0.001755
2314.79	0.0013625
2324.44	0.0009369
2334.08	0.0010714
2343.73	0.0010269
2353.37	0.0012202
2363.02	0.0009683
2372.66	0.0011515
2382.31	0.000966
2391.95	0.0010477
2401.6	0.0010687
2411.24	0.0010759
2420.89	0.0010502
2430.53	0.0009059
2440.18	0.0008428
2449.82	0.0009245
2459.47	0.000882
2469.11	0.0008046
2478.75	0.0011499
2488.4	0.0011219
2498.04	0.0010306
2507.69	0.001495
2517.33	0.001535
2526.98	0.002135
2536.62	0.002425
2546.27	0.002605
2555.91	0.002865
2565.56	0.002575
2575.2	0.002075
2584.85	0.001935
2594.49	0.0014158
2604.14	0.0011781
2613.78	0.001324
2623.43	0.0012306
2633.07	0.0014581
2642.72	0.0011603
2652.36	0.0010634
2662.01	0.0012724
2671.65	0.0010391
2681.29	0.0008465
2690.94	0.0009433
2700.58	0.0009605
2710.23	0.0010483
2719.87	0.0012022
2729.52	0.0012924
2739.16	0.0013169
2748.81	0.001595
2758.45	0.001605
2768.1	0.001575
2777.74	0.0014725
2787.39	0.001605
2797.03	0.002175
2806.68	0.002505
2816.32	0.002895
2825.97	0.004235
2835.61	0.006105
2845.26	0.011275
2854.9	0.013485
2864.55	0.008555
2874.19	0.005845
2883.84	0.005535
2893.48	0.006775
2903.12	0.007695
2912.77	0.007565
2922.41	0.008075
2932.06	0.010765
2941.7	0.021975
2951.35	0.027075
2960.99	0.016125
2970.64	0.013915
2980.28	0.012255
2989.93	0.007775
2999.57	0.006305
3009.22	0.007725
3018.86	0.011975
3028.51	0.011325
3038.15	0.005475
3047.8	0.003825
3057.44	0.003665
3067.09	0.004585
3076.73	0.008025
3086.38	0.009655
3096.02	0.007005
3105.67	0.004465
3115.31	0.002025
3124.95	0.001735
3134.6	0.001605
3144.24	0.0011873
3153.89	0.0012946
3163.53	0.0012596
3173.18	0.0009955
3182.82	0.0008283
3192.47	0.0006884
3202.11	0.0005736
3211.76	0.0004457
3221.4	0.0005854
3231.05	0.00053506
3240.69	0.000739
3250.34	0.000268
3259.98	0.000223
3269.63	0.000372
3279.27	0.000182
3288.92	0.00051763
3298.56	0.00054399
3308.21	0.000251
3317.85	0.0007119
3327.49	0.00058271
3337.14	0.0006555
3346.78	0.000376
3356.43	0.000364
3366.07	0
3375.72	0.000203
3385.36	0.00057827
3395.01	0.0007139
3404.65	0.000294
3414.3	0.000343
3423.94	0.0006488
3433.59	0.0004337
3443.23	0.000156
3452.88	0.000195
3462.52	0.000327
3472.17	0.000432
3481.81	0.00056476
3491.46	0.000349
3501.1	0.0006173
3510.75	0.000363
3520.39	0.0003946
3530.04	0.000295
3539.68	0.0006872
3549.32	0.00028
3558.97	0.00048847
3568.61	0.000128
3578.26	0.0009327
3587.9	0.000373
3597.55	0.000236
3607.19	0.0007811
3616.84	0.0006473
3626.48	0.00056525
3636.13	0.0004613
3645.77	0.00052507
3655.42	0.0008117
3665.06	0.00038
3674.71	0.000106
3684.35	0.000239
3694	0.00053489
3703.64	0.0004038
3713.29	0.000191
3722.93	0.00052631
3732.58	0.0006858
3742.22	0.000484305
3751.86	0.00047974
3761.51	0.00049842
3771.15	0.0007026
3780.8	0.000299
3790.44	0.00052199
3800.09	0.0008216
3809.73	0.000235
3819.38	0.000707
3829.02	0.0006307
3838.67	0.00057367
3848.31	0.0004446
3857.96	0.000332
3867.6	0.000333
3877.25	0.0009484
3886.89	0.0004378
3896.54	0.0009469
3906.18	0.0009484
3915.83	0.0010819
3925.47	0.0007515
3935.12	0.0007079
3944.76	0.0008878
3954.41	0.0006123
3964.05	0.0008938
3973.69	0.000442
3983.34	0.000362
3992.98	0.00052441
