Infrared Spectrum: p-Dodecyloxybenzoic acid
Formula: C 19 H 30 O 3
CAS: 2312-15-4
State: gas
Origin: EPA-IR VAPOR PHASE LIBRARY
1/CM	ABSORBANCE
551.7	0.0011648
563.274	0.0015
574.848	0.00168
586.421	0.00139
597.995	0.00177
609.569	0.00216
621.143	0.00213
632.717	0.000953
644.291	0.0005591
655.864	0.0004751
667.438	0.0005314
679.012	0.0006287
690.586	0.0010798
702.16	0.00154
713.734	0.0012671
725.307	0.0009909
736.881	0.0008614
748.455	0.0008229
760.029	0.0012218
771.603	0.00229
783.177	0.00157
794.75	0.0009756
806.324	0.0009334
817.898	0.0008086
829.472	0.001005
841.046	0.00166
852.619	0.00145
864.193	0.0008558
875.767	0.0008382
887.341	0.0007567
898.915	0.0007845
910.489	0.000762
922.062	0.0005886
933.636	0.0008218
945.21	0.0007367
956.784	0.0008456
968.358	0.0009309
979.932	0.00134
991.505	0.00149
1003.08	0.00193
1014.65	0.00252
1026.23	0.00271
1037.8	0.00246
1049.37	0.00251
1060.95	0.00394
1072.52	0.00697
1084.1	0.00735
1095.67	0.00282
1107.24	0.0019
1118.82	0.00186
1130.39	0.0016
1141.97	0.002
1153.54	0.00614
1165.11	0.01332
1176.69	0.00441
1188.26	0.00451
1199.83	0.00253
1211.41	0.00246
1222.98	0.00371
1234.56	0.0059
1246.13	0.00971
1257.7	0.00869
1269.28	0.00413
1280.85	0.00286
1292.42	0.00312
1304	0.00355
1315.57	0.00315
1327.15	0.00349
1338.72	0.00263
1350.29	0.00265
1361.87	0.00462
1373.44	0.00237
1385.02	0.00151
1396.59	0.0010921
1408.16	0.0010518
1419.74	0.0014
1431.31	0.0010385
1442.88	0.0011537
1454.46	0.00165
1466.03	0.00206
1477.61	0.00197
1489.18	0.00134
1500.75	0.00298
1512.33	0.00462
1523.9	0.00155
1535.48	0.0009212
1547.05	0.0008711
1558.62	0.0010616
1570.2	0.00145
1581.77	0.00215
1593.34	0.00373
1604.92	0.00758
1616.49	0.0039
1628.07	0.00135
1639.64	0.0007041
1651.21	0.0006017
1662.79	0.0005009
1674.36	0.0004673
1685.93	0.0006043
1697.51	0.00072
1709.08	0.0009261
1720.66	0.0012518
1732.23	0.00222
1743.8	0.00609
1755.38	0.01867
1766.95	0.00595
1778.53	0.00212
1790.1	0.0010393
1801.67	0.0007607
1813.25	0.0006532
1824.82	0.0005728
1836.39	0.00037723
1847.97	0.000304
1859.54	0.0002884
1871.12	0.0003408
1882.69	0.0003055
1894.26	0.00038746
1905.84	0.0004235
1917.41	0.0004307
1928.99	0.00041182
1940.56	0.00033431
1952.13	0.00040083
1963.71	0.00035059
1975.28	0.00038804
1986.85	0.00035597
1998.43	0.00033155
2010	0.0002839
2021.58	0.0003646
2033.15	0.0002925
2044.72	0.000323136
2056.3	0.000320441
2067.87	0.0003126
2079.44	0.0003066
2091.02	0.000328598
2102.59	0.00031251
2114.17	0.0002513
2125.74	0.000319438
2137.31	0.0002236
2148.89	0.0003171
2160.46	0.0002717
2172.04	0.0002886
2183.61	0.0002498
2195.18	0.0002383
2206.76	0.0002348
2218.33	0.0002816
2229.9	0.000232
2241.48	0.0002986
2253.05	0.000208
2264.63	0.0002393
2276.2	0.00022
2287.77	0.0002663
2299.35	0.0002937
2310.92	0.000327414
2322.5	0.00031575
2334.07	0.00035117
2345.64	0.0002861
2357.22	0.0002846
2368.79	0.00031578
2380.36	0.0002915
2391.94	0.000304
2403.51	0.000309
2415.09	0.0002991
2426.66	0.0002841
2438.23	0.0003031
2449.81	0.000321197
2461.38	0.0002893
2472.96	0.0002646
2484.53	0.000322438
2496.1	0.00041586
2507.68	0.0002931
2519.25	0.0002619
2530.82	0.0003015
2542.4	0.00033932
2553.97	0.0004325
2565.55	0.00041044
2577.12	0.00035041
2588.69	0.0002704
2600.27	0.000322875
2611.84	0.0002914
2623.41	0.0002763
2634.99	0.00037008
2646.56	0.00037998
2658.14	0.00034915
2669.71	0.0002993
2681.28	0.00039702
2692.86	0.00035911
2704.43	0.0002697
2716.01	0.00036941
2727.58	0.0004583
2739.15	0.00037614
2750.73	0.0004728
2762.3	0.0004516
2773.87	0.0004733
2785.45	0.0004702
2797.02	0.0006227
2808.6	0.0007195
2820.17	0.0008243
2831.74	0.0011659
2843.32	0.00178
2854.89	0.00397
2866.47	0.00564
2878.04	0.00415
2889.61	0.0037
2901.19	0.00417
2912.76	0.00667
2924.33	0.01164
2935.91	0.01457
2947.48	0.00965
2959.06	0.00612
2970.63	0.00468
2982.2	0.00236
2993.78	0.0012987
3005.35	0.0009051
3016.92	0.0007412
3028.5	0.0005898
3040.07	0.00040591
3051.65	0.0005646
3063.22	0.0005597
3074.79	0.0005656
3086.37	0.0005554
3097.94	0.00041959
3109.52	0.00033477
3121.09	0.0004128
3132.66	0.00035655
3144.24	0.0003023
3155.81	0.0003448
3167.38	0.0002293
3178.96	0.0002336
3190.53	0.0003003
3202.11	0.0002596
3213.68	0.000155
3225.25	0.0002794
3236.83	0.000368
3248.4	0.000145
3259.98	0.000203
3271.55	0.000174
3283.12	0.0002302
3294.7	0.0002783
3306.27	0.00015
3317.84	0.0002942
3329.42	0.0002212
3340.99	0.000209
3352.57	0.0002
3364.14	0.0002495
3375.71	0.000168
3387.29	4.4e-05
3398.86	6.2e-05
3410.43	0.000169
3422.01	0.000255
3433.58	0.000156
3445.16	2e-05
3456.73	0.000215
3468.3	0.000141
3479.88	0.0002291
3491.45	0.0002903
3503.03	0.000324641
3514.6	0.00039011
3526.17	0.0002636
3537.75	0.0002987
3549.32	0.0002672
3560.89	0.0004984
3572.47	0.0012624
3584.04	0.00566
3595.62	0.00151
3607.19	0.000455
3618.76	0.0002798
3630.34	0.00034369
3641.91	0.0002491
3653.49	0.00033683
3665.06	0.0002747
3676.63	0.0002813
3688.21	0.000197
3699.78	0.00039931
3711.35	0.000218
3722.93	0.0002861
3734.5	0.0002535
3746.08	0.0002914
3757.65	0.000203
3769.22	0.0002486
3780.8	0.000146
3792.37	0.000191
3803.94	0.000171
3815.52	0.00035335
3827.09	0.000114
3838.67	0.0003013
3850.24	0.0002789
3861.81	0.00033244
3873.39	0.000117
3884.96	0.000177
3896.54	0.000176
3908.11	0.000144
3919.68	0.0002215
3931.26	0.0002475
3942.83	0.000189
3954.4	0.0002834
3965.98	0.00012
3977.55	0.0002936
3989.13	0.000168
4000.7	2.5e-05
