Infrared Spectrum: PROPIONAMIDE, 3-BENZOYL-
Formula: C10 H11 N O2
CAS: 23132-29-8
State: SOLID (0.95 mg / 653 mg KBr)
Class: COBLENTZ III
Instrument: PERKIN-ELMER 21 (GRATING)
Instrument parameters: FILTER CHANGE AT ABOUT 1080 CM^-^1
Sampling: TRANSMISSION
Resolution: 2
Origin: SOUTHERN RESEARCH INSTITUTE
1/CM	TRANSMITTANCE
647.818	0.541
657.055	0.5143
666.291	0.5217
675.528	0.5586
684.764	0.4977
694.001	0.2649
703.237	0.6164
712.474	0.7967
721.711	0.8935
730.947	0.8885
740.184	0.72
749.42	0.5832
758.657	0.8374
767.893	0.592
777.13	0.4882
786.366	0.8092
795.603	0.8245
804.84	0.8451
814.076	0.9296
823.313	0.9036
832.549	1.0371
841.786	1.0258
851.022	1.0547
860.259	1.0736
869.496	1.0821
878.732	1.082
887.969	1.0686
897.205	1.065
906.442	1.0613
915.678	1.0427
924.915	0.9342
934.151	1.0421
943.388	0.9876
952.625	1.0066
961.861	0.8792
971.098	0.7343
980.334	0.9447
989.571	0.8644
998.807	0.7104
1008.04	1.0066
1017.28	1.0397
1026.52	1.0227
1035.75	1.0089
1044.99	0.992
1054.23	0.8945
1063.46	0.9508
1072.7	0.9919
1081.94	0.9335
1091.17	0.9627
1100.41	0.9486
1109.65	0.9146
1118.88	0.861
1128.12	0.759
1137.36	0.8421
1146.59	0.8615
1155.83	0.7656
1165.07	0.7868
1174.3	0.7006
1183.54	0.4535
1192.78	0.4809
1202.01	0.7547
1211.25	0.5042
1220.48	0.4458
1229.72	0.788
1238.96	0.6754
1248.19	0.3881
1257.43	0.6729
1266.67	0.7478
1275.9	0.7894
1285.14	0.7522
1294.38	0.7032
1303.61	0.5359
1312.85	0.5647
1322.09	0.6095
1331.32	0.8701
1340.56	0.8158
1349.8	0.7903
1359.03	0.6796
1368.27	0.4109
1377.51	0.6439
1386.74	0.6277
1395.98	0.5709
1405.22	0.3618
1414.45	0.2378
1423.69	0.6212
1432.93	0.6538
1442.16	0.3706
1451.4	0.4517
1460.64	0.9289
1469.87	0.9908
1479.11	0.998
1488.35	0.9743
1497.58	0.967
1506.82	0.9569
1516.05	0.9427
1525.29	0.9338
1534.53	0.8898
1543.76	0.87
1553	0.8481
1562.24	0.7782
1571.47	0.6912
1580.71	0.5497
1589.95	0.505
1599.18	0.4984
1608.42	0.532
1617.66	0.3122
1626.89	0.1821
1636.13	0.331
1645.37	0.2998
1654.6	0.2132
1663.84	0.0864
1673.08	0.025
1682.31	0.1234
1691.55	0.4246
1700.79	0.6123
1710.02	0.7526
1719.26	0.847
1728.5	0.8932
1737.73	0.9437
1746.97	0.9745
1756.21	0.9961
1765.44	1.022
1774.68	1.023
1783.92	1.0599
1793.15	1.0754
1802.39	1.0828
1811.62	1.0803
1820.86	1.0989
1830.1	1.1137
1839.33	1.113
1848.57	1.131
1857.81	1.134
1867.04	1.1322
1876.28	1.126
1885.52	1.123
1894.75	1.095
1903.99	1.0994
1913.23	1.104
1922.46	1.1185
1931.7	1.1148
1940.94	1.1119
1950.17	1.11
1959.41	1.0987
1968.65	1.082
1977.88	1.0927
1987.12	1.097
1996.36	1.1115
2005.59	1.1175
2014.83	1.1168
2024.07	1.119
2033.3	1.12
2042.54	1.119
2051.78	1.116
2061.01	1.116
2070.25	1.113
2079.49	1.11
2088.72	1.1078
2097.96	1.105
2107.19	1.105
2116.43	1.104
2125.67	1.101
2134.9	1.0875
2144.14	1.094
2153.38	1.094
2162.61	1.092
2171.85	1.091
2181.09	1.089
2190.32	1.086
2199.56	1.0815
2208.8	1.0755
2218.03	1.0725
2227.27	1.067
2236.51	1.068
2245.74	1.067
2254.98	1.065
2264.22	1.073
2273.45	1.056
2282.69	1.0528
2291.93	1.044
2301.16	1.043
2310.4	1.046
2319.64	1.046
2328.87	1.0408
2338.11	1.038
2347.35	1.038
2356.58	1.037
2365.82	1.035
2375.06	1.038
2384.29	1.04
2393.53	1.04
2402.76	1.034
2412	1.0318
2421.24	1.029
2430.47	1.028
2439.71	1.028
2448.95	1.029
2458.18	1.0275
2467.42	1.025
2476.66	1.0245
2485.89	1.019
2495.13	1.0215
2504.37	1.013
2513.6	1.0258
2522.84	1.0155
2532.08	1.0168
2541.31	1.0145
2550.55	1.017
2559.79	1.013
2569.02	1.014
2578.26	1.0041
2587.5	0.9948
2596.73	0.992
2605.97	0.992
2615.21	0.991
2624.44	0.9918
2633.68	0.992
2642.92	0.992
2652.15	0.989
2661.39	0.985
2670.63	0.98
2679.86	0.977
2689.1	0.9755
2698.34	0.9618
2707.57	0.9597
2716.81	0.9621
2726.04	0.9403
2735.28	0.92
2744.52	0.9138
2753.75	0.8883
2762.99	0.8663
2772.23	0.8676
2781.46	0.9055
2790.7	0.9175
2799.94	0.9198
2809.17	0.9008
2818.41	0.8873
2827.65	0.8768
2836.88	0.8762
2846.12	0.8739
2855.36	0.8611
2864.59	0.8389
2873.83	0.7929
2883.07	0.7493
2892.3	0.7482
2901.54	0.7934
2910.78	0.8522
2920.01	0.8618
2929.25	0.8426
2938.49	0.8268
2947.72	0.8177
2956.96	0.826
2966.2	0.822
2975.43	0.8101
2984.67	0.805
2993.91	0.8
3003.14	0.7858
3012.38	0.7785
3021.61	0.7538
3030.85	0.725
3040.09	0.7138
3049.32	0.7033
3058.56	0.6978
3067.8	0.6733
3077.03	0.6618
3086.27	0.6433
3095.51	0.6176
3104.74	0.5643
3113.98	0.5336
3123.22	0.4393
3132.45	0.341
3141.69	0.2948
3150.93	0.3251
3160.16	0.3902
3169.4	0.4489
3178.64	0.5024
3187.87	0.5297
3197.11	0.5625
3206.35	0.568
3215.58	0.568
3224.82	0.5633
3234.06	0.5498
3243.29	0.537
3252.53	0.5125
3261.77	0.4995
3271	0.489
3280.24	0.4725
3289.48	0.4604
3298.71	0.4246
3307.95	0.3896
3317.18	0.3411
3326.42	0.3033
3335.66	0.3027
3344.89	0.3324
3354.13	0.3811
3363.37	0.4507
3372.6	0.5136
3381.84	0.5828
3391.08	0.6481
3400.31	0.7012
3409.55	0.7274
3418.79	0.7527
3428.02	0.7745
3437.26	0.7919
3446.5	0.8182
3455.73	0.8372
3464.97	0.8565
3474.21	0.861
3483.44	0.8655
3492.68	0.8775
3501.92	0.8882
3511.15	0.8942
3520.39	0.897
3529.63	0.9002
3538.86	0.9072
3548.1	0.9115
3557.34	0.9175
3566.57	0.9342
3575.81	0.9402
3585.05	0.9475
3594.28	0.959
3603.52	0.964
3612.75	0.9635
3621.99	0.958
3631.23	0.9687
3640.46	0.982
3649.7	0.974
3658.94	0.973
3668.17	0.974
3677.41	0.974
3686.65	0.9738
3695.88	0.973
3705.12	0.976
3714.36	0.9665
3723.59	0.964
3732.83	0.9665
3742.07	0.976
3751.3	0.965
3760.54	0.9618
3769.78	0.959
3779.01	0.967
3788.25	0.962
3797.49	0.961
3806.72	0.9513
3815.96	0.9505
3825.2	0.956
3834.43	0.9493
3843.67	0.943
3852.91	0.947
3862.14	0.9485
