Infrared Spectrum: 3-Acetylphenylisocyanate
Formula: C 9 H 7 N O 2
CAS: 23138-64-9
State: gas
Origin: EPA-IR VAPOR PHASE LIBRARY
1/CM	ABSORBANCE
551.7	0.00421
563.274	0.00698
574.848	0.0136
586.421	0.02149
597.995	0.02206
609.569	0.01598
621.143	0.01095
632.717	0.00819
644.291	0.00945
655.864	0.01183
667.438	0.01185
679.012	0.01962
690.586	0.02199
702.16	0.00895
713.734	0.00348
725.307	0.00253
736.881	0.00216
748.455	0.00217
760.029	0.0029
771.603	0.00826
783.177	0.02196
794.75	0.02315
806.324	0.01008
817.898	0.00645
829.472	0.01233
841.046	0.01391
852.619	0.00901
864.193	0.00612
875.767	0.00753
887.341	0.0072
898.915	0.00739
910.489	0.00597
922.062	0.00383
933.636	0.00347
945.21	0.00589
956.784	0.00754
968.358	0.00506
979.932	0.00288
991.505	0.00213
1003.08	0.00245
1014.65	0.00252
1026.23	0.00258
1037.8	0.00221
1049.37	0.00253
1060.95	0.00422
1072.52	0.00801
1084.1	0.00811
1095.67	0.00718
1107.24	0.00938
1118.82	0.01079
1130.39	0.00757
1141.97	0.00559
1153.54	0.00651
1165.11	0.00798
1176.69	0.00672
1188.26	0.00661
1199.83	0.00826
1211.41	0.01101
1222.98	0.01892
1234.56	0.04618
1246.13	0.1034
1257.7	0.09429
1269.28	0.03961
1280.85	0.02884
1292.42	0.01596
1304	0.00919
1315.57	0.00649
1327.15	0.00585
1338.72	0.00783
1350.29	0.01903
1361.87	0.03286
1373.44	0.01658
1385.02	0.00853
1396.59	0.00898
1408.16	0.01291
1419.74	0.01739
1431.31	0.01608
1442.88	0.01551
1454.46	0.01639
1466.03	0.01262
1477.61	0.01209
1489.18	0.02269
1500.75	0.03362
1512.33	0.02229
1523.9	0.01014
1535.48	0.0069
1547.05	0.00691
1558.62	0.01042
1570.2	0.02496
1581.77	0.04586
1593.34	0.04284
1604.92	0.03704
1616.49	0.01926
1628.07	0.00888
1639.64	0.00627
1651.21	0.00625
1662.79	0.00882
1674.36	0.01328
1685.93	0.01821
1697.51	0.05072
1709.08	0.10292
1720.66	0.04404
1732.23	0.01278
1743.8	0.0111
1755.38	0.00763
1766.95	0.0045
1778.53	0.00329
1790.1	0.00304
1801.67	0.00307
1813.25	0.00278
1824.82	0.00252
1836.39	0.00232
1847.97	0.00221
1859.54	0.0024
1871.12	0.00241
1882.69	0.00233
1894.26	0.0021
1905.84	0.00165
1917.41	0.00172
1928.99	0.00214
1940.56	0.00264
1952.13	0.00251
1963.71	0.0021
1975.28	0.00175
1986.85	0.00157
1998.43	0.00146
2010	0.00146
2021.58	0.00157
2033.15	0.00174
2044.72	0.00206
2056.3	0.00239
2067.87	0.00285
2079.44	0.00313
2091.02	0.00366
2102.59	0.00494
2114.17	0.00663
2125.74	0.00755
2137.31	0.00949
2148.89	0.01414
2160.46	0.01762
2172.04	0.01939
2183.61	0.02683
2195.18	0.0431
2206.76	0.06155
2218.33	0.07507
2229.9	0.0931
2241.48	0.14428
2253.05	0.27988
2264.63	0.54477
2276.2	0.60634
2287.77	0.29302
2299.35	0.15693
2310.92	0.10564
2322.5	0.08406
2334.07	0.07766
2345.64	0.06348
2357.22	0.04791
2368.79	0.03589
2380.36	0.02377
2391.94	0.01477
2403.51	0.01031
2415.09	0.00804
2426.66	0.00697
2438.23	0.00597
2449.81	0.00488
2461.38	0.00381
2472.96	0.00287
2484.53	0.00236
2496.1	0.00201
2507.68	0.00185
2519.25	0.00178
2530.82	0.00168
2542.4	0.00168
2553.97	0.00143
2565.55	0.0014
2577.12	0.00144
2588.69	0.00151
2600.27	0.00151
2611.84	0.00146
2623.41	0.00139
2634.99	0.00124
2646.56	0.00123
2658.14	0.00135
2669.71	0.00146
2681.28	0.00159
2692.86	0.00164
2704.43	0.00172
2716.01	0.00175
2727.58	0.00171
2739.15	0.00161
2750.73	0.00151
2762.3	0.00137
2773.87	0.00132
2785.45	0.00122
2797.02	0.00115
2808.6	0.00114
2820.17	0.00126
2831.74	0.00143
2843.32	0.00148
2854.89	0.00159
2866.47	0.00175
2878.04	0.00171
2889.61	0.00188
2901.19	0.00222
2912.76	0.00275
2924.33	0.0033
2935.91	0.00344
2947.48	0.00336
2959.06	0.00383
2970.63	0.00487
2982.2	0.00444
2993.78	0.0037
3005.35	0.00451
3016.92	0.00591
3028.5	0.00476
3040.07	0.00424
3051.65	0.00518
3063.22	0.00825
3074.79	0.01133
3086.37	0.00956
3097.94	0.00622
3109.52	0.00507
3121.09	0.00391
3132.66	0.00262
3144.24	0.00178
3155.81	0.00154
3167.38	0.00126
3178.96	0.00121
3190.53	0.00103
3202.11	0.0009818
3213.68	0.0008427
3225.25	0.0008713
3236.83	0.0009204
3248.4	0.000752
3259.98	0.0009313
3271.55	0.0009274
3283.12	0.0008089
3294.7	0.0008148
3306.27	0.0009377
3317.84	0.00111
3329.42	0.00135
3340.99	0.0016
3352.57	0.00189
3364.14	0.00243
3375.71	0.00335
3387.29	0.00431
3398.86	0.00505
3410.43	0.00466
3422.01	0.00341
3433.58	0.00246
3445.16	0.002
3456.73	0.00157
3468.3	0.00142
3479.88	0.00146
3491.45	0.00146
3503.03	0.00147
3514.6	0.00163
3526.17	0.00161
3537.75	0.00145
3549.32	0.0013
3560.89	0.00114
3572.47	0.0014
3584.04	0.00129
3595.62	0.00157
3607.19	0.00166
3618.76	0.00173
3630.34	0.00202
3641.91	0.00216
3653.49	0.00262
3665.06	0.00289
3676.63	0.00334
3688.21	0.00307
3699.78	0.00252
3711.35	0.00268
3722.93	0.00271
3734.5	0.00259
3746.08	0.00228
3757.65	0.00246
3769.22	0.0025
3780.8	0.00252
3792.37	0.00222
3803.94	0.0019
3815.52	0.00139
3827.09	0.00147
3838.67	0.00104
3850.24	0.00125
3861.81	0.00118
3873.39	0.00103
3884.96	0.001
3896.54	0.00112
3908.11	0.00102
3919.68	0.0009678
3931.26	0.0008889
3942.83	0.000981
3954.4	0.0009751
3965.98	0.0009229
3977.55	0.00105
3989.13	0.000992
4000.7	0.00113
