Infrared Spectrum: 3-Ethylphenyl isocyanate
Formula: C 9 H 9 N O
CAS: 23138-58-1
State: gas
Origin: EPA-IR VAPOR PHASE LIBRARY
1/CM	ABSORBANCE
549.8	0.001912
559.445	0.002732
569.09	0.006402
578.734	0.006632
588.379	0.006832
598.024	0.007442
607.669	0.009752
617.313	0.008642
626.958	0.006412
636.603	0.006352
646.248	0.008392
655.893	0.008192
665.537	0.006472
675.182	0.009542
684.827	0.015172
694.472	0.016042
704.116	0.008972
713.761	0.004692
723.406	0.003742
733.051	0.002682
742.695	0.003832
752.34	0.004362
761.985	0.006802
771.63	0.012752
781.275	0.021412
790.919	0.017672
800.564	0.008712
810.209	0.003792
819.854	0.006022
829.498	0.002962
839.143	0.003602
848.788	0.004852
858.433	0.014332
868.078	0.025182
877.722	0.020122
887.367	0.008952
897.012	0.004632
906.657	0.002502
916.301	0.0014798
925.946	0.0012746
935.591	0.0010538
945.236	0.0011518
954.88	0.0006928
964.525	0.001732
974.17	0.001782
983.815	0.002042
993.46	0.0012246
1003.1	0.000735
1012.75	0.0004442
1022.39	0.0012723
1032.04	0.001872
1041.68	0.003002
1051.33	0.004222
1060.97	0.004842
1070.62	0.003272
1080.26	0.006402
1089.91	0.011002
1099.55	0.013512
1109.2	0.013032
1118.84	0.008192
1128.49	0.003842
1138.13	0.003572
1147.78	0.003502
1157.42	0.002982
1167.07	0.002292
1176.71	0.0007847
1186.36	0.0014017
1196	0.004142
1205.64	0.006682
1215.29	0.007692
1224.93	0.005782
1234.58	0.004302
1244.22	0.002812
1253.87	0.002682
1263.51	0.001942
1273.16	0.003562
1282.8	0.002662
1292.45	0.002792
1302.09	0.003452
1311.74	0.004262
1321.38	0.005232
1331.03	0.005452
1340.67	0.003632
1350.32	0.002412
1359.96	0.002282
1369.61	0.002552
1379.25	0.002972
1388.9	0.003252
1398.54	0.003472
1408.18	0.004292
1417.83	0.005182
1427.47	0.006692
1437.12	0.007982
1446.76	0.009042
1456.41	0.010922
1466.05	0.012352
1475.7	0.013962
1485.34	0.018742
1494.99	0.028292
1504.63	0.031232
1514.28	0.020252
1523.92	0.010102
1533.57	0.005562
1543.21	0.004892
1552.86	0.005892
1562.5	0.010512
1572.15	0.020102
1581.79	0.035142
1591.44	0.047692
1601.08	0.059632
1610.73	0.052862
1620.37	0.023812
1630.01	0.008472
1639.66	0.004512
1649.3	0.003142
1658.95	0.002072
1668.59	0.002112
1678.24	0.001882
1687.88	0.001562
1697.53	0.0012876
1707.17	0.0012369
1716.82	0.0010756
1726.46	0.0011385
1736.11	0.001532
1745.75	0.001542
1755.4	0.001972
1765.04	0.001822
1774.69	0.001692
1784.33	0.001622
1793.98	0.0014972
1803.62	0.0010351
1813.27	0.0010678
1822.91	0.0010591
1832.55	0.0013844
1842.2	0.001682
1851.84	0.002182
1861.49	0.002112
1871.13	0.0012317
1880.78	0.0008409
1890.42	0.0009126
1900.07	0.0008476
1909.71	0.0011746
1919.36	0.001772
1929	0.002092
1938.65	0.001852
1948.29	0.0012322
1957.94	0.0007954
1967.58	0.0012304
1977.23	0.0011735
1986.87	0.0013626
1996.52	0.0013331
2006.16	0.0013301
2015.81	0.0014269
2025.45	0.0013968
2035.1	0.001572
2044.74	0.001812
2054.38	0.002152
2064.03	0.002572
2073.67	0.003142
2083.32	0.003482
2092.96	0.003682
2102.61	0.004222
2112.25	0.005892
2121.9	0.007442
2131.54	0.009202
2141.19	0.011402
2150.83	0.014182
2160.48	0.017732
2170.12	0.020722
2179.77	0.024072
2189.41	0.031732
2199.06	0.045192
2208.7	0.062752
2218.35	0.079192
2227.99	0.091952
2237.64	0.112702
2247.28	0.173582
2256.92	0.332932
2266.57	0.613072
2276.21	0.647722
2285.86	0.368752
2295.5	0.177612
2305.15	0.103812
2314.79	0.076012
2324.44	0.067492
2334.08	0.064652
2343.73	0.057102
2353.37	0.049882
2363.02	0.048222
2372.66	0.039192
2382.31	0.024032
2391.95	0.014432
2401.6	0.009862
2411.24	0.007542
2420.89	0.006162
2430.53	0.005352
2440.18	0.004762
2449.82	0.004112
2459.47	0.003872
2469.11	0.003292
2478.75	0.002642
2488.4	0.001752
2498.04	0.001782
2507.69	0.0014745
2517.33	0.0014402
2526.98	0.0012638
2536.62	0.0014775
2546.27	0.0010393
2555.91	0.0013383
2565.56	0.0013848
2575.2	0.001542
2584.85	0.0013184
2594.49	0.0010506
2604.14	0.0014936
2613.78	0.0010648
2623.43	0.0011726
2633.07	0.0012223
2642.72	0.001277
2652.36	0.0010543
2662.01	0.0012406
2671.65	0.0013027
2681.29	0.0013848
2690.94	0.0013445
2700.58	0.001792
2710.23	0.001982
2719.87	0.001792
2729.52	0.001872
2739.16	0.002232
2748.81	0.002062
2758.45	0.001572
2768.1	0.001782
2777.74	0.001642
2787.39	0.001562
2797.03	0.0014557
2806.68	0.001722
2816.32	0.002142
2825.97	0.002262
2835.61	0.003022
2845.26	0.003602
2854.9	0.004742
2864.55	0.006952
2874.19	0.010412
2883.84	0.012802
2893.48	0.012722
2903.12	0.012402
2912.77	0.012062
2922.41	0.013952
2932.06	0.017442
2941.7	0.022212
2951.35	0.021642
2960.99	0.020872
2970.64	0.036032
2980.28	0.037662
2989.93	0.018262
2999.57	0.010522
3009.22	0.008512
3018.86	0.007732
3028.51	0.007682
3038.15	0.007712
3047.8	0.008742
3057.44	0.012342
3067.09	0.014082
3076.73	0.010562
3086.38	0.007042
3096.02	0.004602
3105.67	0.003952
3115.31	0.003002
3124.95	0.003382
3134.6	0.003182
3144.24	0.002902
3153.89	0.002722
3163.53	0.001802
3173.18	0.001892
3182.82	0.0012996
3192.47	0.001031
3202.11	0.0014842
3211.76	0.0004564
3221.4	0.0006475
3231.05	0.0011447
3240.69	0.0009682
3250.34	0.0004858
3259.98	0.00056415
3269.63	0.0007279
3279.27	0.0008474
3288.92	0.0004702
3298.56	0.0009446
3308.21	0.001276
3317.85	0.0009533
3327.49	0.0007047
3337.14	0.001246
3346.78	0.001662
3356.43	0.002212
3366.07	0.002472
3375.72	0.002512
3385.36	0.003142
3395.01	0.002492
3404.65	0.0014327
3414.3	0.0014179
3423.94	0.0011415
3433.59	0.0006579
3443.23	0.0011029
3452.88	0.0008596
3462.52	0.001542
3472.17	0.0013767
3481.81	0.002352
3491.46	0.002272
3501.1	0.001512
3510.75	0.0009153
3520.39	0.0014373
3530.04	0.0011206
3539.68	0.0006429
3549.32	0.000502407
3558.97	0.0014632
3568.61	0.001742
3578.26	0.0013211
3587.9	0.0010365
3597.55	0.0014137
3607.19	0.001772
3616.84	0.00146
3626.48	0.001672
3636.13	0.001822
3645.77	0.001792
3655.42	0.001942
3665.06	0.002562
3674.71	0.002982
3684.35	0.002922
3694	0.003012
3703.64	0.003012
3713.29	0.001612
3722.93	0.002242
3732.58	0.002372
3742.22	0.002292
3751.86	0.002202
3761.51	0.001892
3771.15	0.001902
3780.8	0.001662
3790.44	0.002122
3800.09	0.0013584
3809.73	0.0010284
3819.38	0.0009142
3829.02	0.00055239
3838.67	0.0009666
3848.31	0.0004071
3857.96	0.0010798
3867.6	0.0008473
3877.25	0.000793
3886.89	0.0009063
3896.54	0.0006255
3906.18	0.000128
3915.83	0.0009395
3925.47	0.0012205
3935.12	0.0006897
3944.76	0.0006429
3954.41	0.000335
3964.05	0.000282
3973.69	0.0006995
3983.34	0.000277
3992.98	0.0007044
