Infrared Spectrum: 4-(P-ETHOXYPHENYLAZO)-M-PHENYLENEDIAMINE MONOHYDROCHLORIDE
Formula: C14 H17 Cl N4 O
CAS: 2313-87-3
State: SOLID (OIL MULL)
Melting point: 213 C DECOMPOSES
Class: COBLENTZ
Instrument: Not specified, most likely a prism, grating, or hybrid spectrometer.
Sampling: TRANSMISSION
Resolution: 4
Origin: WYANDOTTE CHEMICALS CORP., WYANDOTTE, MICHIGAN, USA
MICROMETERS	TRANSMITTANCE
2.017	0.24
2.05684	0.245
2.09668	0.247
2.13652	0.247
2.17636	0.249
2.2162	0.26
2.25604	0.267
2.29588	0.272
2.33572	0.274
2.37556	0.275
2.4154	0.275
2.45524	0.282
2.49508	0.294
2.53492	0.305
2.57476	0.312
2.6146	0.322
2.65444	0.335
2.69428	0.342
2.73412	0.348
2.77396	0.345
2.8138	0.352
2.85364	0.335
2.89348	0.277
2.93332	0.307
2.97316	0.303
3.013	0.247
3.05284	0.179
3.09268	0.187
3.13252	0.112
3.17236	0.106
3.2122	0.154
3.25204	0.181
3.29188	0.176
3.33172	0.126
3.37156	0.036
3.4114	0.026
3.45124	0.036
3.49108	0.054
3.53092	0.146
3.57076	0.257
3.6106	0.312
3.65044	0.335
3.69028	0.347
3.73012	0.365
3.76996	0.378
3.8098	0.4
3.84964	0.41
3.88948	0.421
3.92932	0.426
3.96916	0.431
4.009	0.448
4.04884	0.461
4.08868	0.456
4.12852	0.475
4.16836	0.471
4.2082	0.478
4.24804	0.473
4.28788	0.485
4.32772	0.481
4.36756	0.503
4.4074	0.521
4.44724	0.526
4.48708	0.536
4.52692	0.541
4.56676	0.539
4.6066	0.551
4.64644	0.564
4.68628	0.568
4.72612	0.584
4.76596	0.588
4.8058	0.596
4.84564	0.599
4.88548	0.611
4.92532	0.617
4.96516	0.619
5.005	0.622
5.04484	0.632
5.08468	0.642
5.12452	0.659
5.16436	0.661
5.2042	0.666
5.24404	0.677
5.28388	0.676
5.32372	0.686
5.36356	0.707
5.4034	0.725
5.44324	0.732
5.48308	0.752
5.52292	0.764
5.56276	0.789
5.6026	0.803
5.64244	0.817
5.68228	0.822
5.72212	0.853
5.76196	0.898
5.8018	0.928
5.84164	0.945
5.88148	0.963
5.92132	0.98
5.96116	0.915
6.001	0.712
6.04084	0.318
6.08068	0.167
6.12052	0.122
6.16036	0.299
6.2002	0.229
6.24004	0.3
6.27988	0.498
6.31972	0.458
6.35956	0.294
6.3994	0.37
6.43924	0.45
6.47908	0.426
6.51892	0.313
6.55876	0.217
6.5986	0.172
6.63844	0.244
6.67828	0.387
6.71812	0.451
6.75796	0.33
6.7978	0.239
6.83764	0.172
6.87748	0.149
6.91732	0.26
6.95716	0.307
6.997	0.147
7.03684	0.176
7.07668	0.078
7.11652	0.036
7.15636	0.036
7.1962	0.051
7.23604	0.088
7.27588	0.094
7.31572	0.132
7.35556	0.197
7.3954	0.254
7.43524	0.313
7.47508	0.365
7.51492	0.42
7.55476	0.46
7.5946	0.446
7.63444	0.318
7.67428	0.466
7.71412	0.541
7.75396	0.584
7.7938	0.589
7.83364	0.538
7.87348	0.448
7.91332	0.486
7.95316	0.377
7.993	0.184
8.03284	0.041
8.07268	0.029
8.11252	0.049
8.15236	0.081
8.1922	0.129
8.23204	0.186
8.27188	0.2
8.31172	0.207
8.35156	0.265
8.3914	0.307
8.43124	0.365
8.47108	0.406
8.51092	0.308
8.55076	0.137
8.5906	0.245
8.63044	0.313
8.67028	0.325
8.71012	0.318
8.74996	0.388
8.7898	0.418
8.82964	0.43
8.86948	0.423
8.90932	0.358
8.94916	0.367
8.989	0.38
9.02884	0.441
9.06868	0.448
9.10852	0.47
9.14836	0.488
9.1882	0.493
9.22804	0.501
9.26788	0.511
9.30772	0.523
9.34756	0.528
9.3874	0.529
9.42724	0.519
9.46708	0.478
9.50692	0.383
9.54676	0.252
9.5866	0.204
9.62644	0.297
9.66628	0.398
9.70612	0.455
9.74596	0.491
9.7858	0.513
9.82564	0.531
9.86548	0.549
9.90532	0.546
9.94516	0.559
9.985	0.569
10.0248	0.573
10.0647	0.579
10.1045	0.584
10.1444	0.589
10.1842	0.593
10.224	0.589
10.2639	0.596
10.3037	0.589
10.3436	0.596
10.3834	0.601
10.4232	0.611
10.4631	0.611
10.5029	0.596
10.5428	0.553
10.5826	0.584
10.6224	0.614
10.6623	0.627
10.7021	0.636
10.742	0.644
10.7818	0.642
10.8216	0.621
10.8615	0.491
10.9013	0.548
10.9412	0.612
10.981	0.639
11.0208	0.661
11.0607	0.677
11.1005	0.682
11.1404	0.639
11.1802	0.511
11.22	0.367
11.2599	0.426
11.2997	0.5
11.3396	0.543
11.3794	0.571
11.4192	0.589
11.4591	0.596
11.4989	0.602
11.5388	0.604
11.5786	0.604
11.6184	0.604
11.6583	0.601
11.6981	0.594
11.738	0.559
11.7778	0.493
11.8176	0.387
11.8575	0.307
11.8973	0.224
11.9372	0.174
11.977	0.269
12.0168	0.403
12.0567	0.461
12.0965	0.438
12.1364	0.347
12.1762	0.382
12.216	0.383
12.2559	0.312
12.2957	0.325
12.3356	0.406
12.3754	0.458
12.4152	0.471
12.4551	0.401
12.4949	0.39
12.5348	0.478
12.5746	0.533
12.6144	0.558
12.6543	0.566
12.6941	0.558
12.734	0.531
12.7738	0.5
12.8136	0.504
12.8535	0.541
12.8933	0.584
12.9332	0.541
12.973	0.38
13.0128	0.373
13.0527	0.46
13.0925	0.508
13.1324	0.551
13.1722	0.584
13.212	0.596
13.2519	0.611
13.2917	0.621
13.3316	0.627
13.3714	0.629
13.4112	0.626
13.4511	0.604
13.4909	0.546
13.5308	0.446
13.5706	0.382
13.6104	0.413
13.6503	0.47
13.6901	0.481
13.73	0.446
13.7698	0.433
13.8096	0.485
13.8495	0.548
13.8893	0.586
13.9292	0.619
13.969	0.651
14.0088	0.666
14.0487	0.677
14.0885	0.689
14.1284	0.692
14.1682	0.696
14.208	0.697
14.2479	0.699
14.2877	0.7
14.3276	0.7
14.3674	0.7
14.4072	0.7
14.4471	0.7
14.4869	0.694
14.5268	0.686
14.5666	0.682
14.6064	0.681
14.6463	0.671
14.6861	0.667
14.726	0.659
14.7658	0.651
14.8056	0.642
14.8455	0.627
14.8853	0.619
14.9252	0.614
14.965	0.594
15.0048	0.569
15.0447	0.533
15.0845	0.49
15.1244	0.47
15.1642	0.48
15.204	0.486
15.2439	0.485
15.2837	0.478
15.3236	0.463
15.3634	0.455
15.4032	0.451
15.4431	0.441
15.4829	0.438
15.5228	0.441
15.5626	0.441
15.6024	0.446
15.6423	0.456
15.6821	0.463
15.722	0.461
15.7618	0.455
15.8016	0.435
15.8415	0.413
15.8813	0.397
15.9212	0.372
15.961	0.365
