Infrared Spectrum: Oxamyl
Formula: C 7 H 13 N 3 O 3 S
CAS: 23135-22-0
State: gas
Instrument: HP-GC/MS/IRD
Origin: NIST Mass Spectrometry Data Center
1/CM	ABSORBANCE
550	0.0004242
562	0.0001533
574	0.0003255
586	0.0004578
598	0.0006384
610	0.0008043
622	0.0007623
634	0.0006342
646	0.0006069
658	0.000756
670	0.0013188
682	0.0017514
694	0.0009597
706	0.0006951
718	0.0005271
730	0.0005439
742	0.0008211
754	0.0006447
766	0.0001323
778	6.72e-05
790	0.0001176
802	0.0001134
814	0.0001092
826	0.0003234
838	0.0004074
850	0.0012075
862	0.0033348
874	0.0028854
886	0.0008169
898	0.000819
910	0.0010227
922	0.0016527
934	0.0040572
946	0.0063609
958	0.0042966
970	0.0022491
982	0.0016191
994	0.0011466
1006	0.0011676
1018	0.0018921
1030	0.0041118
1042	0.0059745
1054	0.0045675
1066	0.0022953
1078	0.0011634
1090	0.0007329
1102	0.0004767
1114	0.0003969
1126	0.0004704
1138	0.0005103
1150	0.0006531
1162	0.000714
1174	0.0009996
1186	0.0012999
1198	0.0012012
1210	0.0008358
1222	0.0005607
1234	0.0005418
1246	0.0008715
1258	0.0014574
1270	0.0015708
1282	0.0009093
1294	0.0006804
1306	0.0013083
1318	0.0036498
1330	0.005187
1342	0.0033474
1354	0.0021294
1366	0.0030702
1378	0.0057078
1390	0.0090405
1402	0.0087129
1414	0.004851
1426	0.0026229
1438	0.0027153
1450	0.0033936
1462	0.0032277
1474	0.0027951
1486	0.0026145
1498	0.0024108
1510	0.0019089
1522	0.0014763
1534	0.0014637
1546	0.0014343
1558	0.0014175
1570	0.0017934
1582	0.0025914
1594	0.0023394
1606	0.0012096
1618	0.0010164
1630	0.0015015
1642	0.0023394
1654	0.0043176
1666	0.011046
1678	0.020433
1690	0.0159768
1702	0.0064827
1714	0.0030765
1726	0.0017493
1738	0.0008988
1750	0.0004074
1762	0.0002331
1774	0.0001554
1786	0.0001155
1798	7.98e-05
1810	7.98e-05
1822	4.62e-05
1834	2.94e-05
1846	2.52e-05
1858	1.89e-05
1870	3.36e-05
1882	4.83e-05
1894	3.99e-05
1906	1.89e-05
1918	1.89e-05
1930	2.73e-05
1942	1.47e-05
1954	3.36e-05
1966	1.68e-05
1978	5.04e-05
1990	7.98e-05
2002	6.3e-05
2014	2.94e-05
2026	5.88e-05
2038	2.31e-05
2050	4.62e-05
2062	4.41e-05
2074	6.3e-05
2086	5.04e-05
2098	3.57e-05
2110	3.57e-05
2122	4.41e-05
2134	8.4e-06
2146	1.47e-05
2158	2.52e-05
2170	4.41e-05
2182	8.19e-05
2194	9.87e-05
2206	0.0001428
2218	0.0001554
2230	0.0002478
2242	0.0003633
2254	0.0004809
2266	0.00042
2278	0.0002226
2290	0.0001218
2302	0.0001365
2314	0.0001953
2326	0.0002226
2338	0.0002142
2350	0.0001659
2362	0.0002751
2374	0.000231
2386	9.66e-05
2398	5.04e-05
2410	3.78e-05
2422	6.51e-05
2434	3.15e-05
2446	4.83e-05
2458	3.99e-05
2470	1.05e-05
2482	3.15e-05
2494	3.15e-05
2506	5.88e-05
2518	7.56e-05
2530	0.0001008
2542	6.09e-05
2554	1.05e-05
2566	4.62e-05
2578	4.41e-05
2590	7.14e-05
2602	6.09e-05
2614	5.88e-05
2626	7.14e-05
2638	0.0001176
2650	0.0001239
2662	0.0001176
2674	9.03e-05
2686	6.3e-05
2698	9.03e-05
2710	0.0001491
2722	0.0001155
2734	0.0001197
2746	0.000147
2758	0.0002058
2770	0.0002226
2782	0.0003108
2794	0.0004053
2806	0.0005229
2818	0.0006552
2830	0.0007182
2842	0.0009093
2854	0.001134
2866	0.0014637
2878	0.0017031
2890	0.0017367
2902	0.0019656
2914	0.0025137
2926	0.0038829
2938	0.0055797
2950	0.0045885
2962	0.0024969
2974	0.0014133
2986	0.001092
2998	0.0009744
3010	0.0008736
3022	0.0008043
3034	0.0007182
3046	0.0005754
3058	0.0004683
3070	0.0004032
3082	0.0002793
3094	0.0002541
3106	0.0001659
3118	0.0001533
3130	0.0001239
3142	0.0001281
3154	0.0001575
3166	0.0001155
3178	0.000105
3190	7.98e-05
3202	0.0001596
3214	8.4e-05
3226	0.0001512
3238	9.45e-05
3250	0.0001638
3262	0.000126
3274	0.0001218
3286	0.0001407
3298	0.0002058
3310	0.000105
3322	0.0001995
3334	0.0002016
3346	0.0002415
3358	0.0002058
3370	0.0002037
3382	0.0001701
3394	0.0001365
3406	0.0001071
3418	7.98e-05
3430	5.46e-05
3442	8.4e-05
3454	6.72e-05
3466	9.45e-05
3478	5.46e-05
3490	6.93e-05
3502	0.0001302
3514	6.93e-05
3526	0.0001029
3538	8.61e-05
3550	0.0001008
3562	9.45e-05
3574	0.0001932
3586	0.0001806
3598	0.000399
3610	0.0008946
3622	0.0031794
3634	0.0062349
3646	0.0038388
3658	0.0007329
3670	0.0003003
3682	0.0001911
3694	0.0001596
3706	9.87e-05
3718	8.19e-05
3730	0.0001008
3742	0.0001155
3754	0.0001218
3766	0.000168
3778	0.0001134
3790	0.0001113
3802	6.3e-05
3814	0.000105
3826	7.77e-05
3838	7.77e-05
