Infrared Spectrum: 3-Bromophenyl isocyanate
Formula: C 7 H 4 Br N O
CAS: 23138-55-8
State: gas
Origin: EPA-IR VAPOR PHASE LIBRARY
1/CM	ABSORBANCE
549.8	0.002104
559.445	0.002464
569.09	0.004844
578.734	0.007164
588.379	0.007624
598.024	0.008564
607.669	0.009604
617.313	0.009184
626.958	0.008174
636.603	0.007804
646.248	0.009624
655.893	0.009454
665.537	0.016074
675.182	0.030434
684.827	0.018954
694.472	0.006674
704.116	0.003464
713.761	0.002744
723.406	0.002524
733.051	0.002624
742.695	0.002644
752.34	0.004314
761.985	0.015924
771.63	0.037124
781.275	0.033744
790.919	0.015534
800.564	0.018694
810.209	0.044614
819.854	0.038994
829.498	0.011884
839.143	0.004444
848.788	0.004164
858.433	0.009314
868.078	0.013624
877.722	0.008954
887.367	0.004774
897.012	0.002824
906.657	0.001804
916.301	0.001105
925.946	0.0007816
935.591	0.00042289
945.236	0.0002752
954.88	2.8e-05
964.525	0.0002593
974.17	0.0007235
983.815	0.0011612
993.46	0.004314
1003.1	0.004494
1012.75	0.0007733
1022.39	0.0002692
1032.04	0.000360618
1041.68	0.0010856
1051.33	0.004324
1060.97	0.014124
1070.62	0.017874
1080.26	0.012484
1089.91	0.007264
1099.55	0.007134
1109.2	0.009324
1118.84	0.009474
1128.49	0.008344
1138.13	0.006434
1147.78	0.005234
1157.42	0.005984
1167.07	0.005594
1176.71	0.003064
1186.36	0.002294
1196	0.001924
1205.64	0.001854
1215.29	0.001774
1224.93	0.000883
1234.58	0.0006667
1244.22	0.001684
1253.87	0.003174
1263.51	0.001824
1273.16	0.0013032
1282.8	0.002164
1292.45	0.002934
1302.09	0.001914
1311.74	0.0013212
1321.38	0.002314
1331.03	0.002944
1340.67	0.001674
1350.32	0.0011732
1359.96	0.0011031
1369.61	0.001199
1379.25	0.001784
1388.9	0.002864
1398.54	0.005024
1408.18	0.009004
1417.83	0.009514
1427.47	0.007214
1437.12	0.008204
1446.76	0.011254
1456.41	0.012754
1466.05	0.012974
1475.7	0.019054
1485.34	0.030234
1494.99	0.038614
1504.63	0.036634
1514.28	0.027744
1523.92	0.014194
1533.57	0.008594
1543.21	0.009794
1552.86	0.016944
1562.5	0.041394
1572.15	0.069304
1581.79	0.080114
1591.44	0.126764
1601.08	0.083384
1610.73	0.016424
1620.37	0.006464
1630.01	0.003904
1639.66	0.002804
1649.3	0.002084
1658.95	0.002164
1668.59	0.002284
1678.24	0.001394
1687.88	0.0009295
1697.53	0.0008897
1707.17	0.0010369
1716.82	0.0012039
1726.46	0.001614
1736.11	0.001674
1745.75	0.001584
1755.4	0.001504
1765.04	0.001604
1774.69	0.001844
1784.33	0.001824
1793.98	0.0011502
1803.62	0.0008721
1813.27	0.0008244
1822.91	0.0008151
1832.55	0.0009307
1842.2	0.0013071
1851.84	0.001944
1861.49	0.001464
1871.13	0.0007333
1880.78	0.000603
1890.42	0.0005909
1900.07	0.0006631
1909.71	0.0011436
1919.36	0.001954
1929	0.002294
1938.65	0.001724
1948.29	0.0011054
1957.94	0.0010067
1967.58	0.0009936
1977.23	0.0009961
1986.87	0.0008189
1996.52	0.0008606
2006.16	0.0007932
2015.81	0.0008197
2025.45	0.0009385
2035.1	0.0011857
2044.74	0.001484
2054.38	0.001984
2064.03	0.002304
2073.67	0.002634
2083.32	0.003384
2092.96	0.003904
2102.61	0.004704
2112.25	0.005654
2121.9	0.007234
2131.54	0.008954
2141.19	0.010954
2150.83	0.013754
2160.48	0.017534
2170.12	0.022664
2179.77	0.029304
2189.41	0.037344
2199.06	0.049194
2208.7	0.066844
2218.35	0.083654
2227.99	0.101204
2237.64	0.142324
2247.28	0.250134
2256.92	0.430794
2266.57	0.612944
2276.21	0.678664
2285.86	0.404394
2295.5	0.196714
2305.15	0.148344
2314.79	0.126844
2324.44	0.104854
2334.08	0.084724
2343.73	0.066634
2353.37	0.051754
2363.02	0.045504
2372.66	0.035374
2382.31	0.022454
2391.95	0.015024
2401.6	0.012124
2411.24	0.010184
2420.89	0.007664
2430.53	0.005614
2440.18	0.004314
2449.82	0.003744
2459.47	0.003324
2469.11	0.002924
2478.75	0.002494
2488.4	0.002074
2498.04	0.001714
2507.69	0.001374
2517.33	0.0012662
2526.98	0.00117
2536.62	0.0011328
2546.27	0.0011388
2555.91	0.001061
2565.56	0.0011209
2575.2	0.001141
2584.85	0.0010276
2594.49	0.000943
2604.14	0.0009871
2613.78	0.0009928
2623.43	0.0009558
2633.07	0.0009376
2642.72	0.0009586
2652.36	0.0010249
2662.01	0.0012175
2671.65	0.0011478
2681.29	0.001414
2690.94	0.001514
2700.58	0.001424
2710.23	0.001464
2719.87	0.001614
2729.52	0.001644
2739.16	0.001744
2748.81	0.001604
2758.45	0.0011715
2768.1	0.0009974
2777.74	0.0007926
2787.39	0.0009183
2797.03	0.0008158
2806.68	0.0009457
2816.32	0.001087
2825.97	0.0008184
2835.61	0.0007943
2845.26	0.0008358
2854.9	0.0006971
2864.55	0.0006877
2874.19	0.0006132
2883.84	0.0008793
2893.48	0.0011473
2903.12	0.001504
2912.77	0.001664
2922.41	0.001944
2932.06	0.001894
2941.7	0.001754
2951.35	0.001854
2960.99	0.0012896
2970.64	0.0009818
2980.28	0.0006885
2989.93	0.0007786
2999.57	0.0009607
3009.22	0.0009943
3018.86	0.0009586
3028.51	0.001454
3038.15	0.001944
3047.8	0.002994
3057.44	0.004914
3067.09	0.007424
3076.73	0.009204
3086.38	0.008154
3096.02	0.005354
3105.67	0.003094
3115.31	0.001814
3124.95	0.001238
3134.6	0.0010213
3144.24	0.0009214
3153.89	0.0007994
3163.53	0.0008276
3173.18	0.0003916
3182.82	0.0003096
3192.47	0.0003117
3202.11	0.000252
3211.76	0.000202
3221.4	0.000144
3231.05	0.00012
3240.69	0.0003228
3250.34	5.1e-05
3259.98	0.000196
3269.63	0.0002702
3279.27	0.00035025
3288.92	0.00037479
3298.56	0.00038271
3308.21	0.00036841
3317.85	0.00043991
3327.49	0.0008171
3337.14	0.0009002
3346.78	0.001404
3356.43	0.001574
3366.07	0.001924
3375.72	0.002314
3385.36	0.002694
3395.01	0.002754
3404.65	0.003464
3414.3	0.004034
3423.94	0.003514
3433.59	0.002354
3443.23	0.001794
3452.88	0.0011048
3462.52	0.0011542
3472.17	0.0007191
3481.81	0.0005444
3491.46	0.0006909
3501.1	0.0007624
3510.75	0.0005955
3520.39	0.0008184
3530.04	0.0007119
3539.68	0.0007253
3549.32	0.0007225
3558.97	0.0007884
3568.61	0.000711
3578.26	0.0009184
3587.9	0.0007335
3597.55	0.0008453
3607.19	0.0011248
3616.84	0.001414
3626.48	0.001414
3636.13	0.001614
3645.77	0.001964
3655.42	0.002494
3665.06	0.002644
3674.71	0.002864
3684.35	0.002924
3694	0.002684
3703.64	0.002534
3713.29	0.002514
3722.93	0.002284
3732.58	0.002044
3742.22	0.001824
3751.86	0.002034
3761.51	0.002334
3771.15	0.002324
3780.8	0.002024
3790.44	0.001764
3800.09	0.001514
3809.73	0.0013023
3819.38	0.0009776
3829.02	0.0009333
3838.67	0.000703
3848.31	0.0006323
3857.96	0.000838
3867.6	0.0006146
3877.25	0.0007545
3886.89	0.0005752
3896.54	0.00041773
3906.18	0.0004722
3915.83	0.0002629
3925.47	7.9e-05
3935.12	0.000249
3944.76	0.000245
3954.41	0.000179
3964.05	0.0002998
3973.69	0.000238
3983.34	9.8e-05
3992.98	0.000114
