Infrared Spectrum: 4-Methyl-2-hexanol
Formula: C 7 H 16 O
CAS: 2313-61-3
State: gas
Instrument: HP-GC/MS/IRD
Origin: NIST Mass Spectrometry Data Center
1/CM	ABSORBANCE
550	0.00041
562	0.0002075
574	0.000165
586	0.0001875
598	0.000135
610	0.000105
622	2.75e-05
634	5.75e-05
646	0.00011
658	0.000175
670	3.5e-05
682	4.75e-05
694	2.25e-05
706	3.75e-05
718	3.25e-05
730	2.5e-05
742	0.0001075
754	0.0002
766	0.0003
778	0.00037
790	0.00039
802	0.00034
814	0.0005825
826	0.00083
838	0.000805
850	0.0006025
862	0.00046
874	0.0005775
886	0.00076
898	0.0011375
910	0.001495
922	0.001405
934	0.001535
946	0.001875
958	0.0015925
970	0.0013475
982	0.0013625
994	0.0015625
1006	0.00198
1018	0.0026625
1030	0.0033125
1042	0.0036275
1054	0.003475
1066	0.00338
1078	0.0035975
1090	0.0038725
1102	0.0035375
1114	0.003325
1126	0.003575
1138	0.0038275
1150	0.003495
1162	0.00247
1174	0.0015575
1186	0.001285
1198	0.0014275
1210	0.0017425
1222	0.00214
1234	0.00245
1246	0.002585
1258	0.00232
1270	0.00193
1282	0.0016475
1294	0.0014625
1306	0.0013425
1318	0.0013375
1330	0.00152
1342	0.0019225
1354	0.0026425
1366	0.004045
1378	0.00566
1390	0.0050425
1402	0.0028375
1414	0.00166
1426	0.001435
1438	0.0018525
1450	0.0028225
1462	0.0035425
1474	0.0027375
1486	0.0013725
1498	0.00064
1510	0.0003975
1522	0.0002775
1534	0.0002275
1546	0.000205
1558	0.00017
1570	0.0001575
1582	0.00013
1594	0.0001275
1606	0.0001175
1618	0.000105
1630	8e-05
1642	7.75e-05
1654	7.5e-05
1666	8.75e-05
1678	8.25e-05
1690	8.5e-05
1702	6e-05
1714	5e-05
1726	4e-05
1738	3e-05
1750	1.75e-05
1762	3.75e-05
1774	2.5e-05
1786	1.75e-05
1798	1.75e-05
1810	2e-05
1822	1e-05
1834	2e-05
1846	1.75e-05
1858	7.5e-06
1870	2.5e-05
1882	2e-05
1894	1.5e-05
1906	3.5e-05
1918	3.25e-05
1930	3e-05
1942	1.25e-05
1954	2.5e-05
1966	1.5e-05
1978	2.75e-05
1990	2.75e-05
2002	1e-05
2014	1e-05
2026	2e-05
2038	1.25e-05
2050	2.25e-05
2062	1.5e-05
2074	2.25e-05
2086	2.75e-05
2098	2.25e-05
2110	7.5e-06
2122	1e-05
2134	2.25e-05
2146	1e-05
2158	2e-05
2170	1.25e-05
2182	3.25e-05
2194	2.5e-05
2206	3.25e-05
2218	1.75e-05
2230	2.25e-05
2242	2e-05
2254	2.25e-05
2266	4.25e-05
2278	4.25e-05
2290	3.5e-05
2302	3.25e-05
2314	3e-05
2326	2.5e-05
2338	3.25e-05
2350	4.75e-05
2362	6e-05
2374	5.25e-05
2386	5.25e-05
2398	5.5e-05
2410	7.25e-05
2422	8.5e-05
2434	8.25e-05
2446	7e-05
2458	5.75e-05
2470	5.75e-05
2482	5.75e-05
2494	2.75e-05
2506	5e-05
2518	4.5e-05
2530	6.5e-05
2542	7.75e-05
2554	9.75e-05
2566	0.0001025
2578	0.0001475
2590	0.000195
2602	0.00021
2614	0.0002125
2626	0.000225
2638	0.000255
2650	0.00028
2662	0.0003075
2674	0.0003175
2686	0.0003425
2698	0.00037
2710	0.00037
2722	0.0004625
2734	0.0005575
2746	0.0005625
2758	0.000555
2770	0.0005975
2782	0.0006875
2794	0.0008175
2806	0.001045
2818	0.00138
2830	0.0019375
2842	0.00289
2854	0.0044975
2866	0.007085
2878	0.0102375
2890	0.01172
2902	0.0125725
2914	0.0160675
2926	0.0188575
2938	0.0174975
2950	0.01601
2962	0.0220875
2974	0.0239575
2986	0.0130275
2998	0.0045775
3010	0.0020925
3022	0.0013125
3034	0.0010075
3046	0.0008175
3058	0.000735
3070	0.0006325
3082	0.0005775
3094	0.00052
3106	0.0004625
3118	0.0004325
3130	0.00037
3142	0.00036
3154	0.000335
3166	0.0003025
3178	0.000285
3190	0.0002525
3202	0.000215
3214	0.0001525
3226	0.00012
3238	9e-05
3250	7.25e-05
3262	4.25e-05
3274	3.75e-05
3286	7e-05
3298	6.75e-05
3310	6.75e-05
3322	7.5e-06
3334	2e-05
3346	6.75e-05
3358	3e-05
3370	8e-05
3382	8.25e-05
3394	9.75e-05
3406	0.0001025
3418	0.00012
3430	0.0001325
3442	0.00011
3454	0.0001025
3466	0.000105
3478	8.25e-05
3490	5.75e-05
3502	7.5e-05
3514	3.5e-05
3526	2.5e-05
3538	5.5e-05
3550	4.75e-05
3562	5.25e-05
3574	9e-05
3586	6.75e-05
3598	0.0001175
3610	0.00018
3622	0.0003925
3634	0.00079
3646	0.0014175
3658	0.0015025
3670	0.000785
3682	0.000335
3694	0.0001925
3706	0.0001425
3718	0.0001475
3730	7.75e-05
3742	7.75e-05
3754	6.75e-05
3766	5e-05
3778	8e-05
3790	0.000105
3802	0.000125
3814	9.75e-05
3826	0.0001175
3838	0.0001325
