Infrared Spectrum: 2-Acetyl-5-nitrobenzo[b]furan
Formula: C 10 H 7 N O 4
CAS: 23136-39-2
State: gas
Origin: EPA-IR VAPOR PHASE LIBRARY
1/CM	ABSORBANCE
549.8	0.001878
559.445	0.0015347
569.09	0.002838
578.734	0.002258
588.379	0.002148
598.024	0.002738
607.669	0.0014655
617.313	0.0014134
626.958	0.002498
636.603	0.005188
646.248	0.004078
655.893	0.002908
665.537	0.003458
675.182	0.007318
684.827	0.008268
694.472	0.005068
704.116	0.002158
713.761	0.002118
723.406	0.003438
733.051	0.003098
742.695	0.003488
752.34	0.004768
761.985	0.003778
771.63	0.002348
781.275	0.0014072
790.919	0.002938
800.564	0.008558
810.209	0.017168
819.854	0.012668
829.498	0.008908
839.143	0.003858
848.788	0.001968
858.433	0.001738
868.078	0.001608
877.722	0.001978
887.367	0.003878
897.012	0.007668
906.657	0.010758
916.301	0.007018
925.946	0.003118
935.591	0.003188
945.236	0.002578
954.88	0.003308
964.525	0.005648
974.17	0.005388
983.815	0.003078
993.46	0.001598
1003.1	0.001908
1012.75	0.001698
1022.39	0.003078
1032.04	0.003478
1041.68	0.002088
1051.33	0.004068
1060.97	0.005858
1070.62	0.011228
1080.26	0.008778
1089.91	0.003358
1099.55	0.002438
1109.2	0.002558
1118.84	0.004798
1128.49	0.003348
1138.13	0.003118
1147.78	0.005688
1157.42	0.011818
1167.07	0.029708
1176.71	0.020578
1186.36	0.006068
1196	0.005438
1205.64	0.008988
1215.29	0.012578
1224.93	0.006768
1234.58	0.004218
1244.22	0.005828
1253.87	0.016948
1263.51	0.034358
1273.16	0.016818
1282.8	0.008298
1292.45	0.006898
1302.09	0.010388
1311.74	0.011568
1321.38	0.009108
1331.03	0.013998
1340.67	0.026518
1350.32	0.041758
1359.96	0.045108
1369.61	0.022558
1379.25	0.008448
1388.9	0.004078
1398.54	0.003258
1408.18	0.003408
1417.83	0.003928
1427.47	0.004958
1437.12	0.006138
1446.76	0.006858
1456.41	0.004198
1466.05	0.003418
1475.7	0.003248
1485.34	0.004298
1494.99	0.005078
1504.63	0.004928
1514.28	0.005978
1523.92	0.011418
1533.57	0.026408
1543.21	0.041828
1552.86	0.041308
1562.5	0.039778
1572.15	0.026378
1581.79	0.011558
1591.44	0.009858
1601.08	0.008608
1610.73	0.007008
1620.37	0.007988
1630.01	0.004898
1639.66	0.003378
1649.3	0.003008
1658.95	0.003268
1668.59	0.003758
1678.24	0.003858
1687.88	0.004468
1697.53	0.010648
1707.17	0.036508
1716.82	0.041938
1726.46	0.011258
1736.11	0.003398
1745.75	0.002578
1755.4	0.002608
1765.04	0.002578
1774.69	0.002058
1784.33	0.001828
1793.98	0.001658
1803.62	0.0014597
1813.27	0.0013077
1822.91	0.0011529
1832.55	0.0011163
1842.2	0.0010375
1851.84	0.001109
1861.49	0.000913
1871.13	0.0011644
1880.78	0.0012648
1890.42	0.0015127
1900.07	0.0014609
1909.71	0.0009659
1919.36	0.0007497
1929	0.0006628
1938.65	0.0008824
1948.29	0.0007997
1957.94	0.0007191
1967.58	0.0008147
1977.23	0.00057908
1986.87	0.0006926
1996.52	0.0008383
2006.16	0.0010012
2015.81	0.0007437
2025.45	0.0008053
2035.1	0.0008521
2044.74	0.0005661
2054.38	0.00071
2064.03	0.000590718
2073.67	0.0006154
2083.32	0.00063493
2092.96	0.0007771
2102.61	0.0007956
2112.25	0.00062712
2121.9	0.000709
2131.54	0.00066237
2141.19	0.00060657
2150.83	0.0006735
2160.48	0.0007613
2170.12	0.0008085
2179.77	0.0007936
2189.41	0.0006885
2199.06	0.0007522
2208.7	0.0008198
2218.35	0.0007182
2227.99	0.000645
2237.64	0.00064024
2247.28	0.0009393
2256.92	0.00063396
2266.57	0.0008072
2276.21	0.0007226
2285.86	0.0008152
2295.5	0.00058099
2305.15	0.00068607
2314.79	0.0007433
2324.44	0.00079
2334.08	0.00062934
2343.73	0.0007068
2353.37	0.000332
2363.02	0.0006958
2372.66	0.00075
2382.31	0.0009724
2391.95	0.0008532
2401.6	0.0007648
2411.24	0.0007155
2420.89	0.000816
2430.53	0.0011178
2440.18	0.0009012
2449.82	0.0008031
2459.47	0.0008766
2469.11	0.000715
2478.75	0.0009596
2488.4	0.00066525
2498.04	0.0006297
2507.69	0.0008167
2517.33	0.000597317
2526.98	0.0007818
2536.62	0.0010826
2546.27	0.0007529
2555.91	0.0010135
2565.56	0.0005046
2575.2	0.0004938
2584.85	0.00061938
2594.49	0.0005191
2604.14	0.0007467
2613.78	0.0007004
2623.43	0.00060906
2633.07	0.000796
2642.72	0.0009949
2652.36	0.0007815
2662.01	0.0008936
2671.65	0.0009472
2681.29	0.0010348
2690.94	0.0012262
2700.58	0.0011006
2710.23	0.0010461
2719.87	0.0008493
2729.52	0.0008905
2739.16	0.0008378
2748.81	0.0007105
2758.45	0.0008038
2768.1	0.00061024
2777.74	0.00062284
2787.39	0.0007723
2797.03	0.000817
2806.68	0.0009727
2816.32	0.0009877
2825.97	0.0010684
2835.61	0.0011532
2845.26	0.0012882
2854.9	0.0012264
2864.55	0.0014868
2874.19	0.0010841
2883.84	0.0013188
2893.48	0.0014053
2903.12	0.0009702
2912.77	0.0009672
2922.41	0.0010791
2932.06	0.0010688
2941.7	0.0011364
2951.35	0.0010729
2960.99	0.0008271
2970.64	0.00158
2980.28	0.0010169
2989.93	0.0011639
2999.57	0.0011584
3009.22	0.0013494
3018.86	0.001898
3028.51	0.0012588
3038.15	0.0007065
3047.8	0.0008198
3057.44	0.0008934
3067.09	0.0008583
3076.73	0.0010268
3086.38	0.001608
3096.02	0.001968
3105.67	0.0015817
3115.31	0.0007859
3124.95	0.0008243
3134.6	0.00067261
3144.24	0.0010213
3153.89	0.0007306
3163.53	0.000403
3173.18	0.0006947
3182.82	0.00062623
3192.47	0.0007748
3202.11	0.00062438
3211.76	0.000463
3221.4	0.000364
3231.05	0.00062709
3240.69	0.00062198
3250.34	0.0007355
3259.98	0.000136
3269.63	0.0008466
3279.27	0.0004904
3288.92	0.00068501
3298.56	0.0005119
3308.21	0.000178
3317.85	0.000448
3327.49	0.0006666
3337.14	0.00067076
3346.78	0.00064225
3356.43	0.0007275
3366.07	0.00042
3375.72	0.00063251
3385.36	0.0009572
3395.01	0.0010473
3404.65	0.0013092
3414.3	0.0011641
3423.94	0.0009111
3433.59	0.000592096
3443.23	0.0005723
3452.88	0.00068489
3462.52	0.000437
3472.17	0.000371
3481.81	0.00037
3491.46	0.000323
3501.1	0.0004895
3510.75	0.000373
3520.39	0.00064858
3530.04	0.000909
3539.68	0.000445
3549.32	0.000361
3558.97	0.0010387
3568.61	0.000299
3578.26	0.00048
3587.9	0.0005279
3597.55	0.000415
3607.19	0.000299
3616.84	0.000414
3626.48	0.000284
3636.13	0.00060464
3645.77	0.000469
3655.42	0.000452
3665.06	0.000374
3674.71	0.000382
3684.35	0.000407
3694	0.0004
3703.64	0.000443
3713.29	0.000137
3722.93	0.000263
3732.58	0.0005725
3742.22	0.000259
3751.86	0.000305
3761.51	0.0005292
3771.15	0.000483
3780.8	0.000119
3790.44	0.00065754
3800.09	0.000395
3809.73	0.000373
3819.38	0.000466
3829.02	0.0005455
3838.67	0.0005032
3848.31	0.000274
3857.96	0.000116
3867.6	0.000394
3877.25	0.000365
3886.89	0
3896.54	0.0007344
3906.18	0.0004908
3915.83	0.000336
3925.47	0.000434
3935.12	0.000527
3944.76	0.000391
3954.41	0.0005331
3964.05	0.0005713
3973.69	0.000359
3983.34	0.000473
3992.98	0.0005632
