Infrared Spectrum: 4-Ethylphenyl isocyanate
Formula: C 9 H 9 N O
CAS: 23138-50-3
State: gas
Origin: EPA-IR VAPOR PHASE LIBRARY
1/CM	ABSORBANCE
549.9	0.00455
559.547	0.00402
569.193	0.00501
578.84	0.0066
588.486	0.00913
598.133	0.0107
607.779	0.00889
617.426	0.007
627.072	0.00607
636.719	0.00463
646.365	0.00363
656.012	0.0029694
665.658	0.0030233
675.305	0.0031053
684.951	0.0030908
694.598	0.0029609
704.245	0.0025748
713.891	0.0023641
723.538	0.0021446
733.184	0.0021469
742.831	0.0021662
752.477	0.00227214
762.124	0.0024118
771.77	0.0024518
781.417	0.0031353
791.063	0.00476
800.71	0.00644
810.356	0.00978
820.003	0.01636
829.649	0.02134
839.296	0.01831
848.943	0.01055
858.589	0.00464
868.236	0.00226779
877.882	0.001471
887.529	0.00105
897.175	0.00086
906.822	0.00077
916.468	0.00078
926.115	0.00078
935.761	0.0009
945.408	0.00105
955.054	0.001278
964.701	0.001609
974.347	0.001489
983.994	0.001244
993.64	0.001222
1003.29	0.001646
1012.93	0.00567
1022.58	0.00603
1032.23	0.0021802
1041.87	0.0024393
1051.52	0.00329
1061.17	0.00403
1070.81	0.0031015
1080.46	0.0028421
1090.11	0.0047
1099.75	0.01147
1109.4	0.02345
1119.05	0.02227
1128.69	0.00948
1138.34	0.00623
1147.99	0.00648
1157.63	0.00661
1167.28	0.00513
1176.92	0.00411
1186.57	0.00365
1196.22	0.00362
1205.86	0.0027458
1215.51	0.0026256
1225.16	0.00327
1234.8	0.0023002
1244.45	0.002023
1254.1	0.001879
1263.74	0.002007
1273.39	0.002392
1283.04	0.0023625
1292.68	0.002087
1302.33	0.0023448
1311.98	0.0030557
1321.62	0.00432
1331.27	0.00431
1340.92	0.0032
1350.56	0.0026889
1360.21	0.0025344
1369.86	0.0026227
1379.5	0.0028711
1389.15	0.0029896
1398.79	0.0029995
1408.44	0.00325
1418.09	0.00351
1427.73	0.00375
1437.38	0.00401
1447.03	0.00495
1456.67	0.00603
1466.32	0.0068
1475.97	0.00619
1485.61	0.00669
1495.26	0.01081
1504.91	0.02087
1514.55	0.03394
1524.2	0.04191
1533.85	0.03648
1543.49	0.01873
1553.14	0.00847
1562.79	0.00635
1572.43	0.00734
1582.08	0.00731
1591.73	0.00733
1601.37	0.01077
1611.02	0.01394
1620.67	0.00946
1630.31	0.00462
1639.96	0.00354
1649.6	0.00317
1659.25	0.0026437
1668.9	0.002045
1678.54	0.001734
1688.19	0.001541
1697.84	0.001428
1707.48	0.001397
1717.13	0.001283
1726.78	0.001447
1736.42	0.001486
1746.07	0.001591
1755.72	0.001839
1765.36	0.0021568
1775.01	0.001936
1784.66	0.00151
1794.3	0.001448
1803.95	0.001499
1813.6	0.001515
1823.24	0.001496
1832.89	0.001469
1842.54	0.00152
1852.18	0.00156
1861.83	0.001877
1871.47	0.0023745
1881.12	0.0030272
1890.77	0.0030815
1900.41	0.0025943
1910.06	0.002022
1919.71	0.001687
1929.35	0.001591
1939	0.001442
1948.65	0.001462
1958.29	0.001452
1967.94	0.001418
1977.59	0.001418
1987.23	0.001461
1996.88	0.001494
2006.53	0.001579
2016.17	0.001607
2025.82	0.001739
2035.47	0.001797
2045.11	0.002002
2054.76	0.0023082
2064.41	0.0025927
2074.05	0.0029668
2083.7	0.0031411
2093.35	0.00338
2102.99	0.00399
2112.64	0.00508
2122.28	0.00667
2131.93	0.00888
2141.58	0.01131
2151.22	0.01342
2160.87	0.01464
2170.52	0.01635
2180.16	0.01973
2189.81	0.02608
2199.46	0.03655
2209.1	0.05018
2218.75	0.0666
2228.4	0.08747
2238.04	0.11163
2247.69	0.14509
2257.34	0.2166
2266.98	0.36029
2276.63	0.51277
2286.28	0.38831
2295.92	0.17562
2305.57	0.09774
2315.22	0.0681
2324.86	0.04998
2334.51	0.04145
2344.16	0.04144
2353.8	0.0461
2363.45	0.04346
2373.09	0.02841
2382.74	0.01584
2392.39	0.01012
2402.03	0.00758
2411.68	0.00632
2421.33	0.00564
2430.97	0.00522
2440.62	0.00466
2450.27	0.00373
2459.91	0.0030028
2469.56	0.002494
2479.21	0.0021308
2488.85	0.001915
2498.5	0.001832
2508.15	0.001754
2517.79	0.001671
2527.44	0.001671
2537.09	0.001635
2546.73	0.001697
2556.38	0.001716
2566.03	0.001657
2575.67	0.001657
2585.32	0.001668
2594.96	0.001732
2604.61	0.001738
2614.26	0.001814
2623.9	0.001854
2633.55	0.00199
2643.2	0.002062
2652.84	0.00194
2662.49	0.001816
2672.14	0.001687
2681.78	0.001649
2691.43	0.001722
2701.08	0.001695
2710.72	0.001836
2720.37	0.001813
2730.02	0.001902
2739.66	0.001831
2749.31	0.001877
2758.96	0.001864
2768.6	0.001804
2778.25	0.001829
2787.9	0.001838
2797.54	0.001849
2807.19	0.001984
2816.84	0.0021039
2826.48	0.0024004
2836.13	0.0026784
2845.77	0.00349
2855.42	0.00486
2865.07	0.00735
2874.71	0.00948
2884.36	0.01102
2894.01	0.0108
2903.65	0.01027
2913.3	0.01051
2922.95	0.01154
2932.59	0.01487
2942.24	0.01927
2951.89	0.01853
2961.53	0.01883
2971.18	0.03319
2980.83	0.03166
2990.47	0.01431
3000.12	0.00966
3009.77	0.00764
3019.41	0.00781
3029.06	0.00896
3038.71	0.00863
3048.35	0.00756
3058	0.00757
3067.64	0.00738
3077.29	0.00647
3086.94	0.00497
3096.58	0.00367
3106.23	0.0027277
3115.88	0.001974
3125.52	0.001528
3135.17	0.00118
3144.82	0.00087
3154.46	0.00074
3164.11	0.00063
3173.76	0.00066
3183.4	0.00059
3193.05	0.0005
3202.7	0.00036
3212.34	0.00022
3221.99	0.00014
3231.64	0.00026
3241.28	0.00022
3250.93	0.00033
3260.58	0.00025
3270.22	0.0002
3279.87	0.0004
3289.52	0.00022
3299.16	0.00046
3308.81	0.00057
3318.45	0.00067
3328.1	0.00091
3337.75	0.00108
3347.39	0.001469
3357.04	0.001732
3366.69	0.0021117
3376.33	0.0029063
3385.98	0.00354
3395.63	0.00362
3405.27	0.00337
3414.92	0.00321
3424.57	0.0028059
3434.21	0.0023279
3443.86	0.00193
3453.51	0.001645
3463.15	0.001568
3472.8	0.001605
3482.45	0.00145
3492.09	0.001363
3501.74	0.001385
3511.39	0.001344
3521.03	0.00118
3530.68	0.001231
3540.33	0.001241
3549.97	0.001319
3559.62	0.001398
3569.26	0.00148
3578.91	0.001463
3588.56	0.001523
3598.2	0.001646
3607.85	0.001802
3617.5	0.001787
3627.14	0.001989
3636.79	0.0021616
3646.44	0.0023973
3656.08	0.002623
3665.73	0.0028085
3675.38	0.0029788
3685.02	0.0031791
3694.67	0.00337
3704.32	0.00346
3713.96	0.00347
3723.61	0.00324
3733.26	0.0027498
3742.9	0.0023844
3752.55	0.00219941
3762.2	0.00207
3771.84	0.002055
3781.49	0.0021013
3791.13	0.0021168
3800.78	0.0021782
3810.43	0.0023125
3820.07	0.0021197
3829.72	0.001888
3839.37	0.001729
3849.01	0.001667
3858.66	0.001684
3868.31	0.00163
3877.95	0.001642
3887.6	0.001606
3897.25	0.00157
3906.89	0.001587
3916.54	0.001496
3926.19	0.001549
3935.83	0.0015
3945.48	0.001511
3955.13	0.001551
3964.77	0.001519
3974.42	0.001483
3984.07	0.001562
3993.71	0.00151
