Infrared Spectrum: 6-Methyl-5-nitroquinoline
Formula: C 10 H 8 N 2 O 2
CAS: 23141-61-9
State: gas
Origin: EPA-IR VAPOR PHASE LIBRARY
1/CM	ABSORBANCE
549.8	0.003535
559.445	0.0016731
569.09	0.0019873
578.735	0.003275
588.38	0.002235
598.025	0.000888
607.67	0.0011456
617.315	0.0015295
626.96	0.002125
636.605	0.004415
646.251	0.004085
655.896	0.0015679
665.541	0.0013875
675.186	0.0016771
684.831	0.0017761
694.476	0.0016789
704.121	0.0014393
713.766	0.0017327
723.411	0.002855
733.056	0.007485
742.701	0.011585
752.346	0.009245
761.991	0.005745
771.636	0.003665
781.281	0.005435
790.926	0.034545
800.571	0.067015
810.216	0.041715
819.861	0.016555
829.507	0.021985
839.152	0.024745
848.797	0.009765
858.442	0.004945
868.087	0.015215
877.732	0.022305
887.377	0.008915
897.022	0.002265
906.667	0.0016343
916.312	0.002105
925.957	0.002555
935.602	0.002265
945.247	0.002635
954.892	0.002395
964.537	0.002355
974.182	0.002275
983.827	0.002475
993.472	0.002375
1003.12	0.002095
1012.76	0.002345
1022.41	0.003245
1032.05	0.007945
1041.7	0.011005
1051.34	0.005715
1060.99	0.003865
1070.63	0.003145
1080.28	0.002555
1089.92	0.0017676
1099.57	0.0014491
1109.21	0.0016292
1118.86	0.002095
1128.5	0.003795
1138.15	0.008875
1147.79	0.008305
1157.44	0.002585
1167.08	0.0015334
1176.73	0.0015303
1186.37	0.0012601
1196.02	0.002615
1205.66	0.006135
1215.31	0.005275
1224.95	0.003465
1234.6	0.002155
1244.24	0.003775
1253.89	0.003975
1263.53	0.002715
1273.18	0.002585
1282.82	0.002785
1292.47	0.003425
1302.11	0.004605
1311.76	0.007545
1321.4	0.015845
1331.05	0.024665
1340.69	0.042625
1350.34	0.055795
1359.98	0.043795
1369.63	0.038365
1379.27	0.031855
1388.92	0.022555
1398.56	0.015005
1408.21	0.014975
1417.85	0.015345
1427.5	0.011595
1437.14	0.010965
1446.79	0.013745
1456.43	0.017665
1466.08	0.017735
1475.73	0.015375
1485.37	0.027075
1495.02	0.053005
1504.66	0.048945
1514.31	0.042585
1523.95	0.079945
1533.6	0.162355
1543.24	0.196575
1552.89	0.104495
1562.53	0.051095
1572.18	0.035875
1581.82	0.028425
1591.47	0.030805
1601.11	0.023935
1610.76	0.010205
1620.4	0.006875
1630.05	0.005935
1639.69	0.004605
1649.34	0.003095
1658.98	0.002415
1668.63	0.002375
1678.27	0.002005
1687.92	0.0017238
1697.56	0.0018314
1707.21	0.0017876
1716.85	0.002085
1726.5	0.002635
1736.14	0.002355
1745.79	0.002125
1755.43	0.0018806
1765.08	0.0019333
1774.72	0.001995
1784.37	0.0018444
1794.01	0.002515
1803.66	0.0019906
1813.3	0.00100088
1822.95	0.000827
1832.59	0.000755
1842.24	0.000843
1851.88	0.000801
1861.53	0.0009621
1871.17	0.0013009
1880.82	0.002105
1890.46	0.002185
1900.11	0.0016766
1909.75	0.002555
1919.4	0.003875
1929.04	0.003435
1938.69	0.002835
1948.33	0.002945
1957.98	0.002075
1967.62	0.0009561
1977.27	0.000714
1986.91	0.000688
1996.56	0.000678
2006.2	0.000693
2015.85	0.000682
2025.49	0.000629
2035.14	0.000709
2044.78	0.000715
2054.43	0.000867
2064.07	0.0009212
2073.72	0.000937
2083.36	0.000888
2093.01	0.000748
2102.65	0.000704
2112.3	0.000668
2121.94	0.000792
2131.59	0.000783
2141.23	0.000765
2150.88	0.000652
2160.52	0.000611
2170.17	0.00063
2179.81	0.000625
2189.46	0.000631
2199.1	0.000651
2208.75	0.00063
2218.39	0.000571
2228.04	0.000598
2237.68	0.000492
2247.33	0.000613
2256.97	0.000687
2266.62	0.000656
2276.26	0.000791
2285.91	0.00100786
2295.55	0.00105522
2305.2	0.000842
2314.84	0.000769
2324.49	0.000884
2334.13	0.000999314
2343.78	0.000883
2353.42	0.000894
2363.07	0.000885
2372.72	0.000875
2382.36	0.000831
2392.01	0.00092
2401.65	0.00107026
2411.3	0.00102067
2420.94	0.00103304
2430.59	0.000846
2440.23	0.00077
2449.88	0.000728
2459.52	0.000843
2469.17	0.0009284
2478.81	0.0009716
2488.46	0.000869
2498.1	0.0009353
2507.75	0.0009234
2517.39	0.000812
2527.04	0.000868
2536.68	0.0009373
2546.33	0.0009116
2555.97	0.000869
2565.62	0.00098528
2575.26	0.0009827
2584.91	0.0009454
2594.55	0.000866
2604.2	0.000813
2613.84	0.000627
2623.49	0.000666
2633.13	0.000676
2642.78	0.000602
2652.42	0.000576
2662.07	0.000602
2671.71	0.000758
2681.36	0.0009598
2691	0.00100078
2700.65	0.00108794
2710.29	0.0011168
2719.94	0.00101242
2729.58	0.00106586
2739.23	0.00101878
2748.87	0.0011099
2758.52	0.0012948
2768.16	0.0011153
2777.81	0.0009805
2787.45	0.0009288
2797.1	0.0009327
2806.74	0.00101819
2816.39	0.0012915
2826.03	0.0015003
2835.68	0.0017538
2845.32	0.002385
2854.97	0.003265
2864.61	0.004635
2874.26	0.005985
2883.9	0.006285
2893.55	0.005735
2903.19	0.005565
2912.84	0.005565
2922.48	0.006145
2932.13	0.008515
2941.77	0.011035
2951.42	0.009205
2961.06	0.006875
2970.71	0.006625
2980.35	0.006685
2990	0.006465
2999.64	0.007075
3009.29	0.008195
3018.93	0.010315
3028.58	0.013535
3038.22	0.016775
3047.87	0.014345
3057.51	0.009635
3067.16	0.013415
3076.8	0.021595
3086.45	0.017935
3096.09	0.005955
3105.74	0.002135
3115.38	0.0012783
3125.03	0.0011106
3134.67	0.000805
3144.32	0.000552
3153.96	0.000611
3163.61	0.000582
3173.25	0.000571
3182.9	0.000509
3192.54	0.0006
3202.19	0.000405
3211.83	0.000334
3221.48	0.000224
3231.12	0.000184
3240.77	0.000285
3250.41	0.00019
3260.06	0.000189
3269.7	0.000258
3279.35	0.000255
3289	0.000112
3298.64	0.000186
3308.29	7.1e-05
3317.93	0.000116
3327.58	0.000238
3337.22	0.000257
3346.87	0.000179
3356.51	0.000186
3366.16	0.000177
3375.8	0.000263
3385.45	0.000193
3395.09	0.000229
3404.74	0.000217
3414.38	0.00016
3424.03	0.000208
3433.67	0.000197
3443.32	0.000146
3452.96	0.000344
3462.61	0.00028
3472.25	0.00028
3481.9	0.000372
3491.54	0.000231
3501.19	0.000204
3510.83	0.000258
3520.48	0.000175
3530.12	0.000402
3539.77	0.000306
3549.41	0.000342
3559.06	0.000311
3568.7	0.000173
3578.35	0.000258
3587.99	0.000186
3597.64	0.000327
3607.28	0.000267
3616.93	0.000274
3626.57	0.000343
3636.22	0.000266
3645.86	0.0004
3655.51	0.000319
3665.15	0.000323
3674.8	0.000316
3684.44	0.000274
3694.09	0.000306
3703.73	0.000424
3713.38	0.000363
3723.02	0.000339
3732.67	0.000502
3742.31	0.000477
3751.96	0.000405
3761.6	0.000368
3771.25	0.00043
3780.89	0.000477
3790.54	0.000502
3800.18	0.00064
3809.83	0.000292
3819.47	0.000562
3829.12	0.000478
3838.76	0.000412
3848.41	0.000447
3858.05	0.000485
3867.7	0.000542
3877.34	0.000385
3886.99	0.000565
3896.63	0.000434
3906.28	0.000505
3915.92	0.000727
3925.57	0.000561
3935.21	0.000539
3944.86	0.000621
3954.5	0.000745
3964.15	0.000713
3973.79	0.000648
3983.44	0.000503
3993.08	0.000483
