Infrared Spectrum: 8-Chloro-1-octanol
Formula: C 8 H 17 Cl O
CAS: 23144-52-7
State: gas
Origin: EPA-IR VAPOR PHASE LIBRARY
1/CM	ABSORBANCE
549.8	0.0017917
559.445	0.0015654
569.09	0.001226
578.734	0.002205
588.379	0.002015
598.024	0.0014034
607.669	0.000519
617.313	0.002615
626.958	0.002985
636.603	0.002935
646.248	0.004305
655.893	0.006335
665.537	0.006495
675.182	0.004765
684.827	0.002975
694.472	0.003325
704.116	0.003895
713.761	0.005635
723.406	0.007855
733.051	0.008485
742.695	0.008875
752.34	0.007135
761.985	0.004955
771.63	0.004425
781.275	0.002685
790.919	0.003185
800.564	0.002515
810.209	0.003115
819.854	0.005025
829.498	0.002745
839.143	0.003035
848.788	0.002625
858.433	0.002385
868.078	0.003645
877.722	0.003385
887.367	0.003675
897.012	0.004125
906.657	0.003415
916.301	0.003845
925.946	0.003825
935.591	0.004305
945.236	0.005235
954.88	0.005505
964.525	0.006295
974.17	0.007015
983.815	0.007235
993.46	0.008985
1003.1	0.011635
1012.75	0.013305
1022.39	0.017025
1032.04	0.020885
1041.68	0.024125
1051.33	0.024155
1060.97	0.020215
1070.62	0.017025
1080.26	0.012895
1089.91	0.009565
1099.55	0.006405
1109.2	0.007235
1118.84	0.006125
1128.49	0.006265
1138.13	0.005345
1147.78	0.006185
1157.42	0.006265
1167.07	0.005515
1176.71	0.004875
1186.36	0.005955
1196	0.006575
1205.64	0.006045
1215.29	0.008625
1224.93	0.007705
1234.58	0.006415
1244.22	0.007285
1253.87	0.008245
1263.51	0.009065
1273.16	0.009605
1282.8	0.011225
1292.45	0.012275
1302.09	0.011295
1311.74	0.010245
1321.38	0.009155
1331.03	0.007705
1340.67	0.007405
1350.32	0.007785
1359.96	0.007315
1369.61	0.007095
1379.25	0.007555
1388.9	0.007655
1398.54	0.006115
1408.18	0.005065
1417.83	0.004675
1427.47	0.005465
1437.12	0.007555
1446.76	0.010535
1456.41	0.011975
1466.05	0.009755
1475.7	0.006965
1485.34	0.004505
1494.99	0.003295
1504.63	0.002345
1514.28	0.002105
1523.92	0.0016476
1533.57	0.0014876
1543.21	0.0013312
1552.86	0.0013994
1562.5	0.0012411
1572.15	0.0013342
1581.79	0.0010457
1591.44	0.0014456
1601.08	0.0009886
1610.73	0.0011491
1620.37	0.00090947
1630.01	0.0010629
1639.66	0.00093358
1649.3	0.0011519
1658.95	0.0012562
1668.59	0.0013036
1678.24	0.0011279
1687.88	0.0009974
1697.53	0.00093535
1707.17	0.0007754
1716.82	0.0009619
1726.46	0.00087884
1736.11	0.00089266
1745.75	0.00095447
1755.4	0.0009765
1765.04	0.0012231
1774.69	0.00102
1784.33	0.0009587
1793.98	0.0011837
1803.62	0.0010777
1813.27	0.0011719
1822.91	0.0012131
1832.55	0.0011943
1842.2	0.001104
1851.84	0.0011512
1861.49	0.0009734
1871.13	0.0010608
1880.78	0.00092712
1890.42	0.0011718
1900.07	0.0010339
1909.71	0.0010528
1919.36	0.0009749
1929	0.0011841
1938.65	0.0011116
1948.29	0.001137
1957.94	0.00088712
1967.58	0.0011272
1977.23	0.0010186
1986.87	0.0012461
1996.52	0.00092634
2006.16	0.0010857
2015.81	0.001093
2025.45	0.0010169
2035.1	0.0011536
2044.74	0.0013304
2054.38	0.0011385
2064.03	0.0011365
2073.67	0.0011356
2083.32	0.0014005
2092.96	0.0013269
2102.61	0.0007907
2112.25	0.0007582
2121.9	0.0010565
2131.54	0.0008068
2141.19	0.0010011
2150.83	0.0008052
2160.48	0.0008139
2170.12	0.001097
2179.77	0.0008366
2189.41	0.000856605
2199.06	0.000629
2208.7	0.00093046
2218.35	0.0007745
2227.99	0.0010811
2237.64	0.00088614
2247.28	0.00095186
2256.92	0.00085867
2266.57	0.000963
2276.21	0.00090176
2285.86	0.00087954
2295.5	0.0007579
2305.15	0.0008447
2314.79	0.0007594
2324.44	0.000646
2334.08	0.0010594
2343.73	0.0010487
2353.37	0.00084681
2363.02	0.00084708
2372.66	0.0012498
2382.31	0.00086723
2391.95	0.0008971
2401.6	0.00091209
2411.24	0.0011138
2420.89	0.000575
2430.53	0.0008037
2440.18	0.0009944
2449.82	0.0010488
2459.47	0.00091814
2469.11	0.000651
2478.75	0.00121
2488.4	0.0009832
2498.04	0.0008421
2507.69	0.00088841
2517.33	0.001243
2526.98	0.000702
2536.62	0.000643
2546.27	0.000455
2555.91	0.000753
2565.56	0.0010415
2575.2	0.00091997
2584.85	0.0011286
2594.49	0.0010003
2604.14	0.0010373
2613.78	0.0009636
2623.43	0.00088465
2633.07	0.0014363
2642.72	0.0016889
2652.36	0.0016889
2662.01	0.0016446
2671.65	0.0017353
2681.29	0.0018201
2690.94	0.002305
2700.58	0.002255
2710.23	0.001955
2719.87	0.001965
2729.52	0.001975
2739.16	0.002175
2748.81	0.002405
2758.45	0.002715
2768.1	0.002645
2777.74	0.003385
2787.39	0.003435
2797.03	0.004015
2806.68	0.004415
2816.32	0.005615
2825.97	0.007085
2835.61	0.009935
2845.26	0.015965
2854.9	0.027875
2864.55	0.039835
2874.19	0.040475
2883.84	0.034885
2893.48	0.031655
2903.12	0.035975
2912.77	0.048765
2922.41	0.070685
2932.06	0.096565
2941.7	0.098745
2951.35	0.070065
2960.99	0.045295
2970.64	0.029185
2980.28	0.016875
2989.93	0.013355
2999.57	0.012205
3009.22	0.007545
3018.86	0.004525
3028.51	0.003225
3038.15	0.002645
3047.8	0.002035
3057.44	0.0017747
3067.09	0.0015822
3076.73	0.0016746
3086.38	0.00091577
3096.02	0.0010661
3105.67	0.00057
3115.31	0.00089445
3124.95	0.0010879
3134.6	0.0011101
3144.24	0.0011184
3153.89	0.0012469
3163.53	0.0007857
3173.18	0.0010616
3182.82	0.00093586
3192.47	0.0008015
3202.11	0.00090149
3211.76	0.00091709
3221.4	0.00088083
3231.05	0.000638
3240.69	0.0009704
3250.34	0.000258
3259.98	0.0010046
3269.63	0.000535
3279.27	0.000594
3288.92	0.000611
3298.56	0.000487
3308.21	0.000439
3317.85	0.0009874
3327.49	0.0010413
3337.14	0.00044
3346.78	0.000856887
3356.43	0.0010989
3366.07	0.0010263
3375.72	0.0008146
3385.36	0.0011061
3395.01	0.000599
3404.65	0.0010573
3414.3	0.0008841
3423.94	0.000421
3433.59	0.00098
3443.23	0.0007832
3452.88	0.0010949
3462.52	0.0012273
3472.17	0.0009713
3481.81	0.0010781
3491.46	0.0010071
3501.1	0.0013624
3510.75	0.0016048
3520.39	0.0013932
3530.04	0.000703
3539.68	0.000685
3549.32	0.000736
3558.97	0.0012631
3568.61	0.0012682
3578.26	0.0015323
3587.9	0.0015181
3597.55	0.0007877
3607.19	0.001965
3616.84	0.001905
3626.48	0.0017126
3636.13	0.002455
3645.77	0.003735
3655.42	0.005755
3665.06	0.007455
3674.71	0.006635
3684.35	0.004405
3694	0.001965
3703.64	0.0013477
3713.29	0.0015254
3722.93	0.001895
3732.58	0.0015002
3742.22	0.0013486
3751.86	0.0009582
3761.51	0.0010965
3771.15	0.0012847
3780.8	0.0008173
3790.44	0.0012602
3800.09	0.001312
3809.73	0.0010825
3819.38	0.0010916
3829.02	0.0015737
3838.67	0.00094776
3848.31	0.0012736
3857.96	0.000531
3867.6	0.001499
3877.25	0.0016714
3886.89	0.0009855
3896.54	0.0010754
3906.18	0.000622
3915.83	0.0016866
3925.47	0.0010831
3935.12	0.00069
3944.76	0.0011991
3954.41	0.00090722
3964.05	0.0010807
3973.69	0.0012287
3983.34	0.000312
3992.98	0.0015383
