Infrared Spectrum: 2,2,2-TRICHLORO-N-CYCLOHEXYL ACETAMIDE
Formula: C8 H12 Cl3 N O
CAS: 23144-68-5
State: SOLUTION (10% CCl4 FOR 5000-1330, 10% CS2 FOR 1330-625 CM^-^1)
Class: COBLENTZ
Instrument: Not specified, most likely a prism, grating, or hybrid spectrometer.
Sampling: TRANSMISSION
Path length: 0.0129 CM, 0.0129 CM
Resolution: 4
Origin: DOW CHEMICAL COMPANY
MICROMETERS	TRANSMITTANCE
2.027	0.888
2.06806	0.902
2.10911	0.891
2.15017	0.908
2.19122	0.902
2.23228	0.9
2.27333	0.896
2.31439	0.898
2.35544	0.902
2.3965	0.903
2.43755	0.91
2.47861	0.907
2.51966	0.907
2.56072	0.91
2.60177	0.912
2.64283	0.912
2.68389	0.91
2.72494	0.91
2.766	0.908
2.80705	0.903
2.84811	0.857
2.88916	0.656
2.93022	0.743
2.97127	0.702
3.01233	0.883
3.05338	0.895
3.09444	0.902
3.13549	0.907
3.17655	0.907
3.2176	0.903
3.25866	0.893
3.29971	0.857
3.34077	0.731
3.38183	0.347
3.42288	0.286
3.46394	0.512
3.50499	0.774
3.54605	0.876
3.5871	0.898
3.62816	0.908
3.66921	0.893
3.71027	0.888
3.75132	0.905
3.79238	0.92
3.83343	0.917
3.87449	0.929
3.91554	0.939
3.9566	0.932
3.99766	0.941
4.03871	0.939
4.07977	0.939
4.12082	0.939
4.16188	0.938
4.20293	0.932
4.24399	0.927
4.28504	0.919
4.3261	0.917
4.36715	0.922
4.40821	0.932
4.44926	0.941
4.49032	0.945
4.53137	0.948
4.57243	0.945
4.61349	0.946
4.65454	0.95
4.6956	0.95
4.73665	0.95
4.77771	0.95
4.81876	0.95
4.85982	0.946
4.90087	0.946
4.94193	0.943
4.98298	0.941
5.02404	0.948
5.06509	0.95
5.10615	0.95
5.1472	0.95
5.18826	0.948
5.22931	0.948
5.27037	0.943
5.31143	0.943
5.35248	0.938
5.39354	0.936
5.43459	0.929
5.47565	0.919
5.5167	0.898
5.55776	0.874
5.59881	0.867
5.63987	0.852
5.68092	0.8
5.72198	0.673
5.76303	0.391
5.80409	0.046
5.84514	0.051
5.8862	0.147
5.92726	0.618
5.96831	0.774
6.00937	0.826
6.05042	0.852
6.09148	0.871
6.13253	0.864
6.17359	0.84
6.21464	0.764
6.2557	0.661
6.29675	0.601
6.33781	0.563
6.37886	0.505
6.41992	0.414
6.46097	0.388
6.50203	0.378
6.54309	0.281
6.58414	0.151
6.6252	0.054
6.66625	0.08
6.70731	0.463
6.74836	0.661
6.78942	0.659
6.83047	0.561
6.87153	0.372
6.91258	0.721
6.95364	0.814
6.99469	0.833
7.03575	0.845
7.0768	0.864
7.11786	0.871
7.15891	0.871
7.19997	0.853
7.24103	0.809
7.28208	0.812
7.32314	0.817
7.36419	0.701
7.40525	0.824
7.4463	0.823
7.48736	0.805
7.52841	0.735
7.56947	0.659
7.61052	0.737
7.65158	0.826
7.69263	0.872
7.73369	0.872
7.77474	0.855
7.8158	0.798
7.85686	0.762
7.89791	0.761
7.93897	0.661
7.98002	0.591
8.02108	0.754
8.06213	0.759
8.10319	0.687
8.14424	0.565
8.1853	0.462
8.22635	0.611
8.26741	0.819
8.30846	0.871
8.34952	0.872
8.39057	0.884
8.43163	0.9
8.47269	0.902
8.51374	0.902
8.5548	0.883
8.59585	0.843
8.63691	0.757
8.67796	0.726
8.71902	0.836
8.76007	0.891
8.80113	0.908
8.84218	0.91
8.88324	0.914
8.92429	0.9
8.96535	0.89
9.0064	0.864
9.04746	0.831
9.08851	0.733
9.12957	0.584
9.17063	0.458
9.21168	0.463
9.25274	0.68
9.29379	0.788
9.33485	0.843
9.3759	0.874
9.41696	0.881
9.45801	0.862
9.49907	0.876
9.54012	0.883
9.58118	0.884
9.62223	0.862
9.66329	0.838
9.70434	0.823
9.7454	0.876
9.78646	0.888
9.82751	0.898
9.86857	0.902
9.90962	0.903
9.95068	0.902
9.99173	0.878
10.0328	0.864
10.0738	0.883
10.1149	0.9
10.156	0.902
10.197	0.908
10.2381	0.912
10.2791	0.92
10.3202	0.924
10.3612	0.929
10.4023	0.929
10.4433	0.912
10.4844	0.902
10.5255	0.898
10.5665	0.898
10.6076	0.898
10.6486	0.896
10.6897	0.896
10.7307	0.895
10.7718	0.886
10.8128	0.89
10.8539	0.9
10.8949	0.903
10.936	0.903
10.9771	0.898
11.0181	0.888
11.0592	0.871
11.1002	0.843
11.1413	0.756
11.1823	0.635
11.2234	0.606
11.2644	0.757
11.3055	0.783
11.3466	0.776
11.3876	0.752
11.4287	0.706
11.4697	0.673
11.5108	0.67
11.5518	0.651
11.5929	0.596
11.6339	0.53
11.675	0.455
11.7161	0.35
11.7571	0.245
11.7982	0.207
11.8392	0.34
11.8803	0.419
11.9213	0.336
11.9624	0.218
12.0034	0.146
12.0445	0.099
12.0856	0.084
12.1266	0.075
12.1677	0.058
12.2087	0.041
12.2498	0.046
12.2908	0.096
12.3319	0.223
12.3729	0.31
12.414	0.328
12.4551	0.333
12.4961	0.458
12.5372	0.596
12.5782	0.671
12.6193	0.709
12.6603	0.747
12.7014	0.78
12.7424	0.81
12.7835	0.823
12.8245	0.831
12.8656	0.84
12.9067	0.847
12.9477	0.848
12.9888	0.847
13.0298	0.85
13.0709	0.852
13.1119	0.848
13.153	0.843
13.194	0.831
13.2351	0.821
13.2762	0.81
13.3172	0.785
13.3583	0.759
13.3993	0.718
13.4404	0.646
13.4814	0.532
13.5225	0.41
13.5635	0.323
13.6046	0.384
13.6457	0.53
13.6867	0.597
13.7278	0.64
13.7688	0.675
13.8099	0.706
13.8509	0.728
13.892	0.738
13.933	0.742
13.9741	0.738
14.0152	0.728
14.0562	0.716
14.0973	0.701
14.1383	0.682
14.1794	0.668
14.2204	0.651
14.2615	0.632
14.3025	0.613
14.3436	0.596
14.3847	0.567
14.4257	0.534
14.4668	0.494
14.5078	0.446
14.5489	0.383
14.5899	0.312
14.631	0.249
14.672	0.195
14.7131	0.161
14.7541	0.149
14.7952	0.159
14.8363	0.197
14.8773	0.23
14.9184	0.271
14.9594	0.347
15.0005	0.414
15.0415	0.45
15.0826	0.465
15.1236	0.477
15.1647	0.481
15.2058	0.482
15.2468	0.481
15.2879	0.477
15.3289	0.477
15.37	0.477
15.411	0.479
15.4521	0.475
15.4931	0.469
15.5342	0.462
15.5753	0.455
15.6163	0.45
15.6574	0.445
15.6984	0.439
15.7395	0.434
15.7805	0.429
15.8216	0.426
