Infrared Spectrum: 3,4-Dimethoxycinnamic acid
Formula: C 11 H 12 O 4
CAS: 2316-26-9
State: gas
Origin: EPA-IR VAPOR PHASE LIBRARY
1/CM	ABSORBANCE
549.8	0.002891
559.445	0.003091
569.09	0.002141
578.734	0.001531
588.379	0.001301
598.024	0.001831
607.669	0.001851
617.313	0.001731
626.958	0.001541
636.603	0.001471
646.248	0.0012356
655.893	0.0004754
665.537	0.00034182
675.182	0.0005338
684.827	0.00038518
694.472	0.0004172
704.116	0.0004068
713.761	0.0005957
723.406	0.0005367
733.051	0.00036024
742.695	0.0008048
752.34	0.0007694
761.985	0.000813
771.63	0.0006313
781.275	0.0007615
790.919	0.0008055
800.564	0.0009859
810.209	0.001321
819.854	0.0011325
829.498	0.0008535
839.143	0.0008839
848.788	0.001311
858.433	0.0011789
868.078	0.0011234
877.722	0.0008437
887.367	0.0007323
897.012	0.0008482
906.657	0.0003921
916.301	0.0006187
925.946	0.0006787
935.591	0.0008983
945.236	0.001381
954.88	0.000931
964.525	0.0012119
974.17	0.002201
983.815	0.002081
993.46	0.001361
1003.1	0.001561
1012.75	0.002171
1022.39	0.003651
1032.04	0.004351
1041.68	0.003171
1051.33	0.001781
1060.97	0.0012027
1070.62	0.0012364
1080.26	0.001291
1089.91	0.001751
1099.55	0.004841
1109.2	0.013981
1118.84	0.015101
1128.49	0.006611
1138.13	0.005771
1147.78	0.006621
1157.42	0.007491
1167.07	0.005421
1176.71	0.003041
1186.36	0.002091
1196	0.001971
1205.64	0.002011
1215.29	0.002741
1224.93	0.003881
1234.58	0.004511
1244.22	0.005471
1253.87	0.007511
1263.51	0.011331
1273.16	0.011761
1282.8	0.008091
1292.45	0.006361
1302.09	0.004811
1311.74	0.003291
1321.38	0.002661
1331.03	0.002301
1340.67	0.002181
1350.32	0.002611
1359.96	0.002671
1369.61	0.001871
1379.25	0.0012781
1388.9	0.001106
1398.54	0.001441
1408.18	0.002321
1417.83	0.002621
1427.47	0.001741
1437.12	0.001801
1446.76	0.002201
1456.41	0.002131
1466.05	0.002391
1475.7	0.002201
1485.34	0.002311
1494.99	0.004031
1504.63	0.008371
1514.28	0.008271
1523.92	0.003571
1533.57	0.001841
1543.21	0.001391
1552.86	0.0012485
1562.5	0.001521
1572.15	0.002261
1581.79	0.002091
1591.44	0.002241
1601.08	0.002641
1610.73	0.001941
1620.37	0.001761
1630.01	0.003711
1639.66	0.006161
1649.3	0.002171
1658.95	0.0008362
1668.59	0.0007082
1678.24	0.0007977
1687.88	0.0008452
1697.53	0.0009686
1707.17	0.001351
1716.82	0.001801
1726.46	0.002531
1736.11	0.004571
1745.75	0.011811
1755.4	0.014111
1765.04	0.006641
1774.69	0.003051
1784.33	0.002571
1793.98	0.001831
1803.62	0.0011594
1813.27	0.0008241
1822.91	0.0007766
1832.55	0.0006191
1842.2	0.0005347
1851.84	0.0005345
1861.49	0.0005312
1871.13	0.0005822
1880.78	0.0004909
1890.42	0.0005164
1900.07	0.0004872
1909.71	0.0004154
1919.36	0.00037931
1929	0.0004632
1938.65	0.0004892
1948.29	0.000435
1957.94	0.0003953
1967.58	0.0004454
1977.23	0.0005015
1986.87	0.000497
1996.52	0.0004873
2006.16	0.0005655
2015.81	0.0005585
2025.45	0.0005507
2035.1	0.0006144
2044.74	0.0006682
2054.38	0.0006284
2064.03	0.0004917
2073.67	0.0005154
2083.32	0.0004561
2092.96	0.0003699
2102.61	0.00036343
2112.25	0.0003955
2121.9	0.00032838
2131.54	0.0003657
2141.19	0.000445
2150.83	0.00036014
2160.48	0.00032776
2170.12	0.00028966
2179.77	0.0004251
2189.41	0.0004
2199.06	0.0004594
2208.7	0.0004085
2218.35	0.0004062
2227.99	0.0004765
2237.64	0.0004378
2247.28	0.000463
2256.92	0.0004107
2266.57	0.0004963
2276.21	0.000413
2285.86	0.0004388
2295.5	0.0004482
2305.15	0.0004093
2314.79	0.0004036
2324.44	0.00032034
2334.08	0.00037892
2343.73	0.000328
2353.37	0.00035088
2363.02	0.00038166
2372.66	0.00033072
2382.31	0.0002613
2391.95	0.00033614
2401.6	0.00031608
2411.24	0.00031324
2420.89	0.0003118
2430.53	0.00037657
2440.18	0.0003314
2449.82	0.0004412
2459.47	0.00028607
2469.11	0.00037693
2478.75	0.0004465
2488.4	0.0003203
2498.04	0.00037311
2507.69	0.00038016
2517.33	0.0003439
2526.98	0.00038268
2536.62	0.0004713
2546.27	0.0004582
2555.91	0.00030469
2565.56	0.0005057
2575.2	0.0004681
2584.85	0.0004888
2594.49	0.0005308
2604.14	0.0004274
2613.78	0.00036014
2623.43	0.00037879
2633.07	0.00038326
2642.72	0.0004418
2652.36	0.0005065
2662.01	0.00035091
2671.65	0.00034983
2681.29	0.0004436
2690.94	0.0004054
2700.58	0.00036368
2710.23	0.0002779
2719.87	0.00034149
2729.52	0.00032544
2739.16	0.0004039
2748.81	0.0004055
2758.45	0.0004514
2768.1	0.0004161
2777.74	0.0004068
2787.39	0.0004265
2797.03	0.00038339
2806.68	0.0005935
2816.32	0.0006194
2825.97	0.000931
2835.61	0.001331
2845.26	0.001721
2854.9	0.0012635
2864.55	0.0011449
2874.19	0.0009637
2883.84	0.0010375
2893.48	0.0010181
2903.12	0.0011463
2912.77	0.0012883
2922.41	0.001491
2932.06	0.001801
2941.7	0.002611
2951.35	0.002611
2960.99	0.002121
2970.64	0.001711
2980.28	0.001451
2989.93	0.001471
2999.57	0.001831
3009.22	0.002001
3018.86	0.001441
3028.51	0.0009456
3038.15	0.0009608
3047.8	0.0009766
3057.44	0.0010572
3067.09	0.000927
3076.73	0.0008323
3086.38	0.0006887
3096.02	0.0005462
3105.67	0.0004955
3115.31	0.00033784
3124.95	0.00038706
3134.6	0.00033009
3144.24	0.00037536
3153.89	0.0002754
3163.53	0.0002141
3173.18	0.0004736
3182.82	0.0004153
3192.47	0.0002433
3202.11	0.0002634
3211.76	0.0002627
3221.4	9.6e-05
3231.05	0.00033744
3240.69	0.0001988
3250.34	0.00033732
3259.98	0.00034092
3269.63	0.0003918
3279.27	0.0002161
3288.92	0.00035284
3298.56	0.0002168
3308.21	0.0002381
3317.85	0.00034737
3327.49	0.000202
3337.14	0.0004788
3346.78	0.0002659
3356.43	0.000181
3366.07	0.0002399
3375.72	0.0003498
3385.36	0.0004145
3395.01	0.0002683
3404.65	0.0001956
3414.3	0.00018
3423.94	0.000219
3433.59	0.00034531
3443.23	0.0002231
3452.88	0.0002384
3462.52	0.0002591
3472.17	0.0004766
3481.81	0.0005811
3491.46	0.00035365
3501.1	0.0002006
3510.75	0.0003105
3520.39	0.00030909
3530.04	0.0004068
3539.68	0.0002306
3549.32	0.0002428
3558.97	0.00037417
3568.61	0.0007042
3578.26	0.004241
3587.9	0.004951
3597.55	0.0007432
3607.19	0.00030742
3616.84	0.0004539
3626.48	0.00034738
3636.13	0.00038055
3645.77	0.00028189
3655.42	0.0004806
3665.06	0.0003129
3674.71	0.00028
3684.35	3.7e-05
3694	0.000179
3703.64	0.00018
3713.29	0.00031737
3722.93	0.0002706
3732.58	0.0002784
3742.22	0.0002004
3751.86	0.00036997
3761.51	0.000236
3771.15	0.0002621
3780.8	0.00035862
3790.44	0.000174
3800.09	0.0002364
3809.73	3.2e-05
3819.38	0.000300599
3829.02	0.0003167
3838.67	2.4e-05
3848.31	0.0002594
3857.96	0.0002485
3867.6	0.000297982
3877.25	0.0002791
3886.89	0.00035441
3896.54	0.00011
3906.18	0.0002142
3915.83	0.0002452
3925.47	0.00032635
3935.12	0.00035837
3944.76	0.0001961
3954.41	0.000247
3964.05	0.000298825
3973.69	0.0002513
3983.34	0.0002418
3992.98	0.000135
