Infrared Spectrum: 2-Chloro-5-trifluoromethylphenyl isothiocyanate
Formula: C 8 H 3 Cl F 3 N S
CAS: 23165-49-3
State: gas
Origin: EPA-IR VAPOR PHASE LIBRARY
1/CM	ABSORBANCE
549.8	0.020993
559.445	0.013853
569.09	0.010813
578.734	0.006863
588.379	0.007943
598.024	0.017133
607.669	0.011093
617.313	0.005823
626.958	0.005643
636.603	0.007613
646.248	0.010293
655.893	0.006693
665.537	0.003883
675.182	0.008493
684.827	0.005943
694.472	0.004203
704.116	0.005103
713.761	0.017943
723.406	0.023523
733.051	0.002663
742.695	0.001673
752.34	0.001793
761.985	0.002433
771.63	0.002153
781.275	0.003723
790.919	0.009123
800.564	0.017213
810.209	0.017983
819.854	0.027843
829.498	0.018323
839.143	0.004963
848.788	0.001843
858.433	0.002283
868.078	0.002063
877.722	0.005613
887.367	0.019463
897.012	0.018013
906.657	0.005663
916.301	0.002633
925.946	0.001873
935.591	0.002303
945.236	0.002193
954.88	0.002913
964.525	0.006933
974.17	0.013493
983.815	0.012743
993.46	0.006043
1003.1	0.003923
1012.75	0.002283
1022.39	0.003393
1032.04	0.002753
1041.68	0.002733
1051.33	0.006253
1060.97	0.009213
1070.62	0.025493
1080.26	0.073593
1089.91	0.073643
1099.55	0.044343
1109.2	0.016073
1118.84	0.012973
1128.49	0.022843
1138.13	0.063283
1147.78	0.172813
1157.42	0.183693
1167.07	0.083863
1176.71	0.144533
1186.36	0.096593
1196	0.023823
1205.64	0.011413
1215.29	0.010303
1224.93	0.014593
1234.58	0.046763
1244.22	0.062163
1253.87	0.039403
1263.51	0.025283
1273.16	0.026463
1282.8	0.027803
1292.45	0.018163
1302.09	0.015733
1311.74	0.034333
1321.38	0.131523
1331.03	0.233373
1340.67	0.106293
1350.32	0.026813
1359.96	0.010603
1369.61	0.006693
1379.25	0.007283
1388.9	0.014603
1398.54	0.025113
1408.18	0.046893
1417.83	0.060503
1427.47	0.029663
1437.12	0.009693
1446.76	0.005553
1456.41	0.003983
1466.05	0.005823
1475.7	0.010763
1485.34	0.016823
1494.99	0.008463
1504.63	0.003553
1514.28	0.003003
1523.92	0.002763
1533.57	0.002623
1543.21	0.002933
1552.86	0.003783
1562.5	0.008463
1572.15	0.017753
1581.79	0.015123
1591.44	0.010433
1601.08	0.014963
1610.73	0.015643
1620.37	0.008373
1630.01	0.004623
1639.66	0.003603
1649.3	0.003573
1658.95	0.002203
1668.59	0.002143
1678.24	0.002033
1687.88	0.001803
1697.53	0.001733
1707.17	0.001693
1716.82	0.001773
1726.46	0.001933
1736.11	0.002303
1745.75	0.002523
1755.4	0.003103
1765.04	0.004773
1774.69	0.005873
1784.33	0.004453
1793.98	0.002893
1803.62	0.002703
1813.27	0.002853
1822.91	0.002413
1832.55	0.002793
1842.2	0.003033
1851.84	0.003323
1861.49	0.003763
1871.13	0.004593
1880.78	0.005453
1890.42	0.007573
1900.07	0.011123
1909.71	0.012123
1919.36	0.015673
1929	0.022523
1938.65	0.033033
1948.29	0.046273
1957.94	0.057243
1967.58	0.067683
1977.23	0.084783
1986.87	0.112093
1996.52	0.147113
2006.16	0.185743
2015.81	0.233533
2025.45	0.299403
2035.1	0.345433
2044.74	0.310553
2054.38	0.232913
2064.03	0.182713
2073.67	0.176613
2083.32	0.164843
2092.96	0.141253
2102.61	0.125713
2112.25	0.118653
2121.9	0.102823
2131.54	0.073143
2141.19	0.043813
2150.83	0.028993
2160.48	0.023533
2170.12	0.019363
2179.77	0.015063
2189.41	0.012153
2199.06	0.010973
2208.7	0.012323
2218.35	0.013913
2227.99	0.011143
2237.64	0.007443
2247.28	0.005973
2256.92	0.004833
2266.57	0.003803
2276.21	0.003773
2285.86	0.004153
2295.5	0.005033
2305.15	0.004943
2314.79	0.004283
2324.44	0.004153
2334.08	0.003943
2343.73	0.003663
2353.37	0.003443
2363.02	0.002913
2372.66	0.002563
2382.31	0.002923
2391.95	0.002953
2401.6	0.002563
2411.24	0.002873
2420.89	0.002893
2430.53	0.002733
2440.18	0.002503
2449.82	0.002843
2459.47	0.003543
2469.11	0.003863
2478.75	0.004053
2488.4	0.004103
2498.04	0.003773
2507.69	0.003623
2517.33	0.004413
2526.98	0.004503
2536.62	0.004813
2546.27	0.004793
2555.91	0.005273
2565.56	0.005733
2575.2	0.005603
2584.85	0.006003
2594.49	0.004833
2604.14	0.003363
2613.78	0.002903
2623.43	0.002353
2633.07	0.002113
2642.72	0.002643
2652.36	0.002643
2662.01	0.002523
2671.65	0.002243
2681.29	0.002053
2690.94	0.002173
2700.58	0.002183
2710.23	0.002763
2719.87	0.002923
2729.52	0.003183
2739.16	0.003053
2748.81	0.003073
2758.45	0.003013
2768.1	0.002853
2777.74	0.002323
2787.39	0.002223
2797.03	0.002913
2806.68	0.002693
2816.32	0.002423
2825.97	0.002453
2835.61	0.002903
2845.26	0.002933
2854.9	0.002453
2864.55	0.001863
2874.19	0.002013
2883.84	0.002073
2893.48	0.002403
2903.12	0.001873
2912.77	0.001743
2922.41	0.002743
2932.06	0.001903
2941.7	0.002493
2951.35	0.001933
2960.99	0.0010455
2970.64	0.001513
2980.28	0.001593
2989.93	0.002353
2999.57	0.002003
3009.22	0.001693
3018.86	0.001923
3028.51	0.002043
3038.15	0.001613
3047.8	0.001513
3057.44	0.0014977
3067.09	0.0014952
3076.73	0.001813
3086.38	0.001553
3096.02	0.0012481
3105.67	0.001017
3115.31	0.000932
3124.95	0.0009744
3134.6	0.0011223
3144.24	0.0010965
3153.89	0.0009674
3163.53	0.000793
3173.18	0.00054583
3182.82	0.00052872
3192.47	0.0009261
3202.11	0.00056977
3211.76	0.0012843
3221.4	0.0011507
3231.05	0.0014745
3240.69	0.0011536
3250.34	0.0008739
3259.98	0.0008437
3269.63	0.0008525
3279.27	0.0014777
3288.92	0.0007968
3298.56	0.0009153
3308.21	0.0006933
3317.85	0.0008459
3327.49	0.0006194
3337.14	0.00053199
3346.78	0.0011217
3356.43	0.0007008
3366.07	0.0012611
3375.72	0.0008058
3385.36	0.001031
3395.01	0.0011994
3404.65	0.0009437
3414.3	0.00053938
3423.94	1.9e-05
3433.59	0.0007664
3443.23	0.0010418
3452.88	0.0007442
3462.52	0.0014376
3472.17	0.000779
3481.81	0.0009286
3491.46	0.0013076
3501.1	0.00056875
3510.75	0.0014276
3520.39	0.0008836
3530.04	0.0006439
3539.68	0.0008387
3549.32	0.0004739
3558.97	0.000364
3568.61	0.000318
3578.26	0.000628
3587.9	0.000186
3597.55	0.0010143
3607.19	0.0007752
3616.84	0.0007422
3626.48	0.001387
3636.13	0.0004193
3645.77	0.0011237
3655.42	0.0010656
3665.06	0.0006722
3674.71	0.000403
3684.35	0.0010753
3694	0.0008846
3703.64	0.0012098
3713.29	0.0011826
3722.93	0.0007605
3732.58	0.000258
3742.22	0.0013184
3751.86	0.0004746
3761.51	0.000237
3771.15	0.001613
3780.8	0.0008373
3790.44	0.0008441
3800.09	0.000604
3809.73	0.001454
3819.38	0.0012023
3829.02	0.0009023
3838.67	0.0004298
3848.31	0.0007466
3857.96	0.0011081
3867.6	0.0012065
3877.25	0.001049
3886.89	0.0006518
3896.54	0.0006921
3906.18	0.0012361
3915.83	0.0011766
3925.47	0.0011854
3935.12	0.0009994
3944.76	0.001513
3954.41	0.001563
3964.05	0.0014291
3973.69	0.001863
3983.34	0.002263
3992.98	0.002123
