Infrared Spectrum: 4-Chloro-3-trifluoromethylphenyl isothiocyanate
Formula: C 8 H 3 Cl F 3 N S
CAS: 23163-86-2
State: gas
Origin: EPA-IR VAPOR PHASE LIBRARY
1/CM	ABSORBANCE
549.8	0.00459
559.445	0.00301
569.09	0.00622
578.734	0.00748
588.379	0.00842
598.024	0.00909
607.669	0.00881
617.313	0.00727
626.958	0.00507
636.603	0.0015344
646.248	0.00223
655.893	0.0062
665.537	0.03367
675.182	0.0271
684.827	0.00553
694.472	0.0032
704.116	0.00274
713.761	0.00228
723.406	0.00949
733.051	0.01635
742.695	0.00376
752.34	0.00214
761.985	0.00254
771.63	0.00237
781.275	0.00322
790.919	0.00513
800.564	0.01125
810.209	0.02143
819.854	0.03639
829.498	0.03157
839.143	0.00724
848.788	0.00302
858.433	0.00327
868.078	0.00272
877.722	0.00557
887.367	0.0204
897.012	0.02792
906.657	0.00895
916.301	0.00383
925.946	0.00446
935.591	0.00485
945.236	0.00469
954.88	0.00705
964.525	0.01636
974.17	0.0243
983.815	0.01288
993.46	0.00689
1003.1	0.0048
1012.75	0.00589
1022.39	0.01424
1032.04	0.04185
1041.68	0.05121
1051.33	0.01289
1060.97	0.00515
1070.62	0.0062
1080.26	0.00869
1089.91	0.01046
1099.55	0.02963
1109.2	0.08378
1118.84	0.05284
1128.49	0.04724
1138.13	0.055
1147.78	0.08061
1157.42	0.16841
1167.07	0.2627
1176.71	0.25577
1186.36	0.17398
1196	0.07458
1205.64	0.03956
1215.29	0.0297
1224.93	0.04738
1234.58	0.09005
1244.22	0.07692
1253.87	0.04902
1263.51	0.0379
1273.16	0.04159
1282.8	0.03233
1292.45	0.02925
1302.09	0.05599
1311.74	0.18331
1321.38	0.25688
1331.03	0.05277
1340.67	0.01748
1350.32	0.01325
1359.96	0.00808
1369.61	0.00565
1379.25	0.00669
1388.9	0.01251
1398.54	0.04091
1408.18	0.07963
1417.83	0.09035
1427.47	0.03759
1437.12	0.01591
1446.76	0.0153
1456.41	0.02084
1466.05	0.04903
1475.7	0.1081
1485.34	0.06249
1494.99	0.02104
1504.63	0.00823
1514.28	0.00486
1523.92	0.00419
1533.57	0.00406
1543.21	0.00449
1552.86	0.00551
1562.5	0.01014
1572.15	0.01588
1581.79	0.01072
1591.44	0.01194
1601.08	0.01798
1610.73	0.01032
1620.37	0.00584
1630.01	0.00418
1639.66	0.00385
1649.3	0.00432
1658.95	0.00288
1668.59	0.00216
1678.24	0.00225
1687.88	0.0025
1697.53	0.00286
1707.17	0.00263
1716.82	0.00266
1726.46	0.0029
1736.11	0.0029
1745.75	0.00354
1755.4	0.0037
1765.04	0.00404
1774.69	0.00568
1784.33	0.00673
1793.98	0.00526
1803.62	0.00408
1813.27	0.00383
1822.91	0.00386
1832.55	0.00392
1842.2	0.00431
1851.84	0.00454
1861.49	0.00535
1871.13	0.00672
1880.78	0.00904
1890.42	0.01308
1900.07	0.01828
1909.71	0.02333
1919.36	0.0323
1929	0.04807
1938.65	0.0677
1948.29	0.08478
1957.94	0.10143
1967.58	0.12369
1977.23	0.16179
1986.87	0.21999
1996.52	0.27577
2006.16	0.3172
2015.81	0.38933
2025.45	0.54313
2035.1	0.45628
2044.74	0.2567
2054.38	0.19314
2064.03	0.23723
2073.67	0.31998
2083.32	0.3159
2092.96	0.21974
2102.61	0.14169
2112.25	0.11251
2121.9	0.10379
2131.54	0.09302
2141.19	0.06872
2150.83	0.04562
2160.48	0.03274
2170.12	0.02552
2179.77	0.02127
2189.41	0.02016
2199.06	0.02231
2208.7	0.0238
2218.35	0.01856
2227.99	0.01172
2237.64	0.00865
2247.28	0.00697
2256.92	0.00572
2266.57	0.0049
2276.21	0.00441
2285.86	0.00459
2295.5	0.00421
2305.15	0.00379
2314.79	0.00357
2324.44	0.004
2334.08	0.00434
2343.73	0.00505
2353.37	0.00535
2363.02	0.00548
2372.66	0.00504
2382.31	0.00427
2391.95	0.00395
2401.6	0.0044
2411.24	0.00407
2420.89	0.0037
2430.53	0.00329
2440.18	0.00362
2449.82	0.00344
2459.47	0.00382
2469.11	0.00384
2478.75	0.0035
2488.4	0.00354
2498.04	0.00345
2507.69	0.00376
2517.33	0.00392
2526.98	0.00373
2536.62	0.00418
2546.27	0.00424
2555.91	0.00429
2565.56	0.00438
2575.2	0.0043
2584.85	0.00469
2594.49	0.005
2604.14	0.00546
2613.78	0.006
2623.43	0.00644
2633.07	0.00703
2642.72	0.0068
2652.36	0.00601
2662.01	0.0048
2671.65	0.00321
2681.29	0.00305
2690.94	0.00295
2700.58	0.00314
2710.23	0.00284
2719.87	0.00253
2729.52	0.00266
2739.16	0.00237
2748.81	0.00238
2758.45	0.00276
2768.1	0.00253
2777.74	0.00214
2787.39	0.00266
2797.03	0.00283
2806.68	0.00318
2816.32	0.00327
2825.97	0.00309
2835.61	0.00333
2845.26	0.00318
2854.9	0.0027
2864.55	0.00261
2874.19	0.002
2883.84	0.00208
2893.48	0.00216
2903.12	0.00224
2912.77	0.00228
2922.41	0.00249
2932.06	0.00224
2941.7	0.00188
2951.35	0.00223
2960.99	0.00192
2970.64	0.00239
2980.28	0.00227
2989.93	0.00249
2999.57	0.00267
3009.22	0.00249
3018.86	0.00237
3028.51	0.00188
3038.15	0.00199
3047.8	0.00271
3057.44	0.002
3067.09	0.00172
3076.73	0.00248
3086.38	0.00257
3096.02	0.00206
3105.67	0.00196
3115.31	0.0011037
3124.95	0.0012711
3134.6	0.0007338
3144.24	0.0006578
3153.89	0.000958
3163.53	0.0005303
3173.18	0.0006361
3182.82	0.00058578
3192.47	0.0008836
3202.11	0.0008442
3211.76	0.0012207
3221.4	0.0006949
3231.05	0.0008531
3240.69	0.000346
3250.34	0.000979
3259.98	0.0005635
3269.63	0.0006979
3279.27	0.0005
3288.92	0.000331
3298.56	0.000347
3308.21	0.000847
3317.85	0.0004845
3327.49	0.0008436
3337.14	0.00056224
3346.78	0.000399
3356.43	0.00056649
3366.07	0.000237
3375.72	0.00054066
3385.36	0.0007067
3395.01	0.0008522
3404.65	0.0005255
3414.3	0.0008797
3423.94	0.0007951
3433.59	0.0007473
3443.23	0.0006586
3452.88	0.0007285
3462.52	0.0011886
3472.17	0.00083
3481.81	0.0010488
3491.46	0.0008014
3501.1	0.0010049
3510.75	0.00087
3520.39	0.0008554
3530.04	0.00054636
3539.68	0.0005734
3549.32	0.0008435
3558.97	0.000551054
3568.61	0.00086
3578.26	0.0007251
3587.9	0.000882
3597.55	0.000153
3607.19	0.0006835
3616.84	0.0007511
3626.48	0.0008504
3636.13	0.0011829
3645.77	0.0006942
3655.42	0.0004762
3665.06	0.0011591
3674.71	0.0012098
3684.35	0.0004501
3694	0.00054608
3703.64	0.000911
3713.29	0.000877
3722.93	0.0011018
3732.58	0.0009193
3742.22	0.0011069
3751.86	0.0011661
3761.51	0.0011986
3771.15	0.0012666
3780.8	0.0011015
3790.44	0.0009476
3800.09	0.0009144
3809.73	0.000413
3819.38	0.0007716
3829.02	0.0009584
3838.67	0.0014465
3848.31	0.0011755
3857.96	0.0012238
3867.6	0.0011882
3877.25	0.0013934
3886.89	0.00182
3896.54	0.00165
3906.18	0.00196
3915.83	0.00173
3925.47	0.0016
3935.12	0.00168
3944.76	0.00228
3954.41	0.00248
3964.05	0.00202
3973.69	0.00225
3983.34	0.00256
3992.98	0.00272
