Infrared Spectrum: 2,4,5-Trichlorophenyl isothiocyanate
Formula: C 7 H 2 Cl 3 N S
CAS: 23165-46-0
State: gas
Origin: EPA-IR VAPOR PHASE LIBRARY
1/CM	ABSORBANCE
549.8	0.008335
559.445	0.005395
569.09	0.007935
578.734	0.012585
588.379	0.012405
598.024	0.012065
607.669	0.011775
617.313	0.012855
626.958	0.016625
636.603	0.025505
646.248	0.026305
655.893	0.018375
665.537	0.012625
675.182	0.007335
684.827	0.005105
694.472	0.003975
704.116	0.003105
713.761	0.003365
723.406	0.002445
733.051	0.0005936
742.695	0.00065928
752.34	0.0007918
761.985	0.002195
771.63	0.0012971
781.275	0.00053
790.919	0.0011158
800.564	0.002215
810.209	0.001835
819.854	0.003245
829.498	0.005365
839.143	0.005555
848.788	0.005195
858.433	0.005105
868.078	0.009855
877.722	0.029595
887.367	0.021335
897.012	0.005265
906.657	0.002485
916.301	0.001925
925.946	0.0012974
935.591	0.0012496
945.236	0.001715
954.88	0.002145
964.525	0.004005
974.17	0.011025
983.815	0.034475
993.46	0.038675
1003.1	0.014145
1012.75	0.005235
1022.39	0.003615
1032.04	0.003205
1041.68	0.002235
1051.33	0.001735
1060.97	0.002875
1070.62	0.008095
1080.26	0.038645
1089.91	0.055495
1099.55	0.015155
1109.2	0.007245
1118.84	0.018815
1128.49	0.039405
1138.13	0.029625
1147.78	0.007685
1157.42	0.003545
1167.07	0.0014578
1176.71	0.0008103
1186.36	0.0009258
1196	0.00076244
1205.64	0.000517
1215.29	0.002315
1224.93	0.007865
1234.58	0.010005
1244.22	0.004835
1253.87	0.003505
1263.51	0.002535
1273.16	0.001955
1282.8	0.001975
1292.45	0.002425
1302.09	0.003855
1311.74	0.003695
1321.38	0.003735
1331.03	0.005445
1340.67	0.013515
1350.32	0.029095
1359.96	0.021515
1369.61	0.005665
1379.25	0.003465
1388.9	0.002985
1398.54	0.003255
1408.18	0.003695
1417.83	0.004455
1427.47	0.008095
1437.12	0.021215
1446.76	0.075795
1456.41	0.143265
1466.05	0.063445
1475.7	0.027455
1485.34	0.036235
1494.99	0.021065
1504.63	0.009055
1514.28	0.005945
1523.92	0.005615
1533.57	0.007085
1543.21	0.007605
1552.86	0.007315
1562.5	0.009595
1572.15	0.017095
1581.79	0.016575
1591.44	0.008025
1601.08	0.003445
1610.73	0.002535
1620.37	0.001755
1630.01	0.0014714
1639.66	0.0012977
1649.3	0.0013721
1658.95	0.0015885
1668.59	0.0016188
1678.24	0.0014405
1687.88	0.0015235
1697.53	0.001457
1707.17	0.0016383
1716.82	0.002165
1726.46	0.003305
1736.11	0.004515
1745.75	0.003755
1755.4	0.002685
1765.04	0.002675
1774.69	0.002845
1784.33	0.002875
1793.98	0.003035
1803.62	0.003445
1813.27	0.004185
1822.91	0.004425
1832.55	0.004025
1842.2	0.003545
1851.84	0.003355
1861.49	0.003525
1871.13	0.004115
1880.78	0.005245
1890.42	0.006845
1900.07	0.009305
1909.71	0.013225
1919.36	0.018715
1929	0.026645
1938.65	0.037615
1948.29	0.052655
1957.94	0.075075
1967.58	0.103655
1977.23	0.129825
1986.87	0.154025
1996.52	0.188255
2006.16	0.231525
2015.81	0.293495
2025.45	0.409655
2035.1	0.518555
2044.74	0.411765
2054.38	0.259765
2064.03	0.199405
2073.67	0.201745
2083.32	0.210855
2092.96	0.202905
2102.61	0.188555
2112.25	0.158595
2121.9	0.127845
2131.54	0.092015
2141.19	0.058935
2150.83	0.040565
2160.48	0.031305
2170.12	0.024425
2179.77	0.018175
2189.41	0.013355
2199.06	0.010335
2208.7	0.008805
2218.35	0.008335
2227.99	0.008795
2237.64	0.009685
2247.28	0.010545
2256.92	0.008025
2266.57	0.004865
2276.21	0.003725
2285.86	0.003165
2295.5	0.002945
2305.15	0.002955
2314.79	0.003195
2324.44	0.003635
2334.08	0.004305
2343.73	0.004655
2353.37	0.004215
2363.02	0.003605
2372.66	0.003595
2382.31	0.003655
2391.95	0.003505
2401.6	0.002935
2411.24	0.002485
2420.89	0.002395
2430.53	0.002665
2440.18	0.002835
2449.82	0.002645
2459.47	0.002435
2469.11	0.002495
2478.75	0.002835
2488.4	0.003175
2498.04	0.003615
2507.69	0.003915
2517.33	0.004035
2526.98	0.004065
2536.62	0.004235
2546.27	0.004375
2555.91	0.004225
2565.56	0.003805
2575.2	0.003625
2584.85	0.003575
2594.49	0.004115
2604.14	0.005005
2613.78	0.005235
2623.43	0.004285
2633.07	0.003525
2642.72	0.003115
2652.36	0.003425
2662.01	0.003765
2671.65	0.004265
2681.29	0.004495
2690.94	0.004085
2700.58	0.003855
2710.23	0.003565
2719.87	0.003195
2729.52	0.002715
2739.16	0.002225
2748.81	0.002165
2758.45	0.002285
2768.1	0.002105
2777.74	0.001895
2787.39	0.0015756
2797.03	0.0016341
2806.68	0.0013468
2816.32	0.001447
2825.97	0.0014099
2835.61	0.0013663
2845.26	0.001885
2854.9	0.002065
2864.55	0.002405
2874.19	0.002165
2883.84	0.002075
2893.48	0.001815
2903.12	0.001665
2912.77	0.001715
2922.41	0.001775
2932.06	0.001955
2941.7	0.001885
2951.35	0.001705
2960.99	0.0014745
2970.64	0.0015274
2980.28	0.0013149
2989.93	0.0012419
2999.57	0.0013119
3009.22	0.0013161
3018.86	0.0013127
3028.51	0.0012898
3038.15	0.0010988
3047.8	0.0009224
3057.44	0.0009535
3067.09	0.0009021
3076.73	0.0008366
3086.38	0.0012025
3096.02	0.00155
3105.67	0.0009411
3115.31	0.000637
3124.95	0.000266
3134.6	0.000223
3144.24	0.000139
3153.89	0.000413
3163.53	0.00035
3173.18	0.000348
3182.82	0.000254
3192.47	9.9e-05
3202.11	0.0004
3211.76	0.000273
3221.4	0.000264
3231.05	0.000289
3240.69	0.000282
3250.34	0.000286
3259.98	0.000224
3269.63	0.000219
3279.27	0.000403
3288.92	0.000428
3298.56	0.000434
3308.21	0.000369
3317.85	0.000327
3327.49	0.00031
3337.14	0.000209
3346.78	0.000365
3356.43	0.000365
3366.07	0.000426
3375.72	0.000295
3385.36	0.000488
3395.01	0.000431
3404.65	0.000472
3414.3	0.000351
3423.94	0.000293
3433.59	0.000259
3443.23	0.000273
3452.88	0.000547
3462.52	0.000476
3472.17	0.000279
3481.81	0.000453
3491.46	0.0006048
3501.1	0.000258
3510.75	0.000434
3520.39	0.000341
3530.04	0.000296
3539.68	0.000452
3549.32	0.000136
3558.97	0.000413
3568.61	0.000328
3578.26	0.000345
3587.9	0.000446
3597.55	0.000456
3607.19	0.000434
3616.84	0.000465
3626.48	0.00036
3636.13	0.000319
3645.77	0.000418
3655.42	0.000342
3665.06	0.000358
3674.71	0.000507
3684.35	0.000508
3694	0.0006458
3703.64	0.000428
3713.29	0.000416
3722.93	0.000309
3732.58	0.000561
3742.22	0.0005682
3751.86	0.00069682
3761.51	0.0008587
3771.15	0.000456
3780.8	0.0006397
3790.44	0.00069055
3800.09	0.00075934
3809.73	0.0006132
3819.38	0.000469
3829.02	0.0005742
3838.67	0.0005677
3848.31	0.0006539
3857.96	0.000416
3867.6	0.0006016
3877.25	0.0007946
3886.89	0.0006468
3896.54	0.0008794
3906.18	0.0009419
3915.83	0.0011496
3925.47	0.0014062
3935.12	0.0014961
3944.76	0.0013627
3954.41	0.001238
3964.05	0.001675
3973.69	0.001463
3983.34	0.001715
3992.98	0.001685
