Infrared Spectrum: 2-Ethoxyphenyl isothiocyanate
Formula: C 9 H 9 N O S
CAS: 23163-84-0
State: gas
Origin: EPA-IR VAPOR PHASE LIBRARY
1/CM	ABSORBANCE
549.8	0.020724
559.445	0.016984
569.09	0.010914
578.734	0.008464
588.379	0.007964
598.024	0.006784
607.669	0.005044
617.313	0.003804
626.958	0.003484
636.603	0.003484
646.248	0.003564
655.893	0.003754
665.537	0.005604
675.182	0.009954
684.827	0.013174
694.472	0.010754
704.116	0.006334
713.761	0.005194
723.406	0.010084
733.051	0.028524
742.695	0.064624
752.34	0.050854
761.985	0.018744
771.63	0.009704
781.275	0.007694
790.919	0.007054
800.564	0.005894
810.209	0.003844
819.854	0.002734
829.498	0.001964
839.143	0.001934
848.788	0.002104
858.433	0.002354
868.078	0.003594
877.722	0.006194
887.367	0.011594
897.012	0.014824
906.657	0.015184
916.301	0.017334
925.946	0.021904
935.591	0.030684
945.236	0.039924
954.88	0.026694
964.525	0.011094
974.17	0.006694
983.815	0.005544
993.46	0.006134
1003.1	0.008574
1012.75	0.014164
1022.39	0.024754
1032.04	0.040684
1041.68	0.048894
1051.33	0.032734
1060.97	0.014724
1070.62	0.009024
1080.26	0.009404
1089.91	0.011424
1099.55	0.018094
1109.2	0.035454
1118.84	0.040854
1128.49	0.023144
1138.13	0.008414
1147.78	0.007254
1157.42	0.009954
1167.07	0.007934
1176.71	0.005424
1186.36	0.006384
1196	0.009894
1205.64	0.020764
1215.29	0.044484
1224.93	0.060024
1234.58	0.043064
1244.22	0.033864
1253.87	0.059464
1263.51	0.077244
1273.16	0.060404
1282.8	0.044054
1292.45	0.038594
1302.09	0.032864
1311.74	0.020904
1321.38	0.011014
1331.03	0.006754
1340.67	0.005224
1350.32	0.004584
1359.96	0.004774
1369.61	0.006154
1379.25	0.010494
1388.9	0.018774
1398.54	0.019294
1408.18	0.010454
1417.83	0.006464
1427.47	0.006794
1437.12	0.010364
1446.76	0.022194
1456.41	0.028084
1466.05	0.022764
1475.7	0.038464
1485.34	0.069524
1494.99	0.077474
1504.63	0.037664
1514.28	0.015674
1523.92	0.010044
1533.57	0.006784
1543.21	0.005904
1552.86	0.006404
1562.5	0.008564
1572.15	0.014824
1581.79	0.024564
1591.44	0.030584
1601.08	0.021944
1610.73	0.009034
1620.37	0.004884
1630.01	0.003474
1639.66	0.002914
1649.3	0.002674
1658.95	0.002964
1668.59	0.003224
1678.24	0.003304
1687.88	0.002944
1697.53	0.002774
1707.17	0.002704
1716.82	0.002504
1726.46	0.002434
1736.11	0.002424
1745.75	0.002714
1755.4	0.003044
1765.04	0.003434
1774.69	0.003504
1784.33	0.003604
1793.98	0.003714
1803.62	0.003894
1813.27	0.004124
1822.91	0.004534
1832.55	0.005264
1842.2	0.005984
1851.84	0.006304
1861.49	0.006314
1871.13	0.007294
1880.78	0.009304
1890.42	0.010684
1900.07	0.010874
1909.71	0.012054
1919.36	0.015594
1929	0.019504
1938.65	0.022914
1948.29	0.029324
1957.94	0.039324
1967.58	0.053944
1977.23	0.075014
1986.87	0.101954
1996.52	0.131784
2006.16	0.168414
2015.81	0.226514
2025.45	0.322984
2035.1	0.410934
2044.74	0.396644
2054.38	0.326114
2064.03	0.258254
2073.67	0.207764
2083.32	0.186404
2092.96	0.193944
2102.61	0.212544
2112.25	0.212184
2121.9	0.176034
2131.54	0.125234
2141.19	0.090474
2150.83	0.072444
2160.48	0.061864
2170.12	0.053244
2179.77	0.043244
2189.41	0.032624
2199.06	0.024924
2208.7	0.019744
2218.35	0.015954
2227.99	0.012334
2237.64	0.008654
2247.28	0.006054
2256.92	0.004824
2266.57	0.004074
2276.21	0.003494
2285.86	0.003064
2295.5	0.002654
2305.15	0.002484
2314.79	0.002454
2324.44	0.002544
2334.08	0.002364
2343.73	0.002404
2353.37	0.002424
2363.02	0.002604
2372.66	0.002874
2382.31	0.003194
2391.95	0.003154
2401.6	0.003074
2411.24	0.003274
2420.89	0.003464
2430.53	0.003664
2440.18	0.003684
2449.82	0.003614
2459.47	0.003484
2469.11	0.003474
2478.75	0.003924
2488.4	0.004184
2498.04	0.004834
2507.69	0.005134
2517.33	0.005074
2526.98	0.004934
2536.62	0.004924
2546.27	0.005164
2555.91	0.005484
2565.56	0.005584
2575.2	0.005214
2584.85	0.004894
2594.49	0.004574
2604.14	0.003754
2613.78	0.002964
2623.43	0.002344
2633.07	0.002034
2642.72	0.001834
2652.36	0.001644
2662.01	0.001774
2671.65	0.001834
2681.29	0.002174
2690.94	0.002244
2700.58	0.002594
2710.23	0.003084
2719.87	0.004144
2729.52	0.005154
2739.16	0.005504
2748.81	0.004944
2758.45	0.004304
2768.1	0.003674
2777.74	0.003304
2787.39	0.003074
2797.03	0.003064
2806.68	0.002894
2816.32	0.002984
2825.97	0.003154
2835.61	0.003444
2845.26	0.003944
2854.9	0.004914
2864.55	0.006424
2874.19	0.009264
2883.84	0.013264
2893.48	0.015774
2903.12	0.015384
2912.77	0.014844
2922.41	0.016234
2932.06	0.019564
2941.7	0.022104
2951.35	0.019184
2960.99	0.015344
2970.64	0.017534
2980.28	0.025704
2989.93	0.031454
2999.57	0.021764
3009.22	0.011704
3018.86	0.008274
3028.51	0.008194
3038.15	0.009574
3047.8	0.009034
3057.44	0.008754
3067.09	0.012584
3076.73	0.017884
3086.38	0.015534
3096.02	0.007414
3105.67	0.004584
3115.31	0.002964
3124.95	0.001804
3134.6	0.0013581
3144.24	0.001232
3153.89	0.0010283
3163.53	0.0008913
3173.18	0.0007811
3182.82	0.0006281
3192.47	0.0007702
3202.11	0.000505
3211.76	0.000374
3221.4	0.0004915
3231.05	0.000371
3240.69	0.000235
3250.34	0.0004479
3259.98	0.000338
3269.63	0.000165
3279.27	0.000178
3288.92	0.000251
3298.56	0.000146
3308.21	0.000139
3317.85	0.0004837
3327.49	0.000391
3337.14	0.000365
3346.78	0.000341
3356.43	0.00034
3366.07	0.000297
3375.72	0.000147
3385.36	0.0004315
3395.01	0.000152
3404.65	0.000202
3414.3	0.00041
3423.94	0.000207
3433.59	4e-05
3443.23	2.7e-05
3452.88	0.000269
3462.52	0.000362
3472.17	0.000449
3481.81	0.0004351
3491.46	0.000161
3501.1	0.0002
3510.75	0.000365
3520.39	0.000122
3530.04	0.00025
3539.68	0.000362
3549.32	0.000381
3558.97	0.000119
3568.61	0.000238
3578.26	0.000285
3587.9	0.000343
3597.55	0.000289
3607.19	0.000318
3616.84	0.000417
3626.48	0.000309
3636.13	0.00054344
3645.77	0.000354
3655.42	0.000407
3665.06	0.00055514
3674.71	0.0004647
3684.35	0.000365
3694	0.000292
3703.64	0.0004638
3713.29	0.000409
3722.93	0.0004891
3732.58	0.0005122
3742.22	0.000468
3751.86	0.0007161
3761.51	0.000528232
3771.15	0.0004707
3780.8	0.0008827
3790.44	0.0006807
3800.09	0.0007287
3809.73	0.0007824
3819.38	0.00062383
3829.02	0.00059288
3838.67	0.0006678
3848.31	0.0008476
3857.96	0.0007056
3867.6	0.0010119
3877.25	0.000705
3886.89	0.0007751
3896.54	0.0010396
3906.18	0.0009052
3915.83	0.000921
3925.47	0.0008745
3935.12	0.0013185
3944.76	0.0010823
3954.41	0.0010823
3964.05	0.001375
3973.69	0.001483
3983.34	0.001604
3992.98	0.002084
