Infrared Spectrum: 4-Chloro-2-methylphenyl isothiocyanate
Formula: C 8 H 6 Cl N S
CAS: 23165-53-9
State: gas
Origin: EPA-IR VAPOR PHASE LIBRARY
1/CM	ABSORBANCE
549.8	0.022388
559.445	0.028338
569.09	0.017348
578.734	0.010318
588.379	0.008738
598.024	0.005538
607.669	0.005098
617.313	0.005058
626.958	0.005028
636.603	0.004818
646.248	0.004618
655.893	0.006358
665.537	0.009748
675.182	0.009738
684.827	0.006348
694.472	0.004798
704.116	0.005078
713.761	0.002878
723.406	0.002988
733.051	0.006168
742.695	0.007478
752.34	0.003758
761.985	0.003128
771.63	0.006008
781.275	0.008398
790.919	0.012608
800.564	0.038768
810.209	0.081408
819.854	0.069818
829.498	0.028578
839.143	0.012058
848.788	0.016038
858.433	0.024098
868.078	0.039818
877.722	0.043218
887.367	0.030568
897.012	0.024498
906.657	0.041288
916.301	0.056498
925.946	0.075928
935.591	0.144798
945.236	0.210218
954.88	0.113828
964.525	0.039338
974.17	0.018578
983.815	0.013388
993.46	0.014058
1003.1	0.011718
1012.75	0.007398
1022.39	0.006028
1032.04	0.006358
1041.68	0.006718
1051.33	0.006588
1060.97	0.007688
1070.62	0.012708
1080.26	0.035958
1089.91	0.070808
1099.55	0.062858
1109.2	0.055798
1118.84	0.042068
1128.49	0.032748
1138.13	0.018438
1147.78	0.015528
1157.42	0.008988
1167.07	0.008558
1176.71	0.020088
1186.36	0.093698
1196	0.102898
1205.64	0.016188
1215.29	0.008588
1224.93	0.008508
1234.58	0.008898
1244.22	0.011648
1253.87	0.015408
1263.51	0.021298
1273.16	0.021638
1282.8	0.008318
1292.45	0.005228
1302.09	0.004828
1311.74	0.004578
1321.38	0.004058
1331.03	0.003588
1340.67	0.003678
1350.32	0.004358
1359.96	0.005828
1369.61	0.009648
1379.25	0.014308
1388.9	0.021718
1398.54	0.037438
1408.18	0.027938
1417.83	0.026418
1427.47	0.025638
1437.12	0.025078
1446.76	0.031148
1456.41	0.040258
1466.05	0.095258
1475.7	0.260508
1485.34	0.226598
1494.99	0.109758
1504.63	0.040228
1514.28	0.023328
1523.92	0.019398
1533.57	0.018038
1543.21	0.017128
1552.86	0.015838
1562.5	0.016148
1572.15	0.018628
1581.79	0.021428
1591.44	0.022998
1601.08	0.019298
1610.73	0.013228
1620.37	0.011758
1630.01	0.010838
1639.66	0.006778
1649.3	0.004218
1658.95	0.003648
1668.59	0.003568
1678.24	0.003838
1687.88	0.004268
1697.53	0.004738
1707.17	0.005338
1716.82	0.005988
1726.46	0.007618
1736.11	0.010818
1745.75	0.012158
1755.4	0.010028
1765.04	0.008908
1774.69	0.009138
1784.33	0.009908
1793.98	0.011058
1803.62	0.010878
1813.27	0.009738
1822.91	0.009348
1832.55	0.009928
1842.2	0.010968
1851.84	0.013158
1861.49	0.017528
1871.13	0.022968
1880.78	0.025638
1890.42	0.024788
1900.07	0.024498
1909.71	0.027308
1919.36	0.033068
1929	0.043038
1938.65	0.059088
1948.29	0.082048
1957.94	0.111808
1967.58	0.150898
1977.23	0.202098
1986.87	0.267678
1996.52	0.355668
2006.16	0.474528
2015.81	0.614808
2025.45	0.770038
2035.1	0.955608
2044.74	1.15156
2054.38	1.15484
2064.03	1.0336
2073.67	1.01515
2083.32	0.958078
2092.96	0.813528
2102.61	0.678748
2112.25	0.544108
2121.9	0.425298
2131.54	0.375018
2141.19	0.352658
2150.83	0.282778
2160.48	0.187328
2170.12	0.127198
2179.77	0.103718
2189.41	0.095778
2199.06	0.088438
2208.7	0.068748
2218.35	0.044478
2227.99	0.028298
2237.64	0.019238
2247.28	0.013838
2256.92	0.010598
2266.57	0.008668
2276.21	0.007378
2285.86	0.006518
2295.5	0.006058
2305.15	0.006208
2314.79	0.006498
2324.44	0.006588
2334.08	0.007108
2343.73	0.007918
2353.37	0.009498
2363.02	0.011908
2372.66	0.013648
2382.31	0.013558
2391.95	0.012198
2401.6	0.010408
2411.24	0.008818
2420.89	0.008118
2430.53	0.008408
2440.18	0.009028
2449.82	0.008918
2459.47	0.008218
2469.11	0.007568
2478.75	0.007768
2488.4	0.008858
2498.04	0.010318
2507.69	0.011258
2517.33	0.011118
2526.98	0.009898
2536.62	0.008688
2546.27	0.007418
2555.91	0.006388
2565.56	0.006158
2575.2	0.006478
2584.85	0.006138
2594.49	0.006098
2604.14	0.007178
2613.78	0.009528
2623.43	0.013258
2633.07	0.017028
2642.72	0.019288
2652.36	0.020168
2662.01	0.019098
2671.65	0.014718
2681.29	0.009798
2690.94	0.007578
2700.58	0.007058
2710.23	0.007028
2719.87	0.006488
2729.52	0.006018
2739.16	0.006248
2748.81	0.006838
2758.45	0.006288
2768.1	0.005118
2777.74	0.004398
2787.39	0.004008
2797.03	0.003838
2806.68	0.003838
2816.32	0.003928
2825.97	0.004168
2835.61	0.004748
2845.26	0.005398
2854.9	0.006808
2864.55	0.009038
2874.19	0.010788
2883.84	0.010908
2893.48	0.011058
2903.12	0.011788
2912.77	0.013448
2922.41	0.018248
2932.06	0.025688
2941.7	0.026808
2951.35	0.021118
2960.99	0.019018
2970.64	0.019328
2980.28	0.020278
2989.93	0.023048
2999.57	0.019888
3009.22	0.013928
3018.86	0.012108
3028.51	0.012998
3038.15	0.014538
3047.8	0.013238
3057.44	0.010848
3067.09	0.009378
3076.73	0.009738
3086.38	0.010538
3096.02	0.009518
3105.67	0.006028
3115.31	0.003238
3124.95	0.002218
3134.6	0.001758
3144.24	0.0013294
3153.89	0.0009594
3163.53	0.00065001
3173.18	0.00046
3182.82	0.000439
3192.47	0.000311
3202.11	0.00026
3211.76	0.000275
3221.4	0
3231.05	8.4e-05
3240.69	0.000195
3250.34	0.000109
3259.98	8e-05
3269.63	0.000104
3279.27	0.000189
3288.92	0.000275
3298.56	0.000223
3308.21	0.000211
3317.85	5.3e-05
3327.49	7.3e-05
3337.14	0.000215
3346.78	0.000232
3356.43	9.8e-05
3366.07	9.1e-05
3375.72	0.000265
3385.36	0.000121
3395.01	0.000206
3404.65	0.000214
3414.3	0.000193
3423.94	0.000154
3433.59	0.000131
3443.23	0.000234
3452.88	0.000346
3462.52	0.000106
3472.17	0.000255
3481.81	0.000238
3491.46	0.000361
3501.1	0.000505
3510.75	0.000404
3520.39	0.000345
3530.04	0.000265
3539.68	0.000362
3549.32	0.000339
3558.97	0.000279
3568.61	0.000463
3578.26	0.00037
3587.9	0.000411
3597.55	0.000491
3607.19	0.000326
3616.84	0.000435
3626.48	0.000473
3636.13	0.000301
3645.77	0.000497
3655.42	0.000483
3665.06	0.000427
3674.71	0.0005487
3684.35	0.000445
3694	0.000409
3703.64	0.000422
3713.29	0.000623688
3722.93	0.0005424
3732.58	0.0007196
3742.22	0.0007933
3751.86	0.00069278
3761.51	0.0007418
3771.15	0.0007506
3780.8	0.0008683
3790.44	0.0008736
3800.09	0.0009624
3809.73	0.000804
3819.38	0.000851
3829.02	0.0007251
3838.67	0.0008535
3848.31	0.0008993
3857.96	0.0010499
3867.6	0.0012108
3877.25	0.0011909
3886.89	0.0012971
3896.54	0.001606
3906.18	0.001708
3915.83	0.001878
3925.47	0.002058
3935.12	0.002328
3944.76	0.002528
3954.41	0.002768
3964.05	0.002838
3973.69	0.003208
3983.34	0.003538
3992.98	0.003708
