Infrared Spectrum: 4-Methoxy-2-nitrophenyl isothiocyanate
Formula: C 8 H 6 N 2 O 3 S
CAS: 23165-60-8
State: gas
Origin: EPA-IR VAPOR PHASE LIBRARY
1/CM	ABSORBANCE
549.8	0.017578
559.445	0.009558
569.09	0.006468
578.734	0.007218
588.379	0.006428
598.024	0.005088
607.669	0.003668
617.313	0.002638
626.958	0.002418
636.603	0.001588
646.248	0.0011246
655.893	0.001668
665.537	0.001988
675.182	0.002258
684.827	0.002938
694.472	0.003218
704.116	0.005628
713.761	0.005868
723.406	0.007028
733.051	0.018438
742.695	0.020338
752.34	0.008328
761.985	0.004658
771.63	0.005168
781.275	0.006008
790.919	0.012328
800.564	0.054098
810.209	0.029008
819.854	0.014438
829.498	0.014638
839.143	0.007148
848.788	0.005828
858.433	0.011818
868.078	0.022208
877.722	0.027948
887.367	0.034128
897.012	0.031918
906.657	0.022788
916.301	0.013938
925.946	0.007138
935.591	0.008848
945.236	0.021358
954.88	0.025718
964.525	0.014388
974.17	0.008678
983.815	0.007268
993.46	0.007408
1003.1	0.009868
1012.75	0.017838
1022.39	0.031328
1032.04	0.038758
1041.68	0.027348
1051.33	0.010678
1060.97	0.006078
1070.62	0.007348
1080.26	0.013298
1089.91	0.024868
1099.55	0.022768
1109.2	0.013508
1118.84	0.016398
1128.49	0.012568
1138.13	0.004598
1147.78	0.003548
1157.42	0.004378
1167.07	0.004958
1176.71	0.006738
1186.36	0.009088
1196	0.008018
1205.64	0.009508
1215.29	0.016838
1224.93	0.034708
1234.58	0.046738
1244.22	0.041048
1253.87	0.043758
1263.51	0.039028
1273.16	0.041078
1282.8	0.055688
1292.45	0.052558
1302.09	0.050638
1311.74	0.049868
1321.38	0.049728
1331.03	0.070778
1340.67	0.153838
1350.32	0.188118
1359.96	0.082318
1369.61	0.039398
1379.25	0.027908
1388.9	0.022368
1398.54	0.023478
1408.18	0.029798
1417.83	0.024688
1427.47	0.014688
1437.12	0.012538
1446.76	0.015698
1456.41	0.022808
1466.05	0.030338
1475.7	0.035978
1485.34	0.063538
1494.99	0.092628
1504.63	0.056518
1514.28	0.039018
1523.92	0.054718
1533.57	0.118378
1543.21	0.174368
1552.86	0.112708
1562.5	0.048528
1572.15	0.041268
1581.79	0.055208
1591.44	0.060478
1601.08	0.037958
1610.73	0.023598
1620.37	0.011638
1630.01	0.008108
1639.66	0.007448
1649.3	0.007378
1658.95	0.006248
1668.59	0.004258
1678.24	0.003388
1687.88	0.003408
1697.53	0.003348
1707.17	0.003158
1716.82	0.003008
1726.46	0.003258
1736.11	0.003428
1745.75	0.003468
1755.4	0.003438
1765.04	0.003868
1774.69	0.003838
1784.33	0.003658
1793.98	0.003548
1803.62	0.003578
1813.27	0.003878
1822.91	0.004518
1832.55	0.005828
1842.2	0.007138
1851.84	0.007418
1861.49	0.007428
1871.13	0.008208
1880.78	0.010938
1890.42	0.014578
1900.07	0.017318
1909.71	0.020268
1919.36	0.025068
1929	0.032668
1938.65	0.042758
1948.29	0.056028
1957.94	0.079088
1967.58	0.112328
1977.23	0.144218
1986.87	0.175408
1996.52	0.222488
2006.16	0.336928
2015.81	0.505958
2025.45	0.456148
2035.1	0.324988
2044.74	0.250658
2054.38	0.195808
2064.03	0.162848
2073.67	0.191318
2083.32	0.246088
2092.96	0.249718
2102.61	0.183598
2112.25	0.116328
2121.9	0.084618
2131.54	0.072758
2141.19	0.065738
2150.83	0.054688
2160.48	0.041508
2170.12	0.032828
2179.77	0.027638
2189.41	0.022448
2199.06	0.016628
2208.7	0.012868
2218.35	0.011338
2227.99	0.010688
2237.64	0.009228
2247.28	0.006498
2256.92	0.004668
2266.57	0.003908
2276.21	0.003398
2285.86	0.003298
2295.5	0.003398
2305.15	0.003538
2314.79	0.003748
2324.44	0.003948
2334.08	0.003948
2343.73	0.003748
2353.37	0.003638
2363.02	0.003298
2372.66	0.003158
2382.31	0.003218
2391.95	0.003338
2401.6	0.003238
2411.24	0.002898
2420.89	0.002638
2430.53	0.002558
2440.18	0.002628
2449.82	0.002668
2459.47	0.002888
2469.11	0.003178
2478.75	0.003438
2488.4	0.003988
2498.04	0.004598
2507.69	0.005378
2517.33	0.005458
2526.98	0.004998
2536.62	0.004988
2546.27	0.005278
2555.91	0.005688
2565.56	0.005698
2575.2	0.005448
2584.85	0.005228
2594.49	0.005478
2604.14	0.005618
2613.78	0.005548
2623.43	0.005558
2633.07	0.005398
2642.72	0.005178
2652.36	0.004848
2662.01	0.004208
2671.65	0.004098
2681.29	0.004138
2690.94	0.004048
2700.58	0.004168
2710.23	0.004068
2719.87	0.004158
2729.52	0.004528
2739.16	0.004498
2748.81	0.003788
2758.45	0.003078
2768.1	0.002488
2777.74	0.002278
2787.39	0.002228
2797.03	0.002528
2806.68	0.002758
2816.32	0.003158
2825.97	0.004038
2835.61	0.005468
2845.26	0.007688
2854.9	0.008068
2864.55	0.007908
2874.19	0.008918
2883.84	0.009078
2893.48	0.007648
2903.12	0.006918
2912.77	0.007988
2922.41	0.009338
2932.06	0.010898
2941.7	0.014518
2951.35	0.018018
2960.99	0.016508
2970.64	0.014598
2980.28	0.011888
2989.93	0.008058
2999.57	0.006488
3009.22	0.007068
3018.86	0.009798
3028.51	0.008158
3038.15	0.004328
3047.8	0.003128
3057.44	0.002788
3067.09	0.002608
3076.73	0.003238
3086.38	0.004848
3096.02	0.004938
3105.67	0.003978
3115.31	0.002678
3124.95	0.001698
3134.6	0.0009929
3144.24	0.0009419
3153.89	0.0007676
3163.53	0.000613
3173.18	0.0005719
3182.82	0.0007657
3192.47	0.0007542
3202.11	0.0006599
3211.76	0.0006899
3221.4	0.0003698
3231.05	0.0003635
3240.69	0.000255
3250.34	9.8e-05
3259.98	5.4e-05
3269.63	0.000137
3279.27	6.3e-05
3288.92	8.8e-05
3298.56	0.000227
3308.21	0.000259
3317.85	0.000218
3327.49	0.000278
3337.14	0.000271
3346.78	0.0004886
3356.43	0.0003566
3366.07	0.000189
3375.72	0.000233
3385.36	0.00028
3395.01	0.000253
3404.65	0.000248
3414.3	0.000234
3423.94	0.00024
3433.59	5e-05
3443.23	0.000275
3452.88	0.000185
3462.52	0.0002953
3472.17	0
3481.81	0.000259
3491.46	0.0003109
3501.1	0.0003017
3510.75	0.000204
3520.39	0.0003839
3530.04	0.000158
3539.68	0.000273
3549.32	0.000242
3558.97	0.0003076
3568.61	0.000279
3578.26	0.0003263
3587.9	0.0003425
3597.55	0.00043805
3607.19	0.000237
3616.84	0.0002911
3626.48	0.000229
3636.13	0.000126
3645.77	0.000152
3655.42	0.00047184
3665.06	0.00045851
3674.71	0.00041628
3684.35	0.0003756
3694	0.0002925
3703.64	0.000213
3713.29	0.0002938
3722.93	0.00044421
3732.58	0.00048245
3742.22	0.0003498
3751.86	0.00044721
3761.51	0.0003454
3771.15	0.000286
3780.8	0.00044007
3790.44	0.0006063
3800.09	0.000387838
3809.73	0.00048157
3819.38	0.0004893
3829.02	0.0007009
3838.67	0.00048009
3848.31	0.000703
3857.96	0.000642
3867.6	0.000808
3877.25	0.000858
3886.89	0.0009045
3896.54	0.0010422
3906.18	0.0009794
3915.83	0.0008971
3925.47	0.0013159
3935.12	0.001398
3944.76	0.001448
3954.41	0.0013677
3964.05	0.001558
3973.69	0.001508
3983.34	0.001698
3992.98	0.001788
