Infrared Spectrum: 4-Butylphenyl isothiocyanate
Formula: C 11 H 13 N S
CAS: 23165-44-8
State: gas
Origin: EPA-IR VAPOR PHASE LIBRARY
1/CM	ABSORBANCE
549.8	0.013402
559.445	0.010152
569.09	0.006652
578.734	0.004702
588.379	0.003692
598.024	0.002962
607.669	0.003002
617.313	0.003352
626.958	0.002772
636.603	0.002662
646.248	0.001822
655.893	0.001652
665.537	0.001532
675.182	0.001432
684.827	0.0011778
694.472	0.0010982
704.116	0.0011736
713.761	0.001672
723.406	0.001572
733.051	0.001802
742.695	0.002522
752.34	0.002992
761.985	0.003882
771.63	0.007152
781.275	0.010192
790.919	0.010672
800.564	0.013382
810.209	0.017332
819.854	0.022182
829.498	0.025492
839.143	0.018112
848.788	0.007652
858.433	0.003692
868.078	0.003042
877.722	0.003622
887.367	0.004802
897.012	0.007092
906.657	0.009612
916.301	0.012012
925.946	0.016282
935.591	0.023242
945.236	0.022592
954.88	0.014012
964.525	0.007552
974.17	0.004312
983.815	0.002632
993.46	0.001642
1003.1	0.0011662
1012.75	0.002662
1022.39	0.002992
1032.04	0.0004694
1041.68	0.0010574
1051.33	0.001392
1060.97	0.001332
1070.62	0.002362
1080.26	0.002652
1089.91	0.002342
1099.55	0.003612
1109.2	0.004502
1118.84	0.003952
1128.49	0.001812
1138.13	0.0010315
1147.78	0.0004378
1157.42	0.0007888
1167.07	0.0008181
1176.71	0.001792
1186.36	0.002532
1196	0.004382
1205.64	0.003112
1215.29	0.002202
1224.93	0.002512
1234.58	0.004622
1244.22	0.009672
1253.87	0.010422
1263.51	0.006012
1273.16	0.004592
1282.8	0.004212
1292.45	0.003962
1302.09	0.003972
1311.74	0.004092
1321.38	0.003722
1331.03	0.004182
1340.67	0.004882
1350.32	0.004302
1359.96	0.003942
1369.61	0.003442
1379.25	0.004032
1388.9	0.004272
1398.54	0.003192
1408.18	0.003282
1417.83	0.003622
1427.47	0.003882
1437.12	0.005312
1446.76	0.008192
1456.41	0.010642
1466.05	0.011092
1475.7	0.009612
1485.34	0.010972
1494.99	0.029192
1504.63	0.083042
1514.28	0.032072
1523.92	0.007392
1533.57	0.004992
1543.21	0.004702
1552.86	0.004762
1562.5	0.005362
1572.15	0.006112
1581.79	0.006262
1591.44	0.007372
1601.08	0.012042
1610.73	0.012462
1620.37	0.005752
1630.01	0.003772
1639.66	0.003322
1649.3	0.003032
1658.95	0.002592
1668.59	0.001972
1678.24	0.001772
1687.88	0.001522
1697.53	0.001442
1707.17	0.001532
1716.82	0.001612
1726.46	0.001622
1736.11	0.001662
1745.75	0.001862
1755.4	0.002172
1765.04	0.002832
1774.69	0.002992
1784.33	0.002402
1793.98	0.002612
1803.62	0.002662
1813.27	0.002592
1822.91	0.002762
1832.55	0.003022
1842.2	0.003722
1851.84	0.004732
1861.49	0.005482
1871.13	0.006362
1880.78	0.007652
1890.42	0.008952
1900.07	0.009352
1909.71	0.010232
1919.36	0.011952
1929	0.015262
1938.65	0.020672
1948.29	0.028562
1957.94	0.039402
1967.58	0.053252
1977.23	0.071032
1986.87	0.093952
1996.52	0.124072
2006.16	0.163562
2015.81	0.212532
2025.45	0.268002
2035.1	0.321062
2044.74	0.359212
2054.38	0.342592
2064.03	0.246152
2073.67	0.182912
2083.32	0.179512
2092.96	0.211482
2102.61	0.225892
2112.25	0.179872
2121.9	0.122532
2131.54	0.087622
2141.19	0.073282
2150.83	0.067862
2160.48	0.059892
2170.12	0.049102
2179.77	0.040472
2189.41	0.033972
2199.06	0.026232
2208.7	0.018102
2218.35	0.012582
2227.99	0.009192
2237.64	0.006782
2247.28	0.005122
2256.92	0.004022
2266.57	0.003412
2276.21	0.002822
2285.86	0.002482
2295.5	0.002142
2305.15	0.001932
2314.79	0.001712
2324.44	0.001442
2334.08	0.001592
2343.73	0.001642
2353.37	0.001592
2363.02	0.001642
2372.66	0.001722
2382.31	0.001952
2391.95	0.002122
2401.6	0.002422
2411.24	0.002662
2420.89	0.002802
2430.53	0.002692
2440.18	0.002522
2449.82	0.002392
2459.47	0.002542
2469.11	0.002772
2478.75	0.003042
2488.4	0.003342
2498.04	0.003302
2507.69	0.003022
2517.33	0.002982
2526.98	0.003052
2536.62	0.003272
2546.27	0.003602
2555.91	0.003862
2565.56	0.004052
2575.2	0.004132
2584.85	0.003992
2594.49	0.003342
2604.14	0.002512
2613.78	0.002312
2623.43	0.002082
2633.07	0.002462
2642.72	0.002592
2652.36	0.002932
2662.01	0.003082
2671.65	0.003532
2681.29	0.003822
2690.94	0.004202
2700.58	0.004242
2710.23	0.004422
2719.87	0.004052
2729.52	0.003562
2739.16	0.003232
2748.81	0.002812
2758.45	0.002712
2768.1	0.002672
2777.74	0.002602
2787.39	0.002792
2797.03	0.002902
2806.68	0.003182
2816.32	0.003822
2825.97	0.004542
2835.61	0.005792
2845.26	0.008302
2854.9	0.014602
2864.55	0.024802
2874.19	0.028092
2883.84	0.026282
2893.48	0.021252
2903.12	0.020712
2912.77	0.027162
2922.41	0.042712
2932.06	0.063912
2941.7	0.068552
2951.35	0.050182
2960.99	0.047312
2970.64	0.054672
2980.28	0.030752
2989.93	0.016232
2999.57	0.011732
3009.22	0.009222
3018.86	0.008822
3028.51	0.012882
3038.15	0.017322
3047.8	0.010182
3057.44	0.007172
3067.09	0.005832
3076.73	0.005592
3086.38	0.005662
3096.02	0.004922
3105.67	0.003812
3115.31	0.003212
3124.95	0.002402
3134.6	0.001512
3144.24	0.001292
3153.89	0.0008862
3163.53	0.0007254
3173.18	0.0008458
3182.82	0.0007269
3192.47	0.0006022
3202.11	0.0004847
3211.76	0.0003679
3221.4	0.00025078
3231.05	0.00025167
3240.69	0.0001634
3250.34	0.00026015
3259.98	6e-05
3269.63	0.0001808
3279.27	0.0001511
3288.92	0.0001185
3298.56	0.0001276
3308.21	5.6e-05
3317.85	0.0001218
3327.49	0.00021996
3337.14	0.000176
3346.78	0.0003165
3356.43	0.00027834
3366.07	0.0001489
3375.72	0.000211359
3385.36	0.0001101
3395.01	0.00027642
3404.65	0.0001808
3414.3	8.6e-05
3423.94	0.00022331
3433.59	0.00027416
3443.23	0.00019394
3452.88	0.0001894
3462.52	0.000204009
3472.17	0.00029231
3481.81	0.0001404
3491.46	8.5e-05
3501.1	0.0001884
3510.75	3.4e-05
3520.39	0.0003021
3530.04	0.0001405
3539.68	2.6e-05
3549.32	0.0001103
3558.97	0.00022746
3568.61	0.0001146
3578.26	0.0001558
3587.9	0.0001309
3597.55	0.0001404
3607.19	0.0003243
3616.84	0.00021728
3626.48	0.00030013
3636.13	0.00023041
3645.77	0.00028579
3655.42	0.00025298
3665.06	0.0003151
3674.71	0.0004203
3684.35	0.0003198
3694	0.0003885
3703.64	0.0005196
3713.29	0.0003829
3722.93	0.0005683
3732.58	0.0003762
3742.22	0.0004253
3751.86	0.000469
3761.51	0.00028736
3771.15	0.0004937
3780.8	0.0004801
3790.44	0.0004702
3800.09	0.0004708
3809.73	0.0004269
3819.38	0.0003996
3829.02	0.0004306
3838.67	0.0004911
3848.31	0.0005413
3857.96	0.0004921
3867.6	0.0005902
3877.25	0.0008544
3886.89	0.0007997
3896.54	0.000744
3906.18	0.0006344
3915.83	0.0006852
3925.47	0.0010185
3935.12	0.0010995
3944.76	0.0010819
3954.41	0.0011245
3964.05	0.001402
3973.69	0.0011378
3983.34	0.001542
3992.98	0.001572
