Infrared Spectrum: 3-Heptanol, 6-dimethylamino-4,4-diphenyl-, hydrochloride
Formula: C21 H30 Cl N O
CAS: 23164-36-5
State: SOLID (OIL MULL)
Class: COBLENTZ III
Instrument: PERKIN-ELMER 21 (GRATING)
Instrument parameters: NaCl PRISM
Sampling: TRANSMISSION
Resolution: 2
Origin: SMITH KLINE & FRENCH LABS.
1/CM	TRANSMITTANCE
644	0.6044
653	0.7496
662	0.776
671	0.788
680	0.7931
689	0.7631
698	0.209
707	0.5728
716	0.5901
725	0.8288
734	0.8687
743	0.8871
752	0.7647
761	0.6572
770	0.8817
779	0.9265
788	0.9106
797	0.934
806	0.9342
815	0.8998
824	0.9522
833	0.9437
842	0.921
851	0.9476
860	0.9412
869	0.9385
878	0.9084
887	0.8914
896	0.9003
905	0.791
914	0.8395
923	0.8135
932	0.7382
941	0.7732
950	0.8772
959	0.8585
968	0.7554
977	0.5645
986	0.7595
995	0.7912
1004	0.6389
1013	0.7768
1022	0.6726
1031	0.6596
1040	0.7656
1049	0.5749
1058	0.7625
1067	0.7948
1076	0.6849
1085	0.7935
1094	0.7525
1103	0.474
1112	0.6644
1121	0.7271
1130	0.8429
1139	0.8334
1148	0.7542
1157	0.8159
1166	0.8363
1175	0.8199
1184	0.752
1193	0.7661
1202	0.8102
1211	0.8368
1220	0.8458
1229	0.828
1238	0.8498
1247	0.8552
1256	0.8596
1265	0.8483
1274	0.8405
1283	0.8336
1292	0.7968
1301	0.7803
1310	0.6893
1319	0.7162
1328	0.7098
1337	0.7672
1346	0.7549
1355	0.7064
1364	0.5907
1373	0.4721
1382	0.6373
1391	0.7646
1400	0.7496
1409	0.6748
1418	0.605
1427	0.6358
1436	0.2997
1445	0.2789
1454	0.2505
1463	0.2945
1472	0.4752
1481	0.5706
1490	0.484
1499	0.7387
1508	0.8688
1517	0.886
1526	0.9056
1535	0.8922
1544	0.887
1553	0.8916
1562	0.8839
1571	0.8518
1580	0.8478
1589	0.8055
1598	0.7987
1607	0.8882
1616	0.8992
1625	0.899
1634	0.8886
1643	0.8844
1652	0.9119
1661	0.9217
1670	0.9222
1679	0.9221
1688	0.9211
1697	0.9218
1706	0.9273
1715	0.9294
1724	0.9236
1733	0.9236
1742	0.927
1751	0.9227
1760	0.9244
1769	0.9269
1778	0.925
1787	0.9232
1796	0.9194
1805	0.9074
1814	0.913
1823	0.9252
1832	0.9325
1841	0.9367
1850	0.9284
1859	0.918
1868	0.9119
1877	0.9074
1886	0.9054
1895	0.9142
1904	0.9179
1913	0.916
1922	0.9115
1931	0.8989
1940	0.8872
1949	0.8958
1958	0.9048
1967	0.9115
1976	0.9123
1985	0.9094
1994	0.9095
2003	0.9099
2012	0.9088
2021	0.9084
2030	0.9084
2039	0.9084
2048	0.9085
2057	0.9084
2066	0.9067
2075	0.905
2084	0.9032
2093	0.9013
2102	0.8993
2111	0.8974
2120	0.8953
2129	0.8929
2138	0.8906
2147	0.8886
2156	0.8867
2165	0.8848
2174	0.8829
2183	0.8807
2192	0.8786
2201	0.8764
2210	0.8743
2219	0.8722
2228	0.8686
2237	0.8643
2246	0.8607
2255	0.8599
2264	0.8602
2273	0.8616
2282	0.8438
2291	0.8239
2300	0.81
2309	0.8008
2318	0.7952
2327	0.7901
2336	0.7867
2345	0.7867
2354	0.7856
2363	0.774
2372	0.7591
2381	0.7417
2390	0.7227
2399	0.7021
2408	0.6823
2417	0.6539
2426	0.6284
2435	0.5999
2444	0.5312
2453	0.4604
2462	0.4426
2471	0.478
2480	0.5151
2489	0.4939
2498	0.4458
2507	0.4218
2516	0.4562
2525	0.4662
2534	0.4437
2543	0.4197
2552	0.4048
2561	0.3636
2570	0.317
2579	0.2738
2588	0.2501
2597	0.2409
2606	0.2423
2615	0.2686
2624	0.3109
2633	0.3529
2642	0.3947
2651	0.4315
2660	0.4586
2669	0.4842
2678	0.5302
2687	0.5689
2696	0.5922
2705	0.6424
2714	0.672
2723	0.6741
2732	0.6744
2741	0.6716
2750	0.6582
2759	0.6349
2768	0.609
2777	0.5725
2786	0.5425
2795	0.4692
2804	0.3418
2813	0.215
2822	0.1235
2831	0.1086
2840	0.1034
2849	0.1016
2858	0.0986
2867	0.0919
2876	0.0812
2885	0.0707
2894	0.0664
2903	0.0679
2912	0.0699
2921	0.0768
2930	0.0953
2939	0.1928
2948	0.3052
2957	0.417
2966	0.4724
2975	0.4762
2984	0.4853
2993	0.5095
3002	0.5312
3011	0.5317
3020	0.5332
3029	0.5583
3038	0.5981
3047	0.6376
3056	0.6767
3065	0.6782
3074	0.6759
3083	0.6746
3092	0.6815
3101	0.6792
3110	0.676
3119	0.6723
3128	0.6682
3137	0.6652
3146	0.6625
3155	0.6583
3164	0.6493
3173	0.6333
3182	0.6209
3191	0.617
3200	0.6128
3209	0.6027
3218	0.5816
3227	0.5561
3236	0.49
3245	0.4489
3254	0.4042
3263	0.3598
3272	0.3157
3281	0.2719
3290	0.2282
3299	0.191
3308	0.2158
3317	0.3043
3326	0.3923
3335	0.4799
3344	0.5786
3353	0.6011
3362	0.6187
3371	0.6466
3380	0.6653
3389	0.678
3398	0.6947
3407	0.7099
3416	0.7187
3425	0.7233
3434	0.7279
3443	0.7304
3452	0.7307
3461	0.7301
3470	0.7295
3479	0.73
3488	0.7326
3497	0.7359
3506	0.7401
3515	0.7439
3524	0.7472
3533	0.7503
3542	0.7522
3551	0.7539
3560	0.7547
3569	0.7543
3578	0.754
3587	0.7536
3596	0.7532
3605	0.7534
3614	0.7538
3623	0.7542
3632	0.7543
3641	0.7536
3650	0.7518
3659	0.7493
3668	0.7468
3677	0.745
3686	0.7437
3695	0.7438
3704	0.7441
3713	0.7444
3722	0.7443
3731	0.7425
3740	0.7407
3749	0.7378
3758	0.7332
3767	0.7307
3776	0.729
3785	0.7276
3794	0.7262
3803	0.7248
3812	0.7235
3821	0.7225
3830	0.7215
3839	0.7204
3848	0.7193
3857	0.7184
3866	0.7173
3875	0.7161
3884	0.7149
3893	0.7137
3902	0.7125
3911	0.7113
3920	0.7102
3929	0.709
3938	0.7078
3947	0.7067
3956	0.7054
3965	0.7042
3974	0.7029
3983	0.6992
3992	0.6948
