Infrared Spectrum: 2,3,3-Trimethyl-2-pentanol
Formula: C 8 H 18 O
CAS: 23171-85-9
State: gas
Instrument: HP-GC/MS/IRD
Origin: NIST Mass Spectrometry Data Center
1/CM	ABSORBANCE
550	0.0011472
562	0.0003792
574	0.0001824
586	0.0002208
598	0.0001344
610	7.2e-05
622	0.0001344
634	0.000144
646	0.00024
658	0.0003984
670	0.000288
682	0.0001488
694	4.32e-05
706	5.76e-05
718	3.36e-05
730	5.28e-05
742	0.0001632
754	0.0002208
766	0.0004656
778	0.0006912
790	0.0008016
802	0.0006576
814	0.0004416
826	0.0004272
838	0.000696
850	0.0016128
862	0.0027408
874	0.0026976
886	0.0017136
898	0.001944
910	0.0029376
922	0.0034608
934	0.0042192
946	0.0040368
958	0.0022704
970	0.0011328
982	0.000912
994	0.0012048
1006	0.0019056
1018	0.0024384
1030	0.0022128
1042	0.0020736
1054	0.002064
1066	0.002184
1078	0.0032208
1090	0.0052848
1102	0.0070896
1114	0.0072096
1126	0.0076944
1138	0.0101328
1150	0.0122352
1162	0.010344
1174	0.0062688
1186	0.0042528
1198	0.0036048
1210	0.0032832
1222	0.0029568
1234	0.0026256
1246	0.002424
1258	0.0024048
1270	0.0025296
1282	0.003024
1294	0.0037152
1306	0.0040704
1318	0.0036336
1330	0.0029232
1342	0.0026976
1354	0.004296
1366	0.0094608
1378	0.0134208
1390	0.0096432
1402	0.004464
1414	0.0023088
1426	0.001896
1438	0.00252
1450	0.0040656
1462	0.0060672
1474	0.0063024
1486	0.003984
1498	0.0017136
1510	0.0008496
1522	0.0005904
1534	0.00048
1546	0.0003888
1558	0.0002064
1570	0.0002448
1582	0.0002352
1594	0.0002016
1606	0.000192
1618	0.000144
1630	0.000168
1642	0.000144
1654	7.2e-05
1666	0.0001056
1678	0.00012
1690	9.12e-05
1702	4.32e-05
1714	6.72e-05
1726	9.12e-05
1738	4.8e-05
1750	2.88e-05
1762	4.8e-05
1774	2.88e-05
1786	5.28e-05
1798	8.16e-05
1810	8.64e-05
1822	6.72e-05
1834	6.24e-05
1846	4.32e-05
1858	3.36e-05
1870	5.28e-05
1882	3.36e-05
1894	1.44e-05
1906	0
1918	4.8e-06
1930	2.88e-05
1942	4.8e-06
1954	2.88e-05
1966	2.88e-05
1978	4.32e-05
1990	3.84e-05
2002	5.28e-05
2014	4.32e-05
2026	5.76e-05
2038	5.76e-05
2050	3.84e-05
2062	3.36e-05
2074	3.36e-05
2086	4.8e-05
2098	2.88e-05
2110	1.44e-05
2122	2.88e-05
2134	4.32e-05
2146	6.24e-05
2158	5.76e-05
2170	5.28e-05
2182	3.84e-05
2194	3.84e-05
2206	3.84e-05
2218	3.36e-05
2230	3.84e-05
2242	4.8e-05
2254	7.2e-05
2266	4.32e-05
2278	7.68e-05
2290	9.12e-05
2302	9.12e-05
2314	8.64e-05
2326	9.6e-05
2338	0.0001056
2350	9.6e-05
2362	0.000168
2374	0.0001392
2386	0.000144
2398	0.0001392
2410	0.0001104
2422	7.2e-05
2434	6.72e-05
2446	3.36e-05
2458	5.28e-05
2470	6.24e-05
2482	5.76e-05
2494	4.8e-05
2506	5.76e-05
2518	6.72e-05
2530	8.64e-05
2542	0.0001008
2554	7.68e-05
2566	0.0001056
2578	0.0001248
2590	0.0001632
2602	0.0002016
2614	0.0002208
2626	0.0002352
2638	0.0002688
2650	0.0002496
2662	0.0002592
2674	0.0002592
2686	0.0002688
2698	0.0002784
2710	0.0003408
2722	0.000456
2734	0.0005952
2746	0.0006624
2758	0.0006528
2770	0.0007104
2782	0.000792
2794	0.000912
2806	0.0010704
2818	0.0013248
2830	0.0016464
2842	0.002232
2854	0.003336
2866	0.0057504
2878	0.010104
2890	0.0142128
2902	0.0145488
2914	0.0145152
2926	0.01776
2938	0.023328
2950	0.0266784
2962	0.032976
2974	0.0463824
2986	0.0418896
2998	0.0223968
3010	0.0095376
3022	0.0043056
3034	0.0026064
3046	0.001944
3058	0.0015456
3070	0.0012624
3082	0.0010512
3094	0.0009024
3106	0.0007968
3118	0.0006912
3130	0.0006528
3142	0.000624
3154	0.0006192
3166	0.0005952
3178	0.0005952
3190	0.0006144
3202	0.0005184
3214	0.000456
3226	0.0003936
3238	0.0003168
3250	0.0002208
3262	0.000144
3274	0.0001584
3286	0.0001584
3298	0.0001056
3310	0.0001344
3322	0.0001104
3334	0.00012
3346	0.0001344
3358	0.0001392
3370	0.0001344
3382	0.0001392
3394	0.000144
3406	0.0001392
3418	0.0001392
3430	0.0001536
3442	0.0001344
3454	0.0001488
3466	0.0001632
3478	0.0001296
3490	0.0001152
3502	0.0001056
3514	4.8e-05
3526	3.36e-05
3538	6.24e-05
3550	7.68e-05
3562	6.72e-05
3574	9.12e-05
3586	5.76e-05
3598	0.00012
3610	0.0001536
3622	0.000384
3634	0.0013632
3646	0.0024528
3658	0.001704
3670	0.0005616
3682	0.0002544
3694	0.0001488
3706	8.64e-05
3718	9.6e-05
3730	6.72e-05
3742	3.84e-05
3754	0
3766	2.4e-05
3778	6.24e-05
3790	6.24e-05
3802	3.84e-05
3814	9.6e-05
3826	0.0001056
3838	7.2e-05
