Infrared Spectrum: Butachlor
Formula: C 17 H 26 Cl N O 2
CAS: 23184-66-9
State: gas
Instrument: HP-GC/MS/IRD
Origin: NIST Mass Spectrometry Data Center
1/CM	ABSORBANCE
550	0.0022984
562	0.0010764
574	0.0011544
586	0.001014
598	0.001066
610	0.0014248
622	0.001586
634	0.0019812
646	0.0020644
658	0.0021164
670	0.001248
682	0.0010088
694	0.0013208
706	0.0010712
718	0.000312
730	9.36e-05
742	0.0004784
754	0.0015756
766	0.0031928
778	0.0044928
790	0.0059332
802	0.0070148
814	0.0046592
826	0.0021216
838	0.00117
850	0.0010712
862	0.0015132
874	0.0008112
886	0.0007072
898	0.0011544
910	0.0013884
922	0.001378
934	0.0013
946	0.001404
958	0.0018044
970	0.0020124
982	0.0024284
994	0.0033384
1006	0.0052312
1018	0.007462
1030	0.009204
1042	0.0146848
1054	0.0222456
1066	0.0308932
1078	0.035802
1090	0.0334568
1102	0.0291252
1114	0.0188188
1126	0.013598
1138	0.0089284
1150	0.0071864
1162	0.0063388
1174	0.0050128
1186	0.0038948
1198	0.0044096
1210	0.0078936
1222	0.0133328
1234	0.0153556
1246	0.0152776
1258	0.0125372
1270	0.0087776
1282	0.0072748
1294	0.0082576
1306	0.011206
1318	0.0120068
1330	0.0101972
1342	0.010062
1354	0.0158496
1366	0.018928
1378	0.0145392
1390	0.0101244
1402	0.0065832
1414	0.006656
1426	0.0088088
1438	0.0097812
1450	0.0165672
1462	0.0161824
1474	0.0096876
1486	0.0043628
1498	0.0022776
1510	0.0013884
1522	0.0009776
1534	0.0007332
1546	0.0006188
1558	0.0006344
1570	0.0008268
1582	0.0012688
1594	0.001222
1606	0.0008268
1618	0.0008996
1630	0.0013
1642	0.0020904
1654	0.0037284
1666	0.0066092
1678	0.0133328
1690	0.0317564
1702	0.052
1714	0.0328276
1726	0.0131248
1738	0.0045812
1750	0.0021112
1762	0.0013
1774	0.0008788
1786	0.000702
1798	0.0006396
1810	0.0002756
1822	0.0001872
1834	0.00013
1846	0.0001404
1858	0.000364
1870	0.0002912
1882	4.68e-05
1894	0
1906	2.08e-05
1918	0.0001612
1930	0.0005928
1942	0.0003796
1954	8.84e-05
1966	6.24e-05
1978	7.28e-05
1990	7.8e-05
2002	0.0001092
2014	0.0001352
2026	0.000182
2038	0.0002704
2050	0.0002444
2062	0.0002392
2074	0.000182
2086	0.0002184
2098	0.0001404
2110	0.0001404
2122	9.36e-05
2134	6.76e-05
2146	7.28e-05
2158	7.8e-05
2170	0.000104
2182	9.36e-05
2194	8.32e-05
2206	0.0001248
2218	7.28e-05
2230	0.0001456
2242	0.0001456
2254	0.000104
2266	9.36e-05
2278	8.84e-05
2290	0.0001196
2302	0.0001352
2314	0.0001508
2326	0.0001768
2338	0.0002236
2350	0.0002392
2362	0.000156
2374	0.0001196
2386	0.0001248
2398	0.0001248
2410	0.0001092
2422	0.0001352
2434	0.000182
2446	0.0001352
2458	0.0001196
2470	0.0001404
2482	0.0001456
2494	0.0001612
2506	0.0001716
2518	0.0001404
2530	0.0001612
2542	0.0001872
2554	0.0001508
2566	0.0001612
2578	0.00026
2590	0.00026
2602	0.00026
2614	0.000312
2626	0.0003484
2638	0.0003536
2650	0.0003328
2662	0.0003692
2674	0.0004108
2686	0.0004472
2698	0.0005252
2710	0.00065
2722	0.0007956
2734	0.0010192
2746	0.0012428
2758	0.0012064
2770	0.0013052
2782	0.0015808
2794	0.0018928
2806	0.0024388
2818	0.003068
2830	0.0038116
2842	0.0052936
2854	0.00819
2866	0.012922
2878	0.0191048
2890	0.020748
2902	0.0171392
2914	0.0189436
2926	0.0230464
2938	0.0303784
2950	0.0304928
2962	0.0294112
2974	0.0362284
2986	0.0221052
2998	0.0105144
3010	0.006422
3022	0.0056108
3034	0.0050076
3046	0.0040612
3058	0.0048932
3070	0.0067912
3082	0.0040456
3094	0.0016172
3106	0.001092
3118	0.0009256
3130	0.000858
3142	0.0008372
3154	0.0007176
3166	0.000702
3178	0.0005616
3190	0.0004836
3202	0.0002704
3214	0.0002808
3226	0.0001664
3238	0.0002236
3250	0.0001924
3262	7.8e-05
3274	0.000104
3286	0.000104
3298	0.0001508
3310	9.88e-05
3322	0.0001612
3334	0.0001716
3346	0.0002444
3358	0.0002652
3370	0.000312
3382	0.000494
3394	0.000442
3406	0.0003848
3418	0.0003224
3430	0.0002964
3442	0.000156
3454	0.0001352
3466	0.0001144
3478	0.0001196
3490	0.0001092
3502	0.0001404
3514	0.0001352
3526	0.0001404
3538	0.000104
3550	0.0001768
3562	0.0001612
3574	0.000182
3586	0.000156
3598	0.0001404
3610	0.0001404
3622	0.0001144
3634	0.0001456
3646	0.0001924
3658	0.0001144
3670	0.000182
3682	0.0002236
3694	0.000208
3706	0.000208
3718	0.0001768
3730	0.0002392
3742	0.0002236
3754	0.0001872
3766	0.00026
3778	0.0002548
3790	0.0002028
3802	0.0002236
3814	0.00026
3826	0.0002132
3838	0.0003068
