Infrared Spectrum: Allylpentyl ether
Formula: C 8 H 16 O
CAS: 23186-70-1
State: gas
Instrument: HP-GC/MS/IRD
Origin: NIST Mass Spectrometry Data Center
1/CM	ABSORBANCE
550	0.0008149
562	0.0004002
574	0.000203
586	0.0002262
598	0.0002291
610	0.0002407
622	0.000319
634	0.0002755
646	0.0003277
658	0.0001537
670	0.0001131
682	5.8e-05
694	2.61e-05
706	0.0001392
718	0.000261
730	0.0003654
742	0.0003306
754	0.0002639
766	0.0002755
778	0.0002494
790	0.000232
802	0.000145
814	0.0001247
826	0.0002291
838	0.0003567
850	0.0005539
862	0.000783
874	0.001102
886	0.0015341
898	0.0023548
910	0.0042195
922	0.006902
934	0.0055245
946	0.0036192
958	0.0031842
970	0.0034655
982	0.0043529
994	0.0051301
1006	0.0049561
1018	0.004379
1030	0.0039672
1042	0.0042427
1054	0.0060523
1066	0.0085318
1078	0.0116087
1090	0.0181888
1102	0.0245456
1114	0.0231768
1126	0.0178089
1138	0.0130384
1150	0.0090567
1162	0.0051214
1174	0.0028246
1186	0.0018502
1198	0.001566
1210	0.0016385
1222	0.0016646
1234	0.0017197
1246	0.0017487
1258	0.0019169
1270	0.0020967
1282	0.0020358
1294	0.0018908
1306	0.001624
1318	0.0015428
1330	0.0022475
1342	0.004379
1354	0.0053766
1366	0.0039005
1378	0.0030566
1390	0.0030566
1402	0.0026332
1414	0.0026477
1426	0.0030537
1438	0.0028333
1450	0.003219
1462	0.0036685
1474	0.0031639
1486	0.0018879
1498	0.0009164
1510	0.0005423
1522	0.0003741
1534	0.0003161
1546	0.0002233
1558	0.0002262
1570	0.000174
1582	0.0001334
1594	0.0001566
1606	0.0002088
1618	0.0002958
1630	0.0005046
1642	0.0008091
1654	0.0006815
1666	0.0002958
1678	0.0001189
1690	4.64e-05
1702	5.51e-05
1714	2.9e-05
1726	2.03e-05
1738	1.16e-05
1750	2.32e-05
1762	2.61e-05
1774	0
1786	2.9e-06
1798	1.16e-05
1810	4.93e-05
1822	0.0001247
1834	0.0002668
1846	0.0004988
1858	0.0004495
1870	0.000261
1882	0.0001334
1894	6.38e-05
1906	8.99e-05
1918	5.22e-05
1930	6.96e-05
1942	8.99e-05
1954	0.0001131
1966	0.0001537
1978	0.0001827
1990	0.0001856
2002	0.0001827
2014	0.0001914
2026	0.0001798
2038	0.0002117
2050	0.0001885
2062	0.0001827
2074	0.0002059
2086	0.0002001
2098	0.0001769
2110	0.0001421
2122	0.0001276
2134	8.99e-05
2146	8.12e-05
2158	5.8e-05
2170	2.9e-05
2182	3.19e-05
2194	4.64e-05
2206	5.51e-05
2218	1.74e-05
2230	2.61e-05
2242	4.06e-05
2254	3.19e-05
2266	2.9e-05
2278	4.93e-05
2290	4.64e-05
2302	4.35e-05
2314	3.48e-05
2326	4.64e-05
2338	4.93e-05
2350	4.93e-05
2362	6.96e-05
2374	5.8e-05
2386	1.45e-05
2398	3.77e-05
2410	3.48e-05
2422	4.06e-05
2434	3.77e-05
2446	6.96e-05
2458	3.19e-05
2470	6.67e-05
2482	3.19e-05
2494	2.9e-05
2506	2.32e-05
2518	4.64e-05
2530	5.22e-05
2542	7.25e-05
2554	9.86e-05
2566	0.0001363
2578	0.0001885
2590	0.0001943
2602	0.0002552
2614	0.0002552
2626	0.0002668
2638	0.0002929
2650	0.0003828
2662	0.0004727
2674	0.0006177
2686	0.0007337
2698	0.0008468
2710	0.0009483
2722	0.0010759
2734	0.0012412
2746	0.0014384
2758	0.0016878
2770	0.001943
2782	0.0022156
2794	0.0025636
2806	0.0031581
2818	0.0044312
2830	0.0069281
2842	0.0113622
2854	0.0171593
2866	0.0211236
2878	0.0204653
2890	0.0167243
2902	0.0147639
2914	0.0177277
2926	0.0237597
2938	0.0289478
2950	0.0264973
2962	0.0227389
2974	0.0178959
2986	0.0092829
2998	0.0056231
3010	0.0040919
3022	0.0035467
3034	0.0025578
3046	0.0018908
3058	0.0018154
3070	0.0021663
3082	0.0029087
3094	0.003045
3106	0.0019894
3118	0.0009947
3130	0.0006641
3142	0.0004872
3154	0.0004234
3166	0.0003915
3178	0.0003306
3190	0.0002813
3202	0.000203
3214	0.0001914
3226	0.0001914
3238	0.0001044
3250	0.0001218
3262	9.57e-05
3274	0.0001247
3286	0.0001363
3298	7.54e-05
3310	0.0001073
3322	8.41e-05
3334	0.0001334
3346	7.54e-05
3358	6.67e-05
3370	0.0001015
3382	7.54e-05
3394	0.0001189
3406	0.0001015
3418	0.0001189
3430	0.0001102
3442	6.67e-05
3454	0.0001247
3466	0.0001131
3478	0.0001363
3490	7.54e-05
3502	2.32e-05
3514	8.41e-05
3526	0.0001189
3538	9.28e-05
3550	7.25e-05
3562	5.22e-05
3574	7.83e-05
3586	6.38e-05
3598	7.83e-05
3610	8.41e-05
3622	7.83e-05
3634	8.99e-05
3646	0.000174
3658	0.0001363
3670	0.0001276
3682	0.0001595
3694	0.0001595
3706	0.0001421
3718	0.0001566
3730	0.0001015
3742	0.0001189
3754	0.0001624
3766	0.0001537
3778	0.0001798
3790	0.0001972
3802	0.0001305
3814	0.0001943
3826	0.0001653
3838	0.0001566
