Infrared Spectrum: Pyridine-3,5-dicarboxylic acid, 1,4-dihydro-2,6-dimethyl-4-(o-trifluoromethylphenyl)-, diethyl ester
Formula: C20 H22 F3 N O4
CAS: 23191-75-5
State: SOLID (OIL MULL)
Class: COBLENTZ III
Instrument: PERKIN-ELMER 21 (GRATING)
Instrument parameters: NaCl PRISM
Sampling: TRANSMISSION
Resolution: 2
Origin: SMITH KLINE & FRENCH LABS.
1/CM	TRANSMITTANCE
671	0.7383
680	0.6918
689	0.5288
698	0.6871
707	0.807
716	0.822
725	0.8388
734	0.8459
743	0.7765
752	0.6281
761	0.3287
770	0.8286
779	0.7702
788	0.8857
797	0.8673
806	0.9081
815	0.9106
824	0.8637
833	0.7566
842	0.8694
851	0.889
860	0.9022
869	0.8607
878	0.9075
887	0.9077
896	0.9063
905	0.8998
914	0.8982
923	0.8904
932	0.8789
941	0.8681
950	0.816
959	0.8466
968	0.8304
977	0.8269
986	0.8117
995	0.7697
1004	0.702
1013	0.4633
1022	0.5493
1031	0.4366
1040	0.6505
1049	0.5244
1058	0.6896
1067	0.6849
1076	0.5713
1085	0.1864
1094	0.1881
1103	0.1941
1112	0.0932
1121	0.4459
1130	0.3259
1139	0.523
1148	0.5106
1157	0.4857
1166	0.4599
1175	0.566
1184	0.6095
1193	0.3434
1202	0.0477
1211	0.2837
1220	0.5726
1229	0.6609
1238	0.6442
1247	0.7068
1256	0.5802
1265	0.2701
1274	0.2621
1283	0.3211
1292	0.0921
1301	0.1335
1310	0.4238
1319	0.692
1328	0.7006
1337	0.6359
1346	0.6863
1355	0.5208
1364	0.3554
1373	0.3154
1382	0.4195
1391	0.7082
1400	0.712
1409	0.6466
1418	0.5389
1427	0.4601
1436	0.3453
1445	0.1866
1454	0.1607
1463	0.2974
1472	0.3128
1481	0.1332
1490	0.3446
1499	0.6808
1508	0.7868
1517	0.8246
1526	0.8434
1535	0.8523
1544	0.85
1553	0.8356
1562	0.8024
1571	0.7494
1580	0.7288
1589	0.573
1598	0.3063
1607	0.4098
1616	0.5792
1625	0.4896
1634	0.4725
1643	0.6172
1652	0.5388
1661	0.2949
1670	0.5002
1679	0.3933
1688	0.431
1697	0.7483
1706	0.8302
1715	0.8819
1724	0.8985
1733	0.9102
1742	0.92
1751	0.9292
1760	0.9359
1769	0.9378
1778	0.9385
1787	0.9382
1796	0.9385
1805	0.9387
1814	0.939
1823	0.9396
1832	0.9376
1841	0.9331
1850	0.9309
1859	0.9305
1868	0.9305
1877	0.9307
1886	0.9308
1895	0.9308
1904	0.9309
1913	0.931
1922	0.9312
1931	0.9312
1940	0.9308
1949	0.9304
1958	0.9301
1967	0.9301
1976	0.9301
1985	0.9305
1994	0.9312
2003	0.9323
2012	0.9333
2021	0.9319
2030	0.9296
2039	0.9273
2048	0.9261
2057	0.9262
2066	0.9271
2075	0.9283
2084	0.9291
2093	0.9291
2102	0.9285
2111	0.9276
2120	0.9263
2129	0.9254
2138	0.925
2147	0.9266
2156	0.9283
2165	0.9269
2174	0.9221
2183	0.9194
2192	0.919
2201	0.9186
2210	0.9182
2219	0.9178
2228	0.9178
2237	0.918
2246	0.9182
2255	0.9182
2264	0.9182
2273	0.9182
2282	0.918
2291	0.9178
2300	0.9175
2309	0.9171
2318	0.9166
2327	0.916
2336	0.9146
2345	0.9124
2354	0.9101
2363	0.9085
2372	0.9078
2381	0.9074
2390	0.9072
2399	0.9067
2408	0.9054
2417	0.9041
2426	0.9023
2435	0.9004
2444	0.8984
2453	0.8967
2462	0.8953
2471	0.8931
2480	0.8904
2489	0.8864
2498	0.8816
2507	0.877
2516	0.8726
2525	0.87
2534	0.8675
2543	0.8648
2552	0.8621
2561	0.8606
2570	0.8595
2579	0.8588
2588	0.8581
2597	0.8575
2606	0.8562
2615	0.8549
2624	0.8531
2633	0.851
2642	0.849
2651	0.8471
2660	0.8444
2669	0.8408
2678	0.8363
2687	0.8301
2696	0.8198
2705	0.801
2714	0.7778
2723	0.7532
2732	0.714
2741	0.6627
2750	0.6372
2759	0.5944
2768	0.5105
2777	0.3674
2786	0.1938
2795	0.1809
2804	0.1785
2813	0.1767
2822	0.1741
2831	0.1549
2840	0.1387
2849	0.1334
2858	0.1325
2867	0.1344
2876	0.1509
2885	0.2087
2894	0.257
2903	0.3299
2912	0.4323
2921	0.5372
2930	0.6221
2939	0.7279
2948	0.7676
2957	0.7831
2966	0.7885
2975	0.7897
2984	0.7908
2993	0.7927
3002	0.7992
3011	0.8084
3020	0.8127
3029	0.8145
3038	0.8152
3047	0.8155
3056	0.815
3065	0.8133
3074	0.8095
3083	0.8033
3092	0.795
3101	0.7848
3110	0.7741
3119	0.7652
3128	0.7593
3137	0.7541
3146	0.7483
3155	0.7395
3164	0.7202
3173	0.6937
3182	0.6675
3191	0.6413
3200	0.6153
3209	0.5894
3218	0.5637
3227	0.5382
3236	0.5222
3245	0.5189
3254	0.5211
3263	0.5797
3272	0.6473
3281	0.7145
3290	0.82
3299	0.8374
3308	0.8481
3317	0.8541
3326	0.8596
3335	0.8643
3344	0.8685
3353	0.8725
3362	0.8752
3371	0.8777
3380	0.8799
3389	0.8821
3398	0.8837
3407	0.8848
3416	0.885
3425	0.8838
3434	0.8823
3443	0.8815
3452	0.8817
3461	0.8822
3470	0.8833
3479	0.8845
3488	0.8858
3497	0.8872
3506	0.8889
3515	0.8905
3524	0.8911
3533	0.8911
3542	0.8905
3551	0.8897
3560	0.8885
3569	0.8871
3578	0.8858
3587	0.8844
3596	0.8831
3605	0.8817
3614	0.8804
3623	0.8789
3632	0.8775
3641	0.8761
3650	0.8748
3659	0.8738
3668	0.8728
3677	0.8717
3686	0.8707
3695	0.87
3704	0.8704
3713	0.8706
3722	0.8709
3731	0.8711
3740	0.8715
3749	0.8717
3758	0.8708
3767	0.8693
3776	0.8687
3785	0.8688
3794	0.8689
3803	0.869
3812	0.8692
3821	0.8693
3830	0.869
3839	0.868
3848	0.8669
3857	0.8656
3866	0.8638
3875	0.8619
3884	0.8601
3893	0.8585
3902	0.8571
3911	0.8558
3920	0.8544
3929	0.853
3938	0.8523
3947	0.8517
3956	0.8511
3965	0.8507
3974	0.8503
3983	0.85
3992	0.8496
