Infrared Spectrum: 3,5-Dimethyl cyclohexanone
Formula: C 8 H 14 O
CAS: 2320-30-1
State: gas
Instrument: HP-GC/MS/IRD
Origin: NIST Mass Spectrometry Data Center
1/CM	ABSORBANCE
550	0.0001472
562	3.22e-05
574	5.06e-05
586	1.84e-05
598	0.0001127
610	5.75e-05
622	8.97e-05
634	9.2e-05
646	2.99e-05
658	5.06e-05
670	7.82e-05
682	9.89e-05
694	5.98e-05
706	0.0001587
718	0.0002829
730	0.0003105
742	0.0002024
754	0.0002829
766	0.0004209
778	0.0004071
790	0.00023
802	0.0001081
814	8.05e-05
826	0.0001587
838	0.0001702
850	0.0001311
862	0.0001403
874	0.0003473
886	0.0004301
898	0.000299
910	0.000299
922	0.0005658
934	0.0007383
946	0.0006256
958	0.0005037
970	0.0003427
982	0.0001656
994	0.0001357
1006	0.0001449
1018	0.0002024
1030	0.000276
1042	0.0004324
1054	0.0006693
1066	0.001334
1078	0.0015893
1090	0.0008556
1102	0.0003864
1114	0.0003818
1126	0.0004623
1138	0.000759
1150	0.0012121
1162	0.001426
1174	0.0011891
1186	0.0009683
1198	0.0014536
1210	0.0032292
1222	0.0044482
1234	0.0031993
1246	0.0015985
1258	0.001426
1270	0.0016353
1282	0.002507
1294	0.0029233
1306	0.0024932
1318	0.0021827
1330	0.0013938
1342	0.0015916
1354	0.0018791
1366	0.0019964
1378	0.0021827
1390	0.0019366
1402	0.0014858
1414	0.0018262
1426	0.0026703
1438	0.0026864
1450	0.0027301
1462	0.0032844
1474	0.0026588
1486	0.0013202
1498	0.0004554
1510	0.0002346
1522	0.0002047
1534	0.0001909
1546	0.0002162
1558	0.0001886
1570	0.0001679
1582	0.0001817
1594	0.0001817
1606	0.0002047
1618	0.0002645
1630	0.0003427
1642	0.0004945
1654	0.0006785
1666	0.0008671
1678	0.0012098
1690	0.0020332
1702	0.0045908
1714	0.0119623
1726	0.0206218
1738	0.0194741
1750	0.0097934
1762	0.0031602
1774	0.0013754
1786	0.0008096
1798	0.0005589
1810	0.0004577
1822	0.0003473
1834	0.000299
1846	0.0002346
1858	0.000184
1870	0.0001357
1882	0.0001288
1894	0.0001357
1906	0.0001288
1918	0.0001058
1930	8.51e-05
1942	7.13e-05
1954	9.2e-05
1966	5.75e-05
1978	5.75e-05
1990	8.28e-05
2002	6.44e-05
2014	6.9e-05
2026	7.59e-05
2038	6.44e-05
2050	5.98e-05
2062	6.44e-05
2074	6.21e-05
2086	8.05e-05
2098	8.74e-05
2110	6.44e-05
2122	7.59e-05
2134	5.29e-05
2146	5.75e-05
2158	5.29e-05
2170	4.6e-05
2182	5.06e-05
2194	6.44e-05
2206	3.45e-05
2218	2.99e-05
2230	1.61e-05
2242	3.68e-05
2254	3.91e-05
2266	3.91e-05
2278	4.83e-05
2290	4.6e-05
2302	4.14e-05
2314	3.22e-05
2326	2.3e-05
2338	2.99e-05
2350	4.14e-05
2362	3.91e-05
2374	4.83e-05
2386	5.06e-05
2398	1.38e-05
2410	1.84e-05
2422	2.76e-05
2434	1.15e-05
2446	1.61e-05
2458	3.91e-05
2470	2.76e-05
2482	3.91e-05
2494	3.68e-05
2506	2.76e-05
2518	4.14e-05
2530	3.22e-05
2542	2.53e-05
2554	3.68e-05
2566	2.99e-05
2578	5.52e-05
2590	1.84e-05
2602	5.75e-05
2614	5.06e-05
2626	8.74e-05
2638	0.0001081
2650	0.0001242
2662	0.0001495
2674	0.0001932
2686	0.0001909
2698	0.0001403
2710	0.0001242
2722	0.0002047
2734	0.0002346
2746	0.00023
2758	0.0002116
2770	0.0002921
2782	0.0003381
2794	0.0004186
2806	0.0005704
2818	0.0008763
2830	0.0014743
2842	0.0024449
2854	0.0037352
2866	0.0050324
2878	0.007084
2890	0.0083122
2902	0.0089056
2914	0.0102534
2926	0.0120635
2938	0.0151524
2950	0.0200077
2962	0.023
2974	0.0156722
2986	0.0055453
2998	0.001449
3010	0.0007314
3022	0.000506
3034	0.0004232
3046	0.000322
3058	0.0002944
3070	0.0002645
3082	0.0002484
3094	0.0002185
3106	0.0001955
3118	0.000138
3130	0.0001495
3142	0.0001748
3154	0.0001702
3166	0.0001794
3178	0.0001472
3190	0.0001587
3202	0.0001656
3214	0.0001702
3226	0.000161
3238	0.0001012
3250	5.52e-05
3262	7.59e-05
3274	6.67e-05
3286	4.14e-05
3298	4.14e-05
3310	4.83e-05
3322	3.22e-05
3334	4.37e-05
3346	7.13e-05
3358	7.59e-05
3370	8.05e-05
3382	0.0001265
3394	0.0001104
3406	0.0001863
3418	0.000253
3430	0.0003588
3442	0.0004255
3454	0.000368
3466	0.000207
3478	0.0001495
3490	0.0001311
3502	0.0001035
3514	8.97e-05
3526	7.59e-05
3538	3.91e-05
3550	4.6e-05
3562	4.6e-05
3574	3.91e-05
3586	3.22e-05
3598	3.91e-05
3610	2.99e-05
3622	6.9e-05
3634	5.29e-05
3646	5.98e-05
3658	5.98e-05
3670	2.07e-05
3682	6.44e-05
3694	8.97e-05
3706	7.13e-05
3718	1.61e-05
3730	3.22e-05
3742	5.98e-05
3754	8.28e-05
3766	5.75e-05
3778	5.98e-05
3790	7.82e-05
3802	0.0001012
3814	0.0001035
3826	5.29e-05
3838	5.98e-05
