Infrared Spectrum: N-BENZYL-N'-(Beta-HYDROXYETHYL) HOMOPIPERAZINE
Formula: C14 H22 N2 O
CAS: 23207-69-4
State: LIQUID
Class: COBLENTZ
Instrument: PERKIN-ELMER
Sampling: TRANSMISSION
Path length: 0.00125 CM
Resolution: 4
Origin: ABBOTT LABORATORIES - WASHBURN
MICROMETERS	TRANSMITTANCE
2.025	0.922
2.05917	0.922
2.09334	0.926
2.1275	0.927
2.16167	0.931
2.19584	0.934
2.23001	0.9377
2.26418	0.941
2.29834	0.946
2.33251	0.9453
2.36668	0.9383
2.40085	0.9328
2.43502	0.931
2.46918	0.9315
2.50335	0.9251
2.53752	0.915
2.57169	0.915
2.60585	0.9206
2.64002	0.924
2.67419	0.9295
2.70836	0.936
2.74253	0.938
2.77669	0.9318
2.81086	0.9116
2.84503	0.8792
2.8792	0.7992
2.91337	0.6434
2.94753	0.5303
2.9817	0.4603
3.01587	0.434
3.05004	0.4436
3.08421	0.4666
3.11837	0.4882
3.15254	0.5079
3.18671	0.5206
3.22088	0.5408
3.25505	0.5632
3.28921	0.5603
3.32338	0.548
3.35755	0.5351
3.39172	0.577
3.42589	0.4562
3.46005	0.169
3.49422	0.14
3.52839	0.147
3.56256	0.147
3.59673	0.128
3.63089	0.1139
3.66506	0.1522
3.69923	0.2342
3.7334	0.3764
3.76756	0.4577
3.80173	0.5417
3.8359	0.6377
3.87007	0.7207
3.90424	0.7554
3.9384	0.7907
3.97257	0.814
4.00674	0.8326
4.04091	0.8375
4.07508	0.848
4.10924	0.8556
4.14341	0.8632
4.17758	0.871
4.21175	0.8715
4.24592	0.872
4.28008	0.874
4.31425	0.878
4.34842	0.878
4.38259	0.878
4.41676	0.8716
4.45092	0.867
4.48509	0.865
4.51926	0.8616
4.55343	0.857
4.5876	0.857
4.62176	0.853
4.65593	0.853
4.6901	0.853
4.72427	0.8482
4.75844	0.8454
4.7926	0.84
4.82677	0.84
4.86094	0.836
4.89511	0.835
4.92927	0.835
4.96344	0.836
4.99761	0.836
5.03178	0.835
5.06595	0.8246
5.10011	0.824
5.13428	0.8107
5.16845	0.7938
5.20262	0.7955
5.23679	0.8146
5.27095	0.819
5.30512	0.8196
5.33929	0.8081
5.37346	0.793
5.40763	0.8005
5.44179	0.814
5.47596	0.816
5.51013	0.8076
5.5443	0.7924
5.57847	0.7942
5.61263	0.8109
5.6468	0.817
5.68097	0.816
5.71514	0.8106
5.74931	0.807
5.78347	0.81
5.81764	0.814
5.85181	0.812
5.88598	0.814
5.92015	0.812
5.95431	0.8044
5.98848	0.7988
6.02265	0.7911
6.05682	0.7803
6.09098	0.776
6.12515	0.776
6.15932	0.7773
6.19349	0.778
6.22766	0.7698
6.26182	0.7132
6.29599	0.7233
6.33016	0.743
6.36433	0.7558
6.3985	0.769
6.43266	0.771
6.46683	0.773
6.501	0.773
6.53517	0.771
6.56934	0.771
6.6035	0.7684
6.63767	0.761
6.67184	0.7397
6.70601	0.6035
6.74018	0.4305
6.77434	0.5474
6.80851	0.4802
6.84268	0.3712
6.87685	0.2884
6.91102	0.2211
6.94518	0.2364
6.97935	0.3045
7.01352	0.3553
7.04769	0.417
7.08186	0.4676
7.11602	0.4826
7.15019	0.4621
7.18436	0.448
7.21853	0.446
7.25269	0.446
7.28686	0.4327
7.32103	0.3707
7.3552	0.3155
7.38937	0.2583
7.42353	0.2078
7.4577	0.2207
7.49187	0.2952
7.52604	0.34
7.56021	0.3233
7.59437	0.3183
7.62854	0.3298
7.66271	0.3462
7.69688	0.3683
7.73105	0.4043
7.76521	0.4345
7.79938	0.4549
7.83355	0.4858
7.86772	0.493
7.90189	0.493
7.93605	0.4916
7.97022	0.486
8.00439	0.482
8.03856	0.4852
8.07273	0.4949
8.10689	0.5043
8.14106	0.5126
8.17523	0.525
8.2094	0.5344
8.24357	0.544
8.27773	0.544
8.3119	0.5363
8.34607	0.537
8.38024	0.565
8.4144	0.6036
8.44857	0.611
8.48274	0.5805
8.51691	0.5267
8.55108	0.4493
8.58524	0.4023
8.61941	0.383
8.65358	0.4062
8.68775	0.4385
8.72192	0.4787
8.75608	0.5219
8.79025	0.5143
8.82442	0.4396
8.85859	0.3527
8.89276	0.2713
8.92692	0.212
8.96109	0.19
8.99526	0.1957
9.02943	0.2334
9.0636	0.2869
9.09776	0.3229
9.13193	0.3443
9.1661	0.3638
9.20027	0.3641
9.23444	0.3382
9.2686	0.283
9.30277	0.2398
9.33694	0.2106
9.37111	0.1832
9.40528	0.1481
9.43944	0.136
9.47361	0.127
9.50778	0.1167
9.54195	0.109
9.57611	0.115
9.61028	0.134
9.64445	0.1725
9.67862	0.2199
9.71279	0.2507
9.74695	0.2237
9.78112	0.2924
9.81529	0.4052
9.84946	0.4668
9.88363	0.5011
9.91779	0.5353
9.95196	0.553
9.98613	0.5655
10.0203	0.585
10.0545	0.5932
10.0886	0.5982
10.1228	0.597
10.157	0.5863
10.1911	0.5695
10.2253	0.5548
10.2595	0.553
10.2936	0.5565
10.3278	0.5677
10.362	0.58
10.3961	0.5862
10.4303	0.587
10.4645	0.5688
10.4986	0.5466
10.5328	0.542
10.567	0.548
10.6012	0.5668
10.6353	0.579
10.6695	0.582
10.7037	0.579
10.7378	0.5617
10.772	0.539
10.8062	0.5158
10.8403	0.515
10.8745	0.52
10.9087	0.5246
10.9428	0.522
10.977	0.506
11.0112	0.5
11.0453	0.496
11.0795	0.5097
11.1137	0.5401
11.1478	0.567
11.182	0.5834
11.2162	0.599
11.2503	0.6113
11.2845	0.623
11.3187	0.634
11.3528	0.634
11.387	0.6243
11.4212	0.6048
11.4554	0.5853
11.4895	0.582
11.5237	0.5909
11.5579	0.605
11.592	0.6194
11.6262	0.6375
11.6604	0.6493
11.6945	0.6552
11.7287	0.659
11.7629	0.6603
11.797	0.6624
11.8312	0.67
11.8654	0.6772
11.8995	0.6855
11.9337	0.6896
11.9679	0.695
12.002	0.6976
12.0362	0.6978
12.0704	0.6902
12.1045	0.6788
12.1387	0.6667
12.1729	0.6497
12.207	0.637
12.2412	0.634
12.2754	0.6274
12.3096	0.625
12.3437	0.6237
12.3779	0.616
12.4121	0.616
12.4462	0.616
12.4804	0.618
12.5146	0.618
12.5487	0.616
12.5829	0.6157
12.6171	0.6136
12.6512	0.6091
12.6854	0.5952
12.7196	0.5758
12.7537	0.5611
12.7879	0.5593
12.8221	0.5607
12.8562	0.5705
12.8904	0.5874
12.9246	0.604
12.9587	0.606
12.9929	0.606
13.0271	0.609
13.0612	0.6123
13.0954	0.611
13.1296	0.6098
13.1637	0.5908
13.1979	0.5626
13.2321	0.5201
13.2663	0.4656
13.3004	0.4161
13.3346	0.3628
13.3688	0.3163
13.4029	0.2803
13.4371	0.2536
13.4713	0.2236
13.5054	0.2078
13.5396	0.1998
13.5738	0.194
13.6079	0.19
13.6421	0.2017
13.6763	0.2179
13.7104	0.243
13.7446	0.2665
13.7788	0.2969
13.8129	0.318
13.8471	0.3254
13.8813	0.3494
13.9154	0.3694
13.9496	0.3821
13.9838	0.395
14.0179	0.403
14.0521	0.4091
14.0863	0.415
14.1205	0.4128
14.1546	0.4024
14.1888	0.3758
14.223	0.3189
14.2571	0.2674
14.2913	0.212
14.3255	0.1428
14.3596	0.1206
14.3938	0.111
14.428	0.1751
14.4621	0.312
14.4963	0.3987
14.5305	0.4808
14.5646	0.5117
14.5988	0.5345
14.633	0.561
14.6671	0.5691
14.7013	0.5726
14.7355	0.5762
14.7696	0.58
14.8038	0.584
14.838	0.582
14.8721	0.582
14.9063	0.5808
14.9405	0.5778
14.9746	0.5707
15.0088	0.5676
15.043	0.573
15.0772	0.5689
15.1113	0.563
15.1455	0.563
15.1797	0.563
15.2138	0.5637
15.248	0.554
15.2822	0.549
15.3163	0.5468
15.3505	0.5378
15.3847	0.53
15.4188	0.525
