Infrared Spectrum: URACIL, 6-METHYL-5-(PIPERIDINOMETHYL)-
Formula: C11 H17 N3 O2
CAS: 23213-34-5
State: SOLID (KBr DISC)
Class: COBLENTZ III
Instrument: PERKIN-ELMER 21 (GRATING)
Instrument parameters: FILTER CHANGE ABOUT 1085 CM^-^1
Sampling: TRANSMISSION
Resolution: 4
Origin: SOUTHERN RESEARCH INSTITUTE
1/CM	TRANSMITTANCE
602.408	0.669
610.736	0.6691
619.064	0.6672
627.391	0.6688
635.719	0.6757
644.047	0.68
652.375	0.6926
660.703	0.703
669.03	0.7017
677.358	0.6965
685.686	0.6867
694.014	0.6809
702.342	0.6679
710.67	0.6256
718.997	0.5688
727.325	0.5132
735.653	0.4197
743.981	0.4444
752.309	0.5933
760.636	0.5505
768.964	0.5736
777.292	0.598
785.62	0.5433
793.948	0.5722
802.275	0.706
810.603	0.709
818.931	0.7073
827.259	0.7026
835.587	0.743
843.915	0.741
852.242	0.7275
860.57	0.6724
868.898	0.5897
877.226	0.752
885.554	0.7484
893.881	0.7227
902.209	0.7191
910.537	0.7329
918.865	0.731
927.193	0.7166
935.52	0.6909
943.848	0.6574
952.176	0.6493
960.504	0.6619
968.832	0.6767
977.16	0.6887
985.487	0.6696
993.815	0.4231
1002.14	0.632
1010.47	0.698
1018.8	0.6784
1027.13	0.6414
1035.45	0.4858
1043.78	0.6006
1052.11	0.5413
1060.44	0.743
1068.77	0.7252
1077.09	0.7277
1085.42	0.721
1093.75	0.6049
1102.08	0.6063
1110.4	0.531
1118.73	0.3407
1127.06	0.5666
1135.39	0.7285
1143.72	0.736
1152.04	0.6918
1160.37	0.6786
1168.7	0.737
1177.03	0.739
1185.35	0.7332
1193.68	0.6919
1202.01	0.6431
1210.34	0.511
1218.67	0.5859
1226.99	0.616
1235.32	0.5901
1243.65	0.739
1251.98	0.6676
1260.31	0.5282
1268.63	0.6961
1276.96	0.6399
1285.29	0.6422
1293.62	0.6658
1301.94	0.5679
1310.27	0.4946
1318.6	0.5863
1326.93	0.463
1335.26	0.4342
1343.58	0.6315
1351.91	0.5643
1360.24	0.6442
1368.57	0.6645
1376.89	0.5555
1385.22	0.5986
1393.55	0.6174
1401.88	0.6125
1410.21	0.5569
1418.53	0.5333
1426.86	0.3988
1435.19	0.3352
1443.52	0.2167
1451.84	0.2214
1460.17	0.2466
1468.5	0.3398
1476.83	0.4068
1485.16	0.5996
1493.48	0.5921
1501.81	0.5467
1510.14	0.4537
1518.47	0.4469
1526.8	0.5694
1535.12	0.6016
1543.45	0.603
1551.78	0.5941
1560.11	0.582
1568.43	0.588
1576.76	0.5852
1585.09	0.573
1593.42	0.518
1601.75	0.4742
1610.07	0.3932
1618.4	0.324
1626.73	0.2628
1635.06	0.1692
1643.38	0.09
1651.71	0.0877
1660.04	0.1348
1668.37	0.1975
1676.7	0.3498
1685.02	0.4371
1693.35	0.498
1701.68	0.4805
1710.01	0.4407
1718.33	0.425
1726.66	0.2519
1734.99	0.1307
1743.32	0.1463
1751.65	0.1721
1759.97	0.2139
1768.3	0.3643
1776.63	0.46
1784.96	0.5906
1793.29	0.6444
1801.61	0.679
1809.94	0.695
1818.27	0.7002
1826.6	0.714
1834.92	0.7295
1843.25	0.6916
1851.58	0.7079
1859.91	0.715
1868.24	0.717
1876.56	0.7305
1884.89	0.7236
1893.22	0.7213
1901.55	0.7222
1909.87	0.727
1918.2	0.7289
1926.53	0.726
1934.86	0.7309
1943.19	0.7276
1951.51	0.7307
1959.84	0.7363
1968.17	0.737
1976.5	0.74
1984.82	0.729
1993.15	0.7403
2001.48	0.7435
2009.81	0.7367
2018.14	0.7468
2026.46	0.7432
2034.79	0.7472
2043.12	0.748
2051.45	0.7505
2059.77	0.741
2068.1	0.734
2076.43	0.744
2084.76	0.748
2093.09	0.741
2101.41	0.7425
2109.74	0.7445
2118.07	0.748
2126.4	0.749
2134.73	0.7488
2143.05	0.741
2151.38	0.7395
2159.71	0.748
2168.04	0.748
2176.36	0.741
2184.69	0.7438
2193.02	0.741
2201.35	0.7368
2209.68	0.7308
2218	0.7308
2226.33	0.7255
2234.66	0.7158
2242.99	0.7192
2251.31	0.7148
2259.64	0.721
2267.97	0.711
2276.3	0.71
2284.63	0.708
2292.95	0.7038
2301.28	0.7
2309.61	0.6958
2317.94	0.694
2326.26	0.6908
2334.59	0.685
2342.92	0.6818
2351.25	0.676
2359.58	0.671
2367.9	0.6678
2376.23	0.6648
2384.56	0.6618
2392.89	0.651
2401.22	0.6355
2409.54	0.617
2417.87	0.622
2426.2	0.6118
2434.53	0.606
2442.85	0.602
2451.18	0.5978
2459.51	0.5962
2467.84	0.5945
2476.17	0.5768
2484.49	0.572
2492.82	0.5685
2501.15	0.5595
2509.48	0.5495
2517.8	0.5415
2526.13	0.5455
2534.46	0.538
2542.79	0.532
2551.12	0.532
2559.44	0.517
2567.77	0.5062
2576.1	0.5095
2584.43	0.4903
2592.75	0.489
2601.08	0.4718
2609.41	0.4697
2617.74	0.4675
2626.07	0.4583
2634.39	0.449
2642.72	0.448
2651.05	0.448
2659.38	0.442
2667.71	0.4313
2676.03	0.4198
2684.36	0.41
2692.69	0.415
2701.02	0.419
2709.34	0.4055
2717.67	0.4062
2726	0.407
2734.33	0.407
2742.66	0.4063
2750.98	0.3828
2759.31	0.3665
2767.64	0.3692
2775.97	0.3832
2784.29	0.3907
2792.62	0.4152
2800.95	0.43
2809.28	0.433
2817.61	0.428
2825.93	0.4244
2834.26	0.449
2842.59	0.454
2850.92	0.4718
2859.24	0.4458
2867.57	0.4545
2875.9	0.48
2884.23	0.482
2892.56	0.4788
2900.88	0.4598
2909.21	0.4341
2917.54	0.388
2925.87	0.3381
2934.2	0.3088
2942.52	0.301
2950.85	0.297
2959.18	0.3052
2967.51	0.3445
2975.83	0.4367
2984.16	0.4622
2992.49	0.4782
3000.82	0.487
3009.15	0.4925
3017.47	0.5005
3025.8	0.5105
3034.13	0.5162
3042.46	0.5445
3050.78	0.5382
3059.11	0.5462
3067.44	0.5528
3075.77	0.548
3084.1	0.5562
3092.42	0.5555
3100.75	0.5415
3109.08	0.517
3117.41	0.518
3125.73	0.4938
3134.06	0.4972
3142.39	0.485
3150.72	0.4598
3159.05	0.4675
3167.37	0.4675
3175.7	0.4498
3184.03	0.429
3192.36	0.4028
3200.69	0.3765
3209.01	0.3595
3217.34	0.3435
3225.67	0.3228
3234	0.3158
3242.32	0.3098
3250.65	0.3018
3258.98	0.2905
3267.31	0.2743
3275.64	0.2615
3283.96	0.255
3292.29	0.2552
3300.62	0.269
3308.95	0.3409
3317.27	0.404
3325.6	0.4422
3333.93	0.4709
3342.26	0.4995
3350.59	0.5185
3358.91	0.5262
3367.24	0.5515
3375.57	0.5478
3383.9	0.5438
3392.22	0.538
3400.55	0.533
3408.88	0.5328
3417.21	0.524
3425.54	0.517
3433.86	0.518
3442.19	0.519
3450.52	0.5188
3458.85	0.5132
3467.18	0.521
3475.5	0.524
3483.83	0.5302
3492.16	0.531
3500.49	0.532
3508.81	0.5332
3517.14	0.546
3525.47	0.552
3533.8	0.5545
3542.13	0.559
3550.45	0.547
3558.78	0.5545
3567.11	0.56
3575.44	0.5667
3583.76	0.5822
3592.09	0.5972
3600.42	0.5998
3608.75	0.6
3617.08	0.5998
3625.4	0.595
3633.73	0.599
3642.06	0.6
3650.39	0.609
3658.71	0.6212
3667.04	0.6265
3675.37	0.6302
3683.7	0.632
3692.03	0.629
3700.35	0.6312
3708.68	0.637
3717.01	0.63
3725.34	0.629
3733.67	0.63
3741.99	0.632
3750.32	0.631
3758.65	0.6345
3766.98	0.6395
3775.3	0.644
3783.63	0.6452
3791.96	0.646
3800.29	0.646
3808.62	0.6448
3816.94	0.6403
3825.27	0.6308
3833.6	0.6275
3841.93	0.629
3850.25	0.6312
3858.58	0.6298
3866.91	0.6205
3875.24	0.6212
3883.57	0.629
3891.89	0.631
3900.22	0.6312
