Infrared Spectrum: 2-Thenylamine, N-methyl-N-2-propynyl-,
Formula: C9 H11 N S
CAS: 2322-00-1
State: LIQUID (NEAT)
Class: COBLENTZ III
Instrument: PERKIN-ELMER 21 (GRATING)
Instrument parameters: FILTER AT ABOUT 10 MICRONS
Path length: CAPILLARY
Resolution: 2
Origin: ABBOTT LABORATORIES
1/CM	TRANSMITTANCE
667	0.1958
676	0.2256
685	0.1907
694	0.0497
703	0.039
712	0.098
721	0.3238
730	0.4929
739	0.6364
748	0.6222
757	0.6581
766	0.7682
775	0.8085
784	0.8231
793	0.8184
802	0.7804
811	0.6075
820	0.3101
829	0.545
838	0.4222
847	0.261
856	0.1648
865	0.732
874	0.7938
883	0.7681
892	0.6245
901	0.4697
910	0.5785
919	0.7688
928	0.8037
937	0.7782
946	0.6907
955	0.7336
964	0.6988
973	0.5518
982	0.5261
991	0.7288
1000	0.7361
1009	0.7329
1018	0.4303
1027	0.0941
1036	0.1403
1045	0.4488
1054	0.735
1063	0.7836
1072	0.7652
1081	0.6999
1090	0.774
1099	0.672
1108	0.5335
1117	0.2706
1126	0.2281
1135	0.3505
1144	0.5943
1153	0.6701
1162	0.649
1171	0.5529
1180	0.6692
1189	0.582
1198	0.4871
1207	0.6439
1216	0.62
1225	0.416
1234	0.5269
1243	0.6094
1252	0.6163
1261	0.5201
1270	0.4465
1279	0.3884
1288	0.4745
1297	0.5631
1306	0.4789
1315	0.4824
1324	0.4626
1333	0.2161
1342	0.3799
1351	0.3533
1360	0.3356
1369	0.2631
1378	0.3465
1387	0.6009
1396	0.7193
1405	0.7215
1414	0.691
1423	0.4812
1432	0.4319
1441	0.3471
1450	0.2482
1459	0.2985
1468	0.3459
1477	0.5281
1486	0.7407
1495	0.8017
1504	0.8228
1513	0.8252
1522	0.8235
1531	0.8172
1540	0.8086
1549	0.8017
1558	0.828
1567	0.8556
1576	0.8607
1585	0.8586
1594	0.8458
1603	0.8314
1612	0.8223
1621	0.8401
1630	0.849
1639	0.8507
1648	0.8512
1657	0.8525
1666	0.8543
1675	0.8569
1684	0.8597
1693	0.8629
1702	0.868
1711	0.8574
1720	0.8456
1729	0.854
1738	0.8728
1747	0.8849
1756	0.8861
1765	0.8945
1774	0.8942
1783	0.887
1792	0.8733
1801	0.8527
1810	0.8535
1819	0.8782
1828	0.8915
1837	0.9027
1846	0.8992
1855	0.8992
1864	0.9002
1873	0.9017
1882	0.9031
1891	0.905
1900	0.9072
1909	0.9103
1918	0.912
1927	0.9084
1936	0.9053
1945	0.9038
1954	0.9034
1963	0.9038
1972	0.9042
1981	0.9061
1990	0.9086
1999	0.9077
2008	0.9059
2017	0.9075
2026	0.9126
2035	0.9141
2044	0.9131
2053	0.912
2062	0.911
2071	0.9081
2080	0.9044
2089	0.8982
2098	0.8902
2107	0.8788
2116	0.866
2125	0.8745
2134	0.883
2143	0.8949
2152	0.8987
2161	0.8956
2170	0.8955
2179	0.9006
2188	0.9082
2197	0.9121
2206	0.9137
2215	0.9144
2224	0.9145
2233	0.9134
2242	0.9115
2251	0.908
2260	0.9038
2269	0.9026
2278	0.9034
2287	0.9041
2296	0.905
2305	0.9063
2314	0.9066
2323	0.9062
2332	0.9054
2341	0.9038
2350	0.9023
2359	0.9007
2368	0.8996
2377	0.8991
2386	0.8988
2395	0.9002
2404	0.9018
2413	0.9034
2422	0.9051
2431	0.9067
2440	0.9079
2449	0.909
2458	0.9092
2467	0.9061
2476	0.9039
2485	0.9025
2494	0.903
2503	0.9045
2512	0.9066
2521	0.9086
2530	0.9091
2539	0.9089
2548	0.908
2557	0.9068
2566	0.9043
2575	0.9017
2584	0.8993
2593	0.8973
2602	0.8949
2611	0.8924
2620	0.8853
2629	0.8774
2638	0.8697
2647	0.8622
2656	0.8591
2665	0.856
2674	0.8525
2683	0.8431
2692	0.8339
2701	0.8225
2710	0.8103
2719	0.7975
2728	0.7847
2737	0.7708
2746	0.7567
2755	0.7381
2764	0.7189
2773	0.6983
2782	0.6478
2791	0.5473
2800	0.4474
2809	0.3482
2818	0.3004
2827	0.3084
2836	0.3378
2845	0.3629
2854	0.3669
2863	0.3693
2872	0.3773
2881	0.3949
2890	0.4132
2899	0.4313
2908	0.4493
2917	0.4639
2926	0.457
2935	0.4272
2944	0.3976
2953	0.3716
2962	0.3705
2971	0.3723
2980	0.4029
2989	0.4493
2998	0.4954
3007	0.5434
3016	0.5794
3025	0.6477
3034	0.7157
3043	0.7832
3052	0.8014
3061	0.8012
3070	0.7985
3079	0.784
3088	0.7662
3097	0.7486
3106	0.7312
3115	0.7232
3124	0.7247
3133	0.7273
3142	0.7365
3151	0.7502
3160	0.7574
3169	0.7605
3178	0.7613
3187	0.7604
3196	0.7548
3205	0.7453
3214	0.7298
3223	0.7141
3232	0.697
3241	0.6828
3250	0.6694
3259	0.6525
3268	0.6305
3277	0.5556
3286	0.4811
3295	0.407
3304	0.3333
3313	0.2624
3322	0.2444
3331	0.2599
3340	0.3492
3349	0.4472
3358	0.5445
3367	0.6414
3376	0.7378
3385	0.7967
3394	0.8185
3403	0.8382
3412	0.8558
3421	0.8644
3430	0.873
3439	0.8789
3448	0.883
3457	0.8871
3466	0.8907
3475	0.8931
3484	0.8954
3493	0.8977
3502	0.9
3511	0.9023
3520	0.9045
3529	0.9067
3538	0.9086
3547	0.9099
3556	0.911
3565	0.9123
3574	0.9131
3583	0.9134
3592	0.9137
3601	0.914
3610	0.9143
3619	0.9145
3628	0.9142
3637	0.9137
3646	0.9134
3655	0.9129
3664	0.9126
3673	0.9124
3682	0.9127
3691	0.9129
3700	0.9131
3709	0.9133
3718	0.9133
3727	0.9127
3736	0.9122
3745	0.9117
3754	0.9111
3763	0.9103
3772	0.9096
3781	0.9089
3790	0.9081
3799	0.9074
3808	0.9063
3817	0.905
3826	0.9038
3835	0.9026
3844	0.9012
3853	0.8996
3862	0.8977
3871	0.8958
3880	0.894
3889	0.8918
3898	0.8894
3907	0.8871
3916	0.8847
3925	0.8821
3934	0.8795
3943	0.8769
3952	0.8759
3961	0.8762
3970	0.8764
3979	0.8777
3988	0.8806
3997	0.8834
