Infrared Spectrum: Ethanol, 2-hexadecylthio-
Formula: C18 H38 O S
CAS: 23248-47-7
State: SOLUTION (10% CCl4 FOR 3800-1330, 10% CS2 FOR 1330-460 CM^-^1)
Class: COBLENTZ III
Instrument: DOW KBr FOREPRISM-GRATING
Instrument parameters: BLAZED AT 3.5, 12.0, 20.0 MICRON AND CHANGED AT 5.0, 7.5, 14.9 MICRON
Sampling: TRANSMISSION
Path length: 0.011 CM, 0.011 CM
Resolution: 2
Origin: DOW CHEMICAL COMPANY
1/CM	TRANSMITTANCE
466	0.8879
475	0.8718
484	0.8644
493	0.8627
502	0.8628
511	0.8632
520	0.8621
529	0.8601
538	0.8592
547	0.8593
556	0.8584
565	0.8593
574	0.8686
583	0.8717
592	0.8759
601	0.887
610	0.8927
619	0.8939
628	0.8936
637	0.8924
646	0.8905
655	0.8928
664	0.9095
673	0.8944
682	0.8774
691	0.8763
700	0.8453
709	0.7482
718	0.6682
727	0.7428
736	0.7979
745	0.8266
754	0.8283
763	0.8256
772	0.8377
781	0.8328
790	0.8715
799	0.8772
808	0.8759
817	0.8673
826	0.8671
835	0.8768
844	0.8903
853	0.8829
862	0.8823
871	0.8821
880	0.8825
889	0.8834
898	0.8885
907	0.8793
916	0.8551
925	0.7322
934	0.7956
943	0.8566
952	0.8647
961	0.8801
970	0.8739
979	0.8518
988	0.8197
997	0.7872
1006	0.7542
1015	0.7368
1024	0.7147
1033	0.6589
1042	0.5926
1051	0.4389
1060	0.3745
1069	0.6388
1078	0.7465
1087	0.8189
1096	0.8503
1105	0.8516
1114	0.8516
1123	0.8559
1132	0.8766
1141	0.8769
1150	0.8651
1159	0.84
1168	0.7339
1177	0.8041
1186	0.8319
1195	0.8426
1204	0.8429
1213	0.8351
1222	0.8328
1231	0.8391
1240	0.83
1249	0.817
1258	0.781
1267	0.7242
1276	0.7153
1285	0.7449
1294	0.7444
1303	0.7547
1312	0.7897
1321	0.7869
1330	0.7445
1339	0.738
1348	0.7435
1357	0.7484
1366	0.7308
1375	0.6552
1384	0.6438
1393	0.6668
1402	0.7278
1411	0.6772
1420	0.6976
1429	0.7168
1438	0.6302
1447	0.5823
1456	0.4157
1465	0.3066
1474	0.7316
1483	0.8059
1492	0.8399
1501	0.8521
1510	0.8509
1519	0.8435
1528	0.8763
1537	0.9029
1546	0.9113
1555	0.9176
1564	0.9143
1573	0.9003
1582	0.8825
1591	0.8917
1600	0.8859
1609	0.8931
1618	0.8988
1627	0.9003
1636	0.8978
1645	0.8972
1654	0.896
1663	0.8915
1672	0.8902
1681	0.8903
1690	0.8901
1699	0.8866
1708	0.8828
1717	0.8822
1726	0.8757
1735	0.8737
1744	0.8788
1753	0.8818
1762	0.886
1771	0.891
1780	0.894
1789	0.8957
1798	0.8964
1807	0.8964
1816	0.8966
1825	0.8969
1834	0.8971
1843	0.897
1852	0.8969
1861	0.897
1870	0.8971
1879	0.8981
1888	0.8993
1897	0.9007
1906	0.9024
1915	0.9036
1924	0.9047
1933	0.9046
1942	0.9044
1951	0.904
1960	0.9083
1969	0.9019
1978	0.9027
1987	0.9022
1996	0.9007
2005	0.9058
2014	0.9163
2023	0.916
2032	0.9145
2041	0.9126
2050	0.911
2059	0.9102
2068	0.9094
2077	0.9084
2086	0.9074
2095	0.9061
2104	0.9048
2113	0.9036
2122	0.9025
2131	0.9014
2140	0.9003
2149	0.8992
2158	0.8979
2167	0.8965
2176	0.8952
2185	0.8937
2194	0.8923
2203	0.8908
2212	0.8894
2221	0.8874
2230	0.8855
2239	0.8836
2248	0.8821
2257	0.8811
2266	0.8801
2275	0.8792
2284	0.8788
2293	0.8784
2302	0.8794
2311	0.8805
2320	0.8839
2329	0.8892
2338	0.8929
2347	0.8937
2356	0.8938
2365	0.8911
2374	0.8817
2383	0.875
2392	0.8745
2401	0.875
2410	0.8755
2419	0.8756
2428	0.8752
2437	0.8746
2446	0.874
2455	0.8734
2464	0.8729
2473	0.8724
2482	0.8718
2491	0.8709
2500	0.87
2509	0.869
2518	0.868
2527	0.8666
2536	0.8653
2545	0.8639
2554	0.8625
2563	0.8605
2572	0.8585
2581	0.8565
2590	0.8542
2599	0.8513
2608	0.8485
2617	0.8455
2626	0.8418
2635	0.838
2644	0.8342
2653	0.8298
2662	0.8254
2671	0.8216
2680	0.8204
2689	0.8214
2698	0.8239
2707	0.8251
2716	0.8225
2725	0.819
2734	0.8175
2743	0.8178
2752	0.8175
2761	0.8128
2770	0.8121
2779	0.7945
2788	0.7785
2797	0.7594
2806	0.7374
2815	0.7112
2824	0.6754
2833	0.581
2842	0.4061
2851	0.1034
2860	0.0268
2869	0.1373
2878	0.2196
2887	0.2368
2896	0.1698
2905	0.0788
2914	0.0225
2923	0.0117
2932	0.0142
2941	0.024
2950	0.0591
2959	0.1167
2968	0.2306
2977	0.463
2986	0.5894
2995	0.6626
3004	0.73
3013	0.7523
3022	0.7691
3031	0.7857
3040	0.7997
3049	0.8115
3058	0.8202
3067	0.8265
3076	0.8316
3085	0.8358
3094	0.8395
3103	0.8426
3112	0.8461
3121	0.848
3130	0.8485
3139	0.8482
3148	0.8479
3157	0.847
3166	0.8462
3175	0.8452
3184	0.8433
3193	0.8413
3202	0.8395
3211	0.8378
3220	0.8357
3229	0.8333
3238	0.8306
3247	0.8279
3256	0.8251
3265	0.8221
3274	0.8184
3283	0.8144
3292	0.8098
3301	0.8053
3310	0.8012
3319	0.7973
3328	0.7934
3337	0.7894
3346	0.7854
3355	0.7813
3364	0.7778
3373	0.7743
3382	0.7709
3391	0.7676
3400	0.7646
3409	0.7615
3418	0.7589
3427	0.7569
3436	0.755
3445	0.7537
3454	0.753
3463	0.7522
3472	0.7515
3481	0.7517
3490	0.7529
3499	0.7556
3508	0.7598
3517	0.7672
3526	0.7761
3535	0.7874
3544	0.7997
3553	0.8103
3562	0.824
3571	0.8332
3580	0.8371
3589	0.8451
3598	0.8428
3607	0.8318
3616	0.8181
3625	0.8089
3634	0.8129
3643	0.8648
3652	0.8721
3661	0.8751
3670	0.8802
3679	0.8809
3688	0.8816
3697	0.8825
3706	0.8841
3715	0.8863
3724	0.8887
3733	0.889
3742	0.8873
3751	0.886
3760	0.8848
3769	0.884
3778	0.8838
3787	0.8846
3796	0.8854
