Infrared Spectrum: 2-Butanol, 2-methyl-4-[(5-methyl-5H-as-triazino[5,6-b]indol-3-yl)-amino]-, hydrate
Formula: C15 H19 N5 O  * H2 O
CAS: 23256-55-5
State: SOLID (OIL MULL)
Class: COBLENTZ III
Instrument: PERKIN-ELMER 21 (GRATING)
Instrument parameters: NaCl PRISM
Sampling: TRANSMISSION
Resolution: 2
Origin: SMITH KLINE & FRENCH LABS.
1/CM	TRANSMITTANCE
660	0.6788
669	0.6956
678	0.7097
687	0.7221
696	0.7035
705	0.6594
714	0.6585
723	0.7202
732	0.7276
741	0.5887
750	0.77
759	0.8198
768	0.8286
777	0.8347
786	0.8553
795	0.659
804	0.888
813	0.8749
822	0.8256
831	0.8329
840	0.8265
849	0.8593
858	0.8664
867	0.8584
876	0.8469
885	0.847
894	0.835
903	0.787
912	0.7825
921	0.7646
930	0.7272
939	0.7606
948	0.8243
957	0.8256
966	0.8202
975	0.8058
984	0.807
993	0.8062
1002	0.7823
1011	0.7467
1020	0.708
1029	0.7083
1038	0.7131
1047	0.6196
1056	0.3987
1065	0.4993
1074	0.1503
1083	0.5649
1092	0.6723
1101	0.5128
1110	0.5158
1119	0.3924
1128	0.6863
1137	0.6823
1146	0.5215
1155	0.5888
1164	0.6822
1173	0.763
1182	0.7444
1191	0.7331
1200	0.6979
1209	0.6287
1218	0.6199
1227	0.6924
1236	0.6663
1245	0.6581
1254	0.6694
1263	0.6425
1272	0.6161
1281	0.6859
1290	0.7101
1299	0.6963
1308	0.6535
1317	0.5948
1326	0.6561
1335	0.5892
1344	0.5504
1353	0.5085
1362	0.3945
1371	0.4087
1380	0.3843
1389	0.249
1398	0.5581
1407	0.6593
1416	0.4845
1425	0.5212
1434	0.5017
1443	0.379
1452	0.3034
1461	0.2551
1470	0.5601
1479	0.5957
1488	0.5337
1497	0.3534
1506	0.3868
1515	0.227
1524	0.4091
1533	0.6667
1542	0.6462
1551	0.5843
1560	0.4945
1569	0.3134
1578	0.1919
1587	0.126
1596	0.3995
1605	0.654
1614	0.7051
1623	0.7349
1632	0.7886
1641	0.7916
1650	0.8074
1659	0.7871
1668	0.7843
1677	0.7951
1686	0.7849
1695	0.8049
1704	0.8267
1713	0.8365
1722	0.8406
1731	0.8417
1740	0.8415
1749	0.8411
1758	0.8405
1767	0.8446
1776	0.8467
1785	0.8455
1794	0.8439
1803	0.8433
1812	0.8429
1821	0.8425
1830	0.8421
1839	0.8411
1848	0.8398
1857	0.8385
1866	0.8374
1875	0.8365
1884	0.8369
1893	0.8365
1902	0.8356
1911	0.8374
1920	0.84
1929	0.8394
1938	0.8383
1947	0.8371
1956	0.8345
1965	0.8303
1974	0.8271
1983	0.827
1992	0.8283
2001	0.8302
2010	0.8325
2019	0.8335
2028	0.8312
2037	0.8281
2046	0.8261
2055	0.8251
2064	0.825
2073	0.8252
2082	0.8241
2091	0.8226
2100	0.8207
2109	0.8195
2118	0.8182
2127	0.817
2136	0.8157
2145	0.8143
2154	0.8106
2163	0.8069
2172	0.8043
2181	0.8028
2190	0.8015
2199	0.8003
2208	0.8003
2217	0.8009
2226	0.7946
2235	0.7868
2244	0.7816
2253	0.7771
2262	0.7716
2271	0.7638
2280	0.7546
2289	0.7469
2298	0.7474
2307	0.7532
2316	0.7566
2325	0.7627
2334	0.7754
2343	0.7809
2352	0.781
2361	0.7791
2370	0.7764
2379	0.7731
2388	0.7718
2397	0.7738
2406	0.7782
2415	0.7776
2424	0.7734
2433	0.7678
2442	0.7654
2451	0.7641
2460	0.7631
2469	0.7625
2478	0.762
2487	0.762
2496	0.761
2505	0.7599
2514	0.759
2523	0.7546
2532	0.7485
2541	0.7428
2550	0.7378
2559	0.7347
2568	0.7321
2577	0.7314
2586	0.731
2595	0.7305
2604	0.7301
2613	0.7289
2622	0.727
2631	0.7251
2640	0.7223
2649	0.7184
2658	0.7143
2667	0.7094
2676	0.7046
2685	0.6983
2694	0.6913
2703	0.6818
2712	0.6711
2721	0.66
2730	0.646
2739	0.6319
2748	0.6169
2757	0.6018
2766	0.5832
2775	0.5569
2784	0.5131
2793	0.3674
2802	0.2426
2811	0.1509
2820	0.1113
2829	0.0945
2838	0.0799
2847	0.062
2856	0.0341
2865	0.0195
2874	0.0167
2883	0.0466
2892	0.1036
2901	0.1602
2910	0.2164
2919	0.2723
2928	0.3279
2937	0.3831
2946	0.4373
2955	0.447
2964	0.4543
2973	0.4614
2982	0.4674
2991	0.4789
3000	0.5027
3009	0.5161
3018	0.5228
3027	0.5261
3036	0.5288
3045	0.5307
3054	0.5319
3063	0.5322
3072	0.5339
3081	0.5428
3090	0.5466
3099	0.5466
3108	0.5308
3117	0.512
3126	0.4933
3135	0.4748
3144	0.4564
3153	0.438
3162	0.4199
3171	0.4139
3180	0.4181
3189	0.4441
3198	0.4712
3207	0.4981
3216	0.5249
3225	0.5516
3234	0.578
3243	0.604
3252	0.6239
3261	0.6363
3270	0.6374
3279	0.6345
3288	0.6225
3297	0.6091
3306	0.5959
3315	0.5826
3324	0.5695
3333	0.5564
3342	0.5434
3351	0.5361
3360	0.5363
3369	0.5409
3378	0.5744
3387	0.6101
3396	0.6457
3405	0.6682
3414	0.6825
3423	0.6923
3432	0.7026
3441	0.7149
3450	0.723
3459	0.7293
3468	0.7354
3477	0.7393
3486	0.7429
3495	0.7459
3504	0.7469
3513	0.7477
3522	0.7486
3531	0.749
3540	0.7492
3549	0.7493
3558	0.7494
3567	0.749
3576	0.7487
3585	0.7481
3594	0.7473
3603	0.7464
3612	0.7455
3621	0.7447
3630	0.7441
3639	0.7436
3648	0.743
3657	0.7425
3666	0.7421
3675	0.7428
3684	0.7438
3693	0.7447
3702	0.745
3711	0.7453
3720	0.7453
3729	0.7452
3738	0.7451
3747	0.7449
3756	0.744
3765	0.743
3774	0.7397
3783	0.7366
3792	0.7361
3801	0.7362
3810	0.7369
3819	0.7375
3828	0.7382
3837	0.7389
3846	0.7395
3855	0.7401
3864	0.7408
3873	0.7413
3882	0.7413
3891	0.7408
3900	0.7403
3909	0.7397
3918	0.7391
3927	0.7384
3936	0.7368
3945	0.7353
3954	0.7337
3963	0.7322
3972	0.7305
3981	0.7279
3990	0.7251
3999	0.7224
