Infrared Spectrum: (2-Hydroxyethyl)triphenylphosphonium chloride
Formula: C20 H20 Cl O P
CAS: 23250-03-5
State: SOLID (SPLIT MULL), FLUOROLUBE FOR 3800-1330 CM^-^1, NUJOL FOR 1330-400 CM^-^1
Melting point: 234 C (DECOMPOSES)
Class: COBLENTZ III
Instrument: BECKMAN IR-9 (GRATING)
Instrument parameters: ORDER CHANGES: 670, 1200, 2000 CM^-^1
Sampling: TRANSMISSION
Resolution: 2
Origin: DOW CHEMICAL COMPANY
1/CM	TRANSMITTANCE
402	0.5943
411	0.5965
420	0.5993
429	0.6476
438	0.6744
447	0.6089
456	0.6871
465	0.7222
474	0.6622
483	0.7026
492	0.3364
501	0.2656
510	0.6411
519	0.7607
528	0.2992
537	0.6918
546	0.374
555	0.7689
564	0.8244
573	0.8261
582	0.8204
591	0.8111
600	0.7933
609	0.7425
618	0.784
627	0.7541
636	0.7243
645	0.6944
654	0.6614
663	0.6618
672	0.6835
681	0.5862
690	0.3033
699	0.4712
708	0.5476
717	0.2785
726	0.4222
735	0.358
744	0.3932
753	0.1577
762	0.3227
771	0.7626
780	0.84
789	0.8478
798	0.7349
807	0.8143
816	0.6618
825	0.8503
834	0.8911
843	0.9007
852	0.8878
861	0.8775
870	0.9102
879	0.9142
888	0.9057
897	0.887
906	0.8962
915	0.8614
924	0.8347
933	0.8289
942	0.8338
951	0.7932
960	0.8435
969	0.8242
978	0.5939
987	0.5308
996	0.5585
1005	0.7194
1014	0.7521
1023	0.7992
1032	0.8223
1041	0.7394
1050	0.4053
1059	0.3042
1068	0.394
1077	0.6532
1086	0.7743
1095	0.6665
1104	0.2039
1113	0.2679
1122	0.7449
1131	0.759
1140	0.6639
1149	0.7065
1158	0.6199
1167	0.7875
1176	0.8452
1185	0.7651
1194	0.7806
1203	0.8545
1212	0.8574
1221	0.8413
1230	0.8048
1239	0.8323
1248	0.8602
1257	0.8661
1266	0.8541
1275	0.8415
1284	0.8394
1293	0.8278
1302	0.7998
1311	0.7185
1320	0.7164
1329	0.7295
1338	0.7064
1347	0.7708
1356	0.7308
1365	0.7876
1374	0.7836
1383	0.7547
1392	0.7625
1401	0.7732
1410	0.7497
1419	0.6586
1428	0.1995
1437	0.417
1446	0.7889
1455	0.769
1464	0.774
1473	0.827
1482	0.4596
1491	0.9054
1500	0.91
1509	0.9064
1518	0.9053
1527	0.9075
1536	0.9089
1545	0.9027
1554	0.8944
1563	0.876
1572	0.8446
1581	0.7022
1590	0.8954
1599	0.8907
1608	0.8811
1617	0.8721
1626	0.8761
1635	0.8875
1644	0.8957
1653	0.903
1662	0.9043
1671	0.9017
1680	0.8959
1689	0.8868
1698	0.8932
1707	0.8981
1716	0.901
1725	0.9027
1734	0.9018
1743	0.9005
1752	0.8984
1761	0.8923
1770	0.8821
1779	0.8674
1788	0.8666
1797	0.8675
1806	0.8673
1815	0.8627
1824	0.8511
1833	0.8488
1842	0.8366
1851	0.8388
1860	0.8487
1869	0.8555
1878	0.8577
1887	0.8554
1896	0.8478
1905	0.8339
1914	0.8283
1923	0.8298
1932	0.8161
1941	0.8273
1950	0.836
1959	0.8361
1968	0.8303
1977	0.82
1986	0.8204
1995	0.7961
2004	0.8083
2013	0.8087
2022	0.8097
2031	0.8168
2040	0.8202
2049	0.8196
2058	0.8175
2067	0.8161
2076	0.8132
2085	0.8088
2094	0.8044
2103	0.8001
2112	0.7958
2121	0.7918
2130	0.7897
2139	0.7875
2148	0.7849
2157	0.7807
2166	0.7764
2175	0.7719
2184	0.7675
2193	0.7626
2202	0.7575
2211	0.7515
2220	0.7491
2229	0.7492
2238	0.7461
2247	0.7421
2256	0.7405
2265	0.7375
2274	0.7335
2283	0.729
2292	0.7268
2301	0.7257
2310	0.7246
2319	0.7234
2328	0.725
2337	0.728
2346	0.7308
2355	0.7351
2364	0.7383
2373	0.7393
2382	0.7226
2391	0.7035
2400	0.7008
2409	0.6986
2418	0.6965
2427	0.6935
2436	0.691
2445	0.6886
2454	0.6864
2463	0.6838
2472	0.6811
2481	0.6783
2490	0.6756
2499	0.6728
2508	0.6704
2517	0.6678
2526	0.6655
2535	0.664
2544	0.6624
2553	0.6541
2562	0.6493
2571	0.6457
2580	0.6417
2589	0.6385
2598	0.6355
2607	0.6324
2616	0.6297
2625	0.6272
2634	0.6247
2643	0.6222
2652	0.6186
2661	0.6147
2670	0.6109
2679	0.6071
2688	0.6033
2697	0.5995
2706	0.5962
2715	0.5937
2724	0.5924
2733	0.5908
2742	0.5867
2751	0.5782
2760	0.5712
2769	0.5659
2778	0.5588
2787	0.5506
2796	0.5405
2805	0.5279
2814	0.5145
2823	0.5015
2832	0.4771
2841	0.4285
2850	0.3764
2859	0.3259
2868	0.3209
2877	0.3528
2886	0.3803
2895	0.39
2904	0.3606
2913	0.2716
2922	0.3468
2931	0.4381
2940	0.4714
2949	0.4705
2958	0.4154
2967	0.3802
2976	0.4462
2985	0.4365
2994	0.3922
3003	0.3976
3012	0.3803
3021	0.416
3030	0.4521
3039	0.4379
3048	0.3872
3057	0.3809
3066	0.4144
3075	0.4345
3084	0.4349
3093	0.4327
3102	0.4314
3111	0.4294
3120	0.427
3129	0.4226
3138	0.4105
3147	0.3991
3156	0.3879
3165	0.3762
3174	0.3616
3183	0.3474
3192	0.333
3201	0.3158
3210	0.2992
3219	0.2841
3228	0.2711
3237	0.2706
3246	0.2726
3255	0.2752
3264	0.2782
3273	0.2809
3282	0.2846
3291	0.2938
3300	0.3066
3309	0.319
3318	0.3309
3327	0.3421
3336	0.3525
3345	0.3644
3354	0.376
3363	0.3858
3372	0.3948
3381	0.401
3390	0.4043
3399	0.4059
3408	0.4071
3417	0.4082
3426	0.4092
3435	0.4101
3444	0.411
3453	0.412
3462	0.4129
3471	0.4136
3480	0.4142
3489	0.4147
3498	0.4151
3507	0.4153
3516	0.417
3525	0.4234
3534	0.4315
3543	0.4355
3552	0.4369
3561	0.4382
3570	0.439
3579	0.4398
3588	0.4398
3597	0.4396
3606	0.4393
3615	0.4389
3624	0.4386
3633	0.4382
3642	0.4379
3651	0.437
3660	0.436
3669	0.435
3678	0.4341
3687	0.4325
3696	0.4308
3705	0.4291
3714	0.4273
3723	0.4253
3732	0.4233
3741	0.4212
3750	0.4191
3759	0.4164
3768	0.4137
3777	0.4112
3786	0.4091
3795	0.4071
3804	0.4062
3813	0.4078
