Infrared Spectrum: PHOSPHONOUS ACID, PHENYL-, BIS(2-ETHYLHEXYL)ESTER
Formula: C22 H39 O2 P
CAS: 23265-69-2
Boiling point: 148-150 C AT 0.5 mmHg
Class: COBLENTZ
Instrument: Not specified, most likely a prism, grating, or hybrid spectrometer.
Sampling: TRANSMISSION
Path length: SMEAR
Resolution: 4
Origin: TENNESSEE EASTMAN COMPANY, RESEARCH LABORATORIES
MICROMETERS	TRANSMITTANCE
2.059	0.849
2.09904	0.854
2.13909	0.859
2.17913	0.863
2.21918	0.873
2.25922	0.873
2.29927	0.871
2.33931	0.871
2.37935	0.873
2.4194	0.873
2.45944	0.873
2.49949	0.873
2.53953	0.881
2.57958	0.881
2.61962	0.881
2.65966	0.883
2.69971	0.883
2.73975	0.883
2.7798	0.883
2.81984	0.884
2.85989	0.886
2.89993	0.883
2.93997	0.883
2.98002	0.884
3.02006	0.886
3.06011	0.883
3.10015	0.878
3.14019	0.874
3.18024	0.878
3.22028	0.878
3.26033	0.792
3.30037	0.772
3.34042	0.584
3.38046	0.083
3.4205	0.11
3.46055	0.207
3.50059	0.499
3.54064	0.811
3.58068	0.858
3.62073	0.874
3.66077	0.869
3.70081	0.881
3.74086	0.891
3.7809	0.901
3.82095	0.914
3.86099	0.918
3.90104	0.918
3.94108	0.923
3.98112	0.941
4.02117	0.941
4.06121	0.943
4.10126	0.943
4.1413	0.943
4.18135	0.943
4.22139	0.946
4.26143	0.938
4.30148	0.904
4.34152	0.891
4.38157	0.939
4.42161	0.949
4.46166	0.944
4.5017	0.949
4.54174	0.949
4.58179	0.949
4.62183	0.951
4.66188	0.951
4.70192	0.951
4.74196	0.951
4.78201	0.951
4.82205	0.951
4.8621	0.951
4.90214	0.951
4.94219	0.951
4.98223	0.951
5.02227	0.949
5.06232	0.941
5.10236	0.933
5.14241	0.939
5.18245	0.949
5.2225	0.943
5.26254	0.943
5.30258	0.936
5.34263	0.948
5.38267	0.948
5.42272	0.941
5.46276	0.938
5.50281	0.919
5.54285	0.929
5.58289	0.933
5.62294	0.941
5.66298	0.923
5.70303	0.933
5.74307	0.923
5.78312	0.919
5.82316	0.949
5.8632	0.941
5.90325	0.913
5.94329	0.929
5.98334	0.921
6.02338	0.928
6.06343	0.929
6.10347	0.929
6.14351	0.933
6.18356	0.923
6.2236	0.883
6.26365	0.839
6.30369	0.903
6.34374	0.909
6.38378	0.921
6.42382	0.894
6.46387	0.899
6.50391	0.899
6.54396	0.884
6.584	0.883
6.62404	0.833
6.66409	0.811
6.70413	0.699
6.74418	0.632
6.78422	0.367
6.82427	0.348
6.86431	0.585
6.90435	0.632
6.9444	0.584
6.98444	0.831
7.02449	0.854
7.06453	0.883
7.10458	0.874
7.14462	0.814
7.18466	0.639
7.22471	0.554
7.26475	0.689
7.3048	0.797
7.34484	0.829
7.38489	0.849
7.42493	0.868
7.46497	0.859
7.50502	0.868
7.54506	0.869
7.58511	0.868
7.62515	0.838
7.6652	0.823
7.70524	0.846
7.74528	0.848
7.78533	0.836
7.82537	0.803
7.86542	0.786
7.90546	0.782
7.94551	0.757
7.98555	0.724
8.02559	0.687
8.06564	0.682
8.10568	0.711
8.14573	0.717
8.18577	0.702
8.22581	0.722
8.26586	0.776
8.3059	0.794
8.34595	0.841
8.38599	0.849
8.42604	0.844
8.46608	0.844
8.50612	0.844
8.54617	0.818
8.58621	0.792
8.62626	0.772
8.6663	0.771
8.70635	0.771
8.74639	0.771
8.78643	0.737
8.82648	0.699
8.86652	0.699
8.90657	0.682
8.94661	0.647
8.98666	0.624
9.0267	0.579
9.06674	0.574
9.10679	0.672
9.14683	0.687
9.18688	0.636
9.22692	0.632
9.26697	0.627
9.30701	0.562
9.34705	0.532
9.3871	0.51
9.42714	0.46
9.46719	0.37
9.50723	0.285
9.54728	0.202
9.58732	0.181
9.62736	0.16
9.66741	0.161
9.70745	0.161
9.7475	0.161
9.78754	0.163
9.82759	0.153
9.86763	0.15
9.90767	0.148
9.94772	0.15
9.98776	0.155
10.0278	0.183
10.0679	0.225
10.1079	0.24
10.1479	0.262
10.188	0.282
10.228	0.288
10.2681	0.258
10.3081	0.22
10.3482	0.2
10.3882	0.19
10.4282	0.215
10.4683	0.3
10.5083	0.427
10.5484	0.517
10.5884	0.587
10.6285	0.627
10.6685	0.634
10.7086	0.627
10.7486	0.601
10.7886	0.589
10.8287	0.627
10.8687	0.634
10.9088	0.649
10.9488	0.687
10.9889	0.694
11.0289	0.694
11.069	0.747
11.109	0.774
11.149	0.791
11.1891	0.809
11.2291	0.833
11.2692	0.833
11.3092	0.829
11.3493	0.823
11.3893	0.801
11.4294	0.791
11.4694	0.776
11.5094	0.759
11.5495	0.756
11.5895	0.756
11.6296	0.756
11.6696	0.722
11.7097	0.671
11.7497	0.621
11.7898	0.592
11.8298	0.58
11.8698	0.59
11.9099	0.612
11.9499	0.629
11.99	0.649
12.03	0.666
12.0701	0.676
12.1101	0.681
12.1502	0.679
12.1902	0.667
12.2302	0.652
12.2703	0.631
12.3103	0.595
12.3504	0.547
12.3904	0.482
12.4305	0.402
12.4705	0.362
12.5106	0.348
12.5506	0.348
12.5906	0.353
12.6307	0.373
12.6707	0.393
12.7108	0.4
12.7508	0.4
12.7909	0.398
12.8309	0.395
12.8709	0.407
12.911	0.422
12.951	0.44
12.9911	0.462
13.0311	0.485
13.0712	0.5
13.1112	0.52
13.1513	0.519
13.1913	0.489
13.2313	0.398
13.2714	0.298
13.3114	0.248
13.3515	0.278
13.3915	0.378
13.4316	0.494
13.4716	0.56
13.5117	0.611
13.5517	0.641
13.5917	0.657
13.6318	0.666
13.6718	0.669
13.7119	0.672
13.7519	0.704
13.792	0.724
13.832	0.741
13.8721	0.752
13.9121	0.754
13.9521	0.757
13.9922	0.747
14.0322	0.709
14.0723	0.657
14.1123	0.594
14.1524	0.469
14.1924	0.372
14.2325	0.293
14.2725	0.288
14.3125	0.328
14.3526	0.383
14.3926	0.429
14.4327	0.475
14.4727	0.539
14.5128	0.626
14.5528	0.699
14.5929	0.742
14.6329	0.776
14.6729	0.829
14.713	0.818
14.753	0.813
14.7931	0.813
14.8331	0.811
14.8732	0.801
14.9132	0.796
14.9532	0.794
14.9933	0.801
15.0333	0.803
15.0734	0.804
15.1134	0.804
15.1535	0.804
15.1935	0.803
15.2336	0.803
15.2736	0.803
15.3136	0.799
15.3537	0.796
15.3937	0.794
15.4338	0.781
15.4738	0.774
15.5139	0.772
15.5539	0.772
15.594	0.766
15.634	0.757
15.674	0.751
15.7141	0.747
15.7541	0.746
15.7942	0.737
15.8342	0.731
15.8743	0.712
15.9143	0.702
15.9544	0.701
15.9944	0.701
