Infrared Spectrum: 1-PROPOXYPHENE N-OXIDE HYDROCHLORIDE
Formula: C22 H30 Cl N O3
CAS: 23271-62-7
State: SOLID (KCl DISC) VS KCl
Class: COBLENTZ III
Instrument: PERKIN-ELMER 21 (GRATING)
Instrument parameters: FILTER AT ABOUT 10 MICRONS
Sampling: TRANSMISSION
Resolution: 2
1/CM	TRANSMITTANCE
4000	0.8631
3991	0.8648
3982	0.8665
3973	0.8682
3964	0.8699
3955	0.8715
3946	0.8731
3937	0.8748
3928	0.8756
3919	0.876
3910	0.8764
3901	0.8768
3892	0.8771
3883	0.8771
3874	0.8773
3865	0.8778
3856	0.8792
3847	0.8808
3838	0.8823
3829	0.884
3820	0.8855
3811	0.8871
3802	0.8889
3793	0.8906
3784	0.8918
3775	0.8931
3766	0.8942
3757	0.8953
3748	0.8965
3739	0.8971
3730	0.8973
3721	0.8975
3712	0.8978
3703	0.898
3694	0.898
3685	0.898
3676	0.8978
3667	0.8978
3658	0.8978
3649	0.8978
3640	0.8978
3631	0.8978
3622	0.8977
3613	0.8975
3604	0.8973
3595	0.8971
3586	0.8968
3577	0.8968
3568	0.8964
3559	0.8956
3550	0.8945
3541	0.8921
3532	0.8885
3523	0.8843
3514	0.8814
3505	0.8794
3496	0.8788
3487	0.8785
3478	0.8781
3469	0.8742
3460	0.8696
3451	0.8627
3442	0.8568
3433	0.8551
3424	0.8554
3415	0.8558
3406	0.857
3397	0.8582
3388	0.8594
3379	0.8607
3370	0.8618
3361	0.8634
3352	0.8658
3343	0.8684
3334	0.8709
3325	0.8731
3316	0.8753
3307	0.8775
3298	0.88
3289	0.8825
3280	0.8851
3271	0.8871
3262	0.8891
3253	0.8909
3244	0.8917
3235	0.8924
3226	0.8931
3217	0.8937
3208	0.8935
3199	0.8927
3190	0.8916
3181	0.8898
3172	0.8868
3163	0.8837
3154	0.8791
3145	0.8738
3136	0.867
3127	0.858
3118	0.8428
3109	0.8158
3100	0.7862
3091	0.7565
3082	0.7265
3073	0.6962
3064	0.666
3055	0.6354
3046	0.6192
3037	0.6185
3028	0.619
3019	0.6034
3010	0.5601
3001	0.5166
2992	0.4997
2983	0.5023
2974	0.5108
2965	0.5212
2956	0.536
2947	0.5559
2938	0.5894
2929	0.6253
2920	0.6593
2911	0.6628
2902	0.6647
2893	0.6656
2884	0.6672
2875	0.6755
2866	0.6811
2857	0.6837
2848	0.6843
2839	0.6825
2830	0.6796
2821	0.6736
2812	0.6668
2803	0.6594
2794	0.6515
2785	0.645
2776	0.6414
2767	0.6403
2758	0.6396
2749	0.639
2740	0.6384
2731	0.6378
2722	0.6376
2713	0.6374
2704	0.6371
2695	0.6362
2686	0.6347
2677	0.6308
2668	0.6239
2659	0.615
2650	0.6015
2641	0.5805
2632	0.5542
2623	0.5156
2614	0.476
2605	0.4512
2596	0.4274
2587	0.3825
2578	0.3372
2569	0.2917
2560	0.2457
2551	0.1994
2542	0.1541
2533	0.1292
2524	0.1214
2515	0.1198
2506	0.1196
2497	0.1216
2488	0.1253
2479	0.1327
2470	0.1539
2461	0.1727
2452	0.2004
2443	0.2403
2434	0.2805
2425	0.3209
2416	0.3616
2407	0.401
2398	0.4427
2389	0.471
2380	0.4784
2371	0.4834
2362	0.4893
2353	0.4975
2344	0.5104
2335	0.5318
2326	0.5641
2317	0.5954
2308	0.6195
2299	0.6356
2290	0.6521
2281	0.6703
2272	0.6876
2263	0.7025
2254	0.7171
2245	0.731
2236	0.7453
2227	0.76
2218	0.7718
2209	0.7811
2200	0.7905
2191	0.8
2182	0.8096
2173	0.8183
2164	0.8267
2155	0.8344
2146	0.8417
2137	0.8478
2128	0.8533
2119	0.8563
2110	0.8587
2101	0.8593
2092	0.8599
2083	0.8599
2074	0.8594
2065	0.858
2056	0.8498
2047	0.8377
2038	0.8371
2029	0.8408
2020	0.8458
2011	0.8468
2002	0.8392
1993	0.837
1984	0.8371
1975	0.8454
1966	0.8641
1957	0.8766
1948	0.8842
1939	0.8859
1930	0.8794
1921	0.8649
1912	0.8648
1903	0.8707
1894	0.8768
1885	0.8908
1876	0.8987
1867	0.9013
1858	0.8961
1849	0.8954
1840	0.8882
1831	0.8742
1822	0.8838
1813	0.8985
1804	0.9009
1795	0.8868
1786	0.8734
1777	0.8521
1768	0.7957
1759	0.7139
1750	0.5416
1741	0.1979
1732	0.0575
1723	0.3668
1714	0.5974
1705	0.7211
1696	0.7531
1687	0.801
1678	0.8477
1669	0.8589
1660	0.8591
1651	0.8643
1642	0.8752
1633	0.8775
1624	0.863
1615	0.748
1606	0.8566
1597	0.8455
1588	0.7536
1579	0.8176
1570	0.8141
1561	0.7094
1552	0.6293
1543	0.4322
1534	0.39
1525	0.5258
1516	0.5468
1507	0.311
1498	0.5589
1489	0.4519
1480	0.4332
1471	0.3241
1462	0.3554
1453	0.3293
1444	0.464
1435	0.629
1426	0.6857
1417	0.3625
1408	0.6142
1399	0.5927
1390	0.5876
1381	0.6202
1372	0.5396
1363	0.3762
1354	0.3926
1345	0.5627
1336	0.6485
1327	0.631
1318	0.6621
1309	0.5962
1300	0.7387
1291	0.7735
1282	0.808
1273	0.851
1264	0.8412
1255	0.8503
1246	0.8236
1237	0.7407
1228	0.7128
1219	0.5179
1210	0.3446
1201	0.3323
1192	0.2376
1183	0.0972
1174	0.0842
1165	0.1904
1156	0.333
1147	0.538
1138	0.6126
1129	0.3712
1120	0.4696
1111	0.6698
1102	0.7193
1093	0.6417
1084	0.3534
1075	0.6158
1066	0.7408
1057	0.7818
1048	0.6811
1039	0.5706
1030	0.5928
1021	0.4374
1012	0.6712
1003	0.6198
994	0.3377
985	0.6072
976	0.5371
967	0.5915
958	0.7487
949	0.7708
940	0.6912
931	0.5899
922	0.72
913	0.6556
904	0.7886
895	0.7285
886	0.8155
877	0.8568
868	0.8361
859	0.8118
850	0.8362
841	0.8563
832	0.679
823	0.7603
814	0.7225
805	0.6707
796	0.7575
787	0.3522
778	0.442
769	0.3539
760	0.2781
751	0.6818
742	0.7689
733	0.664
724	0.2416
715	0.5225
706	0.2851
697	0.5817
688	0.7448
679	0.7778
670	0.8234
661	0.8316
652	0.7612
