Infrared Spectrum: 5-(3',4'-CARBONYLDIOXYPHENYL)-3-ISOPROPYL-2-OXAZOLIDINONE
Formula: C13 H13 N O5
CAS: 23271-77-4
State: SOLID (OIL MULL)
Class: COBLENTZ III
Instrument: PERKIN-ELMER 21 (GRATING)
Instrument parameters: NaCl PRISM
Sampling: TRANSMISSION
Resolution: 2
Origin: SMITH KLINE & FRENCH LABS.
MICROMETERS	TRANSMITTANCE
1.986	0.644
2.02029	0.644
2.05457	0.647
2.08886	0.658
2.12315	0.663
2.15743	0.665
2.19172	0.668
2.22601	0.672
2.26029	0.677
2.29458	0.68
2.32887	0.684
2.36315	0.689
2.39744	0.693
2.43173	0.695
2.46602	0.701
2.5003	0.711
2.53459	0.723
2.56888	0.722
2.60316	0.723
2.63745	0.721
2.67174	0.723
2.70602	0.723
2.74031	0.723
2.7746	0.723
2.80888	0.723
2.84317	0.732
2.87746	0.749
2.91174	0.755
2.94603	0.76
2.98032	0.756
3.0146	0.758
3.04889	0.76
3.08318	0.767
3.11746	0.773
3.15175	0.775
3.18604	0.777
3.22032	0.761
3.25461	0.752
3.2889	0.742
3.32319	0.712
3.35747	0.699
3.39176	0.633
3.42605	0.362
3.46033	0.23
3.49462	0.177
3.52891	0.172
3.56319	0.165
3.59748	0.38
3.63177	0.57
3.66605	0.661
3.70034	0.702
3.73463	0.728
3.76891	0.733
3.8032	0.745
3.83749	0.753
3.87177	0.762
3.90606	0.78
3.94035	0.794
3.97463	0.801
4.00892	0.806
4.04321	0.813
4.07749	0.819
4.11178	0.822
4.14607	0.835
4.18036	0.838
4.21464	0.84
4.24893	0.841
4.28322	0.836
4.3175	0.817
4.35179	0.808
4.38608	0.818
4.42036	0.836
4.45465	0.848
4.48894	0.863
4.52322	0.875
4.55751	0.885
4.5918	0.885
4.62608	0.886
4.66037	0.889
4.69466	0.894
4.72894	0.9
4.76323	0.9
4.79752	0.898
4.8318	0.891
4.86609	0.841
4.90038	0.885
4.93467	0.897
4.96895	0.915
5.00324	0.912
5.03753	0.919
5.07181	0.919
5.1061	0.917
5.14039	0.913
5.17467	0.902
5.20896	0.885
5.24325	0.861
5.27753	0.824
5.31182	0.746
5.34611	0.596
5.38039	0.624
5.41468	0.341
5.44897	0.182
5.48325	0.073
5.51754	0.138
5.55183	0.412
5.58611	0.514
5.6204	0.55
5.65469	0.6
5.68897	0.611
5.72326	0.499
5.75755	0.287
5.79184	0.077
5.82612	0.054
5.86041	0.12
5.8947	0.282
5.92898	0.401
5.96327	0.499
5.99756	0.557
6.03184	0.651
6.06613	0.722
6.10042	0.719
6.1347	0.718
6.16899	0.735
6.20328	0.76
6.23756	0.791
6.27185	0.812
6.30614	0.831
6.34042	0.842
6.37471	0.85
6.409	0.852
6.44328	0.844
6.47757	0.845
6.51186	0.845
6.54614	0.84
6.58043	0.833
6.61472	0.8
6.64901	0.697
6.68329	0.59
6.71758	0.604
6.75187	0.492
6.78615	0.5
6.82044	0.476
6.85473	0.336
6.88901	0.233
6.9233	0.202
6.95759	0.325
6.99187	0.342
7.02616	0.289
7.06045	0.41
7.09473	0.573
7.12902	0.705
7.16331	0.734
7.19759	0.701
7.23188	0.623
7.26617	0.591
7.30045	0.462
7.33474	0.471
7.36903	0.556
7.40331	0.621
7.4376	0.644
7.47189	0.632
7.50618	0.398
7.54046	0.56
7.57475	0.595
7.60904	0.527
7.64332	0.671
7.67761	0.729
7.7119	0.755
7.74618	0.738
7.78047	0.637
7.81476	0.674
7.84904	0.714
7.88333	0.723
7.91762	0.651
7.9519	0.467
7.98619	0.315
8.02048	0.193
8.05476	0.132
8.08905	0.127
8.12334	0.231
8.15762	0.438
8.19191	0.584
8.2262	0.669
8.26048	0.71
8.29477	0.733
8.32906	0.73
8.36335	0.623
8.39763	0.676
8.43192	0.717
8.46621	0.755
8.50049	0.774
8.53478	0.753
8.56907	0.722
8.60335	0.591
8.63764	0.38
8.67193	0.473
8.70621	0.65
8.7405	0.718
8.77479	0.742
8.80907	0.679
8.84336	0.713
8.87765	0.732
8.91193	0.691
8.94622	0.744
8.98051	0.789
9.01479	0.806
9.04908	0.814
9.08337	0.828
9.11765	0.834
9.15194	0.842
9.18623	0.833
9.22052	0.813
9.2548	0.735
9.28909	0.64
9.32338	0.663
9.35766	0.606
9.39195	0.412
9.42624	0.466
9.46052	0.628
9.49481	0.728
9.5291	0.758
9.56338	0.774
9.59767	0.657
9.63196	0.345
9.66624	0.401
9.70053	0.57
9.73482	0.609
9.7691	0.496
9.80339	0.322
9.83768	0.261
9.87196	0.366
9.90625	0.496
9.94054	0.583
9.97482	0.663
10.0091	0.717
10.0434	0.758
10.0777	0.78
10.112	0.792
10.1463	0.803
10.1805	0.809
10.2148	0.805
10.2491	0.773
10.2834	0.722
10.3177	0.725
10.352	0.739
10.3863	0.764
10.4206	0.775
10.4548	0.777
10.4891	0.778
10.5234	0.74
10.5577	0.601
10.592	0.355
10.6263	0.21
10.6606	0.119
10.6948	0.142
10.7291	0.356
10.7634	0.501
10.7977	0.566
10.832	0.629
10.8663	0.685
10.9006	0.717
10.9349	0.733
10.9691	0.701
11.0034	0.639
11.0377	0.612
11.072	0.529
11.1063	0.503
11.1406	0.618
11.1749	0.711
11.2091	0.753
11.2434	0.783
11.2777	0.781
11.312	0.764
11.3463	0.769
11.3806	0.781
11.4149	0.791
11.4492	0.8
11.4834	0.806
11.5177	0.812
11.552	0.813
11.5863	0.813
11.6206	0.825
11.6549	0.83
11.6892	0.831
11.7235	0.828
11.7577	0.812
11.792	0.79
11.8263	0.78
11.8606	0.729
11.8949	0.535
11.9292	0.42
11.9635	0.516
11.9977	0.669
12.032	0.75
12.0663	0.8
12.1006	0.831
12.1349	0.841
12.1692	0.846
12.2035	0.853
12.2378	0.848
12.272	0.842
12.3063	0.848
12.3406	0.852
12.3749	0.863
12.4092	0.869
12.4435	0.87
12.4778	0.868
12.512	0.868
12.5463	0.87
12.5806	0.874
12.6149	0.874
12.6492	0.87
12.6835	0.862
12.7178	0.863
12.7521	0.839
12.7863	0.785
12.8206	0.582
12.8549	0.47
12.8892	0.632
12.9235	0.733
12.9578	0.779
12.9921	0.799
13.0264	0.806
13.0606	0.813
13.0949	0.801
13.1292	0.774
13.1635	0.729
13.1978	0.51
13.2321	0.298
13.2664	0.186
13.3006	0.495
13.3349	0.695
13.3692	0.764
13.4035	0.802
13.4378	0.812
13.4721	0.814
13.5064	0.812
13.5407	0.819
13.5749	0.819
13.6092	0.8
13.6435	0.799
13.6778	0.802
13.7121	0.803
13.7464	0.814
13.7807	0.819
13.8149	0.82
13.8492	0.82
13.8835	0.809
13.9178	0.809
13.9521	0.805
13.9864	0.802
14.0207	0.797
14.055	0.785
14.0892	0.719
14.1235	0.545
14.1578	0.522
14.1921	0.616
14.2264	0.694
14.2607	0.73
14.295	0.758
14.3292	0.779
14.3635	0.786
14.3978	0.791
14.4321	0.792
14.4664	0.796
14.5007	0.799
14.535	0.801
14.5693	0.799
14.6035	0.797
14.6378	0.791
14.6721	0.779
14.7064	0.779
14.7407	0.78
14.775	0.777
14.8093	0.772
14.8436	0.768
14.8778	0.762
14.9121	0.751
14.9464	0.746
