Infrared Spectrum: BUTYRIC ACID, 4-DIETHYLPHOSPHONO-, ETHYL ESTER
Formula: C10 H21 O5 P
CAS: 2327-69-7
Class: COBLENTZ
Instrument: Not specified, most likely a prism, grating, or hybrid spectrometer.
Sampling: TRANSMISSION
Path length: SMEAR
Resolution: 4
Origin: TENNESSEE EASTMAN COMPANY, RESEARCH LABORATORIES
MICROMETERS	TRANSMITTANCE
2.018	0.463
2.05809	0.463
2.09818	0.466
2.13826	0.465
2.17835	0.466
2.21844	0.466
2.25853	0.466
2.29862	0.468
2.3387	0.47
2.37879	0.47
2.41888	0.471
2.45897	0.475
2.49906	0.476
2.53914	0.486
2.57923	0.501
2.61932	0.51
2.65941	0.511
2.6995	0.518
2.73958	0.52
2.77967	0.52
2.81976	0.515
2.85985	0.506
2.89994	0.498
2.94002	0.496
2.98011	0.498
3.0202	0.501
3.06029	0.503
3.10038	0.506
3.14047	0.51
3.18055	0.511
3.22064	0.513
3.26073	0.511
3.30082	0.493
3.34091	0.35
3.38099	0.328
3.42108	0.348
3.46117	0.43
3.50126	0.481
3.54135	0.501
3.58143	0.513
3.62152	0.518
3.66161	0.52
3.7017	0.533
3.74179	0.535
3.78187	0.54
3.82196	0.546
3.86205	0.548
3.90214	0.555
3.94223	0.56
3.98231	0.57
4.0224	0.575
4.06249	0.58
4.10258	0.578
4.14267	0.578
4.18275	0.581
4.22284	0.595
4.26293	0.626
4.30302	0.653
4.34311	0.635
4.38319	0.606
4.42328	0.601
4.46337	0.608
4.50346	0.613
4.54355	0.618
4.58363	0.623
4.62372	0.625
4.66381	0.63
4.7039	0.631
4.74399	0.635
4.78407	0.641
4.82416	0.646
4.86425	0.65
4.90434	0.653
4.94443	0.655
4.98451	0.655
5.0246	0.66
5.06469	0.66
5.10478	0.661
5.14487	0.663
5.18496	0.666
5.22504	0.668
5.26513	0.668
5.30522	0.668
5.34531	0.668
5.3854	0.666
5.42548	0.666
5.46557	0.665
5.50566	0.661
5.54575	0.65
5.58584	0.605
5.62592	0.5
5.66601	0.563
5.7061	0.506
5.74619	0.275
5.78628	0.343
5.82636	0.565
5.86645	0.598
5.90654	0.633
5.94663	0.64
5.98672	0.651
6.0268	0.665
6.06689	0.675
6.10698	0.673
6.14707	0.676
6.18716	0.681
6.22724	0.688
6.26733	0.696
6.30742	0.708
6.34751	0.713
6.3876	0.72
6.42768	0.726
6.46777	0.73
6.50786	0.731
6.54795	0.733
6.58804	0.731
6.62812	0.728
6.66821	0.701
6.7083	0.606
6.74839	0.598
6.78848	0.585
6.82856	0.556
6.86865	0.553
6.90874	0.54
6.94883	0.601
6.98892	0.61
7.029	0.608
7.06909	0.608
7.10918	0.606
7.14927	0.541
7.18936	0.515
7.22944	0.531
7.26953	0.518
7.30962	0.54
7.34971	0.635
7.3898	0.651
7.42989	0.653
7.46997	0.665
7.51006	0.658
7.55015	0.6
7.59024	0.556
7.63033	0.54
7.67041	0.52
7.7105	0.461
7.75059	0.433
7.79068	0.41
7.83077	0.36
7.87085	0.306
7.91094	0.255
7.95103	0.22
7.99112	0.205
8.03121	0.22
8.07129	0.251
8.11138	0.266
8.15147	0.295
8.19156	0.345
8.23165	0.36
8.27173	0.361
8.31182	0.36
8.35191	0.355
8.392	0.331
8.43209	0.308
8.47217	0.303
8.51226	0.301
8.55235	0.305
8.59244	0.361
8.63253	0.44
8.67261	0.505
8.7127	0.535
8.75279	0.541
8.79288	0.543
8.83297	0.548
8.87305	0.548
8.91314	0.536
8.95323	0.508
8.99332	0.47
9.03341	0.411
9.07349	0.36
9.11358	0.358
9.15367	0.365
9.19376	0.361
9.23385	0.33
9.27393	0.298
9.31402	0.261
9.35411	0.22
9.3942	0.18
9.43429	0.156
9.47438	0.15
9.51446	0.146
9.55455	0.136
9.59464	0.126
9.63473	0.121
9.67482	0.121
9.7149	0.121
9.75499	0.131
9.79508	0.171
9.83517	0.195
9.87526	0.215
9.91534	0.256
9.95543	0.303
9.99552	0.335
10.0356	0.335
10.0757	0.32
10.1158	0.298
10.1559	0.273
10.196	0.251
10.236	0.236
10.2761	0.23
10.3162	0.228
10.3563	0.228
10.3964	0.231
10.4365	0.238
10.4766	0.255
10.5167	0.28
10.5568	0.3
10.5968	0.325
10.6369	0.346
10.677	0.376
10.7171	0.416
10.7572	0.455
10.7973	0.508
10.8374	0.551
10.8775	0.595
10.9175	0.615
10.9576	0.645
10.9977	0.653
11.0378	0.67
11.0779	0.68
11.118	0.688
11.1581	0.695
11.1982	0.7
11.2382	0.706
11.2783	0.716
11.3184	0.721
11.3585	0.725
11.3986	0.728
11.4387	0.728
11.4788	0.726
11.5189	0.723
11.559	0.715
11.599	0.708
11.6391	0.705
11.6792	0.703
11.7193	0.703
11.7594	0.7
11.7995	0.698
11.8396	0.678
11.8797	0.673
11.9197	0.665
11.9598	0.658
11.9999	0.651
12.04	0.645
12.0801	0.638
12.1202	0.628
12.1603	0.621
12.2004	0.611
12.2404	0.598
12.2805	0.591
12.3206	0.576
12.3607	0.561
12.4008	0.541
12.4409	0.518
12.481	0.501
12.5211	0.488
12.5612	0.48
12.6012	0.481
12.6413	0.49
12.6814	0.511
12.7215	0.531
12.7616	0.546
12.8017	0.561
12.8418	0.578
12.8819	0.59
12.9219	0.603
12.962	0.618
13.0021	0.635
13.0422	0.648
13.0823	0.66
13.1224	0.67
13.1625	0.675
13.2026	0.678
13.2427	0.678
13.2827	0.678
13.3228	0.676
13.3629	0.675
13.403	0.675
13.4431	0.675
13.4832	0.678
13.5233	0.683
13.5634	0.691
13.6034	0.696
13.6435	0.7
13.6836	0.7
13.7237	0.7
13.7638	0.7
13.8039	0.701
13.844	0.701
13.8841	0.698
13.9241	0.695
13.9642	0.69
14.0043	0.685
14.0444	0.676
14.0845	0.671
14.1246	0.67
14.1647	0.665
14.2048	0.661
14.2449	0.661
14.2849	0.656
14.325	0.655
14.3651	0.655
14.4052	0.653
14.4453	0.653
14.4854	0.65
14.5255	0.65
14.5656	0.648
14.6056	0.645
14.6457	0.641
14.6858	0.64
14.7259	0.633
14.766	0.628
14.8061	0.623
14.8462	0.618
14.8863	0.608
14.9263	0.593
14.9664	0.586
15.0065	0.581
15.0466	0.581
15.0867	0.581
15.1268	0.581
15.1669	0.576
15.207	0.573
15.2471	0.563
15.2871	0.56
15.3272	0.555
15.3673	0.55
15.4074	0.548
15.4475	0.548
15.4876	0.545
15.5277	0.541
15.5678	0.538
15.6078	0.535
15.6479	0.531
15.688	0.53
15.7281	0.528
15.7682	0.526
15.8083	0.525
15.8484	0.521
15.8885	0.52
15.9285	0.518
15.9686	0.518
