Infrared Spectrum: PENTANAMINE, N-PENTYL-, HYDROCHLORIDE
Formula: C10 H24 Cl N
CAS: 23307-02-0
State: SOLID (KBr DISC, 0.8% WT.)
Class: COBLENTZ III
Instrument: PERKIN-ELMER 157
Sampling: TRANSMISSION
Resolution: 2
Origin: BRITISH PETROLEUM CO. LTD., ENGLAND
1/CM	TRANSMITTANCE
667	0.9334
676	0.9135
685	0.8937
694	0.8709
703	0.8485
712	0.8249
721	0.776
730	0.6005
739	0.6221
748	0.6551
757	0.675
766	0.619
775	0.5464
784	0.6171
793	0.6748
802	0.6801
811	0.6744
820	0.6409
829	0.6014
838	0.6021
847	0.6381
856	0.6445
865	0.6567
874	0.6575
883	0.6539
892	0.6266
901	0.6417
910	0.6413
919	0.6367
928	0.6401
937	0.6422
946	0.6378
955	0.6195
964	0.5898
973	0.5712
982	0.5465
991	0.4935
1000	0.443
1009	0.4508
1018	0.4733
1027	0.482
1036	0.521
1045	0.4838
1054	0.448
1063	0.5462
1072	0.5937
1081	0.6243
1090	0.624
1099	0.588
1108	0.5616
1117	0.5716
1126	0.6056
1135	0.5971
1144	0.5596
1153	0.5624
1162	0.5667
1171	0.5615
1180	0.6
1189	0.6261
1198	0.6263
1207	0.6259
1216	0.625
1225	0.62
1234	0.6037
1243	0.5831
1252	0.5783
1261	0.5669
1270	0.56
1279	0.5546
1288	0.5419
1297	0.5425
1306	0.518
1315	0.4993
1324	0.4957
1333	0.4672
1342	0.4371
1351	0.473
1360	0.4651
1369	0.3354
1378	0.2671
1387	0.2733
1396	0.3388
1405	0.3236
1414	0.2707
1423	0.2699
1432	0.208
1441	0.1419
1450	0.1063
1459	0.0793
1468	0.0839
1477	0.1442
1486	0.2439
1495	0.3627
1504	0.4024
1513	0.4211
1522	0.4222
1531	0.4207
1540	0.4206
1549	0.4138
1558	0.3997
1567	0.3763
1576	0.3142
1585	0.2698
1594	0.2636
1603	0.3212
1612	0.3831
1621	0.4393
1630	0.4535
1639	0.4692
1648	0.48
1657	0.4965
1666	0.4963
1675	0.4985
1684	0.4993
1693	0.5001
1702	0.5019
1711	0.5051
1720	0.5102
1729	0.5145
1738	0.5161
1747	0.5156
1756	0.5147
1765	0.5138
1774	0.5119
1783	0.5091
1792	0.5051
1801	0.4951
1810	0.4896
1819	0.4881
1828	0.4874
1837	0.4876
1846	0.4899
1855	0.494
1864	0.5015
1873	0.5075
1882	0.5111
1891	0.5126
1900	0.5128
1909	0.513
1918	0.5133
1927	0.5136
1936	0.5137
1945	0.5137
1954	0.5135
1963	0.5134
1972	0.5133
1981	0.5133
1990	0.5133
1999	0.5132
2008	0.5129
2017	0.5126
2026	0.5122
2035	0.512
2044	0.5118
2053	0.5115
2062	0.5113
2071	0.5109
2080	0.5105
2089	0.5101
2098	0.5095
2107	0.5088
2116	0.5081
2125	0.5073
2134	0.5064
2143	0.5036
2152	0.5015
2161	0.5012
2170	0.5011
2179	0.5008
2188	0.4997
2197	0.4958
2206	0.4908
2215	0.4883
2224	0.4879
2233	0.4875
2242	0.4876
2251	0.4873
2260	0.4845
2269	0.4792
2278	0.4773
2287	0.4764
2296	0.4747
2305	0.4683
2314	0.4579
2323	0.4357
2332	0.4137
2341	0.3957
2350	0.3794
2359	0.3659
2368	0.3541
2377	0.3389
2386	0.3225
2395	0.2671
2404	0.2452
2413	0.2275
2422	0.2256
2431	0.2295
2440	0.2373
2449	0.237
2458	0.233
2467	0.2295
2476	0.2297
2485	0.2321
2494	0.2373
2503	0.2367
2512	0.2344
2521	0.2302
2530	0.2255
2539	0.2199
2548	0.2121
2557	0.2025
2566	0.2009
2575	0.1998
2584	0.1981
2593	0.1945
2602	0.1834
2611	0.1739
2620	0.1631
2629	0.1533
2638	0.1439
2647	0.1319
2656	0.116
2665	0.1006
2674	0.0862
2683	0.0726
2692	0.064
2701	0.0553
2710	0.0464
2719	0.0389
2728	0.0345
2737	0.0324
2746	0.0319
2755	0.0316
2764	0.0315
2773	0.0314
2782	0.0313
2791	0.0314
2800	0.0317
2809	0.0324
2818	0.0329
2827	0.0334
2836	0.0338
2845	0.0338
2854	0.0334
2863	0.033
2872	0.0322
2881	0.0314
2890	0.0296
2899	0.0275
2908	0.0253
2917	0.0236
2926	0.0226
2935	0.0222
2944	0.022
2953	0.0221
2962	0.0222
2971	0.0226
2980	0.023
2989	0.0241
2998	0.0253
3007	0.0275
3016	0.031
3025	0.036
3034	0.0426
3043	0.0507
3052	0.062
3061	0.0706
3070	0.0788
3079	0.0868
3088	0.0934
3097	0.1004
3106	0.1081
3115	0.113
3124	0.1165
3133	0.1182
3142	0.1196
3151	0.1233
3160	0.133
3169	0.1408
3178	0.1474
3187	0.1544
3196	0.1608
3205	0.1662
3214	0.1711
3223	0.1744
3232	0.1767
3241	0.1778
3250	0.1787
3259	0.1794
3268	0.1799
3277	0.1802
3286	0.1802
3295	0.1803
3304	0.1803
3313	0.1803
3322	0.1801
3331	0.1799
3340	0.1797
3349	0.1796
3358	0.1794
3367	0.1792
3376	0.179
3385	0.1789
3394	0.1787
3403	0.1787
3412	0.1786
3421	0.1786
3430	0.1786
3439	0.1788
3448	0.1789
3457	0.1791
3466	0.1793
3475	0.1795
3484	0.1797
3493	0.1799
3502	0.1801
3511	0.1803
3520	0.1808
3529	0.1812
3538	0.1817
3547	0.1821
3556	0.1822
3565	0.1825
3574	0.1827
3583	0.1828
3592	0.1829
3601	0.1829
3610	0.1829
3619	0.183
3628	0.183
3637	0.183
3646	0.1829
3655	0.1829
3664	0.1829
3673	0.1829
3682	0.183
3691	0.183
3700	0.1828
3709	0.1826
3718	0.1823
3727	0.1821
3736	0.1819
3745	0.1817
3754	0.1815
3763	0.1814
3772	0.1814
3781	0.1813
3790	0.1813
3799	0.1813
3808	0.1814
3817	0.1814
3826	0.1813
3835	0.1812
3844	0.1812
3853	0.1811
3862	0.1811
3871	0.181
3880	0.181
3889	0.1809
3898	0.1805
3907	0.18
3916	0.1795
3925	0.1786
3934	0.1774
3943	0.1762
3952	0.1746
3961	0.1732
3970	0.1722
3979	0.1712
3988	0.1702
3997	0.1693
