Infrared Spectrum: Triamylamine, hydrochloride
Formula: C15 H34 Cl N
CAS: 23307-03-1
State: LIQUID (NEAT)
Class: COBLENTZ III
Instrument: PERKIN-ELMER 157
Sampling: TRANSMISSION
Resolution: 2
Origin: BRITISH PETROLEUM CO. LTD., ENGLAND
1/CM	TRANSMITTANCE
668	0.7801
677	0.7986
686	0.7993
695	0.7992
704	0.7805
713	0.7026
722	0.4864
731	0.1637
740	0.2903
749	0.5047
758	0.5526
767	0.4542
776	0.4263
785	0.581
794	0.7143
803	0.7473
812	0.7184
821	0.6676
830	0.6261
839	0.5584
848	0.5031
857	0.5054
866	0.5347
875	0.5621
884	0.5961
893	0.5931
902	0.6418
911	0.6612
920	0.6601
929	0.635
938	0.5782
947	0.4214
956	0.3361
965	0.3527
974	0.3859
983	0.4308
992	0.4248
1001	0.384
1010	0.3729
1019	0.352
1028	0.3381
1037	0.3157
1046	0.2235
1055	0.1767
1064	0.2524
1073	0.3421
1082	0.4805
1091	0.5754
1100	0.568
1109	0.3509
1118	0.4275
1127	0.5716
1136	0.5291
1145	0.4641
1154	0.4634
1163	0.4759
1172	0.528
1181	0.6056
1190	0.5937
1199	0.5193
1208	0.465
1217	0.4634
1226	0.483
1235	0.4831
1244	0.4494
1253	0.4368
1262	0.4731
1271	0.433
1280	0.3833
1289	0.3608
1298	0.3517
1307	0.3207
1316	0.2944
1325	0.2693
1334	0.2648
1343	0.2548
1352	0.2534
1361	0.2095
1370	0.1183
1379	0.033
1388	0.0872
1397	0.1215
1406	0.126
1415	0.1114
1424	0.063
1433	0.0268
1442	0.0183
1451	0.0161
1460	0.0179
1469	0.0246
1478	0.0355
1487	0.1321
1496	0.3687
1505	0.4849
1514	0.5093
1523	0.5383
1532	0.5501
1541	0.5593
1550	0.5805
1559	0.5984
1568	0.602
1577	0.6023
1586	0.6017
1595	0.6007
1604	0.5985
1613	0.5807
1622	0.5707
1631	0.5654
1640	0.5619
1649	0.5502
1658	0.5462
1667	0.5787
1676	0.6172
1685	0.6196
1694	0.6193
1703	0.6186
1712	0.6421
1721	0.6706
1730	0.7471
1739	0.7702
1748	0.7734
1757	0.7748
1766	0.7933
1775	0.7965
1784	0.8104
1793	0.8138
1802	0.8076
1811	0.8013
1820	0.7992
1829	0.7987
1838	0.7986
1847	0.7977
1856	0.7933
1865	0.7836
1874	0.7783
1883	0.7749
1892	0.7639
1901	0.7596
1910	0.7572
1919	0.7475
1928	0.7333
1937	0.7141
1946	0.695
1955	0.6776
1964	0.6658
1973	0.6475
1982	0.6249
1991	0.6063
2000	0.5854
2009	0.5623
2018	0.5377
2027	0.5211
2036	0.4932
2045	0.4664
2054	0.4305
2063	0.399
2072	0.3745
2081	0.3431
2090	0.3198
2099	0.2957
2108	0.2727
2117	0.2436
2126	0.2147
2135	0.186
2144	0.1544
2153	0.1345
2162	0.1177
2171	0.0998
2180	0.086
2189	0.068
2198	0.0508
2207	0.0394
2216	0.0374
2225	0.0344
2234	0.0237
2243	0.018
2252	0.0168
2261	0.0166
2270	0.0165
2279	0.0165
2288	0.0164
2297	0.0165
2306	0.0165
2315	0.0166
2324	0.0166
2333	0.0165
2342	0.0164
2351	0.0163
2360	0.0163
2369	0.0163
2378	0.0162
2387	0.0161
2396	0.016
2405	0.0159
2414	0.0158
2423	0.0157
2432	0.0156
2441	0.0157
2450	0.016
2459	0.0164
2468	0.0167
2477	0.0168
2486	0.017
2495	0.0174
2504	0.0184
2513	0.0213
2522	0.0244
2531	0.0272
2540	0.0278
2549	0.0282
2558	0.0284
2567	0.0287
2576	0.029
2585	0.0295
2594	0.03
2603	0.0319
2612	0.0365
2621	0.0374
2630	0.0389
2639	0.0459
2648	0.0506
2657	0.0535
2666	0.0538
2675	0.0549
2684	0.0593
2693	0.066
2702	0.0725
2711	0.079
2720	0.0852
2729	0.0912
2738	0.0966
2747	0.1018
2756	0.1053
2765	0.1064
2774	0.1062
2783	0.0974
2792	0.0826
2801	0.0679
2810	0.0532
2819	0.0386
2828	0.0241
2837	0.0185
2846	0.0186
2855	0.0194
2864	0.0213
2873	0.0236
2882	0.0257
2891	0.0269
2900	0.0275
2909	0.0276
2918	0.0278
2927	0.028
2936	0.0284
2945	0.0294
2954	0.0331
2963	0.0746
2972	0.1204
2981	0.166
2990	0.2114
2999	0.2564
3008	0.3012
3017	0.3456
3026	0.3898
3035	0.4338
3044	0.488
3053	0.5094
3062	0.5202
3071	0.5335
3080	0.5494
3089	0.5599
3098	0.5692
3107	0.5764
3116	0.582
3125	0.585
3134	0.5876
3143	0.5892
3152	0.5905
3161	0.5917
3170	0.5929
3179	0.5935
3188	0.5941
3197	0.5947
3206	0.5952
3215	0.5952
3224	0.5952
3233	0.5952
3242	0.5952
3251	0.5942
3260	0.5925
3269	0.5898
3278	0.5845
3287	0.5793
3296	0.5732
3305	0.567
3314	0.5599
3323	0.5455
3332	0.5345
3341	0.5251
3350	0.5154
3359	0.5051
3368	0.4945
3377	0.4895
3386	0.4881
3395	0.4875
3404	0.4871
3413	0.4868
3422	0.4865
3431	0.4864
3440	0.4864
3449	0.4874
3458	0.4887
3467	0.4956
3476	0.5263
3485	0.5578
3494	0.589
3503	0.6202
3512	0.6512
3521	0.6819
3530	0.7126
3539	0.743
3548	0.7727
3557	0.7886
3566	0.7988
3575	0.8116
3584	0.8279
3593	0.8358
3602	0.8398
3611	0.8416
3620	0.8427
3629	0.8434
3638	0.8438
3647	0.844
3656	0.8441
3665	0.8441
3674	0.8442
3683	0.8441
3692	0.8437
3701	0.8432
3710	0.8421
3719	0.8408
3728	0.8388
3737	0.8361
3746	0.8339
3755	0.8319
3764	0.8299
3773	0.8278
3782	0.8255
3791	0.8231
3800	0.8208
3809	0.8185
3818	0.8165
3827	0.8147
3836	0.8128
3845	0.811
3854	0.8093
3863	0.8076
3872	0.806
3881	0.805
3890	0.8042
3899	0.8032
3908	0.8023
3917	0.8015
3926	0.8007
3935	0.7997
3944	0.7985
3953	0.7975
3962	0.7963
3971	0.7952
3980	0.7942
3989	0.7931
3998	0.7924
