Infrared Spectrum: Methyl-2-butynoate
Formula: C 5 H 6 O 2
CAS: 23326-27-4
State: gas
Instrument: HP-GC/MS/IRD
Origin: NIST Mass Spectrometry Data Center
1/CM	ABSORBANCE
550	0.000441
562	0.0005047
574	0.0003136
586	9.8e-05
598	1.47e-05
610	5.88e-05
622	9.8e-05
634	0.0001176
646	0.0002107
658	0.0002156
670	0.0002695
682	0.000245
694	0.0001225
706	0.0001225
718	0.0001666
730	0.0004557
742	0.0009996
754	0.0017983
766	0.0014847
778	0.0010633
790	0.0009457
802	0.0016611
814	0.0016219
826	0.0008085
838	0.0003479
850	0.0002695
862	0.0002107
874	0.0001176
886	8.33e-05
898	7.84e-05
910	0.0001617
922	0.0002793
934	0.0005684
946	0.0007203
958	0.0007252
970	0.0006615
982	0.0004704
994	0.0003577
1006	0.0003332
1018	0.0004557
1030	0.0008036
1042	0.0016562
1054	0.0043708
1066	0.0099519
1078	0.0111671
1090	0.0051107
1102	0.0016268
1114	0.0009555
1126	0.0007252
1138	0.0008232
1150	0.0010094
1162	0.0012936
1174	0.0013524
1186	0.0014014
1198	0.0017248
1210	0.0032095
1222	0.0079233
1234	0.0198254
1246	0.0408807
1258	0.0482111
1270	0.0289835
1282	0.0093737
1294	0.0043463
1306	0.0021217
1318	0.0012691
1330	0.0012691
1342	0.001372
1354	0.0012887
1366	0.0011074
1378	0.0009506
1390	0.0008869
1402	0.0010094
1414	0.0013671
1426	0.0026754
1438	0.0041503
1450	0.0027097
1462	0.0013132
1474	0.0010388
1486	0.0008526
1498	0.000784
1510	0.0007203
1522	0.0006223
1534	0.0005733
1546	0.0004802
1558	0.0004263
1570	0.0004263
1582	0.0004165
1594	0.0003969
1606	0.0003822
1618	0.0003969
1630	0.0004753
1642	0.0005537
1654	0.0004851
1666	0.0004998
1678	0.0007693
1690	0.0015288
1702	0.00343
1714	0.007742
1726	0.0163415
1738	0.0220598
1750	0.0215306
1762	0.0100989
1774	0.0035721
1786	0.0010094
1798	0.0004067
1810	0.0002989
1822	0.0003283
1834	0.000294
1846	0.0002352
1858	0.0002156
1870	0.0002107
1882	0.0002205
1894	0.0002107
1906	0.000147
1918	0.0001274
1930	8.82e-05
1942	9.31e-05
1954	8.82e-05
1966	9.8e-05
1978	0.0001323
1990	0.0002156
2002	0.0003528
2014	0.0004165
2026	0.0003969
2038	0.0003577
2050	0.0003528
2062	0.0003332
2074	0.000245
2086	0.0001372
2098	0.0001078
2110	8.82e-05
2122	9.8e-05
2134	0.000147
2146	0.0001911
2158	0.0002205
2170	0.0003087
2182	0.000539
2194	0.0009212
2206	0.0016023
2218	0.0029449
2230	0.0053851
2242	0.0079429
2254	0.007105
2266	0.0030919
2278	0.0009163
2290	0.0005978
2302	0.0007007
2314	0.0009653
2326	0.0011123
2338	0.0009065
2350	0.0004802
2362	0.0003087
2374	0.0002401
2386	0.0001274
2398	0.0001127
2410	8.82e-05
2422	8.82e-05
2434	0.0001029
2446	0.000147
2458	0.0001421
2470	0.0001274
2482	0.0001078
2494	0.0001274
2506	0.0001225
2518	8.33e-05
2530	6.86e-05
2542	3.43e-05
2554	1.96e-05
2566	4.9e-06
2578	1.96e-05
2590	2.45e-05
2602	3.43e-05
2614	3.92e-05
2626	3.43e-05
2638	1.47e-05
2650	1.47e-05
2662	3.92e-05
2674	4.9e-05
2686	7.35e-05
2698	8.33e-05
2710	9.8e-05
2722	0.0001078
2734	9.31e-05
2746	9.8e-05
2758	4.41e-05
2770	5.39e-05
2782	5.88e-05
2794	6.86e-05
2806	8.82e-05
2818	0.0001568
2830	0.0002695
2842	0.0006419
2854	0.0007693
2866	0.0006762
2878	0.0005929
2890	0.0005929
2902	0.0007203
2914	0.0008526
2926	0.0014014
2938	0.0019404
2950	0.002891
2962	0.0034594
2974	0.0024794
2986	0.001274
2998	0.001225
3010	0.0012691
3022	0.0012299
3034	0.0010143
3046	0.0008428
3058	0.0005537
3070	0.0004459
3082	0.0003577
3094	0.0002744
3106	0.0002842
3118	0.0002254
3130	0.0001813
3142	8.82e-05
3154	0.0001323
3166	5.88e-05
3178	8.82e-05
3190	6.86e-05
3202	4.9e-05
3214	5.39e-05
3226	8.33e-05
3238	4.41e-05
3250	6.86e-05
3262	4.41e-05
3274	1.47e-05
3286	4.41e-05
3298	1.96e-05
3310	5.88e-05
3322	6.86e-05
3334	0.0001078
3346	4.9e-06
3358	5.88e-05
3370	5.88e-05
3382	5.88e-05
3394	4.41e-05
3406	7.35e-05
3418	7.84e-05
3430	0.0001372
3442	0.0002499
3454	0.0003234
3466	0.0003871
3478	0.0002646
3490	0.0001666
3502	0.0001225
3514	7.35e-05
3526	7.84e-05
3538	6.86e-05
3550	6.37e-05
3562	9.31e-05
3574	7.84e-05
3586	8.33e-05
3598	3.43e-05
3610	3.92e-05
3622	3.43e-05
3634	5.39e-05
3646	2.94e-05
3658	3.43e-05
3670	6.37e-05
3682	4.9e-05
3694	3.43e-05
3706	6.37e-05
3718	6.37e-05
3730	2.45e-05
3742	3.92e-05
3754	6.37e-05
3766	9.8e-06
3778	8.33e-05
3790	2.94e-05
3802	4.41e-05
3814	3.92e-05
3826	4.41e-05
3838	4.9e-05
