Infrared Spectrum: N,N'-Di-n-Propyl-1,4-butanediamine
Formula: C 10 H 24 N 2
CAS: 23346-57-8
State: gas
Origin: EPA-IR VAPOR PHASE LIBRARY
1/CM	ABSORBANCE
549.9	0.0005734
559.547	0.0007593
569.193	0.0007118
578.84	0.000611
588.486	0.0009099
598.133	0.0008436
607.779	0.0010673
617.426	0.0012757
627.072	0.001448
636.719	0.001778
646.365	0.002098
656.012	0.002518
665.658	0.002708
675.305	0.002978
684.951	0.003158
694.598	0.003168
704.245	0.003038
713.891	0.002888
723.538	0.002428
733.184	0.002148
742.831	0.001858
752.477	0.001738
762.124	0.001608
771.77	0.001508
781.417	0.001378
791.063	0.001145
800.71	0.0011031
810.356	0.0009994
820.003	0.0009814
829.649	0.0009089
839.296	0.000997
848.943	0.0009672
858.589	0.0010306
868.236	0.0010204
877.882	0.0010707
887.529	0.0011074
897.175	0.0011048
906.822	0.0010215
916.468	0.0010205
926.115	0.000921
935.761	0.0009663
945.408	0.0009315
955.054	0.0009217
964.701	0.0009374
974.347	0.0010016
983.994	0.0011517
993.64	0.0011801
1003.29	0.0011655
1012.93	0.0012635
1022.58	0.001378
1032.23	0.001508
1041.87	0.001618
1051.52	0.001688
1061.17	0.001998
1070.81	0.002248
1080.46	0.002368
1090.11	0.002618
1099.75	0.002998
1109.4	0.003668
1119.05	0.005368
1128.69	0.007728
1138.34	0.007878
1147.99	0.005398
1157.63	0.003398
1167.28	0.002198
1176.92	0.001628
1186.57	0.001448
1196.22	0.001468
1205.86	0.001368
1215.51	0.0012233
1225.16	0.001458
1234.8	0.0012744
1244.45	0.0013555
1254.1	0.0013508
1263.74	0.0013081
1273.39	0.0013162
1283.04	0.001378
1292.68	0.001498
1302.33	0.001638
1311.98	0.001648
1321.62	0.001668
1331.27	0.002208
1340.92	0.002868
1350.56	0.003098
1360.21	0.003258
1369.86	0.003088
1379.5	0.002998
1389.15	0.002368
1398.79	0.001678
1408.44	0.001498
1418.09	0.001578
1427.73	0.002258
1437.38	0.003618
1447.03	0.005198
1456.67	0.006568
1466.32	0.006318
1475.97	0.004358
1485.61	0.002498
1495.26	0.001558
1504.91	0.0011083
1514.55	0.0009045
1524.2	0.0008309
1533.85	0.0006916
1543.49	0.0006136
1553.14	0.0006021
1562.79	0.0006017
1572.43	0.0005834
1582.08	0.0005782
1591.73	0.0006038
1601.37	0.0006265
1611.02	0.0005525
1620.67	0.0005738
1630.31	0.0005104
1639.96	0.0004679
1649.6	0.00044318
1659.25	0.0005562
1668.9	0.0005344
1678.54	0.0005275
1688.19	0.0005144
1697.84	0.00045533
1707.48	0.00042127
1717.13	0.00038079
1726.78	0.0003808
1736.42	0.00035177
1746.07	0.00039785
1755.72	0.00044298
1765.36	0.0004832
1775.01	0.0004822
1784.66	0.000491
1794.3	0.0004898
1803.95	0.0005248
1813.6	0.0004773
1823.24	0.0004871
1832.89	0.0004898
1842.54	0.0004614
1852.18	0.00043069
1861.83	0.0004687
1871.47	0.00043932
1881.12	0.00041729
1890.77	0.00038561
1900.41	0.00043199
1910.06	0.00042045
1919.71	0.000363716
1929.35	0.00040911
1939	0.00037581
1948.65	0.00039194
1958.29	0.000364021
1967.94	0.00040846
1977.59	0.00040284
1987.23	0.00039268
1996.88	0.00041058
2006.53	0.00039039
2016.17	0.00041604
2025.82	0.00042605
2035.47	0.00043527
2045.11	0.00042532
2054.76	0.00045461
2064.41	0.00043247
2074.05	0.00044353
2083.7	0.00043152
2093.35	0.0004405
2102.99	0.0003958
2112.64	0.0004621
2122.28	0.00038865
2131.93	0.0004056
2141.58	0.00042591
2151.22	0.00038605
2160.87	0.00037507
2170.52	0.00038885
2180.16	0.00037979
2189.81	0.000359832
2199.46	0.00039355
2209.1	0.00039742
2218.75	0.00041092
2228.4	0.00041214
2238.04	0.00039741
2247.69	0.0003565
2257.34	0.00037231
2266.98	0.00040096
2276.63	0.000358275
2286.28	0.0003397
2295.92	0.00039461
2305.57	0.00037414
2315.22	0.000361255
2324.86	0.00040707
2334.51	0.000363003
2344.16	0.00035508
2353.8	0.00038403
2363.45	0.00039538
2373.09	0.000360299
2382.74	0.00039108
2392.39	0.000365691
2402.03	0.00039927
2411.68	0.00037896
2421.33	0.00039436
2430.97	0.00035308
2440.62	0.00040078
2450.27	0.00038726
2459.91	0.00037718
2469.56	0.00037697
2479.21	0.00039344
2488.85	0.0003696
2498.5	0.00044018
2508.15	0.00045713
2517.79	0.00045113
2527.44	0.0004779
2537.09	0.0004647
2546.73	0.0004791
2556.38	0.000569
2566.03	0.0005774
2575.67	0.0005522
2585.32	0.0006322
2594.96	0.0006467
2604.61	0.0007317
2614.26	0.0007106
2623.9	0.0007837
2633.55	0.0008379
2643.2	0.0009616
2652.84	0.0010526
2662.49	0.0012032
2672.14	0.0013347
2681.78	0.001438
2691.43	0.001578
2701.08	0.001678
2710.72	0.001728
2720.37	0.002008
2730.02	0.002228
2739.66	0.002478
2749.31	0.002688
2758.96	0.002978
2768.6	0.003388
2778.25	0.004018
2787.9	0.005348
2797.54	0.007568
2807.19	0.010008
2816.84	0.011578
2826.48	0.010798
2836.13	0.009288
2845.77	0.008718
2855.42	0.009688
2865.07	0.010908
2874.71	0.011608
2884.36	0.012708
2894.01	0.012438
2903.65	0.013008
2913.3	0.015618
2922.95	0.020438
2932.59	0.024918
2942.24	0.023538
2951.89	0.017898
2961.53	0.015968
2971.18	0.015218
2980.83	0.009848
2990.47	0.005198
3000.12	0.003048
3009.77	0.002128
3019.41	0.001618
3029.06	0.0012162
3038.71	0.0011096
3048.35	0.0008547
3058	0.0008472
3067.64	0.0007311
3077.29	0.0006721
3086.94	0.0008558
3096.58	0.000744
3106.23	0.0006351
3115.88	0.00041571
3125.52	0.00037451
3135.17	0.0003978
3144.82	0.00035251
3154.46	0.000359167
3164.11	0.000357087
3173.76	0.00042726
3183.4	0.00039354
3193.05	0.0002904
3202.7	0.00037151
3212.34	0.0002988
3221.99	0.000207
3231.64	0.000342
3241.28	0.000224
3250.93	0.000142
3260.58	0.000191
3270.22	9.5e-05
3279.87	0.000242
3289.52	0.0002974
3299.16	0.000212
3308.81	0.000245
3318.45	0.0003375
3328.1	0.00037331
3337.75	0.0002693
3347.39	0.00025
3357.04	0.000226
3366.69	0.00039698
3376.33	0.000242
3385.98	0.000186
3395.63	0.000226
3405.27	0.0003009
3414.92	0.000149
3424.57	0.0003143
3434.21	0.000182
3443.86	0.000185
3453.51	0.000149
3463.15	0.000166
3472.8	0.000249
3482.45	0.0002762
3492.09	0.000226
3501.74	0.000166
3511.39	0.00035108
3521.03	0.000156
3530.68	0.0003285
3540.33	0.0002
3549.97	0.000131
3559.62	0.000176
3569.26	0.0003155
3578.91	0.000233
3588.56	0.000236
3598.2	0.000208
3607.85	0.000189
3617.5	0.000216
3627.14	0.000154
3636.79	0.0002709
3646.44	0.000232
3656.08	0.0002677
3665.73	0.000313
3675.38	0.00019
3685.02	0.0003199
3694.67	0.0003087
3704.32	0.000226
3713.96	0.0002582
3723.61	0.0002601
3733.26	0.0002763
3742.9	0.000207
3752.55	0.000197
3762.2	0.0002832
3771.84	0.000255
3781.49	0.000213
3791.13	0.000255
3800.78	0.0002604
3810.43	0.000259
3820.07	0.0003347
3829.72	0.0003278
3839.37	0.0003107
3849.01	0.0002778
3858.66	0.000203
3868.31	0.000367743
3877.95	0.000171
3887.6	0.000235
3897.25	0.000241
3906.89	0.0003398
3916.54	0.0003211
3926.19	0.0003258
3935.83	0.00045158
3945.48	0.0003162
3955.13	0.0002882
3964.77	0.00035448
3974.42	0.00041804
3984.07	0.00038826
3993.71	0.0003102
