Infrared Spectrum: N-(3-Cyanophenyl)pyrrole
Formula: C 11 H 8 N 2
CAS: 23351-07-7
State: gas
Origin: EPA-IR VAPOR PHASE LIBRARY
1/CM	ABSORBANCE
549.8	0.001183
559.445	0.0010343
569.09	0.0008712
578.735	0.0008927
588.38	0.001172
598.025	0.002225
607.67	0.003115
617.315	0.003165
626.96	0.003455
636.605	0.002565
646.251	0.002055
655.896	0.002145
665.541	0.004545
675.186	0.009425
684.831	0.017075
694.476	0.013135
704.121	0.015135
713.766	0.033675
723.411	0.041485
733.056	0.020385
742.701	0.008525
752.346	0.005335
761.991	0.003505
771.636	0.004065
781.281	0.010665
790.926	0.019995
800.571	0.013095
810.216	0.011325
819.861	0.006875
829.507	0.002075
839.152	0.0010704
848.797	0.0010259
858.442	0.001289
868.087	0.002665
877.732	0.005595
887.377	0.008065
897.022	0.004635
906.667	0.001635
916.312	0.0009405
925.957	0.0010027
935.602	0.002995
945.247	0.008365
954.892	0.004295
964.537	0.001545
974.182	0.0013922
983.827	0.0013518
993.472	0.0014495
1003.12	0.0014259
1012.76	0.001925
1022.41	0.009355
1032.05	0.008655
1041.7	0.002485
1051.34	0.003935
1060.99	0.021605
1070.63	0.034585
1080.28	0.011965
1089.92	0.005405
1099.57	0.003705
1109.21	0.005585
1118.86	0.008345
1128.5	0.003605
1138.15	0.001301
1147.79	0.0008845
1157.44	0.0010258
1167.08	0.001605
1176.73	0.002115
1186.37	0.001595
1196.02	0.000901
1205.66	0.0010467
1215.31	0.0011208
1224.95	0.001555
1234.6	0.002035
1244.24	0.003065
1253.89	0.003075
1263.53	0.002295
1273.18	0.002265
1282.82	0.002405
1292.47	0.002885
1302.11	0.003775
1311.76	0.008045
1321.4	0.014925
1331.05	0.035065
1340.69	0.050435
1350.34	0.015715
1359.98	0.003705
1369.63	0.002555
1379.27	0.002785
1388.92	0.003745
1398.56	0.005645
1408.21	0.005045
1417.85	0.003995
1427.5	0.005645
1437.14	0.007455
1446.79	0.005525
1456.43	0.005735
1466.08	0.011135
1475.73	0.017745
1485.37	0.045435
1495.02	0.091575
1504.66	0.058715
1514.31	0.012625
1523.95	0.006135
1533.6	0.007405
1543.24	0.016865
1552.89	0.017235
1562.53	0.010815
1572.18	0.017275
1581.82	0.031285
1591.47	0.036135
1601.11	0.033315
1610.76	0.022285
1620.4	0.008295
1630.05	0.004095
1639.69	0.002625
1649.34	0.002395
1658.98	0.002445
1668.63	0.002865
1678.27	0.003695
1687.92	0.004625
1697.56	0.003805
1707.21	0.002285
1716.85	0.001795
1726.5	0.002665
1736.14	0.002675
1745.79	0.0012387
1755.43	0.0010967
1765.08	0.0012483
1774.72	0.0011954
1784.37	0.0011529
1794.01	0.0010979
1803.66	0.0011178
1813.3	0.0009735
1822.95	0.0007784
1832.59	0.0008311
1842.24	0.0009565
1851.88	0.000914
1861.53	0.0009892
1871.17	0.0013205
1880.82	0.0010825
1890.46	0.000793
1900.11	0.0006719
1909.75	0.00052001
1919.4	0.0006377
1929.04	0.0009664
1938.69	0.0014279
1948.33	0.0012477
1957.98	0.0007476
1967.62	0.0006385
1977.27	0.0006589
1986.91	0.00056829
1996.56	0.0005968
2006.2	0.0006105
2015.85	0.0006872
2025.49	0.00052986
2035.14	0.0005289
2044.78	0.0004398
2054.43	0.00049888
2064.07	0.00051864
2073.72	0.000493934
2083.36	0.000463
2093.01	0.0003952
2102.65	0.0004466
2112.3	0.00052811
2121.94	0.0005421
2131.59	0.0005989
2141.23	0.000659
2150.88	0.0006816
2160.52	0.00057227
2170.17	0.00058452
2179.81	0.0006738
2189.46	0.0006563
2199.1	0.0006273
2208.75	0.0006696
2218.39	0.0010504
2228.04	0.002655
2237.68	0.003465
2247.33	0.001495
2256.97	0.0007622
2266.62	0.0006677
2276.26	0.0006959
2285.91	0.0006897
2295.55	0.0006983
2305.2	0.00057697
2314.84	0.00057947
2324.49	0.00055538
2334.13	0.0006837
2343.78	0.0008122
2353.42	0.0007782
2363.07	0.0007463
2372.72	0.0006198
2382.36	0.00058431
2392.01	0.0005915
2401.65	0.00055483
2411.3	0.0007125
2420.94	0.0007124
2430.59	0.000724
2440.23	0.0008412
2449.88	0.000819
2459.52	0.0008505
2469.17	0.0009603
2478.81	0.0007094
2488.46	0.0008088
2498.1	0.0008345
2507.75	0.000711
2517.39	0.0006781
2527.04	0.0007002
2536.68	0.0006694
2546.33	0.0007484
2555.97	0.0008813
2565.62	0.0009043
2575.26	0.0009119
2584.91	0.0010205
2594.55	0.001212
2604.2	0.0011895
2613.84	0.0011617
2623.49	0.0010761
2633.13	0.0009885
2642.78	0.0009327
2652.42	0.0010391
2662.07	0.0011816
2671.71	0.0010573
2681.36	0.0008247
2691	0.0007363
2700.65	0.0007393
2710.29	0.0006402
2719.94	0.0006701
2729.58	0.0006357
2739.23	0.0007137
2748.87	0.0007132
2758.52	0.0006844
2768.16	0.000765
2777.81	0.0007993
2787.45	0.0008122
2797.1	0.0008192
2806.74	0.0008244
2816.39	0.0009421
2826.03	0.0010109
2835.68	0.0009989
2845.32	0.0008842
2854.97	0.0007067
2864.61	0.0006256
2874.26	0.0005929
2883.9	0.000494308
2893.55	0.0004049
2903.19	0.000587
2912.84	0.00051784
2922.48	0.0004994
2932.13	0.000494767
2941.77	0.0004542
2951.42	0.0004455
2961.06	0.0006344
2970.71	0.0004691
2980.35	0.0004211
2990	0.00036
2999.64	0.0004049
3009.29	0.000277
3018.93	0.00052377
3028.58	0.00064
3038.22	0.0010859
3047.87	0.0014801
3057.51	0.0014763
3067.16	0.002165
3076.8	0.003155
3086.45	0.003215
3096.09	0.002015
3105.74	0.001815
3115.38	0.002545
3125.03	0.002535
3134.67	0.0013834
3144.32	0.0011833
3153.96	0.0009125
3163.61	0.000366
3173.25	0.000322
3182.9	0.000365
3192.54	0.000181
3202.19	0.000192
3211.83	0.000227
3221.48	0.000299
3231.12	0.000145
3240.77	0.000268
3250.41	0.000174
3260.06	0.000223
3269.7	0.000169
3279.35	0.000225
3289	0.00012
3298.64	0.000149
3308.29	0.000189
3317.93	0.00015
3327.58	0.000257
3337.22	0.000204
3346.87	0.000286
3356.51	0.000116
3366.16	0.000215
3375.8	6.3e-05
3385.45	1.9e-05
3395.09	0.000255
3404.74	0.000218
3414.38	0.0004569
3424.03	0.000203
3433.67	0.000285
3443.32	0.000192
3452.96	0.000227
3462.61	0.000203
3472.25	0.000135
3481.9	0.000302
3491.54	0.000102
3501.19	0.000178
3510.83	0.000117
3520.48	0.000135
3530.12	0.000239
3539.77	9.2e-05
3549.41	0.000155
3559.06	0.000196
3568.7	0.000256
3578.35	0.000251
3587.99	0.000195
3597.64	0.000141
3607.28	0.000311
3616.93	0.000238
3626.57	0.000329
3636.22	0.000211
3645.86	8.9e-05
3655.51	0.000313
3665.15	0.000181
3674.8	0.000308
3684.44	0.00023
3694.09	0.000102
3703.73	0.0004318
3713.38	0.000291
3723.02	0.00028
3732.67	0.000277
3742.31	0.000367
3751.96	0.000244
3761.6	0.00050987
3771.25	0.00053398
3780.89	0.0003913
3790.54	0.000248
3800.18	0.00019
3809.83	0.000359
3819.47	0.0004702
3829.12	0.0003992
3838.76	0.000375
3848.41	0.0004011
3858.05	0.000314
3867.7	0.000419
3877.34	0.000322
3886.99	0.000346
3896.63	0.000492063
3906.28	0.000364
3915.92	0.0005326
3925.57	0.000363
3935.21	0.000334
3944.86	0.000281
3954.5	0.000321
3964.15	0.00054338
3973.79	0.000548
3983.44	0.0009971
3993.08	0.0008011
