Infrared Spectrum: BENZIMIDAZOLE, 4-CHLORO-2-(TRIFLUOROMETHYL)-
Formula: C8 H4 Cl F3 N2
CAS: 2338-31-0
State: SOLID (KBr DISC)
Class: COBLENTZ III
Instrument: UNICAM SP-200
Sampling: TRANSMISSION
Resolution: 2
Origin: FISONS LTD., VIA S.D.C. (DR. G. T. NEWBOLD)
1/CM	TRANSMITTANCE
653.635	0.957
665.226	0.922
676.817	0.969
688.409	0.974
700	0.965
711.591	0.958
723.182	0.952
734.774	0.937
746.365	0.8101
757.956	0.235
769.547	0.919
781.138	0.957
792.73	0.5857
804.321	0.8879
815.912	0.925
827.503	0.926
839.094	0.921
850.686	0.921
862.277	0.921
873.868	0.93
885.459	0.83
897.051	0.845
908.642	0.898
920.233	0.911
931.824	0.922
943.415	0.927
955.007	0.901
966.598	0.391
978.189	0.6679
989.78	0.69
1001.37	0.735
1012.96	0.911
1024.55	0.925
1036.15	0.931
1047.74	0.919
1059.33	0.912
1070.92	0.899
1082.51	0.876
1094.1	0.845
1105.69	0.792
1117.28	0.701
1128.87	0.53
1140.47	0.2002
1152.06	0.121
1163.65	0.069
1175.24	0.084
1186.83	0.115
1198.42	0.131
1210.01	0.1809
1221.6	0.6789
1233.2	0.742
1244.79	0.752
1256.38	0.5711
1267.97	0.351
1279.56	0.332
1291.15	0.752
1302.74	0.75
1314.33	0.515
1325.93	0.204
1337.52	0.7018
1349.11	0.83
1360.7	0.851
1372.29	0.801
1383.88	0.6622
1395.47	0.414
1407.06	0.6519
1418.66	0.706
1430.25	0.76
1441.84	0.736
1453.43	0.5051
1465.02	0.261
1476.61	0.651
1488.2	0.77
1499.79	0.715
1511.39	0.779
1522.98	0.811
1534.57	0.7621
1546.16	0.506
1557.75	0.6709
1569.34	0.768
1580.93	0.498
1592.52	0.755
1604.11	0.782
1615.71	0.763
1627.3	0.783
1638.89	0.799
1650.48	0.803
1662.07	0.802
1673.66	0.802
1685.25	0.801
1696.84	0.806
1708.44	0.81
1720.03	0.806
1731.62	0.806
1743.21	0.803
1754.8	0.803
1766.39	0.815
1777.98	0.818
1789.57	0.818
1801.17	0.823
1812.76	0.817
1824.35	0.811
1835.94	0.82
1847.53	0.825
1859.12	0.83
1870.71	0.826
1882.3	0.827
1893.9	0.817
1905.49	0.81
1917.08	0.825
1928.67	0.827
1940.26	0.835
1951.85	0.835
1963.44	0.839
1975.03	0.84
1986.63	0.84
1998.22	0.837
2009.81	0.8352
2021.4	0.834
2032.99	0.8317
2044.58	0.831
2056.17	0.831
2067.76	0.831
2079.35	0.831
2090.95	0.8283
2102.54	0.8231
2114.13	0.8198
2125.72	0.817
2137.31	0.8152
2148.9	0.815
2160.49	0.814
2172.08	0.811
2183.68	0.81
2195.27	0.8089
2206.86	0.8016
2218.45	0.7983
2230.04	0.7941
2241.63	0.7896
2253.22	0.7845
2264.81	0.7795
2276.41	0.776
2288	0.771
2299.59	0.77
2311.18	0.768
2322.77	0.764
2334.36	0.764
2345.95	0.7593
2357.54	0.7541
2369.14	0.7465
2380.73	0.7341
2392.32	0.7225
2403.91	0.7106
2415.5	0.6966
2427.09	0.6757
2438.68	0.6666
2450.27	0.6609
2461.86	0.6528
2473.46	0.6383
2485.05	0.6291
2496.64	0.6051
2508.23	0.5696
2519.82	0.552
2531.41	0.55
2543	0.548
2554.59	0.5443
2566.19	0.5331
2577.78	0.5092
2589.37	0.4898
2600.96	0.454
2612.55	0.4213
2624.14	0.41
2635.73	0.4164
2647.32	0.43
2658.92	0.4157
2670.51	0.4007
2682.1	0.3913
2693.69	0.3726
2705.28	0.3566
2716.87	0.353
2728.46	0.3577
2740.05	0.3756
2751.65	0.384
2763.24	0.385
2774.83	0.385
2786.42	0.3798
2798.01	0.3551
2809.6	0.351
2821.19	0.3482
2832.78	0.3429
2844.38	0.3382
2855.97	0.334
2867.56	0.3407
2879.15	0.3617
2890.74	0.3835
2902.33	0.38
2913.92	0.3608
2925.51	0.3454
2937.1	0.341
2948.7	0.3477
2960.29	0.359
2971.88	0.3552
2983.47	0.347
2995.06	0.3421
3006.65	0.3426
3018.24	0.3509
3029.83	0.3635
3041.43	0.368
3053.02	0.3772
3064.61	0.3967
3076.2	0.4098
3087.79	0.4167
3099.38	0.4461
3110.97	0.4723
3122.56	0.4818
3134.16	0.4902
3145.75	0.5143
3157.34	0.5283
3168.93	0.539
3180.52	0.5429
3192.11	0.5516
3203.7	0.5623
3215.29	0.5772
3226.89	0.5804
3238.48	0.581
3250.07	0.582
3261.66	0.5866
3273.25	0.592
3284.84	0.593
3296.43	0.593
3308.02	0.593
3319.62	0.5956
3331.21	0.595
3342.8	0.595
3354.39	0.592
3365.98	0.5893
3377.57	0.5881
3389.16	0.5882
3400.75	0.5905
3412.34	0.592
3423.94	0.592
3435.53	0.592
3447.12	0.593
3458.71	0.596
3470.3	0.6
3481.89	0.6004
3493.48	0.601
3505.07	0.601
3516.67	0.6024
3528.26	0.6045
3539.85	0.605
3551.44	0.606
3563.03	0.608
3574.62	0.608
3586.21	0.6098
3597.8	0.612
3609.4	0.612
3620.99	0.612
3632.58	0.612
3644.17	0.612
3655.76	0.612
3667.35	0.612
3678.94	0.612
3690.53	0.612
3702.13	0.6114
3713.72	0.6083
3725.31	0.6059
3736.9	0.6036
3748.49	0.602
3760.08	0.602
3771.67	0.601
3783.26	0.602
3794.85	0.6035
3806.45	0.607
3818.04	0.601
3829.63	0.6
3841.22	0.6
3852.81	0.599
3864.4	0.5966
3875.99	0.5924
3887.58	0.5911
3899.18	0.5878
3910.77	0.586
3922.36	0.586
3933.95	0.587
3945.54	0.586
3957.13	0.5844
3968.72	0.581
3980.31	0.579
3991.91	0.578
4003.5	0.577
4015.09	0.577
4026.68	0.5782
4038.27	0.58
4049.86	0.58
4061.45	0.577
4073.04	0.577
4084.64	0.574
4096.23	0.5712
4107.82	0.571
4119.41	0.571
4131	0.571
4142.59	0.57
4154.18	0.5698
4165.77	0.5675
4177.37	0.566
4188.96	0.564
4200.55	0.562
4212.14	0.562
4223.73	0.561
4235.32	0.559
4246.91	0.558
4258.5	0.556
4270.09	0.556
4281.69	0.5572
4293.28	0.558
4304.87	0.5553
4316.46	0.555
4328.05	0.551
4339.64	0.551
4351.23	0.549
4362.82	0.5551
4374.42	0.556
4386.01	0.5544
4397.6	0.553
4409.19	0.552
4420.78	0.5515
4432.37	0.551
4443.96	0.55
4455.55	0.5477
4467.15	0.5464
4478.74	0.545
4490.33	0.5429
4501.92	0.539
4513.51	0.539
4525.1	0.537
4536.69	0.536
4548.28	0.5345
4559.88	0.532
4571.47	0.529
4583.06	0.527
4594.65	0.527
4606.24	0.528
4617.83	0.526
4629.42	0.525
4641.01	0.524
4652.61	0.524
4664.2	0.524
4675.79	0.524
4687.38	0.524
4698.97	0.524
4710.56	0.524
4722.15	0.5215
4733.74	0.521
4745.33	0.5251
4756.93	0.525
4768.52	0.524
4780.11	0.524
4791.7	0.5228
4803.29	0.521
4814.88	0.5193
4826.47	0.517
4838.06	0.5157
4849.66	0.514
4861.25	0.5132
4872.84	0.513
4884.43	0.5116
4896.02	0.5084
4907.61	0.506
4919.2	0.5058
4930.79	0.505
4942.39	0.5033
4953.98	0.501
4965.57	0.4997
4977.16	0.5
4988.75	0.5
