Infrared Spectrum: BENZIMIDAZOLE, 5,6-DICHLORO-2-(TRIFLUOROMETHYL)-
Formula: C8 H3 Cl2 F3 N2
CAS: 2338-25-2
State: SOLID (KBr DISC)
Class: COBLENTZ III
Instrument: UNICAM SP-200
Sampling: TRANSMISSION
Resolution: 2
Origin: FISONS LTD., VIA S.D.C. (DR. G. T. NEWBOLD)
1/CM	TRANSMITTANCE
651.719	0.935
663.342	0.933
674.965	0.6841
686.588	0.91
698.211	0.902
709.835	0.86
721.458	0.8
733.081	0.746
744.704	0.872
756.327	0.8209
767.95	0.861
779.573	0.848
791.196	0.817
802.82	0.805
814.443	0.821
826.066	0.863
837.689	0.875
849.312	0.867
860.935	0.5951
872.558	0.8517
884.181	0.4049
895.804	0.896
907.428	0.905
919.051	0.912
930.674	0.914
942.297	0.908
953.92	0.887
965.543	0.758
977.166	0.6395
988.789	0.7568
1000.41	0.891
1012.04	0.891
1023.66	0.882
1035.28	0.872
1046.9	0.856
1058.53	0.832
1070.15	0.814
1081.77	0.752
1093.4	0.6181
1105.02	0.4887
1116.64	0.617
1128.27	0.4301
1139.89	0.1161
1151.51	0.1209
1163.14	0.238
1174.76	0.063
1186.38	0.197
1198.01	0.115
1209.63	0.024
1221.25	0.3107
1232.87	0.326
1244.5	0.5661
1256.12	0.1899
1267.74	0.7699
1279.37	0.794
1290.99	0.6481
1302.61	0.2881
1314.24	0.6429
1325.86	0.869
1337.48	0.861
1349.11	0.806
1360.73	0.4281
1372.35	0.5127
1383.98	0.844
1395.6	0.852
1407.22	0.786
1418.84	0.4812
1430.47	0.692
1442.09	0.4071
1453.71	0.6878
1465.34	0.831
1476.96	0.6451
1488.58	0.788
1500.21	0.852
1511.83	0.852
1523.45	0.84
1535.08	0.821
1546.7	0.4941
1558.32	0.5508
1569.95	0.705
1581.57	0.87
1593.19	0.878
1604.81	0.872
1616.44	0.863
1628.06	0.869
1639.68	0.878
1651.31	0.882
1662.93	0.882
1674.55	0.88
1686.18	0.875
1697.8	0.872
1709.42	0.879
1721.05	0.875
1732.67	0.884
1744.29	0.899
1755.92	0.906
1767.54	0.912
1779.16	0.913
1790.78	0.909
1802.41	0.905
1814.03	0.91
1825.65	0.912
1837.28	0.913
1848.9	0.912
1860.52	0.91
1872.15	0.906
1883.77	0.902
1895.39	0.895
1907.02	0.898
1918.64	0.9
1930.26	0.898
1941.89	0.895
1953.51	0.893
1965.13	0.891
1976.75	0.89
1988.38	0.89
2000	0.881
2011.62	0.881
2023.25	0.8804
2034.87	0.879
2046.49	0.8781
2058.12	0.879
2069.74	0.878
2081.36	0.876
2092.99	0.874
2104.61	0.8695
2116.23	0.869
2127.85	0.8689
2139.48	0.868
2151.1	0.867
2162.72	0.8631
2174.35	0.8541
2185.97	0.85
2197.59	0.85
2209.22	0.8511
2220.84	0.852
2232.46	0.853
2244.09	0.853
2255.71	0.848
2267.33	0.8465
2278.96	0.8452
2290.58	0.84
2302.2	0.836
2313.82	0.8324
2325.45	0.831
2337.07	0.831
2348.69	0.829
2360.32	0.828
2371.94	0.826
2383.56	0.8171
2395.19	0.8002
2406.81	0.797
2418.43	0.797
2430.06	0.797
2441.68	0.7949
2453.3	0.7891
2464.93	0.7772
2476.55	0.7665
2488.17	0.757
2499.79	0.7406
2511.42	0.734
2523.04	0.734
2534.66	0.734
2546.29	0.7295
2557.91	0.718
2569.53	0.7056
2581.16	0.6778
2592.78	0.6625
2604.4	0.6557
2616.03	0.6503
2627.65	0.6378
2639.27	0.625
2650.9	0.6134
2662.52	0.5833
2674.14	0.5361
2685.76	0.5118
2697.39	0.5238
2709.01	0.5522
2720.63	0.561
2732.26	0.5478
2743.88	0.5278
2755.5	0.4879
2767.13	0.4681
2778.75	0.4393
2790.37	0.4333
2802	0.4629
2813.62	0.487
2825.24	0.4712
2836.87	0.4453
2848.49	0.4119
2860.11	0.3862
2871.73	0.3885
2883.36	0.4108
2894.98	0.418
2906.6	0.421
2918.23	0.4218
2929.85	0.4159
2941.47	0.391
2953.1	0.3776
2964.72	0.3662
2976.34	0.361
2987.97	0.36
2999.59	0.3506
3011.21	0.343
3022.83	0.3287
3034.46	0.3138
3046.08	0.3103
3057.7	0.3142
3069.33	0.318
3080.95	0.3168
3092.57	0.3105
3104.2	0.31
3115.82	0.317
3127.44	0.3463
3139.07	0.3865
3150.69	0.4087
3162.31	0.4471
3173.94	0.4749
3185.56	0.501
3197.18	0.53
3208.8	0.5608
3220.43	0.587
3232.05	0.5977
3243.67	0.6154
3255.3	0.6252
3266.92	0.6318
3278.54	0.6419
3290.17	0.6492
3301.79	0.653
3313.41	0.6548
3325.04	0.657
3336.66	0.657
3348.28	0.6557
3359.91	0.6511
3371.53	0.6488
3383.15	0.646
3394.77	0.646
3406.4	0.646
3418.02	0.646
3429.64	0.646
3441.27	0.6441
3452.89	0.641
3464.51	0.639
3476.14	0.638
3487.76	0.638
3499.38	0.639
3511.01	0.64
3522.63	0.64
3534.25	0.641
3545.88	0.641
3557.5	0.6417
3569.12	0.643
3580.74	0.644
3592.37	0.644
3603.99	0.644
3615.61	0.643
3627.24	0.644
3638.86	0.6416
3650.48	0.64
3662.11	0.639
3673.73	0.6395
3685.35	0.641
3696.98	0.6419
3708.6	0.6386
3720.22	0.635
3731.85	0.628
3743.47	0.628
3755.09	0.629
3766.71	0.629
3778.34	0.62
3789.96	0.619
3801.58	0.618
3813.21	0.619
3824.83	0.62
3836.45	0.619
3848.08	0.619
3859.7	0.6169
3871.32	0.6137
3882.95	0.6104
3894.57	0.6044
3906.19	0.5998
3917.82	0.599
3929.44	0.598
3941.06	0.597
3952.68	0.596
3964.31	0.596
3975.93	0.596
3987.55	0.5959
3999.18	0.5936
4010.8	0.5923
4022.42	0.591
4034.05	0.5897
4045.67	0.5884
4057.29	0.5852
4068.92	0.5829
4080.54	0.5806
4092.16	0.5793
4103.78	0.578
4115.41	0.5768
4127.03	0.574
4138.65	0.574
4150.28	0.574
4161.9	0.5736
4173.52	0.57
4185.15	0.5691
4196.77	0.567
4208.39	0.566
4220.02	0.565
4231.64	0.563
4243.26	0.562
4254.89	0.561
4266.51	0.5601
4278.13	0.5588
4289.75	0.5575
4301.38	0.555
4313	0.553
4324.62	0.553
4336.25	0.5514
4347.87	0.5501
4359.49	0.548
4371.12	0.547
4382.74	0.547
4394.36	0.547
4405.99	0.5457
4417.61	0.5423
4429.23	0.539
4440.86	0.5369
4452.48	0.536
4464.1	0.534
4475.72	0.533
4487.35	0.5317
4498.97	0.529
4510.59	0.528
4522.22	0.527
4533.84	0.527
4545.46	0.527
4557.09	0.527
4568.71	0.526
4580.33	0.5245
4591.96	0.5222
4603.58	0.518
4615.2	0.518
4626.83	0.518
4638.45	0.517
4650.07	0.5148
4661.69	0.513
4673.32	0.511
4684.94	0.509
4696.56	0.509
4708.19	0.508
4719.81	0.508
4731.43	0.5068
4743.06	0.505
4754.68	0.5015
4766.3	0.499
4777.93	0.4977
4789.55	0.494
4801.17	0.49
4812.8	0.488
4824.42	0.486
4836.04	0.4843
4847.66	0.483
4859.29	0.4817
4870.91	0.48
4882.53	0.48
4894.16	0.479
4905.78	0.479
4917.4	0.479
4929.03	0.479
4940.65	0.4788
4952.27	0.477
4963.9	0.476
4975.52	0.475
4987.14	0.475
