Infrared Spectrum: BENZIMIDAZOLE, 5,6-DINITRO-2-(TRIFLUOROMETHYL)-
Formula: C8 H3 F3 N4 O4
CAS: 2338-24-1
State: SOLID (KBr DISC)
Class: COBLENTZ III
Instrument: UNICAM SP-200
Sampling: TRANSMISSION
Resolution: 2
Origin: FISONS LTD., VIA S.D.C. (DR. G. T. NEWBOLD)
1/CM	TRANSMITTANCE
652.808	0.885
664.383	0.931
675.959	0.884
687.534	0.92
699.109	0.888
710.685	0.893
722.26	0.931
733.835	0.912
745.411	0.695
756.986	0.7
768.561	0.812
780.137	0.792
791.712	0.9
803.287	0.885
814.863	0.856
826.438	0.7151
838.013	0.3158
849.589	0.86
861.164	0.855
872.739	0.835
884.315	0.724
895.89	0.7
907.465	0.5951
919.041	0.6868
930.616	0.886
942.191	0.906
953.767	0.918
965.342	0.909
976.917	0.844
988.493	0.68
1000.07	0.197
1011.64	0.896
1023.22	0.909
1034.79	0.8671
1046.37	0.843
1057.94	0.876
1069.52	0.857
1081.1	0.838
1092.67	0.788
1104.25	0.69
1115.82	0.447
1127.4	0.24
1138.97	0.321
1150.55	0.1321
1162.12	0.045
1173.7	0.019
1185.27	0.026
1196.85	0.029
1208.42	0.2589
1220	0.476
1231.57	0.218
1243.15	0.4959
1254.73	0.81
1266.3	0.838
1277.88	0.669
1289.45	0.628
1301.03	0.639
1312.6	0.456
1324.18	0.17
1335.75	0.071
1347.33	0.151
1358.9	0.163
1370.48	0.3289
1382.05	0.2671
1393.63	0.394
1405.2	0.376
1416.78	0.73
1428.36	0.751
1439.93	0.61
1451.51	0.65
1463.08	0.49
1474.66	0.25
1486.23	0.2479
1497.81	0.6038
1509.38	0.642
1520.96	0.488
1532.53	0.1593
1544.11	0.042
1555.68	0.06
1567.26	0.3429
1578.83	0.652
1590.41	0.689
1601.99	0.7189
1613.56	0.8
1625.14	0.73
1636.71	0.832
1648.29	0.87
1659.86	0.897
1671.44	0.904
1683.01	0.904
1694.59	0.904
1706.16	0.91
1717.74	0.911
1729.31	0.907
1740.89	0.902
1752.46	0.895
1764.04	0.876
1775.62	0.873
1787.19	0.897
1798.77	0.91
1810.34	0.92
1821.92	0.921
1833.49	0.924
1845.07	0.925
1856.64	0.93
1868.22	0.931
1879.79	0.931
1891.37	0.935
1902.94	0.939
1914.52	0.942
1926.09	0.948
1937.67	0.952
1949.25	0.95
1960.82	0.954
1972.4	0.952
1983.97	0.951
1995.55	0.95
2007.12	0.953
2018.7	0.953
2030.27	0.9494
2041.85	0.9471
2053.42	0.9459
2065	0.9418
2076.57	0.9376
2088.15	0.937
2099.72	0.9378
2111.3	0.9365
2122.88	0.934
2134.45	0.9339
2146.03	0.9303
2157.6	0.9267
2169.18	0.9201
2180.75	0.9086
2192.33	0.9025
2203.9	0.8967
2215.48	0.888
2227.05	0.8837
2238.63	0.8804
2250.2	0.8718
2261.78	0.8522
2273.35	0.8416
2284.93	0.838
2296.51	0.832
2308.08	0.8194
2319.66	0.8119
2331.23	0.8055
2342.81	0.7989
2354.38	0.7872
2365.96	0.7803
2377.53	0.7555
2389.11	0.7154
2400.68	0.6885
2412.26	0.6716
2423.83	0.6578
2435.41	0.6178
2446.98	0.6061
2458.56	0.5944
2470.13	0.5876
2481.71	0.5776
2493.29	0.5602
2504.86	0.5348
2516.44	0.5214
2528.01	0.506
2539.59	0.4795
2551.16	0.4727
2562.74	0.4691
2574.31	0.4538
2585.89	0.43
2597.46	0.4095
2609.04	0.4009
2620.61	0.3833
2632.19	0.3737
2643.76	0.37
2655.34	0.371
2666.92	0.369
2678.49	0.3506
2690.07	0.34
2701.64	0.344
2713.22	0.3418
2724.79	0.3366
2736.37	0.3317
2747.94	0.33
2759.52	0.3344
2771.09	0.3485
2782.67	0.352
2794.24	0.3519
2805.82	0.3468
2817.39	0.3364
2828.97	0.3339
2840.55	0.3393
2852.12	0.347
2863.7	0.348
2875.27	0.348
2886.85	0.3505
2898.42	0.3598
2910	0.3801
2921.57	0.3911
2933.15	0.3926
2944.72	0.388
2956.3	0.3831
2967.87	0.3845
2979.45	0.396
2991.02	0.4155
3002.6	0.4177
3014.18	0.3869
3025.75	0.3778
3037.33	0.3779
3048.9	0.4068
3060.48	0.4275
3072.05	0.422
3083.63	0.42
3095.2	0.4501
3106.78	0.5113
3118.35	0.5586
3129.93	0.5941
3141.5	0.617
3153.08	0.6442
3164.65	0.659
3176.23	0.6783
3187.81	0.6836
3199.38	0.7099
3210.96	0.7163
3222.53	0.7194
3234.11	0.7253
3245.68	0.7279
3257.26	0.73
3268.83	0.73
3280.41	0.731
3291.98	0.7321
3303.56	0.734
3315.13	0.734
3326.71	0.7341
3338.28	0.734
3349.86	0.734
3361.44	0.7333
3373.01	0.731
3384.59	0.73
3396.16	0.729
3407.74	0.728
3419.31	0.7269
3430.89	0.726
3442.46	0.726
3454.04	0.726
3465.61	0.7283
3477.19	0.73
3488.76	0.731
3500.34	0.734
3511.91	0.7354
3523.49	0.737
3535.07	0.7399
3546.64	0.741
3558.22	0.742
3569.79	0.7438
3581.37	0.746
3592.94	0.748
3604.52	0.749
3616.09	0.749
3627.67	0.751
3639.24	0.7555
3650.82	0.756
3662.39	0.759
3673.97	0.761
3685.54	0.762
3697.12	0.762
3708.7	0.7609
3720.27	0.76
3731.85	0.758
3743.42	0.756
3755	0.7535
3766.57	0.7505
3778.15	0.749
3789.72	0.747
3801.3	0.745
3812.87	0.744
3824.45	0.7411
3836.02	0.741
3847.6	0.741
3859.17	0.7402
3870.75	0.738
3882.33	0.737
3893.9	0.736
3905.48	0.734
3917.05	0.7318
3928.63	0.7296
3940.2	0.728
3951.78	0.722
3963.35	0.719
3974.93	0.7144
3986.5	0.7113
3998.08	0.71
4009.65	0.709
4021.23	0.71
4032.8	0.71
4044.38	0.709
4055.96	0.7065
4067.53	0.705
4079.11	0.7039
4090.68	0.7013
4102.26	0.6984
4113.83	0.6961
4125.41	0.694
4136.98	0.694
4148.56	0.6905
4160.13	0.6889
4171.71	0.6844
4183.28	0.681
4194.86	0.6791
4206.43	0.677
4218.01	0.676
4229.59	0.6753
4241.16	0.675
4252.74	0.675
4264.31	0.675
4275.89	0.6742
4287.46	0.672
4299.04	0.6706
4310.61	0.6693
4322.19	0.666
4333.76	0.6633
4345.34	0.6595
4356.91	0.6574
4368.49	0.6559
4380.06	0.654
4391.64	0.652
4403.22	0.651
4414.79	0.651
4426.37	0.6495
4437.94	0.6473
4449.52	0.645
4461.09	0.644
4472.67	0.6466
4484.24	0.648
4495.82	0.649
4507.39	0.649
4518.97	0.648
4530.54	0.643
4542.12	0.638
4553.69	0.629
4565.27	0.626
4576.85	0.6271
4588.42	0.629
4600	0.6273
4611.57	0.625
4623.15	0.6218
4634.72	0.621
4646.3	0.6192
4657.87	0.618
4669.45	0.6177
4681.02	0.617
4692.6	0.6179
4704.17	0.618
4715.75	0.6175
4727.32	0.6098
4738.9	0.604
4750.48	0.601
4762.05	0.6
4773.63	0.599
4785.2	0.598
4796.78	0.597
4808.35	0.5987
4819.93	0.599
4831.5	0.599
4843.08	0.599
4854.65	0.5942
4866.23	0.592
4877.8	0.592
4889.38	0.592
4900.95	0.592
4912.53	0.592
4924.11	0.591
4935.68	0.59
4947.26	0.5879
4958.83	0.5837
4970.41	0.582
4981.98	0.58
4993.56	0.58
