Infrared Spectrum: 5-Nitrobenzotriazole
Formula: C 6 H 4 N 4 O 2
CAS: 2338-12-7
State: gas
Origin: EPA-IR VAPOR PHASE LIBRARY
1/CM	ABSORBANCE
549.8	0.0008568
559.445	0.0009079
569.09	0.0007453
578.734	0.0009276
588.379	0.0007369
598.024	0.0005725
607.669	0.000634
617.313	0.0005781
626.958	0.0007083
636.603	0.0009537
646.248	0.0005563
655.893	0.000796
665.537	0.0012395
675.182	0.001932
684.827	0.002492
694.472	0.002772
704.116	0.002542
713.761	0.001992
723.406	0.002612
733.051	0.003042
742.695	0.002252
752.34	0.0013079
761.985	0.001056
771.63	0.0010301
781.275	0.001392
790.919	0.003642
800.564	0.003682
810.209	0.001882
819.854	0.002092
829.498	0.003212
839.143	0.003122
848.788	0.0012332
858.433	0.0009256
868.078	0.0010773
877.722	0.0013299
887.367	0.001572
897.012	0.001892
906.657	0.002242
916.301	0.002152
925.946	0.002262
935.591	0.002082
945.236	0.001962
954.88	0.0012449
964.525	0.0009385
974.17	0.0010759
983.815	0.001662
993.46	0.002182
1003.1	0.001822
1012.75	0.0011244
1022.39	0.0008416
1032.04	0.0007567
1041.68	0.0005196
1051.33	0.0012447
1060.97	0.002262
1070.62	0.002552
1080.26	0.0013159
1089.91	0.0008603
1099.55	0.0005435
1109.2	0.0002938
1118.84	0.0009648
1128.49	0.0012436
1138.13	0.001692
1147.78	0.0012505
1157.42	0.0008129
1167.07	0.0011702
1176.71	0.001852
1186.36	0.002242
1196	0.002472
1205.64	0.002892
1215.29	0.002002
1224.93	0.0008462
1234.58	0.0005914
1244.22	0.0009265
1253.87	0.001482
1263.51	0.001872
1273.16	0.001522
1282.8	0.001422
1292.45	0.001772
1302.09	0.002532
1311.74	0.002742
1321.38	0.003122
1331.03	0.004932
1340.67	0.009442
1350.32	0.015852
1359.96	0.012912
1369.61	0.004962
1379.25	0.002642
1388.9	0.002132
1398.54	0.002232
1408.18	0.002242
1417.83	0.001512
1427.47	0.0010307
1437.12	0.0010612
1446.76	0.0012137
1456.41	0.0010813
1466.05	0.001256
1475.7	0.001472
1485.34	0.001882
1494.99	0.001992
1504.63	0.002022
1514.28	0.002752
1523.92	0.005062
1533.57	0.009252
1543.21	0.011712
1552.86	0.010452
1562.5	0.007582
1572.15	0.006172
1581.79	0.004782
1591.44	0.003632
1601.08	0.002982
1610.73	0.002572
1620.37	0.002452
1630.01	0.001932
1639.66	0.0010778
1649.3	0.0007697
1658.95	0.0006521
1668.59	0.0005155
1678.24	0.000505
1687.88	0.000484
1697.53	0.0004981
1707.17	0.00045992
1716.82	0.0004365
1726.46	0.00046113
1736.11	0.00043193
1745.75	0.0004874
1755.4	0.0005065
1765.04	0.0006033
1774.69	0.0005534
1784.33	0.0005357
1793.98	0.0004913
1803.62	0.0004626
1813.27	0.00043315
1822.91	0.000367804
1832.55	0.00038979
1842.2	0.000312
1851.84	0.000363813
1861.49	0.000329
1871.13	0.00035282
1880.78	0.00038726
1890.42	0.00044834
1900.07	0.0004641
1909.71	0.00042828
1919.36	0.00045475
1929	0.00039979
1938.65	0.00038481
1948.29	0.00036436
1957.94	0.00038448
1967.58	0.00038091
1977.23	0.00035639
1986.87	0.0003295
1996.52	0.0003147
2006.16	0.0003337
2015.81	0.000361166
2025.45	0.00035464
2035.1	0.0003231
2044.74	0.0003145
2054.38	0.0003106
2064.03	0.0002818
2073.67	0.000366834
2083.32	0.0002843
2092.96	0.0003366
2102.61	0.0003183
2112.25	0.00035826
2121.9	0.00037973
2131.54	0.0003163
2141.19	0.00035327
2150.83	0.00038849
2160.48	0.00039083
2170.12	0.00037759
2179.77	0.00035611
2189.41	0.00038301
2199.06	0.0003377
2208.7	0.00042575
2218.35	0.00040701
2227.99	0.0003158
2237.64	0.0003169
2247.28	0.00037362
2256.92	0.0003394
2266.57	0.00035395
2276.21	0.000368168
2285.86	0.00042615
2295.5	0.00047
2305.15	0.000377
2314.79	0.0003516
2324.44	0.0003458
2334.08	0.00042409
2343.73	0.00044032
2353.37	0.00037432
2363.02	0.0004183
2372.66	0.0004659
2382.31	0.00037394
2391.95	0.0003476
2401.6	0.0003428
2411.24	0.00044048
2420.89	0.00043723
2430.53	0.00039727
2440.18	0.00044526
2449.82	0.00035788
2459.47	0.00039642
2469.11	0.00043002
2478.75	0.0003386
2488.4	0.00042477
2498.04	0.00039757
2507.69	0.00040478
2517.33	0.00040122
2526.98	0.00042678
2536.62	0.00035767
2546.27	0.0004159
2555.91	0.0004798
2565.56	0.00040078
2575.2	0.00046121
2584.85	0.0003841
2594.49	0.0003269
2604.14	0.0004727
2613.78	0.000361393
2623.43	0.0005389
2633.07	0.000371076
2642.72	0.0005008
2652.36	0.00042409
2662.01	0.00038293
2671.65	0.00037682
2681.29	0.0004932
2690.94	0.00043298
2700.58	0.000361169
2710.23	0.0004909
2719.87	0.00043918
2729.52	0.00040149
2739.16	0.00041038
2748.81	0.00035325
2758.45	0.0003007
2768.1	0.0002889
2777.74	0.0002779
2787.39	0.00037599
2797.03	0.00036598
2806.68	0.00043139
2816.32	0.00037687
2825.97	0.0004473
2835.61	0.000477
2845.26	0.00045311
2854.9	0.000508
2864.55	0.00045589
2874.19	0.0005727
2883.84	0.0005393
2893.48	0.000531
2903.12	0.0005575
2912.77	0.0005211
2922.41	0.00042409
2932.06	0.00044071
2941.7	0.0004671
2951.35	0.00044207
2960.99	0.00043846
2970.64	0.0003763
2980.28	0.00039149
2989.93	0.00039739
2999.57	0.0003052
3009.22	0.00040853
3018.86	0.00039106
3028.51	0.0003403
3038.15	0.0003019
3047.8	0.0003106
3057.44	0.000209
3067.09	0.00037894
3076.73	0.0005876
3086.38	0.0007028
3096.02	0.0008799
3105.67	0.0006931
3115.31	0.0005976
3124.95	0.00043129
3134.6	0.0003188
3144.24	0.000163
3153.89	0.0003516
3163.53	0.00041141
3173.18	0.0003128
3182.82	0.0002929
3192.47	0.00037882
3202.11	0.0002929
3211.76	0.000224
3221.4	0.000246
3231.05	0.0002771
3240.69	0.0003424
3250.34	0.00041257
3259.98	0.000218
3269.63	0.000196
3279.27	0.0003487
3288.92	0.0003342
3298.56	0.000328
3308.21	0.0002995
3317.85	0.000364526
3327.49	0.0003401
3337.14	0.000334
3346.78	0.00039695
3356.43	0.000312
3366.07	0.000242
3375.72	0.00039142
3385.36	0.00040355
3395.01	0.0002964
3404.65	0.000269
3414.3	0.00043581
3423.94	0.0003068
3433.59	0.00041225
3443.23	0.0005169
3452.88	0.0010688
3462.52	0.002942
3472.17	0.006652
3481.81	0.007652
3491.46	0.005242
3501.1	0.007462
3510.75	0.006002
3520.39	0.001472
3530.04	0.0005579
3539.68	0.0003428
3549.32	0.00043034
3558.97	0.000215
3568.61	0.00023
3578.26	0.00035326
3587.9	0.00035497
3597.55	7.1e-05
3607.19	0.000176
3616.84	0.0003347
3626.48	0.00019
3636.13	0.00040718
3645.77	0.000147
3655.42	0.000324
3665.06	0.00019
3674.71	7.5e-05
3684.35	0.000172
3694	0.0002943
3703.64	0.000251
3713.29	0.0003021
3722.93	0.000154
3732.58	0.000258
3742.22	0.000202
3751.86	0.000187
3761.51	0.0002688
3771.15	9.3e-05
3780.8	0.000225
3790.44	0.000184
3800.09	0.000278
3809.73	0.0005104
3819.38	0.000145
3829.02	0.0002993
3838.67	3e-05
3848.31	0.0002698
3857.96	0.0003237
3867.6	0.0003288
3877.25	0.00045286
3886.89	0.0002916
3896.54	0.0003326
3906.18	0.000213
3915.83	0.000106
3925.47	0.000204
3935.12	0.000191
3944.76	0.000111
3954.41	0.0003269
3964.05	0.000211
3973.69	0.000241
3983.34	0.000231
3992.98	0.0003482
