Infrared Spectrum: 4-Fluoro-3-methylanisole
Formula: C 8 H 9 F O
CAS: 2338-54-7
State: gas
Origin: EPA-IR VAPOR PHASE LIBRARY
1/CM	ABSORBANCE
549.8	0.003599
559.445	0.004659
569.09	0.005249
578.734	0.005979
588.379	0.005999
598.024	0.004309
607.669	0.003949
617.313	0.002479
626.958	0.002659
636.603	0.0014738
646.248	0.001699
655.893	0.001719
665.537	0.001549
675.182	0.002849
684.827	0.004679
694.472	0.012889
704.116	0.044279
713.761	0.053329
723.406	0.025109
733.051	0.008319
742.695	0.009929
752.34	0.032809
761.985	0.051969
771.63	0.036599
781.275	0.017739
790.919	0.026219
800.564	0.039809
810.209	0.044779
819.854	0.025969
829.498	0.017209
839.143	0.019549
848.788	0.024129
858.433	0.027879
868.078	0.031129
877.722	0.018769
887.367	0.009639
897.012	0.006069
906.657	0.005159
916.301	0.006729
925.946	0.008099
935.591	0.007119
945.236	0.006119
954.88	0.006009
964.525	0.006289
974.17	0.007579
983.815	0.010279
993.46	0.013109
1003.1	0.014689
1012.75	0.018669
1022.39	0.031669
1032.04	0.062759
1041.68	0.090779
1051.33	0.084269
1060.97	0.051919
1070.62	0.025689
1080.26	0.015099
1089.91	0.012639
1099.55	0.014089
1109.2	0.018499
1118.84	0.018889
1128.49	0.020129
1138.13	0.034049
1147.78	0.065089
1157.42	0.061019
1167.07	0.030589
1176.71	0.030879
1186.36	0.052499
1196	0.107839
1205.64	0.303539
1215.29	0.382819
1224.93	0.196439
1234.58	0.060799
1244.22	0.039469
1253.87	0.029609
1263.51	0.033319
1273.16	0.052939
1282.8	0.067299
1292.45	0.061979
1302.09	0.054789
1311.74	0.046249
1321.38	0.027399
1331.03	0.012769
1340.67	0.007689
1350.32	0.006759
1359.96	0.008229
1369.61	0.009879
1379.25	0.011519
1388.9	0.013339
1398.54	0.019859
1408.18	0.037149
1417.83	0.054349
1427.47	0.051899
1437.12	0.040099
1446.76	0.038179
1456.41	0.045739
1466.05	0.060239
1475.7	0.079609
1485.34	0.158269
1494.99	0.327419
1504.63	0.355139
1514.28	0.193779
1523.92	0.080059
1533.57	0.042419
1543.21	0.027859
1552.86	0.020619
1562.5	0.017019
1572.15	0.016119
1581.79	0.019219
1591.44	0.023199
1601.08	0.025089
1610.73	0.025669
1620.37	0.023789
1630.01	0.015839
1639.66	0.010219
1649.3	0.007489
1658.95	0.005949
1668.59	0.005589
1678.24	0.005459
1687.88	0.005229
1697.53	0.004629
1707.17	0.004339
1716.82	0.004499
1726.46	0.005089
1736.11	0.004979
1745.75	0.004099
1755.4	0.002989
1765.04	0.002689
1774.69	0.002879
1784.33	0.002619
1793.98	0.002309
1803.62	0.002779
1813.27	0.003769
1822.91	0.003969
1832.55	0.004259
1842.2	0.004799
1851.84	0.005969
1861.49	0.006409
1871.13	0.004889
1880.78	0.002629
1890.42	0.001809
1900.07	0.001689
1909.71	0.0014676
1919.36	0.002009
1929	0.002129
1938.65	0.002099
1948.29	0.002849
1957.94	0.003719
1967.58	0.004209
1977.23	0.003909
1986.87	0.003879
1996.52	0.004459
2006.16	0.004559
2015.81	0.004279
2025.45	0.003879
2035.1	0.003209
2044.74	0.003139
2054.38	0.003149
2064.03	0.003329
2073.67	0.003629
2083.32	0.003749
2092.96	0.003049
2102.61	0.002469
2112.25	0.001939
2121.9	0.002039
2131.54	0.002389
2141.19	0.002889
2150.83	0.002429
2160.48	0.002059
2170.12	0.001559
2179.77	0.002119
2189.41	0.002349
2199.06	0.002719
2208.7	0.002459
2218.35	0.002219
2227.99	0.002099
2237.64	0.001879
2247.28	0.002249
2256.92	0.002329
2266.57	0.002189
2276.21	0.001799
2285.86	0.002019
2295.5	0.002049
2305.15	0.002549
2314.79	0.002699
2324.44	0.002339
2334.08	0.002319
2343.73	0.002019
2353.37	0.001819
2363.02	0.001939
2372.66	0.001709
2382.31	0.001639
2391.95	0.001929
2401.6	0.001879
2411.24	0.002059
2420.89	0.002639
2430.53	0.002589
2440.18	0.002619
2449.82	0.002189
2459.47	0.003119
2469.11	0.003149
2478.75	0.002869
2488.4	0.002219
2498.04	0.002519
2507.69	0.002699
2517.33	0.002949
2526.98	0.002699
2536.62	0.002269
2546.27	0.002039
2555.91	0.001949
2565.56	0.001909
2575.2	0.002039
2584.85	0.002149
2594.49	0.002039
2604.14	0.002349
2613.78	0.002179
2623.43	0.0014027
2633.07	0.001759
2642.72	0.002199
2652.36	0.001599
2662.01	0.001829
2671.65	0.0011919
2681.29	0.001829
2690.94	0.002039
2700.58	0.001769
2710.23	0.001539
2719.87	0.001779
2729.52	0.002099
2739.16	0.002749
2748.81	0.003219
2758.45	0.003679
2768.1	0.002889
2777.74	0.003619
2787.39	0.004519
2797.03	0.006119
2806.68	0.007849
2816.32	0.010269
2825.97	0.015469
2835.61	0.029209
2845.26	0.035659
2854.9	0.029329
2864.55	0.025089
2874.19	0.025479
2883.84	0.026589
2893.48	0.027299
2903.12	0.032219
2912.77	0.041849
2922.41	0.050619
2932.06	0.063239
2941.7	0.076989
2951.35	0.072929
2960.99	0.055739
2970.64	0.041469
2980.28	0.034389
2989.93	0.035809
2999.57	0.047349
3009.22	0.046289
3018.86	0.028949
3028.51	0.018649
3038.15	0.020579
3047.8	0.022279
3057.44	0.021369
3067.09	0.016719
3076.73	0.014389
3086.38	0.012449
3096.02	0.009419
3105.67	0.007489
3115.31	0.006089
3124.95	0.005049
3134.6	0.004179
3144.24	0.002999
3153.89	0.002749
3163.53	0.002149
3173.18	0.001709
3182.82	0.001659
3192.47	0.001393
3202.11	0.001659
3211.76	0.0013069
3221.4	0.0014361
3231.05	0.0011765
3240.69	0.0012258
3250.34	0.0010741
3259.98	0.0009438
3269.63	0.0007493
3279.27	0.0008577
3288.92	0.00106
3298.56	0.00027
3308.21	0.0007047
3317.85	0.0006293
3327.49	0.0005329
3337.14	0.0007571
3346.78	0.0011706
3356.43	0.0007616
3366.07	0.0007138
3375.72	0.0014547
3385.36	0.0007625
3395.01	0.0008275
3404.65	0.0007667
3414.3	0.0012531
3423.94	0.0007904
3433.59	0.0009334
3443.23	0.0008473
3452.88	0.000245
3462.52	0.0003877
3472.17	0.0012947
3481.81	0.0009901
3491.46	0.0006012
3501.1	0.0013911
3510.75	0.0012485
3520.39	0.0009216
3530.04	0.00021
3539.68	0.00055819
3549.32	0.0013475
3558.97	0.0006078
3568.61	0.0007397
3578.26	0.0004154
3587.9	0.0009393
3597.55	0.0004634
3607.19	0.000255
3616.84	0.0008521
3626.48	0.001489
3636.13	0.0006587
3645.77	0.0009769
3655.42	0.0014523
3665.06	0.0010768
3674.71	0.0008989
3684.35	0.0010415
3694	0.0007922
3703.64	0.0005885
3713.29	0.00049383
3722.93	0.0010608
3732.58	0.0004149
3742.22	0.00049125
3751.86	0.000365
3761.51	0.0008856
3771.15	0.0008569
3780.8	0.001789
3790.44	0.0010493
3800.09	0.0007846
3809.73	0.0008261
3819.38	0.0013509
3829.02	0.000245
3838.67	0.0013736
3848.31	0.00055417
3857.96	0.0009112
3867.6	0.0011347
3877.25	0.002149
3886.89	0.0011934
3896.54	0.0009385
3906.18	0.0011721
3915.83	0.0014292
3925.47	0.00057387
3935.12	0.001001
3944.76	0.001559
3954.41	0.0006917
3964.05	0.0009561
3973.69	0.0013175
3983.34	0.0014527
3992.98	0.0014214
