Infrared Spectrum: 3,4-Difluoropropiophenone
Formula: C 9 H 8 F 2 O
CAS: 23384-72-7
State: gas
Origin: EPA-IR VAPOR PHASE LIBRARY
1/CM	ABSORBANCE
549.8	0.009412
559.445	0.011162
569.09	0.012762
578.734	0.013942
588.379	0.011102
598.024	0.010122
607.669	0.013802
617.313	0.017002
626.958	0.012592
636.603	0.006632
646.248	0.005602
655.893	0.005552
665.537	0.003482
675.182	0.003162
684.827	0.002652
694.472	0.003062
704.116	0.003352
713.761	0.005342
723.406	0.007122
733.051	0.008802
742.695	0.009792
752.34	0.013372
761.985	0.031642
771.63	0.063212
781.275	0.061902
790.919	0.033202
800.564	0.032162
810.209	0.030812
819.854	0.025962
829.498	0.020412
839.143	0.012132
848.788	0.008952
858.433	0.011622
868.078	0.023292
877.722	0.042402
887.367	0.041272
897.012	0.034732
906.657	0.022212
916.301	0.010562
925.946	0.006372
935.591	0.006992
945.236	0.008982
954.88	0.013222
964.525	0.015802
974.17	0.014132
983.815	0.008912
993.46	0.007222
1003.1	0.010392
1012.75	0.015412
1022.39	0.010602
1032.04	0.006312
1041.68	0.004382
1051.33	0.005852
1060.97	0.008122
1070.62	0.010962
1080.26	0.015752
1089.91	0.016562
1099.55	0.023272
1109.2	0.047162
1118.84	0.056932
1128.49	0.033572
1138.13	0.019362
1147.78	0.028292
1157.42	0.074812
1167.07	0.103442
1176.71	0.070172
1186.36	0.042232
1196	0.024012
1205.64	0.020872
1215.29	0.029712
1224.93	0.027492
1234.58	0.019042
1244.22	0.017732
1253.87	0.031542
1263.51	0.052922
1273.16	0.139592
1282.8	0.276332
1292.45	0.206372
1302.09	0.092072
1311.74	0.065682
1321.38	0.059132
1331.03	0.048762
1340.67	0.050752
1350.32	0.051972
1359.96	0.035432
1369.61	0.021952
1379.25	0.019912
1388.9	0.020502
1398.54	0.024612
1408.18	0.047952
1417.83	0.085932
1427.47	0.086352
1437.12	0.050222
1446.76	0.033462
1456.41	0.032362
1466.05	0.035932
1475.7	0.028752
1485.34	0.023822
1494.99	0.038872
1504.63	0.098612
1514.28	0.180502
1523.92	0.126562
1533.57	0.040052
1543.21	0.019852
1552.86	0.018132
1562.5	0.022132
1572.15	0.029162
1581.79	0.035032
1591.44	0.048562
1601.08	0.082882
1610.73	0.110652
1620.37	0.071872
1630.01	0.020492
1639.66	0.010792
1649.3	0.009572
1658.95	0.011192
1668.59	0.015222
1678.24	0.021992
1687.88	0.045952
1697.53	0.114212
1707.17	0.162072
1716.82	0.095842
1726.46	0.030812
1736.11	0.017422
1745.75	0.013892
1755.4	0.009702
1765.04	0.006132
1774.69	0.004462
1784.33	0.004342
1793.98	0.004292
1803.62	0.003632
1813.27	0.002822
1822.91	0.002532
1832.55	0.002512
1842.2	0.002452
1851.84	0.002262
1861.49	0.002772
1871.13	0.003152
1880.78	0.002892
1890.42	0.002692
1900.07	0.002772
1909.71	0.002622
1919.36	0.002292
1929	0.001692
1938.65	0.0014275
1948.29	0.001472
1957.94	0.0011952
1967.58	0.001105
1977.23	0.0012069
1986.87	0.0013297
1996.52	0.001662
2006.16	0.001472
2015.81	0.001442
2025.45	0.0014112
2035.1	0.002002
2044.74	0.002802
2054.38	0.003102
2064.03	0.002762
2073.67	0.001882
2083.32	0.001652
2092.96	0.001432
2102.61	0.0011145
2112.25	0.0010499
2121.9	0.0011098
2131.54	0.0012695
2141.19	0.001512
2150.83	0.0012457
2160.48	0.0009824
2170.12	0.0012906
2179.77	0.0013118
2189.41	0.0011086
2199.06	0.0012118
2208.7	0.0011991
2218.35	0.0011851
2227.99	0.001462
2237.64	0.001472
2247.28	0.0013573
2256.92	0.001582
2266.57	0.001622
2276.21	0.001982
2285.86	0.002502
2295.5	0.002472
2305.15	0.001992
2314.79	0.001612
2324.44	0.001632
2334.08	0.001582
2343.73	0.001682
2353.37	0.001572
2363.02	0.001532
2372.66	0.001862
2382.31	0.001862
2391.95	0.001762
2401.6	0.001652
2411.24	0.0013113
2420.89	0.0011027
2430.53	0.0010655
2440.18	0.0013865
2449.82	0.001962
2459.47	0.001952
2469.11	0.001912
2478.75	0.002012
2488.4	0.001932
2498.04	0.001912
2507.69	0.001822
2517.33	0.001662
2526.98	0.001652
2536.62	0.0013881
2546.27	0.001892
2555.91	0.002382
2565.56	0.002722
2575.2	0.003112
2584.85	0.003702
2594.49	0.003122
2604.14	0.002632
2613.78	0.002172
2623.43	0.001632
2633.07	0.0013963
2642.72	0.0013097
2652.36	0.0012854
2662.01	0.0011801
2671.65	0.001368
2681.29	0.001512
2690.94	0.001762
2700.58	0.0012139
2710.23	0.0011735
2719.87	0.0013798
2729.52	0.0014222
2739.16	0.001522
2748.81	0.001602
2758.45	0.002062
2768.1	0.002122
2777.74	0.001992
2787.39	0.002062
2797.03	0.002022
2806.68	0.002632
2816.32	0.002712
2825.97	0.003192
2835.61	0.003612
2845.26	0.003172
2854.9	0.004062
2864.55	0.005542
2874.19	0.008172
2883.84	0.012692
2893.48	0.016112
2903.12	0.015762
2912.77	0.020192
2922.41	0.022192
2932.06	0.018552
2941.7	0.024102
2951.35	0.032742
2960.99	0.022572
2970.64	0.019812
2980.28	0.033262
2989.93	0.038872
2999.57	0.024822
3009.22	0.012742
3018.86	0.008162
3028.51	0.006862
3038.15	0.005262
3047.8	0.005112
3057.44	0.004932
3067.09	0.007092
3076.73	0.012052
3086.38	0.010342
3096.02	0.005842
3105.67	0.003102
3115.31	0.002232
3124.95	0.001602
3134.6	0.001962
3144.24	0.001522
3153.89	0.001662
3163.53	0.0013842
3173.18	0.001482
3182.82	0.0012094
3192.47	0.0011402
3202.11	0.0013512
3211.76	0.0009942
3221.4	0.001271
3231.05	0.001229
3240.69	0.0005595
3250.34	0.0005338
3259.98	0.0006079
3269.63	0.00047053
3279.27	0.0008331
3288.92	0.00050749
3298.56	0.0007343
3308.21	0.0004016
3317.85	0.0006456
3327.49	0.0007138
3337.14	0.0008392
3346.78	0.0010466
3356.43	0.001492
3366.07	0.0013173
3375.72	0.002402
3385.36	0.003352
3395.01	0.003652
3404.65	0.003122
3414.3	0.001552
3423.94	0.001083
3433.59	0.0007366
3443.23	0.0006283
3452.88	0.0006374
3462.52	0.0006862
3472.17	0.0006637
3481.81	2.4e-05
3491.46	0.0004008
3501.1	0.000785
3510.75	0.0006737
3520.39	0.0008003
3530.04	0.0008659
3539.68	0.000634
3549.32	0.0008409
3558.97	0.0013837
3568.61	0.0009982
3578.26	0.00045067
3587.9	0.0007256
3597.55	0.0007708
3607.19	0.00045617
3616.84	0.0009363
3626.48	0.0003883
3636.13	0.0009167
3645.77	0.0011046
3655.42	0.0009605
3665.06	0.0006337
3674.71	0.0003696
3684.35	0.0007125
3694	0.001472
3703.64	0.0011769
3713.29	0.00050648
3722.93	0.0011879
3732.58	0.0011834
3742.22	0.0003849
3751.86	0.000705
3761.51	0.00043037
3771.15	0.000318
3780.8	0.0009464
3790.44	0.0010275
3800.09	0.0011375
3809.73	0.0010989
3819.38	0.0007265
3829.02	0.0003512
3838.67	0.0009358
3848.31	0.0007498
3857.96	0.0013515
3867.6	0.0006783
3877.25	0.0006405
3886.89	0.0011759
3896.54	0.00047239
3906.18	0.0005456
3915.83	0.0009073
3925.47	0.00051957
3935.12	0.0009513
3944.76	0.0007693
3954.41	0.0012369
3964.05	0.0009317
3973.69	0.00052664
3983.34	0.001662
3992.98	0.001442
