Infrared Spectrum: SUCCINIC ACID, ISOPROPYL-
Formula: C7 H12 O4
CAS: 2338-45-6
State: SOLID (KBr PELLET)
Melting point: 116-117 C
Class: COBLENTZ
Instrument: Not specified, most likely a prism, grating, or hybrid spectrometer.
Sampling: TRANSMISSION
Resolution: 4
Origin: TENNESSEE EASTMAN COMPANY, RESEARCH LABORATORIES
MICROMETERS	TRANSMITTANCE
2.027	0.994
2.06812	0.994
2.10924	0.993
2.15036	0.993
2.19148	0.993
2.2326	0.991
2.27372	0.988
2.31484	0.969
2.35595	0.945
2.39707	0.916
2.43819	0.898
2.47931	0.878
2.52043	0.857
2.56155	0.84
2.60267	0.837
2.64379	0.828
2.68491	0.815
2.72603	0.753
2.76715	0.604
2.80827	0.5
2.84939	0.44
2.89051	0.397
2.93162	0.393
2.97274	0.41
3.01386	0.431
3.05498	0.426
3.0961	0.386
3.13722	0.349
3.17834	0.296
3.21946	0.241
3.26058	0.21
3.3017	0.203
3.34282	0.164
3.38394	0.155
3.42506	0.191
3.46618	0.241
3.50729	0.325
3.54841	0.359
3.58953	0.376
3.63065	0.385
3.67177	0.395
3.71289	0.4
3.75401	0.388
3.79513	0.398
3.83625	0.404
3.87737	0.417
3.91849	0.45
3.95961	0.482
4.00073	0.518
4.04185	0.57
4.08296	0.618
4.12408	0.643
4.1652	0.667
4.20632	0.679
4.24744	0.681
4.28856	0.69
4.32968	0.722
4.3708	0.732
4.41192	0.741
4.45304	0.75
4.49416	0.756
4.53528	0.763
4.5764	0.77
4.61752	0.772
4.65863	0.78
4.69975	0.782
4.74087	0.782
4.78199	0.791
4.82311	0.787
4.86423	0.789
4.90535	0.791
4.94647	0.791
4.98759	0.796
5.02871	0.796
5.06983	0.792
5.11095	0.792
5.15207	0.792
5.19319	0.792
5.2343	0.792
5.27542	0.791
5.31654	0.782
5.35766	0.782
5.39878	0.775
5.4399	0.761
5.48102	0.756
5.52214	0.755
5.56326	0.743
5.60438	0.72
5.6455	0.703
5.68662	0.657
5.72774	0.58
5.76886	0.351
5.80997	0.101
5.85109	0.035
5.89221	0.037
5.93333	0.116
5.97445	0.345
6.01557	0.573
6.05669	0.597
6.09781	0.625
6.13893	0.654
6.18005	0.681
6.22117	0.719
6.26229	0.75
6.30341	0.791
6.34453	0.794
6.38565	0.789
6.42676	0.791
6.46788	0.791
6.509	0.809
6.55012	0.818
6.59124	0.825
6.63236	0.83
6.67348	0.828
6.7146	0.777
6.75572	0.654
6.79684	0.642
6.83796	0.643
6.87908	0.602
6.9202	0.489
6.96132	0.375
7.00243	0.315
7.04355	0.33
7.08467	0.34
7.12579	0.361
7.16691	0.592
7.20803	0.703
7.24915	0.703
7.29027	0.738
7.33139	0.751
7.37251	0.753
7.41363	0.703
7.45475	0.542
7.49587	0.568
7.53699	0.676
7.5781	0.613
7.61922	0.285
7.66034	0.316
7.70146	0.467
7.74258	0.561
7.7837	0.542
7.82482	0.488
7.86594	0.364
7.90706	0.172
7.94818	0.162
7.9893	0.398
8.03042	0.631
8.07154	0.684
8.11266	0.731
8.15377	0.739
8.19489	0.751
8.23601	0.729
8.27713	0.571
8.31825	0.265
8.35937	0.152
8.40049	0.328
8.44161	0.496
8.48273	0.602
8.52385	0.683
8.56497	0.722
8.60609	0.753
8.64721	0.765
8.68833	0.767
8.72944	0.758
8.77056	0.779
8.81168	0.801
8.8528	0.806
8.89392	0.813
8.93504	0.816
8.97616	0.82
9.01728	0.809
9.0584	0.755
9.09952	0.782
9.14064	0.816
9.18176	0.825
9.22288	0.83
9.264	0.832
9.30511	0.833
9.34623	0.833
9.38735	0.835
9.42847	0.837
9.46959	0.835
9.51071	0.832
9.55183	0.827
9.59295	0.801
9.63407	0.755
9.67519	0.741
9.71631	0.792
9.75743	0.803
9.79855	0.804
9.83967	0.803
9.88078	0.773
9.9219	0.772
9.96302	0.785
10.0041	0.791
10.0453	0.792
10.0864	0.794
10.1275	0.794
10.1686	0.792
10.2097	0.772
10.2509	0.75
10.292	0.705
10.3331	0.7
10.3742	0.69
10.4153	0.645
10.4565	0.599
10.4976	0.578
10.5387	0.577
10.5798	0.561
10.6209	0.53
10.6621	0.488
10.7032	0.44
10.7443	0.397
10.7854	0.356
10.8265	0.332
10.8676	0.333
10.9088	0.368
10.9499	0.417
10.991	0.488
11.0321	0.573
11.0732	0.623
11.1144	0.666
11.1555	0.707
11.1966	0.732
11.2377	0.765
11.2788	0.785
11.32	0.801
11.3611	0.811
11.4022	0.827
11.4433	0.837
11.4844	0.849
11.5256	0.856
11.5667	0.859
11.6078	0.864
11.6489	0.864
11.69	0.864
11.7312	0.827
11.7723	0.756
11.8134	0.715
11.8545	0.734
11.8956	0.806
11.9367	0.852
11.9779	0.881
12.019	0.902
12.0601	0.91
12.1012	0.916
12.1423	0.922
12.1835	0.924
12.2246	0.931
12.2657	0.933
12.3068	0.936
12.3479	0.936
12.3891	0.938
12.4302	0.94
12.4713	0.94
12.5124	0.941
12.5535	0.943
12.5947	0.945
12.6358	0.95
12.6769	0.952
12.718	0.955
12.7591	0.958
12.8003	0.964
12.8414	0.965
12.8825	0.97
12.9236	0.976
12.9647	0.982
13.0059	0.989
13.047	0.991
13.0881	0.991
13.1292	0.991
13.1703	0.988
13.2114	0.986
13.2526	0.984
13.2937	0.982
13.3348	0.979
13.3759	0.977
13.417	0.976
13.4582	0.969
13.4993	0.946
13.5404	0.919
13.5815	0.912
13.6226	0.914
13.6638	0.924
13.7049	0.938
13.746	0.95
13.7871	0.952
13.8282	0.955
13.8694	0.958
13.9105	0.962
13.9516	0.965
13.9927	0.967
14.0338	0.967
14.075	0.967
14.1161	0.965
14.1572	0.965
14.1983	0.965
14.2394	0.965
14.2805	0.964
14.3217	0.957
14.3628	0.936
14.4039	0.914
14.445	0.866
14.4861	0.808
14.5273	0.765
14.5684	0.743
14.6095	0.746
14.6506	0.779
14.6917	0.815
14.7329	0.844
14.774	0.869
14.8151	0.885
14.8562	0.898
14.8973	0.9
14.9385	0.9
14.9796	0.888
15.0207	0.869
15.0618	0.868
15.1029	0.869
15.1441	0.871
15.1852	0.869
15.2263	0.857
15.2674	0.844
15.3085	0.828
15.3497	0.809
15.3908	0.787
15.4319	0.77
15.473	0.751
15.5141	0.724
15.5552	0.715
15.5964	0.698
15.6375	0.678
15.6786	0.655
15.7197	0.642
15.7608	0.635
15.802	0.63
15.8431	0.626
15.8842	0.623
15.9253	0.618
15.9664	0.613
