Infrared Spectrum: 4-(Trifluoromethyl)phenylacetonitrile
Formula: C 9 H 6 F 3 N
CAS: 2338-75-2
State: gas
Origin: EPA-IR VAPOR PHASE LIBRARY
1/CM	ABSORBANCE
549.8	0.0009092
559.445	0.00182
569.09	0.00224
578.734	0.00323
588.379	0.00487
598.024	0.00539
607.669	0.00427
617.313	0.00336
626.958	0.00358
636.603	0.00548
646.248	0.00878
655.893	0.00453
665.537	0.00276
675.182	0.0026
684.827	0.00229
694.472	0.00257
704.116	0.00309
713.761	0.00382
723.406	0.0043
733.051	0.00429
742.695	0.00508
752.34	0.00691
761.985	0.0065
771.63	0.00313
781.275	0.00365
790.919	0.00578
800.564	0.01164
810.209	0.02016
819.854	0.02622
829.498	0.02314
839.143	0.01676
848.788	0.01082
858.433	0.00575
868.078	0.00331
877.722	0.00237
887.367	0.00252
897.012	0.00251
906.657	0.00324
916.301	0.00424
925.946	0.0044
935.591	0.00398
945.236	0.00303
954.88	0.00223
964.525	0.0017
974.17	0.00165
983.815	0.00175
993.46	0.00202
1003.1	0.00306
1012.75	0.01786
1022.39	0.03654
1032.04	0.00817
1041.68	0.00498
1051.33	0.00887
1060.97	0.04305
1070.62	0.12763
1080.26	0.04423
1089.91	0.01536
1099.55	0.01955
1109.2	0.032
1118.84	0.04933
1128.49	0.07516
1138.13	0.12188
1147.78	0.19516
1157.42	0.21939
1167.07	0.19437
1176.71	0.15626
1186.36	0.08674
1196	0.04082
1205.64	0.02004
1215.29	0.01382
1224.93	0.01478
1234.58	0.01305
1244.22	0.00844
1253.87	0.00715
1263.51	0.00759
1273.16	0.00828
1282.8	0.0105
1292.45	0.01773
1302.09	0.03893
1311.74	0.11064
1321.38	0.3178
1331.03	0.30814
1340.67	0.04884
1350.32	0.01762
1359.96	0.01357
1369.61	0.00893
1379.25	0.00573
1388.9	0.00668
1398.54	0.01043
1408.18	0.0151
1417.83	0.01948
1427.47	0.02125
1437.12	0.0141
1446.76	0.00697
1456.41	0.00354
1466.05	0.00191
1475.7	0.00146
1485.34	0.00134
1494.99	0.0014
1504.63	0.00155
1514.28	0.00202
1523.92	0.00207
1533.57	0.00158
1543.21	0.00144
1552.86	0.00158
1562.5	0.00165
1572.15	0.00201
1581.79	0.00263
1591.44	0.00392
1601.08	0.00563
1610.73	0.00918
1620.37	0.01703
1630.01	0.01719
1639.66	0.00724
1649.3	0.0038
1658.95	0.0029
1668.59	0.00222
1678.24	0.00165
1687.88	0.00124
1697.53	0.000979
1707.17	0.0009175
1716.82	0.0010132
1726.46	0.0010257
1736.11	0.00126
1745.75	0.00176
1755.4	0.00182
1765.04	0.00173
1774.69	0.00179
1784.33	0.00205
1793.98	0.00307
1803.62	0.00264
1813.27	0.00129
1822.91	0.0010697
1832.55	0.0008803
1842.2	0.0007731
1851.84	0.0006386
1861.49	0.000735
1871.13	0.0009522
1880.78	0.00132
1890.42	0.00171
1900.07	0.00214
1909.71	0.00264
1919.36	0.00295
1929	0.00258
1938.65	0.00169
1948.29	0.0010795
1957.94	0.0007832
1967.58	0.0007747
1977.23	0.0007658
1986.87	0.0006292
1996.52	0.0006266
2006.16	0.0004824
2015.81	0.000497
2025.45	0.0004679
2035.1	0.0005254
2044.74	0.0004901
2054.38	0.0005615
2064.03	0.0006449
2073.67	0.0009679
2083.32	0.0010726
2092.96	0.0008062
2102.61	0.0006693
2112.25	0.0006074
2121.9	0.0006833
2131.54	0.0008115
2141.19	0.0008042
2150.83	0.000656
2160.48	0.0005759
2170.12	0.0005179
2179.77	0.0005812
2189.41	0.0005675
2199.06	0.0007201
2208.7	0.0009088
2218.35	0.0010274
2227.99	0.0011641
2237.64	0.0011831
2247.28	0.00144
2256.92	0.00173
2266.57	0.00169
2276.21	0.00163
2285.86	0.00156
2295.5	0.00138
2305.15	0.00135
2314.79	0.00127
2324.44	0.00141
2334.08	0.00131
2343.73	0.00135
2353.37	0.0011434
2363.02	0.0008598
2372.66	0.0009356
2382.31	0.0008209
2391.95	0.0008543
2401.6	0.0006987
2411.24	0.0006276
2420.89	0.0006416
2430.53	0.0006541
2440.18	0.0006038
2449.82	0.0005899
2459.47	0.0006289
2469.11	0.0006438
2478.75	0.0006161
2488.4	0.000833
2498.04	0.0007679
2507.69	0.0006451
2517.33	0.0006107
2526.98	0.0005565
2536.62	0.0006165
2546.27	0.0005996
2555.91	0.0005261
2565.56	0.0006681
2575.2	0.0005587
2584.85	0.0006362
2594.49	0.0007359
2604.14	0.0007161
2613.78	0.0007797
2623.43	0.0007403
2633.07	0.000931
2642.72	0.0009795
2652.36	0.0008633
2662.01	0.0005955
2671.65	0.00027615
2681.29	0.0003374
2690.94	0.0003594
2700.58	0.0004978
2710.23	0.0004379
2719.87	0.0004241
2729.52	0.0005878
2739.16	0.000646
2748.81	0.000606
2758.45	0.0004187
2768.1	0.000342
2777.74	0.0005052
2787.39	0.0003484
2797.03	0.0004705
2806.68	0.0004369
2816.32	0.0006378
2825.97	0.0006587
2835.61	0.0009124
2845.26	0.0010687
2854.9	0.0005869
2864.55	0.0005707
2874.19	0.0004387
2883.84	0.0005646
2893.48	0.0004182
2903.12	0.0008814
2912.77	0.0011756
2922.41	0.00191
2932.06	0.00293
2941.7	0.00302
2951.35	0.00217
2960.99	0.00147
2970.64	0.0011474
2980.28	0.0009126
2989.93	0.0009176
2999.57	0.0011235
3009.22	0.00144
3018.86	0.00214
3028.51	0.00271
3038.15	0.00365
3047.8	0.00489
3057.44	0.00428
3067.09	0.00292
3076.73	0.00252
3086.38	0.00245
3096.02	0.0019
3105.67	0.00166
3115.31	0.00124
3124.95	0.00124
3134.6	0.001025
3144.24	0.0010648
3153.89	0.0008188
3163.53	0.0005848
3173.18	0.0006445
3182.82	0.0005722
3192.47	0.0006231
3202.11	0.0006941
3211.76	0.0005554
3221.4	0.0003826
3231.05	0.0003565
3240.69	0.0004364
3250.34	0.0003954
3259.98	0.0003198
3269.63	0.0003639
3279.27	0.0003834
3288.92	0.0004417
3298.56	0.00020326
3308.21	0.0001639
3317.85	0.0003441
3327.49	0.0003476
3337.14	0.00023615
3346.78	0.0003329
3356.43	0.00024371
3366.07	0.0003191
3375.72	0.00028705
3385.36	0.000199768
3395.01	0.0003973
3404.65	0.00024126
3414.3	0.0002612
3423.94	0.0004639
3433.59	0.0004351
3443.23	0.0003957
3452.88	0.00021365
3462.52	0.0004181
3472.17	0.0001743
3481.81	0.0003068
3491.46	0.0004207
3501.1	0.00020264
3510.75	0.0004308
3520.39	0.0004341
3530.04	0.0001772
3539.68	0.0003708
3549.32	0.00027157
3558.97	0.0003701
3568.61	0.00018078
3578.26	0.0002983
3587.9	0.00023848
3597.55	0.00027725
3607.19	0.00024172
3616.84	0.00023584
3626.48	0.0003894
3636.13	0.00027999
3645.77	0.0003195
3655.42	0.0004301
3665.06	0.0005108
3674.71	0.0004443
3684.35	0.0004779
3694	0.0005376
3703.64	0.0003918
3713.29	0.0004139
3722.93	0.0003003
3732.58	0.00021161
3742.22	0.0003342
3751.86	0.00024041
3761.51	0.0003383
3771.15	0.000415
3780.8	0.00028814
3790.44	0.000322
3800.09	0.00026469
3809.73	0.0004473
3819.38	0.00024765
3829.02	0.000403
3838.67	0.00025417
3848.31	0.00023837
3857.96	0.00022718
3867.6	0.0004222
3877.25	0.0004331
3886.89	0.0003678
3896.54	0.00021747
3906.18	0.0003338
3915.83	0.0003043
3925.47	0.00026402
3935.12	0.00028788
3944.76	0.0003385
3954.41	0.0006032
3964.05	0.0002911
3973.69	0.0001757
3983.34	0.0003334
3992.98	0.00023479
