Infrared Spectrum: BENZIMIDAZOLE, 4,5,6,7-TETRACHLORO-2-(TRIFLUOROMETHYL)-
Formula: C8 H Cl4 F3 N2
CAS: 2338-29-6
State: SOLID (KBr DISC)
Class: COBLENTZ III
Instrument: UNICAM SP-200
Sampling: TRANSMISSION
Resolution: 2
Origin: FISONS LTD., VIA S.D.C. (DR. G. T. NEWBOLD)
1/CM	TRANSMITTANCE
647.502	0.91
659.069	0.911
670.637	0.91
682.204	0.7097
693.772	0.884
705.339	0.89
716.907	0.897
728.474	0.887
740.041	0.839
751.609	0.865
763.176	0.88
774.744	0.907
786.311	0.906
797.879	0.906
809.446	0.891
821.013	0.5561
832.581	0.766
844.148	0.85
855.716	0.876
867.283	0.891
878.85	0.899
890.418	0.899
901.985	0.895
913.553	0.888
925.12	0.893
936.688	0.899
948.255	0.903
959.822	0.889
971.39	0.857
982.957	0.8331
994.525	0.805
1006.09	0.882
1017.66	0.741
1029.23	0.8338
1040.79	0.872
1052.36	0.879
1063.93	0.882
1075.5	0.874
1087.06	0.864
1098.63	0.849
1110.2	0.828
1121.77	0.794
1133.33	0.749
1144.9	0.6441
1156.47	0.247
1168.04	0.1099
1179.6	0.072
1191.17	0.379
1202.74	0.1068
1214.31	0.6969
1225.87	0.697
1237.44	0.1403
1249.01	0.2017
1260.58	0.783
1272.14	0.822
1283.71	0.738
1295.28	0.776
1306.85	0.555
1318.41	0.852
1329.98	0.879
1341.55	0.809
1353.11	0.713
1364.68	0.728
1376.25	0.6281
1387.82	0.283
1399.38	0.7789
1410.95	0.769
1422.52	0.663
1434.09	0.297
1445.65	0.8349
1457.22	0.838
1468.79	0.75
1480.36	0.7739
1491.92	0.862
1503.49	0.881
1515.06	0.887
1526.63	0.88
1538.19	0.806
1549.76	0.773
1561.33	0.6791
1572.9	0.742
1584.46	0.824
1596.03	0.831
1607.6	0.82
1619.17	0.821
1630.73	0.831
1642.3	0.839
1653.87	0.851
1665.44	0.854
1677	0.857
1688.57	0.858
1700.14	0.859
1711.71	0.862
1723.27	0.861
1734.84	0.858
1746.41	0.861
1757.97	0.86
1769.54	0.862
1781.11	0.868
1792.68	0.871
1804.24	0.877
1815.81	0.88
1827.38	0.88
1838.95	0.884
1850.51	0.884
1862.08	0.889
1873.65	0.891
1885.22	0.889
1896.78	0.888
1908.35	0.894
1919.92	0.898
1931.49	0.898
1943.05	0.899
1954.62	0.891
1966.19	0.899
1977.76	0.896
1989.32	0.903
2000.89	0.9018
2012.46	0.903
2024.03	0.902
2035.59	0.9
2047.16	0.9
2058.73	0.9
2070.3	0.9
2081.86	0.9
2093.43	0.901
2105	0.902
2116.56	0.902
2128.13	0.901
2139.7	0.9
2151.27	0.8974
2162.83	0.8967
2174.4	0.892
2185.97	0.892
2197.54	0.893
2209.1	0.898
2220.67	0.8967
2232.24	0.8916
2243.81	0.888
2255.37	0.8842
2266.94	0.8785
2278.51	0.8772
2290.08	0.871
2301.64	0.8626
2313.21	0.8587
2324.78	0.8522
2336.35	0.849
2347.91	0.847
2359.48	0.845
2371.05	0.845
2382.62	0.8387
2394.18	0.8227
2405.75	0.8029
2417.32	0.801
2428.89	0.8006
2440.45	0.7894
2452.02	0.7695
2463.59	0.7473
2475.16	0.7231
2486.72	0.7165
2498.29	0.7
2509.86	0.688
2521.42	0.6833
2532.99	0.6743
2544.56	0.6683
2556.13	0.655
2567.69	0.6299
2579.26	0.6171
2590.83	0.6042
2602.4	0.5896
2613.96	0.5708
2625.53	0.568
2637.1	0.5641
2648.67	0.5418
2660.23	0.5252
2671.8	0.5303
2683.37	0.5635
2694.94	0.576
2706.5	0.5819
2718.07	0.5808
2729.64	0.573
2741.21	0.563
2752.77	0.5479
2764.34	0.5354
2775.91	0.533
2787.48	0.5394
2799.04	0.5583
2810.61	0.5642
2822.18	0.5673
2833.75	0.5554
2845.31	0.5514
2856.88	0.5615
2868.45	0.5723
2880.01	0.572
2891.58	0.569
2903.15	0.5648
2914.72	0.562
2926.28	0.5634
2937.85	0.5718
2949.42	0.5777
2960.99	0.5799
2972.55	0.581
2984.12	0.5805
2995.69	0.575
3007.26	0.5791
3018.82	0.5896
3030.39	0.6028
3041.96	0.6146
3053.53	0.622
3065.09	0.624
3076.66	0.625
3088.23	0.6387
3099.8	0.6613
3111.36	0.6805
3122.93	0.6866
3134.5	0.6961
3146.07	0.6987
3157.63	0.7068
3169.2	0.7174
3180.77	0.72
3192.34	0.72
3203.9	0.7207
3215.47	0.723
3227.04	0.7252
3238.6	0.7265
3250.17	0.727
3261.74	0.7269
3273.31	0.7237
3284.87	0.722
3296.44	0.7211
3308.01	0.719
3319.58	0.7171
3331.14	0.7143
3342.71	0.71
3354.28	0.7067
3365.85	0.7039
3377.41	0.702
3388.98	0.7019
3400.55	0.6986
3412.12	0.698
3423.68	0.697
3435.25	0.695
3446.82	0.695
3458.39	0.698
3469.95	0.7
3481.52	0.7013
3493.09	0.7066
3504.66	0.712
3516.22	0.7161
3527.79	0.719
3539.36	0.72
3550.93	0.724
3562.49	0.7264
3574.06	0.7299
3585.63	0.7317
3597.2	0.735
3608.76	0.737
3620.33	0.738
3631.9	0.7408
3643.46	0.7421
3655.03	0.7444
3666.6	0.746
3678.17	0.746
3689.73	0.746
3701.3	0.749
3712.87	0.749
3724.44	0.749
3736	0.749
3747.57	0.7484
3759.14	0.7452
3770.71	0.742
3782.27	0.742
3793.84	0.742
3805.41	0.742
3816.98	0.7398
3828.54	0.7345
3840.11	0.7337
3851.68	0.736
3863.25	0.7357
3874.81	0.7334
3886.38	0.7312
3897.95	0.731
3909.52	0.729
3921.08	0.728
3932.65	0.7271
3944.22	0.726
3955.79	0.724
3967.35	0.722
3978.92	0.721
3990.49	0.7157
4002.05	0.713
4013.62	0.713
4025.19	0.7128
4036.76	0.7106
4048.32	0.709
4059.89	0.709
4071.46	0.71
4083.03	0.709
4094.59	0.7082
4106.16	0.705
4117.73	0.7044
4129.3	0.701
4140.86	0.7
4152.43	0.6949
4164	0.694
4175.57	0.694
4187.13	0.694
4198.7	0.6962
4210.27	0.699
4221.84	0.6982
4233.4	0.698
4244.97	0.6964
4256.54	0.691
4268.11	0.69
4279.67	0.69
4291.24	0.691
4302.81	0.6893
4314.38	0.688
4325.94	0.6858
4337.51	0.6815
4349.08	0.681
4360.65	0.68
4372.21	0.679
4383.78	0.6754
4395.35	0.673
4406.91	0.672
4418.48	0.673
4430.05	0.674
4441.62	0.672
4453.18	0.672
4464.75	0.6705
4476.32	0.6664
4487.89	0.6641
4499.45	0.668
4511.02	0.669
4522.59	0.669
4534.16	0.6658
4545.72	0.661
4557.29	0.661
4568.86	0.664
4580.43	0.6643
4591.99	0.6639
4603.56	0.661
4615.13	0.659
4626.7	0.659
4638.26	0.659
4649.83	0.6581
4661.4	0.6558
4672.97	0.6516
4684.53	0.6493
4696.1	0.646
4707.67	0.643
4719.24	0.641
4730.8	0.64
4742.37	0.6401
4753.94	0.6396
4765.5	0.639
4777.07	0.6371
4788.64	0.635
4800.21	0.634
4811.77	0.633
4823.34	0.632
4834.91	0.632
4846.48	0.6325
4858.04	0.6338
4869.61	0.6329
4881.18	0.6306
4892.75	0.6284
4904.31	0.628
4915.88	0.625
4927.45	0.626
4939.02	0.627
4950.58	0.624
4962.15	0.621
