Infrared Spectrum: BENZIMIDAZOLE, 4,5,6-TRICHLORO-2-(TRIFLUOROMETHYL)-
Formula: C8 H2 Cl3 F3 N2
CAS: 2338-27-4
State: SOLID (KBr DISC)
Class: COBLENTZ III
Instrument: UNICAM SP-200
Sampling: TRANSMISSION
Resolution: 2
Origin: FISONS LTD., VIA S.D.C. (DR. G. T. NEWBOLD)
1/CM	TRANSMITTANCE
651.918	0.913
663.493	0.911
675.069	0.913
686.644	0.902
698.219	0.898
709.795	0.893
721.37	0.872
732.945	0.839
744.521	0.768
756.096	0.852
767.671	0.804
779.247	0.9
790.822	0.887
802.397	0.6552
813.973	0.7269
825.548	0.866
837.123	0.868
848.699	0.859
860.274	0.6391
871.85	0.796
883.425	0.878
895	0.898
906.576	0.915
918.151	0.917
929.726	0.883
941.302	0.727
952.877	0.841
964.452	0.861
976.028	0.789
987.603	0.789
999.178	0.525
1010.75	0.887
1022.33	0.863
1033.9	0.889
1045.48	0.888
1057.06	0.87
1068.63	0.84
1080.21	0.822
1091.78	0.779
1103.36	0.722
1114.93	0.66
1126.51	0.554
1138.08	0.4101
1149.66	0.168
1161.23	0.127
1172.81	0.106
1184.38	0.108
1195.96	0.213
1207.53	0.112
1219.11	0.388
1230.69	0.443
1242.26	0.2559
1253.84	0.3281
1265.41	0.308
1276.99	0.625
1288.56	0.823
1300.14	0.7451
1311.71	0.561
1323.29	0.6709
1334.86	0.9
1346.44	0.868
1358.01	0.67
1369.59	0.524
1381.16	0.7538
1392.74	0.865
1404.32	0.749
1415.89	0.582
1427.47	0.654
1439.04	0.482
1450.62	0.641
1462.19	0.879
1473.77	0.823
1485.34	0.705
1496.92	0.897
1508.49	0.939
1520.07	0.941
1531.64	0.928
1543.22	0.81
1554.79	0.513
1566.37	0.632
1577.95	0.631
1589.52	0.898
1601.1	0.947
1612.67	0.936
1624.25	0.894
1635.82	0.916
1647.4	0.921
1658.97	0.925
1670.55	0.925
1682.12	0.917
1693.7	0.916
1705.27	0.912
1716.85	0.923
1728.42	0.932
1740	0.934
1751.58	0.939
1763.15	0.943
1774.73	0.95
1786.3	0.955
1797.88	0.951
1809.45	0.953
1821.03	0.955
1832.6	0.96
1844.18	0.963
1855.75	0.966
1867.33	0.963
1878.9	0.964
1890.48	0.96
1902.06	0.965
1913.63	0.97
1925.21	0.97
1936.78	0.97
1948.36	0.962
1959.93	0.964
1971.51	0.968
1983.08	0.966
1994.66	0.965
2006.23	0.962
2017.81	0.962
2029.38	0.962
2040.96	0.962
2052.53	0.962
2064.11	0.962
2075.69	0.962
2087.26	0.96
2098.84	0.959
2110.41	0.9508
2121.99	0.949
2133.56	0.9506
2145.14	0.951
2156.71	0.951
2168.29	0.951
2179.86	0.951
2191.44	0.9498
2203.01	0.9437
2214.59	0.94
2226.16	0.94
2237.74	0.939
2249.32	0.939
2260.89	0.9362
2272.47	0.9288
2284.04	0.925
2295.62	0.922
2307.19	0.9181
2318.77	0.9108
2330.34	0.9065
2341.92	0.9015
2353.49	0.899
2365.07	0.8967
2376.64	0.8938
2388.22	0.892
2399.79	0.8856
2411.37	0.8737
2422.95	0.8503
2434.52	0.8421
2446.1	0.8343
2457.67	0.8295
2469.25	0.8225
2480.82	0.8089
2492.4	0.7983
2503.97	0.7776
2515.55	0.7526
2527.12	0.7456
2538.7	0.728
2550.27	0.728
2561.85	0.728
2573.42	0.7242
2585	0.7146
2596.58	0.6964
2608.15	0.6454
2619.73	0.6336
2631.3	0.6337
2642.88	0.635
2654.45	0.6288
2666.03	0.6161
2677.6	0.5848
2689.18	0.5528
2700.75	0.5324
2712.33	0.5391
2723.9	0.562
2735.48	0.5866
2747.06	0.5956
2758.63	0.5849
2770.21	0.5614
2781.78	0.5435
2793.36	0.5324
2804.93	0.5154
2816.51	0.516
2828.08	0.526
2839.66	0.5515
2851.23	0.553
2862.81	0.5456
2874.38	0.5201
2885.96	0.509
2897.53	0.52
2909.11	0.5524
2920.69	0.5594
2932.26	0.5547
2943.84	0.5438
2955.41	0.5295
2966.99	0.5207
2978.56	0.52
2990.14	0.5222
3001.71	0.5265
3013.29	0.5278
3024.86	0.529
3036.44	0.5277
3048.01	0.527
3059.59	0.5241
3071.16	0.5283
3082.74	0.5398
3094.32	0.5521
3105.89	0.5629
3117.47	0.568
3129.04	0.572
3140.62	0.5855
3152.19	0.6003
3163.77	0.629
3175.34	0.6481
3186.92	0.6586
3198.49	0.6702
3210.07	0.6888
3221.64	0.7077
3233.22	0.73
3244.79	0.7361
3256.37	0.7415
3267.95	0.7485
3279.52	0.7502
3291.1	0.7571
3302.67	0.7726
3314.25	0.7789
3325.82	0.78
3337.4	0.7815
3348.97	0.783
3360.55	0.781
3372.12	0.78
3383.7	0.779
3395.27	0.7723
3406.85	0.7659
3418.42	0.7632
3430	0.7593
3441.58	0.758
3453.15	0.7558
3464.73	0.7525
3476.3	0.75
3487.88	0.75
3499.45	0.7523
3511.03	0.7568
3522.6	0.7619
3534.18	0.7803
3545.75	0.7853
3557.33	0.788
3568.9	0.791
3580.48	0.795
3592.06	0.7955
3603.63	0.8023
3615.21	0.807
3626.78	0.8084
3638.36	0.81
3649.93	0.8149
3661.51	0.8192
3673.08	0.8245
3684.66	0.8267
3696.23	0.829
3707.81	0.83
3719.38	0.8316
3730.96	0.8329
3742.53	0.836
3754.11	0.836
3765.69	0.838
3777.26	0.839
3788.84	0.839
3800.41	0.839
3811.99	0.839
3823.56	0.838
3835.14	0.838
3846.71	0.838
3858.29	0.837
3869.86	0.8357
3881.44	0.832
3893.01	0.83
3904.59	0.829
3916.16	0.8277
3927.74	0.827
3939.32	0.827
3950.89	0.8259
3962.47	0.8223
3974.04	0.8187
3985.62	0.817
3997.19	0.8156
4008.77	0.8115
4020.34	0.81
4031.92	0.81
4043.49	0.81
4055.07	0.8078
4066.64	0.8033
4078.22	0.802
4089.79	0.801
4101.37	0.801
4112.95	0.8
4124.52	0.8
4136.1	0.8
4147.67	0.799
4159.25	0.7949
4170.82	0.7887
4182.4	0.788
4193.97	0.787
4205.55	0.787
4217.12	0.7851
4228.7	0.7833
4240.27	0.781
4251.85	0.78
4263.43	0.7785
4275	0.7762
4286.58	0.776
4298.15	0.776
4309.73	0.7754
4321.3	0.7741
4332.88	0.7742
4344.45	0.776
4356.03	0.7743
4367.6	0.773
4379.18	0.7717
4390.75	0.77
4402.33	0.769
4413.9	0.767
4425.48	0.768
4437.06	0.768
4448.63	0.769
4460.21	0.769
4471.78	0.769
4483.36	0.768
4494.93	0.7659
4506.51	0.7583
4518.08	0.7524
4529.66	0.75
4541.23	0.749
4552.81	0.75
4564.38	0.7507
4575.96	0.751
4587.53	0.751
4599.11	0.75
4610.69	0.75
4622.26	0.7489
4633.84	0.747
4645.41	0.7486
4656.99	0.751
4668.56	0.75
4680.14	0.749
4691.71	0.748
4703.29	0.748
4714.86	0.7457
4726.44	0.7418
4738.01	0.739
4749.59	0.737
4761.16	0.736
4772.74	0.7303
4784.32	0.729
4795.89	0.728
4807.47	0.728
4819.04	0.729
4830.62	0.728
4842.19	0.728
4853.77	0.7274
4865.34	0.726
4876.92	0.724
4888.49	0.7226
4900.07	0.7213
4911.64	0.721
4923.22	0.7187
4934.79	0.7175
4946.37	0.717
4957.95	0.716
4969.52	0.7146
4981.1	0.714
