Infrared Spectrum: 2,4-DICHLOROPHENYL TRICHLOROACETATE
Formula: C8 H3 Cl5 O2
CAS: 23399-81-7
State: SOLUTION (10% CCl4 FOR 5000-1330, 10% CS2 FOR 1330-625 CM^-^1)
Class: COBLENTZ
Instrument: Not specified, most likely a prism, grating, or hybrid spectrometer.
Sampling: TRANSMISSION
Path length: 0.0119 CM, 0.0117 CM
Resolution: 4
Origin: DOW CHEMICAL COMPANY
MICROMETERS	TRANSMITTANCE
2.014	0.899
2.05503	0.904
2.09607	0.902
2.1371	0.9
2.17814	0.904
2.21917	0.902
2.26021	0.897
2.30124	0.902
2.34228	0.9
2.38331	0.904
2.42435	0.907
2.46538	0.911
2.50642	0.914
2.54745	0.917
2.58849	0.919
2.62952	0.923
2.67056	0.923
2.71159	0.912
2.75263	0.895
2.79366	0.883
2.8347	0.897
2.87573	0.897
2.91677	0.899
2.9578	0.9
2.99884	0.902
3.03987	0.9
3.08091	0.902
3.12194	0.897
3.16298	0.882
3.20401	0.875
3.24505	0.902
3.28608	0.905
3.32712	0.912
3.36815	0.912
3.40918	0.929
3.45022	0.917
3.49125	0.919
3.53229	0.923
3.57332	0.929
3.61436	0.923
3.65539	0.924
3.69643	0.926
3.73746	0.926
3.7785	0.929
3.81953	0.924
3.86057	0.926
3.9016	0.929
3.94264	0.929
3.98367	0.928
4.02471	0.926
4.06574	0.923
4.10678	0.914
4.14781	0.911
4.18885	0.917
4.22988	0.919
4.27092	0.905
4.31195	0.902
4.35299	0.914
4.39402	0.928
4.43506	0.929
4.47609	0.931
4.51713	0.933
4.55816	0.926
4.5992	0.921
4.64023	0.912
4.68127	0.909
4.7223	0.924
4.76333	0.928
4.80437	0.928
4.8454	0.924
4.88644	0.926
4.92747	0.928
4.96851	0.926
5.00954	0.928
5.05058	0.929
5.09161	0.929
5.13265	0.926
5.17368	0.909
5.21472	0.897
5.25575	0.89
5.29679	0.885
5.33782	0.882
5.37886	0.875
5.41989	0.866
5.46093	0.863
5.50196	0.76
5.543	0.326
5.58403	0.121
5.62507	0.661
5.6661	0.837
5.70714	0.839
5.74817	0.873
5.78921	0.9
5.83024	0.912
5.87128	0.919
5.91231	0.928
5.95335	0.931
5.99438	0.924
6.03542	0.914
6.07645	0.907
6.11748	0.9
6.15852	0.878
6.19955	0.817
6.24059	0.683
6.28162	0.47
6.32266	0.528
6.36369	0.567
6.40473	0.524
6.44576	0.495
6.4868	0.555
6.52783	0.613
6.56887	0.652
6.6099	0.678
6.65094	0.676
6.69197	0.642
6.73301	0.335
6.77404	0.288
6.81508	0.618
6.85611	0.8
6.89715	0.858
6.93818	0.82
6.97922	0.735
7.02025	0.813
7.06129	0.892
7.10232	0.887
7.14336	0.806
7.18439	0.67
7.22543	0.743
7.26646	0.873
7.3075	0.892
7.34853	0.899
7.38956	0.897
7.4306	0.904
7.47163	0.916
7.51267	0.895
7.5537	0.894
7.59474	0.895
7.63577	0.875
7.67681	0.841
7.71784	0.811
7.75888	0.8
7.79991	0.772
7.84095	0.767
7.88198	0.776
7.92302	0.723
7.96405	0.512
8.00509	0.408
8.04612	0.531
8.08716	0.374
8.12819	0.249
8.16923	0.09
8.21026	0.02
8.2513	0.041
8.29233	0.076
8.33337	0.029
8.3744	0.147
8.41544	0.393
8.45647	0.611
8.49751	0.666
8.53854	0.705
8.57958	0.741
8.62061	0.765
8.66165	0.758
8.70268	0.661
8.74371	0.511
8.78475	0.516
8.82578	0.673
8.86682	0.752
8.90785	0.719
8.94889	0.716
8.98992	0.716
9.03096	0.627
9.07199	0.347
9.11303	0.14
9.15406	0.572
9.1951	0.719
9.23613	0.752
9.27717	0.808
9.3182	0.839
9.35924	0.839
9.40027	0.764
9.44131	0.499
9.48234	0.524
9.52338	0.781
9.56441	0.837
9.60545	0.873
9.64648	0.888
9.68752	0.9
9.72855	0.909
9.76959	0.909
9.81062	0.917
9.85166	0.917
9.89269	0.914
9.93373	0.917
9.97476	0.924
10.0158	0.924
10.0568	0.919
10.0979	0.914
10.1389	0.907
10.1799	0.907
10.221	0.907
10.262	0.899
10.303	0.885
10.3441	0.859
10.3851	0.805
10.4261	0.637
10.4672	0.364
10.5082	0.377
10.5492	0.67
10.5903	0.769
10.6313	0.733
10.6724	0.629
10.7134	0.758
10.7544	0.834
10.7955	0.858
10.8365	0.87
10.8775	0.883
10.9186	0.887
10.9596	0.887
11.0006	0.887
11.0417	0.882
11.0827	0.871
11.1237	0.858
11.1648	0.823
11.2058	0.774
11.2468	0.692
11.2879	0.618
11.3289	0.499
11.3699	0.384
11.411	0.396
11.452	0.429
11.493	0.35
11.5341	0.21
11.5751	0.352
11.6162	0.505
11.6572	0.548
11.6982	0.565
11.7393	0.567
11.7803	0.562
11.8213	0.514
11.8624	0.435
11.9034	0.271
11.9444	0.099
11.9855	0.035
12.0265	0.025
12.0675	0.049
12.1086	0.061
12.1496	0.044
12.1906	0.023
12.2317	0.051
12.2727	0.179
12.3137	0.382
12.3548	0.533
12.3958	0.618
12.4369	0.668
12.4779	0.699
12.5189	0.709
12.56	0.712
12.601	0.711
12.642	0.668
12.6831	0.572
12.7241	0.43
12.7651	0.27
12.8062	0.203
12.8472	0.396
12.8882	0.584
12.9293	0.671
12.9703	0.733
13.0113	0.769
13.0524	0.796
13.0934	0.808
13.1344	0.817
13.1755	0.822
13.2165	0.823
13.2575	0.823
13.2986	0.818
13.3396	0.822
13.3807	0.822
13.4217	0.82
13.4627	0.815
13.5038	0.808
13.5448	0.803
13.5858	0.794
13.6269	0.786
13.6679	0.777
13.7089	0.776
13.75	0.769
13.791	0.762
13.832	0.755
13.8731	0.747
13.9141	0.733
13.9551	0.712
13.9962	0.673
14.0372	0.576
14.0782	0.521
14.1193	0.519
14.1603	0.57
14.2013	0.613
14.2424	0.639
14.2834	0.641
14.3245	0.639
14.3655	0.629
14.4065	0.603
14.4476	0.567
14.4886	0.517
14.5296	0.459
14.5707	0.42
14.6117	0.393
14.6527	0.377
14.6938	0.328
14.7348	0.252
14.7758	0.155
14.8169	0.095
14.8579	0.088
14.8989	0.114
14.94	0.208
14.981	0.316
15.022	0.393
15.0631	0.427
15.1041	0.452
15.1452	0.466
15.1862	0.475
15.2272	0.478
15.2683	0.48
15.3093	0.48
15.3503	0.471
15.3914	0.459
15.4324	0.454
15.4734	0.456
15.5145	0.458
15.5555	0.459
15.5965	0.461
15.6376	0.466
15.6786	0.47
15.7196	0.47
15.7607	0.468
15.8017	0.47
15.8427	0.468
