Infrared Spectrum: N-[3-(DIMETHOXYMETHYLSILYL)-2-METHYLPROPYL]ETHYLENEDIAMINE
Formula: C9 H24 N2 O2 Si
CAS: 23410-40-4
State: LIQUID (NEAT)
Boiling point: 131 C AT 15 mmHg
Class: COBLENTZ
Instrument: BECKMAN IR-4 (HYBRID PRISM-GRATING)
Sampling: TRANSMISSION
Path length: CAPILLARY CELL
Resolution: 4
Origin: ALDRICH CHEMICAL COMPANY, MILWAUKEE, WIS.
MICROMETERS	TRANSMITTANCE
2.025	0.971
2.05997	0.971
2.09494	0.971
2.12991	0.968
2.16488	0.953
2.19985	0.953
2.23482	0.957
2.26979	0.961
2.30476	0.959
2.33973	0.962
2.3747	0.954
2.40967	0.963
2.44464	0.964
2.47961	0.967
2.51459	0.978
2.54956	0.976
2.58453	0.972
2.6195	0.967
2.65447	0.952
2.68944	0.937
2.72441	0.909
2.75938	0.882
2.79435	0.825
2.82932	0.78
2.86429	0.717
2.89926	0.651
2.93423	0.607
2.9692	0.592
3.00417	0.612
3.03914	0.628
3.07411	0.634
3.10908	0.651
3.14405	0.654
3.17902	0.652
3.21399	0.638
3.24896	0.611
3.28393	0.434
3.3189	0.255
3.35387	0.25
3.38884	0.268
3.42382	0.324
3.45879	0.316
3.49376	0.401
3.52873	0.548
3.5637	0.638
3.59867	0.686
3.63364	0.728
3.66861	0.751
3.70358	0.77
3.73855	0.776
3.77352	0.789
3.80849	0.813
3.84346	0.823
3.87843	0.838
3.9134	0.85
3.94837	0.858
3.98334	0.872
4.01831	0.878
4.05328	0.887
4.08825	0.89
4.12322	0.899
4.15819	0.914
4.19316	0.917
4.22813	0.918
4.2631	0.917
4.29807	0.908
4.33305	0.904
4.36802	0.904
4.40299	0.905
4.43796	0.905
4.47293	0.904
4.5079	0.9
4.54287	0.89
4.57784	0.885
4.61281	0.884
4.64778	0.887
4.68275	0.889
4.71772	0.893
4.75269	0.895
4.78766	0.895
4.82263	0.902
4.8576	0.905
4.89257	0.907
4.92754	0.914
4.96251	0.91
4.99748	0.917
5.03245	0.915
5.06742	0.912
5.10239	0.912
5.13736	0.908
5.17233	0.913
5.2073	0.913
5.24228	0.919
5.27725	0.917
5.31222	0.925
5.34719	0.918
5.38216	0.918
5.41713	0.92
5.4521	0.917
5.48707	0.917
5.52204	0.928
5.55701	0.923
5.59198	0.929
5.62695	0.918
5.66192	0.922
5.69689	0.92
5.73186	0.922
5.76683	0.907
5.8018	0.894
5.83677	0.888
5.87174	0.863
5.90671	0.85
5.94168	0.824
5.97665	0.805
6.01162	0.78
6.04659	0.767
6.08156	0.755
6.11654	0.718
6.15151	0.678
6.18648	0.633
6.22145	0.623
6.25642	0.623
6.29139	0.629
6.32636	0.651
6.36133	0.69
6.3963	0.72
6.43127	0.741
6.46624	0.749
6.50121	0.742
6.53618	0.732
6.57115	0.703
6.60612	0.676
6.64109	0.638
6.67606	0.595
6.71103	0.531
6.746	0.468
6.78097	0.434
6.81594	0.461
6.85091	0.514
6.88588	0.558
6.92085	0.627
6.95582	0.659
6.99079	0.671
7.02576	0.656
7.06074	0.648
7.09571	0.672
7.13068	0.696
7.16565	0.668
7.20062	0.633
7.23559	0.663
7.27056	0.697
7.30553	0.71
7.3405	0.698
7.37547	0.664
7.41044	0.661
7.44541	0.691
7.48038	0.707
7.51535	0.69
7.55032	0.667
7.58529	0.653
7.62026	0.651
7.65523	0.668
7.6902	0.681
7.72517	0.693
7.76014	0.696
7.79511	0.678
7.83008	0.599
7.86505	0.422
7.90002	0.328
7.935	0.445
7.96997	0.598
8.00494	0.685
8.03991	0.682
8.07488	0.652
8.10985	0.604
8.14482	0.558
8.17979	0.564
8.21476	0.579
8.24973	0.583
8.2847	0.547
8.31967	0.486
8.35464	0.451
8.38961	0.47
8.42458	0.531
8.45955	0.575
8.49452	0.603
8.52949	0.614
8.56446	0.613
8.59943	0.601
8.6344	0.589
8.66937	0.56
8.70434	0.529
8.73931	0.493
8.77428	0.457
8.80925	0.419
8.84422	0.381
8.8792	0.341
8.91417	0.297
8.94914	0.254
8.98411	0.209
9.01908	0.151
9.05405	0.114
9.08902	0.082
9.12399	0.072
9.15896	0.079
9.19393	0.086
9.2289	0.096
9.26387	0.101
9.29884	0.115
9.33381	0.13
9.36878	0.141
9.40375	0.158
9.43872	0.175
9.47369	0.186
9.50866	0.198
9.54363	0.203
9.5786	0.215
9.61357	0.252
9.64854	0.279
9.68351	0.335
9.71848	0.373
9.75346	0.411
9.78843	0.451
9.8234	0.51
9.85837	0.552
9.89334	0.582
9.92831	0.624
9.96328	0.648
9.99825	0.667
10.0332	0.692
10.0682	0.71
10.1032	0.725
10.1381	0.736
10.1731	0.744
10.2081	0.746
10.243	0.744
10.278	0.74
10.313	0.731
10.348	0.728
10.3829	0.717
10.4179	0.71
10.4529	0.702
10.4878	0.696
10.5228	0.681
10.5578	0.67
10.5927	0.659
10.6277	0.648
10.6627	0.631
10.6977	0.612
10.7326	0.59
10.7676	0.577
10.8026	0.559
10.8375	0.545
10.8725	0.542
10.9075	0.54
10.9424	0.549
10.9774	0.559
11.0124	0.574
11.0474	0.583
11.0823	0.589
11.1173	0.595
11.1523	0.608
11.1872	0.609
11.2222	0.607
11.2572	0.603
11.2922	0.593
11.3271	0.588
11.3621	0.57
11.3971	0.547
11.432	0.526
11.467	0.504
11.502	0.483
11.5369	0.46
11.5719	0.444
11.6069	0.426
11.6419	0.415
11.6768	0.391
11.7118	0.372
11.7468	0.348
11.7817	0.322
11.8167	0.297
11.8517	0.265
11.8866	0.235
11.9216	0.22
11.9566	0.213
11.9916	0.212
12.0265	0.219
12.0615	0.233
12.0965	0.24
12.1314	0.258
12.1664	0.262
12.2014	0.268
12.2364	0.277
12.2713	0.287
12.3063	0.296
12.3413	0.304
12.3762	0.306
12.4112	0.302
12.4462	0.302
12.4811	0.292
12.5161	0.279
12.5511	0.267
12.5861	0.248
12.621	0.228
12.656	0.22
12.691	0.218
12.7259	0.219
12.7609	0.224
12.7959	0.232
12.8308	0.249
12.8658	0.263
12.9008	0.281
12.9358	0.298
12.9707	0.319
13.0057	0.34
13.0407	0.357
13.0756	0.377
13.1106	0.397
13.1456	0.417
13.1806	0.431
13.2155	0.457
13.2505	0.476
13.2855	0.498
13.3204	0.525
13.3554	0.54
13.3904	0.564
13.4253	0.574
13.4603	0.582
13.4953	0.583
13.5303	0.578
13.5652	0.565
13.6002	0.558
13.6352	0.552
13.6701	0.548
13.7051	0.549
13.7401	0.555
13.775	0.565
13.81	0.577
13.845	0.59
13.88	0.606
13.9149	0.616
13.9499	0.626
13.9849	0.636
14.0198	0.646
14.0548	0.651
14.0898	0.652
14.1248	0.654
14.1597	0.657
14.1947	0.658
14.2297	0.657
14.2646	0.657
14.2996	0.657
14.3346	0.658
14.3695	0.659
14.4045	0.663
14.4395	0.666
14.4745	0.667
14.5094	0.67
14.5444	0.676
14.5794	0.675
14.6143	0.677
14.6493	0.678
14.6843	0.678
14.7192	0.677
14.7542	0.672
14.7892	0.673
14.8242	0.671
14.8591	0.67
14.8941	0.668
14.9291	0.664
14.964	0.657
14.999	0.642
