Infrared Spectrum: 4-Methyl-4-nonanol
Formula: C 10 H 22 O
CAS: 23418-38-4
State: gas
Instrument: HP-GC/MS/IRD
Origin: NIST Mass Spectrometry Data Center
1/CM	ABSORBANCE
550	0.0002664
562	0.0001404
574	0.000198
586	0.000108
598	8.64e-05
610	9.36e-05
622	0.0001152
634	7.2e-05
646	5.04e-05
658	1.08e-05
670	7.56e-05
682	5.4e-05
694	0.0001404
706	0.0002556
718	0.0004284
730	0.0006048
742	0.00072
754	0.0006912
766	0.0007164
778	0.0005796
790	0.0004536
802	0.0004104
814	0.0003132
826	0.000414
838	0.0005292
850	0.000792
862	0.0010404
874	0.0011124
886	0.0014616
898	0.0019872
910	0.0021096
922	0.002682
934	0.002844
946	0.0021132
958	0.0015624
970	0.0011916
982	0.0009108
994	0.0008964
1006	0.0012168
1018	0.00171
1030	0.001818
1042	0.0016272
1054	0.0016848
1066	0.002034
1078	0.0021636
1090	0.0020952
1102	0.0021636
1114	0.0024228
1126	0.0033768
1138	0.004356
1150	0.0050184
1162	0.0047304
1174	0.0036108
1186	0.0029196
1198	0.0025812
1210	0.00243
1222	0.0024048
1234	0.0025488
1246	0.0026388
1258	0.0026676
1270	0.0026676
1282	0.0026784
1294	0.0026316
1306	0.0025812
1318	0.0025884
1330	0.0025632
1342	0.0027648
1354	0.0029412
1366	0.0039672
1378	0.0055584
1390	0.0040212
1402	0.0020664
1414	0.0015192
1426	0.0015948
1438	0.0023292
1450	0.0037116
1462	0.0050688
1474	0.0039348
1486	0.0017532
1498	0.0009324
1510	0.0006732
1522	0.0005112
1534	0.0003996
1546	0.0003024
1558	0.0002628
1570	0.0001764
1582	0.000162
1594	0.0001548
1606	0.0001512
1618	0.0001692
1630	0.0001224
1642	0.0001224
1654	0.0001692
1666	0.0001008
1678	0.000108
1690	7.92e-05
1702	0.0001116
1714	9.72e-05
1726	2.88e-05
1738	4.32e-05
1750	6.84e-05
1762	4.68e-05
1774	3.24e-05
1786	3.24e-05
1798	4.68e-05
1810	3.6e-05
1822	3.96e-05
1834	1.44e-05
1846	3.24e-05
1858	1.8e-05
1870	1.44e-05
1882	2.52e-05
1894	2.16e-05
1906	7.2e-06
1918	1.8e-05
1930	1.8e-05
1942	3.6e-06
1954	7.2e-06
1966	0
1978	2.52e-05
1990	2.52e-05
2002	0
2014	1.44e-05
2026	4.68e-05
2038	6.48e-05
2050	5.4e-05
2062	4.68e-05
2074	5.04e-05
2086	3.6e-05
2098	1.08e-05
2110	1.8e-05
2122	2.16e-05
2134	2.16e-05
2146	3.24e-05
2158	2.52e-05
2170	2.16e-05
2182	4.32e-05
2194	3.6e-05
2206	2.52e-05
2218	2.88e-05
2230	3.6e-05
2242	0
2254	2.16e-05
2266	1.44e-05
2278	2.88e-05
2290	1.8e-05
2302	5.04e-05
2314	6.12e-05
2326	7.2e-05
2338	7.2e-05
2350	6.12e-05
2362	9.36e-05
2374	7.2e-05
2386	7.2e-05
2398	7.2e-05
2410	7.2e-05
2422	6.48e-05
2434	5.04e-05
2446	4.32e-05
2458	2.52e-05
2470	1.8e-05
2482	2.88e-05
2494	3.6e-05
2506	6.84e-05
2518	5.4e-05
2530	7.92e-05
2542	0.0001044
2554	0.0001188
2566	0.0001296
2578	0.000144
2590	0.0001908
2602	0.0002016
2614	0.0001944
2626	0.0002412
2638	0.0003024
2650	0.0003204
2662	0.0003204
2674	0.0003708
2686	0.0003708
2698	0.0003924
2710	0.0004212
2722	0.000504
2734	0.0006732
2746	0.0007632
2758	0.0007056
2770	0.0007308
2782	0.0008928
2794	0.0011232
2806	0.0014976
2818	0.0020304
2830	0.0028944
2842	0.0048276
2854	0.0086148
2866	0.0123732
2878	0.0155556
2890	0.0152136
2902	0.0152496
2914	0.0205164
2926	0.0279108
2938	0.035748
2950	0.0314856
2962	0.0336168
2974	0.031806
2986	0.0151524
2998	0.0066456
3010	0.0036468
3022	0.0025164
3034	0.0019008
3046	0.0014292
3058	0.001134
3070	0.0009648
3082	0.000846
3094	0.0007452
3106	0.0006516
3118	0.000558
3130	0.0004968
3142	0.0004428
3154	0.0004032
3166	0.0003708
3178	0.00036
3190	0.0003348
3202	0.00027
3214	0.0002232
3226	0.0001584
3238	0.0001224
3250	0.000108
3262	8.28e-05
3274	6.84e-05
3286	6.48e-05
3298	6.12e-05
3310	6.48e-05
3322	5.76e-05
3334	4.68e-05
3346	2.16e-05
3358	3.6e-05
3370	7.56e-05
3382	9e-05
3394	0.0001224
3406	7.92e-05
3418	0.0001116
3430	6.84e-05
3442	7.92e-05
3454	8.28e-05
3466	7.92e-05
3478	5.04e-05
3490	5.4e-05
3502	5.4e-05
3514	2.16e-05
3526	4.68e-05
3538	1.8e-05
3550	4.32e-05
3562	2.16e-05
3574	3.24e-05
3586	5.4e-05
3598	7.2e-05
3610	0.0001908
3622	0.0004644
3634	0.0013464
3646	0.001422
3658	0.0005472
3670	0.000252
3682	0.0001332
3694	7.92e-05
3706	6.48e-05
3718	6.48e-05
3730	6.48e-05
3742	7.56e-05
3754	0.0001044
3766	0.0001116
3778	0.000108
3790	5.04e-05
3802	0.0001152
3814	0.0001368
3826	0.0001224
3838	0.0001368
