Infrared Spectrum: 2-NAPHTHANILIDE, 4-AMINO-3-HYDROXY-
Formula: C17 H14 N2 O2
CAS: 23421-81-0
State: SOLID (NUJOL MULL)
Class: COBLENTZ
Instrument: Not specified, most likely a prism, grating, or hybrid spectrometer.
Sampling: TRANSMISSION
Resolution: 4
Origin: TENNESSEE EASTMAN COMPANY, RESEARCH LABORATORIES
MICROMETERS	TRANSMITTANCE
1.999	0.471
2.038	0.473
2.07701	0.474
2.11601	0.479
2.15501	0.486
2.19401	0.489
2.23302	0.494
2.27202	0.5
2.31102	0.508
2.35003	0.512
2.38903	0.517
2.42803	0.531
2.46703	0.533
2.50604	0.538
2.54504	0.541
2.58404	0.546
2.62304	0.549
2.66205	0.552
2.70105	0.569
2.74005	0.593
2.77906	0.6
2.81806	0.6
2.85706	0.601
2.89606	0.609
2.93507	0.617
2.97407	0.613
3.01307	0.588
3.05208	0.512
3.09108	0.453
3.13008	0.5
3.16908	0.533
3.20809	0.544
3.24709	0.546
3.28609	0.538
3.32509	0.504
3.3641	0.334
3.4031	0.099
3.4421	0.065
3.48111	0.108
3.52011	0.118
3.55911	0.531
3.59811	0.604
3.63712	0.64
3.67612	0.647
3.71512	0.647
3.75413	0.658
3.79313	0.661
3.83213	0.678
3.87113	0.681
3.91014	0.691
3.94914	0.704
3.98814	0.715
4.02714	0.72
4.06615	0.726
4.10515	0.736
4.14415	0.739
4.18316	0.741
4.22216	0.752
4.26116	0.769
4.30016	0.775
4.33917	0.778
4.37817	0.777
4.41717	0.78
4.45618	0.782
4.49518	0.783
4.53418	0.785
4.57318	0.793
4.61219	0.8
4.65119	0.801
4.69019	0.808
4.7292	0.814
4.7682	0.817
4.8072	0.821
4.8462	0.821
4.88521	0.819
4.92421	0.822
4.96321	0.826
5.00221	0.83
5.04122	0.834
5.08022	0.837
5.11922	0.837
5.15823	0.834
5.19723	0.837
5.23623	0.839
5.27523	0.85
5.31424	0.852
5.35324	0.86
5.39224	0.86
5.43125	0.861
5.47025	0.861
5.50925	0.861
5.54825	0.865
5.58726	0.866
5.62626	0.871
5.66526	0.873
5.70426	0.873
5.74327	0.873
5.78227	0.871
5.82127	0.873
5.86028	0.873
5.89928	0.873
5.93828	0.871
5.97728	0.85
6.01629	0.782
6.05529	0.598
6.09429	0.421
6.1333	0.565
6.1723	0.64
6.2113	0.596
6.2503	0.681
6.28931	0.543
6.32831	0.643
6.36731	0.66
6.40631	0.695
6.44532	0.752
6.48432	0.682
6.52332	0.377
6.56233	0.266
6.60133	0.495
6.64033	0.573
6.67933	0.611
6.71834	0.65
6.75734	0.604
6.79634	0.411
6.83535	0.331
6.87435	0.318
6.91335	0.33
6.95235	0.528
6.99136	0.666
7.03036	0.713
7.06936	0.704
7.10837	0.603
7.14737	0.515
7.18637	0.673
7.22537	0.572
7.26438	0.455
7.30338	0.489
7.34238	0.543
7.38138	0.543
7.42039	0.573
7.45939	0.59
7.49839	0.525
7.5374	0.312
7.5764	0.243
7.6154	0.365
7.6544	0.471
7.69341	0.492
7.73241	0.57
7.77141	0.598
7.81042	0.603
7.84942	0.652
7.88842	0.655
7.92742	0.694
7.96643	0.71
8.00543	0.622
8.04443	0.468
8.08343	0.507
8.12244	0.56
8.16144	0.538
8.20044	0.642
8.23945	0.686
8.27845	0.715
8.31745	0.736
8.35645	0.759
8.39546	0.76
8.43446	0.73
8.47346	0.645
8.51247	0.603
8.55147	0.63
8.59047	0.699
8.62947	0.743
8.66848	0.762
8.70748	0.728
8.74648	0.673
8.78548	0.746
8.82449	0.786
8.86349	0.8
8.90249	0.813
8.9415	0.819
8.9805	0.824
9.0195	0.83
9.0585	0.83
9.09751	0.83
9.13651	0.834
9.17551	0.839
9.21452	0.837
9.25352	0.835
9.29252	0.829
9.33152	0.834
9.37053	0.847
9.40953	0.852
9.44853	0.855
9.48754	0.855
9.52654	0.855
9.56554	0.855
9.60454	0.855
9.64355	0.858
9.68255	0.855
9.72155	0.85
9.76055	0.85
9.79956	0.839
9.83856	0.835
9.87756	0.847
9.91657	0.861
9.95557	0.868
9.99457	0.868
10.0336	0.871
10.0726	0.874
10.1116	0.874
10.1506	0.874
10.1896	0.873
10.2286	0.869
10.2676	0.868
10.3066	0.863
10.3456	0.855
10.3846	0.856
10.4236	0.835
10.4626	0.809
10.5016	0.834
10.5406	0.863
10.5796	0.871
10.6186	0.874
10.6576	0.874
10.6966	0.874
10.7356	0.874
10.7746	0.868
10.8136	0.852
10.8526	0.853
10.8916	0.866
10.9306	0.868
10.9696	0.866
11.0086	0.847
11.0476	0.793
11.0866	0.751
11.1257	0.783
11.1647	0.826
11.2037	0.829
11.2427	0.83
11.2817	0.83
11.3207	0.832
11.3597	0.832
11.3987	0.834
11.4377	0.832
11.4767	0.822
11.5157	0.822
11.5547	0.822
11.5937	0.822
11.6327	0.816
11.6717	0.806
11.7107	0.798
11.7497	0.793
11.7887	0.782
11.8277	0.767
11.8667	0.738
11.9057	0.733
11.9447	0.741
11.9837	0.746
12.0227	0.746
12.0617	0.741
12.1007	0.738
12.1397	0.738
12.1787	0.738
12.2177	0.736
12.2567	0.733
12.2957	0.733
12.3347	0.741
12.3737	0.743
12.4127	0.756
12.4517	0.769
12.4907	0.777
12.5298	0.783
12.5688	0.785
12.6078	0.783
12.6468	0.746
12.6858	0.64
12.7248	0.507
12.7638	0.44
12.8028	0.466
12.8418	0.534
12.8808	0.543
12.9198	0.533
12.9588	0.57
12.9978	0.658
13.0368	0.673
13.0758	0.673
13.1148	0.678
13.1538	0.679
13.1928	0.676
13.2318	0.64
13.2708	0.577
13.3098	0.432
13.3488	0.344
13.3878	0.318
13.4268	0.339
13.4658	0.38
13.5048	0.401
13.5438	0.413
13.5828	0.442
13.6218	0.474
13.6608	0.5
13.6998	0.549
13.7388	0.578
13.7778	0.613
13.8168	0.629
13.8558	0.645
13.8948	0.655
13.9339	0.653
13.9729	0.622
14.0119	0.591
14.0509	0.586
14.0899	0.611
14.1289	0.635
14.1679	0.66
14.2069	0.669
14.2459	0.673
14.2849	0.671
14.3239	0.637
14.3629	0.582
14.4019	0.541
14.4409	0.536
14.4799	0.567
14.5189	0.627
14.5579	0.661
14.5969	0.671
14.6359	0.691
14.6749	0.694
14.7139	0.695
14.7529	0.694
14.7919	0.694
14.8309	0.694
14.8699	0.695
14.9089	0.694
14.9479	0.694
14.9869	0.694
15.0259	0.691
15.0649	0.691
15.1039	0.687
15.1429	0.682
15.1819	0.678
15.2209	0.673
15.2599	0.669
15.299	0.663
15.338	0.661
15.377	0.661
15.416	0.66
15.455	0.66
15.494	0.66
15.533	0.658
15.572	0.655
15.611	0.652
15.65	0.648
15.689	0.645
15.728	0.643
15.767	0.64
15.806	0.639
15.845	0.637
15.884	0.639
15.923	0.639
15.962	0.635
