Infrared Spectrum: Indoline, 6-fluoro-
Formula: C8 H8 F N
CAS: 2343-23-9
State: SOLUTION (10% CCl4 FOR 3800-1330, 10% CS2 FOR 1330-400 CM^-^1)
Class: COBLENTZ II
Instrument: DOW KBr FOREPRISM-GRATING
Instrument parameters: BLAZED AT 3.5, 12.0, 20.0 MICRON AND CHANGED AT 5.0, 7.5, 14.9 MICRON
Sampling: TRANSMISSION
Path length: 0.011 CM, 0.011 CM
Resolution: 2
Origin: DOW CHEMICAL COMPANY
1/CM	TRANSMITTANCE
3800	0.879
3791	0.8792
3782	0.8797
3773	0.8797
3764	0.8794
3755	0.8774
3746	0.8761
3737	0.8778
3728	0.8791
3719	0.8781
3710	0.8766
3701	0.8741
3692	0.8715
3683	0.8688
3674	0.8657
3665	0.8618
3656	0.8616
3647	0.8645
3638	0.8671
3629	0.8684
3620	0.8685
3611	0.8634
3602	0.8583
3593	0.8647
3584	0.8632
3575	0.8601
3566	0.858
3557	0.8555
3548	0.8525
3539	0.8488
3530	0.845
3521	0.8411
3512	0.8374
3503	0.8334
3494	0.8282
3485	0.8118
3476	0.8065
3467	0.8005
3458	0.791
3449	0.7793
3440	0.7515
3431	0.6668
3422	0.4287
3413	0.4018
3404	0.5032
3395	0.5965
3386	0.6389
3377	0.6801
3368	0.7132
3359	0.7368
3350	0.7495
3341	0.7568
3332	0.7619
3323	0.7644
3314	0.7698
3305	0.7749
3296	0.7801
3287	0.786
3278	0.7905
3269	0.7928
3260	0.794
3251	0.8004
3242	0.8049
3233	0.8034
3224	0.8017
3215	0.8018
3206	0.8035
3197	0.8051
3188	0.8067
3179	0.8082
3170	0.8097
3161	0.8103
3152	0.8106
3143	0.8105
3134	0.8103
3125	0.8086
3116	0.803
3107	0.7955
3098	0.7947
3089	0.7917
3080	0.778
3071	0.7638
3062	0.7607
3053	0.7603
3044	0.754
3035	0.6474
3026	0.6969
3017	0.756
3008	0.7621
2999	0.759
2990	0.6468
2981	0.4743
2972	0.3837
2963	0.4117
2954	0.394
2945	0.3592
2936	0.4199
2927	0.426
2918	0.4329
2909	0.4792
2900	0.5008
2891	0.52
2882	0.506
2873	0.375
2864	0.2978
2855	0.2238
2846	0.3692
2837	0.4709
2828	0.614
2819	0.6728
2810	0.7196
2801	0.755
2792	0.7584
2783	0.759
2774	0.7595
2765	0.7525
2756	0.7601
2747	0.7778
2738	0.7906
2729	0.7943
2720	0.7955
2711	0.7947
2702	0.7925
2693	0.7891
2684	0.783
2675	0.8003
2666	0.8065
2657	0.8065
2648	0.8049
2639	0.8015
2630	0.7994
2621	0.8036
2612	0.8071
2603	0.8046
2594	0.8018
2585	0.8006
2576	0.8045
2567	0.815
2558	0.8182
2549	0.8172
2540	0.8161
2531	0.8149
2522	0.8161
2513	0.8203
2504	0.8253
2495	0.8295
2486	0.8314
2477	0.8325
2468	0.8332
2459	0.8336
2450	0.8339
2441	0.834
2432	0.834
2423	0.8337
2414	0.8221
2405	0.8026
2396	0.7971
2387	0.8142
2378	0.8297
2369	0.8361
2360	0.837
2351	0.8373
2342	0.8438
2333	0.847
2324	0.8499
2315	0.8512
2306	0.859
2297	0.8545
2288	0.8515
2279	0.8507
2270	0.8491
2261	0.8465
2252	0.8559
2243	0.8559
2234	0.8552
2225	0.8516
2216	0.8496
2207	0.8512
2198	0.8552
2189	0.8593
2180	0.8575
2171	0.8558
2162	0.8567
2153	0.8597
2144	0.8615
2135	0.8615
2126	0.8591
2117	0.857
2108	0.8546
2099	0.8518
2090	0.8492
2081	0.8499
2072	0.8521
2063	0.8544
2054	0.8542
2045	0.8475
2036	0.8471
2027	0.8518
2018	0.8548
2009	0.8536
2000	0.853
1991	0.8565
1982	0.8557
1973	0.8561
1964	0.8561
1955	0.8562
1946	0.8563
1937	0.8563
1928	0.8537
1919	0.8513
1910	0.8499
1901	0.8492
1892	0.8489
1883	0.8482
1874	0.8468
1865	0.8383
1856	0.8217
1847	0.8149
1838	0.7874
1829	0.8022
1820	0.8218
1811	0.8252
1802	0.8346
1793	0.8393
1784	0.8389
1775	0.8295
1766	0.8217
1757	0.818
1748	0.8071
1739	0.8036
1730	0.8021
1721	0.798
1712	0.79
1703	0.7782
1694	0.7758
1685	0.7688
1676	0.7443
1667	0.6978
1658	0.4926
1649	0.4335
1640	0.518
1631	0.3074
1622	0.0067
1613	0.0052
1604	0.1399
1595	0.419
1586	0.5043
1577	0.5695
1568	0.6351
1559	0.7311
1550	0.7662
1541	0.7643
1532	0.6721
1523	0.6543
1514	0.5867
1505	0.1654
1496	0.0095
1487	0.2984
1478	0.5083
1469	0.4419
1460	0.1479
1451	0.3545
1442	0.2248
1433	0.6239
1424	0.7218
1415	0.7385
1406	0.7251
1397	0.7121
1388	0.6381
1379	0.6814
1370	0.6925
1361	0.7035
1352	0.7065
1343	0.5988
1334	0.1071
1325	0.4141
1316	0.0458
1307	0.4458
1298	0.6397
1289	0.6568
1280	0.2465
1271	0.1886
1262	0.2684
1253	0.1373
1244	0.4703
1235	0.6555
1226	0.6911
1217	0.7435
1208	0.7581
1199	0.7342
1190	0.7175
1181	0.6297
1172	0.5073
1163	0.3122
1154	0.3848
1145	0.0459
1136	0.1886
1127	0.5987
1118	0.7405
1109	0.7651
1100	0.754
1091	0.1342
1082	0.6122
1073	0.743
1064	0.6708
1055	0.567
1046	0.7167
1037	0.7104
1028	0.3921
1019	0.698
1010	0.8155
1001	0.8433
992	0.8534
983	0.857
974	0.8368
965	0.7307
956	0.1496
947	0.5339
938	0.4566
929	0.6189
920	0.7019
911	0.7653
902	0.7757
893	0.7701
884	0.7384
875	0.6912
866	0.6774
857	0.7088
848	0.5612
839	0.0822
830	0.0976
821	0.5497
812	0.6212
803	0.4268
794	0.2576
785	0.2889
776	0.4878
767	0.6932
758	0.8175
749	0.8221
740	0.8268
731	0.8037
722	0.7215
713	0.8298
704	0.8081
695	0.7389
686	0.5681
677	0.6896
668	0.8715
659	0.9178
650	0.8871
641	0.8886
632	0.8574
623	0.8065
614	0.492
605	0.6099
596	0.7718
587	0.7551
578	0.5105
569	0.6375
560	0.6428
551	0.5712
542	0.5124
533	0.4578
524	0.4174
515	0.383
506	0.3689
497	0.367
488	0.3974
479	0.3493
470	0.4762
461	0.5636
452	0.6245
443	0.6442
434	0.3207
425	0.48
416	0.6642
407	0.7021
398	0.7028
389	0.7026
