Infrared Spectrum: (3-CHLOROPROPYL)TRIMETHYLSILANE
Formula: C6 H15 Cl Si
CAS: 2344-83-4
State: SOLID (BETWEEN SALTS)
Class: COBLENTZ
Instrument: BECKMAN IR-4 (HYBRID PRISM-GRATING)
Sampling: TRANSMISSION
Resolution: 4
Origin: PENINSULAR CHEMRESEARCH, INC., GAINESVILLE, FLORIDA
MICROMETERS	TRANSMITTANCE
2	0.933
2.03504	0.935
2.07009	0.932
2.10513	0.932
2.14017	0.932
2.17522	0.927
2.21026	0.905
2.2453	0.912
2.28035	0.918
2.31539	0.909
2.35043	0.915
2.38548	0.92
2.42052	0.919
2.45556	0.917
2.49061	0.91
2.52565	0.898
2.56069	0.891
2.59574	0.88
2.63078	0.873
2.66582	0.884
2.70087	0.888
2.73591	0.898
2.77095	0.898
2.806	0.902
2.84104	0.905
2.87608	0.899
2.91113	0.89
2.94617	0.876
2.98121	0.873
3.01626	0.863
3.0513	0.861
3.08634	0.859
3.12139	0.858
3.15643	0.85
3.19147	0.832
3.22652	0.801
3.26156	0.75
3.29661	0.621
3.33165	0.448
3.36669	0.419
3.40174	0.511
3.43678	0.591
3.47182	0.734
3.50687	0.782
3.54191	0.84
3.57695	0.88
3.612	0.89
3.64704	0.894
3.68208	0.899
3.71713	0.899
3.75217	0.908
3.78721	0.909
3.82226	0.909
3.8573	0.909
3.89234	0.917
3.92739	0.914
3.96243	0.908
3.99747	0.912
4.03252	0.915
4.06756	0.912
4.1026	0.913
4.13765	0.915
4.17269	0.902
4.20773	0.905
4.24278	0.909
4.27782	0.918
4.31286	0.912
4.34791	0.914
4.38295	0.913
4.41799	0.919
4.45304	0.918
4.48808	0.915
4.52312	0.918
4.55817	0.918
4.59321	0.913
4.62825	0.918
4.6633	0.918
4.69834	0.91
4.73338	0.91
4.76843	0.918
4.80347	0.919
4.83851	0.919
4.87356	0.919
4.9086	0.913
4.94364	0.919
4.97869	0.917
5.01373	0.919
5.04877	0.918
5.08382	0.902
5.11886	0.898
5.1539	0.896
5.18895	0.898
5.22399	0.902
5.25903	0.899
5.29408	0.895
5.32912	0.894
5.36416	0.893
5.39921	0.896
5.43425	0.9
5.46929	0.903
5.50434	0.904
5.53938	0.903
5.57442	0.908
5.60947	0.908
5.64451	0.904
5.67955	0.907
5.7146	0.909
5.74964	0.909
5.78468	0.902
5.81973	0.905
5.85477	0.909
5.88982	0.91
5.92486	0.912
5.9599	0.919
5.99495	0.922
6.02999	0.922
6.06503	0.928
6.10008	0.923
6.13512	0.92
6.17016	0.92
6.20521	0.92
6.24025	0.92
6.27529	0.91
6.31034	0.903
6.34538	0.903
6.38042	0.893
6.41547	0.888
6.45051	0.884
6.48555	0.893
6.5206	0.89
6.55564	0.888
6.59068	0.883
6.62573	0.883
6.66077	0.878
6.69581	0.87
6.73086	0.821
6.7659	0.78
6.80094	0.712
6.83599	0.698
6.87103	0.65
6.90607	0.633
6.94112	0.672
6.97616	0.672
7.0112	0.638
7.04625	0.662
7.08129	0.743
7.11633	0.819
7.15138	0.853
7.18642	0.86
7.22146	0.855
7.25651	0.856
7.29155	0.845
7.32659	0.832
7.36164	0.793
7.39668	0.763
7.43172	0.777
7.46677	0.771
7.50181	0.752
7.53685	0.674
7.5719	0.572
7.60694	0.62
7.64198	0.673
7.67703	0.673
7.71207	0.68
7.74711	0.672
7.78216	0.609
7.8172	0.502
7.85224	0.383
7.88729	0.311
7.92233	0.277
7.95737	0.239
7.99242	0.322
8.02746	0.561
8.0625	0.704
8.09755	0.743
8.13259	0.802
8.16763	0.861
8.20268	0.879
8.23772	0.893
8.27276	0.896
8.30781	0.899
8.34285	0.899
8.3779	0.893
8.41294	0.849
8.44798	0.761
8.48303	0.687
8.51807	0.721
8.55311	0.702
8.58816	0.669
8.6232	0.771
8.65824	0.863
8.69329	0.909
8.72833	0.919
8.76337	0.92
8.79842	0.912
8.83346	0.908
8.8685	0.895
8.90355	0.87
8.93859	0.885
8.97363	0.915
9.00868	0.918
9.04372	0.915
9.07876	0.919
9.11381	0.93
9.14885	0.93
9.18389	0.927
9.21894	0.92
9.25398	0.912
9.28902	0.894
9.32407	0.886
9.35911	0.89
9.39415	0.88
9.4292	0.86
9.46424	0.821
9.49928	0.773
9.53433	0.748
9.56937	0.766
9.60441	0.76
9.63946	0.793
9.6745	0.842
9.70954	0.859
9.74459	0.863
9.77963	0.842
9.81467	0.811
9.84972	0.739
9.88476	0.646
9.9198	0.662
9.95485	0.675
9.98989	0.644
10.0249	0.623
10.06	0.683
10.095	0.751
10.1301	0.783
10.1651	0.798
10.2002	0.795
10.2352	0.771
10.2702	0.702
10.3053	0.629
10.3403	0.643
10.3754	0.746
10.4104	0.815
10.4455	0.86
10.4805	0.874
10.5155	0.884
10.5506	0.893
10.5856	0.891
10.6207	0.888
10.6557	0.884
10.6908	0.873
10.7258	0.863
10.7608	0.834
10.7959	0.811
10.8309	0.763
10.866	0.704
10.901	0.65
10.9361	0.63
10.9711	0.65
11.0061	0.684
11.0412	0.712
11.0762	0.708
11.1113	0.701
11.1463	0.663
11.1814	0.63
11.2164	0.582
11.2515	0.531
11.2865	0.471
11.3215	0.393
11.3566	0.32
11.3916	0.252
11.4267	0.222
11.4617	0.218
11.4968	0.217
11.5318	0.213
11.5668	0.209
11.6019	0.213
11.6369	0.226
11.672	0.213
11.707	0.206
11.7421	0.197
11.7771	0.187
11.8121	0.18
11.8472	0.177
11.8822	0.169
11.9173	0.168
11.9523	0.173
11.9874	0.183
12.0224	0.195
12.0574	0.219
12.0925	0.247
12.1275	0.301
12.1626	0.351
12.1976	0.41
12.2327	0.471
12.2677	0.503
12.3028	0.541
12.3378	0.576
12.3728	0.6
12.4079	0.63
12.4429	0.65
12.478	0.665
12.513	0.675
12.5481	0.683
12.5831	0.685
12.6181	0.687
12.6532	0.687
12.6882	0.689
12.7233	0.682
12.7583	0.67
12.7934	0.645
12.8284	0.611
12.8634	0.584
12.8985	0.543
12.9335	0.5
12.9686	0.442
13.0036	0.399
13.0387	0.379
13.0737	0.38
13.1088	0.385
13.1438	0.385
13.1788	0.385
13.2139	0.398
13.2489	0.42
13.284	0.43
13.319	0.42
13.3541	0.403
13.3891	0.371
13.4241	0.351
13.4592	0.335
13.4942	0.322
13.5293	0.317
13.5643	0.321
13.5994	0.347
13.6344	0.395
13.6694	0.462
13.7045	0.515
13.7395	0.572
13.7746	0.616
13.8096	0.644
13.8447	0.68
13.8797	0.694
13.9147	0.711
13.9498	0.723
13.9848	0.722
14.0199	0.719
14.0549	0.712
14.09	0.709
14.125	0.698
14.1601	0.679
14.1951	0.65
14.2301	0.605
14.2652	0.559
14.3002	0.492
14.3353	0.437
14.3703	0.402
14.4054	0.389
14.4404	0.402
14.4754	0.424
14.5105	0.479
14.5455	0.515
14.5806	0.561
14.6156	0.59
14.6507	0.614
14.6857	0.624
14.7207	0.621
14.7558	0.611
14.7908	0.601
14.8259	0.589
14.8609	0.561
14.896	0.533
14.931	0.52
14.9661	0.503
15.0011	0.497
