Infrared Spectrum: trans-3-Chloroacrylic acid
Formula: C 3 H 3 Cl O 2
CAS: 2345-61-1
State: gas
Origin: EPA-IR VAPOR PHASE LIBRARY
1/CM	ABSORBANCE
549.8	0.01911
559.445	0.01977
569.09	0.01986
578.734	0.01582
588.379	0.01207
598.024	0.01149
607.669	0.01886
617.313	0.02118
626.958	0.0312
636.603	0.02421
646.248	0.01019
655.893	0.00337
665.537	0.00305
675.182	0.00358
684.827	0.00572
694.472	0.00782
704.116	0.00937
713.761	0.00937
723.406	0.00685
733.051	0.00459
742.695	0.0029
752.34	0.00217
761.985	0.00191
771.63	0.00151
781.275	0.00214
790.919	0.00373
800.564	0.00454
810.209	0.00493
819.854	0.00471
829.498	0.00798
839.143	0.01928
848.788	0.0331
858.433	0.03217
868.078	0.01498
877.722	0.00616
887.367	0.00478
897.012	0.0052
906.657	0.00714
916.301	0.01099
925.946	0.01613
935.591	0.01988
945.236	0.01962
954.88	0.01236
964.525	0.00815
974.17	0.00408
983.815	0.00247
993.46	0.0013
1003.1	0.0022
1012.75	0.00265
1022.39	0.00261
1032.04	0.0027
1041.68	0.00309
1051.33	0.00151
1060.97	0.00163
1070.62	0.0024
1080.26	0.00546
1089.91	0.01051
1099.55	0.022
1109.2	0.04873
1118.84	0.07329
1128.49	0.07565
1138.13	0.05579
1147.78	0.0463
1157.42	0.03797
1167.07	0.02752
1176.71	0.01325
1186.36	0.0078
1196	0.00662
1205.64	0.00886
1215.29	0.01188
1224.93	0.01409
1234.58	0.0172
1244.22	0.02079
1253.87	0.02025
1263.51	0.01525
1273.16	0.01204
1282.8	0.00893
1292.45	0.00707
1302.09	0.00529
1311.74	0.00505
1321.38	0.00623
1331.03	0.0096
1340.67	0.01723
1350.32	0.02442
1359.96	0.02288
1369.61	0.01413
1379.25	0.00606
1388.9	0.00428
1398.54	0.00302
1408.18	0.00232
1417.83	0.00169
1427.47	0.00143
1437.12	0.0011806
1446.76	0.0009954
1456.41	0.0010858
1466.05	0.0006105
1475.7	0.0006178
1485.34	0.0006775
1494.99	0.0005142
1504.63	0.0007809
1514.28	0.0006255
1523.92	0.0008304
1533.57	0.0010289
1543.21	0.00136
1552.86	0.00206
1562.5	0.0025
1572.15	0.00392
1581.79	0.00785
1591.44	0.01927
1601.08	0.03828
1610.73	0.05748
1620.37	0.04883
1630.01	0.0233
1639.66	0.00419
1649.3	0.00296
1658.95	0.00293
1668.59	0.00282
1678.24	0.00304
1687.88	0.00413
1697.53	0.00502
1707.17	0.00693
1716.82	0.01067
1726.46	0.01955
1736.11	0.03758
1745.75	0.06976
1755.4	0.1018
1765.04	0.1051
1774.69	0.08408
1784.33	0.0554
1793.98	0.03292
1803.62	0.01593
1813.27	0.00668
1822.91	0.0037
1832.55	0.00237
1842.2	0.00204
1851.84	0.00189
1861.49	0.00195
1871.13	0.00195
1880.78	0.00162
1890.42	0.00133
1900.07	0.0010454
1909.71	0.0010955
1919.36	0.0010911
1929	0.001171
1938.65	0.0010124
1948.29	0.0011119
1957.94	0.000918
1967.58	0.000864
1977.23	0.0008157
1986.87	0.0008355
1996.52	0.0006725
2006.16	0.0005986
2015.81	0.0005957
2025.45	0.0006462
2035.1	0.0007733
2044.74	0.0009957
2054.38	0.0009948
2064.03	0.0008086
2073.67	0.000869
2083.32	0.0006785
2092.96	0.0006982
2102.61	0.0005892
2112.25	0.0006308
2121.9	0.0006056
2131.54	0.0006029
2141.19	0.0006399
2150.83	0.0005925
2160.48	0.0005275
2170.12	0.000378
2179.77	0.0004882
2189.41	0.000545
2199.06	0.0005582
2208.7	0.0006041
2218.35	0.0007245
2227.99	0.0007358
2237.64	0.0009453
2247.28	0.0007735
2256.92	0.0006182
2266.57	0.0005222
2276.21	0.0004311
2285.86	0.000644
2295.5	0.0009114
2305.15	0.0008251
2314.79	0.0008599
2324.44	0.0008719
2334.08	0.0009209
2343.73	0.0006029
2353.37	0.0007182
2363.02	0.0010551
2372.66	0.000896
2382.31	0.0005017
2391.95	0.0003813
2401.6	0.0003378
2411.24	0.0004521
2420.89	0.0004546
2430.53	0.0005038
2440.18	0.0004955
2449.82	0.0006903
2459.47	0.0005947
2469.11	0.0008215
2478.75	0.000842
2488.4	0.0006305
2498.04	0.0006096
2507.69	0.0004861
2517.33	0.000491
2526.98	0.0007144
2536.62	0.0005154
2546.27	0.0006212
2555.91	0.0006375
2565.56	0.0004377
2575.2	0.0004733
2584.85	0.0004301
2594.49	0.0005052
2604.14	0.0004485
2613.78	0.0004212
2623.43	0.0004912
2633.07	0.0004811
2642.72	0.0005564
2652.36	0.0004533
2662.01	0.00026116
2671.65	0.0004565
2681.29	0.000527
2690.94	0.0006227
2700.58	0.0005562
2710.23	0.0003824
2719.87	0.0005773
2729.52	0.0003826
2739.16	0.0003179
2748.81	0.0007409
2758.45	0.0004462
2768.1	0.0003225
2777.74	0.0004032
2787.39	0.0003964
2797.03	0.0003502
2806.68	0.0003699
2816.32	0.0005038
2825.97	0.0004731
2835.61	0.0004816
2845.26	0.0004583
2854.9	0.0007031
2864.55	0.0005385
2874.19	0.0008023
2883.84	0.0008552
2893.48	0.0004407
2903.12	0.0007553
2912.77	0.0004397
2922.41	0.0004714
2932.06	0.00063
2941.7	0.0008202
2951.35	0.0005722
2960.99	0.0008151
2970.64	0.0006735
2980.28	0.0009178
2989.93	0.0008579
2999.57	0.0003899
3009.22	0.0006051
3018.86	0.0006796
3028.51	0.0005626
3038.15	0.0008458
3047.8	0.0008412
3057.44	0.0009097
3067.09	0.0007894
3076.73	0.00151
3086.38	0.00187
3096.02	0.00183
3105.67	0.00155
3115.31	0.0009396
3124.95	0.0006014
3134.6	0.0003366
3144.24	0.0003958
3153.89	0.0004837
3163.53	0.0005068
3173.18	0.0005042
3182.82	0.00025252
3192.47	0.0007439
3202.11	0.0003892
3211.76	0.0006957
3221.4	0.0006576
3231.05	0.0003769
3240.69	0.000482
3250.34	0.0003139
3259.98	0.0004802
3269.63	0.00029843
3279.27	0.0003359
3288.92	0.00028374
3298.56	0.000445
3308.21	0.0003715
3317.85	0.0004176
3327.49	0.000503
3337.14	0.00025378
3346.78	0.0005598
3356.43	0.0004274
3366.07	0.0005296
3375.72	0.00024599
3385.36	0.0006302
3395.01	0.0004287
3404.65	0.0006267
3414.3	0.0004263
3423.94	0.0005928
3433.59	0.0003286
3443.23	0.0007234
3452.88	0.0003891
3462.52	0.0009235
3472.17	0.0009289
3481.81	0.0008996
3491.46	0.0009293
3501.1	0.00136
3510.75	0.0013
3520.39	0.00123
3530.04	0.001205
3539.68	0.0009289
3549.32	0.0018
3558.97	0.00478
3568.61	0.02247
3578.26	0.04174
3587.9	0.0405
3597.55	0.01577
3607.19	0.00313
3616.84	0.0011161
3626.48	0.0008919
3636.13	0.0007977
3645.77	0.0005311
3655.42	0.0006373
3665.06	0.0005486
3674.71	0.00028502
3684.35	0.0003999
3694	0.0008003
3703.64	0.000434
3713.29	0.0004963
3722.93	0.0003573
3732.58	0.00022011
3742.22	0.0004368
3751.86	0.0005514
3761.51	0.0005156
3771.15	0.0006728
3780.8	0.000439
3790.44	0.00029806
3800.09	0.0004389
3809.73	0.00034
3819.38	0.0004333
3829.02	0.00029096
3838.67	0.0004754
3848.31	0.0001289
3857.96	0.0004264
3867.6	0.000338
3877.25	0.0004387
3886.89	0.0004213
3896.54	0.0005378
3906.18	0.0005269
3915.83	0.00027947
3925.47	0.00025636
3935.12	0.0003886
3944.76	0.00026892
3954.41	0.0006235
3964.05	0.000621
3973.69	0.0004643
3983.34	0.000324
3992.98	0.0004463
