Infrared Spectrum: 2-Tetradecanone
Formula: C 14 H 28 O
CAS: 2345-27-9
State: gas
Instrument: HP-GC/MS/IRD
Origin: NIST Mass Spectrometry Data Center
1/CM	ABSORBANCE
550	0.000572
562	0.0003705
574	0.0003575
586	0.0006435
598	0.000689
610	0.0003315
622	9.1e-05
634	8.45e-05
646	1.3e-05
658	1.95e-05
670	9.75e-05
682	0.000195
694	0.0004485
706	0.000871
718	0.0012155
730	0.0009815
742	0.0007215
754	0.000494
766	0.000416
778	0.000377
790	0.000351
802	0.000273
814	0.000247
826	0.000143
838	0.000221
850	0.000234
862	0.000273
874	0.0003185
886	0.000364
898	0.00039
910	0.000507
922	0.0006175
934	0.0008125
946	0.0008775
958	0.0009035
970	0.000897
982	0.000767
994	0.0006305
1006	0.000572
1018	0.00052
1030	0.000507
1042	0.000481
1054	0.000507
1066	0.000494
1078	0.000585
1090	0.0005525
1102	0.000728
1114	0.00104
1126	0.0013975
1138	0.0024115
1150	0.0044265
1162	0.0055835
1174	0.004498
1186	0.0034385
1198	0.003055
1210	0.0030355
1222	0.002938
1234	0.002457
1246	0.0020215
1258	0.001833
1270	0.0018395
1282	0.0019565
1294	0.00208
1306	0.0022555
1318	0.0023855
1330	0.002964
1342	0.0047385
1354	0.007865
1366	0.007995
1378	0.004602
1390	0.002847
1402	0.0022685
1414	0.0025935
1426	0.002873
1438	0.0033605
1450	0.004836
1462	0.005733
1474	0.0036205
1486	0.001677
1498	0.0010335
1510	0.0007345
1522	0.0006305
1534	0.0005785
1546	0.00052
1558	0.0004485
1570	0.0004095
1582	0.000364
1594	0.000338
1606	0.000286
1618	0.000299
1630	0.0003315
1642	0.000364
1654	0.000507
1666	0.0008125
1678	0.001378
1690	0.002587
1702	0.004823
1714	0.0089895
1726	0.015106
1738	0.013819
1750	0.0067925
1762	0.003185
1774	0.0014625
1786	0.000728
1798	0.000416
1810	0.00026
1822	0.0001625
1834	0.00013
1846	9.75e-05
1858	9.75e-05
1870	5.2e-05
1882	6.5e-05
1894	3.25e-05
1906	3.25e-05
1918	6.5e-06
1930	6.5e-06
1942	1.95e-05
1954	1.3e-05
1966	1.95e-05
1978	0
1990	0
2002	3.25e-05
2014	2.6e-05
2026	8.45e-05
2038	5.85e-05
2050	8.45e-05
2062	7.8e-05
2074	7.8e-05
2086	4.55e-05
2098	4.55e-05
2110	5.85e-05
2122	4.55e-05
2134	4.55e-05
2146	4.55e-05
2158	3.9e-05
2170	3.25e-05
2182	1.95e-05
2194	2.6e-05
2206	3.9e-05
2218	1.95e-05
2230	1.3e-05
2242	6.5e-06
2254	2.6e-05
2266	1.3e-05
2278	2.6e-05
2290	3.9e-05
2302	3.25e-05
2314	3.9e-05
2326	1.95e-05
2338	2.6e-05
2350	1.95e-05
2362	6.5e-06
2374	0
2386	6.5e-06
2398	1.95e-05
2410	1.3e-05
2422	1.3e-05
2434	1.95e-05
2446	6.5e-06
2458	6.5e-06
2470	1.3e-05
2482	1.95e-05
2494	4.55e-05
2506	7.8e-05
2518	0.0001105
2530	0.0001105
2542	0.000117
2554	0.00013
2566	0.0001755
2578	0.000169
2590	0.000182
2602	0.0002275
2614	0.0002665
2626	0.0003185
2638	0.0003705
2650	0.000442
2662	0.0005005
2674	0.000598
2686	0.000624
2698	0.000572
2710	0.0005265
2722	0.000546
2734	0.000611
2746	0.0006955
2758	0.0007475
2770	0.0008905
2782	0.001105
2794	0.0014625
2806	0.001963
2818	0.002743
2830	0.0039455
2842	0.0068055
2854	0.0163735
2866	0.024271
2878	0.017615
2890	0.01534
2902	0.019305
2914	0.0306865
2926	0.0558935
2938	0.0606125
2950	0.0353535
2962	0.0233675
2974	0.015912
2986	0.007605
2998	0.004641
3010	0.0035815
3022	0.0026
3034	0.0019175
3046	0.001547
3058	0.0013065
3070	0.0010595
3082	0.0009165
3094	0.0007735
3106	0.0006305
3118	0.000507
3130	0.0004225
3142	0.000364
3154	0.0003185
3166	0.0003055
3178	0.0002535
3190	0.000221
3202	0.000195
3214	0.0001755
3226	0.0001365
3238	9.75e-05
3250	6.5e-05
3262	7.15e-05
3274	5.2e-05
3286	3.9e-05
3298	6.5e-05
3310	9.1e-05
3322	7.15e-05
3334	2.6e-05
3346	1.95e-05
3358	0.000117
3370	0.000117
3382	0.00013
3394	0.0001365
3406	0.0001625
3418	0.0002405
3430	0.000299
3442	0.0003835
3454	0.0002925
3466	0.0002275
3478	0.0001105
3490	8.45e-05
3502	7.8e-05
3514	3.9e-05
3526	3.9e-05
3538	4.55e-05
3550	6.5e-06
3562	5.2e-05
3574	7.8e-05
3586	5.2e-05
3598	5.85e-05
3610	0.000104
3622	0.000117
3634	0.000143
3646	0.000104
3658	0.00013
3670	0.0001235
3682	0.0001365
3694	0.0001235
3706	0.0001105
3718	0.000104
3730	0.0001105
3742	0.000117
3754	0.000143
3766	0.0001365
3778	0.0001495
3790	0.000143
3802	0.0001625
3814	0.000117
3826	0.000195
3838	0.000195
