Infrared Spectrum: 3-Chlorohexane
Formula: C 6 H 13 Cl
CAS: 2346-81-8
State: gas
Instrument: HP-GC/MS/IRD
Origin: NIST Mass Spectrometry Data Center
1/CM	ABSORBANCE
550	0.000513
562	0.000108
574	0.000156
586	0.000243
598	0.00057
610	0.000966
622	0.001041
634	0.000948
646	0.001194
658	0.001617
670	0.001614
682	0.00096
694	0.000342
706	0.000183
718	0.000207
730	0.00036
742	0.000777
754	0.001146
766	0.001017
778	0.001029
790	0.00168
802	0.002226
814	0.002322
826	0.00171
838	0.000912
850	0.0006
862	0.000723
874	0.00135
886	0.002022
898	0.002058
910	0.001356
922	0.000648
934	0.000183
946	9.3e-05
958	8.4e-05
970	0.000198
982	0.000207
994	0.000186
1006	0.000147
1018	0.000198
1030	0.000309
1042	0.000447
1054	0.000429
1066	0.000465
1078	0.000537
1090	0.000654
1102	0.00066
1114	0.000708
1126	0.000789
1138	0.000855
1150	0.000723
1162	0.00036
1174	0.000144
1186	0.000198
1198	0.000615
1210	0.001344
1222	0.001845
1234	0.001692
1246	0.001554
1258	0.001554
1270	0.001569
1282	0.001911
1294	0.002388
1306	0.002313
1318	0.001809
1330	0.001284
1342	0.001071
1354	0.001014
1366	0.00114
1378	0.001848
1390	0.002307
1402	0.001329
1414	0.000858
1426	0.001257
1438	0.002355
1450	0.003783
1462	0.004755
1474	0.003786
1486	0.001839
1498	0.000765
1510	0.00045
1522	0.000351
1534	0.0003
1546	0.000282
1558	0.000234
1570	0.000201
1582	0.000183
1594	0.000156
1606	0.000132
1618	0.00015
1630	0.000111
1642	0.000111
1654	0.000108
1666	9.3e-05
1678	8.1e-05
1690	6.3e-05
1702	7.8e-05
1714	6.6e-05
1726	5.7e-05
1738	3.9e-05
1750	3.9e-05
1762	2.4e-05
1774	2.1e-05
1786	3e-05
1798	3.6e-05
1810	3.6e-05
1822	4.8e-05
1834	3e-05
1846	3.3e-05
1858	5.4e-05
1870	4.5e-05
1882	6.3e-05
1894	6e-05
1906	3.6e-05
1918	4.8e-05
1930	5.1e-05
1942	5.4e-05
1954	6.6e-05
1966	6.9e-05
1978	4.2e-05
1990	6.3e-05
2002	6.9e-05
2014	7.5e-05
2026	8.4e-05
2038	8.4e-05
2050	7.2e-05
2062	8.4e-05
2074	6.3e-05
2086	4.8e-05
2098	6e-05
2110	8.1e-05
2122	8.1e-05
2134	5.1e-05
2146	7.2e-05
2158	9e-05
2170	8.1e-05
2182	7.8e-05
2194	9.3e-05
2206	9.6e-05
2218	6.9e-05
2230	6.6e-05
2242	7.8e-05
2254	5.7e-05
2266	6e-05
2278	8.4e-05
2290	9e-05
2302	4.5e-05
2314	7.5e-05
2326	7.5e-05
2338	0.000108
2350	0.000135
2362	0.000156
2374	0.000144
2386	0.000123
2398	0.00012
2410	0.000138
2422	9.6e-05
2434	9.6e-05
2446	9.3e-05
2458	9e-05
2470	9e-05
2482	0.000102
2494	0.000114
2506	0.000111
2518	0.000102
2530	0.000135
2542	0.000111
2554	0.000159
2566	0.000171
2578	0.000165
2590	0.000186
2602	0.000186
2614	0.000195
2626	0.000186
2638	0.000192
2650	0.000189
2662	0.000252
2674	0.000261
2686	0.000264
2698	0.000291
2710	0.00033
2722	0.000405
2734	0.000522
2746	0.000639
2758	0.000612
2770	0.000624
2782	0.000693
2794	0.000828
2806	0.001014
2818	0.001275
2830	0.001821
2842	0.002889
2854	0.004167
2866	0.005916
2878	0.00987
2890	0.01185
2902	0.010827
2914	0.011451
2926	0.014238
2938	0.020157
2950	0.025065
2962	0.027984
2974	0.029244
2986	0.017625
2998	0.007197
3010	0.003258
3022	0.002142
3034	0.001731
3046	0.001431
3058	0.001218
3070	0.001107
3082	0.000963
3094	0.000825
3106	0.000753
3118	0.000636
3130	0.000549
3142	0.000561
3154	0.000486
3166	0.00045
3178	0.000435
3190	0.000384
3202	0.000318
3214	0.000261
3226	0.000243
3238	0.000195
3250	0.000204
3262	0.000144
3274	0.000159
3286	0.000183
3298	0.000138
3310	0.000111
3322	0.000111
3334	0.000126
3346	0.000138
3358	0.000105
3370	9.3e-05
3382	6.9e-05
3394	9.9e-05
3406	6.9e-05
3418	4.2e-05
3430	0.000105
3442	9.3e-05
3454	0.000102
3466	0.00012
3478	0.000114
3490	9e-05
3502	8.4e-05
3514	9.9e-05
3526	6.6e-05
3538	7.2e-05
3550	0.000141
3562	9e-05
3574	6.9e-05
3586	4.8e-05
3598	0.000102
3610	8.7e-05
3622	7.5e-05
3634	0.000114
3646	0.000111
3658	0.000165
3670	6.9e-05
3682	0.000123
3694	0.000144
3706	0.00015
3718	0.000138
3730	0.000132
3742	0.000117
3754	7.5e-05
3766	8.4e-05
3778	0.000147
3790	0.000117
3802	0.000153
3814	0.000123
3826	0.000135
3838	0.000168
