Infrared Spectrum: 6-Chloropiperonyl chloride
Formula: C 8 H 6 Cl 2 O 2
CAS: 23468-31-7
State: gas
Origin: EPA-IR VAPOR PHASE LIBRARY
1/CM	ABSORBANCE
549.9	0.00977
559.547	0.00591
569.193	0.00424
578.84	0.00382
588.486	0.00344
598.133	0.00348
607.779	0.00452
617.426	0.00782
627.072	0.01437
636.719	0.02062
646.365	0.01322
656.012	0.00607
665.658	0.00447
675.305	0.00537
684.951	0.0131
694.598	0.01835
704.245	0.01639
713.891	0.01561
723.538	0.02216
733.184	0.02777
742.831	0.02738
752.477	0.01641
762.124	0.01254
771.77	0.01335
781.417	0.00981
791.063	0.00803
800.71	0.00629
810.356	0.00593
820.003	0.00821
829.649	0.02157
839.296	0.03508
848.943	0.03422
858.589	0.04341
868.236	0.02788
877.882	0.01104
887.529	0.00774
897.175	0.01066
906.822	0.01744
916.468	0.01871
926.115	0.02216
935.761	0.04091
945.408	0.05474
955.054	0.03286
964.701	0.01414
974.347	0.02134
983.994	0.04268
993.64	0.03107
1003.29	0.01302
1012.93	0.01598
1022.58	0.02987
1032.23	0.06011
1041.87	0.09639
1051.52	0.09353
1061.17	0.06042
1070.81	0.03132
1080.46	0.01664
1090.11	0.01491
1099.75	0.02281
1109.4	0.04591
1119.05	0.06521
1128.69	0.05399
1138.34	0.05037
1147.99	0.03339
1157.63	0.01753
1167.28	0.01721
1176.92	0.01699
1186.57	0.01415
1196.22	0.01652
1205.86	0.02563
1215.51	0.0505
1225.16	0.11744
1234.8	0.16764
1244.45	0.1747
1254.1	0.10506
1263.74	0.0508
1273.39	0.03669
1283.04	0.02277
1292.68	0.01351
1302.33	0.01075
1311.98	0.01078
1321.62	0.01206
1331.27	0.01371
1340.92	0.01895
1350.56	0.02867
1360.21	0.02983
1369.86	0.01963
1379.5	0.01557
1389.15	0.02382
1398.79	0.03728
1408.44	0.07632
1418.09	0.05839
1427.73	0.0182
1437.38	0.01802
1447.03	0.0275
1456.67	0.05718
1466.32	0.13864
1475.97	0.23005
1485.61	0.25178
1495.26	0.13552
1504.91	0.08294
1514.55	0.0602
1524.2	0.01866
1533.85	0.01256
1543.49	0.00849
1553.14	0.00552
1562.79	0.00415
1572.43	0.0037
1582.08	0.00362
1591.73	0.00404
1601.37	0.00497
1611.02	0.00792
1620.67	0.01259
1630.31	0.00912
1639.96	0.00449
1649.6	0.00363
1659.25	0.00341
1668.9	0.00372
1678.54	0.00457
1688.19	0.00591
1697.84	0.00707
1707.48	0.00669
1717.13	0.00499
1726.78	0.00406
1736.42	0.00349
1746.07	0.00338
1755.72	0.00348
1765.36	0.00345
1775.01	0.0030782
1784.66	0.0027303
1794.3	0.00236772
1803.95	0.00229547
1813.6	0.0024249
1823.24	0.002612
1832.89	0.0029459
1842.54	0.003222
1852.18	0.00363
1861.83	0.00402
1871.47	0.00461
1881.12	0.0051
1890.77	0.00453
1900.41	0.0032653
1910.06	0.0026046
1919.71	0.00238702
1929.35	0.00230263
1939	0.0025411
1948.65	0.0026361
1958.29	0.0028558
1967.94	0.0030065
1977.59	0.002933
1987.23	0.002517
1996.88	0.0022523
2006.53	0.002165
2016.17	0.002073
2025.82	0.00196
2035.47	0.002092
2045.11	0.00238764
2054.76	0.0028561
2064.41	0.0032086
2074.05	0.00343
2083.7	0.00357
2093.35	0.00371
2102.99	0.00368
2112.64	0.0031533
2122.28	0.0025132
2131.93	0.002188
2141.58	0.001917
2151.22	0.001911
2160.87	0.001967
2170.52	0.001994
2180.16	0.002113
2189.81	0.002056
2199.46	0.001911
2209.1	0.001847
2218.75	0.001823
2228.4	0.002024
2238.04	0.002112
2247.69	0.002009
2257.34	0.001931
2266.98	0.001923
2276.63	0.001971
2286.28	0.002121
2295.92	0.00236301
2305.57	0.0025529
2315.22	0.0027001
2324.86	0.0026484
2334.51	0.002538
2344.16	0.0025414
2353.8	0.0024334
2363.45	0.002169
2373.09	0.001985
2382.74	0.001941
2392.39	0.00186
2402.03	0.001676
2411.68	0.001525
2421.33	0.001423
2430.97	0.001381
2440.62	0.001409
2450.27	0.00141
2459.91	0.001513
2469.56	0.001524
2479.21	0.001487
2488.85	0.001604
2498.5	0.001732
2508.15	0.00186
2517.79	0.001968
2527.44	0.002061
2537.09	0.001975
2546.73	0.001872
2556.38	0.002047
2566.03	0.00232456
2575.67	0.0028238
2585.32	0.0032927
2594.96	0.00354
2604.61	0.00355
2614.26	0.0031179
2623.9	0.0025979
2633.55	0.0022618
2643.2	0.002078
2652.84	0.00199
2662.49	0.001918
2672.14	0.001861
2681.78	0.001851
2691.43	0.002098
2701.08	0.0024145
2710.72	0.0027911
2720.37	0.0029248
2730.02	0.0027438
2739.66	0.0028102
2749.31	0.0034
2758.96	0.00554
2768.6	0.0083
2778.25	0.00645
2787.9	0.0049
2797.54	0.00536
2807.19	0.00563
2816.84	0.00647
2826.48	0.00697
2836.13	0.00726
2845.77	0.00859
2855.42	0.01146
2865.07	0.01638
2874.71	0.02332
2884.36	0.03113
2894.01	0.03334
2903.65	0.03029
2913.3	0.02965
2922.95	0.02974
2932.59	0.027
2942.24	0.02307
2951.89	0.02152
2961.53	0.02044
2971.18	0.0204
2980.83	0.01988
2990.47	0.0156
3000.12	0.012
3009.77	0.01104
3019.41	0.01363
3029.06	0.01124
3038.71	0.0065
3048.35	0.00468
3058	0.00382
3067.64	0.0029448
3077.29	0.002477
3086.94	0.0022677
3096.58	0.001815
3106.23	0.001
3115.88	0.00068
3125.52	0.00059
3135.17	0.00033
3144.82	0.00036
3154.46	9e-05
3164.11	0.00015
3173.76	0.00026
3183.4	0.00016
3193.05	0.00011
3202.7	0.00039
3212.34	0.0005
3221.99	0.00061
3231.64	0.00072
3241.28	0.00051
3250.93	0.0004
3260.58	0.00031
3270.22	0.00025
3279.87	0.00022
3289.52	0.00037
3299.16	0.00043
3308.81	0.00036
3318.45	0.00053
3328.1	0.00045
3337.75	0.0005
3347.39	0.00046
3357.04	0.00039
3366.69	0.00039
3376.33	0.00041
3385.98	0.00057
3395.63	0.00056
3405.27	0.00062
3414.92	0.00073
3424.57	0.00058
3434.21	0.00079
3443.86	0.00063
3453.51	0.00078
3463.15	0.00069
3472.8	0.00096
3482.45	0.00077
3492.09	0.00089
3501.74	0.00095
3511.39	0.00087
3521.03	0.0009
3530.68	0.00106
3540.33	0.00101
3549.97	0.00096
3559.62	0.00104
3569.26	0.00093
3578.91	0.0011
3588.56	0.00105
3598.2	0.00105
3607.85	0.00118
3617.5	0.00104
3627.14	0.00107
3636.79	0.00109
3646.44	0.00106
3656.08	0.00116
3665.73	0.00121
3675.38	0.00103
3685.02	0.00107
3694.67	0.00105
3704.32	0.00124
3713.96	0.0012
3723.61	0.00121
3733.26	0.001321
3742.9	0.001368
3752.55	0.001305
3762.2	0.001381
3771.84	0.001307
3781.49	0.00138
3791.13	0.001305
3800.78	0.00125
3810.43	0.00128
3820.07	0.00127
3829.72	0.001334
3839.37	0.00123
3849.01	0.001457
3858.66	0.001353
3868.31	0.001447
3877.95	0.001351
3887.6	0.001413
3897.25	0.00153
3906.89	0.001424
3916.54	0.001417
3926.19	0.001627
3935.83	0.001693
3945.48	0.001533
3955.13	0.001599
3964.77	0.001591
3974.42	0.001717
3984.07	0.001584
3993.71	0.001572
