Infrared Spectrum: 2-AMINO-5-MERCAPTO-1,3,4-THIADIAZOLE
Formula: C2 H3 N3 S2
CAS: 2349-67-9
State: SOLID (KBr PELLET)
Melting point: 227-228 C
Class: COBLENTZ
Instrument: Not specified, most likely a prism, grating, or hybrid spectrometer.
Sampling: TRANSMISSION
Resolution: 4
Origin: TENNESSEE EASTMAN COMPANY, RESEARCH LABORATORIES
MICROMETERS	TRANSMITTANCE
2.007	0.94
2.0479	0.941
2.08879	0.943
2.12969	0.95
2.17059	0.957
2.21148	0.964
2.25238	0.967
2.29328	0.969
2.33417	0.97
2.37507	0.972
2.41597	0.974
2.45686	0.976
2.49776	0.974
2.53865	0.972
2.57955	0.976
2.62045	0.976
2.66134	0.972
2.70224	0.947
2.74314	0.859
2.78403	0.808
2.82493	0.781
2.86583	0.717
2.90672	0.548
2.94762	0.126
2.98852	0.268
3.02941	0.172
3.07031	0.27
3.11121	0.172
3.1521	0.087
3.193	0.131
3.2339	0.417
3.27479	0.557
3.31569	0.649
3.35659	0.528
3.39748	0.659
3.43838	0.762
3.47928	0.8
3.52017	0.805
3.56107	0.781
3.60196	0.864
3.64286	0.931
3.68376	0.945
3.72465	0.945
3.76555	0.919
3.80645	0.948
3.84734	0.95
3.88824	0.947
3.92914	0.952
3.97003	0.955
4.01093	0.96
4.05183	0.958
4.09272	0.96
4.13362	0.958
4.17452	0.957
4.21541	0.948
4.25631	0.917
4.29721	0.926
4.3381	0.95
4.379	0.953
4.4199	0.95
4.46079	0.941
4.50169	0.947
4.54259	0.95
4.58348	0.95
4.62438	0.95
4.66527	0.95
4.70617	0.948
4.74707	0.953
4.78796	0.957
4.82886	0.958
4.86976	0.955
4.91065	0.952
4.95155	0.962
4.99245	0.974
5.03334	0.969
5.07424	0.97
5.11514	0.969
5.15603	0.972
5.19693	0.974
5.23783	0.974
5.27872	0.976
5.31962	0.976
5.36052	0.979
5.40141	0.981
5.44231	0.979
5.48321	0.974
5.5241	0.965
5.565	0.962
5.6059	0.962
5.64679	0.95
5.68769	0.947
5.72858	0.923
5.76948	0.919
5.81038	0.907
5.85127	0.902
5.89217	0.887
5.93307	0.878
5.97396	0.876
6.01486	0.866
6.05576	0.817
6.09665	0.782
6.13755	0.622
6.17845	0.14
6.21934	0.249
6.26024	0.538
6.30114	0.634
6.34203	0.596
6.38293	0.215
6.42383	0.21
6.46472	0.776
6.50562	0.829
6.54652	0.798
6.58741	0.793
6.62831	0.717
6.66921	0.35
6.7101	0.117
6.751	0.206
6.79189	0.526
6.83279	0.726
6.87369	0.794
6.91458	0.811
6.95548	0.815
6.99638	0.818
7.03727	0.818
7.07817	0.827
7.11907	0.818
7.15996	0.805
7.20086	0.765
7.24176	0.632
7.28265	0.316
7.32355	0.198
7.36445	0.379
7.40534	0.502
7.44624	0.505
7.48714	0.319
7.52803	0.364
7.56893	0.548
7.60983	0.688
7.65072	0.757
7.69162	0.75
7.73252	0.741
7.77341	0.779
7.81431	0.794
7.8552	0.805
7.8961	0.813
7.937	0.823
7.97789	0.834
8.01879	0.839
8.05969	0.847
8.10058	0.852
8.14148	0.851
8.18238	0.854
8.22327	0.847
8.26417	0.851
8.30507	0.834
8.34596	0.832
8.38686	0.823
8.42776	0.801
8.46865	0.764
8.50955	0.765
8.55045	0.788
8.59134	0.794
8.63224	0.803
8.67314	0.801
8.71403	0.794
8.75493	0.793
8.79583	0.786
8.83672	0.779
8.87762	0.769
8.91851	0.755
8.95941	0.723
9.00031	0.699
9.0412	0.673
9.0821	0.637
9.123	0.603
9.16389	0.541
9.20479	0.458
9.24569	0.386
9.28658	0.335
9.32748	0.276
9.36838	0.15
9.40927	0.1
9.45017	0.252
9.49107	0.376
9.53196	0.408
9.57286	0.35
9.61376	0.3
9.65465	0.357
9.69555	0.49
9.73645	0.644
9.77734	0.748
9.81824	0.796
9.85914	0.82
9.90003	0.832
9.94093	0.839
9.98182	0.847
10.0227	0.852
10.0636	0.856
10.1045	0.858
10.1454	0.858
10.1863	0.858
10.2272	0.858
10.2681	0.859
10.309	0.859
10.3499	0.859
10.3908	0.861
10.4317	0.856
10.4726	0.854
10.5135	0.858
10.5544	0.856
10.5953	0.859
10.6362	0.858
10.6771	0.859
10.718	0.863
10.7589	0.864
10.7998	0.866
10.8407	0.87
10.8815	0.871
10.9224	0.871
10.9633	0.873
11.0042	0.873
11.0451	0.87
11.086	0.871
11.1269	0.873
11.1678	0.876
11.2087	0.875
11.2496	0.875
11.2905	0.876
11.3314	0.878
11.3723	0.882
11.4132	0.882
11.4541	0.882
11.495	0.876
11.5359	0.88
11.5768	0.883
11.6177	0.883
11.6586	0.882
11.6995	0.88
11.7404	0.878
11.7813	0.88
11.8222	0.883
11.8631	0.882
11.904	0.876
11.9449	0.87
11.9858	0.87
12.0267	0.875
12.0675	0.878
12.1084	0.876
12.1493	0.876
12.1902	0.868
12.2311	0.864
12.272	0.868
12.3129	0.871
12.3538	0.873
12.3947	0.871
12.4356	0.864
12.4765	0.864
12.5174	0.863
12.5583	0.868
12.5992	0.87
12.6401	0.866
12.681	0.863
12.7219	0.859
12.7628	0.863
12.8037	0.866
12.8446	0.863
12.8855	0.851
12.9264	0.837
12.9673	0.811
13.0082	0.758
13.0491	0.641
13.09	0.42
13.1309	0.246
13.1718	0.181
13.2127	0.215
13.2535	0.324
13.2944	0.444
13.3353	0.524
13.3762	0.588
13.4171	0.63
13.458	0.647
13.4989	0.654
13.5398	0.659
13.5807	0.654
13.6216	0.639
13.6625	0.625
13.7034	0.6
13.7443	0.567
13.7852	0.538
13.8261	0.504
13.867	0.468
13.9079	0.446
13.9488	0.434
13.9897	0.43
14.0306	0.432
14.0715	0.447
14.1124	0.463
14.1533	0.476
14.1942	0.483
14.2351	0.487
14.276	0.485
14.3169	0.482
14.3578	0.48
14.3987	0.487
14.4395	0.497
14.4804	0.511
14.5213	0.526
14.5622	0.545
14.6031	0.555
14.644	0.555
14.6849	0.545
14.7258	0.536
14.7667	0.528
14.8076	0.526
14.8485	0.538
14.8894	0.558
14.9303	0.576
14.9712	0.589
15.0121	0.608
15.053	0.634
15.0939	0.646
15.1348	0.647
15.1757	0.649
15.2166	0.649
15.2575	0.644
15.2984	0.637
15.3393	0.63
15.3802	0.618
15.4211	0.61
15.462	0.589
15.5029	0.579
15.5438	0.565
15.5847	0.56
15.6255	0.558
15.6664	0.558
15.7073	0.56
15.7482	0.562
15.7891	0.56
15.83	0.558
15.8709	0.557
15.9118	0.552
15.9527	0.545
