Infrared Spectrum: 4-VINYL BIPHENYL
Formula: C14 H12
CAS: 2350-89-2
State: SOLID (KBr PELLET)
Melting point: 119-120 C
Class: COBLENTZ
Instrument: Not specified, most likely a prism, grating, or hybrid spectrometer.
Sampling: TRANSMISSION
Resolution: 4
Origin: UNION CARBIDE CORPORATION (CARBON PRODUCTS DIVISION)
MICROMETERS	TRANSMITTANCE
2.034	0.608
2.06775	0.611
2.1015	0.613
2.13524	0.611
2.16899	0.606
2.20274	0.606
2.23649	0.61
2.27023	0.613
2.30398	0.613
2.33773	0.615
2.37148	0.616
2.40522	0.618
2.43897	0.618
2.47272	0.615
2.50647	0.613
2.54021	0.613
2.57396	0.615
2.60771	0.616
2.64146	0.616
2.6752	0.616
2.70895	0.616
2.7427	0.616
2.77645	0.618
2.81019	0.618
2.84394	0.62
2.87769	0.618
2.91144	0.616
2.94519	0.618
2.97893	0.618
3.01268	0.625
3.04643	0.63
3.08018	0.633
3.11392	0.637
3.14767	0.645
3.18142	0.652
3.21517	0.652
3.24891	0.61
3.28266	0.559
3.31641	0.564
3.35016	0.577
3.3839	0.598
3.41765	0.615
3.4514	0.635
3.48515	0.647
3.51889	0.662
3.55264	0.669
3.58639	0.672
3.62014	0.681
3.65389	0.688
3.68763	0.689
3.72138	0.696
3.75513	0.701
3.78888	0.703
3.82262	0.703
3.85637	0.705
3.89012	0.715
3.92387	0.718
3.95761	0.722
3.99136	0.725
4.02511	0.727
4.05886	0.73
4.0926	0.73
4.12635	0.735
4.1601	0.737
4.19385	0.74
4.22759	0.74
4.26134	0.74
4.29509	0.738
4.32884	0.738
4.36258	0.74
4.39633	0.742
4.43008	0.75
4.46383	0.752
4.49758	0.757
4.53132	0.761
4.56507	0.762
4.59882	0.766
4.63257	0.769
4.66631	0.771
4.70006	0.772
4.73381	0.776
4.76756	0.776
4.8013	0.781
4.83505	0.784
4.8688	0.786
4.90255	0.788
4.93629	0.789
4.97004	0.793
5.00379	0.794
5.03754	0.793
5.07128	0.791
5.10503	0.777
5.13878	0.772
5.17253	0.783
5.20628	0.762
5.24002	0.759
5.27377	0.779
5.30752	0.779
5.34127	0.781
5.37501	0.801
5.40876	0.808
5.44251	0.81
5.47626	0.784
5.51	0.75
5.54375	0.767
5.5775	0.788
5.61125	0.8
5.64499	0.81
5.67874	0.81
5.71249	0.806
5.74624	0.806
5.77998	0.81
5.81373	0.811
5.84748	0.811
5.88123	0.808
5.91497	0.798
5.94872	0.762
5.98247	0.769
6.01622	0.783
6.04997	0.794
6.08371	0.794
6.11746	0.662
6.15121	0.669
6.18496	0.757
6.2187	0.764
6.25245	0.767
6.2862	0.791
6.31995	0.744
6.35369	0.793
6.38744	0.806
6.42119	0.8
6.45494	0.803
6.48868	0.816
6.52243	0.828
6.55618	0.827
6.58993	0.823
6.62367	0.827
6.65742	0.845
6.69117	0.527
6.72492	0.467
6.75866	0.718
6.79241	0.769
6.82616	0.779
6.85991	0.659
6.89366	0.674
6.9274	0.769
6.96115	0.789
6.9949	0.788
7.02865	0.761
7.06239	0.744
7.09614	0.503
7.12989	0.437
7.16364	0.671
7.19738	0.723
7.23113	0.738
7.26488	0.767
7.29863	0.788
7.33237	0.788
7.36612	0.789
7.39987	0.794
7.43362	0.737
7.46736	0.755
7.50111	0.798
7.53486	0.803
7.56861	0.798
7.60236	0.803
7.6361	0.808
7.66985	0.808
7.7036	0.801
7.73735	0.806
7.77109	0.81
7.80484	0.815
7.83859	0.82
7.87234	0.816
7.90608	0.816
7.93983	0.82
7.97358	0.833
8.00733	0.84
8.04107	0.85
8.07482	0.857
8.10857	0.854
8.14232	0.85
8.17606	0.815
8.20981	0.82
8.24356	0.838
8.27731	0.854
8.31105	0.862
8.3448	0.847
8.37855	0.844
8.4123	0.85
8.44605	0.833
8.47979	0.833
8.51354	0.85
8.54729	0.85
8.58104	0.805
8.61478	0.801
8.64853	0.816
8.68228	0.84
8.71603	0.866
8.74977	0.869
8.78352	0.867
8.81727	0.832
8.85102	0.703
8.88476	0.696
8.91851	0.803
8.95226	0.838
8.98601	0.855
9.01975	0.867
9.0535	0.867
9.08725	0.867
9.121	0.872
9.15475	0.874
9.18849	0.876
9.22224	0.874
9.25599	0.833
9.28974	0.788
9.32348	0.803
9.35723	0.842
9.39098	0.867
9.42473	0.877
9.45847	0.879
9.49222	0.883
9.52597	0.886
9.55972	0.889
9.59346	0.867
9.62721	0.793
9.66096	0.779
9.69471	0.811
9.72845	0.828
9.7622	0.833
9.79595	0.842
9.8297	0.842
9.86344	0.84
9.89719	0.832
9.93094	0.754
9.96469	0.733
9.99844	0.701
10.0322	0.493
10.0659	0.349
10.0997	0.427
10.1334	0.635
10.1672	0.705
10.2009	0.759
10.2347	0.788
10.2684	0.805
10.3022	0.813
10.3359	0.816
10.3697	0.82
10.4034	0.832
10.4372	0.835
10.4709	0.837
10.5046	0.837
10.5384	0.84
10.5721	0.847
10.6059	0.85
10.6396	0.852
10.6734	0.854
10.7071	0.852
10.7409	0.847
10.7746	0.844
10.8084	0.835
10.8421	0.815
10.8759	0.769
10.9096	0.659
10.9434	0.503
10.9771	0.416
11.0109	0.359
11.0446	0.303
11.0784	0.305
11.1121	0.427
11.1459	0.601
11.1796	0.677
11.2133	0.727
11.2471	0.761
11.2808	0.779
11.3146	0.794
11.3483	0.805
11.3821	0.82
11.4158	0.835
11.4496	0.84
11.4833	0.847
11.5171	0.854
11.5508	0.855
11.5846	0.857
11.6183	0.855
11.6521	0.852
11.6858	0.838
11.7196	0.754
11.7533	0.62
11.7871	0.477
11.8208	0.24
11.8546	0.115
11.8883	0.133
11.922	0.288
11.9558	0.42
11.9895	0.555
12.0233	0.627
12.057	0.674
12.0908	0.7
12.1245	0.733
12.1583	0.761
12.192	0.779
12.2258	0.791
12.2595	0.803
12.2933	0.813
12.327	0.825
12.3608	0.837
12.3945	0.84
12.4283	0.844
12.462	0.845
12.4958	0.847
12.5295	0.849
12.5633	0.852
12.597	0.854
12.6307	0.859
12.6645	0.866
12.6982	0.872
12.732	0.872
12.7657	0.866
12.7995	0.855
12.8332	0.82
12.867	0.742
12.9007	0.577
12.9345	0.374
12.9682	0.167
13.002	0.101
13.0357	0.266
13.0695	0.438
13.1032	0.554
13.137	0.603
13.1707	0.63
13.2045	0.654
13.2382	0.666
13.272	0.674
13.3057	0.676
13.3394	0.683
13.3732	0.705
13.4069	0.727
13.4407	0.733
13.4744	0.696
13.5082	0.532
13.5419	0.372
13.5757	0.189
13.6094	0.122
13.6432	0.14
13.6769	0.286
13.7107	0.422
13.7444	0.52
13.7782	0.576
13.8119	0.618
13.8457	0.65
13.8794	0.679
13.9132	0.703
13.9469	0.725
13.9807	0.745
14.0144	0.764
14.0481	0.771
14.0819	0.783
14.1156	0.788
14.1494	0.783
14.1831	0.776
14.2169	0.761
14.2506	0.728
14.2844	0.642
14.3181	0.54
14.3519	0.505
14.3856	0.467
14.4194	0.372
14.4531	0.267
14.4869	0.211
14.5206	0.201
14.5544	0.252
14.5881	0.338
14.6219	0.418
14.6556	0.494
14.6894	0.538
14.7231	0.566
14.7568	0.598
14.7906	0.613
14.8243	0.64
14.8581	0.655
14.8918	0.674
14.9256	0.691
14.9593	0.693
14.9931	0.713
15.0268	0.723
15.0606	0.732
15.0943	0.744
15.1281	0.752
15.1618	0.754
15.1956	0.757
15.2293	0.761
15.2631	0.764
15.2968	0.769
15.3306	0.772
15.3643	0.769
15.3981	0.772
15.4318	0.772
