Infrared Spectrum: p-TOLUENESULFONAMIDE, N,N'-(DITHIODIETHYLENE)BIS-
Formula: C18 H24 N2 O4 S4
CAS: 23516-74-7
State: SOLID (1 mg / 650 mg, KBr DISC)
Class: COBLENTZ III
Instrument: PERKIN-ELMER 21 (GRATING)
Instrument parameters: FILTER CHANGE AT ABOUT 1020 CM^-^1
Sampling: TRANSMISSION
Resolution: 2
Origin: SOUTHERN RESEARCH INSTITUTE
1/CM	TRANSMITTANCE
605.937	0.584
614.474	0.579
623.01	0.5741
631.547	0.5672
640.083	0.5376
648.62	0.486
657.156	0.3433
665.693	0.2816
674.23	0.3148
682.766	0.3671
691.303	0.3795
699.839	0.3938
708.376	0.419
716.912	0.4545
725.449	0.5766
733.986	0.6007
742.522	0.608
751.059	0.6049
759.595	0.593
768.132	0.6052
776.668	0.608
785.205	0.5803
793.742	0.5217
802.278	0.4612
810.815	0.2662
819.351	0.583
827.888	0.6436
836.424	0.6145
844.961	0.645
853.498	0.6394
862.034	0.6235
870.571	0.6135
879.107	0.5852
887.644	0.5518
896.18	0.4875
904.717	0.4222
913.254	0.4309
921.79	0.482
930.327	0.4418
938.863	0.4905
947.4	0.616
955.936	0.646
964.473	0.649
973.01	0.6441
981.546	0.6312
990.083	0.6197
998.619	0.5823
1007.16	0.5385
1015.69	0.47
1024.23	0.4146
1032.77	0.4965
1041.3	0.4448
1049.84	0.3768
1058.38	0.2523
1066.91	0.3877
1075.45	0.3629
1083.99	0.2728
1092.52	0.1972
1101.06	0.3885
1109.59	0.4698
1118.13	0.434
1126.67	0.3965
1135.2	0.3087
1143.74	0.1373
1152.28	0.0331
1160.81	0.1178
1169.35	0.3188
1177.89	0.4171
1186.42	0.4158
1194.96	0.5157
1203.5	0.5855
1212.03	0.585
1220.57	0.5509
1229.11	0.5538
1237.64	0.5781
1246.18	0.609
1254.72	0.5936
1263.25	0.564
1271.79	0.5074
1280.33	0.4085
1288.86	0.363
1297.4	0.3421
1305.94	0.3032
1314.47	0.1926
1323.01	0.0837
1331.55	0.1751
1340.08	0.3948
1348.62	0.3461
1357.16	0.4398
1365.69	0.5964
1374.23	0.586
1382.77	0.5801
1391.3	0.5476
1399.84	0.4525
1408.37	0.4029
1416.91	0.4148
1425.45	0.3962
1433.98	0.2832
1442.52	0.2329
1451.06	0.429
1459.59	0.5029
1468.13	0.4421
1476.67	0.5309
1485.2	0.607
1493.74	0.5295
1502.28	0.6636
1510.81	0.672
1519.35	0.677
1527.89	0.6796
1536.42	0.68
1544.96	0.68
1553.5	0.6775
1562.03	0.6726
1570.57	0.6616
1579.11	0.651
1587.64	0.5776
1596.18	0.4541
1604.72	0.6455
1613.25	0.648
1621.79	0.648
1630.33	0.652
1638.86	0.654
1647.4	0.6588
1655.94	0.6687
1664.47	0.6826
1673.01	0.686
1681.55	0.6994
1690.08	0.7077
1698.62	0.708
1707.15	0.708
1715.69	0.707
1724.23	0.705
1732.76	0.702
1741.3	0.701
1749.84	0.702
1758.37	0.706
1766.91	0.706
1775.45	0.704
1783.98	0.6979
1792.52	0.692
1801.06	0.694
1809.59	0.701
1818.13	0.704
1826.67	0.704
1835.2	0.704
1843.74	0.702
1852.28	0.692
1860.81	0.692
1869.35	0.694
1877.89	0.6904
1886.42	0.683
1894.96	0.678
1903.5	0.6612
1912.03	0.66
1920.57	0.672
1929.11	0.683
1937.64	0.685
1946.18	0.685
1954.72	0.685
1963.25	0.685
1971.79	0.686
1980.33	0.686
1988.86	0.686
1997.4	0.686
2005.93	0.6851
2014.47	0.6831
2023.01	0.681
2031.54	0.679
2040.08	0.678
2048.62	0.677
2057.15	0.6799
2065.69	0.681
2074.23	0.6781
2082.76	0.675
2091.3	0.674
2099.84	0.6739
2108.37	0.673
2116.91	0.673
2125.45	0.673
2133.98	0.673
2142.52	0.672
2151.06	0.669
2159.59	0.669
2168.13	0.6681
2176.67	0.666
2185.2	0.663
2193.74	0.661
2202.28	0.662
2210.81	0.663
2219.35	0.663
2227.89	0.662
2236.42	0.6591
2244.96	0.6541
2253.5	0.6549
2262.03	0.657
2270.57	0.6551
2279.11	0.651
2287.64	0.6463
2296.18	0.646
2304.71	0.646
2313.25	0.651
2321.79	0.657
2330.32	0.659
2338.86	0.655
2347.4	0.654
2355.93	0.6559
2364.47	0.657
2373.01	0.6541
2381.54	0.6491
2390.08	0.645
2398.62	0.643
2407.15	0.64
2415.69	0.64
2424.23	0.64
2432.76	0.642
2441.3	0.642
2449.84	0.642
2458.37	0.6403
2466.91	0.6361
2475.45	0.633
2483.98	0.6357
2492.52	0.634
2501.06	0.632
2509.59	0.631
2518.13	0.631
2526.67	0.629
2535.2	0.628
2543.74	0.627
2552.28	0.6261
2560.81	0.6174
2569.35	0.615
2577.89	0.614
2586.42	0.614
2594.96	0.613
2603.49	0.611
2612.03	0.61
2620.57	0.61
2629.1	0.6091
2637.64	0.609
2646.18	0.608
2654.71	0.607
2663.25	0.6041
2671.79	0.603
2680.32	0.6
2688.86	0.598
2697.4	0.596
2705.93	0.591
2714.47	0.586
2723.01	0.581
2731.54	0.575
2740.08	0.569
2748.62	0.5667
2757.15	0.565
2765.69	0.567
2774.23	0.565
2782.76	0.5631
2791.3	0.5581
2799.84	0.5511
2808.37	0.5403
2816.91	0.5283
2825.45	0.5161
2833.98	0.5031
2842.52	0.4752
2851.06	0.4583
2859.59	0.4576
2868.13	0.4696
2876.67	0.483
2885.2	0.4843
2893.74	0.4754
2902.27	0.4631
2910.81	0.46
2919.35	0.4707
2927.88	0.4797
2936.42	0.483
2944.96	0.489
2953.49	0.4949
2962.03	0.4999
2970.57	0.5069
2979.1	0.5247
2987.64	0.5339
2996.18	0.5321
3004.71	0.5271
3013.25	0.525
3021.79	0.5181
3030.32	0.5041
3038.86	0.501
3047.4	0.5
3055.93	0.4981
3064.47	0.4921
3073.01	0.4929
3081.54	0.5
3090.08	0.4981
3098.62	0.4941
3107.15	0.4881
3115.69	0.4801
3124.23	0.4711
3132.76	0.4631
3141.3	0.4544
3149.84	0.4371
3158.37	0.4264
3166.91	0.4144
3175.45	0.3974
3183.98	0.3804
3192.52	0.3561
3201.05	0.3385
3209.59	0.3251
3218.13	0.2976
3226.66	0.2617
3235.2	0.2179
3243.74	0.1761
3252.27	0.1365
3260.81	0.128
3269.35	0.1299
3277.88	0.1476
3286.42	0.1907
3294.96	0.2612
3303.49	0.3188
3312.03	0.3801
3320.57	0.4457
3329.1	0.4739
3337.64	0.504
3346.18	0.517
3354.71	0.5219
3363.25	0.523
3371.79	0.523
3380.32	0.5173
3388.86	0.512
3397.4	0.5109
3405.93	0.509
3414.47	0.505
3423.01	0.5001
3431.54	0.496
3440.08	0.492
3448.62	0.49
3457.15	0.488
3465.69	0.488
3474.23	0.488
3482.76	0.489
3491.3	0.49
3499.83	0.492
3508.37	0.492
3516.91	0.492
3525.44	0.493
3533.98	0.498
3542.52	0.5
3551.05	0.5
3559.59	0.504
3568.13	0.5087
3576.66	0.5129
3585.2	0.516
3593.74	0.5189
3602.27	0.5239
3610.81	0.525
3619.35	0.525
3627.88	0.534
3636.42	0.539
3644.96	0.5449
3653.49	0.5519
3662.03	0.562
3670.57	0.5611
3679.1	0.5561
3687.64	0.553
3696.18	0.552
3704.71	0.555
3713.25	0.557
3721.79	0.5513
3730.32	0.5519
3738.86	0.5559
3747.4	0.5551
3755.93	0.5501
3764.47	0.5483
3773.01	0.5461
3781.54	0.545
3790.08	0.5459
3798.61	0.547
3807.15	0.548
