Infrared Spectrum: 1-CHLORO-HEPTADECANONE-2
Formula: C17 H33 Cl O
CAS: 23546-12-5
State: SOLID (MELT)
Melting point: 59-59.5 C
Class: COBLENTZ
Instrument: PERKIN-ELMER
Sampling: TRANSMISSION
Resolution: 4
Origin: HORMEL INSTITUTE
MICROMETERS	TRANSMITTANCE
2.027	0.663
2.06086	0.663
2.09471	0.663
2.12857	0.666
2.16242	0.668
2.19628	0.671
2.23013	0.67
2.26399	0.67
2.29785	0.659
2.3317	0.651
2.36556	0.651
2.39941	0.649
2.43327	0.649
2.46712	0.656
2.50098	0.666
2.53484	0.67
2.56869	0.67
2.60255	0.675
2.6364	0.68
2.67026	0.681
2.70411	0.683
2.73797	0.685
2.77183	0.685
2.80568	0.69
2.83954	0.695
2.87339	0.698
2.90725	0.688
2.94111	0.688
2.97496	0.698
3.00882	0.702
3.04267	0.703
3.07653	0.705
3.11038	0.707
3.14424	0.703
3.1781	0.7
3.21195	0.698
3.24581	0.68
3.27966	0.659
3.31352	0.631
3.34737	0.521
3.38123	0.35
3.41509	0.103
3.44894	0.091
3.4828	0.216
3.51665	0.218
3.55051	0.461
3.58436	0.587
3.61822	0.632
3.65208	0.663
3.68593	0.67
3.71979	0.688
3.75364	0.695
3.7875	0.692
3.82135	0.695
3.85521	0.7
3.88907	0.71
3.92292	0.712
3.95678	0.72
3.99063	0.724
4.02449	0.727
4.05834	0.729
4.0922	0.73
4.12606	0.73
4.15991	0.729
4.19377	0.729
4.22762	0.719
4.26148	0.719
4.29534	0.719
4.32919	0.724
4.36305	0.727
4.3969	0.732
4.43076	0.736
4.46461	0.741
4.49847	0.742
4.53233	0.742
4.56618	0.742
4.60004	0.742
4.63389	0.741
4.66775	0.742
4.7016	0.746
4.73546	0.744
4.76932	0.749
4.80317	0.751
4.83703	0.751
4.87088	0.752
4.90474	0.751
4.93859	0.751
4.97245	0.752
5.00631	0.759
5.04016	0.758
5.07402	0.758
5.10787	0.759
5.14173	0.758
5.17558	0.759
5.20944	0.759
5.2433	0.756
5.27715	0.754
5.31101	0.754
5.34486	0.756
5.37872	0.756
5.41257	0.759
5.44643	0.754
5.48029	0.752
5.51414	0.751
5.548	0.742
5.58185	0.739
5.61571	0.732
5.64957	0.72
5.68342	0.71
5.71728	0.659
5.75113	0.512
5.78499	0.321
5.81884	0.301
5.8527	0.473
5.88656	0.636
5.92041	0.659
5.95427	0.705
5.98812	0.73
6.02198	0.739
6.05583	0.741
6.08969	0.746
6.12355	0.747
6.1574	0.751
6.19126	0.754
6.22511	0.759
6.25897	0.759
6.29282	0.761
6.32668	0.761
6.36054	0.761
6.39439	0.759
6.42825	0.761
6.4621	0.761
6.49596	0.754
6.52981	0.756
6.56367	0.752
6.59753	0.751
6.63138	0.746
6.66524	0.737
6.69909	0.725
6.73295	0.698
6.7668	0.597
6.80066	0.292
6.83452	0.341
6.86837	0.583
6.90223	0.658
6.93608	0.68
6.96994	0.69
7.0038	0.653
7.03765	0.576
7.07151	0.401
7.10536	0.331
7.13922	0.406
7.17307	0.624
7.20693	0.629
7.24079	0.561
7.27464	0.6
7.3085	0.612
7.34235	0.664
7.37621	0.693
7.41006	0.683
7.44392	0.708
7.47778	0.739
7.51163	0.729
7.54549	0.739
7.57934	0.739
7.6132	0.688
7.64705	0.675
7.68091	0.67
7.71477	0.587
7.74862	0.666
7.78248	0.681
7.81633	0.688
7.85019	0.741
7.88404	0.747
7.9179	0.668
7.95176	0.702
7.98561	0.747
8.01947	0.756
8.05332	0.714
8.08718	0.724
8.12103	0.763
8.15489	0.768
8.18875	0.751
8.2226	0.692
8.25646	0.751
8.29031	0.764
8.32417	0.773
8.35803	0.754
8.39188	0.734
8.42574	0.769
8.45959	0.773
8.49345	0.768
8.5273	0.768
8.56116	0.771
8.59502	0.774
8.62887	0.78
8.66273	0.78
8.69658	0.78
8.73044	0.78
8.76429	0.773
8.79815	0.761
8.83201	0.686
8.86586	0.712
8.89972	0.741
8.93357	0.742
8.96743	0.72
9.00128	0.61
9.03514	0.58
9.069	0.69
9.10285	0.727
9.13671	0.729
9.17056	0.678
9.20442	0.692
9.23827	0.698
9.27213	0.588
9.30599	0.541
9.33984	0.663
9.3737	0.708
9.40755	0.719
9.44141	0.729
9.47526	0.736
9.50912	0.729
9.54298	0.692
9.57683	0.681
9.61069	0.692
9.64454	0.712
9.6784	0.739
9.71226	0.758
9.74611	0.759
9.77997	0.751
9.81382	0.749
9.84768	0.751
9.88153	0.737
9.91539	0.724
9.94925	0.742
9.9831	0.764
10.017	0.768
10.0508	0.778
10.0847	0.783
10.1185	0.791
10.1524	0.795
10.1862	0.795
10.2201	0.791
10.2539	0.793
10.2878	0.793
10.3217	0.793
10.3555	0.798
10.3894	0.8
10.4232	0.802
10.4571	0.803
10.4909	0.803
10.5248	0.805
10.5586	0.803
10.5925	0.803
10.6264	0.803
10.6602	0.8
10.6941	0.793
10.7279	0.768
10.7618	0.764
10.7956	0.786
10.8295	0.798
10.8634	0.8
10.8972	0.805
10.9311	0.805
10.9649	0.807
10.9988	0.805
11.0326	0.805
11.0665	0.802
11.1003	0.796
11.1342	0.785
11.1681	0.778
11.2019	0.776
11.2358	0.761
11.2696	0.769
11.3035	0.791
11.3373	0.8
11.3712	0.798
11.405	0.791
11.4389	0.791
11.4728	0.795
11.5066	0.8
11.5405	0.803
11.5743	0.805
11.6082	0.802
11.642	0.796
11.6759	0.778
11.7097	0.759
11.7436	0.778
11.7775	0.796
11.8113	0.807
11.8452	0.81
11.879	0.817
11.9129	0.817
11.9467	0.817
11.9806	0.815
12.0144	0.817
12.0483	0.805
12.0822	0.796
12.116	0.774
12.1499	0.778
12.1837	0.79
12.2176	0.798
12.2514	0.803
12.2853	0.802
12.3191	0.803
12.353	0.802
12.3869	0.796
12.4207	0.791
12.4546	0.788
12.4884	0.776
12.5223	0.761
12.5561	0.724
12.59	0.692
12.6238	0.688
12.6577	0.737
12.6916	0.754
12.7254	0.768
12.7593	0.768
12.7931	0.759
12.827	0.729
12.8608	0.671
12.8947	0.585
12.9286	0.499
12.9624	0.465
12.9963	0.494
13.0301	0.587
13.064	0.617
13.0978	0.583
13.1317	0.504
13.1655	0.489
13.1994	0.588
13.2333	0.656
13.2671	0.697
13.301	0.717
13.3348	0.734
13.3687	0.737
13.4025	0.736
13.4364	0.715
13.4702	0.729
13.5041	0.752
13.538	0.763
13.5718	0.768
13.6057	0.764
13.6395	0.754
13.6734	0.736
13.7072	0.712
13.7411	0.666
13.7749	0.556
13.8088	0.468
13.8427	0.406
13.8765	0.421
13.9104	0.538
13.9442	0.587
13.9781	0.607
14.0119	0.6
14.0458	0.595
14.0796	0.617
14.1135	0.668
14.1474	0.707
14.1812	0.747
14.2151	0.771
14.2489	0.796
14.2828	0.813
14.3166	0.824
14.3505	0.835
14.3843	0.839
14.4182	0.844
14.4521	0.851
14.4859	0.854
14.5198	0.861
14.5536	0.866
14.5875	0.868
14.6213	0.874
14.6552	0.874
14.6891	0.878
14.7229	0.878
14.7568	0.878
14.7906	0.876
14.8245	0.876
14.8583	0.876
14.8922	0.873
14.926	0.857
14.9599	0.84
14.9938	0.825
15.0276	0.815
15.0615	0.776
15.0953	0.729
15.1292	0.67
15.163	0.654
15.1969	0.656
