Infrared Spectrum: Ethyl m-trifluoromethylcarbanilate
Formula: C 10 H 10 F 3 N O 2
CAS: 2354-93-0
State: gas
Origin: EPA-IR VAPOR PHASE LIBRARY
1/CM	ABSORBANCE
549.8	0.00482
559.445	0.0036
569.09	0.00301
578.734	0.00243
588.379	0.00207
598.024	0.00123
607.669	0.00171
617.313	0.00217
626.958	0.00235
636.603	0.00221
646.248	0.00312
655.893	0.00881
665.537	0.00959
675.182	0.00421
684.827	0.00572
694.472	0.01453
704.116	0.01055
713.761	0.0042
723.406	0.00319
733.051	0.00362
742.695	0.00421
752.34	0.00563
761.985	0.00741
771.63	0.0092
781.275	0.01193
790.919	0.01616
800.564	0.00908
810.209	0.0036
819.854	0.00204
829.498	0.00209
839.143	0.00217
848.788	0.00355
858.433	0.00711
868.078	0.01534
877.722	0.01317
887.367	0.00745
897.012	0.0076
906.657	0.00713
916.301	0.00646
925.946	0.00709
935.591	0.00536
945.236	0.00329
954.88	0.0032
964.525	0.00362
974.17	0.00476
983.815	0.00511
993.46	0.00604
1003.1	0.00857
1012.75	0.00584
1022.39	0.00529
1032.04	0.00634
1041.68	0.01096
1051.33	0.02165
1060.97	0.03976
1070.62	0.05172
1080.26	0.04209
1089.91	0.03336
1099.55	0.03958
1109.2	0.02258
1118.84	0.01949
1128.49	0.03315
1138.13	0.07635
1147.78	0.11801
1157.42	0.07536
1167.07	0.07632
1176.71	0.12492
1186.36	0.14618
1196	0.18715
1205.64	0.16453
1215.29	0.06643
1224.93	0.052
1234.58	0.05233
1244.22	0.03291
1253.87	0.02039
1263.51	0.01932
1273.16	0.0258
1282.8	0.03349
1292.45	0.03836
1302.09	0.04608
1311.74	0.05108
1321.38	0.07667
1331.03	0.15008
1340.67	0.07978
1350.32	0.01861
1359.96	0.01071
1369.61	0.01158
1379.25	0.01352
1388.9	0.01407
1398.54	0.01491
1408.18	0.01434
1417.83	0.01635
1427.47	0.02319
1437.12	0.0399
1446.76	0.06275
1456.41	0.02959
1466.05	0.01857
1475.7	0.02209
1485.34	0.03548
1494.99	0.04379
1504.63	0.04637
1514.28	0.06268
1523.92	0.09136
1533.57	0.08189
1543.21	0.03732
1552.86	0.01871
1562.5	0.01285
1572.15	0.0107
1581.79	0.01151
1591.44	0.01662
1601.08	0.02035
1610.73	0.01713
1620.37	0.01769
1630.01	0.00847
1639.66	0.00475
1649.3	0.00377
1658.95	0.00346
1668.59	0.00324
1678.24	0.00343
1687.88	0.0038
1697.53	0.00457
1707.17	0.00567
1716.82	0.00723
1726.46	0.01035
1736.11	0.01875
1745.75	0.03995
1755.4	0.08554
1765.04	0.0969
1774.69	0.04422
1784.33	0.01823
1793.98	0.01096
1803.62	0.00663
1813.27	0.00532
1822.91	0.00441
1832.55	0.0031
1842.2	0.00249
1851.84	0.00218
1861.49	0.00202
1871.13	0.0018
1880.78	0.00175
1890.42	0.00138
1900.07	0.00121
1909.71	0.00125
1919.36	0.00139
1929	0.00161
1938.65	0.00166
1948.29	0.00133
1957.94	0.0010603
1967.58	0.0009634
1977.23	0.0007622
1986.87	0.0007293
1996.52	0.0006397
2006.16	0.0004864
2015.81	0.0005153
2025.45	0.0005272
2035.1	0.0005399
2044.74	0.0005569
2054.38	0.0005302
2064.03	0.0007148
2073.67	0.0008022
2083.32	0.0009192
2092.96	0.0010718
2102.61	0.0010021
2112.25	0.0008041
2121.9	0.0005521
2131.54	0.0005194
2141.19	0.0004456
2150.83	0.0006429
2160.48	0.0007303
2170.12	0.0009068
2179.77	0.0010472
2189.41	0.00124
2199.06	0.00119
2208.7	0.0011387
2218.35	0.0009905
2227.99	0.0010931
2237.64	0.00127
2247.28	0.00164
2256.92	0.00223
2266.57	0.00314
2276.21	0.00377
2285.86	0.00287
2295.5	0.00153
2305.15	0.0009959
2314.79	0.0009188
2324.44	0.000915
2334.08	0.0008927
2343.73	0.0008118
2353.37	0.0009066
2363.02	0.0008584
2372.66	0.0007396
2382.31	0.0007357
2391.95	0.0006607
2401.6	0.0005921
2411.24	0.000601
2420.89	0.0005736
2430.53	0.0006635
2440.18	0.0006575
2449.82	0.0005357
2459.47	0.0004535
2469.11	0.0004759
2478.75	0.0005555
2488.4	0.0005825
2498.04	0.0005674
2507.69	0.0006125
2517.33	0.0005555
2526.98	0.0005072
2536.62	0.0005114
2546.27	0.0004007
2555.91	0.0002764
2565.56	0.0004596
2575.2	0.0004089
2584.85	0.000258
2594.49	0.000391
2604.14	0.0003901
2613.78	0.0004294
2623.43	0.0003799
2633.07	0.0002775
2642.72	0.0002384
2652.36	0.00023248
2662.01	0.0003857
2671.65	0.0003675
2681.29	0.0002924
2690.94	0.00018713
2700.58	0.000149101
2710.23	0.0002917
2719.87	0.0004588
2729.52	0.0003552
2739.16	0.0003721
2748.81	0.0003882
2758.45	0.0003969
2768.1	0.0004843
2777.74	0.0004403
2787.39	0.0004185
2797.03	0.0003486
2806.68	0.0004337
2816.32	0.0006441
2825.97	0.0007136
2835.61	0.0006758
2845.26	0.0008231
2854.9	0.0009928
2864.55	0.00126
2874.19	0.00166
2883.84	0.00246
2893.48	0.00277
2903.12	0.00303
2912.77	0.00376
2922.41	0.00428
2932.06	0.00494
2941.7	0.00743
2951.35	0.00732
2960.99	0.0067
2970.64	0.0089
2980.28	0.01277
2989.93	0.01474
2999.57	0.00968
3009.22	0.00676
3018.86	0.00452
3028.51	0.00364
3038.15	0.00317
3047.8	0.00304
3057.44	0.003
3067.09	0.00282
3076.73	0.00269
3086.38	0.00284
3096.02	0.00265
3105.67	0.00211
3115.31	0.00144
3124.95	0.0009796
3134.6	0.0007873
3144.24	0.000576
3153.89	0.0008432
3163.53	0.0003754
3173.18	0.0004407
3182.82	0.0003954
3192.47	0.0004175
3202.11	0.0005295
3211.76	0.0004063
3221.4	0.00020124
3231.05	0.0003778
3240.69	0.0004111
3250.34	8.28e-05
3259.98	0.0003464
3269.63	0.00018337
3279.27	0.000309
3288.92	0.0003925
3298.56	0.0003738
3308.21	0.000371
3317.85	0.0003445
3327.49	0.000247
3337.14	0.00016419
3346.78	0.0004386
3356.43	0.0002077
3366.07	0.0004836
3375.72	0.0003932
3385.36	0.00023274
3395.01	0.0004636
3404.65	0.0004162
3414.3	0.000758
3423.94	0.001095
3433.59	0.00205
3443.23	0.00374
3452.88	0.00673
3462.52	0.01076
3472.17	0.0089
3481.81	0.00345
3491.46	0.00191
3501.1	0.00142
3510.75	0.00127
3520.39	0.0010536
3530.04	0.0006385
3539.68	0.000616
3549.32	0.0003902
3558.97	0.0004113
3568.61	0.0002934
3578.26	0.0002747
3587.9	0.0003572
3597.55	0.0004607
3607.19	0.0003794
3616.84	0.0004308
3626.48	0.0003513
3636.13	0.0004437
3645.77	0.00028
3655.42	0.0003281
3665.06	0.00017782
3674.71	0.0003225
3684.35	0.0003586
3694	0.000437
3703.64	0.0003943
3713.29	0.0003638
3722.93	0.0002972
3732.58	0.0003797
3742.22	0.0003666
3751.86	0.0007742
3761.51	0.0002872
3771.15	0.0004149
3780.8	0.0002544
3790.44	0.0002734
3800.09	0.0004419
3809.73	0.0004883
3819.38	0.0004724
3829.02	0.000286
3838.67	0.0004479
3848.31	0.0004389
3857.96	0.0001297
3867.6	0.0004064
3877.25	0.0003758
3886.89	0.0001044
3896.54	0.0004979
3906.18	0.00019842
3915.83	8.65e-05
3925.47	0.0005752
3935.12	0.0006319
3944.76	0.0005496
3954.41	0.0004754
3964.05	0.0004393
3973.69	0.0004211
3983.34	0.0004639
3992.98	0.00023823
