Infrared Spectrum: PHTHALIMIDE, N-[4-(TETRAHYDRO-2-OXO-2H-1,3-OXAZIN-3-YL)BUTYL]-
Formula: C16 H18 N2 O4
CAS: 23545-36-0
State: SOLID (1 mg / 650 mg KBr DISC)
Class: COBLENTZ III
Instrument: PERKIN-ELMER 521 (GRATING)
Instrument parameters: FILTERS AT 3150, 2500, 2000, 1150, 700, 410. GRATING CHANGES: 2000, 630
Sampling: TRANSMISSION
Resolution: 2
Origin: SOUTHERN RESEARCH INSTITUTE
1/CM	TRANSMITTANCE
254.13	0.2495
264.175	0.2855
274.22	0.3401
284.265	0.4382
294.31	0.4944
304.355	0.5522
314.4	0.5913
324.445	0.606
334.49	0.6084
344.535	0.5585
354.58	0.6723
364.626	0.7141
374.671	0.737
384.716	0.7448
394.761	0.7479
404.806	0.766
414.851	0.7722
424.896	0.7761
434.941	0.7792
444.986	0.782
455.031	0.7848
465.076	0.7881
475.121	0.79
485.166	0.752
495.211	0.7803
505.256	0.7962
515.301	0.794
525.346	0.7549
535.391	0.7094
545.436	0.7716
555.481	0.7618
565.526	0.7995
575.571	0.8046
585.617	0.8056
595.662	0.8039
605.707	0.7978
615.752	0.7729
625.797	0.8008
635.842	0.8231
645.887	0.8242
655.932	0.823
665.977	0.796
676.022	0.7868
686.067	0.8291
696.112	0.8301
706.157	0.7635
716.202	0.673
726.247	0.4101
736.292	0.7173
746.337	0.8135
756.382	0.7088
766.427	0.8486
776.472	0.8608
786.517	0.8485
796.563	0.759
806.608	0.8639
816.653	0.8638
826.698	0.8609
836.743	0.8583
846.788	0.8465
856.833	0.8369
866.878	0.8556
876.923	0.8491
886.968	0.8391
897.013	0.8198
907.058	0.7215
917.103	0.8205
927.148	0.8395
937.193	0.8259
947.238	0.7951
957.283	0.7765
967.328	0.7349
977.373	0.763
987.418	0.8055
997.463	0.7993
1007.51	0.7816
1017.55	0.763
1027.6	0.7333
1037.64	0.5481
1047.69	0.5877
1057.73	0.7449
1067.78	0.6034
1077.82	0.7283
1087.87	0.6872
1097.91	0.6327
1107.96	0.4287
1118	0.6623
1128.05	0.7623
1138.09	0.7462
1148.14	0.5766
1158.18	0.7211
1168.23	0.7688
1178.27	0.751
1188.32	0.7642
1198.36	0.7071
1208.41	0.6923
1218.45	0.6506
1228.5	0.7901
1238.54	0.7314
1248.59	0.6313
1258.63	0.6025
1268.68	0.7393
1278.72	0.6014
1288.77	0.4507
1298.81	0.6257
1308.86	0.7775
1318.9	0.7383
1328.95	0.6802
1339	0.6506
1349.04	0.7109
1359.09	0.6374
1369.13	0.4696
1379.18	0.6118
1389.22	0.5121
1399.27	0.4684
1409.31	0.6461
1419.36	0.5803
1429.4	0.5239
1439.45	0.6422
1449.49	0.6718
1459.54	0.5072
1469.58	0.7513
1479.63	0.6449
1489.67	0.4134
1499.72	0.7094
1509.76	0.7535
1519.81	0.8215
1529.85	0.8387
1539.9	0.8432
1549.94	0.8411
1559.99	0.8328
1570.03	0.8191
1580.08	0.8026
1590.12	0.7825
1600.17	0.7356
1610.21	0.7071
1620.26	0.7359
1630.3	0.713
1640.35	0.6924
1650.39	0.6477
1660.44	0.5779
1670.48	0.3488
1680.53	0.113
1690.57	0.2179
1700.62	0.1958
1710.66	0.0784
1720.71	0.3144
1730.75	0.5914
1740.8	0.736
1750.84	0.7389
1760.89	0.6675
1770.93	0.6459
1780.98	0.7861
1791.02	0.8218
1801.07	0.8403
1811.11	0.8498
1821.16	0.8554
1831.2	0.8582
1841.25	0.8634
1851.29	0.8677
1861.34	0.8704
1871.38	0.8721
1881.43	0.8736
1891.47	0.8746
1901.52	0.8743
1911.56	0.8735
1921.61	0.873
1931.65	0.8731
1941.7	0.8731
1951.74	0.8729
1961.79	0.8752
1971.83	0.8758
1981.88	0.8763
1991.92	0.8768
2001.97	0.8774
2012.01	0.8794
2022.06	0.8814
2032.1	0.8814
2042.15	0.8812
2052.19	0.8807
2062.24	0.8801
2072.28	0.8797
2082.33	0.8793
2092.37	0.8789
2102.42	0.8785
2112.46	0.8783
2122.51	0.8782
2132.55	0.878
2142.6	0.8779
2152.64	0.8774
2162.69	0.8769
2172.73	0.8765
2182.78	0.876
2192.82	0.8755
2202.87	0.8749
2212.91	0.8744
2222.96	0.8739
2233	0.8734
2243.05	0.8733
2253.09	0.8727
2263.14	0.872
2273.18	0.8714
2283.23	0.8707
2293.27	0.87
2303.32	0.8706
2313.36	0.8717
2323.41	0.8728
2333.45	0.8738
2343.5	0.8747
2353.54	0.8748
2363.59	0.8748
2373.63	0.8749
2383.68	0.8743
2393.72	0.8731
2403.77	0.8735
2413.82	0.8745
2423.86	0.8748
2433.91	0.8746
2443.95	0.8747
2454	0.8748
2464.04	0.875
2474.09	0.8751
2484.13	0.8752
2494.18	0.8752
2504.22	0.8752
2514.27	0.8753
2524.31	0.8753
2534.36	0.8745
2544.4	0.8735
2554.45	0.8732
2564.49	0.8741
2574.54	0.8742
2584.58	0.8728
2594.63	0.8715
2604.67	0.8714
2614.72	0.8694
2624.76	0.8673
2634.81	0.8664
2644.85	0.8657
2654.9	0.8653
2664.94	0.8649
2674.99	0.8644
2685.03	0.8639
2695.08	0.8637
2705.12	0.8636
2715.17	0.863
2725.21	0.8614
2735.26	0.86
2745.3	0.8593
2755.35	0.8586
2765.39	0.8586
2775.44	0.8568
2785.48	0.8552
2795.53	0.8521
2805.57	0.8477
2815.62	0.8404
2825.66	0.8302
2835.71	0.8151
2845.75	0.7887
2855.8	0.7525
2865.84	0.7573
2875.89	0.7581
2885.93	0.7568
2895.98	0.7538
2906.02	0.7414
2916.07	0.7318
2926.11	0.6924
2936.16	0.677
2946.2	0.6934
2956.25	0.7273
2966.29	0.7244
2976.34	0.7707
2986.38	0.8276
2996.43	0.8413
3006.47	0.8432
3016.52	0.8357
3026.56	0.837
3036.61	0.8358
3046.65	0.83
3056.7	0.8315
3066.74	0.839
3076.79	0.8428
3086.83	0.8443
3096.88	0.846
3106.92	0.8474
3116.97	0.8492
3127.01	0.8512
3137.06	0.847
3147.1	0.8385
3157.15	0.8364
3167.19	0.8351
3177.24	0.833
3187.28	0.8305
3197.33	0.8277
3207.37	0.825
3217.42	0.8224
3227.46	0.8197
3237.51	0.8164
3247.55	0.8131
3257.6	0.8098
3267.64	0.806
3277.69	0.8022
3287.73	0.7979
3297.78	0.7922
3307.82	0.7866
3317.87	0.7792
3327.91	0.7718
3337.96	0.763
3348	0.7535
3358.05	0.7453
3368.09	0.7389
3378.14	0.7326
3388.18	0.7275
3398.23	0.7225
3408.27	0.7184
3418.32	0.7163
3428.36	0.7141
3438.41	0.7134
3448.45	0.7139
3458.5	0.7166
3468.54	0.7205
3478.59	0.7289
3488.64	0.7366
3498.68	0.7439
3508.73	0.7513
3518.77	0.7588
3528.82	0.7663
3538.86	0.774
3548.91	0.7817
3558.95	0.7896
3569	0.7978
3579.04	0.8064
3589.09	0.8151
3599.13	0.8241
3609.18	0.833
3619.22	0.8408
3629.27	0.849
3639.31	0.8566
3649.36	0.8585
3659.4	0.8598
3669.45	0.8601
3679.49	0.8604
3689.54	0.8614
3699.58	0.8632
3709.63	0.8661
3719.67	0.8686
3729.72	0.8688
3739.76	0.8691
3749.81	0.8689
3759.85	0.8682
3769.9	0.8675
3779.94	0.8668
3789.99	0.8661
3800.03	0.8653
3810.08	0.8646
3820.12	0.8639
3830.17	0.8631
3840.21	0.8692
3850.26	0.8634
3860.3	0.8638
3870.35	0.8641
3880.39	0.8645
3890.44	0.8648
3900.48	0.8652
3910.53	0.866
3920.57	0.8669
3930.62	0.8678
3940.66	0.8687
3950.71	0.8697
3960.75	0.8699
3970.8	0.8699
3980.84	0.8699
3990.89	0.8687
4000.93	0.8673
4010.98	0.8665
