Infrared Spectrum: PHTHALIMIDE, N-[3-(TETRAHYDRO-2-OXO-2H-1,3-OXAZIN-3-YL)PROPYL]-
Formula: C15 H16 N2 O4
CAS: 23545-35-9
State: SOLID (1.0 mg / 650 mg KBr DISC)
Class: COBLENTZ III
Instrument: PERKIN-ELMER 521 (GRATING)
Instrument parameters: FILTERS AT 3150, 2500, 2000, 1150, 700, 410 AND GRATING CHANGES: 2000, 630 CM^-^1
Sampling: TRANSMISSION
Resolution: 4
Origin: SOUTHERN RESEARCH INSTITUTE
1/CM	TRANSMITTANCE
251.197	0.212
260.773	0.231
270.349	0.309
279.925	0.375
289.501	0.447
299.077	0.494
308.653	0.54
318.228	0.565
327.804	0.585
337.38	0.618
346.956	0.597
356.532	0.6619
366.108	0.689
375.684	0.725
385.26	0.752
394.836	0.736
404.412	0.752
413.988	0.744
423.564	0.78
433.14	0.788
442.715	0.792
452.291	0.795
461.867	0.801
471.443	0.805
481.019	0.787
490.595	0.801
500.171	0.791
509.747	0.811
519.323	0.8
528.899	0.69
538.475	0.794
548.051	0.805
557.627	0.788
567.202	0.818
576.778	0.819
586.354	0.823
595.93	0.829
605.506	0.8
615.082	0.81
624.658	0.828
634.234	0.834
643.81	0.837
653.386	0.837
662.962	0.844
672.538	0.829
682.113	0.85
691.689	0.85
701.265	0.836
710.841	0.763
720.417	0.6061
729.993	0.632
739.569	0.811
749.145	0.764
758.721	0.8128
768.297	0.857
777.873	0.861
787.449	0.854
797.025	0.7811
806.6	0.865
816.176	0.859
825.752	0.867
835.328	0.869
844.904	0.867
854.48	0.863
864.056	0.857
873.632	0.844
883.208	0.729
892.784	0.846
902.36	0.855
911.936	0.856
921.512	0.857
931.087	0.855
940.663	0.84
950.239	0.85
959.815	0.835
969.391	0.789
978.967	0.83
988.543	0.836
998.119	0.826
1007.69	0.812
1017.27	0.792
1026.85	0.739
1036.42	0.6181
1046	0.5278
1055.57	0.778
1065.15	0.735
1074.73	0.7229
1084.3	0.794
1093.88	0.793
1103.45	0.632
1113.03	0.756
1122.61	0.789
1132.18	0.812
1141.76	0.787
1151.33	0.688
1160.91	0.745
1170.49	0.812
1180.06	0.805
1189.64	0.776
1199.21	0.702
1208.79	0.732
1218.37	0.597
1227.94	0.8069
1237.52	0.811
1247.09	0.772
1256.67	0.651
1266.24	0.7109
1275.82	0.757
1285.4	0.6731
1294.97	0.545
1304.55	0.769
1314.12	0.822
1323.7	0.806
1333.28	0.742
1342.85	0.756
1352.43	0.726
1362	0.7231
1371.58	0.5701
1381.16	0.612
1390.73	0.673
1400.31	0.503
1409.88	0.5339
1419.46	0.769
1429.04	0.6241
1438.61	0.596
1448.19	0.693
1457.76	0.6871
1467.34	0.7126
1476.92	0.674
1486.49	0.737
1496.07	0.551
1505.64	0.7539
1515.22	0.788
1524.79	0.847
1534.37	0.855
1543.95	0.856
1553.52	0.852
1563.1	0.849
1572.67	0.835
1582.25	0.831
1591.83	0.819
1601.4	0.769
1610.98	0.736
1620.55	0.76
1630.13	0.736
1639.71	0.719
1649.28	0.674
1658.86	0.597
1668.43	0.4731
1678.01	0.211
1687.59	0.2701
1697.16	0.495
1706.74	0.2761
1716.31	0.132
1725.89	0.329
1735.46	0.704
1745.04	0.767
1754.62	0.78
1764.19	0.69
1773.77	0.656
1783.34	0.819
1792.92	0.85
1802.5	0.866
1812.07	0.877
1821.65	0.878
1831.22	0.88
1840.8	0.881
1850.38	0.88
1859.95	0.88
1869.53	0.886
1879.1	0.891
1888.68	0.891
1898.26	0.891
1907.83	0.89
1917.41	0.892
1926.98	0.889
1936.56	0.889
1946.14	0.891
1955.71	0.892
1965.29	0.889
1974.86	0.889
1984.44	0.889
1994.01	0.891
2003.59	0.879
2013.17	0.879
2022.74	0.88
2032.32	0.88
2041.89	0.88
2051.47	0.883
2061.05	0.884
2070.62	0.884
2080.2	0.884
2089.77	0.886
2099.35	0.883
2108.93	0.8831
2118.5	0.884
2128.08	0.883
2137.65	0.885
2147.23	0.8869
2156.81	0.886
2166.38	0.881
2175.96	0.886
2185.53	0.8841
2195.11	0.8859
2204.69	0.887
2214.26	0.884
2223.84	0.885
2233.41	0.8832
2242.99	0.885
2252.56	0.8842
2262.14	0.883
2271.72	0.8852
2281.29	0.884
2290.87	0.881
2300.44	0.8832
2310.02	0.881
2319.6	0.881
2329.17	0.879
2338.75	0.881
2348.32	0.8795
2357.9	0.8783
2367.48	0.881
2377.05	0.8807
2386.63	0.881
2396.2	0.879
2405.78	0.878
2415.36	0.879
2424.93	0.8803
2434.51	0.88
2444.08	0.8807
2453.66	0.883
2463.23	0.874
2472.81	0.8804
2482.39	0.874
2491.96	0.877
2501.54	0.877
2511.11	0.877
2520.69	0.877
2530.27	0.875
2539.84	0.8746
2549.42	0.874
2558.99	0.874
2568.57	0.874
2578.15	0.8746
2587.72	0.874
2597.3	0.872
2606.87	0.872
2616.45	0.872
2626.03	0.872
2635.6	0.872
2645.18	0.872
2654.75	0.872
2664.33	0.872
2673.91	0.8715
2683.48	0.871
2693.06	0.871
2702.63	0.869
2712.21	0.869
2721.78	0.868
2731.36	0.867
2740.94	0.865
2750.51	0.8606
2760.09	0.8578
2769.66	0.865
2779.24	0.8642
2788.82	0.863
2798.39	0.862
2807.97	0.859
2817.54	0.857
2827.12	0.8496
2836.7	0.8423
2846.27	0.8216
2855.85	0.7976
2865.42	0.783
2875	0.761
2884.58	0.7706
2894.15	0.789
2903.73	0.7866
2913.3	0.7901
2922.88	0.7603
2932.46	0.772
2942.03	0.7687
2951.61	0.7711
2961.18	0.7865
2970.76	0.775
2980.33	0.7965
2989.91	0.844
2999.49	0.847
3009.06	0.846
3018.64	0.8348
3028.21	0.8412
3037.79	0.8432
3047.37	0.834
3056.94	0.8324
3066.52	0.848
3076.09	0.8428
3085.67	0.8443
3095.25	0.848
3104.82	0.848
3114.4	0.848
3123.97	0.848
3133.55	0.853
3143.13	0.8595
3152.7	0.843
3162.28	0.842
3171.85	0.84
3181.43	0.837
3191.01	0.8359
3200.58	0.8319
3210.16	0.8262
3219.73	0.826
3229.31	0.825
3238.88	0.823
3248.46	0.822
3258.04	0.818
3267.61	0.8149
3277.19	0.81
3286.76	0.807
3296.34	0.805
3305.92	0.8
3315.49	0.793
3325.07	0.789
3334.64	0.775
3344.22	0.773
3353.8	0.762
3363.37	0.757
3372.95	0.748
3382.52	0.737
3392.1	0.7301
3401.68	0.726
3411.25	0.7171
3420.83	0.717
3430.4	0.713
3439.98	0.712
3449.55	0.7071
3459.13	0.708
3468.71	0.7149
3478.28	0.7239
3487.86	0.7299
3497.43	0.736
3507.01	0.743
3516.59	0.752
3526.16	0.7557
3535.74	0.7665
3545.31	0.772
3554.89	0.7798
3564.47	0.7906
3574.04	0.7948
3583.62	0.8008
3593.19	0.8106
3602.77	0.8168
3612.35	0.8248
3621.92	0.8348
3631.5	0.8415
3641.07	0.8477
3650.65	0.8493
3660.23	0.852
3669.8	0.85
3679.38	0.8506
3688.95	0.8514
3698.53	0.8537
3708.1	0.8584
3717.68	0.857
3727.26	0.8576
3736.83	0.8597
3746.41	0.86
3755.98	0.857
3765.56	0.8597
3775.14	0.86
3784.71	0.86
3794.29	0.86
3803.86	0.861
3813.44	0.8581
