Infrared Spectrum: p-Toluenesulfonamide, N-[2-(N-ethyl-p-toluenesulfonamido)ethyl]-N-(2-hydroxyethyl)-
Formula: C20 H28 N2 O5 S2
CAS: 23563-47-5
State: SOLID (1 mg / 650 mg KBr DISC)
Class: COBLENTZ III
Instrument: PERKIN-ELMER 221 (GRATING)
Instrument parameters: FILTER AT 980 CM^-^1. GRATING 4000-1428 CM^-^1, NaCl PRISM 1428-650 CM^-^1
Resolution: 2
Origin: SOUTHERN RESEARCH INSTITUTE
1/CM	TRANSMITTANCE
596	0.8686
605	0.8692
614	0.8646
623	0.8335
632	0.6367
641	0.4039
650	0.6267
659	0.8552
668	0.8733
677	0.8445
686	0.6754
695	0.3285
704	0.6254
713	0.2903
722	0.2617
731	0.5627
740	0.8077
749	0.8289
758	0.8977
767	0.9039
776	0.9143
785	0.8746
794	0.8043
803	0.4734
812	0.5446
821	0.8152
830	0.8941
839	0.9042
848	0.9105
857	0.9081
866	0.9189
875	0.9278
884	0.9244
893	0.9073
902	0.8831
911	0.855
920	0.8064
929	0.6854
938	0.6075
947	0.6559
956	0.7356
965	0.6506
974	0.5124
983	0.4841
992	0.4416
1001	0.3723
1010	0.629
1019	0.6624
1028	0.7134
1037	0.7294
1046	0.689
1055	0.6391
1064	0.6233
1073	0.6139
1082	0.3338
1091	0.512
1100	0.5664
1109	0.5725
1118	0.6792
1127	0.5924
1136	0.3865
1145	0.1356
1154	0.1443
1163	0.5109
1172	0.6748
1181	0.675
1190	0.6022
1199	0.6558
1208	0.8621
1217	0.8708
1226	0.8676
1235	0.8632
1244	0.8625
1253	0.8416
1262	0.7978
1271	0.6622
1280	0.5711
1289	0.5922
1298	0.4123
1307	0.3878
1316	0.2272
1325	0.1921
1334	0.2392
1343	0.4593
1352	0.5942
1361	0.7093
1370	0.6947
1379	0.7298
1388	0.7474
1397	0.7516
1406	0.8225
1415	0.8167
1424	0.8172
1433	0.7833
1442	0.7263
1451	0.6283
1460	0.6637
1469	0.8421
1478	0.8588
1487	0.7292
1496	0.8848
1505	0.927
1514	0.9389
1523	0.9449
1532	0.9474
1541	0.9471
1550	0.9447
1559	0.9402
1568	0.9352
1577	0.9293
1586	0.8692
1595	0.6463
1604	0.9122
1613	0.9125
1622	0.9052
1631	0.9144
1640	0.9169
1649	0.9108
1658	0.9373
1667	0.9463
1676	0.9482
1685	0.9431
1694	0.9309
1703	0.9182
1712	0.9112
1721	0.9437
1730	0.9462
1739	0.9475
1748	0.9496
1757	0.9508
1766	0.952
1775	0.9526
1784	0.9513
1793	0.9499
1802	0.9514
1811	0.9553
1820	0.96
1829	0.959
1838	0.9606
1847	0.9598
1856	0.9573
1865	0.9542
1874	0.9507
1883	0.9427
1892	0.9323
1901	0.9212
1910	0.9209
1919	0.9315
1928	0.948
1937	0.9495
1946	0.9502
1955	0.9501
1964	0.9508
1973	0.9488
1982	0.9482
1991	0.9475
2000	0.9467
2009	0.9459
2018	0.945
2027	0.9441
2036	0.9432
2045	0.9419
2054	0.9404
2063	0.939
2072	0.9376
2081	0.9357
2090	0.9338
2099	0.933
2108	0.9318
2117	0.9308
2126	0.9302
2135	0.9281
2144	0.9259
2153	0.9266
2162	0.9276
2171	0.9286
2180	0.9296
2189	0.9306
2198	0.9316
2207	0.9314
2216	0.9305
2225	0.9293
2234	0.928
2243	0.9268
2252	0.9263
2261	0.9262
2270	0.9259
2279	0.9254
2288	0.9252
2297	0.9252
2306	0.9265
2315	0.9279
2324	0.9279
2333	0.9272
2342	0.9258
2351	0.924
2360	0.9229
2369	0.9218
2378	0.921
2387	0.9203
2396	0.9195
2405	0.9184
2414	0.9177
2423	0.9183
2432	0.9195
2441	0.9185
2450	0.9164
2459	0.9142
2468	0.9131
2477	0.9128
2486	0.9109
2495	0.9126
2504	0.9142
2513	0.9147
2522	0.9122
2531	0.911
2540	0.9086
2549	0.9056
2558	0.9046
2567	0.9041
2576	0.9047
2585	0.9049
2594	0.9048
2603	0.9051
2612	0.9052
2621	0.9049
2630	0.9045
2639	0.9026
2648	0.9006
2657	0.8991
2666	0.8977
2675	0.8968
2684	0.8965
2693	0.895
2702	0.8856
2711	0.8815
2720	0.8797
2729	0.8784
2738	0.8788
2747	0.8795
2756	0.8791
2765	0.8773
2774	0.8747
2783	0.8716
2792	0.8675
2801	0.8618
2810	0.8527
2819	0.8411
2828	0.8312
2837	0.8193
2846	0.7986
2855	0.7586
2864	0.7184
2873	0.7066
2882	0.7281
2891	0.7453
2900	0.7427
2909	0.728
2918	0.6755
2927	0.6705
2936	0.6801
2945	0.708
2954	0.7131
2963	0.7016
2972	0.6891
2981	0.7076
2990	0.7326
2999	0.8359
3008	0.8472
3017	0.8483
3026	0.8301
3035	0.8183
3044	0.8122
3053	0.8314
3062	0.8369
3071	0.8592
3080	0.8725
3089	0.8749
3098	0.8758
3107	0.8765
3116	0.8762
3125	0.8756
3134	0.8749
3143	0.8741
3152	0.8733
3161	0.8728
3170	0.8725
3179	0.8722
3188	0.8714
3197	0.8702
3206	0.8678
3215	0.8628
3224	0.859
3233	0.8578
3242	0.8594
3251	0.8612
3260	0.8595
3269	0.8569
3278	0.8539
3287	0.8508
3296	0.8463
3305	0.8414
3314	0.8359
3323	0.8294
3332	0.8221
3341	0.816
3350	0.8105
3359	0.8051
3368	0.8
3377	0.7959
3386	0.7928
3395	0.7861
3404	0.7684
3413	0.7609
3422	0.7545
3431	0.7455
3440	0.7368
3449	0.7287
3458	0.7237
3467	0.7152
3476	0.7032
3485	0.6889
3494	0.6645
3503	0.6322
3512	0.5836
3521	0.5338
3530	0.5211
3539	0.5292
3548	0.5541
3557	0.5945
3566	0.626
3575	0.6909
3584	0.7351
3593	0.7731
3602	0.8009
3611	0.843
3620	0.8591
3629	0.8767
3638	0.8795
3647	0.8806
3656	0.8807
3665	0.8807
3674	0.8806
3683	0.8807
3692	0.8811
3701	0.8813
3710	0.8816
3719	0.8818
3728	0.8817
3737	0.8814
3746	0.881
3755	0.8807
3764	0.8805
3773	0.8804
3782	0.8806
3791	0.8809
3800	0.8808
3809	0.8804
3818	0.8799
3827	0.8793
3836	0.8785
3845	0.8773
3854	0.8762
3863	0.8756
3872	0.8748
3881	0.8738
3890	0.8727
3899	0.8716
3908	0.8717
3917	0.8723
3926	0.8731
3935	0.8725
3944	0.872
3953	0.8717
3962	0.8718
3971	0.871
3980	0.87
3989	0.869
3998	0.868
