Infrared Spectrum: Thiosulfuric acid, S-[2-[(2-anilinoethyl)amino]ethyl]ester
Formula: C10 H16 N2 O3 S2
CAS: 23563-74-8
State: SOLID (1 mg / 650 mg KBr DISC)
Class: COBLENTZ III
Instrument: PERKIN-ELMER 521 (GRATING)
Instrument parameters: FILTERS AT 3130, 2475, 2000, 620. GRATING CHANGES: 2000, 630 CM^-^1
Sampling: TRANSMISSION
Resolution: 2
Origin: SOUTHERN RESEARCH INSTITUTE
1/CM	TRANSMITTANCE
253	0.2414
263	0.2823
273	0.3587
283	0.4309
293	0.4926
303	0.5251
313	0.5563
323	0.5907
333	0.6356
343	0.6666
353	0.7073
363	0.7282
373	0.7464
383	0.7646
393	0.7507
403	0.7498
413	0.7374
423	0.7759
433	0.7552
443	0.7257
453	0.6795
463	0.7175
473	0.7775
483	0.7923
493	0.7562
503	0.6114
513	0.7484
523	0.6338
533	0.5934
543	0.7224
553	0.7479
563	0.7376
573	0.7275
583	0.719
593	0.7105
603	0.693
613	0.573
623	0.3956
633	0.2228
643	0.3658
653	0.7217
663	0.7979
673	0.8236
683	0.7664
693	0.513
703	0.8578
713	0.8659
723	0.8589
733	0.8341
743	0.6244
753	0.3744
763	0.753
773	0.7886
783	0.7929
793	0.8016
803	0.8113
813	0.8361
823	0.8539
833	0.8536
843	0.8535
853	0.8821
863	0.8579
873	0.8011
883	0.8662
893	0.8254
903	0.8839
913	0.8822
923	0.8894
933	0.8843
943	0.8779
953	0.8557
963	0.8468
973	0.8114
983	0.7515
993	0.7222
1003	0.6678
1013	0.5111
1023	0.1629
1033	0.6776
1043	0.7799
1053	0.7627
1063	0.8154
1073	0.8222
1083	0.814
1093	0.7985
1103	0.802
1113	0.7591
1123	0.7239
1133	0.7456
1143	0.6737
1153	0.5869
1163	0.4712
1173	0.321
1183	0.1708
1193	0.2524
1203	0.383
1213	0.2964
1223	0.1824
1233	0.2859
1243	0.5333
1253	0.5672
1263	0.597
1273	0.6955
1283	0.6947
1293	0.8345
1303	0.8359
1313	0.7009
1323	0.6343
1333	0.8037
1343	0.8228
1353	0.8872
1363	0.8369
1373	0.8518
1383	0.8068
1393	0.7481
1403	0.7162
1413	0.5854
1423	0.7176
1433	0.7056
1443	0.6039
1453	0.5936
1463	0.7023
1473	0.721
1483	0.7782
1493	0.6977
1503	0.629
1513	0.5887
1523	0.5942
1533	0.7906
1543	0.8119
1553	0.8056
1563	0.7846
1573	0.7458
1583	0.6634
1593	0.6014
1603	0.3604
1613	0.6483
1623	0.7891
1633	0.838
1643	0.8657
1653	0.8831
1663	0.9021
1673	0.917
1683	0.9236
1693	0.9243
1703	0.9257
1713	0.9323
1723	0.9389
1733	0.9434
1743	0.9454
1753	0.9455
1763	0.9452
1773	0.9452
1783	0.9446
1793	0.9424
1803	0.9416
1813	0.9418
1823	0.94
1833	0.9323
1843	0.9343
1853	0.9381
1863	0.9397
1873	0.9393
1883	0.9383
1893	0.9368
1903	0.9335
1913	0.93
1923	0.927
1933	0.9263
1943	0.929
1953	0.932
1963	0.9331
1973	0.9334
1983	0.9322
1993	0.9289
2003	0.9243
2013	0.9194
2023	0.9166
2033	0.9157
2043	0.9163
2053	0.9168
2063	0.9171
2073	0.9173
2083	0.9168
2093	0.9158
2103	0.9149
2113	0.9138
2123	0.9125
2133	0.9112
2143	0.91
2153	0.9084
2163	0.9067
2173	0.905
2183	0.9035
2193	0.902
2203	0.9006
2213	0.9011
2223	0.9017
2233	0.9022
2243	0.9031
2253	0.9105
2263	0.9109
2273	0.9081
2283	0.9054
2293	0.9016
2303	0.897
2313	0.891
2323	0.8858
2333	0.8825
2343	0.8813
2353	0.88
2363	0.8789
2373	0.8779
2383	0.8769
2393	0.8742
2403	0.871
2413	0.8699
2423	0.8693
2433	0.8701
2443	0.8714
2453	0.872
2463	0.8722
2473	0.8711
2483	0.8697
2493	0.8676
2503	0.865
2513	0.8624
2523	0.8597
2533	0.8555
2543	0.8513
2553	0.8471
2563	0.8439
2573	0.8407
2583	0.839
2593	0.8374
2603	0.8361
2613	0.8344
2623	0.8317
2633	0.8291
2643	0.8279
2653	0.8264
2663	0.824
2673	0.8201
2683	0.8131
2693	0.8062
2703	0.7981
2713	0.7893
2723	0.7805
2733	0.7709
2743	0.7614
2753	0.7512
2763	0.7406
2773	0.7301
2783	0.7219
2793	0.7146
2803	0.6985
2813	0.6834
2823	0.6706
2833	0.6613
2843	0.6521
2853	0.6476
2863	0.6522
2873	0.6722
2883	0.6981
2893	0.6939
2903	0.6771
2913	0.671
2923	0.6587
2933	0.6653
2943	0.6672
2953	0.6321
2963	0.6183
2973	0.6219
2983	0.6144
2993	0.5887
3003	0.5645
3013	0.5444
3023	0.5308
3033	0.5435
3043	0.5474
3053	0.5501
3063	0.5582
3073	0.5758
3083	0.592
3093	0.6042
3103	0.6171
3113	0.6348
3123	0.6526
3133	0.6635
3143	0.6727
3153	0.6857
3163	0.6958
3173	0.7077
3183	0.7211
3193	0.7364
3203	0.7578
3213	0.7757
3223	0.787
3233	0.7944
3243	0.7987
3253	0.7995
3263	0.7972
3273	0.7933
3283	0.7848
3293	0.7714
3303	0.7544
3313	0.7342
3323	0.7038
3333	0.6527
3343	0.5632
3353	0.4943
3363	0.5481
3373	0.6299
3383	0.6832
3393	0.6886
3403	0.6893
3413	0.6893
3423	0.6908
3433	0.6931
3443	0.6966
3453	0.7005
3463	0.7046
3473	0.7099
3483	0.7152
3493	0.7206
3503	0.726
3513	0.7322
3523	0.7392
3533	0.7463
3543	0.7536
3553	0.7608
3563	0.7687
3573	0.7776
3583	0.7876
3593	0.7975
3603	0.8068
3613	0.8152
3623	0.8223
3633	0.8308
3643	0.8525
3653	0.8448
3663	0.854
3673	0.859
3683	0.8526
3693	0.8569
3703	0.8623
3713	0.8626
3723	0.8624
3733	0.8648
3743	0.8633
3753	0.856
3763	0.8521
3773	0.8613
3783	0.867
3793	0.8681
3803	0.8669
3813	0.8631
3823	0.8612
3833	0.8621
3843	0.8599
3853	0.8564
3863	0.8521
3873	0.8484
3883	0.8514
3893	0.8517
3903	0.8515
3913	0.8505
3923	0.8535
3933	0.856
3943	0.8562
3953	0.8553
3963	0.8548
3973	0.8541
3983	0.8518
3993	0.8509
