Infrared Spectrum: Aniline, N-isopropyl-, hydrochloride
Formula: C9 H14 Cl N
CAS: 23576-78-5
State: SOLID (KBr DISC, 0.9% WT.)
Class: COBLENTZ III
Instrument: PERKIN-ELMER 157
Sampling: TRANSMISSION
Resolution: 2
Origin: BRITISH PETROLEUM CO. LTD., ENGLAND
1/CM	TRANSMITTANCE
668	0.8919
677	0.8057
686	0.121
695	0.2476
704	0.9035
713	0.9381
722	0.8608
731	0.6479
740	0.0406
749	0.1617
758	0.7684
767	0.8625
776	0.9047
785	0.8949
794	0.8851
803	0.737
812	0.5434
821	0.6516
830	0.5303
839	0.898
848	0.9141
857	0.9093
866	0.8958
875	0.8831
884	0.836
893	0.75
902	0.5256
911	0.7466
920	0.7023
929	0.5763
938	0.489
947	0.4692
956	0.5884
965	0.7625
974	0.8522
983	0.8395
992	0.8006
1001	0.7667
1010	0.7792
1019	0.6607
1028	0.6539
1037	0.8281
1046	0.8165
1055	0.8024
1064	0.6847
1073	0.6105
1082	0.7733
1091	0.7015
1100	0.4949
1109	0.2565
1118	0.0442
1127	0.3332
1136	0.3895
1145	0.5013
1154	0.3045
1163	0.3888
1172	0.4818
1181	0.7115
1190	0.6423
1199	0.4133
1208	0.7712
1217	0.7887
1226	0.7787
1235	0.7632
1244	0.7614
1253	0.7536
1262	0.5989
1271	0.7421
1280	0.7417
1289	0.6892
1298	0.6373
1307	0.6552
1316	0.604
1325	0.5279
1334	0.4117
1343	0.5611
1352	0.5876
1361	0.4034
1370	0.32
1379	0.1842
1388	0.1835
1397	0.2321
1406	0.3386
1415	0.2369
1424	0.154
1433	0.2918
1442	0.2223
1451	0.1748
1460	0.1692
1469	0.2226
1478	0.0927
1487	0.0516
1496	0.3429
1505	0.5768
1514	0.5948
1523	0.6103
1532	0.6107
1541	0.5989
1550	0.505
1559	0.3638
1568	0.1
1577	0.1002
1586	0.2187
1595	0.3093
1604	0.5524
1613	0.5656
1622	0.5622
1631	0.5628
1640	0.5973
1649	0.6085
1658	0.6387
1667	0.6682
1676	0.6716
1685	0.6722
1694	0.6721
1703	0.6677
1712	0.6656
1721	0.6711
1730	0.6742
1739	0.667
1748	0.6844
1757	0.6891
1766	0.6901
1775	0.6764
1784	0.6472
1793	0.6377
1802	0.6614
1811	0.6581
1820	0.6431
1829	0.6399
1838	0.6349
1847	0.6261
1856	0.6033
1865	0.5711
1874	0.5406
1883	0.5747
1892	0.5977
1901	0.6195
1910	0.636
1919	0.6318
1928	0.5976
1937	0.5539
1946	0.5126
1955	0.5348
1964	0.5138
1973	0.5034
1982	0.544
1991	0.5613
2000	0.5219
2009	0.4529
2018	0.3844
2027	0.3795
2036	0.4294
2045	0.4788
2054	0.4903
2063	0.4575
2072	0.4396
2081	0.4966
2090	0.5582
2099	0.5808
2108	0.5829
2117	0.5785
2126	0.5745
2135	0.5687
2144	0.5617
2153	0.553
2162	0.5382
2171	0.5188
2180	0.508
2189	0.5009
2198	0.498
2207	0.4915
2216	0.4832
2225	0.4629
2234	0.4365
2243	0.4181
2252	0.3998
2261	0.3757
2270	0.3575
2279	0.3349
2288	0.3067
2297	0.2791
2306	0.2502
2315	0.2223
2324	0.2111
2333	0.1981
2342	0.1859
2351	0.1716
2360	0.144
2369	0.1262
2378	0.1105
2387	0.0937
2396	0.0845
2405	0.073
2414	0.0528
2423	0.0303
2432	0.0192
2441	0.0182
2450	0.0237
2459	0.0258
2468	0.026
2477	0.0268
2486	0.0309
2495	0.0361
2504	0.0383
2513	0.0382
2522	0.0364
2531	0.0335
2540	0.0277
2549	0.0213
2558	0.0149
2567	0.0093
2576	0.0052
2585	0.0037
2594	0.003
2603	0.0023
2612	0.002
2621	0.0017
2630	0.0015
2639	0.0014
2648	0.0015
2657	0.0018
2666	0.002
2675	0.0021
2684	0.0025
2693	0.0033
2702	0.0049
2711	0.0072
2720	0.01
2729	0.012
2738	0.0134
2747	0.0139
2756	0.0142
2765	0.0142
2774	0.0139
2783	0.0138
2792	0.0137
2801	0.0137
2810	0.0142
2819	0.0146
2828	0.015
2837	0.0157
2846	0.0166
2855	0.0187
2864	0.0221
2873	0.0252
2882	0.0258
2891	0.0261
2900	0.0263
2909	0.0268
2918	0.0286
2927	0.0455
2936	0.0631
2945	0.0806
2954	0.098
2963	0.1153
2972	0.1325
2981	0.137
2990	0.1353
2999	0.1335
3008	0.1342
3017	0.1396
3026	0.175
3035	0.2441
3044	0.2562
3053	0.2725
3062	0.2863
3071	0.2945
3080	0.2947
3089	0.2946
3098	0.2949
3107	0.2998
3116	0.3092
3125	0.3143
3134	0.3178
3143	0.3193
3152	0.3196
3161	0.3193
3170	0.319
3179	0.3185
3188	0.3174
3197	0.3161
3206	0.3138
3215	0.3103
3224	0.3062
3233	0.301
3242	0.2955
3251	0.29
3260	0.2843
3269	0.2785
3278	0.272
3287	0.2648
3296	0.2561
3305	0.2494
3314	0.243
3323	0.237
3332	0.232
3341	0.2272
3350	0.2245
3359	0.2244
3368	0.2242
3377	0.2246
3386	0.2258
3395	0.2279
3404	0.2306
3413	0.2328
3422	0.2349
3431	0.2367
3440	0.2407
3449	0.2466
3458	0.2546
3467	0.261
3476	0.2669
3485	0.2742
3494	0.2827
3503	0.2921
3512	0.3018
3521	0.3098
3530	0.3166
3539	0.3234
3548	0.3303
3557	0.3379
3566	0.3414
3575	0.3446
3584	0.3472
3593	0.3495
3602	0.3515
3611	0.3522
3620	0.3528
3629	0.3532
3638	0.3532
3647	0.3529
3656	0.3524
3665	0.3518
3674	0.3512
3683	0.3502
3692	0.349
3701	0.3476
3710	0.346
3719	0.344
3728	0.3411
3737	0.3375
3746	0.3336
3755	0.3295
3764	0.3251
3773	0.3217
3782	0.3185
3791	0.3162
3800	0.3154
3809	0.3152
3818	0.3149
3827	0.3145
3836	0.3136
3845	0.3098
3854	0.3062
3863	0.3043
3872	0.3026
3881	0.3014
3890	0.3002
3899	0.2994
3908	0.2988
3917	0.2983
3926	0.2979
3935	0.2977
3944	0.2975
3953	0.2973
3962	0.2971
3971	0.297
3980	0.2968
3989	0.2966
3998	0.2966
