Infrared Spectrum: METHYL-Beta-BENZYLAMINO PROPIONATE
Formula: C11 H15 N O2
CAS: 23574-01-8
State: LIQUID
Class: COBLENTZ
Instrument: PERKIN-ELMER
Sampling: TRANSMISSION
Path length: CAPILLARY
Resolution: 4
Origin: ABBOTT LABORATORIES - WASHBURN
MICROMETERS	TRANSMITTANCE
2.066	0.917
2.09942	0.922
2.13284	0.921
2.16626	0.919
2.19968	0.9265
2.2331	0.9242
2.26652	0.931
2.29994	0.9289
2.33336	0.9259
2.36678	0.926
2.4002	0.931
2.43362	0.927
2.46704	0.931
2.50046	0.927
2.53388	0.9243
2.5673	0.9292
2.60072	0.9374
2.63414	0.9392
2.66756	0.9438
2.70098	0.934
2.7344	0.936
2.76782	0.9309
2.80124	0.9217
2.83466	0.915
2.86808	0.905
2.9015	0.905
2.93492	0.895
2.96834	0.8891
3.00176	0.8918
3.03518	0.8529
3.0686	0.8532
3.10202	0.8903
3.13544	0.9003
3.16886	0.91
3.20228	0.9171
3.2357	0.9169
3.26912	0.8939
3.30254	0.8449
3.33596	0.7911
3.36938	0.7687
3.4028	0.7828
3.43622	0.6786
3.46964	0.6732
3.50306	0.6947
3.53648	0.7259
3.5699	0.647
3.60332	0.6774
3.63674	0.7399
3.67016	0.8681
3.70358	0.8901
3.737	0.902
3.77042	0.9099
3.80384	0.9243
3.83726	0.9292
3.87068	0.9311
3.9041	0.922
3.93752	0.9264
3.97094	0.9241
4.00436	0.9289
4.03778	0.9239
4.0712	0.921
4.10462	0.915
4.13804	0.915
4.17146	0.914
4.20488	0.907
4.2383	0.904
4.27172	0.909
4.30514	0.9073
4.33856	0.9099
4.37198	0.9
4.4054	0.8949
4.43882	0.894
4.47224	0.894
4.50566	0.89
4.53908	0.885
4.5725	0.884
4.60592	0.885
4.63934	0.882
4.67276	0.88
4.70618	0.8771
4.7396	0.8768
4.77302	0.873
4.80644	0.87
4.83986	0.868
4.87328	0.865
4.9067	0.862
4.94012	0.862
4.97354	0.865
5.00696	0.86
5.04038	0.8578
5.0738	0.86
5.10722	0.8472
5.14064	0.843
5.17406	0.8487
5.20748	0.858
5.2409	0.862
5.27432	0.858
5.30774	0.8529
5.34116	0.848
5.37458	0.8476
5.408	0.853
5.44142	0.858
5.47484	0.845
5.50826	0.8342
5.54168	0.826
5.5751	0.8192
5.60852	0.7987
5.64194	0.7725
5.67536	0.7034
5.70878	0.4852
5.7422	0.1428
5.77562	0.0848
5.80904	0.2682
5.84246	0.565
5.87588	0.6919
5.9093	0.7341
5.94272	0.7651
5.97614	0.7985
6.00956	0.813
6.04298	0.8162
6.0764	0.825
6.10982	0.826
6.14324	0.8276
6.17666	0.8268
6.21008	0.8101
6.2435	0.779
6.27692	0.8066
6.31034	0.8035
6.34376	0.8259
6.37718	0.831
6.4106	0.836
6.44402	0.8378
6.47744	0.833
6.51086	0.85
6.54428	0.8337
6.5777	0.8319
6.61112	0.8257
6.64454	0.8152
6.67796	0.7566
6.71138	0.6072
6.7448	0.7096
6.77822	0.6831
6.81164	0.6024
6.84506	0.5324
6.87848	0.4648
6.9119	0.3919
6.94532	0.448
6.97874	0.3732
7.01216	0.4783
7.04558	0.6423
7.079	0.6881
7.11242	0.6975
7.14584	0.7085
7.17926	0.725
7.21268	0.7107
7.2461	0.6864
7.27952	0.6578
7.31294	0.5695
7.34636	0.498
7.37978	0.4616
7.4132	0.5109
7.44662	0.5784
7.48004	0.6128
7.51346	0.6347
7.54688	0.6241
7.5803	0.615
7.61372	0.619
7.64714	0.6218
7.68056	0.6275
7.71398	0.638
7.7474	0.6397
7.78082	0.6229
7.81424	0.5942
7.84766	0.5497
7.88108	0.515
7.9145	0.4721
7.94792	0.4456
7.98134	0.436
8.01476	0.4336
8.04818	0.4422
8.0816	0.4359
8.11502	0.4279
8.14844	0.4161
8.18186	0.41
8.21528	0.4034
8.2487	0.3805
8.28212	0.3617
8.31554	0.3515
8.34896	0.3417
8.38238	0.337
8.4158	0.3326
8.44922	0.3486
8.48264	0.3322
8.51606	0.2604
8.54948	0.2194
8.5829	0.2174
8.61632	0.2819
8.64974	0.4246
8.68316	0.492
8.71658	0.5904
8.75	0.6395
8.78342	0.6604
8.81684	0.6339
8.85026	0.5837
8.88368	0.5346
8.9171	0.4792
8.95052	0.465
8.98394	0.4958
9.01736	0.5387
9.05078	0.5767
9.0842	0.6053
9.11762	0.618
9.15104	0.6109
9.18446	0.6081
9.21788	0.6229
9.2513	0.6614
9.28472	0.677
9.31814	0.6706
9.35156	0.665
9.38498	0.6768
9.4184	0.7027
9.45182	0.722
9.48524	0.7313
9.51866	0.741
9.55208	0.7489
9.5855	0.7569
9.61892	0.7525
9.65234	0.7426
9.68576	0.7069
9.71918	0.6054
9.7526	0.6004
9.78602	0.6147
9.81944	0.613
9.85286	0.6181
9.88628	0.6443
9.9197	0.686
9.95312	0.7113
9.98654	0.7234
10.02	0.7358
10.0534	0.744
10.0868	0.7339
10.1202	0.7203
10.1536	0.717
10.1871	0.7148
10.2205	0.7141
10.2539	0.719
10.2873	0.724
10.3207	0.7411
10.3542	0.7544
10.3876	0.7635
10.421	0.7751
10.4544	0.7758
10.4878	0.7865
10.5213	0.7882
10.5547	0.796
10.5881	0.796
10.6215	0.798
10.6549	0.8047
10.6884	0.8103
10.7218	0.8142
10.7552	0.816
10.7886	0.818
10.822	0.8165
10.8555	0.816
10.8889	0.811
10.9223	0.805
10.9557	0.794
10.9891	0.7897
11.0226	0.7925
11.056	0.794
11.0894	0.796
11.1228	0.798
11.1562	0.796
11.1897	0.7924
11.2231	0.7807
11.2565	0.771
11.2899	0.7643
11.3233	0.7626
11.3568	0.769
11.3902	0.773
11.4236	0.7763
11.457	0.786
11.4904	0.7868
11.5239	0.783
11.5573	0.7825
11.5907	0.776
11.6241	0.778
11.6575	0.778
11.691	0.7745
11.7244	0.7683
11.7578	0.7564
11.7912	0.7386
11.8246	0.7203
11.8581	0.7084
11.8915	0.6943
11.9249	0.6941
11.9583	0.697
11.9917	0.6999
12.0252	0.707
12.0586	0.7148
12.092	0.7202
12.1254	0.725
12.1588	0.7228
12.1923	0.7263
12.2257	0.727
12.2591	0.736
12.2925	0.731
12.3259	0.734
12.3594	0.739
12.3928	0.737
12.4262	0.7363
12.4596	0.7416
12.493	0.751
12.5265	0.7565
12.5599	0.769
12.5933	0.7674
12.6267	0.7538
12.6601	0.744
12.6936	0.7366
12.727	0.727
12.7604	0.7226
12.7938	0.717
12.8272	0.7118
12.8607	0.707
12.8941	0.7046
12.9275	0.6961
12.9609	0.6886
12.9943	0.6817
13.0278	0.6779
13.0612	0.6622
13.0946	0.637
13.128	0.6142
13.1614	0.5972
13.1949	0.5626
13.2283	0.5453
13.2617	0.5084
13.2951	0.4636
13.3285	0.4339
13.362	0.398
13.3954	0.3711
13.4288	0.3567
13.4622	0.3477
13.4956	0.3379
13.5291	0.3331
13.5625	0.327
13.5959	0.336
13.6293	0.3544
13.6627	0.3788
13.6962	0.4181
13.7296	0.4546
13.763	0.4863
13.7964	0.5254
13.8298	0.5448
13.8633	0.5649
13.8967	0.579
13.9301	0.5866
13.9635	0.588
13.9969	0.591
14.0304	0.5878
14.0638	0.573
14.0972	0.5525
14.1306	0.5283
14.164	0.4871
14.1975	0.4292
14.2309	0.3732
14.2643	0.3268
14.2977	0.2939
14.3311	0.2963
14.3646	0.355
14.398	0.4512
14.4314	0.5203
14.4648	0.5829
14.4982	0.6138
14.5317	0.6322
14.5651	0.6411
14.5985	0.6509
14.6319	0.657
14.6653	0.662
14.6988	0.6622
14.7322	0.665
14.7656	0.668
14.799	0.668
14.8324	0.6654
14.8659	0.6635
14.8993	0.665
14.9327	0.6647
14.9661	0.672
14.9995	0.663
15.033	0.6616
15.0664	0.657
15.0998	0.66
15.1332	0.6602
15.1666	0.658
15.2001	0.6593
15.2335	0.653
15.2669	0.6508
15.3003	0.6493
15.3337	0.6445
15.3672	0.643
