Infrared Spectrum: Adenine, 9-benzyl-2-fluoro-
Formula: C12 H10 N5 F
CAS: 2357-25-7
State: SOLID (KBr DISC)
Class: COBLENTZ III
Instrument: PERKIN-ELMER 21 (GRATING)
Instrument parameters: FILTER CHANGE ABOUT 1090 CM^-^1
Sampling: TRANSMISSION
Resolution: 2
Origin: SOUTHERN RESEARCH INSTITUTE
1/CM	TRANSMITTANCE
602.03	0.4708
611.078	0.4768
620.125	0.4863
629.173	0.4862
638.22	0.4628
647.268	0.459
656.315	0.4664
665.363	0.5102
674.411	0.5185
683.458	0.4724
692.506	0.3545
701.553	0.706
710.601	0.6938
719.649	0.2452
728.696	0.2111
737.744	0.4038
746.791	0.7001
755.839	0.735
764.886	0.6866
773.934	0.6026
782.982	0.7619
792.029	0.5122
801.077	0.825
810.124	0.8283
819.172	0.8117
828.22	0.849
837.267	0.8426
846.315	0.7902
855.362	0.6566
864.41	0.8471
873.457	0.8457
882.505	0.8348
891.553	0.8189
900.6	0.8087
909.648	0.8216
918.695	0.8204
927.743	0.8081
936.791	0.7719
945.838	0.7129
954.886	0.5999
963.933	0.5038
972.981	0.7531
982.028	0.7456
991.076	0.6093
1000.12	0.3859
1009.17	0.641
1018.22	0.7605
1027.27	0.7312
1036.31	0.697
1045.36	0.7327
1054.41	0.7111
1063.46	0.586
1072.5	0.4547
1081.55	0.5042
1090.6	0.7492
1099.65	0.7215
1108.69	0.6985
1117.74	0.7107
1126.79	0.709
1135.84	0.6978
1144.88	0.6729
1153.93	0.6138
1162.98	0.5612
1172.03	0.4236
1181.08	0.4371
1190.12	0.5811
1199.17	0.5563
1208.22	0.5395
1217.27	0.4044
1226.31	0.5711
1235.36	0.5526
1244.41	0.5117
1253.46	0.4492
1262.5	0.3161
1271.55	0.2557
1280.6	0.3274
1289.65	0.2801
1298.69	0.4384
1307.74	0.4278
1316.79	0.3932
1325.84	0.2801
1334.88	0.09
1343.93	0.0716
1352.98	0.0577
1362.03	0.0659
1371.07	0.1636
1380.12	0.1867
1389.17	0.2418
1398.22	0.3359
1407.26	0.5204
1416.31	0.543
1425.36	0.511
1434.41	0.4458
1443.46	0.4316
1452.5	0.541
1461.55	0.5849
1470.6	0.6147
1479.65	0.5438
1488.69	0.4904
1497.74	0.2893
1506.79	0.2954
1515.84	0.5245
1524.88	0.5748
1533.93	0.5989
1542.98	0.544
1552.03	0.5276
1561.07	0.4333
1570.12	0.3547
1579.17	0.0957
1588.22	0.0873
1597.26	0.0961
1606.31	0.0591
1615.36	0.1179
1624.41	0.2385
1633.45	0.3578
1642.5	0.3796
1651.55	0.1618
1660.6	0.0745
1669.64	0.1023
1678.69	0.2424
1687.74	0.3779
1696.79	0.4792
1705.84	0.5873
1714.88	0.7201
1723.93	0.7804
1732.98	0.8255
1742.03	0.8608
1751.07	0.8805
1760.12	0.8928
1769.17	0.9
1778.22	0.9052
1787.26	0.8994
1796.31	0.9004
1805.36	0.912
1814.41	0.9203
1823.45	0.9193
1832.5	0.9148
1841.55	0.9057
1850.6	0.9039
1859.64	0.9082
1868.69	0.911
1877.74	0.9076
1886.79	0.9061
1895.83	0.9037
1904.88	0.8968
1913.93	0.8921
1922.98	0.8898
1932.02	0.8865
1941.07	0.8778
1950.12	0.8718
1959.17	0.869
1968.22	0.8643
1977.26	0.8669
1986.31	0.8708
1995.36	0.8673
2004.41	0.8599
2013.45	0.8571
2022.5	0.8575
2031.55	0.862
2040.6	0.8626
2049.64	0.8601
2058.69	0.8573
2067.74	0.8572
2076.79	0.8556
2085.83	0.8532
2094.88	0.8484
2103.93	0.8404
2112.98	0.8336
2122.02	0.8322
2131.07	0.8319
2140.12	0.8311
2149.17	0.8294
2158.21	0.8266
2167.26	0.8236
2176.31	0.817
2185.36	0.8085
2194.4	0.8029
2203.45	0.797
2212.5	0.7957
2221.55	0.7903
2230.59	0.7892
2239.64	0.7888
2248.69	0.7873
2257.74	0.7846
2266.79	0.7801
2275.83	0.7728
2284.88	0.7681
2293.93	0.7681
2302.98	0.7638
2312.02	0.7551
2321.07	0.7505
2330.12	0.7483
2339.17	0.7467
2348.21	0.7461
2357.26	0.7446
2366.31	0.7419
2375.36	0.7416
2384.4	0.7398
2393.45	0.7369
2402.5	0.735
2411.55	0.7345
2420.59	0.7339
2429.64	0.7291
2438.69	0.7245
2447.74	0.7194
2456.78	0.715
2465.83	0.7107
2474.88	0.7073
2483.93	0.7047
2492.97	0.7019
2502.02	0.6987
2511.07	0.6955
2520.12	0.6923
2529.17	0.689
2538.21	0.6856
2547.26	0.6822
2556.31	0.6789
2565.36	0.6766
2574.4	0.6745
2583.45	0.6742
2592.5	0.6692
2601.55	0.6623
2610.59	0.6591
2619.64	0.6542
2628.69	0.649
2637.74	0.6447
2646.78	0.6413
2655.83	0.6395
2664.88	0.6361
2673.93	0.6262
2682.97	0.6171
2692.02	0.612
2701.07	0.6056
2710.12	0.5971
2719.16	0.5895
2728.21	0.5855
2737.26	0.5747
2746.31	0.5688
2755.35	0.5726
2764.4	0.5815
2773.45	0.5907
2782.5	0.5953
2791.55	0.5906
2800.59	0.5756
2809.64	0.5625
2818.69	0.5538
2827.74	0.5503
2836.78	0.5491
2845.83	0.5381
2854.88	0.5234
2863.93	0.5179
2872.97	0.5155
2882.02	0.5131
2891.07	0.5036
2900.12	0.4819
2909.16	0.4655
2918.21	0.4611
2927.26	0.4585
2936.31	0.457
2945.35	0.4516
2954.4	0.4388
2963.45	0.4299
2972.5	0.4066
2981.54	0.3897
2990.59	0.3743
2999.64	0.3561
3008.69	0.3384
3017.73	0.3318
3026.78	0.3287
3035.83	0.3198
3044.88	0.3073
3053.93	0.2952
3062.97	0.2891
3072.02	0.2606
3081.07	0.2325
3090.12	0.2051
3099.16	0.1789
3108.21	0.154
3117.26	0.1389
3126.31	0.1375
3135.35	0.1474
3144.4	0.1549
3153.45	0.188
3162.5	0.246
3171.54	0.2789
3180.59	0.2968
3189.64	0.3133
3198.69	0.3231
3207.73	0.3262
3216.78	0.3252
3225.83	0.3232
3234.88	0.3174
3243.92	0.3048
3252.97	0.279
3262.02	0.2493
3271.07	0.2188
3280.11	0.2004
3289.16	0.1906
3298.21	0.1876
3307.26	0.1932
3316.3	0.2116
3325.35	0.2423
3334.4	0.2763
3343.45	0.3327
3352.5	0.3984
3361.54	0.4798
3370.59	0.5294
3379.64	0.5702
3388.69	0.6033
3397.73	0.6215
3406.78	0.6257
3415.83	0.6386
3424.88	0.6442
3433.92	0.6468
3442.97	0.6488
3452.02	0.6511
3461.07	0.6554
3470.11	0.6588
3479.16	0.6621
3488.21	0.6652
3497.26	0.6674
3506.3	0.6689
3515.35	0.6706
3524.4	0.6716
3533.45	0.6747
3542.49	0.6787
3551.54	0.6815
3560.59	0.6857
3569.64	0.6899
3578.68	0.6868
3587.73	0.6939
3596.78	0.6936
3605.83	0.6946
3614.88	0.6991
3623.92	0.6889
3632.97	0.6882
3642.02	0.6875
3651.07	0.6871
3660.11	0.6874
3669.16	0.6879
3678.21	0.6877
3687.26	0.6874
3696.3	0.6865
3705.35	0.6779
3714.4	0.6736
3723.45	0.6752
3732.49	0.6756
3741.54	0.6748
3750.59	0.6739
3759.64	0.6727
3768.68	0.6706
3777.73	0.6685
3786.78	0.6644
3795.83	0.6598
3804.87	0.6542
3813.92	0.6491
3822.97	0.6467
3832.02	0.6448
3841.06	0.6434
3850.11	0.6421
3859.16	0.6419
3868.21	0.6417
3877.26	0.6411
3886.3	0.6395
3895.35	0.6362
3904.4	0.6331
3913.45	0.6314
3922.49	0.6306
3931.54	0.6307
3940.59	0.6313
3949.64	0.6328
3958.68	0.6369
3967.73	0.634
3976.78	0.6364
3985.83	0.6348
3994.87	0.6257
4003.92	0.6243
4012.97	0.6099
