Infrared Spectrum: 2,3,6-Trifluorobenzoic acid
Formula: C 7 H 3 F 3 O 2
CAS: 2358-29-4
State: gas
Origin: EPA-IR VAPOR PHASE LIBRARY
1/CM	ABSORBANCE
549.8	0.014461
559.445	0.024631
569.09	0.028631
578.734	0.021381
588.379	0.015121
598.024	0.016471
607.669	0.020221
617.313	0.017451
626.958	0.009391
636.603	0.004931
646.248	0.003741
655.893	0.003881
665.537	0.005751
675.182	0.010881
684.827	0.024441
694.472	0.020751
704.116	0.011801
713.761	0.014481
723.406	0.013371
733.051	0.012971
742.695	0.018351
752.34	0.016521
761.985	0.007971
771.63	0.006491
781.275	0.006711
790.919	0.007181
800.564	0.014521
810.209	0.029121
819.854	0.021041
829.498	0.008771
839.143	0.003921
848.788	0.003411
858.433	0.002811
868.078	0.002721
877.722	0.002801
887.367	0.002641
897.012	0.004181
906.657	0.007371
916.301	0.020321
925.946	0.034731
935.591	0.024091
945.236	0.006971
954.88	0.005061
964.525	0.005021
974.17	0.004641
983.815	0.003791
993.46	0.005401
1003.1	0.009011
1012.75	0.023021
1022.39	0.044731
1032.04	0.038901
1041.68	0.012161
1051.33	0.005801
1060.97	0.004981
1070.62	0.006341
1080.26	0.006741
1089.91	0.011141
1099.55	0.022241
1109.2	0.047131
1118.84	0.044981
1128.49	0.023991
1138.13	0.018991
1147.78	0.031741
1157.42	0.051611
1167.07	0.041351
1176.71	0.019021
1186.36	0.012871
1196	0.014891
1205.64	0.024771
1215.29	0.029451
1224.93	0.021861
1234.58	0.022521
1244.22	0.046431
1253.87	0.054001
1263.51	0.034971
1273.16	0.031411
1282.8	0.029271
1292.45	0.024781
1302.09	0.024111
1311.74	0.029031
1321.38	0.030491
1331.03	0.027221
1340.67	0.026051
1350.32	0.027801
1359.96	0.031391
1369.61	0.026471
1379.25	0.013701
1388.9	0.006061
1398.54	0.004141
1408.18	0.003591
1417.83	0.003651
1427.47	0.004151
1437.12	0.005361
1446.76	0.009691
1456.41	0.015751
1466.05	0.016961
1475.7	0.022101
1485.34	0.071451
1494.99	0.180471
1504.63	0.165571
1514.28	0.046531
1523.92	0.015121
1533.57	0.008861
1543.21	0.005691
1552.86	0.004591
1562.5	0.003811
1572.15	0.003731
1581.79	0.004191
1591.44	0.006661
1601.08	0.010691
1610.73	0.012871
1620.37	0.015171
1630.01	0.019951
1639.66	0.016921
1649.3	0.008201
1658.95	0.003991
1668.59	0.003011
1678.24	0.002971
1687.88	0.003271
1697.53	0.003231
1707.17	0.003631
1716.82	0.005311
1726.46	0.009161
1736.11	0.016831
1745.75	0.026651
1755.4	0.036191
1765.04	0.064881
1774.69	0.127291
1784.33	0.130141
1793.98	0.062461
1803.62	0.031161
1813.27	0.018191
1822.91	0.010701
1832.55	0.006701
1842.2	0.005751
1851.84	0.005731
1861.49	0.004681
1871.13	0.003261
1880.78	0.002581
1890.42	0.001871
1900.07	0.002011
1909.71	0.001861
1919.36	0.0016461
1929	0.0015663
1938.65	0.0015188
1948.29	0.0014896
1957.94	0.0016076
1967.58	0.0014032
1977.23	0.0011708
1986.87	0.0011883
1996.52	0.0011313
2006.16	0.0011996
2015.81	0.001033
2025.45	0.0014576
2035.1	0.0014863
2044.74	0.0017695
2054.38	0.0015122
2064.03	0.0014632
2073.67	0.001248
2083.32	0.0012424
2092.96	0.0013453
2102.61	0.0012009
2112.25	0.0009002
2121.9	0.0009634
2131.54	0.0010332
2141.19	0.0011487
2150.83	0.0010495
2160.48	0.0011881
2170.12	0.001282
2179.77	0.0013716
2189.41	0.0013785
2199.06	0.0012966
2208.7	0.0014229
2218.35	0.0015023
2227.99	0.0016416
2237.64	0.0016598
2247.28	0.0015684
2256.92	0.0015735
2266.57	0.0017531
2276.21	0.001831
2285.86	0.002121
2295.5	0.002571
2305.15	0.003871
2314.79	0.005141
2324.44	0.005791
2334.08	0.005551
2343.73	0.005151
2353.37	0.005921
2363.02	0.007391
2372.66	0.006201
2382.31	0.002961
2391.95	0.0013335
2401.6	0.0013086
2411.24	0.0013816
2420.89	0.0015767
2430.53	0.0013482
2440.18	0.0014709
2449.82	0.0014374
2459.47	0.001491
2469.11	0.0015833
2478.75	0.0013713
2488.4	0.0015601
2498.04	0.0012649
2507.69	0.0012558
2517.33	0.0014959
2526.98	0.0016585
2536.62	0.0013197
2546.27	0.0014089
2555.91	0.0014702
2565.56	0.0014225
2575.2	0.001144
2584.85	0.00085241
2594.49	0.0010956
2604.14	0.0010189
2613.78	0.0013138
2623.43	0.0010413
2633.07	0.0011485
2642.72	0.0009824
2652.36	0.000892
2662.01	0.0009812
2671.65	0.0010321
2681.29	0.001114
2690.94	0.0007349
2700.58	0.0009735
2710.23	0.00085151
2719.87	0.0011892
2729.52	0.0013568
2739.16	0.0011906
2748.81	0.00085597
2758.45	0.0010911
2768.1	0.0013053
2777.74	0.0011288
2787.39	0.0014207
2797.03	0.0012524
2806.68	0.0010011
2816.32	0.0012556
2825.97	0.001164
2835.61	0.0012353
2845.26	0.0010543
2854.9	0.0010435
2864.55	0.000909
2874.19	0.001137
2883.84	0.0013482
2893.48	0.0013998
2903.12	0.0013534
2912.77	0.0012765
2922.41	0.0011552
2932.06	0.0009835
2941.7	0.0011489
2951.35	0.0010072
2960.99	0.00082664
2970.64	0.0012255
2980.28	0.0009383
2989.93	0.00088515
2999.57	0.0012691
3009.22	0.0013953
3018.86	0.0010222
3028.51	0.0009649
3038.15	0.0009965
3047.8	0.00087543
3057.44	0.0011633
3067.09	0.0014511
3076.73	0.0012863
3086.38	0.0010443
3096.02	0.0010781
3105.67	0.0011152
3115.31	0.000764
3124.95	0.000518
3134.6	0.000532
3144.24	0.001176
3153.89	0.000546
3163.53	0.001063
3173.18	0.00081734
3182.82	0.0012426
3192.47	0.00078126
3202.11	0.0009102
3211.76	0.00084223
3221.4	0.0009964
3231.05	0.00081171
3240.69	0.00081712
3250.34	0.0008924
3259.98	0.0010754
3269.63	0.0010377
3279.27	0.0011822
3288.92	0.000797117
3298.56	0.000518
3308.21	0.000652
3317.85	0.0012448
3327.49	0.000393
3337.14	0.0009101
3346.78	0.000532
3356.43	0.000576
3366.07	0.0010591
3375.72	0.000659
3385.36	0.000584
3395.01	0.0010989
3404.65	0.00078163
3414.3	0.0009723
3423.94	0.0010726
3433.59	0.0010555
3443.23	0.000566
3452.88	0.000585
3462.52	0.0009272
3472.17	0.0011266
3481.81	0.0010376
3491.46	0.00062
3501.1	0.000804
3510.75	0.0013074
3520.39	0.0016894
3530.04	0.002381
3539.68	0.003051
3549.32	0.006591
3558.97	0.030451
3568.61	0.055981
3578.26	0.031341
3587.9	0.005151
3597.55	0.002801
3607.19	0.002501
3616.84	0.002611
3626.48	0.002241
3636.13	0.0015213
3645.77	0.0010564
3655.42	0.0015347
3665.06	0.0013107
3674.71	0.0011033
3684.35	0.00088032
3694	0.0008462
3703.64	0.00086141
3713.29	0.0010696
3722.93	0.00082615
3732.58	0.0007363
3742.22	0.001189
3751.86	0.00082607
3761.51	0.0007113
3771.15	0.000606
3780.8	0.0007156
3790.44	0.000973
3800.09	0.00038
3809.73	0.000498
3819.38	0.000931
3829.02	0.000673
3838.67	0.000274
3848.31	0.00087577
3857.96	0.000662
3867.6	0.0007619
3877.25	0.0007462
3886.89	0.000405
3896.54	0.0009602
3906.18	0.000503
3915.83	0.00085333
3925.47	0.000416
3935.12	0.0012496
3944.76	0.001013
3954.41	0.0009443
3964.05	0.0011253
3973.69	0.000592
3983.34	0.0007778
3992.98	0.0009674
