Infrared Spectrum: 4-Isoxazolecarboxylic acid, 3-(o-chlorophenyl)-5-methyl-
Formula: C11 H8 Cl N O3
CAS: 23598-72-3
State: SOLID (SPLIT MULL), FLUOROLUBE FOR 3800-1330 CM^-^1, NUJOL FOR 1330-450 CM^-^1
Melting point: 195 C
Class: COBLENTZ III
Instrument: DOW KBr FOREPRISM-GRATING
Instrument parameters: BLAZED AT 3.5, 12.0, 20.0 MICRON AND CHANGED AT 5.0, 7.5, 14.9 MICRON
Sampling: TRANSMISSION
Resolution: 2
Origin: DOW CHEMICAL COMPANY
1/CM	TRANSMITTANCE
3800	0.7761
3791	0.7808
3782	0.7831
3773	0.7768
3764	0.7753
3755	0.7761
3746	0.7785
3737	0.786
3728	0.7928
3719	0.7855
3710	0.7835
3701	0.783
3692	0.7818
3683	0.7811
3674	0.7868
3665	0.7903
3656	0.7925
3647	0.7853
3638	0.7911
3629	0.7903
3620	0.7872
3611	0.7865
3602	0.7824
3593	0.7834
3584	0.7876
3575	0.7737
3566	0.7711
3557	0.7865
3548	0.7887
3539	0.7892
3530	0.7899
3521	0.7905
3512	0.7911
3503	0.7915
3494	0.7919
3485	0.7924
3476	0.7925
3467	0.7925
3458	0.7919
3449	0.7903
3440	0.7878
3431	0.7835
3422	0.784
3413	0.7887
3404	0.7891
3395	0.7891
3386	0.789
3377	0.7889
3368	0.7886
3359	0.7881
3350	0.7872
3341	0.7851
3332	0.7828
3323	0.7799
3314	0.7765
3305	0.7726
3296	0.7688
3287	0.7646
3278	0.7578
3269	0.7517
3260	0.7421
3251	0.7304
3242	0.7165
3233	0.703
3224	0.6889
3215	0.675
3206	0.6618
3197	0.6485
3188	0.6352
3179	0.6193
3170	0.6043
3161	0.5901
3152	0.5759
3143	0.5614
3134	0.5478
3125	0.5402
3116	0.5409
3107	0.5403
3098	0.5304
3089	0.5169
3080	0.5001
3071	0.487
3062	0.4798
3053	0.4764
3044	0.4736
3035	0.4825
3026	0.4892
3017	0.4816
3008	0.4601
2999	0.454
2990	0.458
2981	0.4631
2972	0.4776
2963	0.4721
2954	0.4708
2945	0.48
2936	0.4931
2927	0.5095
2918	0.5269
2909	0.5445
2900	0.5585
2891	0.5721
2882	0.5828
2873	0.5935
2864	0.6036
2855	0.6126
2846	0.6215
2837	0.6305
2828	0.6393
2819	0.648
2810	0.6589
2801	0.6704
2792	0.678
2783	0.6833
2774	0.6867
2765	0.6903
2756	0.6939
2747	0.6993
2738	0.7065
2729	0.7144
2720	0.7211
2711	0.7221
2702	0.7138
2693	0.6999
2684	0.6881
2675	0.678
2666	0.6892
2657	0.719
2648	0.7328
2639	0.7368
2630	0.7243
2621	0.714
2612	0.7368
2603	0.733
2594	0.7257
2585	0.7297
2576	0.7408
2567	0.7493
2558	0.7545
2549	0.7548
2540	0.7485
2531	0.7411
2522	0.7498
2513	0.7606
2504	0.7706
2495	0.78
2486	0.7883
2477	0.7958
2468	0.8018
2459	0.8071
2450	0.8083
2441	0.8071
2432	0.8108
2423	0.8151
2414	0.8196
2405	0.8225
2396	0.8278
2387	0.8297
2378	0.8317
2369	0.8315
2360	0.8227
2351	0.8238
2342	0.8292
2333	0.8336
2324	0.8325
2315	0.8335
2306	0.8349
2297	0.8361
2288	0.8384
2279	0.8411
2270	0.8437
2261	0.8456
2252	0.8475
2243	0.8493
2234	0.851
2225	0.8527
2216	0.8541
2207	0.8552
2198	0.8563
2189	0.8574
2180	0.8586
2171	0.8597
2162	0.8607
2153	0.8616
2144	0.8628
2135	0.8643
2126	0.866
2117	0.868
2108	0.87
2099	0.8718
2090	0.874
2081	0.8767
2072	0.8786
2063	0.879
2054	0.8768
2045	0.8768
2036	0.8808
2027	0.8824
2018	0.8821
2009	0.8868
2000	0.8735
1991	0.8782
1982	0.8805
1973	0.8833
1964	0.877
1955	0.8742
1946	0.8782
1937	0.8785
1928	0.8662
1919	0.8764
1910	0.8811
1901	0.8768
1892	0.8754
1883	0.8775
1874	0.8795
1865	0.8804
1856	0.8801
1847	0.8787
1838	0.878
1829	0.8783
1820	0.8736
1811	0.8657
1802	0.8725
1793	0.8732
1784	0.8714
1775	0.8646
1766	0.8401
1757	0.7854
1748	0.658
1739	0.1153
1730	0.156
1721	0.5606
1712	0.6801
1703	0.6868
1694	0.6074
1685	0.5293
1676	0.6595
1667	0.7625
1658	0.7964
1649	0.8194
1640	0.8248
1631	0.8247
1622	0.8258
1613	0.8108
1604	0.4906
1595	0.5035
1586	0.7211
1577	0.7842
1568	0.7751
1559	0.8171
1550	0.8375
1541	0.8453
1532	0.8468
1523	0.8344
1514	0.7935
1505	0.8181
1496	0.8283
1487	0.8341
1478	0.7878
1469	0.5524
1460	0.2775
1451	0.2111
1442	0.4225
1433	0.4459
1424	0.6428
1415	0.7134
1406	0.7514
1397	0.739
1388	0.7271
1379	0.7815
1370	0.8165
1361	0.8204
1352	0.7928
1343	0.7592
1334	0.7521
1325	0.7008
1316	0.7011
1307	0.6062
1298	0.3812
1289	0.7215
1280	0.7164
1271	0.7599
1262	0.7206
1253	0.7262
1244	0.4117
1235	0.6803
1226	0.781
1217	0.8025
1208	0.8115
1199	0.8171
1190	0.8131
1181	0.784
1172	0.7607
1163	0.6908
1154	0.7494
1145	0.5266
1136	0.2985
1127	0.5991
1118	0.1875
1109	0.6785
1100	0.7631
1091	0.769
1082	0.7821
1073	0.7941
1064	0.7556
1055	0.7015
1046	0.7865
1037	0.7596
1028	0.776
1019	0.8084
1010	0.8161
1001	0.8156
992	0.7997
983	0.6832
974	0.7424
965	0.8032
956	0.8004
947	0.7257
938	0.7976
929	0.8021
920	0.8
911	0.7911
902	0.7406
893	0.7438
884	0.7655
875	0.7397
866	0.683
857	0.6471
848	0.6941
839	0.7308
830	0.7583
821	0.7743
812	0.7864
803	0.7947
794	0.7808
785	0.7954
776	0.6707
767	0.3276
758	0.6812
749	0.4325
740	0.5644
731	0.7611
722	0.4672
713	0.7678
704	0.8084
695	0.7771
686	0.7918
677	0.8205
668	0.8356
659	0.8448
650	0.8415
641	0.6584
632	0.8395
623	0.8413
614	0.8428
605	0.8432
596	0.8368
587	0.8228
578	0.8207
569	0.8331
560	0.83
551	0.8243
542	0.8182
533	0.811
524	0.8099
515	0.7987
506	0.8092
497	0.8058
488	0.8021
479	0.7968
470	0.7838
461	0.7757
