Infrared Spectrum: PHOSPHORAMIDIC ACID, BIS(2-HYDROXYETHYL)-, DIETHYL ESTER
Formula: C8 H20 N O5 P
CAS: 2359-07-1
Class: COBLENTZ
Instrument: Not specified, most likely a prism, grating, or hybrid spectrometer.
Sampling: TRANSMISSION
Path length: SMEAR
Resolution: 4
Origin: TENNESSEE EASTMAN COMPANY, RESEARCH LABORATORIES
MICROMETERS	TRANSMITTANCE
2.053	1
2.093	1
2.133	1
2.17301	0.998
2.21301	0.996
2.25301	0.976
2.29301	0.961
2.33301	0.971
2.37301	0.973
2.41302	0.974
2.45302	0.976
2.49302	0.973
2.53302	0.974
2.57302	0.978
2.61303	0.983
2.65303	0.986
2.69303	0.984
2.73303	0.983
2.77303	0.944
2.81303	0.817
2.85304	0.707
2.89304	0.484
2.93304	0.244
2.97304	0.182
3.01304	0.2
3.05305	0.235
3.09305	0.299
3.13305	0.391
3.17305	0.556
3.21305	0.625
3.25305	0.735
3.29306	0.785
3.33306	0.67
3.37306	0.304
3.41306	0.346
3.45306	0.387
3.49307	0.466
3.53307	0.677
3.57307	0.774
3.61307	0.826
3.65307	0.837
3.69307	0.847
3.73308	0.866
3.77308	0.891
3.81308	0.911
3.85308	0.923
3.89308	0.931
3.93309	0.941
3.97309	0.946
4.01309	0.949
4.05309	0.951
4.09309	0.949
4.13309	0.953
4.1731	0.964
4.2131	0.973
4.2531	0.983
4.2931	0.991
4.3331	0.996
4.37311	0.991
4.41311	0.988
4.45311	0.988
4.49311	0.986
4.53311	0.988
4.57311	0.986
4.61312	0.988
4.65312	0.986
4.69312	0.986
4.73312	0.983
4.77312	0.981
4.81313	0.983
4.85313	0.988
4.89313	0.989
4.93313	0.989
4.97313	0.989
5.01313	0.993
5.05314	0.989
5.09314	0.983
5.13314	0.981
5.17314	0.976
5.21314	0.976
5.25315	0.978
5.29315	0.976
5.33315	0.961
5.37315	0.959
5.41315	0.954
5.45315	0.954
5.49316	0.958
5.53316	0.959
5.57316	0.963
5.61316	0.961
5.65316	0.953
5.69317	0.897
5.73317	0.881
5.77317	0.879
5.81317	0.911
5.85317	0.934
5.89317	0.943
5.93318	0.943
5.97318	0.936
6.01318	0.926
6.05318	0.926
6.09318	0.926
6.13319	0.929
6.17319	0.934
6.21319	0.941
6.25319	0.949
6.29319	0.951
6.33319	0.951
6.3732	0.951
6.4132	0.949
6.4532	0.948
6.4932	0.941
6.5332	0.933
6.57321	0.924
6.61321	0.904
6.65321	0.854
6.69321	0.757
6.73321	0.627
6.77321	0.627
6.81322	0.602
6.85322	0.531
6.89322	0.471
6.93322	0.53
6.97322	0.586
7.01323	0.628
7.05323	0.65
7.09323	0.648
7.13323	0.538
7.17323	0.459
7.21323	0.494
7.25324	0.508
7.29324	0.456
7.33324	0.434
7.37324	0.476
7.41324	0.51
7.45325	0.57
7.49325	0.635
7.53325	0.658
7.57325	0.668
7.61325	0.667
7.65325	0.653
7.69326	0.596
7.73326	0.546
7.77326	0.55
7.81326	0.526
7.85326	0.481
7.89327	0.399
7.93327	0.285
7.97327	0.225
8.01327	0.15
8.05327	0.091
8.09327	0.068
8.13328	0.066
8.17328	0.085
8.21328	0.125
8.25328	0.2
8.29328	0.316
8.33329	0.408
8.37329	0.483
8.41329	0.53
8.45329	0.53
8.49329	0.453
8.53329	0.302
8.5733	0.254
8.6133	0.28
8.6533	0.329
8.6933	0.364
8.7333	0.401
8.77331	0.431
8.81331	0.481
8.85331	0.515
8.89331	0.531
8.93331	0.531
8.97331	0.496
9.01332	0.421
9.05332	0.349
9.09332	0.304
9.13332	0.272
9.17332	0.215
9.21333	0.157
9.25333	0.137
9.29333	0.118
9.33333	0.093
9.37333	0.073
9.41333	0.061
9.45334	0.058
9.49334	0.053
9.53334	0.053
9.57334	0.051
9.61334	0.045
9.65335	0.04
9.69335	0.038
9.73335	0.038
9.77335	0.038
9.81335	0.038
9.85335	0.041
9.89336	0.05
9.93336	0.081
9.97336	0.135
10.0134	0.214
10.0534	0.27
10.0934	0.28
10.1334	0.235
10.1734	0.17
10.2134	0.112
10.2534	0.086
10.2934	0.078
10.3334	0.078
10.3734	0.078
10.4134	0.095
10.4534	0.113
10.4934	0.14
10.5334	0.167
10.5734	0.195
10.6134	0.237
10.6534	0.294
10.6934	0.347
10.7334	0.401
10.7734	0.449
10.8134	0.518
10.8534	0.583
10.8934	0.643
10.9334	0.675
10.9734	0.695
11.0134	0.707
11.0534	0.72
11.0934	0.735
11.1334	0.759
11.1734	0.78
11.2134	0.801
11.2534	0.811
11.2934	0.817
11.3334	0.821
11.3734	0.822
11.4134	0.822
11.4534	0.811
11.4934	0.774
11.5334	0.737
11.5734	0.702
11.6134	0.68
11.6534	0.677
11.6934	0.678
11.7334	0.698
11.7734	0.732
11.8134	0.757
11.8534	0.77
11.8934	0.77
11.9334	0.754
11.9735	0.734
12.0135	0.698
12.0535	0.655
12.0935	0.612
12.1335	0.566
12.1735	0.523
12.2135	0.498
12.2535	0.473
12.2935	0.469
12.3335	0.463
12.3735	0.449
12.4135	0.424
12.4535	0.419
12.4935	0.413
12.5335	0.409
12.5735	0.408
12.6135	0.411
12.6535	0.414
12.6935	0.431
12.7335	0.459
12.7735	0.481
12.8135	0.515
12.8535	0.541
12.8935	0.571
12.9335	0.6
12.9735	0.628
13.0135	0.653
13.0535	0.673
13.0935	0.698
13.1335	0.709
13.1735	0.722
13.2135	0.73
13.2535	0.734
13.2935	0.735
13.3335	0.735
13.3735	0.734
13.4135	0.734
13.4535	0.729
13.4935	0.725
13.5335	0.715
13.5735	0.712
13.6135	0.707
13.6535	0.704
13.6935	0.7
13.7335	0.697
13.7735	0.693
13.8135	0.692
13.8535	0.688
13.8935	0.683
13.9335	0.68
13.9735	0.678
14.0135	0.677
14.0535	0.675
14.0935	0.673
14.1335	0.672
14.1736	0.668
14.2136	0.667
14.2536	0.663
14.2936	0.66
14.3336	0.657
14.3736	0.653
14.4136	0.648
14.4536	0.643
14.4936	0.638
14.5336	0.632
14.5736	0.627
14.6136	0.625
14.6536	0.62
14.6936	0.622
14.7336	0.618
14.7736	0.618
14.8136	0.617
14.8536	0.618
14.8936	0.618
14.9336	0.625
14.9736	0.633
15.0136	0.638
15.0536	0.637
15.0936	0.63
15.1336	0.627
15.1736	0.628
15.2136	0.632
15.2536	0.635
15.2936	0.635
15.3336	0.637
15.3736	0.64
15.4136	0.64
15.4536	0.642
15.4936	0.643
15.5336	0.643
15.5736	0.645
15.6136	0.648
15.6536	0.648
15.6936	0.648
15.7336	0.65
15.7736	0.652
15.8136	0.655
15.8536	0.657
15.8936	0.658
15.9336	0.662
15.9736	0.662
