Infrared Spectrum: N-(4'-Aminophenyl)piperidine
Formula: C 11 H 16 N 2
CAS: 2359-60-6
State: gas
Origin: EPA-IR VAPOR PHASE LIBRARY
1/CM	ABSORBANCE
549.9	0.01293
559.547	0.01146
569.193	0.01162
578.84	0.01049
588.486	0.00845
598.133	0.00864
607.779	0.00928
617.426	0.01056
627.072	0.01314
636.719	0.01776
646.365	0.02573
656.012	0.03062
665.658	0.02583
675.305	0.01964
684.951	0.01677
694.598	0.01721
704.245	0.01792
713.891	0.01593
723.538	0.01342
733.184	0.01107
742.831	0.00946
752.477	0.00874
762.124	0.00853
771.77	0.00905
781.417	0.01084
791.063	0.01493
800.71	0.02263
810.356	0.03341
820.003	0.03517
829.649	0.02362
839.296	0.01322
848.943	0.01058
858.589	0.01253
868.236	0.00923
877.882	0.00612
887.529	0.00584
897.175	0.00764
906.822	0.01373
916.468	0.02648
926.115	0.01844
935.761	0.00789
945.408	0.00529
955.054	0.0047
964.701	0.00491
974.347	0.00462
983.994	0.00397
993.64	0.00419
1003.29	0.00606
1012.93	0.00817
1022.58	0.01229
1032.23	0.01589
1041.87	0.01441
1051.52	0.00915
1061.17	0.00853
1070.81	0.0083
1080.46	0.00793
1090.11	0.00833
1099.75	0.01053
1109.4	0.01527
1119.05	0.02064
1128.69	0.02509
1138.34	0.01963
1147.99	0.00908
1157.63	0.00712
1167.28	0.00577
1176.92	0.00681
1186.57	0.0085
1196.22	0.01378
1205.86	0.0291
1215.51	0.0586
1225.16	0.08018
1234.8	0.069
1244.45	0.03983
1254.1	0.04792
1263.74	0.06823
1273.39	0.04791
1283.04	0.0223
1292.68	0.01292
1302.33	0.01065
1311.98	0.01316
1321.62	0.01863
1331.27	0.0172
1340.92	0.01222
1350.56	0.00973
1360.21	0.01067
1369.86	0.01544
1379.5	0.02359
1389.15	0.01761
1398.79	0.00914
1408.44	0.00793
1418.09	0.00786
1427.73	0.00974
1437.38	0.01454
1447.03	0.02157
1456.67	0.03087
1466.32	0.02034
1475.97	0.01505
1485.61	0.01927
1495.26	0.04407
1504.91	0.12305
1514.55	0.20572
1524.2	0.09876
1533.85	0.0281
1543.49	0.01405
1553.14	0.00957
1562.79	0.00772
1572.43	0.00739
1582.08	0.00831
1591.73	0.00998
1601.37	0.01428
1611.02	0.02559
1620.67	0.03374
1630.31	0.02766
1639.96	0.0169
1649.6	0.00998
1659.25	0.00574
1668.9	0.0042
1678.54	0.00341
1688.19	0.00301
1697.84	0.00292
1707.48	0.00291
1717.13	0.00317
1726.78	0.00302
1736.42	0.00278
1746.07	0.00232
1755.72	0.0019876
1765.36	0.0018421
1775.01	0.0017664
1784.66	0.0018496
1794.3	0.0019352
1803.95	0.0021199
1813.6	0.00247
1823.24	0.00294
1832.89	0.00348
1842.54	0.00355
1852.18	0.00311
1861.83	0.00268
1871.47	0.00231
1881.12	0.0020812
1890.77	0.0018923
1900.41	0.0018669
1910.06	0.0020744
1919.71	0.00232
1929.35	0.00243
1939	0.0022316
1948.65	0.0019047
1958.29	0.0017143
1967.94	0.0015338
1977.59	0.0014693
1987.23	0.0013414
1996.88	0.00130393
2006.53	0.00131152
2016.17	0.0015547
2025.82	0.0017959
2035.47	0.0020187
2045.11	0.0018543
2054.76	0.0016948
2064.41	0.0016393
2074.05	0.0016286
2083.7	0.0015337
2093.35	0.0014069
2102.99	0.0012263
2112.64	0.001069
2122.28	0.000996
2131.93	0.00099
2141.58	0.001011
2151.22	0.00097
2160.87	0.001071
2170.52	0.0011734
2180.16	0.001198
2189.81	0.0011451
2199.46	0.001066
2209.1	0.001111
2218.75	0.001119
2228.4	0.00125634
2238.04	0.00127513
2247.69	0.0012282
2257.34	0.00130405
2266.98	0.0014426
2276.63	0.0015697
2286.28	0.0014959
2295.92	0.0014323
2305.57	0.0015262
2315.22	0.0015772
2324.86	0.001661
2334.51	0.001576
2344.16	0.0014959
2353.8	0.0015152
2363.45	0.001506
2373.09	0.00131976
2382.74	0.0011482
2392.39	0.001139
2402.03	0.0011479
2411.68	0.0012223
2421.33	0.00124782
2430.97	0.001363
2440.62	0.0015459
2450.27	0.0016427
2459.91	0.0015273
2469.56	0.0013578
2479.21	0.0012649
2488.85	0.00132477
2498.5	0.0014373
2508.15	0.0015365
2517.79	0.0015949
2527.44	0.0015855
2537.09	0.0015923
2546.73	0.0015999
2556.38	0.001667
2566.03	0.0017163
2575.67	0.0020075
2585.32	0.00247
2594.96	0.00262
2604.61	0.00258
2614.26	0.0026
2623.9	0.00265
2633.55	0.00303
2643.2	0.00366
2652.84	0.00425
2662.49	0.0051
2672.14	0.00601
2681.78	0.00652
2691.43	0.00706
2701.08	0.00758
2710.72	0.00725
2720.37	0.00731
2730.02	0.00858
2739.66	0.01088
2749.31	0.01235
2758.96	0.01213
2768.6	0.0142
2778.25	0.02218
2787.9	0.03466
2797.54	0.04304
2807.19	0.03803
2816.84	0.02531
2826.48	0.0167
2836.13	0.01428
2845.77	0.01839
2855.42	0.03039
2865.07	0.04011
2874.71	0.02823
2884.36	0.0181
2894.01	0.01679
2903.65	0.02004
2913.3	0.03146
2922.95	0.06165
2932.59	0.10916
2942.24	0.15979
2951.89	0.09657
2961.53	0.0397
2971.18	0.02583
2980.83	0.01738
2990.47	0.01219
3000.12	0.01337
3009.77	0.01621
3019.41	0.01719
3029.06	0.02487
3038.71	0.02624
3048.35	0.01315
3058	0.00915
3067.64	0.0085
3077.29	0.00727
3086.94	0.00613
3096.58	0.00562
3106.23	0.00456
3115.88	0.00323
3125.52	0.00226
3135.17	0.0015944
3144.82	0.001067
3154.46	0.000709
3164.11	0.0007
3173.76	0.000666
3183.4	0.000721
3193.05	0.000861
3202.7	0.000717
3212.34	0.000866
3221.99	0.00065
3231.64	0.000618
3241.28	0.000538
3250.93	0.000686
3260.58	0.000566
3270.22	0.000502
3279.87	0.000444
3289.52	0.000374
3299.16	0.000257
3308.81	9e-05
3318.45	0.000248
3328.1	0.00021
3337.75	0
3347.39	0.00022
3357.04	0.0003
3366.69	0.000716
3376.33	0.001029
3385.98	0.0022304
3395.63	0.00447
3405.27	0.00488
3414.92	0.00273
3424.57	0.0015458
3434.21	0.00127562
3443.86	0.0013881
3453.51	0.0018298
3463.15	0.00256
3472.8	0.00342
3482.45	0.00375
3492.09	0.00304
3501.74	0.0019846
3511.39	0.00132899
3521.03	0.000895
3530.68	0.000685
3540.33	0.000616
3549.97	0.000402
3559.62	0.00023
3569.26	0.000417
3578.91	0.0002
3588.56	0.000412
3598.2	0.000405
3607.85	0.000465
3617.5	0.000379
3627.14	0.000474
3636.79	0.0004
3646.44	0.000485
3656.08	0.000749
3665.73	0.000558
3675.38	0.000614
3685.02	0.000546
3694.67	0.000574
3704.32	0.000655
3713.96	0.000627
3723.61	0.000649
3733.26	0.000747
3742.9	0.000828
3752.55	0.00072
3762.2	0.000747
3771.84	0.000646
3781.49	0.000658
3791.13	0.000733
3800.78	0.00073
3810.43	0.000679
3820.07	0.000708
3829.72	0.000689
3839.37	0.00076
3849.01	0.000865
3858.66	0.000754
3868.31	0.000915
3877.95	0.001076
3887.6	0.00127842
3897.25	0.0013394
3906.89	0.0013463
3916.54	0.00123779
3926.19	0.0011581
3935.83	0.001102
3945.48	0.0012233
3955.13	0.00124641
3964.77	0.0013432
3974.42	0.00130214
3984.07	0.00125416
3993.71	0.0012258
