Infrared Spectrum: 2-Propionylbenzoic acid
Formula: C 10 H 10 O 3
CAS: 2360-45-4
State: gas
Origin: EPA-IR VAPOR PHASE LIBRARY
1/CM	ABSORBANCE
549.8	0.00848
559.445	0.00997
569.09	0.01083
578.734	0.0087
588.379	0.00649
598.024	0.00459
607.669	0.00394
617.313	0.0046
626.958	0.01059
636.603	0.01231
646.248	0.0057
655.893	0.00403
665.537	0.00351
675.182	0.00493
684.827	0.00916
694.472	0.01148
704.116	0.01003
713.761	0.01045
723.406	0.0107
733.051	0.01109
742.695	0.0125
752.34	0.0187
761.985	0.02128
771.63	0.01185
781.275	0.00577
790.919	0.00365
800.564	0.00313
810.209	0.00283
819.854	0.00226
829.498	0.00177
839.143	0.00187
848.788	0.00185
858.433	0.00228
868.078	0.00212
877.722	0.00286
887.367	0.00319
897.012	0.00423
906.657	0.00785
916.301	0.01742
925.946	0.02478
935.591	0.02265
945.236	0.02026
954.88	0.01643
964.525	0.01118
974.17	0.00846
983.815	0.00729
993.46	0.00816
1003.1	0.01149
1012.75	0.01393
1022.39	0.01376
1032.04	0.01867
1041.68	0.02846
1051.33	0.03184
1060.97	0.02721
1070.62	0.02352
1080.26	0.02231
1089.91	0.02429
1099.55	0.02529
1109.2	0.02217
1118.84	0.0211
1128.49	0.02256
1138.13	0.01869
1147.78	0.01444
1157.42	0.01669
1167.07	0.02017
1176.71	0.02882
1186.36	0.03142
1196	0.02365
1205.64	0.02277
1215.29	0.0263
1224.93	0.02276
1234.58	0.01778
1244.22	0.01577
1253.87	0.01562
1263.51	0.01588
1273.16	0.01828
1282.8	0.02023
1292.45	0.0167
1302.09	0.01336
1311.74	0.01297
1321.38	0.01433
1331.03	0.01838
1340.67	0.02496
1350.32	0.02643
1359.96	0.02054
1369.61	0.01632
1379.25	0.01365
1388.9	0.01042
1398.54	0.00781
1408.18	0.00641
1417.83	0.00571
1427.47	0.00511
1437.12	0.00526
1446.76	0.00573
1456.41	0.00704
1466.05	0.00905
1475.7	0.00701
1485.34	0.00431
1494.99	0.00284
1504.63	0.00216
1514.28	0.00198
1523.92	0.00198
1533.57	0.00235
1543.21	0.003
1552.86	0.00379
1562.5	0.00474
1572.15	0.00531
1581.79	0.00441
1591.44	0.00402
1601.08	0.00438
1610.73	0.00377
1620.37	0.00292
1630.01	0.00235
1639.66	0.00224
1649.3	0.0021
1658.95	0.00224
1668.59	0.00288
1678.24	0.00435
1687.88	0.00679
1697.53	0.0107
1707.17	0.01948
1716.82	0.0296
1726.46	0.02486
1736.11	0.01858
1745.75	0.02877
1755.4	0.06523
1765.04	0.0685
1774.69	0.03439
1784.33	0.02962
1793.98	0.05106
1803.62	0.0807
1813.27	0.06275
1822.91	0.02497
1832.55	0.01182
1842.2	0.00691
1851.84	0.00449
1861.49	0.00316
1871.13	0.00215
1880.78	0.00158
1890.42	0.00135
1900.07	0.00125
1909.71	0.00127
1919.36	0.00141
1929	0.00177
1938.65	0.00184
1948.29	0.00145
1957.94	0.00164
1967.58	0.00177
1977.23	0.00138
1986.87	0.0008356
1996.52	0.0006531
2006.16	0.0005654
2015.81	0.0004305
2025.45	0.0004594
2035.1	0.000471
2044.74	0.0004876
2054.38	0.0004488
2064.03	0.0004035
2073.67	0.0004783
2083.32	0.0005207
2092.96	0.0005124
2102.61	0.0004172
2112.25	0.0004463
2121.9	0.0005487
2131.54	0.000494
2141.19	0.0004587
2150.83	0.0005218
2160.48	0.0005252
2170.12	0.0003851
2179.77	0.0004174
2189.41	0.0004107
2199.06	0.0003403
2208.7	0.0003633
2218.35	0.0003023
2227.99	0.0003084
2237.64	0.0003214
2247.28	0.0002931
2256.92	0.0003443
2266.57	0.0003562
2276.21	0.0004304
2285.86	0.0004257
2295.5	0.0005522
2305.15	0.0004647
2314.79	0.0005412
2324.44	0.0006927
2334.08	0.0007617
2343.73	0.0004839
2353.37	0.0004945
2363.02	0.0006579
2372.66	0.0005569
2382.31	0.0004405
2391.95	0.0003755
2401.6	0.000339
2411.24	0.0002844
2420.89	0.00033
2430.53	0.0003906
2440.18	0.0003314
2449.82	0.0003323
2459.47	0.0002205
2469.11	0.000171
2478.75	0.0001983
2488.4	0.0001827
2498.04	0.0001791
2507.69	0.0001837
2517.33	0.0001903
2526.98	0.0001619
2536.62	0.0001706
2546.27	0.0001188
2555.91	0.0002293
2565.56	0.0001682
2575.2	0.0001582
2584.85	0.0001058
2594.49	0.0001846
2604.14	0.0001586
2613.78	0.0001318
2623.43	0.0001646
2633.07	0.0001173
2642.72	0.0002029
2652.36	0.0001227
2662.01	0.00021
2671.65	0.0002532
2681.29	0.0002246
2690.94	0.0001895
2700.58	0.0001305
2710.23	0.0002025
2719.87	0.0002155
2729.52	0.000144
2739.16	0.0003826
2748.81	0.0003997
2758.45	0.0003709
2768.1	0.0002297
2777.74	0.0003698
2787.39	0.0004663
2797.03	0.0005227
2806.68	0.0006764
2816.32	0.0006887
2825.97	0.0007847
2835.61	0.0009146
2845.26	0.00111
2854.9	0.00148
2864.55	0.00199
2874.19	0.00248
2883.84	0.00393
2893.48	0.00552
2903.12	0.00524
2912.77	0.00466
2922.41	0.00482
2932.06	0.00629
2941.7	0.00971
2951.35	0.01149
2960.99	0.00846
2970.64	0.00804
2980.28	0.01264
2989.93	0.01251
2999.57	0.00703
3009.22	0.00362
3018.86	0.00265
3028.51	0.00249
3038.15	0.00278
3047.8	0.00341
3057.44	0.00445
3067.09	0.00635
3076.73	0.00795
3086.38	0.00612
3096.02	0.00357
3105.67	0.00204
3115.31	0.00129
3124.95	0.00104
3134.6	0.000788
3144.24	0.0007524
3153.89	0.0006619
3163.53	0.0006791
3173.18	0.0004851
3182.82	0.0005157
3192.47	0.000517
3202.11	0.0006506
3211.76	0.0007198
3221.4	0.0003909
3231.05	0.0004845
3240.69	0.0004267
3250.34	0.0003277
3259.98	0.0002902
3269.63	0.0005393
3279.27	0.0003639
3288.92	0.0004167
3298.56	0.0004863
3308.21	0.0003593
3317.85	0.0003724
3327.49	0.0004272
3337.14	0.0004244
3346.78	0.00054
3356.43	0.0004464
3366.07	0.0003318
3375.72	0.000466
3385.36	0.0005211
3395.01	0.0006498
3404.65	0.0008178
3414.3	0.0007779
3423.94	0.000859
3433.59	0.0007638
3443.23	0.0005163
3452.88	0.0004401
3462.52	0.0004985
3472.17	0.000392
3481.81	0.0005465
3491.46	0.0004821
3501.1	0.0009
3510.75	0.0009288
3520.39	0.0008178
3530.04	0.000868
3539.68	0.0008448
3549.32	0.00126
3558.97	0.00422
3568.61	0.01631
3578.26	0.02446
3587.9	0.01271
3597.55	0.00334
3607.19	0.00227
3616.84	0.00482
3626.48	0.00847
3636.13	0.00416
3645.77	0.00114
3655.42	0.0006284
3665.06	0.0004316
3674.71	0.000478
3684.35	0.0001602
3694	0.0001843
3703.64	0.0004136
3713.29	0.0003116
3722.93	0.0002355
3732.58	0.0003885
3742.22	0.0002434
3751.86	0.0003674
3761.51	0.0004007
3771.15	0.0001746
3780.8	0.0002532
3790.44	0.0002006
3800.09	0.0003451
3809.73	1.579e-05
3819.38	8.841e-05
3829.02	0.0003537
3838.67	0.0002627
3848.31	0.0003592
3857.96	0.0003886
3867.6	0.0003252
3877.25	0.0002749
3886.89	0.0004595
3896.54	0.0002194
3906.18	0.0001808
3915.83	8.195e-05
3925.47	0.00028
3935.12	0.0002008
3944.76	0.0002602
3954.41	0.0002675
3964.05	0.0001719
3973.69	0.0003319
3983.34	0.0003293
3992.98	0.0002584
