Infrared Spectrum: Thiophene-2-carboxylic hydrazide
Formula: C 5 H 6 N 2 O S
CAS: 2361-27-5
State: gas
Origin: EPA-IR VAPOR PHASE LIBRARY
1/CM	ABSORBANCE
549.9	0.01219
559.547	0.01229
569.193	0.01202
578.84	0.01098
588.486	0.01009
598.133	0.0094
607.779	0.00918
617.426	0.00934
627.072	0.0103
636.719	0.01031
646.365	0.00948
656.012	0.00919
665.658	0.0096
675.305	0.01091
684.951	0.01869
694.598	0.03894
704.245	0.07108
713.891	0.06077
723.538	0.04074
733.184	0.02447
742.831	0.02156
752.477	0.01762
762.124	0.01352
771.77	0.01053
781.417	0.01001
791.063	0.00967
800.71	0.00966
810.356	0.01057
820.003	0.01421
829.649	0.02274
839.296	0.02951
848.943	0.03244
858.589	0.02622
868.236	0.02049
877.882	0.01777
887.529	0.02139
897.175	0.02858
906.822	0.03987
916.468	0.05273
926.115	0.05497
935.761	0.03996
945.408	0.02166
955.054	0.01309
964.701	0.01028
974.347	0.00841
983.994	0.00659
993.64	0.00551
1003.29	0.0053
1012.93	0.00648
1022.58	0.0096
1032.23	0.01391
1041.87	0.01382
1051.52	0.00964
1061.17	0.00856
1070.81	0.00801
1080.46	0.00762
1090.11	0.00674
1099.75	0.00563
1109.4	0.00549
1119.05	0.00585
1128.69	0.005
1138.34	0.00502
1147.99	0.00604
1157.63	0.0075
1167.28	0.0083
1176.92	0.00836
1186.57	0.00796
1196.22	0.00768
1205.86	0.00854
1215.51	0.01076
1225.16	0.01438
1234.8	0.02089
1244.45	0.02939
1254.1	0.05339
1263.74	0.09932
1273.39	0.11094
1283.04	0.06553
1292.68	0.02568
1302.33	0.01511
1311.98	0.01243
1321.62	0.01055
1331.27	0.00914
1340.92	0.01009
1350.56	0.01386
1360.21	0.01419
1369.86	0.00981
1379.5	0.00952
1389.15	0.01079
1398.79	0.01503
1408.44	0.0227
1418.09	0.03176
1427.73	0.04473
1437.38	0.07196
1447.03	0.10802
1456.67	0.10826
1466.32	0.07441
1475.97	0.05118
1485.61	0.03776
1495.26	0.02729
1504.91	0.02409
1514.55	0.03596
1524.2	0.05419
1533.85	0.04978
1543.49	0.02546
1553.14	0.01531
1562.79	0.01188
1572.43	0.01008
1582.08	0.01034
1591.73	0.01261
1601.37	0.01643
1611.02	0.02234
1620.67	0.03246
1630.31	0.0435
1639.96	0.04283
1649.6	0.03573
1659.25	0.02952
1668.9	0.03447
1678.54	0.06241
1688.19	0.12861
1697.84	0.15248
1707.48	0.11851
1717.13	0.05489
1726.78	0.02672
1736.42	0.01914
1746.07	0.01484
1755.72	0.01131
1765.36	0.00824
1775.01	0.00614
1784.66	0.00561
1794.3	0.00526
1803.95	0.0049
1813.6	0.00454
1823.24	0.0044
1832.89	0.00417
1842.54	0.00376
1852.18	0.0030353
1861.83	0.002664
1871.47	0.0026058
1881.12	0.0026159
1890.77	0.0027053
1900.41	0.002554
1910.06	0.0024304
1919.71	0.00227482
1929.35	0.0021377
1939	0.001981
1948.65	0.001865
1958.29	0.001823
1967.94	0.001764
1977.59	0.001834
1987.23	0.001852
1996.88	0.001848
2006.53	0.001792
2016.17	0.001758
2025.82	0.001644
2035.47	0.001632
2045.11	0.001706
2054.76	0.001732
2064.41	0.001748
2074.05	0.001779
2083.7	0.001785
2093.35	0.001837
2102.99	0.001836
2112.64	0.001726
2122.28	0.001577
2131.93	0.001537
2141.58	0.001547
2151.22	0.001513
2160.87	0.001599
2170.52	0.00171
2180.16	0.00162
2189.81	0.001466
2199.46	0.00141
2209.1	0.001381
2218.75	0.001394
2228.4	0.00142
2238.04	0.001439
2247.69	0.001401
2257.34	0.001426
2266.98	0.001485
2276.63	0.001541
2286.28	0.001543
2295.92	0.001451
2305.57	0.001472
2315.22	0.001405
2324.86	0.001397
2334.51	0.001343
2344.16	0.00131
2353.8	0.001308
2363.45	0.001297
2373.09	0.001342
2382.74	0.001246
2392.39	0.00121
2402.03	0.0012
2411.68	0.001228
2421.33	0.001229
2430.97	0.001309
2440.62	0.001339
2450.27	0.001427
2459.91	0.001463
2469.56	0.001421
2479.21	0.001435
2488.85	0.001411
2498.5	0.001421
2508.15	0.001373
2517.79	0.001344
2527.44	0.001332
2537.09	0.001245
2546.73	0.001235
2556.38	0.00116
2566.03	0.00115
2575.67	0.00111
2585.32	0.00099
2594.96	0.00097
2604.61	0.00098
2614.26	0.001
2623.9	0.00094
2633.55	0.00093
2643.2	0.00089
2652.84	0.00088
2662.49	0.00107
2672.14	0.00112
2681.78	0.001231
2691.43	0.001318
2701.08	0.00119
2710.72	0.00101
2720.37	0.0011
2730.02	0.00107
2739.66	0.00106
2749.31	0.00104
2758.96	0.00086
2768.6	0.00083
2778.25	0.00086
2787.9	0.00089
2797.54	0.00101
2807.19	0.00096
2816.84	0.00094
2826.48	0.00101
2836.13	0.00085
2845.77	0.00074
2855.42	0.00054
2865.07	0.00049
2874.71	0.0004
2884.36	0.00018
2894.01	0.00023
2903.65	0.0002
2913.3	0.00016
2922.95	0.00014
2932.59	0.00025
2942.24	0.00026
2951.89	0.00027
2961.53	0.00024
2971.18	0.00017
2980.83	0.00011
2990.47	0.0001
3000.12	0.00016
3009.77	0.00024
3019.41	0.00033
3029.06	0.00046
3038.71	0.00056
3048.35	0.0008
3058	0.0012
3067.64	0.0023941
3077.29	0.00466
3086.94	0.00564
3096.58	0.00396
3106.23	0.00229701
3115.88	0.001486
3125.52	0.00093
3135.17	0.00033
3144.82	0.00031
3154.46	0.00035
3164.11	0.00048
3173.76	0.00072
3183.4	0.00116
3193.05	0.001421
3202.7	0.001722
3212.34	0.001611
3221.99	0.001381
3231.64	0.00115
3241.28	0.00117
3250.93	0.00089
3260.58	0.00082
3270.22	0.00087
3279.87	0.00101
3289.52	0.001339
3299.16	0.001726
3308.81	0.001776
3318.45	0.001868
3328.1	0.001837
3337.75	0.0023598
3347.39	0.0028421
3357.04	0.0030297
3366.69	0.00332
3376.33	0.00369
3385.98	0.00383
3395.63	0.00343
3405.27	0.00355
3414.92	0.0046
3424.57	0.00651
3434.21	0.00973
3443.86	0.01453
3453.51	0.0183
3463.15	0.0193
3472.8	0.01581
3482.45	0.01135
3492.09	0.00758
3501.74	0.00509
3511.39	0.00356
3521.03	0.0026717
3530.68	0.0021972
3540.33	0.0021285
3549.97	0.001993
3559.62	0.001963
3569.26	0.0021343
3578.91	0.0026993
3588.56	0.0025679
3598.2	0.001972
3607.85	0.001847
3617.5	0.001768
3627.14	0.001841
3636.79	0.001674
3646.44	0.001686
3656.08	0.001707
3665.73	0.001616
3675.38	0.001807
3685.02	0.001647
3694.67	0.001601
3704.32	0.001649
3713.96	0.001763
3723.61	0.001837
3733.26	0.00185
3742.9	0.002003
3752.55	0.001834
3762.2	0.001859
3771.84	0.001833
3781.49	0.001816
3791.13	0.001719
3800.78	0.001815
3810.43	0.00179
3820.07	0.001855
3829.72	0.001838
3839.37	0.0021928
3849.01	0.001984
3858.66	0.001749
3868.31	0.001725
3877.95	0.001594
3887.6	0.001536
3897.25	0.001518
3906.89	0.001507
3916.54	0.001631
3926.19	0.001684
3935.83	0.001888
3945.48	0.001958
3955.13	0.002054
3964.77	0.00177
3974.42	0.001719
3984.07	0.001529
3993.71	0.001525
