Infrared Spectrum: 2,4,5-Trichloroacetanilide
Formula: C 8 H 6 Cl 3 N O
CAS: 23627-24-9
State: gas
Origin: EPA-IR VAPOR PHASE LIBRARY
1/CM	ABSORBANCE
549.8	0.010902
559.445	0.004532
569.09	0.002732
578.735	0.002022
588.38	0.001962
598.025	0.002742
607.67	0.002332
617.315	0.003142
626.96	0.003422
636.605	0.001902
646.251	0.0014477
655.896	0.001642
665.541	0.0015775
675.186	0.002472
684.831	0.006282
694.476	0.002512
704.121	0.0010037
713.766	0.0014877
723.411	0.0014654
733.056	0.0011135
742.701	0.0011241
752.346	0.0012257
761.991	0.002112
771.636	0.005072
781.281	0.005402
790.926	0.002362
800.571	0.0012795
810.216	0.0012315
819.861	0.0011232
829.507	0.001064
839.152	0.0011352
848.797	0.0009674
858.442	0.001712
868.087	0.002872
877.732	0.006112
887.377	0.007162
897.022	0.004142
906.667	0.003102
916.312	0.003712
925.957	0.002662
935.602	0.0014514
945.247	0.0015492
954.892	0.002262
964.537	0.002112
974.182	0.002242
983.827	0.002942
993.472	0.004552
1003.12	0.004552
1012.76	0.002972
1022.41	0.002242
1032.05	0.002362
1041.7	0.002852
1051.34	0.004492
1060.99	0.010302
1070.63	0.018082
1080.28	0.012142
1089.92	0.004962
1099.57	0.002952
1109.21	0.002972
1118.86	0.006162
1128.5	0.011692
1138.15	0.008612
1147.79	0.003252
1157.44	0.002012
1167.08	0.002132
1176.73	0.003072
1186.37	0.004642
1196.02	0.006722
1205.66	0.013542
1215.31	0.029572
1224.95	0.024372
1234.6	0.012062
1244.24	0.008022
1253.89	0.007572
1263.53	0.010092
1273.18	0.012352
1282.82	0.007482
1292.47	0.004802
1302.11	0.003652
1311.76	0.003122
1321.4	0.003412
1331.05	0.004212
1340.69	0.006742
1350.34	0.016732
1359.98	0.038042
1369.63	0.036872
1379.27	0.015452
1388.92	0.007002
1398.56	0.005392
1408.21	0.004752
1417.85	0.005072
1427.5	0.006972
1437.14	0.012222
1446.79	0.018322
1456.43	0.019092
1466.08	0.025022
1475.73	0.039542
1485.37	0.062372
1495.02	0.068552
1504.66	0.039532
1514.31	0.013702
1523.95	0.008012
1533.6	0.006922
1543.24	0.007982
1552.89	0.011812
1562.53	0.022132
1572.18	0.024962
1581.82	0.014312
1591.47	0.010042
1601.11	0.004672
1610.76	0.003072
1620.4	0.002602
1630.05	0.002282
1639.69	0.002042
1649.34	0.001862
1658.98	0.001782
1668.63	0.002112
1678.27	0.002812
1687.92	0.003402
1697.56	0.004422
1707.21	0.006232
1716.85	0.011162
1726.5	0.023532
1736.14	0.034222
1745.79	0.022922
1755.43	0.008842
1765.08	0.006382
1774.72	0.004722
1784.37	0.002902
1794.01	0.002242
1803.66	0.001752
1813.3	0.0014574
1822.95	0.0012848
1832.59	0.0012354
1842.24	0.0011251
1851.88	0.0010356
1861.53	0.0010794
1871.17	0.0009267
1880.82	0.0008756
1890.46	0.0008923
1900.11	0.0008829
1909.75	0.0008181
1919.4	0.0008364
1929.04	0.00071555
1938.69	0.000597
1948.33	0.00065884
1957.98	0.0005967
1967.62	0.00068044
1977.27	0.00071361
1986.91	0.0007435
1996.56	0.00071359
2006.2	0.00069212
2015.85	0.000624008
2025.49	0.00064511
2035.14	0.00064713
2044.78	0.00068277
2054.43	0.000522
2064.07	0.000551
2073.72	0.000496
2083.36	0.000485
2093.01	0.0005438
2102.65	0.0005221
2112.3	0.0006014
2121.94	0.00066114
2131.59	0.00071274
2141.23	0.00063785
2150.88	0.0006952
2160.52	0.0007389
2170.17	0.0007276
2179.81	0.0007729
2189.46	0.00066914
2199.1	0.0005869
2208.75	0.0005981
2218.39	0.0005513
2228.04	0.0005566
2237.68	0.000498
2247.33	0.0005639
2256.97	0.0005454
2266.62	0.00063849
2276.26	0.00067806
2285.91	0.0006406
2295.55	0.000505
2305.2	0.000527
2314.84	0.0006057
2324.49	0.00066716
2334.13	0.00064109
2343.78	0.00068456
2353.42	0.00063412
2363.07	0.00067513
2372.72	0.00063535
2382.36	0.0005652
2392.01	0.00064592
2401.65	0.00064046
2411.3	0.00071346
2420.94	0.0005426
2430.59	0.000458
2440.23	0.0005959
2449.88	0.000419
2459.52	0.000482
2469.17	0.0005394
2478.81	0.0005282
2488.46	0.0005525
2498.1	0.000579
2507.75	0.00066503
2517.39	0.000507
2527.04	0.00033
2536.68	0.000481
2546.33	0.000411
2555.97	0.0004
2565.62	0.000501
2575.26	0.0005841
2584.91	0.0005331
2594.55	0.000449
2604.2	0.000624451
2613.84	0.000471
2623.49	0.00041
2633.13	0.000364
2642.78	0.000492
2652.42	0.000375
2662.07	0.000492
2671.71	0.0005468
2681.36	0.000465
2691	0.00063939
2700.65	0.000463
2710.29	0.000513
2719.94	0.00066895
2729.58	0.0005325
2739.23	0.000435
2748.87	0.000422
2758.52	0.000398
2768.16	0.000465
2777.81	0.000431
2787.45	0.0005238
2797.1	0.000391
2806.74	0.000285
2816.39	0.000405
2826.03	0.0005388
2835.68	0.0006045
2845.32	0.0006006
2854.97	0.00066947
2864.61	0.000482
2874.26	0.000443
2883.9	0.000434
2893.55	0.00047
2903.19	0.0006033
2912.84	0.0006021
2922.48	0.00065939
2932.13	0.001037
2941.77	0.0012645
2951.42	0.0009487
2961.06	0.000627138
2970.71	0.0008234
2980.35	0.0007343
2990	0.0007425
2999.64	0.0005815
3009.29	0.000759
3018.93	0.0008832
3028.58	0.0011494
3038.22	0.0008666
3047.87	0.00065633
3057.51	0.0007242
3067.16	0.00064077
3076.8	0.00068732
3086.45	0.000739
3096.09	0.0010173
3105.74	0.001632
3115.38	0.002792
3125.03	0.0014557
3134.67	0.000672
3144.32	0.00063312
3153.96	0.0005687
3163.61	0.000508
3173.25	0.000292
3182.9	0.000317
3192.54	0.000382
3202.19	9.2e-05
3211.83	0.000349
3221.48	0.0005251
3231.12	0.000262
3240.77	0.000258
3250.41	0.000202
3260.06	0.000305
3269.7	0.000177
3279.35	0.000326
3289	0
3298.64	0.000376
3308.29	0.000281
3317.93	0.000158
3327.58	0.000277
3337.22	0.000318
3346.87	0.000204
3356.51	0.00048
3366.16	0.000188
3375.8	0.000283
3385.45	0.0005977
3395.09	0.0007261
3404.74	0.0010331
3414.38	0.001682
3424.03	0.002252
3433.67	0.005482
3443.32	0.010302
3452.96	0.005582
3462.61	0.001576
3472.25	0.0007653
3481.9	0.0008926
3491.54	0.000464
3501.19	0.000519
3510.83	0.000345
3520.48	0.00027
3530.12	0.00026
3539.77	0.000435
3549.41	0.000445
3559.06	0.000367
3568.7	0.000279
3578.35	5.1e-05
3587.99	0.000319
3597.64	0.000364
3607.28	0.000514
3616.93	0.000311
3626.57	0.000235
3636.22	0.000477
3645.86	0.000422
3655.51	0.000393
3665.15	0.000349
3674.8	0.0005968
3684.44	0.00039
3694.09	0.000341
3703.73	0.000429
3713.38	0.000517
3723.02	0.000326
3732.67	0.000385
3742.31	0.000412
3751.96	0.000418
3761.6	0.00032
3771.25	0.000336
3780.89	0.000467
3790.54	0.00022
3800.18	0.000405
3809.83	0.000247
3819.47	0.000165
3829.12	0.00047
3838.76	0.00042
3848.41	0.000277
3858.05	0.000268
3867.7	0.000367
3877.34	0.000229
3886.99	0.000422
3896.63	0.0005801
3906.28	0.000292
3915.92	0.000211
3925.57	0.00021
3935.21	0.000412
3944.86	0.000196
3954.5	0.000319
3964.15	0.000468
3973.79	0.000446
3983.44	0.000434
3993.08	0.000281
