Infrared Spectrum: 4-Bromo-2-methylphenol
Formula: C 7 H 7 Br O
CAS: 2362-12-1
State: gas
Origin: EPA-IR VAPOR PHASE LIBRARY
1/CM	ABSORBANCE
549.8	0.02413
559.445	0.0197
569.09	0.00688
578.734	0.00528
588.379	0.0054
598.024	0.00457
607.669	0.00492
617.313	0.01667
626.958	0.04123
636.603	0.02606
646.248	0.006
655.893	0.00327
665.537	0.0017
675.182	0.00133
684.827	0.00157
694.472	0.00137
704.116	0.00183
713.761	0.00187
723.406	0.00222
733.051	0.00245
742.695	0.00638
752.34	0.01888
761.985	0.01921
771.63	0.0083
781.275	0.01188
790.919	0.02591
800.564	0.0432
810.209	0.04052
819.854	0.02395
829.498	0.01105
839.143	0.00524
848.788	0.0068
858.433	0.01858
868.078	0.0344
877.722	0.02602
887.367	0.00911
897.012	0.00354
906.657	0.00259
916.301	0.00252
925.946	0.00259
935.591	0.00292
945.236	0.00283
954.88	0.00322
964.525	0.00483
974.17	0.00689
983.815	0.01081
993.46	0.01168
1003.1	0.00757
1012.75	0.00465
1022.39	0.00433
1032.04	0.00535
1041.68	0.0059
1051.33	0.00578
1060.97	0.00729
1070.62	0.01338
1080.26	0.02497
1089.91	0.04945
1099.55	0.07212
1109.2	0.09716
1118.84	0.07368
1128.49	0.02947
1138.13	0.0288
1147.78	0.03495
1157.42	0.10598
1167.07	0.10906
1176.71	0.04332
1186.36	0.05969
1196	0.12292
1205.64	0.15244
1215.29	0.07653
1224.93	0.03125
1234.58	0.03181
1244.22	0.06003
1253.87	0.10429
1263.51	0.08948
1273.16	0.03779
1282.8	0.01477
1292.45	0.01938
1302.09	0.04366
1311.74	0.06034
1321.38	0.03537
1331.03	0.01083
1340.67	0.0066
1350.32	0.00835
1359.96	0.00801
1369.61	0.00678
1379.25	0.01104
1388.9	0.02468
1398.54	0.0435
1408.18	0.04076
1417.83	0.02308
1427.47	0.01561
1437.12	0.01445
1446.76	0.01656
1456.41	0.02474
1466.05	0.04716
1475.7	0.09424
1485.34	0.18475
1494.99	0.16952
1504.63	0.07011
1514.28	0.02719
1523.92	0.01148
1533.57	0.00779
1543.21	0.00647
1552.86	0.00597
1562.5	0.0074
1572.15	0.01122
1581.79	0.01393
1591.44	0.01262
1601.08	0.01013
1610.73	0.0072
1620.37	0.00502
1630.01	0.00382
1639.66	0.00273
1649.3	0.00191
1658.95	0.00175
1668.59	0.00179
1678.24	0.0019
1687.88	0.00189
1697.53	0.0022
1707.17	0.00295
1716.82	0.00334
1726.46	0.00376
1736.11	0.00449
1745.75	0.00416
1755.4	0.00254
1765.04	0.00142
1774.69	0.0011394
1784.33	0.00125
1793.98	0.0015
1803.62	0.00144
1813.27	0.00143
1822.91	0.00206
1832.55	0.00297
1842.2	0.00312
1851.84	0.00262
1861.49	0.00279
1871.13	0.00299
1880.78	0.00235
1890.42	0.00149
1900.07	0.0011537
1909.71	0.0010273
1919.36	0.0008316
1929	0.0007627
1938.65	0.0008792
1948.29	0.0008435
1957.94	0.0007936
1967.58	0.0007504
1977.23	0.0006964
1986.87	0.0007712
1996.52	0.0011624
2006.16	0.00167
2015.81	0.00189
2025.45	0.00155
2035.1	0.0009292
2044.74	0.0004826
2054.38	0.0005503
2064.03	0.0004879
2073.67	0.0005479
2083.32	0.0005095
2092.96	0.000407
2102.61	0.000445
2112.25	0.0005311
2121.9	0.0009298
2131.54	0.0009631
2141.19	0.0007765
2150.83	0.0006647
2160.48	0.000426
2170.12	0.0004499
2179.77	0.0004597
2189.41	0.0003578
2199.06	0.0004627
2208.7	0.0005565
2218.35	0.0007017
2227.99	0.0010232
2237.64	0.00124
2247.28	0.00125
2256.92	0.0011589
2266.57	0.0011497
2276.21	0.0008428
2285.86	0.0007605
2295.5	0.0007067
2305.15	0.0009704
2314.79	0.00126
2324.44	0.00136
2334.08	0.00135
2343.73	0.0014
2353.37	0.00144
2363.02	0.00164
2372.66	0.00146
2382.31	0.00131
2391.95	0.00131
2401.6	0.00143
2411.24	0.00184
2420.89	0.00173
2430.53	0.00158
2440.18	0.00138
2449.82	0.00171
2459.47	0.00195
2469.11	0.00198
2478.75	0.00167
2488.4	0.00144
2498.04	0.00169
2507.69	0.00205
2517.33	0.00172
2526.98	0.00122
2536.62	0.0008852
2546.27	0.0008153
2555.91	0.0007127
2565.56	0.0007343
2575.2	0.0007533
2584.85	0.0008657
2594.49	0.0009185
2604.14	0.0009993
2613.78	0.0009118
2623.43	0.0006868
2633.07	0.0005901
2642.72	0.0007188
2652.36	0.0007505
2662.01	0.0006137
2671.65	0.0005832
2681.29	0.0006299
2690.94	0.0006163
2700.58	0.000692
2710.23	0.0006381
2719.87	0.000843
2729.52	0.0008999
2739.16	0.00144
2748.81	0.00171
2758.45	0.00139
2768.1	0.001002
2777.74	0.0009726
2787.39	0.0010701
2797.03	0.00128
2806.68	0.00138
2816.32	0.00178
2825.97	0.00208
2835.61	0.00265
2845.26	0.00392
2854.9	0.00642
2864.55	0.00951
2874.19	0.0123
2883.84	0.01292
2893.48	0.0119
2903.12	0.01192
2912.77	0.01431
2922.41	0.01857
2932.06	0.02374
2941.7	0.02333
2951.35	0.01712
2960.99	0.01253
2970.64	0.01181
2980.28	0.01219
2989.93	0.01168
2999.57	0.0092
3009.22	0.00825
3018.86	0.01171
3028.51	0.01412
3038.15	0.01119
3047.8	0.00938
3057.44	0.00937
3067.09	0.00871
3076.73	0.00757
3086.38	0.00648
3096.02	0.00511
3105.67	0.00391
3115.31	0.00232
3124.95	0.0010906
3134.6	0.0007818
3144.24	0.0006738
3153.89	0.0005356
3163.53	0.0004648
3173.18	0.0003139
3182.82	0.0003352
3192.47	0.0003784
3202.11	0.0004204
3211.76	0.0003557
3221.4	0.00016866
3231.05	0.0002749
3240.69	6.3e-05
3250.34	0.0003226
3259.98	9.45e-05
3269.63	0.00013
3279.27	0.00026319
3288.92	0.000176459
3298.56	0.0004191
3308.21	0.0002958
3317.85	0.0005124
3327.49	0.0005167
3337.14	0.0006927
3346.78	0.0008755
3356.43	0.00117
3366.07	0.00122
3375.72	0.00163
3385.36	0.00129
3395.01	0.00128
3404.65	0.0011679
3414.3	0.00118
3423.94	0.0009522
3433.59	0.0006316
3443.23	0.0007954
3452.88	0.000558
3462.52	0.0006007
3472.17	0.0008178
3481.81	0.0006798
3491.46	0.0005773
3501.1	0.0002657
3510.75	0.0005102
3520.39	0.000383
3530.04	0.000446
3539.68	0.0005162
3549.32	0.0006092
3558.97	0.0004666
3568.61	0.0005653
3578.26	0.0005852
3587.9	0.0008907
3597.55	0.00133
3607.19	0.00224
3616.84	0.00399
3626.48	0.01035
3636.13	0.03243
3645.77	0.08898
3655.42	0.09677
3665.06	0.03291
3674.71	0.00752
3684.35	0.00266
3694	0.00121
3703.64	0.0007208
3713.29	0.0006072
3722.93	0.0004725
3732.58	0.0005051
3742.22	0.0006332
3751.86	0.0006895
3761.51	0.0008362
3771.15	0.0005188
3780.8	0.0004828
3790.44	0.0005696
3800.09	0.0008274
3809.73	0.0007878
3819.38	0.000743
3829.02	0.000916
3838.67	0.0009576
3848.31	0.0010544
3857.96	0.0008845
3867.6	0.0012
3877.25	0.001047
3886.89	0.0010741
3896.54	0.0009318
3906.18	0.0008869
3915.83	0.00134
3925.47	0.00143
3935.12	0.00151
3944.76	0.00135
3954.41	0.00154
3964.05	0.00122
3973.69	0.0008962
3983.34	0.0006501
3992.98	0.0004593
