Infrared Spectrum: 2-Phenylcyclohexanol
Formula: C 12 H 16 O
CAS: 2362-61-0
State: gas
Instrument: HP-GC/MS/IRD
Origin: NIST Mass Spectrometry Data Center
1/CM	ABSORBANCE
550	0.0018192
562	0.0017856
574	0.0019788
586	0.0020388
598	0.002286
610	0.0021396
622	0.0019368
634	0.0016752
646	0.0014904
658	0.001494
670	0.0015084
682	0.0024996
694	0.0033708
706	0.0020232
718	0.0015336
730	0.001626
742	0.0017592
754	0.00153
766	0.000924
778	0.0007224
790	0.000462
802	0.0002664
814	6e-05
826	1.2e-05
838	8.16e-05
850	0.0001476
862	0.000192
874	0.0001992
886	0.0001992
898	0.0002604
910	0.0002784
922	0.000384
934	0.0004296
946	0.0005568
958	0.0009936
970	0.0012468
982	0.0013212
994	0.001578
1006	0.0016884
1018	0.0013188
1030	0.0013584
1042	0.0015804
1054	0.0018684
1066	0.0021804
1078	0.0026268
1090	0.0030048
1102	0.0043848
1114	0.0073368
1126	0.0078336
1138	0.0051012
1150	0.0037092
1162	0.0032148
1174	0.0035208
1186	0.003606
1198	0.0032796
1210	0.003858
1222	0.0041196
1234	0.003396
1246	0.0031452
1258	0.00321
1270	0.0033984
1282	0.0028284
1294	0.0022272
1306	0.0018108
1318	0.001866
1330	0.0017952
1342	0.0020604
1354	0.002598
1366	0.0027072
1378	0.0023808
1390	0.0017616
1402	0.0011736
1414	0.0010716
1426	0.001146
1438	0.0014544
1450	0.0021528
1462	0.0012528
1474	0.000546
1486	0.0002412
1498	0.0001224
1510	9e-05
1522	6.36e-05
1534	4.8e-05
1546	4.44e-05
1558	0.0001164
1570	0.0003312
1582	0.000606
1594	0.0007284
1606	0.0005724
1618	0.0002772
1630	0.000204
1642	0.0002796
1654	0.0004968
1666	0.0008856
1678	0.0018528
1690	0.005364
1702	0.0088452
1714	0.0047172
1726	0.0023508
1738	0.0028872
1750	0.0047052
1762	0.0077772
1774	0.0117468
1786	0.009678
1798	0.005496
1810	0.0028368
1822	0.0012036
1834	0.0005772
1846	0.0003348
1858	0.00021
1870	0.0001656
1882	0.0001524
1894	0.0001788
1906	0.0001836
1918	0.0001284
1930	0.0001068
1942	0.0001212
1954	0.000174
1966	0.0001656
1978	8.04e-05
1990	3.84e-05
2002	2.64e-05
2014	3.48e-05
2026	3.84e-05
2038	1.32e-05
2050	4.08e-05
2062	1.08e-05
2074	6e-06
2086	1.08e-05
2098	2.64e-05
2110	3e-05
2122	2.76e-05
2134	2.64e-05
2146	1.68e-05
2158	2.16e-05
2170	3.6e-05
2182	2.76e-05
2194	4.68e-05
2206	3.36e-05
2218	5.28e-05
2230	3.36e-05
2242	3.12e-05
2254	3.84e-05
2266	3.36e-05
2278	4.32e-05
2290	4.8e-05
2302	5.04e-05
2314	0.0001044
2326	8.88e-05
2338	7.08e-05
2350	5.52e-05
2362	5.04e-05
2374	7.32e-05
2386	3.96e-05
2398	5.64e-05
2410	2.88e-05
2422	3.96e-05
2434	4.68e-05
2446	2.88e-05
2458	1.68e-05
2470	3.48e-05
2482	4.08e-05
2494	3.96e-05
2506	2.64e-05
2518	2.16e-05
2530	3e-05
2542	1.44e-05
2554	6e-06
2566	2.04e-05
2578	1.2e-05
2590	3.36e-05
2602	2.52e-05
2614	2.04e-05
2626	2.88e-05
2638	4.32e-05
2650	4.8e-05
2662	4.68e-05
2674	3.84e-05
2686	1.92e-05
2698	3.24e-05
2710	2.04e-05
2722	4.68e-05
2734	8.64e-05
2746	6.6e-05
2758	5.88e-05
2770	6.96e-05
2782	7.8e-05
2794	0.0001008
2806	0.0001188
2818	0.0002088
2830	0.000216
2842	0.0003132
2854	0.000528
2866	0.0009384
2878	0.0011784
2890	0.0011412
2902	0.0013164
2914	0.0016584
2926	0.0022428
2938	0.0028512
2950	0.0031656
2962	0.0029364
2974	0.0020892
2986	0.0011232
2998	0.0006408
3010	0.0004476
3022	0.0005736
3034	0.000798
3046	0.0008472
3058	0.001032
3070	0.0017952
3082	0.0013548
3094	0.0010596
3106	0.0005916
3118	0.0002376
3130	0.0001248
3142	0.0001296
3154	0.000102
3166	6.48e-05
3178	6.72e-05
3190	5.04e-05
3202	6.72e-05
3214	7.8e-05
3226	6.84e-05
3238	4.2e-05
3250	2.64e-05
3262	4.2e-05
3274	5.52e-05
3286	6.36e-05
3298	3.6e-05
3310	6.24e-05
3322	2.76e-05
3334	4.92e-05
3346	0.0001032
3358	0.0001032
3370	0.0001656
3382	0.000162
3394	0.0001716
3406	0.00012
3418	0.0001032
3430	5.52e-05
3442	9.36e-05
3454	0.0001152
3466	0.0001248
3478	0.0001152
3490	0.0001308
3502	0.0001428
3514	0.0001872
3526	0.00027
3538	0.0003684
3550	0.0005952
3562	0.0016248
3574	0.0048792
3586	0.0019452
3598	0.0005508
3610	0.0002472
3622	0.0001584
3634	8.64e-05
3646	0.0001164
3658	4.32e-05
3670	5.64e-05
3682	6.12e-05
3694	5.88e-05
3706	3e-05
3718	3.96e-05
3730	5.16e-05
3742	2.76e-05
3754	3.84e-05
3766	4.8e-05
3778	3.6e-05
3790	4.32e-05
3802	4.68e-05
3814	1.44e-05
3826	1.2e-05
3838	0
