Infrared Spectrum: 5-Methyl-4-nitroso-2-isopropylphenol
Formula: C 10 H 13 N O 2
CAS: 2364-54-7
State: gas
Origin: EPA-IR VAPOR PHASE LIBRARY
1/CM	ABSORBANCE
549.8	0.005633
559.445	0.005543
569.09	0.002513
578.734	0.0008902
588.379	0.0008591
598.024	0.001353
607.669	0.002703
617.313	0.004433
626.958	0.003313
636.603	0.001843
646.248	0.001823
655.893	0.002433
665.537	0.002503
675.182	0.001913
684.827	0.001403
694.472	0.001223
704.116	0.001343
713.761	0.001473
723.406	0.001613
733.051	0.001773
742.695	0.002133
752.34	0.002353
761.985	0.002843
771.63	0.003173
781.275	0.003673
790.919	0.003793
800.564	0.003543
810.209	0.002933
819.854	0.002133
829.498	0.002463
839.143	0.003793
848.788	0.002853
858.433	0.003123
868.078	0.005243
877.722	0.006483
887.367	0.006833
897.012	0.010863
906.657	0.011573
916.301	0.006143
925.946	0.005553
935.591	0.008963
945.236	0.019753
954.88	0.045163
964.525	0.052863
974.17	0.024863
983.815	0.008263
993.46	0.004893
1003.1	0.005023
1012.75	0.006893
1022.39	0.010173
1032.04	0.008983
1041.68	0.003413
1051.33	0.001583
1060.97	0.001373
1070.62	0.001303
1080.26	0.001563
1089.91	0.001833
1099.55	0.001923
1109.2	0.002353
1118.84	0.002923
1128.49	0.003423
1138.13	0.004663
1147.78	0.002563
1157.42	0.002283
1167.07	0.002233
1176.71	0.002853
1186.36	0.002063
1196	0.001383
1205.64	0.001933
1215.29	0.003753
1224.93	0.009553
1234.58	0.011833
1244.22	0.013963
1253.87	0.014433
1263.51	0.007823
1273.16	0.004893
1282.8	0.006053
1292.45	0.014473
1302.09	0.017843
1311.74	0.014553
1321.38	0.017343
1331.03	0.016413
1340.67	0.008973
1350.32	0.004163
1359.96	0.003833
1369.61	0.005113
1379.25	0.007193
1388.9	0.007623
1398.54	0.006403
1408.18	0.007703
1417.83	0.007693
1427.47	0.005313
1437.12	0.004213
1446.76	0.003973
1456.41	0.004623
1466.05	0.005973
1475.7	0.005503
1485.34	0.004203
1494.99	0.003683
1504.63	0.002373
1514.28	0.001773
1523.92	0.001533
1533.57	0.001793
1543.21	0.002503
1552.86	0.003613
1562.5	0.003553
1572.15	0.003203
1581.79	0.004733
1591.44	0.008713
1601.08	0.009343
1610.73	0.005293
1620.37	0.005373
1630.01	0.011503
1639.66	0.030163
1649.3	0.064143
1658.95	0.051353
1668.59	0.013413
1678.24	0.004933
1687.88	0.002833
1697.53	0.002143
1707.17	0.001843
1716.82	0.001413
1726.46	0.001013
1736.11	0.0008764
1745.75	0.0008046
1755.4	0.0008331
1765.04	0.0009508
1774.69	0.0009254
1784.33	0.0006613
1793.98	0.000623
1803.62	0.0006318
1813.27	0.000438
1822.91	0.0004009
1832.55	0.0003393
1842.2	0.0004073
1851.84	0.0003896
1861.49	0.000443
1871.13	0.0004599
1880.78	0.0005015
1890.42	0.000683
1900.07	0.0008094
1909.71	0.000963
1919.36	0.0009019
1929	0.0006076
1938.65	0.0004397
1948.29	0.0003846
1957.94	0.0002891
1967.58	0.0002722
1977.23	0.0003078
1986.87	0.0003631
1996.52	0.0003049
2006.16	0.0002768
2015.81	0.0002567
2025.45	0.0002322
2035.1	0.0002335
2044.74	0.0002842
2054.38	0.0002522
2064.03	0.0002358
2073.67	0.0002625
2083.32	0.0001627
2092.96	0.0002214
2102.61	0.0001491
2112.25	0.0001314
2121.9	0.0002065
2131.54	0.0002291
2141.19	0.0001894
2150.83	0.0002027
2160.48	0.0002361
2170.12	0.0002229
2179.77	0.00025
2189.41	0.0002422
2199.06	0.0002989
2208.7	0.0002275
2218.35	0.0002963
2227.99	0.000322
2237.64	0.0002996
2247.28	0.0003067
2256.92	0.0002383
2266.57	0.0002187
2276.21	0.0003056
2285.86	0.0002527
2295.5	0.0002863
2305.15	0.0003016
2314.79	0.0002275
2324.44	0.0002462
2334.08	0.0002377
2343.73	0.000249
2353.37	0.0002364
2363.02	0.0002222
2372.66	0.0002848
2382.31	0.0002223
2391.95	0.0002966
2401.6	0.0002762
2411.24	0.0003243
2420.89	0.0002248
2430.53	0.0002457
2440.18	0.000247
2449.82	0.00019
2459.47	0.0002503
2469.11	0.0003043
2478.75	0.0003709
2488.4	0.000373
2498.04	0.0003917
2507.69	0.0004413
2517.33	0.0004758
2526.98	0.0005346
2536.62	0.0004452
2546.27	0.0003573
2555.91	0.000421
2565.56	0.0003924
2575.2	0.0005169
2584.85	0.0003866
2594.49	0.0004633
2604.14	0.0004417
2613.78	0.0005893
2623.43	0.000615
2633.07	0.0006493
2642.72	0.0006149
2652.36	0.0006008
2662.01	0.0005245
2671.65	0.0005177
2681.29	0.0004394
2690.94	0.0005496
2700.58	0.0005568
2710.23	0.0004276
2719.87	0.0006124
2729.52	0.0005846
2739.16	0.0006387
2748.81	0.0005358
2758.45	0.0004988
2768.1	0.0005094
2777.74	0.0005172
2787.39	0.0005811
2797.03	0.0006131
2806.68	0.0007698
2816.32	0.000934
2825.97	0.001093
2835.61	0.001333
2845.26	0.001603
2854.9	0.002503
2864.55	0.003463
2874.19	0.005983
2883.84	0.008443
2893.48	0.007433
2903.12	0.006353
2912.77	0.006593
2922.41	0.007783
2932.06	0.011913
2941.7	0.014423
2951.35	0.011423
2960.99	0.017623
2970.64	0.028103
2980.28	0.018883
2989.93	0.010123
2999.57	0.005683
3009.22	0.002923
3018.86	0.001873
3028.51	0.001863
3038.15	0.002013
3047.8	0.002223
3057.44	0.001843
3067.09	0.001463
3076.73	0.001313
3086.38	0.001363
3096.02	0.001133
3105.67	0.0009179
3115.31	0.0007135
3124.95	0.0007421
3134.6	0.0006418
3144.24	0.0005463
3153.89	0.0005033
3163.53	0.0005851
3173.18	0.0005489
3182.82	0.0006126
3192.47	0.0005688
3202.11	0.0007078
3211.76	0.0006381
3221.4	0.0005808
3231.05	0.0008743
3240.69	0.000685
3250.34	0.0004754
3259.98	0.0008352
3269.63	0.001143
3279.27	0.001323
3288.92	0.001093
3298.56	0.001083
3308.21	0.0005742
3317.85	0.0003162
3327.49	0.0003276
3337.14	0.0001634
3346.78	0.00038
3356.43	0.0003248
3366.07	0.0003743
3375.72	0.0003639
3385.36	0.0004836
3395.01	0.000314
3404.65	0.0003621
3414.3	0.0002741
3423.94	0.0001465
3433.59	0.0003972
3443.23	0.0002427
3452.88	0.0004602
3462.52	7.959e-05
3472.17	0.000159
3481.81	0.0002603
3491.46	0.0001233
3501.1	0.0001968
3510.75	0.0002566
3520.39	0.0002737
3530.04	0.0003526
3539.68	0.0001977
3549.32	0.0002612
3558.97	0.0002376
3568.61	0.0003346
3578.26	0.000564
3587.9	0.0007091
3597.55	0.001273
3607.19	0.003003
3616.84	0.009283
3626.48	0.030573
3636.13	0.049953
3645.77	0.021403
3655.42	0.002523
3665.06	0.0007682
3674.71	0.000596
3684.35	0.0004715
3694	0.0002931
3703.64	0.0002152
3713.29	0.0003378
3722.93	0.0002874
3732.58	0.0002874
3742.22	0.0002411
3751.86	0.0003091
3761.51	0.0002625
3771.15	0.0002556
3780.8	0.0001919
3790.44	0.0002086
3800.09	0.00010537
3809.73	0.0001728
3819.38	0.0001987
3829.02	0.0001598
3838.67	0.000155
3848.31	0.000344
3857.96	0.000182
3867.6	0.0002988
3877.25	0.0001939
3886.89	0.0002714
3896.54	0.0001802
3906.18	0.0003232
3915.83	0.0003214
3925.47	0.0002351
3935.12	0.0002636
3944.76	0.0003441
3954.41	0.0002149
3964.05	0.0002666
3973.69	0.0003617
3983.34	0.0002856
3992.98	0.0003316
