Infrared Spectrum: ISOVALERANILIDE
Formula: C11 H15 N O
CAS: 2364-50-3
State: SOLID (MINERAL OIL MULL)
Class: COBLENTZ
Instrument: Not specified, most likely a prism, grating, or hybrid spectrometer.
Sampling: TRANSMISSION
Resolution: 4
Origin: DOW CHEMICAL COMPANY
MICROMETERS	TRANSMITTANCE
2.027	0.787
2.0681	0.795
2.1092	0.801
2.1503	0.813
2.19139	0.814
2.23249	0.806
2.27359	0.802
2.31469	0.821
2.35579	0.823
2.39689	0.826
2.43799	0.845
2.47909	0.859
2.52018	0.854
2.56128	0.869
2.60238	0.866
2.64348	0.881
2.68458	0.881
2.72568	0.879
2.76678	0.9
2.80787	0.898
2.84897	0.898
2.89007	0.886
2.93117	0.843
2.97227	0.646
3.01337	0.319
3.05447	0.25
3.09557	0.324
3.13666	0.373
3.17776	0.319
3.21886	0.331
3.25996	0.313
3.30106	0.411
3.34216	0.221
3.38326	0.058
3.42435	0.145
3.46545	0.171
3.50655	0.583
3.54765	0.68
3.58875	0.718
3.62985	0.734
3.67095	0.751
3.71205	0.754
3.75314	0.758
3.79424	0.766
3.83534	0.78
3.87644	0.787
3.91754	0.799
3.95864	0.804
3.99974	0.813
4.04083	0.816
4.08193	0.814
4.12303	0.818
4.16413	0.819
4.20523	0.816
4.24633	0.818
4.28743	0.825
4.32853	0.831
4.36962	0.837
4.41072	0.838
4.45182	0.842
4.49292	0.845
4.53402	0.843
4.57512	0.84
4.61622	0.845
4.65732	0.85
4.69841	0.857
4.73951	0.85
4.78061	0.854
4.82171	0.855
4.86281	0.864
4.90391	0.862
4.94501	0.862
4.9861	0.854
5.0272	0.861
5.0683	0.85
5.1094	0.83
5.1505	0.869
5.1916	0.871
5.2327	0.866
5.2738	0.852
5.31489	0.843
5.35599	0.861
5.39709	0.873
5.43819	0.866
5.47929	0.855
5.52039	0.849
5.56149	0.869
5.60258	0.864
5.64368	0.857
5.68478	0.84
5.72588	0.818
5.76698	0.819
5.80808	0.809
5.84918	0.778
5.89028	0.722
5.93137	0.54
5.97247	0.272
6.01357	0.08
6.05467	0.207
6.09577	0.372
6.13687	0.312
6.17797	0.221
6.21906	0.109
6.26016	0.274
6.30126	0.464
6.34236	0.404
6.38346	0.248
6.42456	0.061
6.46566	0.108
6.50676	0.168
6.54785	0.243
6.58895	0.267
6.63005	0.192
6.67115	0.205
6.71225	0.317
6.75335	0.372
6.79445	0.255
6.83554	0.245
6.87664	0.113
6.91774	0.14
6.95884	0.409
6.99994	0.538
7.04104	0.595
7.08214	0.62
7.12324	0.602
7.16433	0.519
7.20543	0.457
7.24653	0.319
7.28763	0.271
7.32873	0.557
7.36983	0.566
7.41093	0.533
7.45202	0.591
7.49312	0.461
7.53422	0.233
7.57532	0.36
7.61642	0.55
7.65752	0.624
7.69862	0.598
7.73972	0.579
7.78081	0.684
7.82191	0.668
7.86301	0.559
7.90411	0.413
7.94521	0.44
7.98631	0.566
8.02741	0.595
8.0685	0.542
8.1096	0.569
8.1507	0.679
8.1918	0.691
8.2329	0.564
8.274	0.471
8.3151	0.572
8.3562	0.686
8.39729	0.735
8.43839	0.742
8.47949	0.679
8.52059	0.608
8.56169	0.626
8.60279	0.694
8.64389	0.737
8.68499	0.78
8.72608	0.801
8.76718	0.816
8.80828	0.816
8.84938	0.777
8.89048	0.713
8.93158	0.739
8.97268	0.783
9.01377	0.78
9.05487	0.753
9.09597	0.737
9.13707	0.703
9.17817	0.718
9.21927	0.773
9.26037	0.763
9.30147	0.785
9.34256	0.821
9.38366	0.831
9.42476	0.835
9.46586	0.835
9.50696	0.838
9.54806	0.835
9.58916	0.84
9.63025	0.831
9.67135	0.789
9.71245	0.742
9.75355	0.77
9.79465	0.795
9.83575	0.814
9.87685	0.823
9.91795	0.828
9.95904	0.794
10.0001	0.768
10.0412	0.813
10.0823	0.763
10.1234	0.672
10.1645	0.643
10.2056	0.732
10.2467	0.783
10.2878	0.806
10.3289	0.809
10.37	0.763
10.4111	0.789
10.4522	0.799
10.4933	0.758
10.5344	0.663
10.5755	0.622
10.6166	0.713
10.6577	0.783
10.6988	0.811
10.7399	0.819
10.781	0.801
10.8221	0.795
10.8632	0.819
10.9043	0.826
10.9454	0.816
10.9865	0.797
11.0276	0.72
11.0687	0.627
11.1098	0.631
11.1509	0.629
11.192	0.603
11.2331	0.73
11.2742	0.795
11.3153	0.819
11.3564	0.826
11.3975	0.833
11.4386	0.831
11.4797	0.83
11.5208	0.821
11.5619	0.819
11.603	0.818
11.6441	0.809
11.6852	0.802
11.7263	0.771
11.7674	0.725
11.8085	0.66
11.8496	0.629
11.8907	0.641
11.9318	0.698
11.9729	0.72
12.014	0.744
12.0551	0.754
12.0962	0.744
12.1373	0.74
12.1784	0.742
12.2195	0.734
12.2606	0.72
12.3017	0.704
12.3428	0.691
12.3839	0.672
12.425	0.638
12.4661	0.612
12.5072	0.569
12.5483	0.533
12.5894	0.507
12.6305	0.487
12.6716	0.476
12.7127	0.48
12.7538	0.483
12.7949	0.499
12.836	0.519
12.877	0.53
12.9181	0.526
12.9592	0.475
13.0003	0.363
13.0414	0.248
13.0825	0.176
13.1236	0.13
13.1647	0.133
13.2058	0.202
13.2469	0.307
13.288	0.399
13.3291	0.463
13.3702	0.507
13.4113	0.536
13.4524	0.56
13.4935	0.574
13.5346	0.576
13.5757	0.586
13.6168	0.605
13.6579	0.615
13.699	0.622
13.7401	0.627
13.7812	0.632
13.8223	0.631
13.8634	0.636
13.9045	0.65
13.9456	0.653
13.9867	0.663
14.0278	0.667
14.0689	0.665
14.11	0.658
14.1511	0.644
14.1922	0.62
14.2333	0.574
14.2744	0.506
14.3155	0.401
14.3566	0.327
14.3977	0.31
14.4388	0.401
14.4799	0.504
14.521	0.567
14.5621	0.598
14.6032	0.607
14.6443	0.608
14.6854	0.607
14.7265	0.6
14.7676	0.591
14.8087	0.583
14.8498	0.571
14.8909	0.566
14.932	0.554
14.9731	0.548
15.0142	0.542
15.0553	0.54
15.0964	0.535
15.1375	0.524
15.1786	0.518
15.2197	0.512
15.2608	0.493
15.3019	0.49
15.343	0.478
15.3841	0.471
15.4252	0.461
15.4663	0.454
15.5074	0.447
15.5485	0.435
15.5896	0.425
15.6307	0.413
15.6718	0.406
15.7129	0.394
15.754	0.382
15.7951	0.375
15.8362	0.36
15.8773	0.355
15.9184	0.377
15.9595	0.406
