Infrared Spectrum: DIALLYL HYDROGEN PHOSPHITE
Formula: C6 H11 O3 P
CAS: 23679-20-1
Class: COBLENTZ
Instrument: Not specified, most likely a prism, grating, or hybrid spectrometer.
Sampling: TRANSMISSION
Path length: 0.0030 CM CELL
Resolution: 4
Origin: TENNESSEE EASTMAN COMPANY, RESEARCH LABORATORIES
MICROMETERS	TRANSMITTANCE
2.047	0.926
2.087	0.921
2.127	0.923
2.167	0.926
2.207	0.901
2.247	0.896
2.28699	0.884
2.32699	0.904
2.36699	0.906
2.40699	0.914
2.44699	0.919
2.48699	0.918
2.52699	0.923
2.56699	0.926
2.60699	0.934
2.64699	0.941
2.68698	0.954
2.72698	0.954
2.76698	0.948
2.80698	0.941
2.84698	0.919
2.88698	0.842
2.92698	0.785
2.96698	0.859
3.00698	0.913
3.04698	0.923
3.08698	0.924
3.12697	0.921
3.16697	0.899
3.20697	0.804
3.24697	0.556
3.28697	0.724
3.32697	0.53
3.36697	0.441
3.40697	0.456
3.44697	0.461
3.48697	0.712
3.52696	0.779
3.56696	0.846
3.60696	0.862
3.64696	0.866
3.68696	0.872
3.72696	0.887
3.76696	0.903
3.80696	0.911
3.84696	0.914
3.88696	0.919
3.92696	0.919
3.96695	0.921
4.00695	0.896
4.04695	0.837
4.08695	0.692
4.12695	0.448
4.16695	0.471
4.20695	0.653
4.24695	0.795
4.28695	0.847
4.32695	0.884
4.36694	0.928
4.40694	0.943
4.44694	0.954
4.48694	0.968
4.52694	0.973
4.56694	0.979
4.60694	0.983
4.64694	0.983
4.68694	0.983
4.72694	0.983
4.76694	0.983
4.80693	0.986
4.84693	0.986
4.88693	0.984
4.92693	0.978
4.96693	0.973
5.00693	0.968
5.04693	0.954
5.08693	0.946
5.12693	0.941
5.16693	0.924
5.20692	0.891
5.24692	0.847
5.28692	0.816
5.32692	0.817
5.36692	0.829
5.40692	0.851
5.44692	0.871
5.48692	0.896
5.52692	0.918
5.56692	0.918
5.60691	0.911
5.64691	0.871
5.68691	0.826
5.72691	0.78
5.76691	0.772
5.80691	0.824
5.84691	0.881
5.88691	0.916
5.92691	0.933
5.96691	0.939
6.00691	0.919
6.0469	0.806
6.0869	0.583
6.1269	0.886
6.1669	0.918
6.2069	0.924
6.2469	0.939
6.2869	0.943
6.3269	0.943
6.3669	0.933
6.4069	0.931
6.44689	0.931
6.48689	0.924
6.52689	0.939
6.56689	0.928
6.60689	0.914
6.64689	0.889
6.68689	0.849
6.72689	0.785
6.76689	0.598
6.80689	0.346
6.84689	0.379
6.88688	0.591
6.92688	0.613
6.96688	0.202
7.00688	0.267
7.04688	0.372
7.08688	0.56
7.12688	0.742
7.16688	0.754
7.20688	0.685
7.24688	0.65
7.28687	0.615
7.32687	0.52
7.36687	0.566
7.40687	0.705
7.44687	0.762
7.48687	0.775
7.52687	0.774
7.56687	0.729
7.60687	0.648
7.64687	0.53
7.68687	0.341
7.72686	0.142
7.76686	0.061
7.80686	0.021
7.84686	0.018
7.88686	0.018
7.92686	0.018
7.96686	0.018
8.00686	0.018
8.04686	0.03
8.08686	0.105
8.12685	0.26
8.16685	0.352
8.20685	0.429
8.24685	0.5
8.28685	0.54
8.32685	0.576
8.36685	0.625
8.40685	0.637
8.44685	0.64
8.48685	0.61
8.52685	0.525
8.56684	0.392
8.60684	0.354
8.64684	0.458
8.68684	0.501
8.72684	0.5
8.76684	0.464
8.80684	0.401
8.84684	0.307
8.88684	0.2
8.92684	0.11
8.96683	0.056
9.00683	0.045
9.04683	0.038
9.08683	0.038
9.12683	0.048
9.16683	0.063
9.20683	0.063
9.24683	0.046
9.28683	0.031
9.32683	0.028
9.36683	0.025
9.40682	0.023
9.44682	0.023
9.48682	0.02
9.52682	0.018
9.56682	0.016
9.60682	0.016
9.64682	0.016
9.68682	0.015
9.72682	0.015
9.76682	0.015
9.80681	0.015
9.84681	0.015
9.88681	0.015
9.92681	0.015
9.96681	0.015
10.0068	0.016
10.0468	0.016
10.0868	0.016
10.1268	0.016
10.1668	0.016
10.2068	0.016
10.2468	0.016
10.2868	0.015
10.3268	0.015
10.3668	0.015
10.4068	0.015
10.4468	0.013
10.4868	0.013
10.5268	0.013
10.5668	0.013
10.6068	0.013
10.6468	0.013
10.6868	0.011
10.7268	0.011
10.7668	0.011
10.8068	0.011
10.8468	0.011
10.8868	0.013
10.9268	0.025
10.9668	0.083
11.0068	0.173
11.0468	0.269
11.0868	0.366
11.1268	0.431
11.1668	0.478
11.2068	0.505
11.2468	0.52
11.2868	0.52
11.3268	0.518
11.3668	0.489
11.4068	0.454
11.4468	0.403
11.4868	0.346
11.5268	0.279
11.5668	0.227
11.6068	0.21
11.6468	0.204
11.6868	0.204
11.7268	0.207
11.7668	0.217
11.8068	0.225
11.8468	0.24
11.8868	0.254
11.9268	0.272
11.9668	0.292
12.0068	0.311
12.0468	0.326
12.0868	0.339
12.1268	0.349
12.1668	0.352
12.2068	0.359
12.2468	0.361
12.2868	0.362
12.3268	0.362
12.3668	0.362
12.4068	0.357
12.4468	0.354
12.4868	0.352
12.5267	0.356
12.5667	0.369
12.6067	0.404
12.6467	0.436
12.6867	0.476
12.7267	0.525
12.7667	0.576
12.8067	0.633
12.8467	0.675
12.8867	0.719
12.9267	0.747
12.9667	0.774
13.0067	0.807
13.0467	0.822
13.0867	0.836
13.1267	0.846
13.1667	0.859
13.2067	0.866
13.2467	0.871
13.2867	0.876
13.3267	0.882
13.3667	0.887
13.4067	0.891
13.4467	0.894
13.4867	0.894
13.5267	0.894
13.5667	0.903
13.6067	0.903
13.6467	0.904
13.6867	0.904
13.7267	0.906
13.7667	0.906
13.8067	0.908
13.8467	0.909
13.8867	0.909
13.9267	0.911
13.9667	0.911
14.0067	0.911
14.0467	0.913
14.0867	0.911
14.1267	0.911
14.1667	0.911
14.2067	0.906
14.2467	0.903
14.2867	0.901
14.3267	0.899
14.3667	0.897
14.4067	0.892
14.4467	0.887
14.4867	0.882
14.5267	0.876
14.5667	0.871
14.6067	0.866
14.6467	0.854
14.6867	0.846
14.7267	0.837
14.7667	0.829
14.8067	0.817
14.8467	0.806
14.8867	0.794
14.9267	0.775
14.9667	0.755
15.0067	0.742
15.0467	0.734
15.0867	0.725
15.1267	0.704
15.1667	0.687
15.2067	0.668
15.2467	0.657
15.2867	0.647
15.3267	0.637
15.3667	0.63
15.4067	0.623
15.4467	0.615
15.4867	0.608
15.5267	0.603
15.5667	0.602
15.6067	0.598
15.6467	0.596
15.6867	0.591
15.7267	0.591
15.7667	0.59
15.8067	0.59
15.8467	0.588
15.8867	0.588
15.9267	0.588
15.9667	0.588
