Infrared Spectrum: Benzoic acid, p-ethoxy-, ethyl ester
Formula: C11 H14 O3
CAS: 23676-09-7
State: SOLUTION (10% CCl4 FOR 3800-1335, 10% CS2 FOR 1335-460 CM^-^1)
Class: COBLENTZ III
Instrument: DOW KBr FOREPRISM-GRATING
Instrument parameters: BLAZED AT 3.5, 12.0, 20.0 MICRON AND CHANGED AT 5.0, 7.5, 14.9 MICRON
Sampling: TRANSMISSION
Path length: 0.011 CM, 0.011 CM
Resolution: 2
Origin: DOW CHEMICAL COMPANY
1/CM	TRANSMITTANCE
457	0.739
466	0.741
475	0.7386
484	0.7328
493	0.7105
502	0.6797
511	0.634
520	0.6484
529	0.7204
538	0.7685
547	0.7898
556	0.8033
565	0.8115
574	0.8159
583	0.8161
592	0.8137
601	0.7991
610	0.6975
619	0.7469
628	0.757
637	0.6825
646	0.4544
655	0.6018
664	0.78
673	0.8273
682	0.8174
691	0.4546
700	0.5723
709	0.8204
718	0.8486
727	0.8532
736	0.8488
745	0.8335
754	0.7829
763	0.4023
772	0.0267
781	0.6059
790	0.7454
799	0.7239
808	0.6878
817	0.7628
826	0.7421
835	0.6459
844	0.2577
853	0.2329
862	0.6099
871	0.6571
880	0.6813
889	0.801
898	0.77
907	0.7807
916	0.7101
925	0.4394
934	0.7982
943	0.8143
952	0.8114
961	0.8204
970	0.8293
979	0.8204
988	0.7978
997	0.7648
1006	0.6551
1015	0.3537
1024	0.3081
1033	0.3485
1042	0.0846
1051	0.1931
1060	0.5354
1069	0.6301
1078	0.5862
1087	0.4627
1096	0.012
1105	0.0077
1114	0.0358
1123	0.1202
1132	0.445
1141	0.5309
1150	0.4676
1159	0.3173
1168	0.0038
1177	0.2263
1186	0.5735
1195	0.6424
1204	0.6181
1213	0.5791
1222	0.4862
1231	0.3034
1240	0.0182
1249	0.0071
1258	0.0084
1267	0.0176
1276	0.0053
1285	0.0493
1294	0.2761
1303	0.1812
1312	0.154
1321	0.2317
1330	0.3734
1339	0.6392
1348	0.7208
1357	0.7015
1366	0.3542
1375	0.3018
1384	0.5503
1393	0.2874
1402	0.3256
1411	0.6517
1420	0.5951
1429	0.5046
1438	0.6414
1447	0.3783
1456	0.5089
1465	0.4173
1474	0.463
1483	0.2866
1492	0.6501
1501	0.5382
1510	0.0634
1519	0.2158
1528	0.4983
1537	0.4944
1546	0.4188
1555	0.4222
1564	0.471
1573	0.4487
1582	0.1738
1591	0.4247
1600	0.22
1609	0.0002
1618	0.2076
1627	0.5571
1636	0.7035
1645	0.7183
1654	0.7066
1663	0.6811
1672	0.6404
1681	0.6248
1690	0.5478
1699	0.3088
1708	0.0046
1717	0
1726	0.0164
1735	0.2699
1744	0.5318
1753	0.6239
1762	0.7315
1771	0.7714
1780	0.7812
1789	0.8247
1798	0.8251
1807	0.8356
1816	0.8421
1825	0.8527
1834	0.8584
1843	0.8581
1852	0.8633
1861	0.8695
1870	0.865
1879	0.8586
1888	0.8507
1897	0.8404
1906	0.832
1915	0.7938
1924	0.8399
1933	0.8431
1942	0.8556
1951	0.8447
1960	0.8314
1969	0.8283
1978	0.8394
1987	0.8525
1996	0.8708
2005	0.8872
2014	0.8883
2023	0.874
2032	0.8828
2041	0.883
2050	0.8756
2059	0.8708
2068	0.873
2077	0.8848
2086	0.8989
2095	0.8991
2104	0.898
2113	0.8945
2122	0.891
2131	0.8898
2140	0.8915
2149	0.902
2158	0.9077
2167	0.907
2176	0.9141
2185	0.9162
2194	0.9159
2203	0.9153
2212	0.9134
2221	0.9108
2230	0.9084
2239	0.9074
2248	0.9079
2257	0.9063
2266	0.8976
2275	0.8897
2284	0.8861
2293	0.8843
2302	0.8876
2311	0.8946
2320	0.901
2329	0.9037
2338	0.9044
2347	0.9026
2356	0.899
2365	0.8952
2374	0.8916
2383	0.8886
2392	0.8857
2401	0.883
2410	0.8804
2419	0.8782
2428	0.8797
2437	0.8982
2446	0.8986
2455	0.8966
2464	0.8939
2473	0.8885
2482	0.8796
2491	0.8729
2500	0.8654
2509	0.8664
2518	0.8794
2527	0.8782
2536	0.8744
2545	0.8694
2554	0.8457
2563	0.8366
2572	0.8455
2581	0.8572
2590	0.8594
2599	0.8626
2608	0.8652
2617	0.8623
2626	0.858
2635	0.8599
2644	0.8701
2653	0.8775
2662	0.8796
2671	0.881
2680	0.882
2689	0.8822
2698	0.882
2707	0.8779
2716	0.8702
2725	0.859
2734	0.8494
2743	0.8366
2752	0.8414
2761	0.8437
2770	0.827
2779	0.817
2788	0.84
2797	0.8417
2806	0.8354
2815	0.8109
2824	0.7993
2833	0.8015
2842	0.7891
2851	0.7719
2860	0.7453
2869	0.6894
2878	0.5236
2887	0.5173
2896	0.5409
2905	0.4495
2914	0.4727
2923	0.5217
2932	0.4254
2941	0.3804
2950	0.4852
2959	0.4987
2968	0.4397
2977	0.3647
2986	0.1074
2995	0.125
3004	0.5029
3013	0.6152
3022	0.7146
3031	0.7719
3040	0.7817
3049	0.7729
3058	0.7582
3067	0.7604
3076	0.7442
3085	0.7463
3094	0.7904
3103	0.7892
3112	0.8125
3121	0.8091
3130	0.8107
3139	0.8132
3148	0.8129
3157	0.8108
3166	0.8172
3175	0.8278
3184	0.8296
3193	0.8297
3202	0.8288
3211	0.8264
3220	0.8249
3229	0.8299
3238	0.8343
3247	0.8377
3256	0.8403
3265	0.8413
3274	0.8413
3283	0.8409
3292	0.8402
3301	0.839
3310	0.837
3319	0.834
3328	0.8358
3337	0.8388
3346	0.8382
3355	0.8376
3364	0.8374
3373	0.837
3382	0.8341
3391	0.8252
3400	0.8119
3409	0.8052
3418	0.8041
3427	0.8203
3436	0.8369
3445	0.8422
3454	0.8443
3463	0.8453
3472	0.8453
3481	0.8456
3490	0.8463
3499	0.8468
3508	0.8473
3517	0.8476
3526	0.8478
3535	0.8481
3544	0.8503
3553	0.8538
3562	0.8577
3571	0.8616
3580	0.866
3589	0.8711
3598	0.8746
3607	0.8768
3616	0.8792
3625	0.8805
3634	0.8813
3643	0.8814
3652	0.8804
3661	0.8771
3670	0.8707
3679	0.869
3688	0.8716
3697	0.8753
3706	0.8777
3715	0.8787
3724	0.88
3733	0.8809
3742	0.8814
3751	0.8817
3760	0.8818
3769	0.8815
3778	0.881
3787	0.8809
3796	0.8811
