Infrared Spectrum: 1-Chloro-2,5-difluorobenzene
Formula: C 6 H 3 Cl F 2
CAS: 2367-91-1
State: gas
Origin: EPA-IR VAPOR PHASE LIBRARY
1/CM	ABSORBANCE
549.8	0.000235
559.445	0.0007788
569.09	0.0010686
578.735	0.0011368
588.38	0.001141
598.025	0.0007934
607.67	0.000487919
617.315	0.00049981
626.96	0.000159
636.605	0.000481462
646.251	0.000349
655.896	0.00056686
665.541	0.0008821
675.186	0.0013233
684.831	0.001742
694.476	0.001792
704.121	0.0009083
713.766	0.0006499
723.411	0.001014
733.056	0.001572
742.701	0.002272
752.346	0.006642
761.991	0.015312
771.636	0.013972
781.281	0.003112
790.926	0.002832
800.571	0.005402
810.216	0.009472
819.861	0.004772
829.507	0.002282
839.152	0.001492
848.797	0.003692
858.442	0.006962
868.087	0.005862
877.732	0.004162
887.377	0.002642
897.022	0.002722
906.667	0.005642
916.312	0.008352
925.957	0.005942
935.602	0.001434
945.247	0.0010306
954.892	0.0006748
964.537	0.00050802
974.182	0.000609
983.827	0.0006368
993.472	0.000696
1003.12	0.0006799
1012.76	0.0007781
1022.41	0.0007869
1032.05	0.001122
1041.7	0.003702
1051.34	0.005292
1060.99	0.004272
1070.63	0.001532
1080.28	0.0008022
1089.92	0.0007123
1099.57	0.0009698
1109.21	0.002102
1118.86	0.002052
1128.5	0.0013271
1138.15	0.0012629
1147.79	0.0010663
1157.44	0.0009414
1167.08	0.001642
1176.73	0.005162
1186.37	0.014722
1196.02	0.014772
1205.66	0.006732
1215.31	0.001892
1224.95	0.002582
1234.6	0.006242
1244.24	0.013232
1253.89	0.015092
1263.53	0.007382
1273.18	0.002702
1282.82	0.001922
1292.47	0.0014366
1302.11	0.0009914
1311.76	0.0006725
1321.4	0.00056916
1331.05	0.0005603
1340.69	0.00054309
1350.34	0.0005948
1359.98	0.0006471
1369.63	0.0011477
1379.27	0.0013892
1388.92	0.0014399
1398.56	0.001682
1408.21	0.001792
1417.85	0.001522
1427.5	0.002522
1437.14	0.003232
1446.79	0.002602
1456.43	0.002142
1466.08	0.003692
1475.73	0.008662
1485.37	0.027812
1495.02	0.053392
1504.66	0.051052
1514.31	0.022202
1523.95	0.003862
1533.6	0.001373
1543.24	0.0011416
1552.89	0.0011081
1562.53	0.0013402
1572.18	0.001822
1581.82	0.002592
1591.47	0.003452
1601.11	0.004492
1610.76	0.005622
1620.4	0.004322
1630.05	0.001702
1639.69	0.0009135
1649.34	0.0008845
1658.98	0.0009888
1668.63	0.0009802
1678.27	0.0007716
1687.92	0.0007453
1697.56	0.0006947
1707.21	0.0009168
1716.85	0.0011821
1726.5	0.001325
1736.14	0.0011662
1745.79	0.0008607
1755.43	0.0006618
1765.08	0.0006618
1774.72	0.0006534
1784.37	0.0007131
1794.01	0.0007435
1803.66	0.0006552
1813.3	0.0006679
1822.95	0.0007286
1832.59	0.0007663
1842.24	0.0009179
1851.88	0.0012325
1861.53	0.0011276
1871.17	0.0007396
1880.82	0.0006446
1890.46	0.0006353
1900.11	0.00056327
1909.75	0.00057704
1919.4	0.000588
1929.04	0.00055614
1938.69	0.0006488
1948.33	0.0006794
1957.98	0.0006953
1967.62	0.0006384
1977.27	0.0005878
1986.91	0.0005918
1996.56	0.0005863
2006.2	0.0007152
2015.85	0.0006822
2025.49	0.000829
2035.14	0.0008983
2044.78	0.0008497
2054.43	0.0006846
2064.07	0.00058124
2073.72	0.0006236
2083.36	0.0006601
2093.01	0.0007292
2102.65	0.0006585
2112.3	0.0007426
2121.94	0.0006477
2131.59	0.0006588
2141.23	0.0006379
2150.88	0.0006508
2160.52	0.000698
2170.17	0.0007296
2179.81	0.0006606
2189.46	0.0006413
2199.1	0.0006192
2208.75	0.00056398
2218.39	0.0007016
2228.04	0.0006744
2237.68	0.0006092
2247.33	0.0006537
2256.97	0.0005947
2266.62	0.0006287
2276.26	0.0006334
2285.91	0.0006587
2295.55	0.0006802
2305.2	0.0006604
2314.84	0.0006658
2324.49	0.0006925
2334.13	0.0006827
2343.78	0.0006469
2353.42	0.0006397
2363.07	0.0005862
2372.72	0.0005974
2382.36	0.00054812
2392.01	0.0006268
2401.65	0.0007299
2411.3	0.0007278
2420.94	0.0007322
2430.59	0.000604
2440.23	0.000678
2449.88	0.000684
2459.52	0.0006641
2469.17	0.0007524
2478.81	0.0005925
2488.46	0.0005951
2498.1	0.0006051
2507.75	0.000679
2517.39	0.0007711
2527.04	0.000781
2536.68	0.0006605
2546.33	0.0006561
2555.97	0.0006758
2565.62	0.00053674
2575.26	0.00056536
2584.91	0.000589
2594.55	0.00051874
2604.2	0.00055955
2613.84	0.0004617
2623.49	0.0004552
2633.13	0.00051258
2642.78	0.00050962
2652.42	0.0004475
2662.07	0.00055882
2671.71	0.0006156
2681.36	0.00057208
2691	0.0004621
2700.65	0.0005655
2710.29	0.000488245
2719.94	0.0006214
2729.58	0.000643
2739.23	0.00049217
2748.87	0.00055263
2758.52	0.0004693
2768.16	0.00056938
2777.81	0.0006106
2787.45	0.0004957
2797.1	0.00049514
2806.74	0.0004376
2816.39	0.0005575
2826.03	0.0005969
2835.68	0.0004316
2845.32	0.00050333
2854.97	0.0005984
2864.61	0.00050663
2874.26	0.00049671
2883.9	0.00046
2893.55	0.00047488
2903.19	0.000395
2912.84	0.000455
2922.48	0.000313
2932.13	0.00047727
2941.77	0.0004146
2951.42	0.000369
2961.06	0.000348
2970.71	0.0003947
2980.35	0.0004668
2990	0.00051648
2999.64	0.000344
3009.29	0.0004124
3018.93	0.000344
3028.58	0.000235
3038.22	0.0004318
3047.87	0.0003936
3057.51	0.00055324
3067.16	0.0005642
3076.8	0.0006955
3086.45	0.000719
3096.09	0.0006321
3105.74	0.0005279
3115.38	0.000367
3125.03	0.000292
3134.67	0.000386
3144.32	0.000171
3153.96	0.000329
3163.61	0.00055761
3173.25	0.000388
3182.9	0.000349
3192.54	0.000227
3202.19	0.000427
3211.83	0.0003982
3221.48	0.000189
3231.12	0.00035
3240.77	0.000293
3250.41	0.000204
3260.06	0.000356
3269.7	0.000219
3279.35	0.000248
3289	0.000195
3298.64	0.000226
3308.29	0.000219
3317.93	0.00031
3327.58	0.000234
3337.22	0.000361
3346.87	0.000264
3356.51	0.000301
3366.16	0.000154
3375.8	0.000249
3385.45	0.000175
3395.09	0
3404.74	0.000299
3414.38	0.000119
3424.03	0.000278
3433.67	0.0004086
3443.32	0.0003938
3452.96	0.000116
3462.61	0.00012
3472.25	9.7e-05
3481.9	0.00036
3491.54	0.000233
3501.19	0.000309
3510.83	0.0003843
3520.48	0.000112
3530.12	0.000253
3539.77	0.00051856
3549.41	0.000348
3559.06	0.000222
3568.7	0.00037
3578.35	0.0003944
3587.99	0.0004313
3597.64	0.000253
3607.28	0.00029
3616.93	0.000321
3626.57	0.000326
3636.22	0.000253
3645.86	0.000177
3655.51	0.000368
3665.15	0.000261
3674.8	0.000302
3684.44	0.000367
3694.09	0.000363
3703.73	0.00053726
3713.38	0.000352
3723.02	0.0004437
3732.67	0.00038
3742.31	0.000157
3751.96	0.000227
3761.6	0.0004029
3771.25	0.000327
3780.89	0.00049762
3790.54	0.000341
3800.18	0.000371
3809.83	0.000351
3819.47	0.000365
3829.12	0.000242
3838.76	0.000217
3848.41	0.000307
3858.05	0.000183
3867.7	0.000413
3877.34	0.000307
3886.99	0.000127
3896.63	0.000358
3906.28	0.0003932
3915.92	0.000312
3925.57	0.00047511
3935.21	0.000273
3944.86	0.000385
3954.5	0.000323
3964.15	0.00050002
3973.79	0.000469
3983.44	0.000337
3993.08	0.0005985
