Infrared Spectrum: 4-Amino-2-chloro-6,7-dimethoxyquinazoline
Formula: C 10 H 10 Cl N 3 O 2
CAS: 23680-84-4
State: gas
Origin: EPA-IR VAPOR PHASE LIBRARY
1/CM	ABSORBANCE
549.8	0.001513
559.445	0.001172
569.09	0.002203
578.734	0.00117
588.379	0.0011495
598.024	0.0011697
607.669	0.0012293
617.313	0.001493
626.958	0.001383
636.603	0.001553
646.248	0.002243
655.893	0.002253
665.537	0.001943
675.182	0.002133
684.827	0.002533
694.472	0.001893
704.116	0.0011141
713.761	0.0012186
723.406	0.0011754
733.051	0.002013
742.695	0.003063
752.34	0.001843
761.985	0.002063
771.63	0.001413
781.275	0.001473
790.919	0.001773
800.564	0.001533
810.209	0.001353
819.854	0.001663
829.498	0.002003
839.143	0.001733
848.788	0.002843
858.433	0.003903
868.078	0.002793
877.722	0.001703
887.367	0.001643
897.012	0.001433
906.657	0.0012479
916.301	0.0012689
925.946	0.001883
935.591	0.003633
945.236	0.005673
954.88	0.004133
964.525	0.002173
974.17	0.002063
983.815	0.002623
993.46	0.002813
1003.1	0.003633
1012.75	0.003423
1022.39	0.003583
1032.04	0.004683
1041.68	0.003883
1051.33	0.001138
1060.97	0.002603
1070.62	0.001513
1080.26	0.0006486
1089.91	0.001753
1099.55	0.002203
1109.2	0.004043
1118.84	0.004413
1128.49	0.002973
1138.13	0.004643
1147.78	0.005593
1157.42	0.004813
1167.07	0.003723
1176.71	0.003603
1186.36	0.003953
1196	0.005403
1205.64	0.008493
1215.29	0.010463
1224.93	0.010313
1234.58	0.016043
1244.22	0.023623
1253.87	0.015833
1263.51	0.009623
1273.16	0.006753
1282.8	0.009053
1292.45	0.012713
1302.09	0.006883
1311.74	0.002943
1321.38	0.001933
1331.03	0.001953
1340.67	0.002923
1350.32	0.003253
1359.96	0.002363
1369.61	0.001793
1379.25	0.001863
1388.9	0.002413
1398.54	0.004903
1408.18	0.011123
1417.83	0.009363
1427.47	0.012283
1437.12	0.014313
1446.76	0.009003
1456.41	0.013223
1466.05	0.016483
1475.7	0.011153
1485.34	0.009613
1494.99	0.017553
1504.63	0.019403
1514.28	0.010873
1523.92	0.004173
1533.57	0.003053
1543.21	0.004283
1552.86	0.009163
1562.5	0.017213
1572.15	0.011343
1581.79	0.005273
1591.44	0.005073
1601.08	0.009293
1610.73	0.017073
1620.37	0.018673
1630.01	0.009883
1639.66	0.004143
1649.3	0.002463
1658.95	0.001703
1668.59	0.001353
1678.24	0.0011644
1687.88	0.0009219
1697.53	0.0007701
1707.17	0.0009668
1716.82	0.0008007
1726.46	0.0009563
1736.11	0.0007717
1745.75	0.0007438
1755.4	0.0005954
1765.04	0.0006919
1774.69	0.0006829
1784.33	0.0005814
1793.98	0.0005075
1803.62	0.0005342
1813.27	0.0004839
1822.91	0.0006836
1832.55	0.0005791
1842.2	0.0006466
1851.84	0.0005898
1861.49	0.0004867
1871.13	0.0005754
1880.78	0.0006486
1890.42	0.0005536
1900.07	0.0004508
1909.71	0.0004282
1919.36	0.0005291
1929	0.0004942
1938.65	0.0005757
1948.29	0.0005858
1957.94	0.0004737
1967.58	0.0005338
1977.23	0.0005901
1986.87	0.0005352
1996.52	0.0005957
2006.16	0.0005151
2015.81	0.0006058
2025.45	0.0004496
2035.1	0.000593
2044.74	0.0004568
2054.38	0.0004625
2064.03	0.0005576
2073.67	0.0004053
2083.32	0.0004932
2092.96	0.0005656
2102.61	0.0005277
2112.25	0.0004758
2121.9	0.0005431
2131.54	0.0005623
2141.19	0.00053
2150.83	0.0005841
2160.48	0.00035648
2170.12	0.0004956
2179.77	0.00039952
2189.41	0.00040398
2199.06	0.000423
2208.7	0.0005253
2218.35	0.00040054
2227.99	0.00033409
2237.64	0.0006084
2247.28	0.0005133
2256.92	0.0005978
2266.57	0.0004312
2276.21	0.0006181
2285.86	0.0004964
2295.5	0.0005845
2305.15	0.0004595
2314.79	0.0005575
2324.44	0.00037207
2334.08	0.000426
2343.73	0.0006186
2353.37	0.0004951
2363.02	0.0004851
2372.66	0.0005226
2382.31	0.0005095
2391.95	0.0004638
2401.6	9.2e-05
2411.24	0.0004259
2420.89	0.0004142
2430.53	0.0004334
2440.18	0.000267
2449.82	0.0004233
2459.47	0.0004943
2469.11	0.00040223
2478.75	0.0006776
2488.4	0.000681
2498.04	0.0005719
2507.69	0.00033103
2517.33	0.0005053
2526.98	0.0005664
2536.62	0.0004483
2546.27	0.0004009
2555.91	0.00036071
2565.56	0.000422
2575.2	0.000534
2584.85	0.00034356
2594.49	0.0004863
2604.14	0.000321648
2613.78	0.0004588
2623.43	0.0005098
2633.07	0.0002922
2642.72	0.0004311
2652.36	0.0004809
2662.01	0.0004715
2671.65	0.0004767
2681.29	0.0002749
2690.94	0.0005811
2700.58	0.0004159
2710.23	0.0006346
2719.87	0.0006249
2729.52	0.0005579
2739.16	0.0005132
2748.81	0.0002828
2758.45	0.0005978
2768.1	0.0004352
2777.74	0.0005926
2787.39	0.0004458
2797.03	0.00038569
2806.68	0.0006682
2816.32	0.0006875
2825.97	0.0010119
2835.61	0.001593
2845.26	0.001853
2854.9	0.001473
2864.55	0.0012492
2874.19	0.001323
2883.84	0.001253
2893.48	0.001403
2903.12	0.001593
2912.77	0.001503
2922.41	0.001823
2932.06	0.002393
2941.7	0.003253
2951.35	0.003433
2960.99	0.002963
2970.64	0.002433
2980.28	0.001703
2989.93	0.001473
2999.57	0.001623
3009.22	0.002693
3018.86	0.002313
3028.51	0.0012515
3038.15	0.0008808
3047.8	0.0007982
3057.44	0.0011636
3067.09	0.0009832
3076.73	0.000807
3086.38	0.0007918
3096.02	0.0008664
3105.67	0.0006749
3115.31	0.0006201
3124.95	0.0005367
3134.6	0.0005228
3144.24	0.0005688
3153.89	0.0006354
3163.53	0.0006187
3173.18	0.0005397
3182.82	0.0007038
3192.47	0.0002206
3202.11	0
3211.76	0.00039574
3221.4	0.0002667
3231.05	0.0007312
3240.69	0.0002539
3250.34	0.00037438
3259.98	0.0003022
3269.63	0.0005756
3279.27	0.0005075
3288.92	0.00039436
3298.56	0.0006034
3308.21	0.000133
3317.85	0.000164
3327.49	0.00040745
3337.14	0.0007301
3346.78	0.000563
3356.43	0.00037715
3366.07	0.0004289
3375.72	0.0002698
3385.36	0.0006309
3395.01	0.0006112
3404.65	0.0010678
3414.3	0.001763
3423.94	0.002513
3433.59	0.003003
3443.23	0.002313
3452.88	0.0013067
3462.52	0.0010057
3472.17	0.0008867
3481.81	0.0005866
3491.46	0.0005992
3501.1	0.0009015
3510.75	0.0009805
3520.39	0.0008899
3530.04	0.0011971
3539.68	0.001743
3549.32	0.0010449
3558.97	0.0011042
3568.61	0.0006679
3578.26	0.0008801
3587.9	0.0008793
3597.55	0.0007784
3607.19	0.0006553
3616.84	0.0005892
3626.48	0.000696
3636.13	0.00036615
3645.77	0.0007426
3655.42	0.0007033
3665.06	0.0005955
3674.71	0.0005255
3684.35	0.00036548
3694	0.0005088
3703.64	0.0004861
3713.29	0.0002439
3722.93	0.0004514
3732.58	0.0002258
3742.22	0.0006985
3751.86	0.0002727
3761.51	0.0006293
3771.15	0.000302
3780.8	0.0007683
3790.44	0.000587
3800.09	0.000344
3809.73	0.0005495
3819.38	0.0004514
3829.02	0.0004378
3838.67	0.0002539
3848.31	0.0006609
3857.96	3.4e-05
3867.6	0.0004655
3877.25	0.0011315
3886.89	0.0006294
3896.54	0.0005427
3906.18	0.0006863
3915.83	0.000478
3925.47	0.000474
3935.12	0.0009116
3944.76	0.0004455
3954.41	0.0004845
3964.05	0.0007435
3973.69	0.0007647
3983.34	0.0002942
3992.98	3.6e-05
