Infrared Spectrum: 2,4,6,8-Tetramethylcyclotetrasiloxane
Formula: C4 H16 O4 Si4
CAS: 2370-88-9
State: SOLUTION (10% CCl4 FOR 3800-1300, 2% CS2 FOR 1300-650, AND 10% CCl4 FOR 650-260) VS SOLVENT
Boiling point: 134.5 C
Class: COBLENTZ II
Instrument: PERKIN-ELMER 521 (GRATING)
Instrument parameters: FILTERS AT 3150, 2500, 2000, 1150, 700, 410. GRATING CHANGES: 2000, 630
Path length: 0.011 CM, 0.011 CM, AND 0.012 CM
Resolution: 2
Origin: DOW CORNING CORP.
1/CM	TRANSMITTANCE
256	0.9359
265	0.9011
274	0.8807
283	0.8464
292	0.7397
301	0.719
310	0.689
319	0.6252
328	0.5351
337	0.4662
346	0.4116
355	0.2397
364	0.1733
373	0.2106
382	0.4262
391	0.6581
400	0.7484
409	0.7902
418	0.8101
427	0.8159
436	0.816
445	0.8426
454	0.8708
463	0.8669
472	0.8881
481	0.8736
490	0.8608
499	0.843
508	0.8208
517	0.7916
526	0.7877
535	0.8178
544	0.8258
553	0.8114
562	0.7995
571	0.7708
580	0.7476
589	0.7964
598	0.839
607	0.8616
616	0.8746
625	0.8727
634	0.8462
643	0.838
652	0.8796
661	0.8734
670	0.8717
679	0.8565
688	0.8406
697	0.8077
706	0.8002
715	0.791
724	0.7849
733	0.7647
742	0.7298
751	0.5661
760	0.4461
769	0.1798
778	0.2907
787	0.6152
796	0.7169
805	0.7663
814	0.7799
823	0.7728
832	0.7535
841	0.7286
850	0.6804
859	0.5858
868	0.3327
877	0.0128
886	0.0512
895	0.3237
904	0.5473
913	0.5347
922	0.542
931	0.6839
940	0.7533
949	0.784
958	0.7949
967	0.7954
976	0.7889
985	0.7736
994	0.7523
1003	0.7222
1012	0.6879
1021	0.644
1030	0.5831
1039	0.5095
1048	0.4037
1057	0.2721
1066	0.0841
1075	0.0301
1084	0.0176
1093	0.0232
1102	0.1035
1111	0.2573
1120	0.4128
1129	0.552
1138	0.6208
1147	0.6667
1156	0.7019
1165	0.7356
1174	0.7673
1183	0.7932
1192	0.8143
1201	0.8173
1210	0.8195
1219	0.8195
1228	0.8061
1237	0.7733
1246	0.6802
1255	0.1805
1264	0.7334
1273	0.805
1282	0.8283
1291	0.8393
1300	0.7849
1309	0.7986
1318	0.808
1327	0.8115
1336	0.8121
1345	0.8106
1354	0.8039
1363	0.7914
1372	0.7726
1381	0.7403
1390	0.6701
1399	0.5814
1408	0.6353
1417	0.7127
1426	0.7568
1435	0.7634
1444	0.7613
1453	0.7665
1462	0.7848
1471	0.7504
1480	0.81
1489	0.7853
1498	0.8249
1507	0.8276
1516	0.8289
1525	0.8482
1534	0.8626
1543	0.8733
1552	0.8693
1561	0.8596
1570	0.8438
1579	0.8188
1588	0.7958
1597	0.7373
1606	0.7075
1615	0.743
1624	0.7839
1633	0.7913
1642	0.7883
1651	0.7892
1660	0.795
1669	0.8086
1678	0.8236
1687	0.8332
1696	0.8324
1705	0.8308
1714	0.8248
1723	0.8203
1732	0.8156
1741	0.8146
1750	0.8209
1759	0.8286
1768	0.8302
1777	0.8298
1786	0.8276
1795	0.8219
1804	0.8173
1813	0.8187
1822	0.8302
1831	0.8316
1840	0.8282
1849	0.8295
1858	0.8462
1867	0.8566
1876	0.8678
1885	0.8726
1894	0.875
1903	0.8763
1912	0.8756
1921	0.8719
1930	0.8664
1939	0.8593
1948	0.8597
1957	0.8613
1966	0.864
1975	0.865
1984	0.8648
1993	0.8635
2002	0.8598
2011	0.8597
2020	0.8636
2029	0.8697
2038	0.876
2047	0.8747
2056	0.8684
2065	0.8573
2074	0.8453
2083	0.8318
2092	0.8119
2101	0.7738
2110	0.7308
2119	0.6474
2128	0.5091
2137	0.3366
2146	0.1752
2155	0.0758
2164	0.0178
2173	0.0144
2182	0.024
2191	0.0387
2200	0.0856
2209	0.1885
2218	0.298
2227	0.4469
2236	0.6069
2245	0.7274
2254	0.7735
2263	0.8103
2272	0.8368
2281	0.8546
2290	0.8678
2299	0.8781
2308	0.8851
2317	0.8897
2326	0.8932
2335	0.8957
2344	0.8978
2353	0.8976
2362	0.898
2371	0.9003
2380	0.8992
2389	0.8986
2398	0.8985
2407	0.8993
2416	0.9
2425	0.9007
2434	0.9015
2443	0.902
2452	0.9023
2461	0.9025
2470	0.9026
2479	0.9027
2488	0.903
2497	0.9031
2506	0.9033
2515	0.9035
2524	0.9037
2533	0.9041
2542	0.9047
2551	0.9051
2560	0.9058
2569	0.9063
2578	0.9066
2587	0.9069
2596	0.9072
2605	0.9074
2614	0.9078
2623	0.9081
2632	0.908
2641	0.9076
2650	0.9073
2659	0.9063
2668	0.9053
2677	0.9053
2686	0.9079
2695	0.9082
2704	0.9086
2713	0.9091
2722	0.9087
2731	0.9083
2740	0.907
2749	0.9043
2758	0.901
2767	0.8972
2776	0.8932
2785	0.8908
2794	0.8897
2803	0.8895
2812	0.8893
2821	0.889
2830	0.8867
2839	0.8827
2848	0.8739
2857	0.8603
2866	0.8503
2875	0.8419
2884	0.8357
2893	0.827
2902	0.8141
2911	0.7962
2920	0.782
2929	0.7742
2938	0.7655
2947	0.7572
2956	0.7359
2965	0.462
2974	0.3475
2983	0.6207
2992	0.7709
3001	0.8269
3010	0.8395
3019	0.8374
3028	0.8284
3037	0.8367
3046	0.8506
3055	0.8514
3064	0.8505
3073	0.8645
3082	0.8724
3091	0.8759
3100	0.8835
3109	0.8886
3118	0.8964
3127	0.9015
3136	0.9036
3145	0.9031
3154	0.903
3163	0.9034
3172	0.9047
3181	0.9055
3190	0.9052
3199	0.9049
3208	0.9049
3217	0.905
3226	0.905
3235	0.9041
3244	0.9034
3253	0.903
3262	0.9034
3271	0.904
3280	0.9048
3289	0.9055
3298	0.9059
3307	0.9062
3316	0.9067
3325	0.9072
3334	0.9079
3343	0.9082
3352	0.9084
3361	0.9086
3370	0.9087
3379	0.9086
3388	0.9085
3397	0.9088
3406	0.9092
3415	0.9096
3424	0.9097
3433	0.9095
3442	0.9092
3451	0.909
3460	0.9095
3469	0.9103
3478	0.911
3487	0.9118
3496	0.9123
3505	0.9127
3514	0.9128
3523	0.9128
3532	0.9125
3541	0.912
3550	0.9116
3559	0.9111
3568	0.9105
3577	0.91
3586	0.9096
3595	0.909
3604	0.9085
3613	0.9081
3622	0.9075
3631	0.9054
3640	0.9043
3649	0.9041
3658	0.9021
3667	0.8993
3676	0.9024
3685	0.9012
3694	0.9014
3703	0.9043
3712	0.9057
3721	0.9057
3730	0.9035
3739	0.9022
3748	0.903
3757	0.9089
3766	0.9082
3775	0.9094
3784	0.9114
3793	0.9168
3802	0.9188
3811	0.9151
3820	0.9151
