Infrared Spectrum: 2,2-Dimethyl-1-hexanol
Formula: C 8 H 18 O
CAS: 2370-13-0
State: gas
Instrument: HP-GC/MS/IRD
Origin: NIST Mass Spectrometry Data Center
1/CM	ABSORBANCE
550	0.0002835
562	0.0003955
574	0.000245
586	0.000182
598	0.000133
610	0.000112
622	9.45e-05
634	0.000112
646	0.000126
658	6.65e-05
670	7.35e-05
682	0.0002135
694	0.0002345
706	0.0002835
718	0.000371
730	0.0005565
742	0.0005915
754	0.000427
766	0.0004515
778	0.000392
790	0.0003255
802	0.000287
814	0.000217
826	0.0001505
838	0.000224
850	0.0003465
862	0.0004655
874	0.000812
886	0.001281
898	0.001449
910	0.0012775
922	0.001057
934	0.001008
946	0.001036
958	0.001274
970	0.0017535
982	0.002184
994	0.002548
1006	0.003605
1018	0.0063035
1030	0.012411
1042	0.0155995
1054	0.010087
1066	0.004284
1078	0.0022435
1090	0.0016135
1102	0.00133
1114	0.001113
1126	0.001197
1138	0.001428
1150	0.0017395
1162	0.0018865
1174	0.001855
1186	0.001799
1198	0.0016625
1210	0.001526
1222	0.0014945
1234	0.001554
1246	0.001652
1258	0.0017255
1270	0.0017745
1282	0.0016975
1294	0.0015995
1306	0.0015575
1318	0.0015435
1330	0.0016765
1342	0.0020265
1354	0.002674
1366	0.00392
1378	0.004207
1390	0.00357
1402	0.002555
1414	0.0015925
1426	0.0012985
1438	0.001673
1450	0.0028875
1462	0.0047285
1474	0.005376
1486	0.003493
1498	0.0013825
1510	0.000658
1522	0.000441
1534	0.0003605
1546	0.000259
1558	0.00021
1570	0.0002275
1582	0.00021
1594	0.0002275
1606	0.000182
1618	0.000161
1630	0.000161
1642	0.0001295
1654	8.05e-05
1666	0.000105
1678	7.7e-05
1690	7.7e-05
1702	2.45e-05
1714	3.85e-05
1726	5.25e-05
1738	3.15e-05
1750	0
1762	2.1e-05
1774	2.45e-05
1786	4.9e-05
1798	2.8e-05
1810	4.9e-05
1822	4.2e-05
1834	2.45e-05
1846	2.45e-05
1858	3.85e-05
1870	4.2e-05
1882	6.65e-05
1894	4.55e-05
1906	5.25e-05
1918	3.5e-05
1930	8.05e-05
1942	5.95e-05
1954	8.75e-05
1966	5.6e-05
1978	6.3e-05
1990	8.75e-05
2002	7.7e-05
2014	8.4e-05
2026	0.0001085
2038	0.0001295
2050	0.0001505
2062	0.000161
2074	0.000154
2086	0.000133
2098	0.000112
2110	8.75e-05
2122	7.35e-05
2134	6.65e-05
2146	6.3e-05
2158	5.95e-05
2170	9.1e-05
2182	5.95e-05
2194	7e-05
2206	8.75e-05
2218	7.7e-05
2230	9.1e-05
2242	9.8e-05
2254	0.000119
2266	0.0001085
2278	0.000119
2290	0.000112
2302	7.7e-05
2314	9.45e-05
2326	8.4e-05
2338	0.0001015
2350	0.000105
2362	7.7e-05
2374	0.0001365
2386	0.0001575
2398	0.0001435
2410	0.000161
2422	0.000126
2434	0.000154
2446	0.00014
2458	0.0001295
2470	0.0001365
2482	0.000126
2494	0.0001435
2506	0.000133
2518	0.0001575
2530	0.000161
2542	0.0001575
2554	0.000189
2566	0.000203
2578	0.000224
2590	0.000266
2602	0.000259
2614	0.000301
2626	0.0003395
2638	0.0003605
2650	0.0004025
2662	0.000476
2674	0.0005565
2686	0.000574
2698	0.0006405
2710	0.0007735
2722	0.0009275
2734	0.0010885
2746	0.001148
2758	0.0011585
2770	0.0012355
2782	0.0013895
2794	0.00168
2806	0.001981
2818	0.0024535
2830	0.003276
2842	0.005082
2854	0.0087255
2866	0.014756
2878	0.0189175
2890	0.0176785
2902	0.0175245
2914	0.020629
2926	0.0257355
2938	0.0309505
2950	0.0311955
2962	0.034944
2974	0.0282135
2986	0.011788
2998	0.0046865
3010	0.0027195
3022	0.001939
3034	0.0014665
3046	0.0011095
3058	0.00091
3070	0.0008365
3082	0.000742
3094	0.0006895
3106	0.000644
3118	0.0006125
3130	0.0005425
3142	0.0005075
3154	0.000462
3166	0.0004445
3178	0.000448
3190	0.0004375
3202	0.000364
3214	0.0003115
3226	0.000273
3238	0.0002625
3250	0.0002065
3262	0.0001785
3274	0.0001365
3286	0.00014
3298	0.0001225
3310	0.00014
3322	0.00014
3334	0.0001435
3346	0.0001225
3358	0.0001505
3370	0.0001015
3382	0.000154
3394	0.000133
3406	0.0001085
3418	0.0001435
3430	0.000147
3442	0.000133
3454	0.0001295
3466	0.0001715
3478	0.000126
3490	0.0001435
3502	0.0001505
3514	0.000133
3526	0.000119
3538	0.0001365
3550	0.000133
3562	0.000133
3574	0.0001505
3586	0.0001155
3598	0.000161
3610	0.000154
3622	0.0002765
3634	0.0003955
3646	0.0007595
3658	0.001925
3670	0.003003
3682	0.002156
3694	0.0008785
3706	0.0003605
3718	0.0002765
3730	0.0001925
3742	0.0001785
3754	0.000175
3766	0.0001855
3778	0.000196
3790	0.000217
3802	0.0002415
3814	0.00021
3826	0.0002695
3838	0.000217
