Infrared Spectrum: 6-Undecanol
Formula: C 11 H 24 O
CAS: 23708-56-7
State: gas
Instrument: HP-GC/MS/IRD
Origin: NIST Mass Spectrometry Data Center
1/CM	ABSORBANCE
550	0.0008232
562	0.0004165
574	0.0003381
586	0.000294
598	0.0002891
610	0.000245
622	0.0002303
634	0.0001715
646	0.0001127
658	2.45e-05
670	4.41e-05
682	7.84e-05
694	0.0001323
706	0.000245
718	0.0005537
730	0.0008232
742	0.0005831
754	0.0005243
766	0.0005047
778	0.0004165
790	0.0002646
802	0.0002989
814	0.0003577
826	0.0004165
838	0.0004067
850	0.0004018
862	0.0004165
874	0.0005243
886	0.0007399
898	0.0010584
910	0.0013377
922	0.0016219
934	0.0018571
946	0.002156
958	0.0022295
970	0.0018914
982	0.001715
994	0.0019845
1006	0.0027881
1018	0.0037289
1030	0.0040817
1042	0.0037926
1054	0.0030723
1066	0.0026264
1078	0.0024059
1090	0.0023128
1102	0.0023716
1114	0.0026803
1126	0.0031262
1138	0.002695
1150	0.0017444
1162	0.0013916
1174	0.0015533
1186	0.001862
1198	0.0019747
1210	0.0020482
1222	0.0021805
1234	0.0023618
1246	0.0024108
1258	0.0023275
1270	0.0021315
1282	0.0020433
1294	0.0019159
1306	0.0018228
1318	0.0017052
1330	0.0018277
1342	0.0023373
1354	0.0026264
1366	0.0031115
1378	0.0037828
1390	0.0035133
1402	0.0023177
1414	0.0016513
1426	0.0016513
1438	0.0024451
1450	0.003724
1462	0.0047579
1474	0.0034594
1486	0.0015778
1498	0.0009065
1510	0.0006321
1522	0.0004606
1534	0.0003528
1546	0.0002695
1558	0.0002646
1570	0.000196
1582	0.0001421
1594	0.0001176
1606	0.0001127
1618	8.82e-05
1630	7.84e-05
1642	8.33e-05
1654	0.0001225
1666	6.37e-05
1678	6.86e-05
1690	5.88e-05
1702	7.35e-05
1714	6.86e-05
1726	6.37e-05
1738	6.86e-05
1750	4.9e-05
1762	2.94e-05
1774	4.41e-05
1786	3.43e-05
1798	1.47e-05
1810	0
1822	2.94e-05
1834	3.43e-05
1846	3.92e-05
1858	3.43e-05
1870	4.41e-05
1882	1.96e-05
1894	2.94e-05
1906	2.94e-05
1918	2.94e-05
1930	3.92e-05
1942	2.94e-05
1954	2.45e-05
1966	2.94e-05
1978	3.43e-05
1990	3.43e-05
2002	2.94e-05
2014	2.94e-05
2026	3.92e-05
2038	6.37e-05
2050	4.41e-05
2062	5.88e-05
2074	4.9e-05
2086	3.43e-05
2098	3.43e-05
2110	1.96e-05
2122	1.96e-05
2134	5.39e-05
2146	3.92e-05
2158	4.9e-05
2170	2.94e-05
2182	4.41e-05
2194	9.8e-06
2206	4.41e-05
2218	2.94e-05
2230	1.96e-05
2242	2.94e-05
2254	3.43e-05
2266	1.96e-05
2278	2.45e-05
2290	3.43e-05
2302	5.39e-05
2314	6.86e-05
2326	8.33e-05
2338	0.0001078
2350	8.82e-05
2362	7.84e-05
2374	9.8e-05
2386	4.9e-05
2398	6.86e-05
2410	8.33e-05
2422	8.33e-05
2434	4.9e-05
2446	6.86e-05
2458	7.35e-05
2470	7.35e-05
2482	6.37e-05
2494	8.33e-05
2506	7.84e-05
2518	0.0001078
2530	0.0001421
2542	0.0001568
2554	0.0001764
2566	0.0002107
2578	0.0002254
2590	0.000245
2602	0.0002597
2614	0.0003038
2626	0.0003773
2638	0.0004361
2650	0.0004851
2662	0.0005733
2674	0.0006174
2686	0.0006419
2698	0.0006223
2710	0.0006027
2722	0.0006811
2734	0.0007938
2746	0.0009016
2758	0.0009016
2770	0.0010094
2782	0.0012103
2794	0.0015092
2806	0.0019551
2818	0.0025627
2830	0.0037583
2842	0.0063847
2854	0.012446
2866	0.019208
2878	0.0192472
2890	0.0166159
2902	0.01764
2914	0.0259259
2926	0.0406749
2938	0.049
2950	0.0347361
2962	0.0291501
2974	0.0234759
2986	0.0095452
2998	0.0049833
3010	0.0031997
3022	0.0022295
3034	0.0016513
3046	0.0012397
3058	0.0009702
3070	0.0008281
3082	0.0007252
3094	0.0006272
3106	0.0005439
3118	0.0004508
3130	0.0003822
3142	0.0003724
3154	0.0003136
3166	0.0002793
3178	0.0002842
3190	0.0002303
3202	0.0002156
3214	0.000147
3226	8.33e-05
3238	8.82e-05
3250	8.33e-05
3262	6.86e-05
3274	2.45e-05
3286	1.47e-05
3298	2.94e-05
3310	3.92e-05
3322	5.39e-05
3334	4.41e-05
3346	2.45e-05
3358	6.37e-05
3370	8.82e-05
3382	8.82e-05
3394	9.8e-05
3406	0.0001225
3418	0.0001127
3430	0.0001176
3442	0.0001127
3454	9.8e-05
3466	9.8e-05
3478	8.82e-05
3490	5.88e-05
3502	8.33e-05
3514	5.39e-05
3526	9.8e-06
3538	1.96e-05
3550	7.35e-05
3562	8.33e-05
3574	5.88e-05
3586	0.0001176
3598	0.0001323
3610	0.0002254
3622	0.0004557
3634	0.0008036
3646	0.0014504
3658	0.0017297
3670	0.0008428
3682	0.0003675
3694	0.0002303
3706	0.0002009
3718	0.0001813
3730	0.0001568
3742	0.000147
3754	0.0001764
3766	0.0001127
3778	0.0001617
3790	0.0001764
3802	0.0002254
3814	0.0001862
3826	0.0001911
3838	0.0002646
