Infrared Spectrum: Benzenesulfonamide, N-isobutyl-,
Formula: C10 H15 N O2 S
CAS: 23705-39-7
State: SOLID (OIL MULL)
Class: COBLENTZ III
Instrument: BAIRD (GRATING)
Instrument parameters: NaCl PRISM
Resolution: 2
Origin: WYANDOTTE CHEMICALS CORP.
1/CM	TRANSMITTANCE
626	0.6155
635	0.6035
644	0.5686
653	0.5036
662	0.4123
671	0.3298
680	0.2034
689	0.2635
698	0.5687
707	0.5935
716	0.2641
725	0.2084
734	0.3718
743	0.4476
752	0.3107
761	0.2493
770	0.6978
779	0.9363
788	0.9859
797	0.9767
806	0.8557
815	0.4957
824	0.7741
833	0.7105
842	0.4026
851	0.5977
860	0.788
869	0.91
878	0.9767
887	0.9673
896	0.9655
905	0.9433
914	0.8383
923	0.5346
932	0.7005
941	0.8804
950	0.8674
959	0.8373
968	0.7418
977	0.7961
986	0.7934
995	0.7105
1004	0.7054
1013	0.6739
1022	0.5768
1031	0.5565
1040	0.4643
1049	0.3411
1058	0.1947
1067	0.1078
1076	0.2872
1085	0.4079
1094	0.1789
1103	0.2845
1112	0.4318
1121	0.4186
1130	0.3335
1139	0.2434
1148	0.1371
1157	0.1238
1166	0.1355
1175	0.1885
1184	0.2618
1193	0.3671
1202	0.4215
1211	0.4536
1220	0.4747
1229	0.4921
1238	0.4877
1247	0.4488
1256	0.4032
1265	0.4163
1274	0.422
1283	0.3733
1292	0.3228
1301	0.3394
1310	0.2565
1319	0.2024
1328	0.1631
1337	0.1901
1346	0.2896
1355	0.3853
1364	0.3919
1373	0.2832
1382	0.1964
1391	0.3277
1400	0.4858
1409	0.624
1418	0.6285
1427	0.4299
1436	0.1835
1445	0.1635
1454	0.058
1463	0.0303
1472	0.029
1481	0.0956
1490	0.3194
1499	0.6487
1508	0.7794
1517	0.8569
1526	0.8932
1535	0.9087
1544	0.9126
1553	0.9112
1562	0.9145
1571	0.9083
1580	0.9049
1589	0.8995
1598	0.8756
1607	0.8848
1616	0.8872
1625	0.873
1634	0.8693
1643	0.8668
1652	0.8616
1661	0.8535
1670	0.8473
1679	0.8423
1688	0.8391
1697	0.8381
1706	0.8472
1715	0.8625
1724	0.8618
1733	0.8589
1742	0.8553
1751	0.8508
1760	0.8464
1769	0.8427
1778	0.8401
1787	0.8366
1796	0.828
1805	0.8142
1814	0.8092
1823	0.8101
1832	0.8093
1841	0.8062
1850	0.8017
1859	0.7969
1868	0.7889
1877	0.7796
1886	0.7701
1895	0.7603
1904	0.7658
1913	0.7723
1922	0.7717
1931	0.7725
1940	0.7659
1949	0.7537
1958	0.7434
1967	0.7402
1976	0.7409
1985	0.7426
1994	0.7415
2003	0.7406
2012	0.7363
2021	0.732
2030	0.728
2039	0.724
2048	0.7197
2057	0.7153
2066	0.7111
2075	0.7065
2084	0.7019
2093	0.698
2102	0.6944
2111	0.6908
2120	0.6872
2129	0.6796
2138	0.6713
2147	0.6632
2156	0.6573
2165	0.6528
2174	0.6489
2183	0.6451
2192	0.6415
2201	0.6379
2210	0.6348
2219	0.6327
2228	0.6305
2237	0.6284
2246	0.6266
2255	0.6217
2264	0.6126
2273	0.6024
2282	0.5925
2291	0.5872
2300	0.5851
2309	0.5875
2318	0.5886
2327	0.5843
2336	0.5826
2345	0.5842
2354	0.5871
2363	0.5902
2372	0.5907
2381	0.5892
2390	0.5864
2399	0.5832
2408	0.5798
2417	0.5762
2426	0.5722
2435	0.5682
2444	0.5647
2453	0.5618
2462	0.5591
2471	0.5582
2480	0.5574
2489	0.5568
2498	0.5562
2507	0.5535
2516	0.5494
2525	0.5427
2534	0.5333
2543	0.5231
2552	0.5133
2561	0.5041
2570	0.4974
2579	0.4923
2588	0.4874
2597	0.4822
2606	0.4763
2615	0.4706
2624	0.4648
2633	0.4597
2642	0.4547
2651	0.4497
2660	0.446
2669	0.4426
2678	0.4408
2687	0.4393
2696	0.4401
2705	0.4419
2714	0.4464
2723	0.4496
2732	0.4514
2741	0.4505
2750	0.4474
2759	0.4347
2768	0.4071
2777	0.3754
2786	0.3364
2795	0.2481
2804	0.1604
2813	0.0855
2822	0.0502
2831	0.0325
2840	0.021
2849	0.0153
2858	0.0122
2867	0.0096
2876	0.0084
2885	0.0074
2894	0.0067
2903	0.006
2912	0.0056
2921	0.0055
2930	0.0054
2939	0.0062
2948	0.007
2957	0.0251
2966	0.0462
2975	0.0672
2984	0.0881
2993	0.1155
3002	0.1459
3011	0.1635
3020	0.1914
3029	0.2115
3038	0.2254
3047	0.2366
3056	0.246
3065	0.2527
3074	0.2582
3083	0.2606
3092	0.2601
3101	0.2587
3110	0.2566
3119	0.2528
3128	0.248
3137	0.2425
3146	0.2344
3155	0.224
3164	0.2117
3173	0.1986
3182	0.1855
3191	0.1664
3200	0.1457
3209	0.1324
3218	0.1197
3227	0.1059
3236	0.0978
3245	0.098
3254	0.1079
3263	0.1412
3272	0.1754
3281	0.2095
3290	0.2433
3299	0.2769
3308	0.3104
3317	0.345
3326	0.362
3335	0.3619
3344	0.3597
3353	0.3565
3362	0.3531
3371	0.35
3380	0.349
3389	0.349
3398	0.3494
3407	0.3497
3416	0.3502
3425	0.3507
3434	0.351
3443	0.3515
3452	0.3519
3461	0.3522
3470	0.3525
3479	0.3528
3488	0.3529
3497	0.3528
3506	0.3527
3515	0.3526
3524	0.3525
3533	0.3523
3542	0.3519
3551	0.3514
3560	0.3509
3569	0.3504
3578	0.3499
3587	0.3492
3596	0.3476
3605	0.3461
3614	0.3445
3623	0.343
3632	0.3414
3641	0.3396
3650	0.3379
3659	0.3362
3668	0.3345
3677	0.3328
3686	0.3318
3695	0.3308
3704	0.3298
3713	0.3288
3722	0.3279
3731	0.3271
3740	0.3264
3749	0.3257
3758	0.3249
3767	0.3242
3776	0.3235
3785	0.3228
3794	0.322
3803	0.3213
3812	0.3203
3821	0.3191
3830	0.3179
3839	0.3167
3848	0.3155
3857	0.3143
3866	0.3131
3875	0.3122
3884	0.3114
3893	0.3106
3902	0.3098
3911	0.309
3920	0.3082
3929	0.3073
3938	0.3065
3947	0.3056
3956	0.3048
3965	0.304
3974	0.3031
3983	0.3023
3992	0.3012
