Infrared Spectrum: Peroxycarbonic acid, OO-tert-butyl isopropyl ester
Formula: C8 H16 O4
CAS: 2372-21-6
State: SOLUTION (10% CCl4 FOR 3800-1330, 10% CS2 FOR 1330-400 CM^-^1) VS SOLVENT
Class: COBLENTZ III
Instrument: BECKMAN IR-9 (GRATING)
Instrument parameters: ORDER CHANGES: 670, 1200, 2000 CM^-^1
Sampling: TRANSMISSION
Path length: 0.011 CM, 0.011 CM
Resolution: 2
Origin: DOW CHEMICAL COMPANY
1/CM	TRANSMITTANCE
401	0.9077
410	0.9063
419	0.8718
428	0.8569
437	0.8548
446	0.8208
455	0.7767
464	0.7778
473	0.7533
482	0.7521
491	0.7834
500	0.812
509	0.8207
518	0.8252
527	0.8341
536	0.8412
545	0.84
554	0.8332
563	0.8157
572	0.7862
581	0.7854
590	0.8435
599	0.8558
608	0.8654
617	0.8725
626	0.8725
635	0.8671
644	0.8576
653	0.833
662	0.8598
671	0.8747
680	0.885
689	0.8785
698	0.8533
707	0.7907
716	0.7596
725	0.8342
734	0.8364
743	0.8163
752	0.725
761	0.5324
770	0.2861
779	0.6265
788	0.7779
797	0.7975
806	0.7894
815	0.541
824	0.7323
833	0.8077
842	0.8057
851	0.6436
860	0.4785
869	0.6535
878	0.7588
887	0.5555
896	0.6268
905	0.7334
914	0.4267
923	0.3535
932	0.6611
941	0.7498
950	0.802
959	0.8128
968	0.8165
977	0.8155
986	0.8088
995	0.7846
1004	0.736
1013	0.5395
1022	0.4252
1031	0.6287
1040	0.6902
1049	0.7419
1058	0.7562
1067	0.7474
1076	0.7012
1085	0.5461
1094	0.2275
1103	0.0092
1112	0.1268
1121	0.4166
1130	0.4559
1139	0.3577
1148	0.2684
1157	0.3197
1166	0.1751
1175	0.015
1184	0.0078
1193	0.0634
1202	0.2069
1211	0.1185
1220	0.0117
1229	0
1238	0
1247	0.027
1256	0.0918
1265	0.1077
1274	0.2616
1283	0.2048
1292	0.4163
1301	0.6252
1310	0.7054
1319	0.7096
1328	0.6249
1337	0.5052
1346	0.495
1355	0.3891
1364	0.1295
1373	0.2446
1382	0.4586
1391	0.3249
1400	0.6947
1409	0.7622
1418	0.7784
1427	0.7728
1436	0.7414
1445	0.6074
1454	0.3968
1463	0.4198
1472	0.3375
1481	0.5454
1490	0.7249
1499	0.77
1508	0.8041
1517	0.8315
1526	0.8421
1535	0.8447
1544	0.8532
1553	0.8748
1562	0.8874
1571	0.885
1580	0.8822
1589	0.8771
1598	0.859
1607	0.8482
1616	0.8417
1625	0.8363
1634	0.831
1643	0.8296
1652	0.8362
1661	0.8405
1670	0.8379
1679	0.8302
1688	0.8197
1697	0.8059
1706	0.7845
1715	0.7596
1724	0.7314
1733	0.575
1742	0.3012
1751	0.0679
1760	0.1563
1769	0.1999
1778	0.0099
1787	0
1796	0.0758
1805	0.4187
1814	0.6582
1823	0.7302
1832	0.7636
1841	0.7789
1850	0.7948
1859	0.8083
1868	0.8208
1877	0.8295
1886	0.8386
1895	0.8498
1904	0.8592
1913	0.8659
1922	0.8689
1931	0.8698
1940	0.8697
1949	0.8686
1958	0.8753
1967	0.8851
1976	0.8873
1985	0.887
1994	0.8799
2003	0.8822
2012	0.88
2021	0.8745
2030	0.8683
2039	0.8626
2048	0.8633
2057	0.867
2066	0.8716
2075	0.876
2084	0.8801
2093	0.8822
2102	0.8828
2111	0.8824
2120	0.8804
2129	0.878
2138	0.8746
2147	0.8706
2156	0.8706
2165	0.876
2174	0.8783
2183	0.8791
2192	0.8781
2201	0.8757
2210	0.8725
2219	0.868
2228	0.8635
2237	0.8564
2246	0.8484
2255	0.8409
2264	0.8417
2273	0.8448
2282	0.8498
2291	0.8543
2300	0.8621
2309	0.8688
2318	0.8729
2327	0.8745
2336	0.876
2345	0.8777
2354	0.879
2363	0.8796
2372	0.8798
2381	0.8777
2390	0.8727
2399	0.871
2408	0.8709
2417	0.8728
2426	0.8772
2435	0.876
2444	0.872
2453	0.8698
2462	0.8696
2471	0.8709
2480	0.8721
2489	0.8735
2498	0.8757
2507	0.8778
2516	0.8792
2525	0.8805
2534	0.8819
2543	0.8827
2552	0.8833
2561	0.8838
2570	0.8841
2579	0.8841
2588	0.8842
2597	0.8834
2606	0.882
2615	0.8796
2624	0.8775
2633	0.8758
2642	0.8764
2651	0.8782
2660	0.8808
2669	0.8828
2678	0.8824
2687	0.8782
2696	0.8735
2705	0.8687
2714	0.8668
2723	0.8691
2732	0.8672
2741	0.8621
2750	0.8655
2759	0.8715
2768	0.8705
2777	0.8682
2786	0.8638
2795	0.8574
2804	0.8431
2813	0.8263
2822	0.8197
2831	0.8236
2840	0.8226
2849	0.8047
2858	0.7344
2867	0.652
2876	0.6069
2885	0.6371
2894	0.6428
2903	0.5861
2912	0.579
2921	0.4198
2930	0.3408
2939	0.3928
2948	0.4827
2957	0.4845
2966	0.2997
2975	0.0967
2984	0.0315
2993	0.3729
3002	0.584
3011	0.7213
3020	0.7811
3029	0.8102
3038	0.8306
3047	0.8443
3056	0.8556
3065	0.8644
3074	0.8709
3083	0.8748
3092	0.8781
3101	0.8806
3110	0.8817
3119	0.8824
3128	0.8828
3137	0.8822
3146	0.8806
3155	0.8782
3164	0.8751
3173	0.8728
3182	0.8711
3191	0.8713
3200	0.8715
3209	0.8721
3218	0.8732
3227	0.8745
3236	0.8772
3245	0.8815
3254	0.8866
3263	0.8893
3272	0.8906
3281	0.8911
3290	0.8914
3299	0.8912
3308	0.8911
3317	0.8908
3326	0.8903
3335	0.8897
3344	0.8892
3353	0.8888
3362	0.8885
3371	0.8881
3380	0.8878
3389	0.8873
3398	0.887
3407	0.8865
3416	0.8861
3425	0.8857
3434	0.8852
3443	0.8846
3452	0.8842
3461	0.8836
3470	0.8836
3479	0.884
3488	0.8844
3497	0.8848
3506	0.8858
3515	0.8855
3524	0.8806
3533	0.8709
3542	0.8592
3551	0.851
3560	0.854
3569	0.8643
3578	0.8721
3587	0.8799
3596	0.8878
3605	0.8915
3614	0.8916
3623	0.8915
3632	0.8912
3641	0.8899
3650	0.8898
3659	0.8898
3668	0.8895
3677	0.8885
3686	0.8875
3695	0.8875
3704	0.8909
3713	0.8921
3722	0.8922
3731	0.8919
3740	0.8917
3749	0.891
3758	0.8903
3767	0.8904
3776	0.8906
3785	0.8916
3794	0.8926
