Infrared Spectrum: 4-Ethoxycinnamic acid
Formula: C 11 H 12 O 3
CAS: 2373-79-7
State: gas
Origin: EPA-IR VAPOR PHASE LIBRARY
1/CM	ABSORBANCE
549.9	0.009485
559.547	0.012245
569.193	0.012445
578.84	0.008335
588.486	0.004575
598.133	0.002715
607.779	0.002135
617.426	0.002305
627.072	0.003455
636.719	0.003445
646.365	0.002475
656.012	0.001328
665.658	0.0008287
675.305	0.0007939
684.951	0.0008179
694.598	0.0009703
704.245	0.0009605
713.891	0.0007521
723.538	0.0008785
733.184	0.0012205
742.831	0.001805
752.477	0.002035
762.124	0.001595
771.77	0.0013715
781.417	0.0014696
791.063	0.001585
800.71	0.002165
810.356	0.003285
820.003	0.005625
829.649	0.007025
839.296	0.005165
848.943	0.003215
858.589	0.002245
868.236	0.001835
877.882	0.001705
887.529	0.002215
897.175	0.003005
906.822	0.003175
916.468	0.003035
926.115	0.002935
935.761	0.002835
945.408	0.003145
955.054	0.002235
964.701	0.003035
974.347	0.004675
983.994	0.004795
993.64	0.003095
1003.29	0.002365
1012.93	0.002785
1022.58	0.003855
1032.23	0.006595
1041.87	0.009395
1051.52	0.008085
1061.17	0.004865
1070.81	0.004185
1080.46	0.005425
1090.11	0.009555
1099.75	0.019345
1109.4	0.042945
1119.05	0.048065
1128.69	0.019335
1138.34	0.013945
1147.99	0.021315
1157.63	0.024305
1167.28	0.016535
1176.92	0.015675
1186.57	0.005635
1196.22	0.004535
1205.86	0.004955
1215.51	0.007325
1225.16	0.013445
1234.8	0.027375
1244.45	0.035215
1254.1	0.029005
1263.74	0.016525
1273.39	0.011805
1283.04	0.011095
1292.68	0.011615
1302.33	0.010645
1311.98	0.007895
1321.62	0.005345
1331.27	0.004145
1340.92	0.005025
1350.56	0.008695
1360.21	0.010225
1369.86	0.005885
1379.5	0.003675
1389.15	0.004665
1398.79	0.004955
1408.44	0.003725
1418.09	0.004915
1427.73	0.003535
1437.38	0.002215
1447.03	0.002335
1456.67	0.002235
1466.32	0.002225
1475.97	0.004145
1485.61	0.005735
1495.26	0.005915
1504.91	0.020005
1514.55	0.022105
1524.2	0.004775
1533.85	0.002305
1543.49	0.001775
1553.14	0.001905
1562.79	0.002695
1572.43	0.004805
1582.08	0.005575
1591.73	0.009235
1601.37	0.018115
1611.02	0.017115
1620.67	0.008535
1630.31	0.011725
1639.96	0.017765
1649.6	0.007005
1659.25	0.002575
1668.9	0.001895
1678.54	0.001795
1688.19	0.001905
1697.84	0.002265
1707.48	0.003365
1717.13	0.004795
1726.78	0.007675
1736.42	0.016165
1746.07	0.037605
1755.72	0.043745
1765.36	0.020865
1775.01	0.009625
1784.66	0.006795
1794.3	0.005235
1803.95	0.003175
1813.6	0.001925
1823.24	0.0013556
1832.89	0.0011316
1842.54	0.0009439
1852.18	0.0009228
1861.83	0.0008452
1871.47	0.0008932
1881.12	0.0010839
1890.77	0.0010086
1900.41	0.0008251
1910.06	0.0006845
1919.71	0.00063604
1929.35	0.0007128
1939	0.0007648
1948.65	0.0007481
1958.29	0.0006773
1967.94	0.00060252
1977.59	0.00061327
1987.23	0.00063354
1996.88	0.00059811
2006.53	0.00062501
2016.17	0.0007246
2025.82	0.0008452
2035.47	0.0008464
2045.11	0.000878
2054.76	0.0008641
2064.41	0.0007568
2074.05	0.00062642
2083.7	0.0006231
2093.35	0.0006236
2102.99	0.00058503
2112.64	0.0005355
2122.28	0.000575562
2131.93	0.0005341
2141.58	0.0005091
2151.22	0.0005088
2160.87	0.000504
2170.52	0.000471
2180.16	0.0005071
2189.81	0.0005588
2199.46	0.0004941
2209.1	0.0005612
2218.75	0.00059454
2228.4	0.00057266
2238.04	0.00060724
2247.69	0.00060344
2257.34	0.0005573
2266.98	0.00061238
2276.63	0.0006106
2286.28	0.00062445
2295.92	0.00065228
2305.57	0.0006437
2315.22	0.0005443
2324.86	0.0005133
2334.51	0.0005042
2344.16	0.0005618
2353.8	0.00059075
2363.45	0.0005338
2373.09	0.0005336
2382.74	0.00058569
2392.39	0.0005798
2402.03	0.00066214
2411.68	0.0006866
2421.33	0.0006907
2430.97	0.0007499
2440.62	0.0007818
2450.27	0.0007861
2459.91	0.0008631
2469.56	0.0008645
2479.21	0.0009085
2488.85	0.0008611
2498.5	0.0008769
2508.15	0.0009302
2517.79	0.0009021
2527.44	0.0009555
2537.09	0.0009401
2546.73	0.0009429
2556.38	0.0008582
2566.03	0.0008058
2575.67	0.0008881
2585.32	0.0008265
2594.96	0.0007728
2604.61	0.0007456
2614.26	0.0007826
2623.9	0.0007479
2633.55	0.00066532
2643.2	0.0007702
2652.84	0.00060283
2662.49	0.00064556
2672.14	0.0006919
2681.78	0.0006799
2691.43	0.0007576
2701.08	0.0007245
2710.72	0.0007948
2720.37	0.0008483
2730.02	0.0009305
2739.66	0.0010365
2749.31	0.0009808
2758.96	0.0009919
2768.6	0.0009963
2778.25	0.0010898
2787.9	0.0009874
2797.54	0.0009299
2807.19	0.0009546
2816.84	0.0010597
2826.48	0.0010683
2836.13	0.0010786
2845.77	0.0012769
2855.42	0.001595
2865.07	0.001805
2874.71	0.002325
2884.36	0.003185
2894.01	0.003425
2903.65	0.003605
2913.3	0.003665
2922.95	0.003655
2932.59	0.003865
2942.24	0.004705
2951.89	0.003985
2961.53	0.003325
2971.18	0.004085
2980.83	0.005715
2990.47	0.006805
3000.12	0.004675
3009.77	0.002785
3019.41	0.002195
3029.06	0.002595
3038.71	0.003295
3048.35	0.002915
3058	0.002205
3067.64	0.002145
3077.29	0.002595
3086.94	0.001945
3096.58	0.001745
3106.23	0.0014181
3115.88	0.0010592
3125.52	0.0009437
3135.17	0.0006459
3144.82	0.0005202
3154.46	0.00060162
3164.11	0.000466
3173.76	0.0005054
3183.4	0.00044
3193.05	0.000518
3202.7	0.000289
3212.34	0.000352
3221.99	0.000471
3231.64	0.000395
3241.28	0.000315
3250.93	0.000359
3260.58	0.000195
3270.22	0.000259
3279.87	0.00024
3289.52	0.000156
3299.16	0.000238
3308.81	0.000295
3318.45	0.000239
3328.1	0.000124
3337.75	0.000157
3347.39	0.000171
3357.04	0.000286
3366.69	0.000129
3376.33	0.000181
3385.98	0.000275
3395.63	0.000237
3405.27	0.000152
3414.92	4e-06
3424.57	4.9e-05
3434.21	0.000296
3443.86	0.000193
3453.51	0.000396
3463.15	0.000367
3472.8	0.000307
3482.45	0.000455
3492.09	0.0005209
3501.74	0.00042
3511.39	0.000418
3521.03	0.000269
3530.68	0.000398
3540.33	0.000307
3549.97	0.00060122
3559.62	0.0008532
3569.26	0.002585
3578.91	0.013665
3588.56	0.014395
3598.2	0.001995
3607.85	0.00059795
3617.5	0.000459
3627.14	0.000343
3636.79	0.000417
3646.44	0.000271
3656.08	0.000323
3665.73	0.00037
3675.38	0.0002
3685.02	0.00039
3694.67	0.000304
3704.32	0.000286
3713.96	0.000312
3723.61	0.000293
3733.26	0.000334
3742.9	0.000403
3752.55	0.000292
3762.2	0.00028
3771.84	0.000374
3781.49	0.000368
3791.13	0.000382
3800.78	0.000385
3810.43	0.000363
3820.07	0.000256
3829.72	0.000383
3839.37	0.000321
3849.01	0.000474
3858.66	0.000316
3868.31	0.000301
3877.95	0.000463
3887.6	0.000366
3897.25	0.000454
3906.89	0.00042
3916.54	0.000583922
3926.19	0.000474
3935.83	0.0005327
3945.48	0.000452
3955.13	0.0005091
3964.77	0.0005187
3974.42	0.0005446
3984.07	0.0004767
3993.71	0.00057148
