Infrared Spectrum: 3,4-Methylendioxycinnamic acid
Formula: C 10 H 8 O 4
CAS: 2373-80-0
State: gas
Origin: EPA-IR VAPOR PHASE LIBRARY
1/CM	ABSORBANCE
549.8	0.001835
559.445	0.001695
569.09	0.0012704
578.734	0.001285
588.379	0.001325
598.024	0.002155
607.669	0.002285
617.313	0.001455
626.958	0.0010174
636.603	0.0010148
646.248	0.0010355
655.893	0.0009188
665.537	0.0006891
675.182	0.0005881
684.827	0.0005452
694.472	0.0006461
704.116	0.0007155
713.761	0.0005422
723.406	0.0006725
733.051	0.0005636
742.695	0.0005855
752.34	0.0006919
761.985	0.000576
771.63	0.0006823
781.275	0.0008
790.919	0.0010002
800.564	0.001825
810.209	0.002085
819.854	0.001395
829.498	0.0007932
839.143	0.0010012
848.788	0.001275
858.433	0.0010398
868.078	0.0009071
877.722	0.0008554
887.367	0.0007668
897.012	0.0009398
906.657	0.0009117
916.301	0.001003
925.946	0.001565
935.591	0.002005
945.236	0.002185
954.88	0.001555
964.525	0.001315
974.17	0.001835
983.815	0.001525
993.46	0.0011206
1003.1	0.0008667
1012.75	0.000881
1022.39	0.001365
1032.04	0.002145
1041.68	0.003645
1051.33	0.004165
1060.97	0.002865
1070.62	0.001895
1080.26	0.002045
1089.91	0.003415
1099.55	0.005355
1109.2	0.007705
1118.84	0.008005
1128.49	0.005265
1138.13	0.004295
1147.78	0.004565
1157.42	0.005485
1167.07	0.003505
1176.71	0.002005
1186.36	0.002235
1196	0.002895
1205.64	0.003065
1215.29	0.003795
1224.93	0.005105
1234.58	0.007155
1244.22	0.009675
1253.87	0.010495
1263.51	0.005755
1273.16	0.002975
1282.8	0.002335
1292.45	0.001915
1302.09	0.001865
1311.74	0.001815
1321.38	0.001755
1331.03	0.002195
1340.67	0.002655
1350.32	0.003165
1359.96	0.003565
1369.61	0.002675
1379.25	0.001705
1388.9	0.0011231
1398.54	0.0010478
1408.18	0.0010665
1417.83	0.0012014
1427.47	0.001625
1437.12	0.003125
1446.76	0.004875
1456.41	0.003005
1466.05	0.002075
1475.7	0.002755
1485.34	0.006475
1494.99	0.008155
1504.63	0.003345
1514.28	0.002285
1523.92	0.0011748
1533.57	0.0008355
1543.21	0.0006738
1552.86	0.0007031
1562.5	0.0006605
1572.15	0.0006342
1581.79	0.0007135
1591.44	0.0009054
1601.08	0.001605
1610.73	0.002105
1620.37	0.002255
1630.01	0.003005
1639.66	0.004395
1649.3	0.002525
1658.95	0.0009994
1668.59	0.0008455
1678.24	0.0008526
1687.88	0.0009044
1697.53	0.0009925
1707.17	0.001335
1716.82	0.001785
1726.46	0.002415
1736.11	0.004105
1745.75	0.009655
1755.4	0.011565
1765.04	0.006155
1774.69	0.002985
1784.33	0.002405
1793.98	0.001785
1803.62	0.0011871
1813.27	0.000915
1822.91	0.0008318
1832.55	0.0008498
1842.2	0.0008199
1851.84	0.0006784
1861.49	0.0006955
1871.13	0.0006884
1880.78	0.0006767
1890.42	0.0006073
1900.07	0.0006372
1909.71	0.0005816
1919.36	0.0004429
1929	0.0005506
1938.65	0.0005236
1948.29	0.0005438
1957.94	0.0005343
1967.58	0.0005246
1977.23	0.0005102
1986.87	0.0005102
1996.52	0.0005085
2006.16	0.000453
2015.81	0.0004861
2025.45	0.0005256
2035.1	0.0005636
2044.74	0.0005722
2054.38	0.000581
2064.03	0.0005586
2073.67	0.0004851
2083.32	0.0004808
2092.96	0.00047
2102.61	0.0004407
2112.25	0.0003894
2121.9	0.0004439
2131.54	0.0004475
2141.19	0.0004073
2150.83	0.0003799
2160.48	0.0004086
2170.12	0.0003925
2179.77	0.0004178
2189.41	0.0003801
2199.06	0.000382
2208.7	0.0004202
2218.35	0.0004247
2227.99	0.0004641
2237.64	0.0004622
2247.28	0.00037163
2256.92	0.0004082
2266.57	0.0003841
2276.21	0.0004641
2285.86	0.0004225
2295.5	0.0004465
2305.15	0.0004331
2314.79	0.0004408
2324.44	0.0004135
2334.08	0.0004461
2343.73	0.00030869
2353.37	0.000434
2363.02	0.00033312
2372.66	0.00029949
2382.31	0.0004039
2391.95	0.0003818
2401.6	0.00035879
2411.24	0.00032119
2420.89	0.0004173
2430.53	0.00034097
2440.18	0.0003868
2449.82	0.0004085
2459.47	0.0003851
2469.11	0.0003908
2478.75	0.0004236
2488.4	0.0004403
2498.04	0.0003844
2507.69	0.00032773
2517.33	0.0004082
2526.98	0.0004064
2536.62	0.0005135
2546.27	0.0004427
2555.91	0.0004329
2565.56	0.0003905
2575.2	0.0003816
2584.85	0.0004211
2594.49	0.0004569
2604.14	0.0003135
2613.78	0.0004255
2623.43	0.0004153
2633.07	0.00035627
2642.72	0.000386
2652.36	0.00033198
2662.01	0.0003778
2671.65	0.00035536
2681.29	0.000453
2690.94	0.0004356
2700.58	0.0004166
2710.23	0.00035002
2719.87	0.0003775
2729.52	0.00036932
2739.16	0.0004291
2748.81	0.0004682
2758.45	0.0004584
2768.1	0.0005375
2777.74	0.0006404
2787.39	0.000602
2797.03	0.0004394
2806.68	0.0003921
2816.32	0.0004399
2825.97	0.000446
2835.61	0.0006589
2845.26	0.0007103
2854.9	0.0006673
2864.55	0.000956
2874.19	0.0012673
2883.84	0.001305
2893.48	0.0012352
2903.12	0.0012589
2912.77	0.0012684
2922.41	0.001385
2932.06	0.0011719
2941.7	0.0010858
2951.35	0.0009757
2960.99	0.0010127
2970.64	0.0007491
2980.28	0.000635
2989.93	0.0006352
2999.57	0.000644
3009.22	0.0007356
3018.86	0.0008416
3028.51	0.0008873
3038.15	0.0007252
3047.8	0.0006898
3057.44	0.0005805
3067.09	0.0006438
3076.73	0.0007806
3086.38	0.0004979
3096.02	0.0005645
3105.67	0.0004897
3115.31	0.000274876
3124.95	0.00028568
3134.6	0.00033205
3144.24	0.00030828
3153.89	0.00029272
3163.53	0.0004259
3173.18	0.00029883
3182.82	0.0005128
3192.47	0.00028984
3202.11	0.00031609
3211.76	0.000277405
3221.4	0.0005892
3231.05	0.0002388
3240.69	0.000276471
3250.34	0.0002271
3259.98	0.0002473
3269.63	0.0004229
3279.27	0.00029697
3288.92	0.00033003
3298.56	0.000417
3308.21	0.0003923
3317.85	0.0004187
3327.49	0.00031314
3337.14	0.00029933
3346.78	0.0002149
3356.43	0.0003224
3366.07	0.0005453
3375.72	0.0004478
3385.36	0.0004667
3395.01	0.0003225
3404.65	0.0002437
3414.3	0.0004004
3423.94	0
3433.59	0.00036488
3443.23	0.0004283
3452.88	0.00029439
3462.52	0.00035674
3472.17	0.0003795
3481.81	0.0005266
3491.46	0.0005983
3501.1	0.0004571
3510.75	0.0004851
3520.39	0.000548
3530.04	0.0005016
3539.68	0.0004775
3549.32	0.00032775
3558.97	0.0005098
3568.61	0.000763
3578.26	0.003415
3587.9	0.004245
3597.55	0.0009741
3607.19	0.0004812
3616.84	0.0003975
3626.48	0.0003899
3636.13	0.0003899
3645.77	0.000631
3655.42	0.0005971
3665.06	0.000479
3674.71	0.00029301
3684.35	0.0005461
3694	0.0005274
3703.64	0.0005685
3713.29	0.0003897
3722.93	0.00031964
3732.58	0.00033652
3742.22	0.00033097
3751.86	0.00030824
3761.51	9.3e-05
3771.15	0.0004153
3780.8	0.00029801
3790.44	0.0003944
3800.09	0.0002539
3809.73	0.0003305
3819.38	0.00027206
3829.02	0.000396
3838.67	0.0004037
3848.31	0.0004795
3857.96	0.0002712
3867.6	0.0002347
3877.25	0.000231
3886.89	0.00031143
3896.54	0.0003786
3906.18	0.000564
3915.83	0.00029172
3925.47	0.000112
3935.12	0.0004213
3944.76	0.0003203
3954.41	0.0003825
3964.05	0.000274442
3973.69	0.00032163
3983.34	0.0003893
3992.98	0.00031661
