Infrared Spectrum: 5-CHLOROMETHYL SALICYLALDEHYDE
Formula: C8 H7 Cl O2
CAS: 23731-06-8
State: SOLUTION (SATURATED IN CCl4 FOR 5000-1300, SATURATED IN CS2 FOR 1300-625 CM^-^1)
Class: COBLENTZ
Instrument: Not specified, most likely a prism, grating, or hybrid spectrometer.
Sampling: TRANSMISSION
Path length: 0.01 CM, 0.01 CM
Resolution: 4
Origin: DOW CHEMICAL COMPANY
MICROMETERS	TRANSMITTANCE
2.014	0.843
2.0547	0.845
2.09539	0.848
2.13609	0.855
2.17679	0.859
2.21749	0.859
2.25818	0.86
2.29888	0.867
2.33958	0.869
2.38027	0.87
2.42097	0.874
2.46167	0.879
2.50236	0.879
2.54306	0.879
2.58376	0.884
2.62446	0.887
2.66515	0.889
2.70585	0.889
2.74655	0.882
2.78724	0.869
2.82794	0.854
2.86864	0.828
2.90934	0.8
2.95003	0.768
2.99073	0.741
3.03143	0.711
3.07212	0.704
3.11282	0.674
3.15352	0.645
3.19421	0.649
3.23491	0.674
3.27561	0.704
3.31631	0.728
3.357	0.758
3.3977	0.699
3.4384	0.75
3.47909	0.739
3.51979	0.597
3.56049	0.699
3.60119	0.751
3.64188	0.753
3.68258	0.761
3.72328	0.817
3.76397	0.845
3.80467	0.862
3.84537	0.867
3.88607	0.879
3.92676	0.889
3.96746	0.869
4.00816	0.89
4.04885	0.909
4.08955	0.904
4.13025	0.89
4.17094	0.904
4.21164	0.906
4.25234	0.899
4.29304	0.901
4.33373	0.907
4.37443	0.902
4.41513	0.914
4.45582	0.934
4.49652	0.944
4.53722	0.949
4.57792	0.947
4.61861	0.947
4.65931	0.947
4.70001	0.954
4.7407	0.951
4.7814	0.946
4.8221	0.946
4.86279	0.947
4.90349	0.947
4.94419	0.951
4.98489	0.949
5.02558	0.949
5.06628	0.954
5.10698	0.956
5.14767	0.947
5.18837	0.942
5.22907	0.936
5.26977	0.947
5.31046	0.947
5.35116	0.949
5.39186	0.947
5.43255	0.946
5.47325	0.947
5.51395	0.947
5.55464	0.941
5.59534	0.937
5.63604	0.936
5.67674	0.937
5.71743	0.911
5.75813	0.887
5.79883	0.84
5.83952	0.798
5.88022	0.802
5.92092	0.671
5.96162	0.375
6.00231	0.077
6.04301	0.105
6.08371	0.51
6.1244	0.525
6.1651	0.538
6.2058	0.649
6.2465	0.456
6.28719	0.327
6.32789	0.479
6.36859	0.528
6.40928	0.503
6.44998	0.451
6.49068	0.484
6.53137	0.557
6.57207	0.58
6.61277	0.609
6.65347	0.62
6.69416	0.449
6.73486	0.199
6.77556	0.52
6.81625	0.617
6.85695	0.6
6.89765	0.592
6.93835	0.674
6.97904	0.763
7.01974	0.736
7.06044	0.709
7.10113	0.711
7.14183	0.738
7.18253	0.75
7.22322	0.639
7.26392	0.486
7.30462	0.622
7.34532	0.687
7.38601	0.686
7.42671	0.697
7.46741	0.709
7.5081	0.598
7.5488	0.546
7.5895	0.624
7.6302	0.689
7.67089	0.634
7.71159	0.387
7.75229	0.171
7.79298	0.379
7.83368	0.429
7.87438	0.26
7.91507	0.192
7.95577	0.411
7.99647	0.464
8.03717	0.454
8.07786	0.649
8.11856	0.697
8.15926	0.662
8.19995	0.55
8.24065	0.243
8.28135	0.179
8.32205	0.463
8.36274	0.619
8.40344	0.699
8.44414	0.736
8.48483	0.736
8.52553	0.719
8.56623	0.697
8.60692	0.629
8.64762	0.471
8.68832	0.305
8.72902	0.224
8.76971	0.5
8.81041	0.694
8.85111	0.758
8.8918	0.778
8.9325	0.818
8.9732	0.847
9.0139	0.862
9.05459	0.864
9.09529	0.869
9.13599	0.869
9.17668	0.869
9.21738	0.867
9.25808	0.857
9.29878	0.852
9.33947	0.86
9.38017	0.865
9.42087	0.869
9.46156	0.865
9.50226	0.862
9.54296	0.869
9.58365	0.872
9.62435	0.88
9.66505	0.887
9.70575	0.895
9.74644	0.897
9.78714	0.897
9.82784	0.902
9.86853	0.906
9.90923	0.897
9.94993	0.882
9.99063	0.89
10.0313	0.892
10.072	0.882
10.1127	0.879
10.1534	0.887
10.1941	0.899
10.2348	0.916
10.2755	0.931
10.3162	0.944
10.3569	0.942
10.3976	0.937
10.4383	0.924
10.479	0.879
10.5197	0.765
10.5604	0.719
10.6011	0.835
10.6418	0.88
10.6825	0.887
10.7232	0.885
10.7639	0.877
10.8046	0.869
10.8453	0.86
10.886	0.847
10.9267	0.812
10.9674	0.78
11.0081	0.758
11.0487	0.75
11.0894	0.765
11.1301	0.78
11.1708	0.79
11.2115	0.78
11.2522	0.768
11.2929	0.763
11.3336	0.761
11.3743	0.765
11.415	0.758
11.4557	0.75
11.4964	0.744
11.5371	0.731
11.5778	0.719
11.6185	0.699
11.6592	0.689
11.6999	0.679
11.7406	0.676
11.7813	0.674
11.822	0.681
11.8627	0.661
11.9034	0.57
11.9441	0.458
11.9848	0.406
12.0255	0.501
12.0662	0.609
12.1069	0.687
12.1476	0.728
12.1883	0.751
12.229	0.766
12.2697	0.768
12.3104	0.763
12.3511	0.748
12.3918	0.713
12.4324	0.629
12.4731	0.609
12.5138	0.686
12.5545	0.723
12.5952	0.736
12.6359	0.741
12.6766	0.741
12.7173	0.739
12.758	0.733
12.7987	0.719
12.8394	0.694
12.8801	0.625
12.9208	0.489
12.9615	0.325
13.0022	0.327
13.0429	0.513
13.0836	0.578
13.1243	0.587
13.165	0.57
13.2057	0.533
13.2464	0.478
13.2871	0.417
13.3278	0.369
13.3685	0.303
13.4092	0.236
13.4499	0.174
13.4906	0.157
13.5313	0.236
13.572	0.335
13.6127	0.421
13.6534	0.446
13.6941	0.447
13.7348	0.437
13.7755	0.429
13.8161	0.417
13.8568	0.411
13.8975	0.404
13.9382	0.401
13.9789	0.399
14.0196	0.395
14.0603	0.387
14.101	0.377
14.1417	0.36
14.1824	0.338
14.2231	0.303
14.2638	0.268
14.3045	0.238
14.3452	0.209
14.3859	0.194
14.4266	0.187
14.4673	0.192
14.508	0.211
14.5487	0.234
14.5894	0.26
14.6301	0.286
14.6708	0.307
14.7115	0.313
14.7522	0.308
14.7929	0.283
14.8336	0.266
14.8743	0.256
14.915	0.26
14.9557	0.302
14.9964	0.345
15.0371	0.375
15.0778	0.39
15.1185	0.395
15.1592	0.407
15.1998	0.411
15.2405	0.412
15.2812	0.416
15.3219	0.419
15.3626	0.421
15.4033	0.422
15.444	0.422
15.4847	0.424
15.5254	0.424
15.5661	0.421
15.6068	0.417
15.6475	0.412
15.6882	0.409
15.7289	0.404
15.7696	0.401
15.8103	0.394
15.851	0.387
15.8917	0.385
