Infrared Spectrum: 4-Amino-3-hydroxybenzoic acid
Formula: C 7 H 7 N O 3
CAS: 2374-03-0
State: gas
Instrument: HP-GC/MS/IRD
Origin: NIST Mass Spectrometry Data Center
1/CM	ABSORBANCE
550	0.0013797
562	0.0013779
574	0.0012591
586	0.0010494
598	0.0009945
610	0.0009486
622	0.0011871
634	0.0015039
646	0.0016668
658	0.0015615
670	0.0014031
682	0.0014769
694	0.001629
706	0.0022788
718	0.0042777
730	0.0071244
742	0.0077625
754	0.0056862
766	0.0030015
778	0.0014382
790	0.0008532
802	0.0006498
814	0.0006111
826	0.000603
838	0.0007821
850	0.0011961
862	0.0012501
874	0.0009288
886	0.000432
898	0.0003168
910	0.0003375
922	0.000324
934	0.00018
946	5.13e-05
958	1.89e-05
970	3.96e-05
982	5.58e-05
994	7.74e-05
1006	0.0001737
1018	0.000405
1030	0.0005715
1042	0.0005319
1054	0.0004653
1066	0.0006246
1078	0.0007686
1090	0.0008217
1102	0.0011763
1114	0.0024282
1126	0.0037782
1138	0.0041544
1150	0.0040536
1162	0.0047934
1174	0.0049464
1186	0.0039267
1198	0.003222
1210	0.0033948
1222	0.003978
1234	0.0043848
1246	0.0042624
1258	0.0052101
1270	0.0068472
1282	0.0064278
1294	0.0034938
1306	0.0016164
1318	0.0016299
1330	0.0015597
1342	0.0011853
1354	0.0007884
1366	0.0006075
1378	0.0004797
1390	0.0003816
1402	0.000261
1414	0.0001638
1426	0.0001836
1438	0.0003573
1450	0.0008226
1462	0.0012843
1474	0.0019809
1486	0.0043398
1498	0.0072873
1510	0.0080334
1522	0.0051201
1534	0.0019125
1546	0.0008046
1558	0.0008991
1570	0.0013572
1582	0.0021339
1594	0.0027927
1606	0.0033327
1618	0.0045054
1630	0.0044721
1642	0.002673
1654	0.0010458
1666	0.0005166
1678	0.0003375
1690	0.0002286
1702	0.000198
1714	0.0001863
1726	0.0002061
1738	0.0002124
1750	0.000189
1762	0.0002061
1774	0.0001755
1786	0.0001476
1798	0.0001206
1810	8.46e-05
1822	6.57e-05
1834	7.11e-05
1846	0.0001278
1858	0.0001719
1870	0.0001485
1882	0.0001593
1894	0.0001512
1906	0.0001494
1918	0.000117
1930	4.05e-05
1942	2.16e-05
1954	7.2e-06
1966	2.25e-05
1978	2.07e-05
1990	3.96e-05
2002	2.79e-05
2014	3.87e-05
2026	7.74e-05
2038	5.85e-05
2050	4.05e-05
2062	2.16e-05
2074	1.89e-05
2086	3.96e-05
2098	4.23e-05
2110	2.61e-05
2122	1.8e-05
2134	1.8e-05
2146	9e-06
2158	2.7e-06
2170	1.71e-05
2182	2.16e-05
2194	2.43e-05
2206	9e-06
2218	0
2230	1.8e-05
2242	2.07e-05
2254	6.57e-05
2266	4.32e-05
2278	4.32e-05
2290	4.05e-05
2302	5.4e-05
2314	5.67e-05
2326	6.66e-05
2338	7.56e-05
2350	6.12e-05
2362	0.0001071
2374	7.47e-05
2386	7.11e-05
2398	6.66e-05
2410	8.37e-05
2422	6.3e-05
2434	5.31e-05
2446	9.9e-05
2458	0.000135
2470	0.0001404
2482	0.0001134
2494	8.82e-05
2506	4.41e-05
2518	2.7e-05
2530	2.7e-05
2542	2.43e-05
2554	4.05e-05
2566	5.58e-05
2578	4.14e-05
2590	5.4e-05
2602	6.48e-05
2614	7.47e-05
2626	6.21e-05
2638	6.48e-05
2650	7.56e-05
2662	5.22e-05
2674	4.86e-05
2686	5.4e-05
2698	9.9e-06
2710	3.42e-05
2722	3.78e-05
2734	2.52e-05
2746	9.9e-06
2758	3.78e-05
2770	2.97e-05
2782	4.95e-05
2794	2.16e-05
2806	1.44e-05
2818	3.51e-05
2830	3.6e-05
2842	4.5e-05
2854	3.06e-05
2866	3.6e-05
2878	4.77e-05
2890	1.53e-05
2902	3.15e-05
2914	5.13e-05
2926	5.94e-05
2938	4.5e-05
2950	4.5e-05
2962	6.3e-05
2974	8.55e-05
2986	9.9e-05
2998	0.0002349
3010	0.0006012
3022	0.0012537
3034	0.0019278
3046	0.0020997
3058	0.0020196
3070	0.0018792
3082	0.001611
3094	0.0010377
3106	0.0005472
3118	0.0002907
3130	0.0001611
3142	7.92e-05
3154	3.15e-05
3166	4.05e-05
3178	7.56e-05
3190	0.0001224
3202	0.0001008
3214	0.0001368
3226	0.0001251
3238	8.73e-05
3250	8.55e-05
3262	5.58e-05
3274	5.04e-05
3286	7.2e-05
3298	6.3e-05
3310	7.47e-05
3322	8.55e-05
3334	0.000135
3346	0.0001791
3358	0.0002799
3370	0.000387
3382	0.0005112
3394	0.0007452
3406	0.000936
3418	0.0009855
3430	0.0006948
3442	0.0005049
3454	0.000432
3466	0.0005868
3478	0.0008937
3490	0.0012222
3502	0.001467
3514	0.0014589
3526	0.0012996
3538	0.0009756
3550	0.0007731
3562	0.0006624
3574	0.0005967
3586	0.0005265
3598	0.000486
3610	0.0004356
3622	0.0004302
3634	0.0006696
3646	0.0016776
3658	0.0024003
3670	0.0021555
3682	0.000648
3694	0.0002268
3706	0.0001881
3718	0.000117
3730	0.0001062
3742	0.0001053
3754	7.11e-05
3766	5.13e-05
3778	3.15e-05
3790	8.55e-05
3802	5.85e-05
3814	4.95e-05
3826	4.23e-05
3838	3.69e-05
