Infrared Spectrum: 1-Chloro-1,1-difluoroacetylacetone
Formula: C 5 H 5 Cl F 2 O 2
CAS: 2375-76-0
State: gas
Origin: EPA-IR VAPOR PHASE LIBRARY
1/CM	ABSORBANCE
549.9	0.00145
559.547	0.00139
569.193	0.00138
578.84	0.0010555
588.486	0.0007256
598.133	0.0007399
607.779	0.0005263
617.426	0.000565
627.072	0.0005079
636.719	0.000562
646.365	0.0005606
656.012	0.00043604
665.658	0.00044792
675.305	0.00043445
684.951	0.0005827
694.598	0.000602
704.245	0.0007632
713.891	0.0010678
723.538	0.0012035
733.184	0.0012701
742.831	0.0012249
752.477	0.00157
762.124	0.00248
771.77	0.00449
781.417	0.00554
791.063	0.00412
800.71	0.00333
810.356	0.00381
820.003	0.00409
829.649	0.00295
839.296	0.00205
848.943	0.00177
858.589	0.00171
868.236	0.00177
877.882	0.00187
887.529	0.0019
897.175	0.00198
906.822	0.00242
916.468	0.00343
926.115	0.00436
935.761	0.0044
945.408	0.00438
955.054	0.00592
964.701	0.00795
974.347	0.00787
983.994	0.00634
993.64	0.0052
1003.29	0.00462
1012.93	0.00398
1022.58	0.0032
1032.23	0.00261
1041.87	0.00255
1051.52	0.00274
1061.17	0.00308
1070.81	0.00362
1080.46	0.00499
1090.11	0.00827
1099.75	0.01216
1109.4	0.01088
1119.05	0.00718
1128.69	0.00684
1138.34	0.00858
1147.99	0.01061
1157.63	0.01081
1167.28	0.00888
1176.92	0.00728
1186.57	0.00672
1196.22	0.00549
1205.86	0.00433
1215.51	0.00446
1225.16	0.00525
1234.8	0.00609
1244.45	0.00711
1254.1	0.00674
1263.74	0.00556
1273.39	0.00394
1283.04	0.00305
1292.68	0.00277
1302.33	0.00282
1311.98	0.00302
1321.62	0.00311
1331.27	0.00309
1340.92	0.00291
1350.56	0.0029
1360.21	0.00312
1369.86	0.00309
1379.5	0.00274
1389.15	0.00272
1398.79	0.00287
1408.44	0.0033
1418.09	0.00368
1427.73	0.00369
1437.38	0.00337
1447.03	0.00306
1456.67	0.00271
1466.32	0.00233
1475.97	0.00205
1485.61	0.00186
1495.26	0.00174
1504.91	0.00179
1514.55	0.00179
1524.2	0.00196
1533.85	0.00223
1543.49	0.00275
1553.14	0.00338
1562.79	0.00438
1572.43	0.00594
1582.08	0.00845
1591.73	0.01201
1601.37	0.01556
1611.02	0.01646
1620.67	0.01344
1630.31	0.00951
1639.96	0.00739
1649.6	0.00682
1659.25	0.00647
1668.9	0.0057
1678.54	0.00446
1688.19	0.00326
1697.84	0.00259
1707.48	0.00228
1717.13	0.00244
1726.78	0.00295
1736.42	0.00369
1746.07	0.00352
1755.72	0.00299
1765.36	0.00283
1775.01	0.00248
1784.66	0.00172
1794.3	0.0010761
1803.95	0.000712
1813.6	0.0005966
1823.24	0.0005192
1832.89	0.00044106
1842.54	0.00043415
1852.18	0.00038813
1861.83	0.0003469
1871.47	0.00039059
1881.12	0.0003416
1890.77	0.00038153
1900.41	0.000312
1910.06	0.0003341
1919.71	0.000332
1929.35	0.0002754
1939	0.0003388
1948.65	0.00035601
1958.29	0.0002793
1967.94	0.0003091
1977.59	0.0003077
1987.23	0.0003019
1996.88	0.0002779
2006.53	0.0002682
2016.17	0.000299
2025.82	0.0002921
2035.47	0.000218
2045.11	0.0003134
2054.76	0.0003166
2064.41	0.000243
2074.05	0.0002759
2083.7	0.0002617
2093.35	0.0003071
2102.99	0.0003337
2112.64	0.000312
2122.28	0.0003137
2131.93	0.0003176
2141.58	0.0003227
2151.22	0.0003194
2160.87	0.0002837
2170.52	0.000259
2180.16	0.0002987
2189.81	0.0002977
2199.46	0.0003129
2209.1	0.00031
2218.75	0.000367961
2228.4	0.0003312
2238.04	0.0003134
2247.69	0.0003018
2257.34	0.0003193
2266.98	0.00035608
2276.63	0.0003124
2286.28	0.0002927
2295.92	0.000360016
2305.57	0.0003411
2315.22	0.000338
2324.86	0.0003156
2334.51	0.00037841
2344.16	0.0003327
2353.8	0.00035722
2363.45	0.0003202
2373.09	0.0003443
2382.74	0.0003187
2392.39	0.00035319
2402.03	0.0003176
2411.68	0.0003292
2421.33	0.0002934
2430.97	0.0003319
2440.62	0.0003257
2450.27	0.0003435
2459.91	0.00035611
2469.56	0.000327
2479.21	0.0003273
2488.85	0.0003174
2498.5	0.0003475
2508.15	0.000362141
2517.79	0.00039442
2527.44	0.00041744
2537.09	0.00044613
2546.73	0.0003436
2556.38	0.000362594
2566.03	0.0004476
2575.67	0.00037458
2585.32	0.000337
2594.96	0.000363817
2604.61	0.000259
2614.26	0.00035119
2623.9	0.000368816
2633.55	0.000335
2643.2	0.000301
2652.84	0.000362002
2662.49	0.00038729
2672.14	0.000271
2681.78	0.0003492
2691.43	0.0003495
2701.08	0.00041874
2710.72	0.00038571
2720.37	0.00038836
2730.02	0.00035017
2739.66	0.00044239
2749.31	0.00045863
2758.96	0.00038613
2768.6	0.0003166
2778.25	0.00039529
2787.9	0.00043971
2797.54	0.000367748
2807.19	0.0004622
2816.84	0.00043697
2826.48	0.0005293
2836.13	0.000513
2845.77	0.0006105
2855.42	0.00045208
2865.07	0.00045979
2874.71	0.0005154
2884.36	0.00044592
2894.01	0.0005166
2903.65	0.0005547
2913.3	0.0004994
2922.95	0.00040368
2932.59	0.000674
2942.24	0.000646
2951.89	0.00041792
2961.53	0.000508
2971.18	0.0006201
2980.83	0.0006203
2990.47	0.0005361
3000.12	0.000727
3009.77	0.0005614
3019.41	0.0006238
3029.06	0.0006083
3038.71	0.0004647
3048.35	0.00043224
3058	0.00039736
3067.64	0.0004837
3077.29	0.0004612
3086.94	0.0005383
3096.58	0.0004889
3106.23	0.00044645
3115.88	0.0004847
3125.52	0.00035507
3135.17	0.0003168
3144.82	0.0004674
3154.46	0.00042499
3164.11	0.0002986
3173.76	0.0002696
3183.4	0.0002982
3193.05	0.000223
3202.7	0.000207
3212.34	0.0002624
3221.99	0.0004834
3231.64	0.000231
3241.28	0.000259
3250.93	0.0002881
3260.58	0.0002999
3270.22	0.000213
3279.87	0.0005056
3289.52	0.000187
3299.16	0.000196
3308.81	0.0002896
3318.45	0.000155
3328.1	0.0002912
3337.75	0.0002746
3347.39	0.000203
3357.04	0.000226
3366.69	0.0002808
3376.33	0.000226
3385.98	0.000191
3395.63	0.0002855
3405.27	0.000153
3414.92	0.000131
3424.57	0.000219
3434.21	0.000364962
3443.86	0.0002608
3453.51	0.000259
3463.15	0.000213
3472.8	0.000225
3482.45	0.000222
3492.09	0.0002611
3501.74	0.000242
3511.39	0.000212
3521.03	0.00038009
3530.68	0.000208
3540.33	9.5e-05
3549.97	0.00018
3559.62	0.00017
3569.26	0.0002753
3578.91	0.000131
3588.56	0.000151
3598.2	0.000213
3607.85	9.3e-05
3617.5	8.6e-05
3627.14	0.000129
3636.79	0.000136
3646.44	0.000113
3656.08	4.8e-05
3665.73	0.000226
3675.38	0.000211
3685.02	0.0002968
3694.67	0.000204
3704.32	0.000152
3713.96	0.0003164
3723.61	0.000135
3733.26	0.000215
3742.9	9.5e-05
3752.55	0.000365902
3762.2	0.000169
3771.84	0.000209
3781.49	0.000195
3791.13	0.000151
3800.78	0.000125
3810.43	0.000184
3820.07	0.000236
3829.72	0.000239
3839.37	0.0003358
3849.01	0.0002661
3858.66	0.000173
3868.31	0.00017
3877.95	0.000199
3887.6	0.000191
3897.25	1.9e-05
3906.89	0.000308
3916.54	0.0002752
3926.19	0.000207
3935.83	0.000171
3945.48	0.000194
3955.13	0.000225
3964.77	0.00017
3974.42	0.0002
3984.07	0.000154
3993.71	0.00022
