Infrared Spectrum: HEXABORANE
Formula: B6 H10
CAS: 23777-80-2
State: VAPOR AT 15 mmHg PRESSURE;
Class: COBLENTZ
Instrument: Not specified, most likely a prism, grating, or hybrid spectrometer.
Sampling: TRANSMISSION
Path length: 5 CM
Resolution: 4
Origin: KALLERY CHEMICAL COMPANY
1/CM	TRANSMITTANCE
631.105	0.65
639.55	0.665
647.995	0.689
656.439	0.714
664.884	0.732
673.329	0.742
681.774	0.751
690.218	0.773
698.663	0.788
707.108	0.82
715.553	0.848
723.997	0.853
732.442	0.838
740.887	0.81
749.332	0.754
757.776	0.776
766.221	0.811
774.666	0.865
783.111	0.905
791.555	0.932
800	0.947
808.445	0.954
816.89	0.961
825.334	0.959
833.779	0.959
842.224	0.952
850.669	0.937
859.113	0.895
867.558	0.82
876.003	0.732
884.448	0.707
892.892	0.744
901.337	0.811
909.782	0.863
918.227	0.89
926.671	0.907
935.116	0.924
943.561	0.932
952.006	0.931
960.45	0.927
968.895	0.921
977.34	0.922
985.785	0.929
994.229	0.931
1002.67	0.915
1011.12	0.895
1019.56	0.88
1028.01	0.882
1036.45	0.894
1044.9	0.914
1053.34	0.914
1061.79	0.9
1070.23	0.882
1078.68	0.867
1087.12	0.863
1095.57	0.87
1104.01	0.885
1112.46	0.9
1120.9	0.91
1129.35	0.922
1137.79	0.927
1146.23	0.927
1154.68	0.924
1163.12	0.921
1171.57	0.919
1180.01	0.921
1188.46	0.921
1196.9	0.922
1205.35	0.921
1213.79	0.921
1222.24	0.919
1230.68	0.914
1239.13	0.905
1247.57	0.887
1256.02	0.87
1264.46	0.85
1272.91	0.838
1281.35	0.836
1289.8	0.835
1298.24	0.838
1306.69	0.836
1315.13	0.835
1323.57	0.835
1332.02	0.836
1340.46	0.838
1348.91	0.836
1357.35	0.836
1365.8	0.842
1374.24	0.85
1382.69	0.855
1391.13	0.852
1399.58	0.843
1408.02	0.83
1416.47	0.818
1424.91	0.803
1433.36	0.783
1441.8	0.754
1450.25	0.7
1458.69	0.64
1467.14	0.568
1475.58	0.497
1484.03	0.45
1492.47	0.453
1500.91	0.531
1509.36	0.684
1517.8	0.764
1526.25	0.82
1534.69	0.83
1543.14	0.818
1551.58	0.813
1560.03	0.82
1568.47	0.823
1576.92	0.853
1585.36	0.884
1593.81	0.902
1602.25	0.915
1610.7	0.919
1619.14	0.921
1627.59	0.921
1636.03	0.926
1644.48	0.926
1652.92	0.934
1661.36	0.936
1669.81	0.927
1678.25	0.909
1686.7	0.89
1695.14	0.894
1703.59	0.894
1712.03	0.889
1720.48	0.892
1728.92	0.899
1737.37	0.912
1745.81	0.927
1754.26	0.934
1762.7	0.936
1771.15	0.934
1779.59	0.934
1788.04	0.934
1796.48	0.934
1804.93	0.934
1813.37	0.934
1821.82	0.934
1830.26	0.931
1838.7	0.926
1847.15	0.919
1855.59	0.914
1864.04	0.905
1872.48	0.899
1880.93	0.89
1889.37	0.882
1897.82	0.868
1906.26	0.853
1914.71	0.842
1923.15	0.826
1931.6	0.816
1940.04	0.815
1948.49	0.825
1956.93	0.847
1965.38	0.872
1973.82	0.897
1982.27	0.919
1990.71	0.937
1999.16	0.951
2007.6	0.9563
2016.04	0.957
2024.49	0.959
2032.93	0.961
2041.38	0.963
2049.82	0.964
2058.27	0.966
2066.71	0.9677
2075.16	0.968
2083.6	0.9688
2092.05	0.971
2100.49	0.973
2108.94	0.973
2117.38	0.973
2125.83	0.976
2134.27	0.976
2142.72	0.9769
2151.16	0.978
2159.61	0.978
2168.05	0.979
2176.49	0.979
2184.94	0.981
2193.38	0.981
2201.83	0.983
2210.27	0.9835
2218.72	0.984
2227.16	0.9851
2235.61	0.986
2244.05	0.986
2252.5	0.988
2260.94	0.989
2269.39	0.991
2277.83	0.9922
2286.28	0.993
2294.72	0.9918
2303.17	0.993
2311.61	0.993
2320.06	0.991
2328.5	0.991
2336.95	0.991
2345.39	0.991
2353.83	0.991
2362.28	0.991
2370.72	0.991
2379.17	0.989
2387.61	0.989
2396.06	0.991
2404.5	0.991
2412.95	0.991
2421.39	0.991
2429.84	0.991
2438.28	0.989
2446.73	0.989
2455.17	0.9887
2463.62	0.988
2472.06	0.9853
2480.51	0.983
2488.95	0.9786
2497.4	0.9745
2505.84	0.962
2514.29	0.9474
2522.73	0.8995
2531.17	0.8166
2539.62	0.6161
2548.06	0.46
2556.51	0.2499
2564.95	0.1691
2573.4	0.1695
2581.84	0.186
2590.29	0.2351
2598.73	0.3276
2607.18	0.4964
2615.62	0.8193
2624.07	0.9134
2632.51	0.9475
2640.96	0.9622
2649.4	0.9712
2657.85	0.9752
2666.29	0.9783
2674.74	0.9822
2683.18	0.9843
2691.62	0.986
2700.07	0.988
2708.51	0.988
2716.96	0.9882
2725.4	0.989
2733.85	0.988
2742.29	0.986
2750.74	0.984
2759.18	0.9816
2767.63	0.979
2776.07	0.9782
2784.52	0.9737
2792.96	0.9695
2801.41	0.9614
2809.85	0.9544
2818.3	0.9511
2826.74	0.9474
2835.19	0.9434
2843.63	0.9412
2852.08	0.941
2860.52	0.941
2868.96	0.939
2877.41	0.937
2885.85	0.936
2894.3	0.9313
2902.74	0.9266
2911.19	0.9241
2919.63	0.924
2928.08	0.924
2936.52	0.924
2944.97	0.924
2953.41	0.9315
2961.86	0.9419
2970.3	0.9494
2978.75	0.956
2987.19	0.962
2995.64	0.966
3004.08	0.968
3012.53	0.9711
3020.97	0.973
3029.41	0.9731
3037.86	0.974
3046.3	0.974
3054.75	0.974
3063.19	0.9742
3071.64	0.9748
3080.08	0.974
3088.53	0.974
3096.97	0.974
3105.42	0.9733
3113.86	0.973
3122.31	0.9716
3130.75	0.971
3139.2	0.9696
3147.64	0.968
3156.09	0.968
3164.53	0.966
3172.98	0.964
3181.42	0.9655
3189.87	0.964
3198.31	0.9624
3206.75	0.963
3215.2	0.963
3223.64	0.963
3232.09	0.961
3240.53	0.9593
3248.98	0.957
3257.42	0.9561
3265.87	0.957
3274.31	0.957
3282.76	0.956
3291.2	0.956
3299.65	0.956
3308.09	0.954
3316.54	0.954
3324.98	0.954
3333.43	0.954
3341.87	0.954
3350.32	0.954
3358.76	0.954
3367.21	0.954
3375.65	0.954
3384.09	0.9531
3392.54	0.954
3400.98	0.956
3409.43	0.956
3417.87	0.9548
3426.32	0.956
3434.76	0.956
3443.21	0.957
3451.65	0.956
3460.1	0.9573
3468.54	0.959
3476.99	0.9587
3485.43	0.961
3493.88	0.963
3502.32	0.9637
3510.77	0.964
3519.21	0.964
3527.66	0.966
3536.1	0.968
3544.54	0.9682
3552.99	0.969
3561.43	0.971
3569.88	0.971
3578.32	0.974
3586.77	0.974
3595.21	0.9754
3603.66	0.976
3612.1	0.978
3620.55	0.9788
3628.99	0.979
3637.44	0.979
3645.88	0.979
3654.33	0.9808
3662.77	0.981
3671.22	0.981
3679.66	0.981
3688.11	0.981
3696.55	0.9801
3705	0.9809
3713.44	0.981
3721.88	0.979
3730.33	0.979
3738.77	0.979
3747.22	0.979
3755.66	0.979
3764.11	0.9785
3772.55	0.978
3781	0.9769
3789.44	0.976
3797.89	0.9769
3806.33	0.976
3814.78	0.976
3823.22	0.974
3831.67	0.974
3840.11	0.974
3848.56	0.974
3857	0.9739
3865.45	0.9737
3873.89	0.9738
3882.34	0.973
3890.78	0.973
3899.22	0.973
3907.67	0.973
3916.11	0.973
3924.56	0.973
3933	0.9715
3941.45	0.973
3949.89	0.973
3958.34	0.9737
3966.78	0.973
3975.23	0.971
3983.67	0.971
