Infrared Spectrum: 2-Acetyl-3-methylpyrazine
Formula: C 7 H 8 N 2 O
CAS: 23787-80-6
State: gas
Origin: EPA-IR VAPOR PHASE LIBRARY
1/CM	ABSORBANCE
549.8	0.0055835
559.445	0.0078635
569.09	0.0092435
578.734	0.0140035
588.379	0.0348135
598.024	0.0939935
607.669	0.101884
617.313	0.0475935
626.958	0.0122335
636.603	0.0057835
646.248	0.0037535
655.893	0.0036735
665.537	0.0058835
675.182	0.0108235
684.827	0.0115935
694.472	0.0064935
704.116	0.0023435
713.761	0.0016535
723.406	0.0014235
733.051	0.0010131
742.695	0.0013935
752.34	0.0021335
761.985	0.0014635
771.63	0.0019435
781.275	0.0013835
790.919	0.0015835
800.564	0.0018135
810.209	0.0025835
819.854	0.0042135
829.498	0.0101835
839.143	0.0274435
848.788	0.0534535
858.433	0.0379535
868.078	0.0224235
877.722	0.0085135
887.367	0.0061835
897.012	0.0051635
906.657	0.0056035
916.301	0.0087935
925.946	0.0205635
935.591	0.0631435
945.236	0.110793
954.88	0.107434
964.525	0.0568835
974.17	0.0409035
983.815	0.0379635
993.46	0.0336935
1003.1	0.0290135
1012.75	0.0305335
1022.39	0.0324835
1032.04	0.0320335
1041.68	0.0341235
1051.33	0.0411935
1060.97	0.0506235
1070.62	0.0641635
1080.26	0.137284
1089.91	0.175884
1099.55	0.118983
1109.2	0.0334835
1118.84	0.0183135
1128.49	0.0175035
1138.13	0.0235235
1147.78	0.0455335
1157.42	0.0662435
1167.07	0.0631535
1176.71	0.0436235
1186.36	0.0416735
1196	0.0328935
1205.64	0.0195135
1215.29	0.0152035
1224.93	0.0194835
1234.58	0.0274135
1244.22	0.0392135
1253.87	0.0407635
1263.51	0.0619835
1273.16	0.120304
1282.8	0.121134
1292.45	0.0422935
1302.09	0.0147535
1311.74	0.0140035
1321.38	0.0169735
1331.03	0.0226935
1340.67	0.0386435
1350.32	0.0824435
1359.96	0.101894
1369.61	0.0891335
1379.25	0.0945735
1388.9	0.139604
1398.54	0.159534
1408.18	0.142824
1417.83	0.0968935
1427.47	0.0826035
1437.12	0.0707735
1446.76	0.0567535
1456.41	0.0424035
1466.05	0.0301535
1475.7	0.0224535
1485.34	0.0202135
1494.99	0.0207335
1504.63	0.0237335
1514.28	0.0321235
1523.92	0.0465835
1533.57	0.0555135
1543.21	0.0517935
1552.86	0.0397235
1562.5	0.0249435
1572.15	0.0139635
1581.79	0.0108435
1591.44	0.0093735
1601.08	0.0086835
1610.73	0.0090035
1620.37	0.0094435
1630.01	0.0098235
1639.66	0.0099135
1649.3	0.0116835
1658.95	0.0152835
1668.59	0.0236935
1678.24	0.0382735
1687.88	0.0646935
1697.53	0.122704
1707.17	0.295514
1716.82	0.357803
1726.46	0.252544
1736.11	0.0810535
1745.75	0.0495035
1755.4	0.0352835
1765.04	0.0191235
1774.69	0.0100435
1784.33	0.0076835
1793.98	0.0078735
1803.62	0.0084435
1813.27	0.0076035
1822.91	0.0050635
1832.55	0.0035035
1842.2	0.0032035
1851.84	0.0030635
1861.49	0.0031135
1871.13	0.0033535
1880.78	0.0038935
1890.42	0.0043235
1900.07	0.0050135
1909.71	0.0065035
1919.36	0.0080335
1929	0.0073235
1938.65	0.0049835
1948.29	0.0031535
1957.94	0.0029335
1967.58	0.0026435
1977.23	0.0019335
1986.87	0.0015335
1996.52	0.0018135
2006.16	0.0020735
2015.81	0.0022335
2025.45	0.0022635
2035.1	0.0021135
2044.74	0.0022735
2054.38	0.0019035
2064.03	0.0019335
2073.67	0.0020535
2083.32	0.0020635
2092.96	0.0019635
2102.61	0.0016735
2112.25	0.0014735
2121.9	0.0017635
2131.54	0.0018135
2141.19	0.0021135
2150.83	0.0019635
2160.48	0.0015935
2170.12	0.0014635
2179.77	0.0012235
2189.41	0.0012135
2199.06	0.0012435
2208.7	0.0014935
2218.35	0.0017535
2227.99	0.0018735
2237.64	0.0016835
2247.28	0.0015435
2256.92	0.0013735
2266.57	0.0012435
2276.21	0.0013235
2285.86	0.0017135
2295.5	0.0021235
2305.15	0.0027235
2314.79	0.0022535
2324.44	0.0019935
2334.08	0.0019835
2343.73	0.0020335
2353.37	0.0018735
2363.02	0.0019635
2372.66	0.0020935
2382.31	0.0017135
2391.95	0.0016335
2401.6	0.0018435
2411.24	0.0018935
2420.89	0.0019135
2430.53	0.0017835
2440.18	0.0018035
2449.82	0.0016835
2459.47	0.0010935
2469.11	0.0013835
2478.75	0.0012035
2488.4	0.0013835
2498.04	0.0013235
2507.69	0.0013335
2517.33	0.0014735
2526.98	0.0013935
2536.62	0.0016835
2546.27	0.0016935
2555.91	0.0014635
2565.56	0.0013035
2575.2	0.0012735
2584.85	0.0014335
2594.49	0.0013735
2604.14	0.0015135
2613.78	0.0014735
2623.43	0.0019635
2633.07	0.0018735
2642.72	0.0017235
2652.36	0.0015735
2662.01	0.0017735
2671.65	0.0018135
2681.29	0.0014435
2690.94	0.0012535
2700.58	0.0011935
2710.23	0.0014335
2719.87	0.0015135
2729.52	0.0016035
2739.16	0.0017235
2748.81	0.0020935
2758.45	0.0018735
2768.1	0.0022535
2777.74	0.0026335
2787.39	0.0027235
2797.03	0.0030835
2806.68	0.0031435
2816.32	0.0034135
2825.97	0.0035635
2835.61	0.0042935
2845.26	0.0050835
2854.9	0.0055035
2864.55	0.0064135
2874.19	0.0066635
2883.84	0.0068235
2893.48	0.0078835
2903.12	0.0089235
2912.77	0.0100135
2922.41	0.0137135
2932.06	0.0223835
2941.7	0.0303635
2951.35	0.0311235
2960.99	0.0253535
2970.64	0.0227835
2980.28	0.0243435
2989.93	0.0247935
2999.57	0.0260635
3009.22	0.0298135
3018.86	0.0308335
3028.51	0.0322935
3038.15	0.0498935
3047.8	0.0770035
3057.44	0.0795835
3067.09	0.0535135
3076.73	0.0331135
3086.38	0.0252335
3096.02	0.0220035
3105.67	0.0177035
3115.31	0.0121335
3124.95	0.0070835
3134.6	0.0046035
3144.24	0.0033335
3153.89	0.0033635
3163.53	0.0023535
3173.18	0.0023335
3182.82	0.0020035
3192.47	0.0015935
3202.11	0.0019135
3211.76	0.0014135
3221.4	0.0013135
3231.05	0.0010206
3240.69	0.0009645
3250.34	0.0012835
3259.98	0.0013135
3269.63	0.0011435
3279.27	0.0008711
3288.92	0.0011935
3298.56	0.0009386
3308.21	0.0010435
3317.85	0.0012235
3327.49	0.0012635
3337.14	0.0012535
3346.78	0.0009939
3356.43	0.000974
3366.07	0.0013135
3375.72	0.0018435
3385.36	0.0027035
3395.01	0.0044635
3404.65	0.0072235
3414.3	0.0080435
3423.94	0.0061635
3433.59	0.0037135
3443.23	0.0024935
3452.88	0.0019135
3462.52	0.0015335
3472.17	0.0012135
3481.81	0.0011135
3491.46	0.0009402
3501.1	0.0008971
3510.75	0.0008905
3520.39	0.0007308
3530.04	0.0008607
3539.68	0.000826
3549.32	0.0006218
3558.97	0.0005833
3568.61	0.0004025
3578.26	0.0006683
3587.9	0.0006301
3597.55	0.0005853
3607.19	0.000883
3616.84	0.000529
3626.48	0.0001854
3636.13	0.0003625
3645.77	6.143e-05
3655.42	0.000281
3665.06	0.0003426
3674.71	0.0005412
3684.35	0.0005043
3694	0.0002283
3703.64	0.0002844
3713.29	0.0005196
3722.93	0.0002244
3732.58	0.0003127
3742.22	0.0007451
3751.86	0.0006422
3761.51	0.0004236
3771.15	0.0002835
3780.8	0.0007213
3790.44	0.0005329
3800.09	0.0002946
3809.73	0.0006723
3819.38	0.0005036
3829.02	0.000675
3838.67	0.0011235
3848.31	0.0008537
3857.96	0.0005872
3867.6	0.0008884
3877.25	0.0012535
3886.89	0.0011335
3896.54	0.0013235
3906.18	0.0014535
3915.83	0.0014535
3925.47	0.0011535
3935.12	0.0010335
3944.76	0.0009977
3954.41	0.0014935
3964.05	0.0011235
3973.69	0.0014235
3983.34	0.0010635
3992.98	0.0014735
