Infrared Spectrum: Fluoropentachloroacetone
Formula: C 3 Cl 5 F O
CAS: 2378-08-7
State: gas
Origin: EPA-IR VAPOR PHASE LIBRARY
1/CM	ABSORBANCE
549.9	0.00509
559.547	0.0064
569.193	0.00801
578.84	0.00846
588.486	0.0096
598.133	0.00881
607.779	0.00834
617.426	0.01113
627.072	0.01725
636.719	0.03066
646.365	0.06718
656.012	0.1248
665.658	0.23905
675.305	0.25281
684.951	0.10175
694.598	0.04838
704.245	0.02675
713.891	0.02311
723.538	0.02715
733.184	0.03677
742.831	0.02577
752.477	0.01169
762.124	0.00844
771.77	0.00819
781.417	0.00864
791.063	0.01066
800.71	0.01262
810.356	0.01489
820.003	0.02087
829.649	0.03621
839.296	0.07044
848.943	0.11485
858.589	0.1603
868.236	0.25928
877.882	0.31039
887.529	0.18939
897.175	0.09879
906.822	0.06876
916.468	0.0435
926.115	0.03184
935.761	0.02408
945.408	0.01547
955.054	0.01059
964.701	0.00753
974.347	0.00593
983.994	0.0053
993.64	0.00525
1003.29	0.00559
1012.93	0.00623
1022.58	0.00787
1032.23	0.01131
1041.87	0.01856
1051.52	0.03418
1061.17	0.05145
1070.81	0.04897
1080.46	0.04445
1090.11	0.04922
1099.75	0.04575
1109.4	0.03644
1119.05	0.03343
1128.69	0.04213
1138.34	0.06581
1147.99	0.08714
1157.63	0.06606
1167.28	0.02475
1176.92	0.00834
1186.57	0.00527
1196.22	0.00401
1205.86	0.0031837
1215.51	0.0028119
1225.16	0.0029978
1234.8	0.0027882
1244.45	0.00267369
1254.1	0.00260746
1263.74	0.0025796
1273.39	0.0027316
1283.04	0.002479
1292.68	0.00263749
1302.33	0.00260785
1311.98	0.002783
1321.62	0.002994
1331.27	0.0030921
1340.92	0.0029771
1350.56	0.0027817
1360.21	0.0025489
1369.86	0.002346
1379.5	0.002098
1389.15	0.002043
1398.79	0.002043
1408.44	0.0022
1418.09	0.002344
1427.73	0.002442
1437.38	0.002263
1447.03	0.002231
1456.67	0.002047
1466.32	0.001996
1475.97	0.002008
1485.61	0.001921
1495.26	0.001909
1504.91	0.001985
1514.55	0.002057
1524.2	0.002085
1533.85	0.00206
1543.49	0.002029
1553.14	0.002
1562.79	0.002008
1572.43	0.00187
1582.08	0.001858
1591.73	0.001769
1601.37	0.001785
1611.02	0.001928
1620.67	0.001901
1630.31	0.001967
1639.96	0.001902
1649.6	0.001832
1659.25	0.001812
1668.9	0.001847
1678.54	0.001885
1688.19	0.002053
1697.84	0.002165
1707.48	0.002571
1717.13	0.0032999
1726.78	0.00477
1736.42	0.00741
1746.07	0.01313
1755.72	0.025
1765.36	0.04583
1775.01	0.06406
1784.66	0.0571
1794.3	0.03019
1803.95	0.01495
1813.6	0.01146
1823.24	0.00952
1832.89	0.00725
1842.54	0.00452
1852.18	0.0030452
1861.83	0.002411
1871.47	0.002159
1881.12	0.002057
1890.77	0.001983
1900.41	0.001993
1910.06	0.002006
1919.71	0.002046
1929.35	0.001914
1939	0.001886
1948.65	0.001898
1958.29	0.001853
1967.94	0.001846
1977.59	0.001847
1987.23	0.001862
1996.88	0.001914
2006.53	0.001902
2016.17	0.001893
2025.82	0.001969
2035.47	0.002041
2045.11	0.002023
2054.76	0.001968
2064.41	0.001914
2074.05	0.001837
2083.7	0.001834
2093.35	0.001885
2102.99	0.001994
2112.64	0.002042
2122.28	0.002042
2131.93	0.001971
2141.58	0.002033
2151.22	0.002137
2160.87	0.00228
2170.52	0.002453
2180.16	0.0025823
2189.81	0.0025859
2199.46	0.002535
2209.1	0.002418
2218.75	0.00232
2228.4	0.002269
2238.04	0.002224
2247.69	0.002131
2257.34	0.002046
2266.98	0.001984
2276.63	0.001985
2286.28	0.002014
2295.92	0.001963
2305.57	0.001936
2315.22	0.001868
2324.86	0.001863
2334.51	0.001893
2344.16	0.001895
2353.8	0.001811
2363.45	0.001777
2373.09	0.001792
2382.74	0.001745
2392.39	0.001738
2402.03	0.001725
2411.68	0.001706
2421.33	0.001698
2430.97	0.001749
2440.62	0.001725
2450.27	0.001761
2459.91	0.001655
2469.56	0.001676
2479.21	0.001648
2488.85	0.0016
2498.5	0.001603
2508.15	0.001663
2517.79	0.00163
2527.44	0.001632
2537.09	0.001619
2546.73	0.00156
2556.38	0.0016
2566.03	0.001604
2575.67	0.001605
2585.32	0.00154
2594.96	0.001628
2604.61	0.0016
2614.26	0.00161
2623.9	0.001642
2633.55	0.00158
2643.2	0.001632
2652.84	0.001647
2662.49	0.001679
2672.14	0.001687
2681.78	0.001603
2691.43	0.00159
2701.08	0.00156
2710.72	0.00151
2720.37	0.00148
2730.02	0.00149
2739.66	0.00144
2749.31	0.00145
2758.96	0.00144
2768.6	0.00138
2778.25	0.00136
2787.9	0.00129
2797.54	0.00138
2807.19	0.00142
2816.84	0.00135
2826.48	0.00144
2836.13	0.00149
2845.77	0.00146
2855.42	0.00144
2865.07	0.00145
2874.71	0.00145
2884.36	0.0014
2894.01	0.00145
2903.65	0.00151
2913.3	0.001638
2922.95	0.001919
2932.59	0.001973
2942.24	0.00152
2951.89	0.0012
2961.53	0.00102
2971.18	0.00101
2980.83	0.00098
2990.47	0.00101
3000.12	0.00092
3009.77	0.00083
3019.41	0.00079
3029.06	0.0009
3038.71	0.00088
3048.35	0.0007
3058	0.00052
3067.64	0.00069
3077.29	0.00061
3086.94	0.00055
3096.58	0.0004
3106.23	0.00053
3115.88	0.00027
3125.52	0.00032
3135.17	0.00041
3144.82	0.00018
3154.46	0.00026
3164.11	0.00039
3173.76	0.00027
3183.4	0.00029
3193.05	0.00018
3202.7	0.00027
3212.34	8e-05
3221.99	0.00044
3231.64	0.00028
3241.28	0.00014
3250.93	0.00046
3260.58	0.00028
3270.22	0.00028
3279.87	0.00018
3289.52	0.00019
3299.16	0.0002
3308.81	0.00025
3318.45	0.00026
3328.1	4e-05
3337.75	0.00018
3347.39	0.00013
3357.04	0.00022
3366.69	0
3376.33	0.00025
3385.98	0.00037
3395.63	0.0004
3405.27	0.00044
3414.92	0.00046
3424.57	0.00032
3434.21	0.00043
3443.86	0.00055
3453.51	0.0006
3463.15	0.00058
3472.8	0.00072
3482.45	0.00082
3492.09	0.00098
3501.74	0.00123
3511.39	0.001842
3521.03	0.002466
3530.68	0.0029407
3540.33	0.0025846
3549.97	0.002023
3559.62	0.00146
3569.26	0.00116
3578.91	0.00107
3588.56	0.00102
3598.2	0.00121
3607.85	0.00109
3617.5	0.00111
3627.14	0.00106
3636.79	0.00119
3646.44	0.00112
3656.08	0.00092
3665.73	0.0011
3675.38	0.00119
3685.02	0.0012
3694.67	0.00113
3704.32	0.00124
3713.96	0.00127
3723.61	0.00123
3733.26	0.00135
3742.9	0.00113
3752.55	0.00142
3762.2	0.00131
3771.84	0.00122
3781.49	0.00128
3791.13	0.00131
3800.78	0.00133
3810.43	0.00121
3820.07	0.00121
3829.72	0.00129
3839.37	0.00128
3849.01	0.00146
3858.66	0.00137
3868.31	0.00132
3877.95	0.00145
3887.6	0.00131
3897.25	0.00146
3906.89	0.00149
3916.54	0.00152
3926.19	0.00145
3935.83	0.00146
3945.48	0.00153
3955.13	0.00151
3964.77	0.00151
3974.42	0.00152
3984.07	0.00151
3993.71	0.00157
