Infrared Spectrum: Anthraquinone, 1-amino-4-hydroxy-2-methoxy-,
Formula: C15 H11 N O4
CAS: 2379-90-0
State: SOLID (SPLIT MULL), FLUOROLUBE FOR 3800-1335 CM^-^1, NUJOL FOR 1335-450 CM^-^1
Melting point: 215 C
Class: COBLENTZ III
Instrument: DOW KBr FOREPRISM-GRATING
Instrument parameters: BLAZED AT 3.5, 12.0, 20.0 MICRON AND CHANGED AT 5.0, 7.5, 14.9 MICRON
Sampling: TRANSMISSION
Resolution: 2
Origin: DOW CHEMICAL COMPANY
1/CM	TRANSMITTANCE
453	0.6826
462	0.6833
471	0.6845
480	0.6969
489	0.7165
498	0.7317
507	0.7272
516	0.6886
525	0.7505
534	0.7539
543	0.7145
552	0.7749
561	0.7834
570	0.7887
579	0.7918
588	0.7883
597	0.698
606	0.7474
615	0.7865
624	0.7944
633	0.7932
642	0.7582
651	0.7547
660	0.8037
669	0.7991
678	0.7718
687	0.6837
696	0.7646
705	0.7758
714	0.7067
723	0.5089
732	0.5696
741	0.7015
750	0.6252
759	0.7594
768	0.7561
777	0.7497
786	0.7175
795	0.5899
804	0.7261
813	0.6306
822	0.7351
831	0.6846
840	0.5851
849	0.5385
858	0.5374
867	0.6271
876	0.6618
885	0.6684
894	0.6828
903	0.7065
912	0.6925
921	0.6782
930	0.643
939	0.5581
948	0.4819
957	0.6428
966	0.6589
975	0.6734
984	0.6596
993	0.5632
1002	0.6978
1011	0.7088
1020	0.6857
1029	0.6808
1038	0.6878
1047	0.6801
1056	0.6865
1065	0.6915
1074	0.6937
1083	0.6968
1092	0.6362
1101	0.7021
1110	0.6945
1119	0.6757
1128	0.6387
1137	0.6107
1146	0.5759
1155	0.4255
1164	0.545
1173	0.5771
1182	0.5509
1191	0.5633
1200	0.4936
1209	0.3041
1218	0.3512
1227	0.4498
1236	0.441
1245	0.4168
1254	0.3648
1263	0.2715
1272	0.1555
1281	0.0831
1290	0.0724
1299	0.1074
1308	0.3826
1317	0.4633
1326	0.4426
1335	0.3886
1344	0.3691
1353	0.5362
1362	0.5983
1371	0.4622
1380	0.4744
1389	0.5102
1398	0.5276
1407	0.5006
1416	0.4345
1425	0.3698
1434	0.2584
1443	0.3484
1452	0.2316
1461	0.186
1470	0.2195
1479	0.1346
1488	0.3041
1497	0.4607
1506	0.4251
1515	0.338
1524	0.1706
1533	0.0852
1542	0.2051
1551	0.3866
1560	0.2839
1569	0.1549
1578	0.1936
1587	0.0782
1596	0.2785
1605	0.2209
1614	0.2635
1623	0.1927
1632	0.5122
1641	0.606
1650	0.7175
1659	0.7731
1668	0.7953
1677	0.8134
1686	0.8196
1695	0.8195
1704	0.8171
1713	0.8204
1722	0.8254
1731	0.8309
1740	0.8295
1749	0.8255
1758	0.8232
1767	0.8204
1776	0.8183
1785	0.8161
1794	0.8137
1803	0.8115
1812	0.8111
1821	0.8151
1830	0.8157
1839	0.8111
1848	0.8056
1857	0.7998
1866	0.7942
1875	0.7901
1884	0.7884
1893	0.786
1902	0.7841
1911	0.7828
1920	0.7824
1929	0.7757
1938	0.7692
1947	0.7645
1956	0.7637
1965	0.7528
1974	0.754
1983	0.7508
1992	0.7471
2001	0.7568
2010	0.7571
2019	0.7532
2028	0.7501
2037	0.7464
2046	0.7424
2055	0.7389
2064	0.7353
2073	0.7315
2082	0.7268
2091	0.7218
2100	0.7172
2109	0.7132
2118	0.7093
2127	0.7056
2136	0.7021
2145	0.6988
2154	0.6951
2163	0.6912
2172	0.6876
2181	0.6838
2190	0.6798
2199	0.6757
2208	0.6715
2217	0.6675
2226	0.6633
2235	0.6594
2244	0.6555
2253	0.6515
2262	0.6475
2271	0.644
2280	0.6406
2289	0.6372
2298	0.6342
2307	0.6312
2316	0.6286
2325	0.6258
2334	0.6234
2343	0.621
2352	0.6198
2361	0.6184
2370	0.6167
2379	0.6149
2388	0.6131
2397	0.611
2406	0.6079
2415	0.6054
2424	0.6036
2433	0.6071
2442	0.6054
2451	0.6022
2460	0.5989
2469	0.5957
2478	0.5927
2487	0.5898
2496	0.5865
2505	0.584
2514	0.5819
2523	0.5797
2532	0.5778
2541	0.5758
2550	0.5735
2559	0.5704
2568	0.5673
2577	0.5642
2586	0.561
2595	0.5581
2604	0.5555
2613	0.5529
2622	0.5503
2631	0.5478
2640	0.5453
2649	0.5428
2658	0.5403
2667	0.5377
2676	0.5343
2685	0.531
2694	0.5282
2703	0.5254
2712	0.5227
2721	0.5199
2730	0.5172
2739	0.5151
2748	0.513
2757	0.5157
2766	0.5181
2775	0.5168
2784	0.5146
2793	0.5125
2802	0.511
2811	0.5089
2820	0.5019
2829	0.4777
2838	0.4803
2847	0.4732
2856	0.4704
2865	0.4724
2874	0.4698
2883	0.4632
2892	0.4552
2901	0.4491
2910	0.4423
2919	0.433
2928	0.4267
2937	0.419
2946	0.424
2955	0.4478
2964	0.4467
2973	0.437
2982	0.4454
2991	0.4555
3000	0.4512
3009	0.4377
3018	0.4573
3027	0.4521
3036	0.4474
3045	0.4419
3054	0.435
3063	0.4287
3072	0.4258
3081	0.4275
3090	0.4369
3099	0.4424
3108	0.4404
3117	0.444
3126	0.4416
3135	0.4394
3144	0.4367
3153	0.4336
3162	0.4297
3171	0.4256
3180	0.4224
3189	0.419
3198	0.4143
3207	0.4093
3216	0.4046
3225	0.3999
3234	0.3934
3243	0.3832
3252	0.3672
3261	0.348
3270	0.3216
3279	0.303
3288	0.3135
3297	0.3518
3306	0.3714
3315	0.3864
3324	0.3908
3333	0.3909
3342	0.3882
3351	0.3809
3360	0.373
3369	0.365
3378	0.3525
3387	0.3323
3396	0.3153
3405	0.2932
3414	0.2776
3423	0.2707
3432	0.2569
3441	0.2552
3450	0.2656
3459	0.3072
3468	0.3308
3477	0.3397
3486	0.3866
3495	0.4109
3504	0.419
3513	0.4193
3522	0.4184
3531	0.4169
3540	0.4154
3549	0.4137
3558	0.4121
3567	0.4105
3576	0.4089
3585	0.4072
3594	0.4055
3603	0.4037
3612	0.4023
3621	0.4012
3630	0.4
3639	0.399
3648	0.3979
3657	0.3968
3666	0.3962
3675	0.3955
3684	0.3948
3693	0.3941
3702	0.3932
3711	0.3922
3720	0.3912
3729	0.3905
3738	0.3898
3747	0.3884
3756	0.3858
3765	0.383
3774	0.3818
3783	0.3806
3792	0.3795
