Infrared Spectrum: 5-Chlorobenzo[b]thiophene-3-acetonitrile
Formula: C 10 H 6 Cl N S
CAS: 23799-60-2
State: gas
Origin: EPA-IR VAPOR PHASE LIBRARY
1/CM	ABSORBANCE
549.8	0.0029997
559.445	0.002795
569.09	0.00462
578.734	0.00699
588.379	0.01035
598.024	0.0093
607.669	0.00666
617.313	0.00348
626.958	0.00456
636.603	0.00508
646.248	0.00482
655.893	0.0046
665.537	0.00691
675.182	0.00674
684.827	0.00548
694.472	0.00408
704.116	0.0030939
713.761	0.0033
723.406	0.00412
733.051	0.00375
742.695	0.0041
752.34	0.00442
761.985	0.00617
771.63	0.02045
781.275	0.03554
790.919	0.02142
800.564	0.02039
810.209	0.01325
819.854	0.01294
829.498	0.03255
839.143	0.04743
848.788	0.01772
858.433	0.01961
868.078	0.01459
877.722	0.00584
887.367	0.00384
897.012	0.00497
906.657	0.0047
916.301	0.00492
925.946	0.00474
935.591	0.00421
945.236	0.0031325
954.88	0.003123
964.525	0.00348
974.17	0.002363
983.815	0.002715
993.46	0.00344
1003.1	0.00327
1012.75	0.00358
1022.39	0.00369
1032.04	0.00777
1041.68	0.0078
1051.33	0.00477
1060.97	0.00565
1070.62	0.02209
1080.26	0.04903
1089.91	0.0206
1099.55	0.01105
1109.2	0.00613
1118.84	0.00107
1128.49	0.00396
1138.13	0.00225024
1147.78	0.00854
1157.42	0.00712
1167.07	0.00466
1176.71	0.00482
1186.36	0.00436
1196	0.00415
1205.64	0.00663
1215.29	0.001402
1224.93	0
1234.58	0.00338
1244.22	0.00841
1253.87	0.01377
1263.51	0.00893
1273.16	0.00533
1282.8	0.00414
1292.45	0.00474
1302.09	0.00414
1311.74	0.00351
1321.38	0.00378
1331.03	0.00494
1340.67	0.00528
1350.32	0.00488
1359.96	0.00386
1369.61	0.00336
1379.25	0.0031787
1388.9	0.0037
1398.54	0.00581
1408.18	0.0122
1417.83	0.03043
1427.47	0.04257
1437.12	0.03179
1446.76	0.01479
1456.41	0.00683
1466.05	0.00453
1475.7	0.00388
1485.34	0.00362
1494.99	0.00405
1504.63	0.00509
1514.28	0.00758
1523.92	0.00811
1533.57	0.00577
1543.21	0.00694
1552.86	0.01087
1562.5	0.01126
1572.15	0.0118
1581.79	0.01505
1591.44	0.014
1601.08	0.01015
1610.73	0.00672
1620.37	0.00379
1630.01	0.00334
1639.66	0.0028547
1649.3	0.0028786
1658.95	0.0028165
1668.59	0.00326
1678.24	0.0031283
1687.88	0.0025969
1697.53	0.00327
1707.17	0.00395
1716.82	0.00442
1726.46	0.00415
1736.11	0.00385
1745.75	0.0031443
1755.4	0.0024249
1765.04	0.0023879
1774.69	0.0022832
1784.33	0.0023853
1793.98	0.0025142
1803.62	0.0025293
1813.27	0.0026457
1822.91	0.0028153
1832.55	0.0027311
1842.2	0.0024136
1851.84	0.0025714
1861.49	0.0029325
1871.13	0.0043
1880.78	0.00418
1890.42	0.0029213
1900.07	0.0024198
1909.71	0.0027102
1919.36	0.0023986
1929	0.002508
1938.65	0.0024423
1948.29	0.002316
1957.94	0.0024843
1967.58	0.0027252
1977.23	0.0027096
1986.87	0.0026655
1996.52	0.0026501
2006.16	0.0030191
2015.81	0.0026876
2025.45	0.0029292
2035.1	0.0027777
2044.74	0.0028298
2054.38	0.0028596
2064.03	0.002742
2073.67	0.0026667
2083.32	0.0025775
2092.96	0.0027889
2102.61	0.0030554
2112.25	0.0031579
2121.9	0.0024687
2131.54	0.0026855
2141.19	0.0024257
2150.83	0.0025404
2160.48	0.0026677
2170.12	0.0027537
2179.77	0.0024601
2189.41	0.002692
2199.06	0.0026323
2208.7	0.0027575
2218.35	0.0026541
2227.99	0.0028505
2237.64	0.0031713
2247.28	0.0035
2256.92	0.00352
2266.57	0.00334
2276.21	0.0029197
2285.86	0.00324
2295.5	0.0030002
2305.15	0.0025732
2314.79	0.0029511
2324.44	0.0029456
2334.08	0.00353
2343.73	0.00348
2353.37	0.0029029
2363.02	0.0026994
2372.66	0.0025352
2382.31	0.0027528
2391.95	0.0026055
2401.6	0.0025972
2411.24	0.0028687
2420.89	0.0031182
2430.53	0.0031027
2440.18	0.002729
2449.82	0.0028703
2459.47	0.0028857
2469.11	0.003107
2478.75	0.0025807
2488.4	0.002833
2498.04	0.0026256
2507.69	0.0027248
2517.33	0.00325
2526.98	0.002765
2536.62	0.0026012
2546.27	0.0029557
2555.91	0.0027859
2565.56	0.0030491
2575.2	0.0030846
2584.85	0.002862
2594.49	0.0026475
2604.14	0.0028838
2613.78	0.0030412
2623.43	0.0028085
2633.07	0.0026594
2642.72	0.0029114
2652.36	0.0025631
2662.01	0.0027138
2671.65	0.003073
2681.29	0.0029408
2690.94	0.0030364
2700.58	0.0025376
2710.23	0.0031194
2719.87	0.0029872
2729.52	0.0029585
2739.16	0.00346
2748.81	0.0031162
2758.45	0.0028544
2768.1	0.002793
2777.74	0.0028195
2787.39	0.002779
2797.03	0.0027978
2806.68	0.0028339
2816.32	0.0029253
2825.97	0.00332
2835.61	0.00325
2845.26	0.00352
2854.9	0.0028031
2864.55	0.0025946
2874.19	0.0029664
2883.84	0.00356
2893.48	0.0028991
2903.12	0.0030518
2912.77	0.00423
2922.41	0.00618
2932.06	0.00574
2941.7	0.00413
2951.35	0.00358
2960.99	0.00357
2970.64	0.00343
2980.28	0.002707
2989.93	0.0025225
2999.57	0.0028147
3009.22	0.0031348
3018.86	0.00327
3028.51	0.0030699
3038.15	0.00337
3047.8	0.00349
3057.44	0.00395
3067.09	0.00485
3076.73	0.00631
3086.38	0.00578
3096.02	0.00469
3105.67	0.00375
3115.31	0.0036
3124.95	0.0025899
3134.6	0.0026688
3144.24	0.0025626
3153.89	0.0026491
3163.53	0.0028562
3173.18	0.0030911
3182.82	0.00332
3192.47	0.0028912
3202.11	0.0030487
3211.76	0.0029087
3221.4	0.0031438
3231.05	0.00223135
3240.69	0.0023086
3250.34	0.0026141
3259.98	0.0024978
3269.63	0.0025226
3279.27	0.0023303
3288.92	0.0028329
3298.56	0.0025613
3308.21	0.001923
3317.85	0.0024634
3327.49	0.0027931
3337.14	0.00351
3346.78	0.00220134
3356.43	0.0031607
3366.07	0.0023864
3375.72	0.0027152
3385.36	0.0025616
3395.01	0.002041
3404.65	0.0027006
3414.3	0.0030923
3423.94	0.0027633
3433.59	0.0020813
3443.23	0.0025293
3452.88	0.001895
3462.52	0.0024344
3472.17	0.0026741
3481.81	0.00366
3491.46	0.00223422
3501.1	0.002029
3510.75	0.0024982
3520.39	0.0028581
3530.04	0.001773
3539.68	0.0025067
3549.32	0.00226005
3558.97	0.00279
3568.61	0.0026676
3578.26	0.001925
3587.9	0.0026826
3597.55	0.002075
3607.19	0.0021655
3616.84	0.0024893
3626.48	0.002433
3636.13	0.0028704
3645.77	0.0022896
3655.42	0.0025153
3665.06	0.0025381
3674.71	0.0030357
3684.35	0.00218251
3694	0.0026263
3703.64	0.0028147
3713.29	0.001949
3722.93	0.001991
3732.58	0.0029978
3742.22	0.0026265
3751.86	0.0024491
3761.51	0.0024393
3771.15	0.00352
3780.8	0.0021048
3790.44	0.001903
3800.09	0.0029349
3809.73	0.002909
3819.38	0.0025919
3829.02	0.0026518
3838.67	0.0021565
3848.31	0.00222388
3857.96	0.0022911
3867.6	0.001778
3877.25	0.00335
3886.89	0.0021217
3896.54	0.0029518
3906.18	0.001914
3915.83	0.0028435
3925.47	0.0030339
3935.12	0.00325
3944.76	0.0024987
3954.41	0.0030292
3964.05	0.00218209
3973.69	0.0027643
3983.34	0.00343
3992.98	0.001705
