Infrared Spectrum: 1,2-Benzofluorene
Formula: C 17 H 12
CAS: 238-84-6
State: gas
Instrument: HP-GC/MS/IRD
Origin: NIST Mass Spectrometry Data Center
1/CM	ABSORBANCE
550	0.0002464
562	0.000238
574	0.000105
586	3.78e-05
598	4.9e-05
610	0
622	4.62e-05
634	0.000252
646	0.0001988
658	9.52e-05
670	0.000154
682	0.0001512
694	0.000742
706	0.0011886
718	0.0021924
730	0.0013146
742	0.0051268
754	0.014
766	0.0046718
778	0.0012656
790	0.0006762
802	0.0020468
814	0.0046326
826	0.0013496
838	0.000525
850	0.0005992
862	0.0005166
874	0.0002156
886	0.0001806
898	0.0002478
910	0.0003164
922	0.000154
934	0.0002632
946	0.0004158
958	0.0002478
970	0.000105
982	8.96e-05
994	0.0001596
1006	0.0005782
1018	0.0014644
1030	0.0005152
1042	0.000112
1054	6.86e-05
1066	0.0001106
1078	0.0001806
1090	0.0001092
1102	0.0001274
1114	0.0004676
1126	0.0001652
1138	0.0003416
1150	0.000728
1162	0.0007728
1174	0.000889
1186	0.0008134
1198	0.0004508
1210	0.0002072
1222	0.0001736
1234	0.0001694
1246	0.000343
1258	0.0007924
1270	0.0006664
1282	0.0002114
1294	0.0004116
1306	0.0003318
1318	0.0004018
1330	0.0005572
1342	0.0006804
1354	0.0006258
1366	0.0011424
1378	0.001001
1390	0.000756
1402	0.0011424
1414	0.0009702
1426	0.0005306
1438	0.0008638
1450	0.0011564
1462	0.0016478
1474	0.0018032
1486	0.0004312
1498	0.0001918
1510	0.0001918
1522	0.0004676
1534	0.0001974
1546	0.0001694
1558	0.0001358
1570	0.0004396
1582	0.0008526
1594	0.0011718
1606	0.000854
1618	0.0010486
1630	0.0008512
1642	0.0003038
1654	0.000175
1666	0.000357
1678	0.0003766
1690	0.000371
1702	0.000217
1714	0.00021
1726	0.0001778
1738	0.0001904
1750	0.0004746
1762	0.0002674
1774	0.00021
1786	0.000301
1798	0.000357
1810	0.0003514
1822	0.0004844
1834	0.0002324
1846	0.0001344
1858	0.0001932
1870	0.0002016
1882	0.0004746
1894	0.0005208
1906	0.0004718
1918	0.0003388
1930	0.0005992
1942	0.000567
1954	0.0001316
1966	6.16e-05
1978	4.2e-05
1990	6.44e-05
2002	5.04e-05
2014	3.5e-05
2026	4.06e-05
2038	5.18e-05
2050	4.62e-05
2062	3.36e-05
2074	4.48e-05
2086	3.64e-05
2098	4.9e-05
2110	3.78e-05
2122	2.94e-05
2134	3.78e-05
2146	3.36e-05
2158	4.76e-05
2170	2.52e-05
2182	2.94e-05
2194	5.46e-05
2206	3.5e-05
2218	4.2e-05
2230	5.6e-05
2242	5.46e-05
2254	7.42e-05
2266	8.4e-05
2278	8.82e-05
2290	8.82e-05
2302	9.94e-05
2314	8.12e-05
2326	4.9e-05
2338	3.08e-05
2350	2.38e-05
2362	0
2374	0
2386	1.68e-05
2398	3.78e-05
2410	5.32e-05
2422	3.22e-05
2434	2.8e-05
2446	2.1e-05
2458	5.88e-05
2470	6.3e-05
2482	6.3e-05
2494	5.74e-05
2506	6.44e-05
2518	7e-05
2530	4.34e-05
2542	2.66e-05
2554	4.06e-05
2566	1.96e-05
2578	4.76e-05
2590	6.72e-05
2602	5.18e-05
2614	3.5e-05
2626	2.66e-05
2638	2.1e-05
2650	2.94e-05
2662	4.9e-05
2674	4.48e-05
2686	2.66e-05
2698	3.08e-05
2710	2.8e-06
2722	2.66e-05
2734	3.36e-05
2746	1.96e-05
2758	3.92e-05
2770	7.14e-05
2782	0.0001064
2794	0.000168
2806	0.0002156
2818	0.0001344
2830	9.52e-05
2842	0.0001064
2854	8.68e-05
2866	0.000126
2878	0.0001736
2890	0.0005614
2902	0.0016338
2914	0.001631
2926	0.0006678
2938	0.0002478
2950	0.0002548
2962	0.0002646
2974	0.0003234
2986	0.0004312
2998	0.000637
3010	0.0013146
3022	0.002401
3034	0.002723
3046	0.0041608
3058	0.0082516
3070	0.00896
3082	0.0043736
3094	0.0018214
3106	0.0007014
3118	0.0003374
3130	0.0002058
3142	0.0002156
3154	0.0002436
3166	0.0002338
3178	0.0001484
3190	0.0001162
3202	8.54e-05
3214	8.96e-05
3226	7.42e-05
3238	5.04e-05
3250	6.44e-05
3262	5.88e-05
3274	7.56e-05
3286	6.3e-05
3298	7.98e-05
3310	6.86e-05
3322	5.6e-05
3334	7.56e-05
3346	7.28e-05
3358	4.2e-05
3370	4.48e-05
3382	4.2e-05
3394	5.32e-05
3406	6.58e-05
3418	7.98e-05
3430	4.9e-05
3442	2.8e-06
3454	5.74e-05
3466	5.88e-05
3478	6.3e-05
3490	4.34e-05
3502	9.8e-06
3514	5.04e-05
3526	3.08e-05
3538	5.6e-05
3550	2.52e-05
3562	5.32e-05
3574	6.44e-05
3586	2.52e-05
3598	4.9e-05
3610	2.66e-05
3622	6.3e-05
3634	6.58e-05
3646	3.08e-05
3658	7.84e-05
3670	3.78e-05
3682	4.9e-05
3694	4.2e-05
3706	0.000112
3718	6.72e-05
3730	5.74e-05
3742	0
3754	6.58e-05
3766	7e-05
3778	0.0001134
3790	0.0001204
3802	4.76e-05
3814	7.7e-05
3826	7.7e-05
3838	3.5e-05
