Infrared Spectrum: 3-Methylthiophene-2-carboxylic acid
Formula: C 6 H 6 O 2 S
CAS: 23806-24-8
State: gas
Origin: EPA-IR VAPOR PHASE LIBRARY
1/CM	ABSORBANCE
549.9	0.011112
559.547	0.009162
569.193	0.004962
578.84	0.002602
588.486	0.002352
598.133	0.003802
607.779	0.006372
617.426	0.007942
627.072	0.004632
636.719	0.002382
646.365	0.002752
656.012	0.007672
665.658	0.008542
675.305	0.005272
684.951	0.002322
694.598	0.002812
704.245	0.005752
713.891	0.008782
723.538	0.009542
733.184	0.004812
742.831	0.003362
752.477	0.005802
762.124	0.008912
771.77	0.009862
781.417	0.005872
791.063	0.002782
800.71	0.001642
810.356	0.0013315
820.003	0.0014514
829.649	0.002372
839.296	0.003722
848.943	0.003582
858.589	0.001892
868.236	0.001232
877.882	0.0011826
887.529	0.0010561
897.175	0.0010849
906.822	0.0010917
916.468	0.0012434
926.115	0.001702
935.761	0.002822
945.408	0.003172
955.054	0.002712
964.701	0.001872
974.347	0.002112
983.994	0.003002
993.64	0.004492
1003.29	0.006392
1012.93	0.008052
1022.58	0.008602
1032.23	0.008302
1041.87	0.009172
1051.52	0.012442
1061.17	0.014462
1070.81	0.012702
1080.46	0.011022
1090.11	0.009682
1099.75	0.008972
1109.4	0.006272
1119.05	0.005032
1128.69	0.004322
1138.34	0.005452
1147.99	0.010642
1157.63	0.022352
1167.28	0.036902
1176.92	0.036912
1186.57	0.022332
1196.22	0.008782
1205.86	0.004512
1215.51	0.004102
1225.16	0.004392
1234.8	0.003992
1244.45	0.003292
1254.1	0.003412
1263.74	0.004192
1273.39	0.005002
1283.04	0.006552
1292.68	0.008742
1302.33	0.010132
1311.98	0.008372
1321.62	0.004942
1331.27	0.003922
1340.92	0.004762
1350.56	0.004882
1360.21	0.004202
1369.86	0.003882
1379.5	0.005152
1389.15	0.006382
1398.79	0.008682
1408.44	0.015122
1418.09	0.019552
1427.73	0.015512
1437.38	0.007382
1447.03	0.004032
1456.67	0.002622
1466.32	0.002052
1475.97	0.002072
1485.61	0.002012
1495.26	0.002272
1504.91	0.002762
1514.55	0.003712
1524.2	0.005632
1533.85	0.007782
1543.49	0.007512
1553.14	0.004842
1562.79	0.002502
1572.43	0.001842
1582.08	0.001652
1591.73	0.001692
1601.37	0.001622
1611.02	0.0012693
1620.67	0.0010028
1630.31	0.0009224
1639.96	0.0009144
1649.6	0.0009736
1659.25	0.0010377
1668.9	0.0014439
1678.54	0.002152
1688.19	0.003202
1697.84	0.003622
1707.48	0.004542
1717.13	0.007352
1726.78	0.019122
1736.42	0.053402
1746.07	0.076452
1755.72	0.060692
1765.36	0.015542
1775.01	0.005212
1784.66	0.003762
1794.3	0.003322
1803.95	0.003162
1813.6	0.002422
1823.24	0.001492
1832.89	0.0010325
1842.54	0.0008923
1852.18	0.0007157
1861.83	0.0007154
1871.47	0.0007646
1881.12	0.0008792
1890.77	0.0008288
1900.41	0.0007543
1910.06	0.0006415
1919.71	0.0007498
1929.35	0.000828
1939	0.0007964
1948.65	0.0006594
1958.29	0.0005939
1967.94	0.00057345
1977.59	0.00058971
1987.23	0.00053503
1996.88	0.00054734
2006.53	0.00056833
2016.17	0.00058118
2025.82	0.0005997
2035.47	0.00055785
2045.11	0.00056608
2054.76	0.00056808
2064.41	0.0006501
2074.05	0.000652
2083.7	0.000597
2093.35	0.0005853
2102.99	0.0006203
2112.64	0.0006366
2122.28	0.0006204
2131.93	0.0006573
2141.58	0.0005962
2151.22	0.0006072
2160.87	0.0005751
2170.52	0.00057972
2180.16	0.00053876
2189.81	0.00052711
2199.46	0.000493641
2209.1	0.00053872
2218.75	0.0005729
2228.4	0.00057391
2238.04	0.00058535
2247.69	0.000614
2257.34	0.0005957
2266.98	0.00059138
2276.63	0.0006175
2286.28	0.0006498
2295.92	0.0008041
2305.57	0.000983
2315.22	0.0011346
2324.86	0.0013074
2334.51	0.0012535
2344.16	0.0011952
2353.8	0.0012237
2363.45	0.0014204
2373.09	0.0011929
2382.74	0.0008115
2392.39	0.0006207
2402.03	0.0006552
2411.68	0.0006409
2421.33	0.0006352
2430.97	0.00055838
2440.62	0.00057242
2450.27	0.00055796
2459.91	0.0006116
2469.56	0.00056637
2479.21	0.00058258
2488.85	0.0006157
2498.5	0.0006202
2508.15	0.00058385
2517.79	0.0006017
2527.44	0.00057266
2537.09	0.00058536
2546.73	0.00053664
2556.38	0.00051296
2566.03	0.00058183
2575.67	0.00055829
2585.32	0.0006463
2594.96	0.0006015
2604.61	0.00054801
2614.26	0.0006112
2623.9	0.0005275
2633.55	0.00051246
2643.2	0.000496302
2652.84	0.00054579
2662.49	0.00055132
2672.14	0.00054666
2681.78	0.00048844
2691.43	0.0006399
2701.08	0.00056193
2710.72	0.0006157
2720.37	0.0006119
2730.02	0.0006579
2739.66	0.0007442
2749.31	0.000615
2758.96	0.0007106
2768.6	0.00059151
2778.25	0.00052093
2787.9	0.0006689
2797.54	0.0007462
2807.19	0.0006078
2816.84	0.0008061
2826.48	0.0008332
2836.13	0.0009309
2845.77	0.0010142
2855.42	0.0011807
2865.07	0.0013662
2874.71	0.001552
2884.36	0.0014852
2894.01	0.0014668
2903.65	0.001602
2913.3	0.001932
2922.95	0.002612
2932.59	0.003452
2942.24	0.003722
2951.89	0.003052
2961.53	0.002222
2971.18	0.001782
2980.83	0.001612
2990.47	0.001572
3000.12	0.0013351
3009.77	0.0013672
3019.41	0.0012046
3029.06	0.0012668
3038.71	0.0012416
3048.35	0.0010859
3058	0.001151
3067.64	0.0014586
3077.29	0.0014919
3086.94	0.0012815
3096.58	0.0007605
3106.23	0.00058836
3115.88	0.00057454
3125.52	0.000314
3135.17	0.00051551
3144.82	0.0004769
3154.46	0.000265
3164.11	0.00056605
3173.76	0.0004576
3183.4	0.0004339
3193.05	0.000265
3202.7	0.000292
3212.34	0.000161
3221.99	0.000226
3231.64	0.000375
3241.28	0.0004095
3250.93	0.000239
3260.58	0.0003977
3270.22	0.000275
3279.87	0.000321
3289.52	0.000172
3299.16	0.000292
3308.81	0.0004435
3318.45	0.000268
3328.1	0.0004102
3337.75	0.0004148
3347.39	0.00022
3357.04	0.000223
3366.69	0.000323
3376.33	0.000203
3385.98	0.000186
3395.63	0.00039
3405.27	0.000355
3414.92	0.000361
3424.57	0.000273
3434.21	0.000332
3443.86	0.000382
3453.51	0.00057401
3463.15	0.0007981
3472.8	0.0008087
3482.45	0.0006138
3492.09	0.0005961
3501.74	0.0004048
3511.39	0.00054726
3521.03	0.00032
3530.68	0.00050214
3540.33	0.00050284
3549.97	0.0008847
3559.62	0.003342
3569.26	0.011012
3578.91	0.020042
3588.56	0.017222
3598.2	0.007852
3607.85	0.0013099
3617.5	0.00051902
3627.14	0.000493567
3636.79	0.000500156
3646.44	0.000378
3656.08	0.0004026
3665.73	0.0003992
3675.38	0.0004405
3685.02	0.000343
3694.67	0.00053139
3704.32	0.0004396
3713.96	0.000361
3723.61	0.000357
3733.26	0.00057521
3742.9	0.00049378
3752.55	0.00050292
3762.2	0.000438
3771.84	0.00053073
3781.49	0.00055245
3791.13	0.0004418
3800.78	0.000305
3810.43	0.000369
3820.07	0.00048747
3829.72	0.00055729
3839.37	0.0004649
3849.01	0.000368
3858.66	0.0004602
3868.31	0.00055098
3877.95	0.0004636
3887.6	0.00054831
3897.25	0.00052456
3906.89	0.0004575
3916.54	0.0005986
3926.19	0.0006559
3935.83	0.00056038
3945.48	0.0004322
3955.13	0.00052779
3964.77	0.00057546
3974.42	0.00052426
3984.07	0.00051407
3993.71	0.0004521
