Infrared Spectrum: Homovanillylalcohol
Formula: C 9 H 12 O 3
CAS: 2380-78-1
State: gas
Origin: EPA-IR VAPOR PHASE LIBRARY
1/CM	ABSORBANCE
501.5	0.001235
513.074	0.0010599
524.648	0.001455
536.222	0.001665
547.796	0.002765
559.37	0.003955
570.944	0.002785
582.518	0.001345
594.092	0.0011141
605.666	0.001355
617.24	0.001885
628.814	0.002635
640.388	0.002095
651.962	0.001255
663.536	0.0008302
675.11	0.0006731
686.684	0.0007599
698.258	0.0010016
709.832	0.0010964
721.406	0.001285
732.98	0.002005
744.554	0.002205
756.128	0.002065
767.702	0.003085
779.276	0.006495
790.85	0.008695
802.423	0.008245
813.997	0.009545
825.571	0.005665
837.145	0.003465
848.719	0.003635
860.293	0.003175
871.867	0.002465
883.441	0.002175
895.015	0.002165
906.589	0.001835
918.163	0.001845
929.737	0.002235
941.311	0.002155
952.885	0.002365
964.459	0.002825
976.033	0.003145
987.607	0.004195
999.181	0.006285
1010.76	0.009555
1022.33	0.016705
1033.9	0.028335
1045.48	0.029165
1057.05	0.018455
1068.63	0.009615
1080.2	0.005565
1091.77	0.004545
1103.35	0.005795
1114.92	0.011375
1126.49	0.013605
1138.07	0.013345
1149.64	0.016055
1161.22	0.012985
1172.79	0.011155
1184.36	0.012295
1195.94	0.016115
1207.51	0.020535
1219.09	0.020045
1230.66	0.029035
1242.23	0.032925
1253.81	0.030695
1265.38	0.046195
1276.96	0.037245
1288.53	0.015015
1300.1	0.008535
1311.68	0.006375
1323.25	0.005965
1334.83	0.006875
1346.4	0.008675
1357.97	0.012045
1369.55	0.012515
1381.12	0.009225
1392.7	0.005915
1404.27	0.004335
1415.84	0.005925
1427.42	0.010715
1438.99	0.010105
1450.57	0.008365
1462.14	0.010425
1473.71	0.010755
1485.29	0.009875
1496.86	0.018635
1508.44	0.048485
1520.01	0.043215
1531.58	0.010515
1543.16	0.004105
1554.73	0.002715
1566.31	0.002295
1577.88	0.002575
1589.45	0.004495
1601.03	0.007285
1612.6	0.006745
1624.18	0.003995
1635.75	0.001675
1647.32	0.0010607
1658.9	0.0008767
1670.47	0.0007986
1682.05	0.0007747
1693.62	0.0007089
1705.19	0.0006709
1716.77	0.0006279
1728.34	0.0006237
1739.92	0.0006547
1751.49	0.0005285
1763.06	0.0004422
1774.64	0.0004355
1786.21	0.000402
1797.79	0.0003671
1809.36	0.0003529
1820.93	0.0003961
1832.51	0.0004729
1844.08	0.0006656
1855.66	0.0009161
1867.23	0.0007782
1878.8	0.0005039
1890.38	0.0004232
1901.95	0.0004112
1913.53	0.0004627
1925.1	0.0004826
1936.67	0.0004231
1948.25	0.0003762
1959.82	0.0003575
1971.4	0.0003641
1982.97	0.000376
1994.54	0.0004027
2006.12	0.0004518
2017.69	0.0005405
2029.27	0.0006398
2040.84	0.0008052
2052.41	0.0008977
2063.99	0.0008335
2075.56	0.0006941
2087.14	0.000515
2098.71	0.0003685
2110.28	0.0003004
2121.86	0.0002893
2133.43	0.0003109
2145.01	0.000335
2156.58	0.0003673
2168.15	0.0003627
2179.73	0.0002945
2191.3	0.0002995
2202.88	0.00025838
2214.45	0.00024328
2226.02	0.00022208
2237.6	0.0002369
2249.17	0.00023597
2260.74	0.00024884
2272.32	0.0002926
2283.89	0.0003163
2295.47	0.0003869
2307.04	0.0003974
2318.61	0.000358
2330.19	0.0002892
2341.76	0.0003336
2353.34	0.000335
2364.91	0.0003246
2376.48	0.0003565
2388.06	0.0004418
2399.63	0.0004212
2411.21	0.0004113
2422.78	0.0003598
2434.35	0.0003221
2445.93	0.0003024
2457.5	0.0003842
2469.08	0.0004684
2480.65	0.0005176
2492.22	0.0005396
2503.8	0.0005622
2515.37	0.0005307
2526.95	0.0005007
2538.52	0.0005096
2550.09	0.0004143
2561.67	0.0003706
2573.24	0.0003301
2584.82	0.0002962
2596.39	0.0002868
2607.96	0.0003618
2619.54	0.0004572
2631.11	0.0005164
2642.69	0.0004693
2654.26	0.0004591
2665.83	0.0004194
2677.41	0.0004256
2688.98	0.0004689
2700.56	0.0004892
2712.13	0.0005913
2723.7	0.0006843
2735.28	0.0007889
2746.85	0.0008456
2758.43	0.0009128
2770	0.000948
2781.57	0.0010367
2793.15	0.001255
2804.72	0.001545
2816.3	0.002055
2827.87	0.002855
2839.44	0.004835
2851.02	0.007085
2862.59	0.007615
2874.17	0.009175
2885.74	0.009945
2897.31	0.008675
2908.89	0.010045
2920.46	0.013565
2932.04	0.015305
2943.61	0.017955
2955.18	0.017475
2966.76	0.012665
2978.33	0.007115
2989.91	0.004945
3001.48	0.006285
3013.05	0.006615
3024.63	0.004345
3036.2	0.004385
3047.78	0.004645
3059.35	0.004095
3070.92	0.002945
3082.5	0.001615
3094.07	0.0009206
3105.65	0.0007714
3117.22	0.0006767
3128.79	0.0005464
3140.37	0.0004383
3151.94	0.00027603
3163.52	0.00026212
3175.09	0.00021132
3186.66	0.00021115
3198.24	0.0001576
3209.81	0.000190062
3221.39	0.0001487
3232.96	7.5e-05
3244.53	0.0001199
3256.11	3.9e-05
3267.68	0.0001107
3279.26	0.00019953
3290.83	0.000194978
3302.4	0.0001632
3313.98	0.0001109
3325.55	6.7e-05
3337.13	8.4e-05
3348.7	4e-05
3360.27	9.15e-05
3371.85	0.0001367
3383.42	0.0001099
3395	7.4e-05
3406.57	9.54e-05
3418.14	9.51e-05
3429.72	0.0001288
3441.29	0.0001114
3452.86	0.0001729
3464.44	0.0001486
3476.01	0.000193516
3487.59	0.000191925
3499.16	0.00020618
3510.73	0.00023545
3522.31	0.000312
3533.88	0.0004328
3545.46	0.0007761
3557.03	0.001525
3568.6	0.003995
3580.18	0.014875
3591.75	0.023735
3603.33	0.010615
3614.9	0.003385
3626.47	0.002915
3638.05	0.002385
3649.62	0.002715
3661.2	0.003245
3672.77	0.002735
3684.34	0.001245
3695.92	0.0006854
3707.49	0.0003692
3719.07	0.00024503
3730.64	0.00020673
3742.21	0.0001435
3753.79	0.00022295
3765.36	0.0001254
3776.94	0.00020194
3788.51	4.8e-05
3800.08	0.0001111
3811.66	0.0001413
3823.23	0.0001187
3834.81	0.0001446
3846.38	0.0001728
3857.95	0.000146
3869.53	0.00025325
3881.1	0.00026905
3892.68	0.0003341
3904.25	0.0001734
3915.82	0.0001457
3927.4	0.000126
3938.97	0.0001012
3950.55	0.0001091
3962.12	0.0001316
3973.69	6.8e-05
3985.27	8e-05
3996.84	1.4e-05
