Infrared Spectrum: 1-Methylpyrene
Formula: C 17 H 12
CAS: 2381-21-7
State: gas
Origin: EPA-IR VAPOR PHASE LIBRARY
1/CM	ABSORBANCE
551.7	0.0009045
563.274	0.0010627
574.848	0.0010523
586.421	0.0015916
597.995	0.0011557
609.569	0.00092742
621.143	0.0008986
632.717	0.00091292
644.291	0.000926811
655.864	0.00095957
667.438	0.0012858
679.012	0.002
690.586	0.0019042
702.16	0.00533
713.734	0.00669
725.307	0.001785
736.881	0.00194
748.455	0.00461
760.029	0.00227
771.603	0.0011243
783.177	0.001148
794.75	0.0012377
806.324	0.00212
817.898	0.00426
829.472	0.01062
841.046	0.02483
852.619	0.00728
864.193	0.0017467
875.767	0.00143
887.341	0.0011865
898.915	0.0010831
910.489	0.0011077
922.062	0.0010781
933.636	0.00097027
945.21	0.001003
956.784	0.0012393
968.358	0.0013604
979.932	0.0010391
991.505	0.0011054
1003.08	0.0012867
1014.65	0.0010921
1026.23	0.0010501
1037.8	0.00095147
1049.37	0.0011003
1060.95	0.0012115
1072.52	0.000929569
1084.1	0.00098766
1095.67	0.0013713
1107.24	0.0017391
1118.82	0.0010941
1130.39	0.0010076
1141.97	0.0009451
1153.54	0.0010478
1165.11	0.0014965
1176.69	0.00286
1188.26	0.00287
1199.83	0.0011686
1211.41	0.0012581
1222.98	0.001219
1234.56	0.0015224
1246.13	0.0018201
1257.7	0.0012848
1269.28	0.0011543
1280.85	0.0011417
1292.42	0.0014155
1304	0.0014329
1315.57	0.0010224
1327.15	0.00101443
1338.72	0.00095036
1350.29	0.00095563
1361.87	0.00096585
1373.44	0.0011579
1385.02	0.0013747
1396.59	0.0011075
1408.16	0.0014881
1419.74	0.0017418
1431.31	0.00234
1442.88	0.00276
1454.46	0.00334
1466.03	0.00245
1477.61	0.00201
1489.18	0.0028
1500.75	0.00292
1512.33	0.00248
1523.9	0.001461
1535.48	0.0013114
1547.05	0.0012045
1558.62	0.0012716
1570.2	0.0015
1581.77	0.00231
1593.34	0.00277
1604.92	0.00247
1616.49	0.0015835
1628.07	0.0015171
1639.64	0.0014775
1651.21	0.001443
1662.79	0.0012825
1674.36	0.0010403
1685.93	0.00099972
1697.51	0.00097145
1709.08	0.0011357
1720.66	0.00101553
1732.23	0.0012331
1743.8	0.0013776
1755.38	0.0010956
1766.95	0.0012888
1778.53	0.0015834
1790.1	0.0016743
1801.67	0.0010614
1813.25	0.000792
1824.82	0.000795
1836.39	0.0009609
1847.97	0.0012018
1859.54	0.001183
1871.12	0.0014561
1882.69	0.0012633
1894.26	0.001165
1905.84	0.0016614
1917.41	0.001857
1928.99	0.0012699
1940.56	0.000764
1952.13	0.000675
1963.71	0.000658
1975.28	0.000659
1986.85	0.000619
1998.43	0.000617
2010	0.000621
2021.58	0.000629
2033.15	0.000618
2044.72	0.000591
2056.3	0.000629
2067.87	0.00061
2079.44	0.000608
2091.02	0.000604
2102.59	0.000613
2114.17	0.000623
2125.74	0.00061
2137.31	0.000612
2148.89	0.000595
2160.46	0.000582
2172.04	0.000576
2183.61	0.000557
2195.18	0.000573
2206.76	0.000566
2218.33	0.000525
2229.9	0.000551
2241.48	0.000591
2253.05	0.000573
2264.63	0.000604
2276.2	0.000621
2287.77	0.0006
2299.35	0.000565
2310.92	0.000567
2322.5	0.00059
2334.07	0.000625
2345.64	0.000645
2357.22	0.000627
2368.79	0.000582
2380.36	0.000532
2391.94	0.000527
2403.51	0.00054
2415.09	0.000522
2426.66	0.000525
2438.23	0.000501
2449.81	0.000544
2461.38	0.000562
2472.96	0.000559
2484.53	0.00051
2496.1	0.000528
2507.68	0.000516
2519.25	0.00055
2530.82	0.00042
2542.4	0.000485
2553.97	0.000492
2565.55	0.000486
2577.12	0.000446
2588.69	0.000467
2600.27	0.000466
2611.84	0.000465
2623.41	0.000509
2634.99	0.000475
2646.56	0.000451
2658.14	0.000467
2669.71	0.000448
2681.28	0.000435
2692.86	0.000438
2704.43	0.000422
2716.01	0.000437
2727.58	0.0005
2739.15	0.000533
2750.73	0.000603
2762.3	0.000541
2773.87	0.000468
2785.45	0.000504
2797.02	0.000519
2808.6	0.000563
2820.17	0.000625
2831.74	0.000779
2843.32	0.0008634
2854.89	0.0011293
2866.47	0.0018237
2878.04	0.00258
2889.61	0.00235
2901.19	0.00215
2912.76	0.00238
2924.33	0.00318
2935.91	0.00464
2947.48	0.00361
2959.06	0.00298
2970.63	0.00289
2982.2	0.00318
2993.78	0.00251
3005.35	0.00249
3016.92	0.00319
3028.5	0.0061
3040.07	0.01403
3051.65	0.01889
3063.22	0.01047
3074.79	0.00504
3086.37	0.00339
3097.94	0.00228
3109.52	0.001752
3121.09	0.0013815
3132.66	0.000924543
3144.24	0.000674
3155.81	0.00054
3167.38	0.000524
3178.96	0.000465
3190.53	0.000411
3202.11	0.000324
3213.68	0.000406
3225.25	0.00034
3236.83	0.000359
3248.4	0.000287
3259.98	0.000234
3271.55	0.000229
3283.12	0.000253
3294.7	0.000257
3306.27	0.000258
3317.84	0.000273
3329.42	0.000215
3340.99	0.000217
3352.57	0.000238
3364.14	0.00023
3375.71	0.000252
3387.29	0.000148
3398.86	0.000176
3410.43	0.000161
3422.01	0.000164
3433.58	0.000162
3445.16	0.000182
3456.73	0.000204
3468.3	0.000211
3479.88	0.000147
3491.45	0.000208
3503.03	0.000221
3514.6	0.000234
3526.17	0.000122
3537.75	0.000209
3549.32	0.000173
3560.89	0.000152
3572.47	0.00023
3584.04	0.000178
3595.62	0.000136
3607.19	0.000222
3618.76	0.000106
3630.34	0.000172
3641.91	0.000158
3653.49	0.00012
3665.06	0.000104
3676.63	0.000137
3688.21	9.6e-05
3699.78	0.000166
3711.35	0.000151
3722.93	0.000145
3734.5	0.000119
3746.08	0.000217
3757.65	0.000165
3769.22	0.000154
3780.8	0.000183
3792.37	0.000199
3803.94	0.000163
3815.52	0.000145
3827.09	0.000193
3838.67	0.000158
3850.24	0.000211
3861.81	0.000155
3873.39	0.0001
3884.96	0.000109
3896.54	0.000147
3908.11	0.000174
3919.68	7.6e-05
3931.26	7.8e-05
3942.83	3.2e-05
3954.4	0.00012
3965.98	7.2e-05
3977.55	2.8e-05
3989.13	7.7e-05
4000.7	4.3e-05
