Infrared Spectrum: 2-BENZOXAZOLETHIOL
Formula: C7 H5 N O S
CAS: 2382-96-9
State: SOLID (KBr PELLET)
Melting point: 190-191 C
Class: COBLENTZ
Instrument: Not specified, most likely a prism, grating, or hybrid spectrometer.
Sampling: TRANSMISSION
Resolution: 4
Origin: TENNESSEE EASTMAN COMPANY, RESEARCH LABORATORIES
MICROMETERS	TRANSMITTANCE
2.048	0.634
2.08879	0.651
2.12959	0.658
2.17038	0.671
2.21118	0.678
2.25197	0.687
2.29276	0.698
2.33356	0.704
2.37435	0.709
2.41515	0.724
2.45594	0.736
2.49674	0.739
2.53753	0.739
2.57832	0.739
2.61912	0.761
2.65991	0.756
2.70071	0.782
2.7415	0.778
2.78229	0.773
2.82309	0.765
2.86388	0.753
2.90468	0.743
2.94547	0.61
2.98627	0.435
3.02706	0.387
3.06785	0.403
3.10865	0.391
3.14944	0.44
3.19024	0.498
3.23103	0.545
3.27182	0.63
3.31262	0.687
3.35341	0.71
3.39421	0.732
3.435	0.77
3.4758	0.79
3.51659	0.812
3.55738	0.823
3.59818	0.833
3.63897	0.841
3.67977	0.845
3.72056	0.848
3.76135	0.853
3.80215	0.86
3.84294	0.865
3.88374	0.874
3.92453	0.88
3.96533	0.882
4.00612	0.884
4.04691	0.889
4.08771	0.899
4.1285	0.906
4.1693	0.908
4.21009	0.897
4.25088	0.867
4.29168	0.897
4.33247	0.954
4.37327	0.937
4.41406	0.94
4.45485	0.943
4.49565	0.945
4.53644	0.948
4.57724	0.947
4.61803	0.948
4.65883	0.952
4.69962	0.955
4.74041	0.957
4.78121	0.957
4.822	0.955
4.8628	0.954
4.90359	0.959
4.94438	0.957
4.98518	0.965
5.02597	0.979
5.06677	0.962
5.10756	0.972
5.14836	0.954
5.18915	0.957
5.22994	0.974
5.27074	0.943
5.31153	0.974
5.35233	0.965
5.39312	0.95
5.43391	0.979
5.47471	0.971
5.5155	0.967
5.5563	0.967
5.59709	0.952
5.63789	0.926
5.67868	0.918
5.71947	0.935
5.76027	0.955
5.80106	0.931
5.84186	0.954
5.88265	0.928
5.92344	0.923
5.96424	0.943
6.00503	0.928
6.04583	0.892
6.08662	0.943
6.12742	0.938
6.16821	0.722
6.209	0.891
6.2498	0.913
6.29059	0.954
6.33139	0.962
6.37218	0.928
6.41297	0.955
6.45377	0.931
6.49456	0.948
6.53536	0.809
6.57615	0.559
6.61695	0.295
6.65774	0.707
6.69853	0.734
6.73933	0.591
6.78012	0.549
6.82092	0.717
6.86171	0.158
6.9025	0.127
6.9433	0.363
6.98409	0.396
7.02489	0.35
7.06568	0.323
7.10647	0.491
7.14727	0.617
7.18806	0.685
7.22886	0.739
7.26965	0.767
7.31045	0.763
7.35124	0.721
7.39203	0.784
7.43283	0.773
7.47362	0.829
7.51442	0.826
7.55521	0.819
7.596	0.826
7.6368	0.829
7.67759	0.821
7.71839	0.801
7.75918	0.613
7.79998	0.498
7.84077	0.646
7.88156	0.785
7.92236	0.829
7.96315	0.784
8.00395	0.712
8.04474	0.753
8.08553	0.7
8.12633	0.838
8.16712	0.88
8.20792	0.88
8.24871	0.891
8.28951	0.833
8.3303	0.801
8.37109	0.797
8.41189	0.777
8.45268	0.773
8.49348	0.761
8.53427	0.693
8.57506	0.705
8.61586	0.741
8.65665	0.768
8.69745	0.79
8.73824	0.537
8.77904	0.18
8.81983	0.227
8.86062	0.591
8.90142	0.724
8.94221	0.782
8.98301	0.818
9.0238	0.799
9.06459	0.525
9.10539	0.37
9.14618	0.653
9.18698	0.765
9.22777	0.828
9.26856	0.845
9.30936	0.85
9.35015	0.855
9.39095	0.862
9.43174	0.865
9.47254	0.863
9.51333	0.862
9.55412	0.869
9.59492	0.87
9.63571	0.841
9.67651	0.862
9.7173	0.887
9.75809	0.901
9.79889	0.901
9.83968	0.799
9.88048	0.561
9.92127	0.75
9.96207	0.829
10.0029	0.853
10.0437	0.877
10.0844	0.901
10.1252	0.92
10.166	0.926
10.2068	0.921
10.2476	0.916
10.2884	0.933
10.3292	0.935
10.37	0.942
10.4108	0.945
10.4516	0.945
10.4924	0.945
10.5332	0.948
10.574	0.954
10.6148	0.938
10.6556	0.843
10.6964	0.523
10.7372	0.21
10.7779	0.523
10.8187	0.772
10.8595	0.836
10.9003	0.899
10.9411	0.937
10.9819	0.947
11.0227	0.948
11.0635	0.948
11.1043	0.95
11.1451	0.94
11.1859	0.931
11.2267	0.913
11.2675	0.909
11.3083	0.926
11.3491	0.952
11.3899	0.979
11.4307	0.988
11.4714	0.989
11.5122	0.989
11.553	0.988
11.5938	0.979
11.6346	0.955
11.6754	0.952
11.7162	0.962
11.757	0.984
11.7978	0.994
11.8386	0.998
11.8794	1
11.9202	1
11.961	1
12.0018	1.001
12.0426	1.001
12.0834	1.001
12.1242	1.001
12.1649	0.996
12.2057	0.935
12.2465	0.792
12.2873	0.853
12.3281	0.931
12.3689	0.964
12.4097	0.982
12.4505	0.991
12.4913	0.994
12.5321	0.998
12.5729	1.001
12.6137	1.003
12.6545	1.003
12.6953	1.003
12.7361	1.003
12.7769	1.003
12.8177	1.001
12.8585	1.001
12.8992	1
12.94	1
12.9808	0.996
13.0216	0.993
13.0624	0.982
13.1032	0.969
13.144	0.935
13.1848	0.833
13.2256	0.675
13.2664	0.474
13.3072	0.255
13.348	0.163
13.3888	0.183
13.4296	0.302
13.4704	0.53
13.5112	0.627
13.552	0.659
13.5927	0.782
13.6335	0.874
13.6743	0.896
13.7151	0.913
13.7559	0.937
13.7967	0.945
13.8375	0.955
13.8783	0.965
13.9191	0.967
13.9599	0.969
14.0007	0.971
14.0415	0.971
14.0823	0.967
14.1231	0.962
14.1639	0.955
14.2047	0.947
14.2455	0.931
14.2862	0.914
14.327	0.904
14.3678	0.887
14.4086	0.877
14.4494	0.855
14.4902	0.84
14.531	0.823
14.5718	0.809
14.6126	0.799
14.6534	0.772
14.6942	0.75
14.735	0.727
14.7758	0.7
14.8166	0.69
14.8574	0.704
14.8982	0.712
14.939	0.736
14.9797	0.846
15.0205	0.908
15.0613	0.86
15.1021	0.794
15.1429	0.746
15.1837	0.698
15.2245	0.651
15.2653	0.624
15.3061	0.605
15.3469	0.6
15.3877	0.6
15.4285	0.608
15.4693	0.62
15.5101	0.632
15.5509	0.649
15.5917	0.663
15.6325	0.676
15.6732	0.685
15.714	0.7
15.7548	0.719
15.7956	0.734
15.8364	0.743
15.8772	0.746
15.918	0.746
15.9588	0.746
15.9996	0.746
