Infrared Spectrum: PHTHALIMIDE, N-[4-(2-OXO-3-OXAZOLIDINYL)BUTYL]-
Formula: C15 H16 N2 O4
CAS: 23830-89-9
State: SOLID (1 mg / 650 mg KBr DISC)
Class: COBLENTZ III
Instrument: PERKIN-ELMER 521 (GRATING)
Instrument parameters: FILTERS AT 3150, 2500, 2000, 1150, 700, 410. GRATING CHANGES: 2000, 630
Sampling: TRANSMISSION
Resolution: 2
Origin: SOUTHERN RESEARCH INSTITUTE
1/CM	TRANSMITTANCE
254	0.2838
264.013	0.3878
274.027	0.4575
284.04	0.5135
294.053	0.573
304.067	0.6127
314.08	0.6481
324.093	0.6887
334.107	0.7018
344.12	0.6569
354.133	0.7677
364.147	0.7908
374.16	0.8032
384.174	0.8285
394.187	0.8191
404.2	0.8315
414.214	0.8309
424.227	0.8514
434.24	0.8577
444.254	0.8614
454.267	0.8653
464.28	0.8677
474.294	0.8692
484.307	0.8697
494.32	0.8687
504.334	0.8651
514.347	0.8559
524.36	0.7997
534.374	0.8356
544.387	0.8586
554.4	0.8647
564.414	0.8692
574.427	0.8694
584.44	0.8675
594.454	0.8649
604.467	0.8513
614.481	0.8211
624.494	0.8466
634.507	0.8594
644.521	0.8506
654.534	0.8351
664.547	0.8391
674.561	0.8375
684.574	0.7925
694.587	0.8092
704.601	0.7995
714.614	0.69
724.627	0.476
734.641	0.7886
744.654	0.8629
754.667	0.699
764.681	0.8457
774.694	0.8582
784.707	0.8349
794.721	0.804
804.734	0.8619
814.747	0.8695
824.761	0.8704
834.774	0.867
844.788	0.8442
854.801	0.8223
864.814	0.8582
874.828	0.8575
884.841	0.8466
894.854	0.8329
904.868	0.8144
914.881	0.6848
924.894	0.8419
934.908	0.8398
944.921	0.8237
954.934	0.7813
964.948	0.7615
974.961	0.8203
984.974	0.8061
994.988	0.7708
1005	0.7459
1015.01	0.6418
1025.03	0.5789
1035.04	0.6392
1045.05	0.7009
1055.07	0.5009
1065.08	0.6425
1075.09	0.7195
1085.11	0.7887
1095.12	0.8227
1105.13	0.8214
1115.15	0.8018
1125.16	0.7745
1135.17	0.7149
1145.19	0.762
1155.2	0.7866
1165.21	0.7749
1175.23	0.7684
1185.24	0.7326
1195.25	0.7529
1205.27	0.7385
1215.28	0.7323
1225.29	0.7075
1235.31	0.7063
1245.32	0.6649
1255.33	0.5736
1265.35	0.5907
1275.36	0.7195
1285.37	0.7854
1295.39	0.8012
1305.4	0.8077
1315.41	0.7594
1325.43	0.7054
1335.44	0.6849
1345.45	0.7611
1355.47	0.6874
1365.48	0.514
1375.49	0.6535
1385.51	0.6449
1395.52	0.4097
1405.53	0.5191
1415.55	0.6025
1425.56	0.618
1435.58	0.5322
1445.59	0.7249
1455.6	0.664
1465.62	0.7249
1475.63	0.698
1485.64	0.7058
1495.66	0.8202
1505.67	0.8433
1515.68	0.8375
1525.7	0.8361
1535.71	0.8568
1545.72	0.8579
1555.74	0.8519
1565.75	0.8409
1575.76	0.8265
1585.78	0.8063
1595.79	0.7856
1605.8	0.7292
1615.82	0.7799
1625.83	0.7745
1635.84	0.7619
1645.86	0.7333
1655.87	0.6903
1665.88	0.6375
1675.9	0.5812
1685.91	0.493
1695.92	0.2652
1705.94	0.1972
1715.95	0.3894
1725.96	0.561
1735.98	0.4344
1745.99	0.2897
1756	0.3279
1766.02	0.4176
1776.03	0.5955
1786.04	0.7015
1796.06	0.7447
1806.07	0.7783
1816.08	0.7966
1826.1	0.8193
1836.11	0.8389
1846.12	0.8465
1856.14	0.8501
1866.15	0.8642
1876.16	0.8693
1886.18	0.8728
1896.19	0.8746
1906.2	0.88
1916.22	0.8811
1926.23	0.8798
1936.24	0.883
1946.26	0.8837
1956.27	0.8832
1966.28	0.8825
1976.3	0.8881
1986.31	0.8874
1996.32	0.8838
2006.34	0.886
2016.35	0.8875
2026.36	0.8869
2036.38	0.886
2046.39	0.8854
2056.4	0.8853
2066.42	0.8855
2076.43	0.8863
2086.44	0.8872
2096.46	0.8883
2106.47	0.8872
2116.48	0.8866
2126.5	0.8869
2136.51	0.8874
2146.52	0.888
2156.54	0.8879
2166.55	0.8875
2176.56	0.8871
2186.58	0.8873
2196.59	0.8874
2206.6	0.8878
2216.62	0.8884
2226.63	0.889
2236.64	0.8887
2246.66	0.8881
2256.67	0.8878
2266.68	0.8875
2276.7	0.8869
2286.71	0.8861
2296.72	0.8854
2306.74	0.8848
2316.75	0.8842
2326.76	0.8843
2336.78	0.8845
2346.79	0.8844
2356.8	0.8842
2366.82	0.8846
2376.83	0.885
2386.84	0.8846
2396.86	0.8823
2406.87	0.8794
2416.88	0.8776
2426.9	0.8779
2436.91	0.8786
2446.92	0.8792
2456.94	0.8754
2466.95	0.8745
2476.96	0.8758
2486.98	0.8752
2496.99	0.8759
2507	0.8763
2517.02	0.876
2527.03	0.8751
2537.04	0.8745
2547.06	0.8737
2557.07	0.873
2567.08	0.8726
2577.1	0.8725
2587.11	0.8722
2597.12	0.8714
2607.14	0.8709
2617.15	0.8712
2627.16	0.8722
2637.18	0.8727
2647.19	0.8726
2657.2	0.8705
2667.22	0.8685
2677.23	0.867
2687.24	0.8662
2697.26	0.866
2707.27	0.8655
2717.28	0.8658
2727.3	0.8663
2737.31	0.8662
2747.32	0.8657
2757.34	0.8645
2767.35	0.8627
2777.36	0.8607
2787.38	0.8585
2797.39	0.8557
2807.4	0.8523
2817.42	0.8473
2827.43	0.8417
2837.44	0.8289
2847.46	0.8171
2857.47	0.7892
2867.48	0.7802
2877.5	0.7829
2887.51	0.7797
2897.52	0.7768
2907.54	0.7513
2917.55	0.738
2927.56	0.7348
2937.58	0.7305
2947.59	0.7124
2957.6	0.7825
2967.62	0.7727
2977.63	0.7802
2987.64	0.8052
2997.66	0.8252
3007.67	0.8408
3017.68	0.8455
3027.7	0.8413
3037.71	0.8481
3047.72	0.8484
3057.74	0.8432
3067.75	0.8425
3077.76	0.8513
3087.78	0.8522
3097.79	0.8566
3107.8	0.8594
3117.82	0.8621
3127.83	0.8634
3137.84	0.8687
3147.86	0.8596
3157.87	0.8539
3167.88	0.8514
3177.9	0.8489
3187.91	0.8483
3197.92	0.8479
3207.94	0.847
3217.95	0.8464
3227.96	0.8473
3237.98	0.8477
3247.99	0.847
3258	0.8459
3268.02	0.8445
3278.03	0.8431
3288.04	0.8419
3298.06	0.8407
3308.07	0.8398
3318.08	0.8376
3328.1	0.8324
3338.11	0.8274
3348.12	0.823
3358.14	0.8186
3368.15	0.8142
3378.16	0.8098
3388.18	0.8063
3398.19	0.8036
3408.2	0.8008
3418.22	0.7972
3428.23	0.7953
3438.24	0.7913
3448.26	0.7845
3458.27	0.7819
3468.28	0.7917
3478.3	0.8013
3488.31	0.8035
3498.32	0.8039
3508.34	0.8098
3518.35	0.816
3528.36	0.8203
3538.38	0.8243
3548.39	0.8283
3558.4	0.8324
3568.42	0.8363
3578.43	0.84
3588.44	0.8433
3598.46	0.845
3608.47	0.8467
3618.48	0.8489
3628.5	0.8514
3638.51	0.8535
3648.52	0.8547
3658.54	0.8553
3668.55	0.8553
3678.56	0.8547
3688.58	0.8574
3698.59	0.8614
3708.6	0.8609
3718.62	0.8601
3728.63	0.8591
3738.64	0.8585
3748.66	0.8579
3758.67	0.8574
3768.68	0.8571
3778.7	0.857
3788.71	0.8569
3798.73	0.8566
3808.74	0.8563
3818.75	0.856
3828.77	0.8558
3838.78	0.856
3848.79	0.8561
3858.81	0.8562
3868.82	0.8562
3878.83	0.8561
3888.85	0.8561
3898.86	0.8559
3908.87	0.8556
3918.89	0.8553
3928.9	0.855
3938.91	0.8552
3948.93	0.8555
3958.94	0.8556
3968.95	0.8546
3978.97	0.8536
3988.98	0.8524
3998.99	0.8512
