Infrared Spectrum: MCPP-Ester
Formula: C 11 H 13 Cl O 3
CAS: 23844-56-6
State: gas
Instrument: HP-GC/MS/IRD
Origin: NIST Mass Spectrometry Data Center
1/CM	ABSORBANCE
550	0.0018228
562	0.0024056
574	0.0016368
586	0.00093
598	0.0002232
610	0.000248
622	0.0006572
634	0.0017236
646	0.0049972
658	0.0153884
670	0.0109368
682	0.0035216
694	0.001674
706	0.0009052
718	0.0007936
730	0.0008556
742	0.0021576
754	0.004526
766	0.0059768
778	0.0077872
790	0.0116932
802	0.020894
814	0.0148676
826	0.0120156
838	0.0090892
850	0.0062
862	0.0113708
874	0.0304792
886	0.0117924
898	0.0031868
910	0.0022196
922	0.0027032
934	0.0033976
946	0.0033852
958	0.0038564
970	0.0084816
982	0.0185132
994	0.0141608
1006	0.0074276
1018	0.006262
1030	0.0101308
1042	0.0207204
1054	0.0302808
1066	0.0288672
1078	0.036518
1090	0.0512368
1102	0.0472812
1114	0.0556264
1126	0.0884244
1138	0.101978
1150	0.05673
1162	0.0414904
1174	0.0829932
1186	0.124
1198	0.0736932
1210	0.0563952
1222	0.0574616
1234	0.102077
1246	0.101531
1258	0.0547212
1270	0.0559488
1282	0.0560852
1294	0.0339388
1306	0.0197284
1318	0.0166532
1330	0.0140244
1342	0.013454
1354	0.0128092
1366	0.0123876
1378	0.0179924
1390	0.0164176
1402	0.017856
1414	0.0108004
1426	0.0130448
1438	0.0221836
1450	0.0236468
1462	0.0282844
1474	0.0580568
1486	0.112369
1498	0.0705312
1510	0.0214272
1522	0.0109492
1534	0.0070928
1546	0.005456
1558	0.004774
1570	0.0048732
1582	0.0060512
1594	0.0079112
1606	0.0051956
1618	0.0026536
1630	0.0020212
1642	0.0016864
1654	0.0015624
1666	0.00155
1678	0.0018228
1690	0.0024676
1702	0.0042408
1714	0.00806
1726	0.0140988
1738	0.0271808
1750	0.062682
1762	0.0744372
1774	0.066898
1786	0.0438092
1798	0.0176204
1810	0.0082088
1822	0.004526
1834	0.003162
1846	0.00248
1858	0.001736
1870	0.001364
1882	0.001302
1894	0.0012648
1906	0.0011656
1918	0.000992
1930	0.00093
1942	0.0010292
1954	0.00124
1966	0.001364
1978	0.001178
1990	0.0010416
2002	0.0011284
2014	0.0012772
2026	0.0011036
2038	0.0009548
2050	0.0008928
2062	0.0007936
2074	0.0006448
2086	0.0006324
2098	0.0006696
2110	0.0007192
2122	0.0005828
2134	0.0003472
2146	0.0003224
2158	0.0002728
2170	0.0002232
2182	0.0001488
2194	9.92e-05
2206	8.68e-05
2218	9.92e-05
2230	0.000124
2242	0.0001612
2254	0.0002728
2266	0.0002976
2278	0.000186
2290	0.0001488
2302	0.0001364
2314	0.0001364
2326	0.0001116
2338	9.92e-05
2350	0.000186
2362	0.00031
2374	0.00031
2386	0.0002356
2398	0.0002852
2410	0.0003844
2422	0.0003968
2434	0.0002356
2446	0.0003472
2458	0.0005952
2470	0.000806
2482	0.0007068
2494	0.0004588
2506	0.0004216
2518	0.0005456
2530	0.0005332
2542	0.0003348
2554	0.0002852
2566	0.0002108
2578	0.0001736
2590	0.0002108
2602	0.0001984
2614	0.000186
2626	0.000124
2638	0.000124
2650	0.000124
2662	0.0002108
2674	0.0002356
2686	0.0002108
2698	0.0001612
2710	0.0001612
2722	0.0002232
2734	0.0003224
2746	0.0005208
2758	0.0004216
2770	0.0003472
2782	0.0004588
2794	0.0005456
2806	0.0007936
2818	0.00124
2830	0.0021576
2842	0.003844
2854	0.0059644
2866	0.005704
2878	0.0066092
2890	0.0075268
2902	0.008804
2914	0.0111476
2926	0.0164176
2938	0.0237956
2950	0.0265236
2962	0.0313968
2974	0.018414
2986	0.0170624
2998	0.0257672
3010	0.0144708
3022	0.0087668
3034	0.0087544
3046	0.0072912
3058	0.0054808
3070	0.0049972
3082	0.0046004
3094	0.0042656
3106	0.0035836
3118	0.0021576
3130	0.0013392
3142	0.0009548
3154	0.0007688
3166	0.0006448
3178	0.0005828
3190	0.0005208
3202	0.000434
3214	0.0002976
3226	0.000248
3238	0.0001488
3250	9.92e-05
3262	4.96e-05
3274	6.2e-05
3286	4.96e-05
3298	1.24e-05
3310	0
3322	1.24e-05
3334	6.2e-05
3346	7.44e-05
3358	6.2e-05
3370	4.96e-05
3382	8.68e-05
3394	1.24e-05
3406	6.2e-05
3418	3.72e-05
3430	0.000124
3442	0.0001364
3454	0.0001984
3466	0.0002852
3478	0.0005084
3490	0.0008184
3502	0.0008184
3514	0.0007812
3526	0.0007688
3538	0.0007688
3550	0.0005084
3562	0.0003224
3574	0.0002976
3586	0.0002232
3598	0.000248
3610	0.0001612
3622	9.92e-05
3634	0.0001984
3646	8.68e-05
3658	0.0002232
3670	0.000124
3682	0.000186
3694	0.0002108
3706	0.0002232
3718	0.0002232
3730	0.000186
3742	0.0001612
3754	0.000186
3766	0.0002852
3778	0.000186
3790	0.0001984
3802	0.0001736
3814	0.0002728
3826	0.0002356
3838	0.0002976
