Infrared Spectrum: 2-Decyne
Formula: C 10 H 18
CAS: 2384-70-5
State: gas
Instrument: HP-GC/MS/IRD
Origin: NIST Mass Spectrometry Data Center
1/CM	ABSORBANCE
550	0.0006604
562	0.0004836
574	0.000481
586	0.0003146
598	0.0002782
610	0.0001612
622	0.0001586
634	0.0001352
646	0.0002106
658	0.0001508
670	0.0002002
682	0.0002314
694	0.0001846
706	0.0002444
718	0.0003276
730	0.0003432
742	0.0002912
754	0.000182
766	0.0001508
778	0.0001326
790	0.0001352
802	0.0001586
814	7.8e-05
826	8.84e-05
838	7.02e-05
850	8.58e-05
862	5.46e-05
874	7.28e-05
886	0.0001066
898	8.32e-05
910	7.28e-05
922	4.94e-05
934	2.6e-05
946	4.42e-05
958	2.6e-05
970	3.64e-05
982	5.72e-05
994	7.54e-05
1006	0.000117
1018	0.000117
1030	0.0001118
1042	9.1e-05
1054	8.32e-05
1066	0.0001066
1078	8.32e-05
1090	0.0001144
1102	0.0001534
1114	0.0001378
1126	0.000104
1138	7.54e-05
1150	8.06e-05
1162	0.000104
1174	9.62e-05
1186	0.0001144
1198	0.0001534
1210	7.54e-05
1222	0.0001794
1234	0.000169
1246	0.0002288
1258	0.0003328
1270	0.0003588
1282	0.000455
1294	0.000611
1306	0.000676
1318	0.0008632
1330	0.0012584
1342	0.0012194
1354	0.0011258
1366	0.0009984
1378	0.001144
1390	0.0009204
1402	0.000598
1414	0.000637
1426	0.0008476
1438	0.001573
1450	0.0020566
1462	0.002236
1474	0.001573
1486	0.0008346
1498	0.0006084
1510	0.0003328
1522	0.0002886
1534	0.0002678
1546	0.0002548
1558	0.0001872
1570	0.0002236
1582	0.000208
1594	0.000169
1606	0.0001664
1618	0.0001378
1630	0.0001092
1642	0.0001118
1654	6.24e-05
1666	5.46e-05
1678	1.82e-05
1690	4.16e-05
1702	1.3e-05
1714	2.6e-05
1726	7.02e-05
1738	3.64e-05
1750	7.8e-06
1762	3.64e-05
1774	2.08e-05
1786	2.08e-05
1798	1.04e-05
1810	1.82e-05
1822	4.94e-05
1834	3.9e-05
1846	2.6e-05
1858	3.64e-05
1870	2.34e-05
1882	5.98e-05
1894	2.6e-05
1906	3.12e-05
1918	4.94e-05
1930	4.16e-05
1942	3.9e-05
1954	5.46e-05
1966	5.98e-05
1978	8.32e-05
1990	5.2e-05
2002	5.98e-05
2014	6.76e-05
2026	8.06e-05
2038	8.58e-05
2050	0.0001118
2062	0.000104
2074	4.94e-05
2086	3.64e-05
2098	4.68e-05
2110	4.94e-05
2122	5.2e-05
2134	4.68e-05
2146	3.9e-05
2158	5.2e-05
2170	4.94e-05
2182	4.16e-05
2194	4.16e-05
2206	3.9e-05
2218	4.42e-05
2230	3.9e-05
2242	5.46e-05
2254	3.64e-05
2266	4.42e-05
2278	2.08e-05
2290	3.9e-05
2302	5.2e-05
2314	5.2e-05
2326	3.38e-05
2338	2.34e-05
2350	4.68e-05
2362	7.8e-05
2374	6.24e-05
2386	6.5e-05
2398	7.8e-05
2410	0.000104
2422	7.28e-05
2434	0.0001092
2446	0.0001014
2458	7.8e-05
2470	0.0001144
2482	0.0001248
2494	0.0001274
2506	0.0001196
2518	0.0001274
2530	0.0001456
2542	0.0001196
2554	0.0001274
2566	0.0001664
2578	0.000169
2590	0.0001456
2602	0.0001482
2614	0.0001898
2626	0.0002054
2638	0.0002262
2650	0.0002392
2662	0.0002964
2674	0.0003302
2686	0.0003354
2698	0.000299
2710	0.0003172
2722	0.000338
2734	0.0004472
2746	0.0005434
2758	0.000546
2770	0.000494
2782	0.0006006
2794	0.000663
2806	0.0008502
2818	0.0011622
2830	0.0016536
2842	0.0030134
2854	0.0062426
2866	0.009321
2878	0.00871
2890	0.0069628
2902	0.0077298
2914	0.0122564
2926	0.0212524
2938	0.026
2950	0.017446
2962	0.0118274
2974	0.0088556
2986	0.0040872
2998	0.0024518
3010	0.001755
3022	0.001313
3034	0.0011518
3046	0.0008242
3058	0.0007046
3070	0.000585
3082	0.0004992
3094	0.0004056
3106	0.0003432
3118	0.0003198
3130	0.0003146
3142	0.000273
3154	0.0002366
3166	0.000208
3178	0.000208
3190	0.0002028
3202	0.0001664
3214	0.0001508
3226	0.0001508
3238	0.0001248
3250	0.0001352
3262	0.0001092
3274	0.0001378
3286	9.62e-05
3298	0.0001066
3310	0.0001352
3322	0.000117
3334	0.0001768
3346	0.000143
3358	0.0001144
3370	0.000104
3382	8.84e-05
3394	0.0001222
3406	0.000169
3418	9.36e-05
3430	7.54e-05
3442	0.0001118
3454	0.0001196
3466	0.0001378
3478	9.36e-05
3490	0.0001248
3502	2.86e-05
3514	7.28e-05
3526	4.42e-05
3538	6.5e-05
3550	4.16e-05
3562	3.12e-05
3574	3.12e-05
3586	5.72e-05
3598	5.46e-05
3610	3.38e-05
3622	6.76e-05
3634	7.02e-05
3646	9.36e-05
3658	9.62e-05
3670	4.42e-05
3682	8.84e-05
3694	9.88e-05
3706	9.88e-05
3718	8.06e-05
3730	0.0001014
3742	4.42e-05
3754	0.0001222
3766	0.0001508
3778	0.0001404
3790	0.0001378
3802	9.1e-05
3814	0.00013
3826	0.0001456
3838	0.000117
