Infrared Spectrum: 4-Decyne
Formula: C 10 H 18
CAS: 2384-86-3
State: gas
Instrument: HP-GC/MS/IRD
Origin: NIST Mass Spectrometry Data Center
1/CM	ABSORBANCE
550	0.0003055
562	7.99e-05
574	2.82e-05
586	7.52e-05
598	8.93e-05
610	0.0001034
622	0.0001175
634	0.0001175
646	9.87e-05
658	7.52e-05
670	1.41e-05
682	9.87e-05
694	0.0001833
706	0.0003431
718	0.00047
730	0.0006674
742	0.0006721
754	0.0005405
766	0.0004418
778	0.0003666
790	0.000376
802	0.0003854
814	0.0003431
826	0.0002115
838	0.0002773
850	0.0002679
862	0.0003572
874	0.0004512
886	0.0005405
898	0.0005311
910	0.0003619
922	0.0002726
934	0.0002491
946	0.0002444
958	0.000329
970	0.0004324
982	0.0004747
994	0.0003666
1006	0.0003713
1018	0.0004042
1030	0.0004935
1042	0.0003525
1054	0.0003572
1066	0.000517
1078	0.0004935
1090	0.0004841
1102	0.0004982
1114	0.0003854
1126	0.0001927
1138	0.0001598
1150	0.000141
1162	0.0001457
1174	0.0001739
1186	0.0002538
1198	0.0002961
1210	0.0003807
1222	0.0004935
1234	0.000564
1246	0.0005217
1258	0.0006533
1270	0.0012314
1282	0.0019317
1294	0.0014194
1306	0.0014946
1318	0.0024957
1330	0.0051042
1342	0.0046906
1354	0.0025333
1366	0.0019599
1378	0.0021667
1390	0.0021056
1402	0.0013724
1414	0.0013254
1426	0.0021526
1438	0.0039527
1450	0.0046483
1462	0.0048645
1474	0.0035814
1486	0.0019082
1498	0.001081
1510	0.0007097
1522	0.000517
1534	0.0003666
1546	0.000329
1558	0.0002397
1570	0.0002679
1582	0.0002773
1594	0.0002632
1606	0.0002162
1618	0.0001739
1630	0.0001504
1642	0.0001457
1654	0.0001316
1666	0.0001316
1678	0.0001175
1690	0.0001316
1702	8.93e-05
1714	6.11e-05
1726	7.52e-05
1738	4.23e-05
1750	5.64e-05
1762	2.82e-05
1774	2.82e-05
1786	4.23e-05
1798	6.58e-05
1810	2.82e-05
1822	3.76e-05
1834	4.23e-05
1846	4.23e-05
1858	4.23e-05
1870	2.35e-05
1882	1.41e-05
1894	2.82e-05
1906	1.88e-05
1918	1.41e-05
1930	3.76e-05
1942	4.7e-05
1954	6.58e-05
1966	3.29e-05
1978	3.76e-05
1990	3.76e-05
2002	5.17e-05
2014	4.7e-05
2026	8.46e-05
2038	7.99e-05
2050	8.46e-05
2062	5.17e-05
2074	7.05e-05
2086	7.05e-05
2098	7.52e-05
2110	7.05e-05
2122	5.64e-05
2134	7.05e-05
2146	7.52e-05
2158	7.52e-05
2170	8.46e-05
2182	9.87e-05
2194	9.87e-05
2206	7.05e-05
2218	7.52e-05
2230	9.4e-05
2242	7.99e-05
2254	7.52e-05
2266	8.46e-05
2278	7.52e-05
2290	7.52e-05
2302	7.05e-05
2314	7.05e-05
2326	7.05e-05
2338	7.52e-05
2350	8.93e-05
2362	3.29e-05
2374	8.46e-05
2386	0.0001034
2398	9.87e-05
2410	7.52e-05
2422	9.4e-05
2434	0.0001081
2446	9.4e-05
2458	7.05e-05
2470	6.58e-05
2482	3.29e-05
2494	6.58e-05
2506	7.52e-05
2518	0.0001034
2530	0.0001269
2542	0.0001457
2554	0.0001645
2566	0.0002068
2578	0.0002303
2590	0.0002444
2602	0.000235
2614	0.0002679
2626	0.0003102
2638	0.0003713
2650	0.0004841
2662	0.0005217
2674	0.0005311
2686	0.0004747
2698	0.0004653
2710	0.0005123
2722	0.0005499
2734	0.0006486
2746	0.0007614
2758	0.0007896
2770	0.0008742
2782	0.0010387
2794	0.001269
2806	0.001645
2818	0.0022231
2830	0.0032994
2842	0.0058844
2854	0.0105985
2866	0.0151058
2878	0.017813
2890	0.0163372
2902	0.0166709
2914	0.0236222
2926	0.0352735
2938	0.047
2950	0.0379807
2962	0.0317673
2974	0.0291259
2986	0.0153126
2998	0.0069701
3010	0.0039856
3022	0.0027354
3034	0.0020069
3046	0.0015698
3058	0.0013395
3070	0.0011421
3082	0.0010199
3094	0.0008883
3106	0.000752
3118	0.0006862
3130	0.0005781
3142	0.0005593
3154	0.000517
3166	0.0004982
3178	0.0004418
3190	0.0003948
3202	0.0003572
3214	0.000282
3226	0.000235
3238	0.0001739
3250	0.0001598
3262	0.0001269
3274	0.0001645
3286	0.0001269
3298	0.0001316
3310	0.0001363
3322	0.0001269
3334	0.0001786
3346	0.0002115
3358	0.0001692
3370	0.0001363
3382	8.93e-05
3394	0.0001128
3406	0.0001316
3418	0.0001081
3430	0.0001269
3442	0.0001786
3454	0.0001034
3466	0.0001081
3478	9.87e-05
3490	7.99e-05
3502	8.46e-05
3514	3.29e-05
3526	4.7e-05
3538	2.82e-05
3550	6.58e-05
3562	6.11e-05
3574	6.11e-05
3586	7.52e-05
3598	8.93e-05
3610	4.7e-05
3622	0.0001081
3634	0.0001269
3646	0.0001128
3658	0.0001034
3670	8.93e-05
3682	0.0001504
3694	0.0001645
3706	0.0001833
3718	0.0001739
3730	0.0001551
3742	0.000188
3754	0.000141
3766	0.0001927
3778	0.0001692
3790	0.000188
3802	0.0001645
3814	0.0001504
3826	0.0002256
3838	0.000141
