Infrared Spectrum: Benzoic acid, p-[(3-amino-2-oxopropyl)amino]-, ethyl ester, oxime
Formula: C12 H17 N3 O3
CAS: 23852-97-3
State: SOLID (1 mg / 650 mg KBr DISC)
Class: COBLENTZ III
Instrument: PERKIN-ELMER 521 (GRATING)
Instrument parameters: FILTERS AT 3150, 2500, 2000, 1150, 700, 410. GRATING CHANGES: 2000, 630
Sampling: TRANSMISSION
Resolution: 2
Origin: SOUTHERN RESEARCH INSTITUTE
1/CM	TRANSMITTANCE
259	0.3621
269.027	0.4123
279.053	0.4715
289.08	0.5208
299.107	0.5626
309.134	0.5994
319.16	0.6322
329.187	0.6474
339.214	0.6609
349.241	0.7034
359.267	0.7098
369.294	0.7171
379.321	0.7249
389.348	0.7417
399.374	0.7651
409.401	0.7721
419.428	0.7732
429.454	0.7791
439.481	0.7895
449.508	0.7938
459.535	0.7938
469.561	0.7913
479.588	0.7832
489.615	0.7563
499.642	0.7229
509.668	0.7677
519.695	0.7636
529.722	0.77
539.748	0.7654
549.775	0.7523
559.802	0.7396
569.829	0.7285
579.855	0.7264
589.882	0.7371
599.909	0.753
609.936	0.7569
619.962	0.776
629.989	0.7514
640.016	0.7705
650.043	0.7742
660.069	0.7698
670.096	0.794
680.123	0.7931
690.149	0.7172
700.176	0.7431
710.203	0.8398
720.23	0.8388
730.256	0.8312
740.283	0.8155
750.31	0.7689
760.337	0.5344
770.363	0.5241
780.39	0.804
790.417	0.7938
800.443	0.7874
810.47	0.7804
820.497	0.7476
830.524	0.5303
840.55	0.7293
850.577	0.7113
860.604	0.6792
870.631	0.6779
880.657	0.6775
890.684	0.6384
900.711	0.5823
910.738	0.525
920.764	0.4643
930.791	0.4721
940.818	0.51
950.844	0.5542
960.871	0.5456
970.898	0.5188
980.925	0.4673
990.951	0.5126
1000.98	0.5109
1011	0.4995
1021.03	0.5485
1031.06	0.6777
1041.09	0.7224
1051.11	0.7105
1061.14	0.6566
1071.17	0.5471
1081.19	0.4308
1091.22	0.4243
1101.25	0.4287
1111.27	0.3578
1121.3	0.4659
1131.33	0.6436
1141.35	0.6456
1151.38	0.6095
1161.41	0.4721
1171.43	0.2169
1181.46	0.2742
1191.49	0.7155
1201.51	0.7022
1211.54	0.7084
1221.57	0.6533
1231.59	0.6337
1241.62	0.5913
1251.65	0.499
1261.67	0.3675
1271.7	0.2348
1281.73	0.0678
1291.75	0.1333
1301.78	0.4561
1311.81	0.3569
1321.83	0.511
1331.86	0.6111
1341.89	0.6278
1351.91	0.5344
1361.94	0.4039
1371.97	0.6404
1381.99	0.6016
1392.02	0.7193
1402.05	0.7332
1412.07	0.6916
1422.1	0.6682
1432.13	0.6106
1442.15	0.5492
1452.18	0.5507
1462.21	0.5286
1472.23	0.5287
1482.26	0.5657
1492.29	0.5355
1502.31	0.5598
1512.34	0.5234
1522.37	0.3272
1532.39	0.4135
1542.42	0.6949
1552.45	0.6946
1562.48	0.6064
1572.5	0.51
1582.53	0.3866
1592.56	0.1596
1602.58	0.1335
1612.61	0.282
1622.64	0.5215
1632.66	0.5962
1642.69	0.5202
1652.72	0.3464
1662.74	0.1857
1672.77	0.1977
1682.8	0.3758
1692.82	0.5814
1702.85	0.6893
1712.88	0.7445
1722.9	0.7944
1732.93	0.8154
1742.96	0.8213
1752.98	0.8211
1763.01	0.8212
1773.04	0.8212
1783.06	0.8216
1793.09	0.823
1803.12	0.8249
1813.14	0.8278
1823.17	0.8273
1833.2	0.8256
1843.22	0.8232
1853.25	0.8205
1863.28	0.8177
1873.3	0.8125
1883.33	0.8051
1893.36	0.8002
1903.38	0.8003
1913.41	0.8042
1923.44	0.8144
1933.46	0.8203
1943.49	0.8193
1953.52	0.8164
1963.54	0.8153
1973.57	0.8164
1983.6	0.8198
1993.62	0.8221
2003.65	0.824
2013.68	0.8256
2023.7	0.8271
2033.73	0.8277
2043.76	0.8276
2053.78	0.8273
2063.81	0.8269
2073.84	0.8263
2083.87	0.8258
2093.89	0.825
2103.92	0.8233
2113.95	0.8227
2123.97	0.8228
2134	0.8228
2144.03	0.8234
2154.05	0.8244
2164.08	0.8246
2174.11	0.8247
2184.13	0.8225
2194.16	0.8193
2204.19	0.8153
2214.21	0.8132
2224.24	0.8111
2234.27	0.8078
2244.29	0.8038
2254.32	0.7997
2264.35	0.7955
2274.37	0.7914
2284.4	0.7877
2294.43	0.7833
2304.45	0.7742
2314.48	0.773
2324.51	0.772
2334.53	0.7688
2344.56	0.7629
2354.59	0.7567
2364.61	0.7494
2374.64	0.7414
2384.67	0.7335
2394.69	0.7257
2404.72	0.7175
2414.75	0.7092
2424.77	0.7005
2434.8	0.6919
2444.83	0.6839
2454.85	0.6763
2464.88	0.6687
2474.91	0.6616
2484.93	0.655
2494.96	0.6475
2504.99	0.6382
2515.01	0.6285
2525.04	0.6188
2535.07	0.6082
2545.09	0.5972
2555.12	0.5886
2565.15	0.5803
2575.17	0.5731
2585.2	0.5663
2595.23	0.5585
2605.26	0.5491
2615.28	0.542
2625.31	0.5319
2635.34	0.5286
2645.36	0.5258
2655.39	0.5209
2665.42	0.5161
2675.44	0.5129
2685.47	0.5114
2695.5	0.5128
2705.52	0.5171
2715.55	0.52
2725.58	0.5222
2735.6	0.5229
2745.63	0.5186
2755.66	0.514
2765.68	0.5137
2775.71	0.5157
2785.74	0.5199
2795.76	0.5242
2805.79	0.5252
2815.82	0.531
2825.84	0.5331
2835.87	0.5315
2845.9	0.5311
2855.92	0.5384
2865.95	0.5529
2875.98	0.5577
2886	0.5537
2896.03	0.5521
2906.06	0.5561
2916.08	0.5664
2926.11	0.5734
2936.14	0.5794
2946.16	0.5706
2956.19	0.5807
2966.22	0.581
2976.24	0.5533
2986.27	0.5647
2996.3	0.5999
3006.32	0.6208
3016.35	0.6156
3026.38	0.6087
3036.4	0.6138
3046.43	0.6155
3056.46	0.6169
3066.48	0.6282
3076.51	0.6355
3086.54	0.6564
3096.56	0.671
3106.59	0.6814
3116.62	0.6895
3126.65	0.6944
3136.67	0.682
3146.7	0.6594
3156.73	0.646
3166.75	0.6503
3176.78	0.6578
3186.81	0.6672
3196.83	0.6726
3206.86	0.6822
3216.89	0.6893
3226.91	0.6887
3236.94	0.6852
3246.97	0.6779
3256.99	0.6661
3267.02	0.6516
3277.05	0.6364
3287.07	0.6066
3297.1	0.571
3307.13	0.5666
3317.15	0.5616
3327.18	0.4915
3337.21	0.3751
3347.23	0.2589
3357.26	0.2128
3367.29	0.2165
3377.31	0.3628
3387.34	0.5434
3397.37	0.6092
3407.39	0.6183
3417.42	0.6423
3427.45	0.697
3437.47	0.7189
3447.5	0.7318
3457.53	0.7423
3467.55	0.75
3477.58	0.7545
3487.61	0.7582
3497.63	0.7624
3507.66	0.7677
3517.69	0.7825
3527.71	0.7922
3537.74	0.7986
3547.77	0.8046
3557.79	0.8106
3567.82	0.817
3577.85	0.824
3587.87	0.8316
3597.9	0.8392
3607.93	0.8473
3617.95	0.8579
3627.98	0.8641
3638.01	0.866
3648.04	0.8669
3658.06	0.867
3668.09	0.8658
3678.12	0.8652
3688.14	0.8711
3698.17	0.8725
3708.2	0.8707
3718.22	0.8691
3728.25	0.8679
3738.28	0.8669
3748.3	0.8666
3758.33	0.8663
3768.36	0.8661
3778.38	0.8661
3788.41	0.866
3798.44	0.8661
3808.46	0.8663
3818.49	0.8666
3828.52	0.8669
3838.54	0.8663
3848.57	0.8654
3858.6	0.8644
3868.62	0.8635
3878.65	0.8626
3888.68	0.8618
3898.7	0.8614
3908.73	0.861
3918.76	0.8606
3928.78	0.8599
3938.81	0.8592
3948.84	0.8587
3958.86	0.8586
3968.89	0.8585
3978.92	0.8586
3988.94	0.8583
3998.97	0.8574
4009	0.8564
