Infrared Spectrum: S-Hydroxymethyl thiobenzoate
Formula: C 8 H 8 O 2 S
CAS: 23853-33-0
State: gas
Origin: EPA-IR VAPOR PHASE LIBRARY
1/CM	ABSORBANCE
549.9	0.0020288
559.547	0.0018543
569.193	0.0020414
578.84	0.0020817
588.486	0.0021579
598.133	0.00256
607.779	0.00376
617.426	0.00561
627.072	0.00737
636.719	0.00882
646.365	0.01116
656.012	0.01215
665.658	0.01746
675.305	0.03605
684.951	0.04266
694.598	0.02805
704.245	0.01314
713.891	0.00665
723.538	0.00443
733.184	0.0037
742.831	0.00466
752.477	0.00883
762.124	0.01395
771.77	0.01358
781.417	0.00928
791.063	0.00882
800.71	0.00898
810.356	0.00951
820.003	0.01953
829.649	0.04784
839.296	0.04799
848.943	0.01949
858.589	0.00803
868.236	0.00708
877.882	0.00783
887.529	0.00647
897.175	0.0057
906.822	0.00632
916.468	0.00808
926.115	0.01263
935.761	0.02266
945.408	0.03254
955.054	0.02904
964.701	0.01693
974.347	0.01251
983.994	0.00873
993.64	0.00613
1003.29	0.00443
1012.93	0.00305
1022.58	0.0028
1032.23	0.00249
1041.87	0.0019312
1051.52	0.0018414
1061.17	0.00238
1070.81	0.00257
1080.46	0.00254
1090.11	0.00258
1099.75	0.00244
1109.4	0.00226
1119.05	0.0020307
1128.69	0.00229
1138.34	0.00286
1147.99	0.00401
1157.63	0.00578
1167.28	0.01395
1176.92	0.02649
1186.57	0.02977
1196.22	0.04552
1205.86	0.06845
1215.51	0.05425
1225.16	0.01816
1234.8	0.01221
1244.45	0.00859
1254.1	0.00509
1263.74	0.00344
1273.39	0.00314
1283.04	0.00345
1292.68	0.00372
1302.33	0.00437
1311.98	0.00478
1321.62	0.00408
1331.27	0.00294
1340.92	0.0023
1350.56	0.0016763
1360.21	0.0015342
1369.86	0.0016788
1379.5	0.00202
1389.15	0.00247
1398.79	0.00231
1408.44	0.0018064
1418.09	0.0017932
1427.73	0.00225
1437.38	0.00516
1447.03	0.00817
1456.67	0.00724
1466.32	0.00298
1475.97	0.0021043
1485.61	0.00222
1495.26	0.0021674
1504.91	0.0019115
1514.55	0.0020161
1524.2	0.001945
1533.85	0.0017135
1543.49	0.0016286
1553.14	0.0017147
1562.79	0.00228
1572.43	0.00377
1582.08	0.00515
1591.73	0.00584
1601.37	0.0054
1611.02	0.00438
1620.67	0.00367
1630.31	0.00382
1639.96	0.00478
1649.6	0.00677
1659.25	0.01018
1668.9	0.01447
1678.54	0.02091
1688.19	0.03535
1697.84	0.06534
1707.48	0.07538
1717.13	0.06392
1726.78	0.02814
1736.42	0.01385
1746.07	0.01033
1755.72	0.00816
1765.36	0.00639
1775.01	0.00535
1784.66	0.00461
1794.3	0.00401
1803.95	0.0035
1813.6	0.00265
1823.24	0.0017776
1832.89	0.0015463
1842.54	0.0014205
1852.18	0.00128606
1861.83	0.001415
1871.47	0.0015316
1881.12	0.001683
1890.77	0.0020512
1900.41	0.00226
1910.06	0.0019758
1919.71	0.0014664
1929.35	0.0011621
1939	0.0013384
1948.65	0.0016963
1958.29	0.0018749
1967.94	0.001858
1977.59	0.001401
1987.23	0.000973
1996.88	0.000871
2006.53	0.000907
2016.17	0.000921
2025.82	0.000963
2035.47	0.001093
2045.11	0.001048
2054.76	0.000967
2064.41	0.000847
2074.05	0.000908
2083.7	0.000833
2093.35	0.000779
2102.99	0.000766
2112.64	0.000747
2122.28	0.000782
2131.93	0.000759
2141.58	0.000748
2151.22	0.000787
2160.87	0.00073
2170.52	0.000703
2180.16	0.000704
2189.81	0.000671
2199.46	0.00071
2209.1	0.000725
2218.75	0.000745
2228.4	0.000714
2238.04	0.000742
2247.69	0.000752
2257.34	0.000763
2266.98	0.000791
2276.63	0.000817
2286.28	0.000818
2295.92	0.000767
2305.57	0.000821
2315.22	0.000998
2324.86	0.001031
2334.51	0.000908
2344.16	0.000915
2353.8	0.000913
2363.45	0.000813
2373.09	0.000892
2382.74	0.000954
2392.39	0.000936
2402.03	0.000934
2411.68	0.000964
2421.33	0.000889
2430.97	0.000744
2440.62	0.000658
2450.27	0.000691
2459.91	0.000663
2469.56	0.000608
2479.21	0.000602
2488.85	0.000619
2498.5	0.000622
2508.15	0.000536
2517.79	0.000602
2527.44	0.000622
2537.09	0.000564
2546.73	0.000606
2556.38	0.00057
2566.03	0.000636
2575.67	0.000743
2585.32	0.001003
2594.96	0.0013314
2604.61	0.00123861
2614.26	0.000744
2623.9	0.000681
2633.55	0.0006
2643.2	0.000644
2652.84	0.000639
2662.49	0.00057
2672.14	0.000518
2681.78	0.000565
2691.43	0.000546
2701.08	0.000666
2710.72	0.000481
2720.37	0.000476
2730.02	0.000488
2739.66	0.000443
2749.31	0.000515
2758.96	0.000486
2768.6	0.000519
2778.25	0.000506
2787.9	0.000575
2797.54	0.000528
2807.19	0.000569
2816.84	0.000515
2826.48	0.000419
2836.13	0.000482
2845.77	0.00036
2855.42	0.000424
2865.07	0.000414
2874.71	0.000493
2884.36	0.000593
2894.01	0.000343
2903.65	0.000442
2913.3	0.000505
2922.95	0.000466
2932.59	0.000323
2942.24	0.000277
2951.89	0.000365
2961.53	0.000232
2971.18	0.0002
2980.83	0.000353
2990.47	0.000441
3000.12	0.000428
3009.77	0.000947
3019.41	0.0017516
3029.06	0.00314
3038.71	0.00438
3048.35	0.00466
3058	0.00593
3067.64	0.01024
3077.29	0.01202
3086.94	0.00876
3096.58	0.00611
3106.23	0.00353
3115.88	0.0015797
3125.52	0.000849
3135.17	0.000333
3144.82	0.00058
3154.46	0.00069
3164.11	0.000621
3173.76	0.000573
3183.4	0.0003
3193.05	0.00011
3202.7	4e-05
3212.34	3e-05
3221.99	0.000255
3231.64	0.00045
3241.28	0.000235
3250.93	0.000372
3260.58	0.000344
3270.22	0.000373
3279.87	0.000468
3289.52	0.000326
3299.16	0.00039
3308.81	0.000446
3318.45	0.000441
3328.1	0.000348
3337.75	0.000721
3347.39	0.000651
3357.04	0.000919
3366.69	0.0013377
3376.33	0.00124762
3385.98	0.0015284
3395.63	0.0017697
3405.27	0.00123685
3414.92	0.00096
3424.57	0.00088
3434.21	0.000818
3443.86	0.000829
3453.51	0.000702
3463.15	0.00076
3472.8	0.000742
3482.45	0.000694
3492.09	0.000619
3501.74	0.000798
3511.39	0.000708
3521.03	0.001104
3530.68	0.0012466
3540.33	0.0011128
3549.97	0.000769
3559.62	0.000712
3569.26	0.001017
3578.91	0.000618
3588.56	0.000986
3598.2	0.000777
3607.85	0.000868
3617.5	0.000713
3627.14	0.000904
3636.79	0.00063
3646.44	0.000788
3656.08	0.000814
3665.73	0.000874
3675.38	0.000807
3685.02	0.000811
3694.67	0.000785
3704.32	0.00093
3713.96	0.000826
3723.61	0.000822
3733.26	0.000867
3742.9	0.00085
3752.55	0.000809
3762.2	0.000786
3771.84	0.000936
3781.49	0.000863
3791.13	0.000836
3800.78	0.000732
3810.43	0.000736
3820.07	0.000866
3829.72	0.000784
3839.37	0.000705
3849.01	0.000685
3858.66	0.000665
3868.31	0.000851
3877.95	0.000828
3887.6	0.0008
3897.25	0.000691
3906.89	0.000878
3916.54	0.000825
3926.19	0.000739
3935.83	0.000703
3945.48	0.000697
3955.13	0.000672
3964.77	0.000762
3974.42	0.000718
3984.07	0.000719
3993.71	0.000828
