Infrared Spectrum: Mirex
Formula: C 10 Cl 12
CAS: 2385-85-5
State: gas
Instrument: HP-GC/MS/IRD
Origin: NIST Mass Spectrometry Data Center
1/CM	ABSORBANCE
550	0.0007975
562	0.0005475
574	0.00042
586	0.00031
598	0.0004275
610	0.00036
622	0.000645
634	0.00194
646	0.009375
658	0.0109525
670	0.003635
682	0.00084
694	0.000635
706	0.0007075
718	0.0003125
730	0.0001
742	0.000145
754	0.00011
766	0.0007825
778	0.000435
790	0.0006525
802	0.0017825
814	0.0047925
826	0.0055375
838	0.001255
850	0.0004975
862	0.000175
874	0.0004975
886	0.0013
898	0.000565
910	0.0004075
922	0.000125
934	0.0001775
946	0.000765
958	0.0035
970	0.00239
982	0.0011225
994	0.00171
1006	0.001605
1018	0.00197
1030	0.0024675
1042	0.0070275
1054	0.0192725
1066	0.010945
1078	0.005455
1090	0.00202
1102	0.0016075
1114	0.004045
1126	0.0123025
1138	0.0125675
1150	0.0196625
1162	0.0026275
1174	0.001855
1186	0.0019825
1198	0.0019775
1210	0.0015975
1222	0.0012925
1234	0.0011525
1246	0.0009875
1258	0.00089
1270	0.00082
1282	0.00069
1294	0.00058
1306	0.0005475
1318	0.00052
1330	0.00044
1342	0.0004525
1354	0.000445
1366	0.0004
1378	0.0003575
1390	0.0003475
1402	0.0003475
1414	0.00024
1426	0.000205
1438	0.000105
1450	7.25e-05
1462	7.75e-05
1474	7.75e-05
1486	7.25e-05
1498	8.5e-05
1510	9.5e-05
1522	8.75e-05
1534	9.5e-05
1546	9.5e-05
1558	0.000105
1570	0.0001125
1582	0.000195
1594	0.0001325
1606	0.000115
1618	0.0001875
1630	0.000165
1642	0.000205
1654	0.0002675
1666	0.0002575
1678	0.0002775
1690	0.0003
1702	0.00036
1714	0.00035
1726	0.0003
1738	0.0003275
1750	0.00027
1762	0.0003025
1774	0.000305
1786	0.000245
1798	0.0002925
1810	0.000305
1822	0.00031
1834	0.0003125
1846	0.0003275
1858	0.00033
1870	0.00029
1882	0.0002525
1894	0.0002575
1906	0.000235
1918	0.0002175
1930	0.000235
1942	0.000235
1954	0.0002325
1966	0.0002325
1978	0.000225
1990	0.0002325
2002	0.000215
2014	0.000255
2026	0.0002375
2038	0.0002325
2050	0.0002175
2062	0.0001975
2074	0.0001825
2086	0.00019
2098	0.0001925
2110	0.0002075
2122	0.0001925
2134	0.0001575
2146	0.0002275
2158	0.000185
2170	0.00023
2182	0.00023
2194	0.0001725
2206	0.000115
2218	0.000125
2230	0.0001225
2242	0.000125
2254	0.0001375
2266	0.0001575
2278	0.0001525
2290	0.0001625
2302	0.000175
2314	0.000155
2326	0.0001425
2338	0.000145
2350	0.000135
2362	0.0001
2374	8.25e-05
2386	0.000105
2398	0.000125
2410	0.0001425
2422	9.5e-05
2434	0.00013
2446	0.000155
2458	0.0001325
2470	0.0001225
2482	0.00015
2494	0.000145
2506	9.5e-05
2518	0.000115
2530	0.00014
2542	9e-05
2554	0.00012
2566	0.0001225
2578	0.000135
2590	0.000105
2602	0.0001375
2614	0.00011
2626	8.25e-05
2638	9.5e-05
2650	9.5e-05
2662	0.0001175
2674	0.00012
2686	0.0001125
2698	9.75e-05
2710	9.5e-05
2722	8.25e-05
2734	6.25e-05
2746	0.0001225
2758	9.75e-05
2770	0.0001
2782	5e-05
2794	8.25e-05
2806	1.5e-05
2818	5.75e-05
2830	4.25e-05
2842	9e-05
2854	6.75e-05
2866	7.25e-05
2878	8.5e-05
2890	0.0001125
2902	9e-05
2914	9.25e-05
2926	0.00011
2938	0.000115
2950	3.25e-05
2962	8.5e-05
2974	0.0001375
2986	9.75e-05
2998	0.0001175
3010	0.0001175
3022	8.75e-05
3034	0.000145
3046	0.00015
3058	0.000155
3070	0.000135
3082	0.0001125
3094	0.0001225
3106	0.0001075
3118	8.75e-05
3130	4.25e-05
3142	6.25e-05
3154	0.0001025
3166	4.75e-05
3178	0.000135
3190	8.5e-05
3202	0.0001125
3214	0.000105
3226	0.0001075
3238	5.5e-05
3250	8.75e-05
3262	9e-05
3274	9.5e-05
3286	0.0001025
3298	0.0001375
3310	0.000135
3322	0.00011
3334	0.00016
3346	0.0001425
3358	0.000135
3370	0.000165
3382	0.00017
3394	0.000185
3406	0.0001975
3418	0.0002375
3430	0.000165
3442	0.000175
3454	0.00024
3466	0.000165
3478	0.0002275
3490	0.00015
3502	0.0002775
3514	0.0002225
3526	0.0002225
3538	0.0002675
3550	0.0001275
3562	0.000235
3574	0.0002875
3586	0.0001775
3598	0.000205
3610	0.0001625
3622	0.0001075
3634	0.000185
3646	0.00014
3658	0.0002025
3670	0.0002175
3682	9.75e-05
3694	0.00021
3706	0.0001425
3718	0.0001325
3730	1e-05
3742	0.0001775
3754	0.0001675
3766	0.0001
3778	4.75e-05
3790	8.5e-05
3802	0.00017
3814	0.000115
3826	0.0001125
3838	0.0001675
