Infrared Spectrum: 1-BUTANESULFONYL CHLORIDE
Formula: C4 H9 Cl O2 S
CAS: 2386-60-9
State: LIQUID
Boiling point: 94-96 C AT 21 mmHg
Class: COBLENTZ
Instrument: Not specified, most likely a prism, grating, or hybrid spectrometer.
Sampling: TRANSMISSION
Path length: 0.003 CM
Resolution: 4
Origin: WYANDOTTE CHEMICALS CORP., WYANDOTTE, MICHIGAN, USA
MICROMETERS	TRANSMITTANCE
2.034	0.97
2.0749	0.977
2.11579	0.975
2.15669	0.969
2.19759	0.924
2.23848	0.922
2.27938	0.934
2.32028	0.934
2.36118	0.943
2.40207	0.945
2.44297	0.951
2.48387	0.962
2.52476	0.96
2.56566	0.969
2.60656	0.962
2.64745	0.965
2.68835	0.962
2.72925	0.969
2.77015	0.945
2.81104	0.963
2.85194	0.955
2.89284	0.951
2.93373	0.941
2.97463	0.929
3.01553	0.921
3.05642	0.915
3.09732	0.909
3.13822	0.895
3.17912	0.898
3.22001	0.89
3.26091	0.845
3.30181	0.711
3.3427	0.161
3.3836	0.114
3.4245	0.279
3.46539	0.262
3.50629	0.536
3.54719	0.802
3.58808	0.859
3.62898	0.885
3.66988	0.873
3.71078	0.903
3.75167	0.907
3.79257	0.919
3.83347	0.926
3.87436	0.933
3.91526	0.922
3.95616	0.902
3.99705	0.867
4.03795	0.919
4.07885	0.921
4.11975	0.922
4.16064	0.926
4.20154	0.934
4.24244	0.919
4.28333	0.934
4.32423	0.948
4.36513	0.941
4.40602	0.936
4.44692	0.945
4.48782	0.951
4.52872	0.955
4.56961	0.955
4.61051	0.95
4.65141	0.948
4.6923	0.938
4.7332	0.948
4.7741	0.953
4.81499	0.955
4.85589	0.957
4.89679	0.95
4.93769	0.95
4.97858	0.953
5.01948	0.951
5.06038	0.951
5.10127	0.955
5.14217	0.957
5.18307	0.965
5.22396	0.955
5.26486	0.957
5.30576	0.962
5.34665	0.958
5.38755	0.957
5.42845	0.958
5.46935	0.958
5.51024	0.957
5.55114	0.95
5.59204	0.922
5.63293	0.929
5.67383	0.914
5.71473	0.895
5.75562	0.9
5.79652	0.893
5.83742	0.888
5.87832	0.898
5.91921	0.886
5.96011	0.876
6.00101	0.885
6.0419	0.881
6.0828	0.881
6.1237	0.878
6.16459	0.878
6.20549	0.881
6.24639	0.89
6.28729	0.903
6.32818	0.9
6.36908	0.895
6.40998	0.876
6.45087	0.866
6.49177	0.845
6.53267	0.84
6.57356	0.828
6.61446	0.823
6.65536	0.794
6.69625	0.761
6.73715	0.656
6.77805	0.142
6.81895	0.219
6.85984	0.346
6.90074	0.493
6.94164	0.615
6.98253	0.679
7.02343	0.644
7.06433	0.459
7.10522	0.265
7.14612	0.156
7.18702	0.041
7.22792	0.029
7.26881	0.029
7.30971	0.03
7.35061	0.034
7.3915	0.06
7.4324	0.154
7.4733	0.373
7.51419	0.535
7.55509	0.547
7.59599	0.433
7.63689	0.485
7.67778	0.552
7.71868	0.53
7.75958	0.538
7.80047	0.535
7.84137	0.55
7.88227	0.682
7.92316	0.723
7.96406	0.704
8.00496	0.59
8.04585	0.262
8.08675	0.221
8.12765	0.447
8.16855	0.569
8.20944	0.615
8.25034	0.614
8.29124	0.526
8.33213	0.315
8.37303	0.2
8.41393	0.104
8.45482	0.056
8.49572	0.049
8.53662	0.036
8.57752	0.032
8.61841	0.03
8.65931	0.096
8.70021	0.3
8.7411	0.499
8.782	0.62
8.8229	0.701
8.86379	0.744
8.90469	0.77
8.94559	0.765
8.98649	0.701
9.02738	0.463
9.06828	0.437
9.10918	0.576
9.15007	0.672
9.19097	0.627
9.23187	0.497
9.27276	0.538
9.31366	0.694
9.35456	0.766
9.39546	0.783
9.43635	0.773
9.47725	0.79
9.51815	0.804
9.55904	0.833
9.59994	0.847
9.64084	0.859
9.68173	0.862
9.72263	0.874
9.76353	0.883
9.80442	0.886
9.84532	0.881
9.88622	0.874
9.92712	0.873
9.96801	0.849
10.0089	0.852
10.0498	0.862
10.0907	0.876
10.1316	0.876
10.1725	0.878
10.2134	0.855
10.2543	0.831
10.2952	0.845
10.3361	0.837
10.377	0.801
10.4179	0.83
10.4588	0.864
10.4997	0.878
10.5406	0.883
10.5815	0.885
10.6224	0.885
10.6633	0.874
10.7042	0.861
10.7451	0.835
10.786	0.778
10.8268	0.691
10.8677	0.593
10.9086	0.504
10.9495	0.432
10.9904	0.56
11.0313	0.675
11.0722	0.715
11.1131	0.699
11.154	0.698
11.1949	0.761
11.2358	0.807
11.2767	0.825
11.3176	0.833
11.3585	0.831
11.3994	0.821
11.4403	0.801
11.4812	0.799
11.5221	0.819
11.563	0.85
11.6039	0.866
11.6448	0.878
11.6857	0.886
11.7266	0.888
11.7675	0.881
11.8084	0.888
11.8493	0.878
11.8902	0.873
11.9311	0.871
11.972	0.866
12.0129	0.861
12.0538	0.855
12.0947	0.859
12.1356	0.85
12.1764	0.842
12.2173	0.833
12.2582	0.813
12.2991	0.785
12.34	0.747
12.3809	0.701
12.4218	0.662
12.4627	0.631
12.5036	0.62
12.5445	0.612
12.5854	0.588
12.6263	0.543
12.6672	0.478
12.7081	0.425
12.749	0.411
12.7899	0.427
12.8308	0.473
12.8717	0.507
12.9126	0.507
12.9535	0.499
12.9944	0.466
13.0353	0.416
13.0762	0.348
13.1171	0.274
13.158	0.207
13.1989	0.176
13.2398	0.166
13.2807	0.173
13.3216	0.192
13.3625	0.219
13.4034	0.257
13.4443	0.291
13.4852	0.31
13.526	0.319
13.5669	0.301
13.6078	0.274
13.6487	0.229
13.6896	0.21
13.7305	0.216
13.7714	0.252
13.8123	0.301
13.8532	0.372
13.8941	0.437
13.935	0.5
13.9759	0.547
14.0168	0.581
14.0577	0.602
14.0986	0.61
14.1395	0.62
14.1804	0.622
14.2213	0.607
14.2622	0.583
14.3031	0.54
14.344	0.481
14.3849	0.403
14.4258	0.322
14.4667	0.269
14.5076	0.238
14.5485	0.255
14.5894	0.283
14.6303	0.339
14.6712	0.399
14.7121	0.471
14.753	0.533
14.7939	0.586
14.8348	0.615
14.8756	0.65
14.9165	0.663
14.9574	0.679
14.9983	0.686
15.0392	0.668
15.0801	0.61
15.121	0.566
15.1619	0.591
15.2028	0.646
15.2437	0.691
15.2846	0.713
15.3255	0.716
15.3664	0.73
15.4073	0.739
15.4482	0.737
15.4891	0.74
15.53	0.742
15.5709	0.739
15.6118	0.744
15.6527	0.742
15.6936	0.742
15.7345	0.727
15.7754	0.73
15.8163	0.734
15.8572	0.732
15.8981	0.718
15.939	0.713
15.9799	0.716
