Infrared Spectrum: 7-METHOXYNORCARANE
Formula: C8 H14 O
CAS: 23865-95-4
State: SOLUTION (11% CCl4 FOR 3800-1300, 11% CS2 FOR 1300-650, AND 11% CCl4 FOR 650-250)
Class: COBLENTZ III
Instrument: PERKIN-ELMER 521 (GRATING)
Instrument parameters: FILTERS AT 3150, 2500, 2000, 1150, 700, 410. GRATING CHANGES: 2000, 630
Path length: 0.011 CM, 0.012 CM, AND 0.009 CM
Resolution: 2
Origin: DOW CORNING CORP.
1/CM	TRANSMITTANCE
250	0.6918
259	0.6888
268	0.6882
277	0.6902
286	0.6981
295	0.7109
304	0.7244
313	0.7333
322	0.7359
331	0.736
340	0.7462
349	0.7475
358	0.7275
367	0.7071
376	0.7072
385	0.779
394	0.7758
403	0.7904
412	0.798
421	0.7998
430	0.7884
439	0.7968
448	0.8264
457	0.8246
466	0.8438
475	0.8716
484	0.8711
493	0.8631
502	0.8315
511	0.7554
520	0.7598
529	0.8613
538	0.8593
547	0.8526
556	0.8559
565	0.8546
574	0.8481
583	0.8521
592	0.861
601	0.8595
610	0.8473
619	0.8642
628	0.8232
637	0.7962
646	0.8961
655	0.984
664	0.9769
673	0.9685
682	0.9586
691	0.8544
700	0.942
709	0.9507
718	0.9248
727	0.9004
736	0.9569
745	0.9556
754	0.9135
763	0.7041
772	0.9166
781	0.8832
790	0.8955
799	0.8623
808	0.8208
817	0.7717
826	0.7523
835	0.7866
844	0.3861
853	0.3941
862	0.2013
871	0.5895
880	0.823
889	0.8715
898	0.8852
907	0.845
916	0.829
925	0.5855
934	0.5944
943	0.8722
952	0.8592
961	0.8048
970	0.7472
979	0.6491
988	0.5177
997	0.249
1006	0.7401
1015	0.667
1024	0.5668
1033	0.6378
1042	0.6954
1051	0.3404
1060	0.4432
1069	0.6465
1078	0.5173
1087	0.5486
1096	0.5587
1105	0.2417
1114	0.0308
1123	0.0468
1132	0.27
1141	0.5478
1150	0.5158
1159	0.6268
1168	0.6661
1177	0.7292
1186	0.6962
1195	0.2812
1204	0.2776
1213	0.2022
1222	0.653
1231	0.5947
1240	0.5064
1249	0.5422
1258	0.7459
1267	0.7557
1276	0.7885
1285	0.7772
1294	0.7552
1303	0.8104
1312	0.8142
1321	0.806
1330	0.6747
1339	0.5173
1348	0.5769
1357	0.7975
1366	0.7905
1375	0.7745
1384	0.7678
1393	0.7459
1402	0.6652
1411	0.4864
1420	0.4754
1429	0.6652
1438	0.4297
1447	0.1371
1456	0.3937
1465	0.6616
1474	0.7953
1483	0.8256
1492	0.8543
1501	0.8684
1510	0.8715
1519	0.8785
1528	0.8996
1537	0.919
1546	0.9126
1555	0.9049
1564	0.89
1573	0.8815
1582	0.8788
1591	0.8727
1600	0.8601
1609	0.8495
1618	0.8486
1627	0.8495
1636	0.8534
1645	0.859
1654	0.8667
1663	0.8708
1672	0.8573
1681	0.8361
1690	0.8403
1699	0.8672
1708	0.8669
1717	0.867
1726	0.8709
1735	0.8763
1744	0.8804
1753	0.8828
1762	0.8833
1771	0.8837
1780	0.8821
1789	0.8803
1798	0.8793
1807	0.8786
1816	0.8778
1825	0.8769
1834	0.8792
1843	0.8798
1852	0.8841
1861	0.8859
1870	0.8856
1879	0.8854
1888	0.8854
1897	0.8847
1906	0.8837
1915	0.8827
1924	0.8816
1933	0.8797
1942	0.8779
1951	0.8764
1960	0.8753
1969	0.8742
1978	0.8724
1987	0.8715
1996	0.8809
2005	0.8774
2014	0.8737
2023	0.8727
2032	0.8722
2041	0.8711
2050	0.8708
2059	0.8729
2068	0.8727
2077	0.8716
2086	0.8701
2095	0.8684
2104	0.8666
2113	0.8676
2122	0.8696
2131	0.8709
2140	0.8725
2149	0.874
2158	0.8737
2167	0.8714
2176	0.8712
2185	0.876
2194	0.8786
2203	0.8799
2212	0.8793
2221	0.8785
2230	0.8781
2239	0.8782
2248	0.8783
2257	0.8782
2266	0.8787
2275	0.8791
2284	0.879
2293	0.8779
2302	0.8767
2311	0.8752
2320	0.8735
2329	0.8721
2338	0.873
2347	0.8776
2356	0.8774
2365	0.8766
2374	0.8763
2383	0.876
2392	0.8757
2401	0.8751
2410	0.8745
2419	0.8746
2428	0.875
2437	0.8747
2446	0.8745
2455	0.8744
2464	0.8742
2473	0.8758
2482	0.8786
2491	0.8807
2500	0.8773
2509	0.8753
2518	0.8754
2527	0.8756
2536	0.8747
2545	0.8716
2554	0.8672
2563	0.8604
2572	0.8558
2581	0.8519
2590	0.8493
2599	0.8474
2608	0.8459
2617	0.8455
2626	0.8467
2635	0.8331
2644	0.815
2653	0.8066
2662	0.8142
2671	0.8024
2680	0.8187
2689	0.8318
2698	0.8381
2707	0.836
2716	0.8313
2725	0.8258
2734	0.8195
2743	0.8137
2752	0.8118
2761	0.7902
2770	0.7817
2779	0.7712
2788	0.7582
2797	0.7287
2806	0.61
2815	0.393
2824	0.3651
2833	0.5231
2842	0.4202
2851	0.2121
2860	0.0666
2869	0.1398
2878	0.24
2887	0.2503
2896	0.1771
2905	0.1039
2914	0.0712
2923	0.0228
2932	0.0053
2941	0.0024
2950	0.0839
2959	0.1694
2968	0.2652
2977	0.3454
2986	0.3024
2995	0.3593
3004	0.4356
3013	0.4165
3022	0.3943
3031	0.4611
3040	0.6253
3049	0.7205
3058	0.7443
3067	0.7568
3076	0.7641
3085	0.7669
3094	0.7691
3103	0.7719
3112	0.7826
3121	0.7935
3130	0.7955
3139	0.7934
3148	0.793
3157	0.793
3166	0.7943
3175	0.7961
3184	0.7979
3193	0.7996
3202	0.801
3211	0.8022
3220	0.8036
3229	0.8044
3238	0.8043
3247	0.804
3256	0.8053
3265	0.8062
3274	0.8069
3283	0.8077
3292	0.8082
3301	0.8086
3310	0.8091
3319	0.8092
3328	0.8047
3337	0.8038
3346	0.8039
3355	0.804
3364	0.8043
3373	0.8045
3382	0.805
3391	0.8058
3400	0.8065
3409	0.8069
3418	0.8072
3427	0.807
3436	0.8067
3445	0.8061
3454	0.8051
3463	0.8037
3472	0.8027
3481	0.8019
3490	0.8035
3499	0.8072
3508	0.8117
3517	0.8171
3526	0.8245
3535	0.8316
3544	0.839
3553	0.8455
3562	0.8541
3571	0.8637
3580	0.8681
3589	0.871
3598	0.8714
3607	0.87
3616	0.8664
3625	0.8642
3634	0.8743
3643	0.8921
3652	0.8998
3661	0.8966
3670	0.8956
3679	0.8943
3688	0.8873
3697	0.89
3706	0.8937
3715	0.8979
3724	0.9008
3733	0.902
3742	0.9024
3751	0.9014
3760	0.8968
3769	0.8899
3778	0.888
3787	0.8895
3796	0.893
3805	0.897
3814	0.9005
