Infrared Spectrum: 2-Vinyl-4,4,6-trimethyl-5,6-dihydro-1,3-[4H]oxazine
Formula: C 9 H 15 N O
CAS: 23878-88-8
State: gas
Origin: EPA-IR VAPOR PHASE LIBRARY
1/CM	ABSORBANCE
549.8	0.0043
559.445	0.0062151
569.09	0.01018
578.735	0.00273
588.38	0.00035
598.025	0.00195
607.67	0.00337
617.315	0.00319
626.96	0.00161
636.605	0.00314
646.251	0.00345
655.896	0.00317
665.541	0.00328
675.186	0.00322
684.831	0.00361
694.476	0.00361
704.121	0.00424
713.766	0.00381
723.411	0.00391
733.056	0.00385
742.701	0.00437
752.346	0.00556409
761.991	0.00756
771.636	0.00772
781.281	0.00666
790.926	0.005063
800.571	0.004873
810.216	0.004498
819.861	0.00405
829.507	0.005271
839.152	0.00662
848.797	0.00802
858.442	0.00807
868.087	0.00683
877.732	0.0060904
887.377	0.0055701
897.022	0.0062917
906.667	0.00693
916.312	0.00784
925.957	0.01121
935.602	0.01859
945.247	0.01387
954.892	0.0081
964.537	0.00675
974.182	0.0081
983.827	0.01161
993.472	0.01192
1003.12	0.00814
1012.76	0.00706
1022.41	0.00906
1032.05	0.0148
1041.7	0.01788
1051.34	0.0158
1060.99	0.01308
1070.63	0.01349
1080.28	0.01608
1089.92	0.01485
1099.57	0.00937
1109.21	0.00676
1118.86	0.0071
1128.5	0.00852
1138.15	0.01108
1147.79	0.01446
1157.44	0.01908
1167.08	0.02354
1176.73	0.02434
1186.37	0.02373
1196.02	0.01887
1205.66	0.01342
1215.31	0.01252
1224.95	0.01326
1234.6	0.01765
1244.24	0.01829
1253.89	0.02116
1263.53	0.03344
1273.18	0.03979
1282.82	0.03017
1292.47	0.01922
1302.11	0.0138
1311.76	0.009
1321.4	0.00668
1331.05	0.0063837
1340.69	0.00685
1350.34	0.00824
1359.98	0.01136
1369.63	0.0136
1379.27	0.01487
1388.92	0.01296
1398.56	0.01079
1408.21	0.0116
1417.85	0.01002
1427.5	0.00744
1437.14	0.00812
1446.79	0.00914
1456.43	0.0092
1466.08	0.0083
1475.73	0.00658
1485.37	0.005243
1495.02	0.004557
1504.66	0.004534
1514.31	0.004519
1523.95	0.004633
1533.6	0.005052
1543.24	0.004927
1552.89	0.004947
1562.53	0.004833
1572.18	0.0056535
1581.82	0.00672
1591.47	0.0107
1601.11	0.0219
1610.76	0.02846
1620.4	0.01814
1630.05	0.00952
1639.69	0.01405
1649.34	0.02774
1658.98	0.03745
1668.63	0.02622
1678.27	0.01079
1687.92	0.00732
1697.56	0.00653
1707.21	0.0059232
1716.85	0.004881
1726.5	0.004719
1736.14	0.004601
1745.79	0.00433
1755.43	0.00443
1765.08	0.00438
1774.72	0.004484
1784.37	0.00425
1794.01	0.00427
1803.66	0.00422
1813.3	0.00443
1822.95	0.00431
1832.59	0.00373
1842.24	0.00401
1851.88	0.00414
1861.53	0.004535
1871.17	0.0055995
1880.82	0.0056542
1890.46	0.004843
1900.11	0.00435
1909.75	0.00415
1919.4	0.00403
1929.04	0.00433
1938.69	0.0042
1948.33	0.00389
1957.98	0.00404
1967.62	0.00387
1977.27	0.00392
1986.91	0.00396
1996.56	0.00393
2006.2	0.00379
2015.85	0.00394
2025.49	0.00405
2035.14	0.00394
2044.78	0.00395
2054.43	0.00386
2064.07	0.00369
2073.72	0.0039
2083.36	0.00376
2093.01	0.00407
2102.65	0.0038
2112.3	0.00391
2121.94	0.00389
2131.59	0.0039
2141.23	0.00374
2150.88	0.00377
2160.52	0.00378
2170.17	0.00392
2179.81	0.00394
2189.46	0.00372
2199.1	0.0038
2208.75	0.00406
2218.39	0.00385
2228.04	0.00376
2237.68	0.00356
2247.33	0.00394
2256.97	0.00369
2266.62	0.00365
2276.26	0.00385
2285.91	0.00366
2295.55	0.0037
2305.2	0.00375
2314.84	0.00343
2324.49	0.00345
2334.13	0.00377
2343.78	0.00415
2353.42	0.00351
2363.07	0.00364
2372.72	0.0036
2382.36	0.00387
2392.01	0.00375
2401.65	0.00375
2411.3	0.00377
2420.94	0.00343
2430.59	0.00371
2440.23	0.00373
2449.88	0.00381
2459.52	0.00361
2469.17	0.00396
2478.81	0.00352
2488.46	0.00377
2498.1	0.00396
2507.75	0.00382
2517.39	0.00381
2527.04	0.00407
2536.68	0.00397
2546.33	0.00408
2555.97	0.0039
2565.62	0.00371
2575.26	0.00401
2584.91	0.00424
2594.55	0.00381
2604.2	0.00375
2613.84	0.00378
2623.49	0.00356
2633.13	0.0038
2642.78	0.00424
2652.42	0.00406
2662.07	0.00361
2671.71	0.0038
2681.36	0.00392
2691	0.0039
2700.65	0.00368
2710.29	0.00379
2719.94	0.004486
2729.58	0.00407
2739.23	0.00378
2748.87	0.00407
2758.52	0.004581
2768.16	0.00417
2777.81	0.00418
2787.45	0.00412
2797.1	0.004517
2806.74	0.00442
2816.39	0.005138
2826.03	0.004696
2835.68	0.005129
2845.32	0.00659
2854.97	0.00757
2864.61	0.00893
2874.26	0.01058
2883.9	0.0113
2893.55	0.0123
2903.19	0.01648
2912.84	0.02
2922.48	0.02287
2932.13	0.02794
2941.77	0.03068
2951.42	0.02183
2961.06	0.02085
2970.71	0.03741
2980.35	0.04492
2990	0.02741
2999.64	0.01035
3009.29	0.00664
3018.93	0.005344
3028.58	0.0063115
3038.22	0.0066
3047.87	0.0057807
3057.51	0.00546249
3067.16	0.00441
3076.8	0.004706
3086.45	0.004564
3096.09	0.0057336
3105.74	0.00696
3115.38	0.00669
3125.03	0.00433
3134.67	0.0043
3144.32	0.004559
3153.96	0.00337
3163.61	0.00419
3173.25	0.004778
3182.9	0.00437
3192.54	0.004542
3202.19	0.004496
3211.83	0.004708
3221.48	0.005156
3231.12	0.00365
3240.77	0.00405
3250.41	0.004608
3260.06	0.004677
3269.7	0.004969
3279.35	0.004616
3289	0.004838
3298.64	0.00429
3308.29	0.004699
3317.93	0.005032
3327.58	0.00461
3337.22	0.00441
3346.87	0.00333
3356.51	0.00359
3366.16	0.00384
3375.8	0.00349
3385.45	0.00342
3395.09	0.00417
3404.74	0.00403
3414.38	0.0044
3424.03	0.00428
3433.67	0.00375
3443.32	0.00399
3452.96	0.0039
3462.61	0.0037
3472.25	0.00361
3481.9	0.00378
3491.54	0.00411
3501.19	0.00362
3510.83	0.00338
3520.48	0.00364
3530.12	0.00346
3539.77	0.00406
3549.41	0.00435
3559.06	0.004576
3568.7	0.00369
3578.35	0.00391
3587.99	0.00362
3597.64	0.00407
3607.28	0.00423
3616.93	0.00333
3626.57	0.00397
3636.22	0.00369
3645.86	0.00362
3655.51	0.00435
3665.15	0.00385
3674.8	0.00343
3684.44	0.00402
3694.09	0.004538
3703.73	0.00429
3713.38	0.00431
3723.02	0.00422
3732.67	0.00361
3742.31	0.005105
3751.96	0.00364
3761.6	0.00437
3771.25	0.00418
3780.89	0.00399
3790.54	0.00417
3800.18	0.00402
3809.83	0.00388
3819.47	0.00366
3829.12	0.00365
3838.76	0.00506
3848.41	0.005021
3858.05	0.00428
3867.7	0.00397
3877.34	0.00446
3886.99	0.00396
3896.63	0.00332
3906.28	0.00392
3915.92	0.00392
3925.57	0.00379
3935.21	0.004707
3944.86	0.00358
3954.5	0.00385
3964.15	0.00382
3973.79	0.00342
3983.44	0.00412
3993.08	0.00348
