Infrared Spectrum: Alpha-BENZIL, DIOXIME
Formula: C14 H12 N2 O2
CAS: 23873-81-6
State: SOLID (SPLIT MULL), FLUOROLUBE FOR 3800-1330 CM^-^1, NUJOL FOR 1330-450 CM^-^1
Melting point: 236 C
Class: COBLENTZ III
Instrument: DOW KBr FOREPRISM-GRATING
Instrument parameters: BLAZED AT 3.5, 12.0, 20.0 MICRON AND CHANGED AT 5.0, 7.5, 14.9 MICRON
Sampling: TRANSMISSION
Resolution: 2
Origin: DOW CHEMICAL COMPANY
1/CM	TRANSMITTANCE
417	0.9967
426	0.9818
435	0.9709
444	0.964
453	0.9595
462	0.9555
471	0.9435
480	0.8932
489	0.5037
498	0.8915
507	0.9148
516	0.9115
525	0.9009
534	0.8947
543	0.8927
552	0.8902
561	0.8787
570	0.8405
579	0.7876
588	0.8543
597	0.9023
606	0.8944
615	0.882
624	0.8854
633	0.8758
642	0.8642
651	0.8436
660	0.8145
669	0.7712
678	0.7307
687	0.6164
696	0.0916
705	0.1844
714	0.0177
723	0.3373
732	0.4036
741	0.5241
750	0.3938
759	0.1217
768	0.6928
777	0.7768
786	0.8078
795	0.8227
804	0.8275
813	0.8245
822	0.8189
831	0.8125
840	0.7944
849	0.7553
858	0.5053
867	0.24
876	0.0528
885	0.6449
894	0.8307
903	0.8403
912	0.7761
921	0.3156
930	0.8107
939	0.8254
948	0.804
957	0.7541
966	0.4794
975	0.2702
984	0.0326
993	0.0337
1002	0.4701
1011	0.691
1020	0.7776
1029	0.6841
1038	0.8317
1047	0.847
1056	0.8381
1065	0.8039
1074	0.6262
1083	0.844
1092	0.8516
1101	0.8523
1110	0.8575
1119	0.8645
1128	0.8667
1137	0.8603
1146	0.8495
1155	0.8382
1164	0.7378
1173	0.8382
1182	0.8421
1191	0.8408
1200	0.8293
1209	0.8038
1218	0.7003
1227	0.6102
1236	0.7221
1245	0.7738
1254	0.7715
1263	0.7642
1272	0.7546
1281	0.734
1290	0.7401
1299	0.7217
1308	0.7011
1317	0.6908
1326	0.6695
1335	0.6355
1344	0.615
1353	0.6421
1362	0.6425
1371	0.6281
1380	0.5988
1389	0.5462
1398	0.4722
1407	0.505
1416	0.5977
1425	0.6903
1434	0.7403
1443	0.6388
1452	0.7906
1461	0.8103
1470	0.8255
1479	0.8465
1488	0.8388
1497	0.7201
1506	0.8644
1515	0.8783
1524	0.8766
1533	0.8825
1542	0.8601
1551	0.8809
1560	0.862
1569	0.8798
1578	0.8431
1587	0.8906
1596	0.8873
1605	0.8866
1614	0.8832
1623	0.8801
1632	0.8828
1641	0.8892
1650	0.876
1659	0.8834
1668	0.8714
1677	0.8718
1686	0.8786
1695	0.8644
1704	0.8752
1713	0.8761
1722	0.8824
1731	0.8749
1740	0.8781
1749	0.8752
1758	0.8743
1767	0.8645
1776	0.8702
1785	0.8749
1794	0.8748
1803	0.8699
1812	0.8624
1821	0.8664
1830	0.8642
1839	0.8625
1848	0.8689
1857	0.8671
1866	0.8584
1875	0.8467
1884	0.8389
1893	0.8366
1902	0.857
1911	0.8567
1920	0.8581
1929	0.8617
1938	0.856
1947	0.8592
1956	0.852
1965	0.8445
1974	0.8452
1983	0.8347
1992	0.8221
2001	0.8209
2010	0.8344
2019	0.8397
2028	0.8396
2037	0.8384
2046	0.8371
2055	0.8343
2064	0.8294
2073	0.8241
2082	0.8259
2091	0.8245
2100	0.8209
2109	0.8158
2118	0.811
2127	0.8067
2136	0.8028
2145	0.799
2154	0.7956
2163	0.7921
2172	0.7886
2181	0.7853
2190	0.7818
2199	0.7782
2208	0.7743
2217	0.7701
2226	0.7664
2235	0.7625
2244	0.7583
2253	0.7536
2262	0.7497
2271	0.7458
2280	0.7419
2289	0.738
2298	0.7331
2307	0.7278
2316	0.7218
2325	0.7182
2334	0.7165
2343	0.7162
2352	0.7185
2361	0.7211
2370	0.7234
2379	0.7249
2388	0.7256
2397	0.7254
2406	0.725
2415	0.724
2424	0.7228
2433	0.7214
2442	0.7201
2451	0.7187
2460	0.7174
2469	0.7158
2478	0.7144
2487	0.7128
2496	0.7115
2505	0.7101
2514	0.7099
2523	0.71
2532	0.7098
2541	0.7082
2550	0.7058
2559	0.7034
2568	0.7011
2577	0.6988
2586	0.6961
2595	0.6933
2604	0.6904
2613	0.6878
2622	0.6856
2631	0.6839
2640	0.6825
2649	0.6821
2658	0.68
2667	0.6767
2676	0.673
2685	0.6692
2694	0.6657
2703	0.6622
2712	0.6589
2721	0.6551
2730	0.6511
2739	0.6471
2748	0.643
2757	0.6382
2766	0.6335
2775	0.6287
2784	0.6235
2793	0.6182
2802	0.6127
2811	0.6037
2820	0.6018
2829	0.604
2838	0.6057
2847	0.6037
2856	0.601
2865	0.5993
2874	0.5979
2883	0.5955
2892	0.5912
2901	0.5856
2910	0.5794
2919	0.573
2928	0.569
2937	0.5648
2946	0.5596
2955	0.5537
2964	0.5468
2973	0.5393
2982	0.5298
2991	0.5192
3000	0.5069
3009	0.4941
3018	0.4805
3027	0.4698
3036	0.4717
3045	0.4636
3054	0.4471
3063	0.4258
3072	0.4685
3081	0.4641
3090	0.4674
3099	0.4624
3108	0.4534
3117	0.442
3126	0.4272
3135	0.411
3144	0.3949
3153	0.3788
3162	0.3634
3171	0.3484
3180	0.3297
3189	0.3107
3198	0.2925
3207	0.274
3216	0.2543
3225	0.2353
3234	0.2174
3243	0.2025
3252	0.1827
3261	0.1576
3270	0.1337
3279	0.1301
3288	0.1373
3297	0.1585
3306	0.1917
3315	0.2248
3324	0.2529
3333	0.283
3342	0.3124
3351	0.347
3360	0.3914
3369	0.4457
3378	0.4714
3387	0.4881
3396	0.5078
3405	0.5299
3414	0.5489
3423	0.5664
3432	0.5808
3441	0.5936
3450	0.6054
3459	0.6148
3468	0.6214
3477	0.626
3486	0.6295
3495	0.6324
3504	0.6351
3513	0.6373
3522	0.6389
3531	0.6394
3540	0.6392
3549	0.6381
3558	0.6368
3567	0.635
3576	0.6333
3585	0.6309
3594	0.6285
3603	0.6262
3612	0.6239
3621	0.6216
3630	0.6187
3639	0.6151
3648	0.6145
3657	0.6165
3666	0.611
3675	0.611
3684	0.6108
3693	0.6087
3702	0.6059
3711	0.6028
3720	0.6007
3729	0.5986
3738	0.5965
