Infrared Spectrum: PHOSPHONIC ACID, CHLOROMETHYL-, BIS(P-TOLYL) ESTER
Formula: C15 H16 Cl O3 P
CAS: 23896-95-9
Boiling point: 167 C AT 0.3 mmHg
Class: COBLENTZ
Instrument: Not specified, most likely a prism, grating, or hybrid spectrometer.
Sampling: TRANSMISSION
Path length: SMEAR
Resolution: 4
Origin: TENNESSEE EASTMAN COMPANY, RESEARCH LABORATORIES
MICROMETERS	TRANSMITTANCE
2.058	0.998
2.09807	0.993
2.13814	0.978
2.1782	0.98
2.21827	0.98
2.25834	0.961
2.29841	0.95
2.33848	0.951
2.37854	0.953
2.41861	0.955
2.45868	0.94
2.49875	0.96
2.53882	0.966
2.57888	0.963
2.61895	0.953
2.65902	0.958
2.69909	0.955
2.73916	0.951
2.77922	0.948
2.81929	0.945
2.85936	0.935
2.89943	0.935
2.93949	0.936
2.97956	0.936
3.01963	0.935
3.0597	0.935
3.09977	0.933
3.13983	0.931
3.1799	0.913
3.21997	0.838
3.26004	0.713
3.30011	0.585
3.34017	0.55
3.38024	0.468
3.42031	0.633
3.46038	0.685
3.50045	0.856
3.54051	0.906
3.58058	0.923
3.62065	0.94
3.66072	0.928
3.70079	0.95
3.74085	0.955
3.78092	0.958
3.82099	0.966
3.86106	0.96
3.90113	0.941
3.94119	0.95
3.98126	0.956
4.02133	0.956
4.0614	0.953
4.10147	0.95
4.14153	0.94
4.1816	0.926
4.22167	0.895
4.26174	0.838
4.3018	0.868
4.34187	0.921
4.38194	0.938
4.42201	0.946
4.46208	0.95
4.50214	0.948
4.54221	0.948
4.58228	0.95
4.62235	0.958
4.66242	0.96
4.70248	0.958
4.74255	0.955
4.78262	0.955
4.82269	0.955
4.86276	0.943
4.90282	0.936
4.94289	0.935
4.98296	0.936
5.02303	0.94
5.0631	0.941
5.10316	0.93
5.14323	0.915
5.1833	0.881
5.22337	0.828
5.26344	0.78
5.3035	0.8
5.34357	0.845
5.38364	0.876
5.42371	0.898
5.46378	0.913
5.50384	0.931
5.54391	0.92
5.58398	0.898
5.62405	0.876
5.66411	0.885
5.70418	0.885
5.74425	0.883
5.78432	0.92
5.82439	0.893
5.86445	0.91
5.90452	0.883
5.94459	0.866
5.98466	0.846
6.02473	0.825
6.06479	0.773
6.10486	0.77
6.14493	0.775
6.185	0.636
6.22507	0.558
6.26513	0.606
6.3052	0.768
6.34527	0.833
6.38534	0.838
6.42541	0.828
6.46547	0.773
6.50554	0.693
6.54561	0.481
6.58568	0.14
6.62575	0.113
6.66581	0.455
6.70588	0.615
6.74595	0.678
6.78602	0.671
6.82609	0.635
6.86615	0.633
6.90622	0.683
6.94629	0.72
6.98636	0.75
7.02642	0.743
7.06649	0.725
7.10656	0.646
7.14663	0.58
7.1867	0.66
7.22676	0.691
7.26683	0.763
7.3069	0.813
7.34697	0.82
7.38704	0.831
7.4271	0.835
7.46717	0.83
7.50724	0.821
7.54731	0.796
7.58738	0.695
7.62744	0.511
7.66751	0.47
7.70758	0.313
7.74765	0.161
7.78772	0.136
7.82778	0.288
7.86785	0.5
7.90792	0.62
7.94799	0.635
7.98806	0.548
8.02812	0.46
8.06819	0.33
8.10826	0.213
8.14833	0.21
8.1884	0.211
8.22846	0.18
8.26853	0.163
8.3086	0.17
8.34867	0.108
8.38873	0.063
8.4288	0.215
8.46887	0.405
8.50894	0.33
8.54901	0.171
8.58907	0.215
8.62914	0.535
8.66921	0.611
8.70928	0.64
8.74935	0.616
8.78941	0.56
8.82948	0.503
8.86955	0.515
8.90962	0.601
8.94969	0.646
8.98975	0.605
9.02982	0.546
9.06989	0.693
9.10996	0.781
9.15003	0.813
9.19009	0.826
9.23016	0.833
9.27023	0.836
9.3103	0.838
9.35037	0.836
9.39043	0.831
9.4305	0.818
9.47057	0.79
9.51064	0.756
9.55071	0.728
9.59077	0.723
9.63084	0.738
9.67091	0.75
9.71098	0.743
9.75104	0.555
9.79111	0.491
9.83118	0.68
9.87125	0.72
9.91132	0.733
9.95138	0.735
9.99145	0.703
10.0315	0.668
10.0716	0.626
10.1117	0.553
10.1517	0.463
10.1918	0.348
10.2319	0.253
10.2719	0.17
10.312	0.123
10.3521	0.096
10.3921	0.085
10.4322	0.08
10.4723	0.08
10.5123	0.08
10.5524	0.081
10.5925	0.098
10.6325	0.123
10.6726	0.148
10.7127	0.151
10.7527	0.156
10.7928	0.205
10.8329	0.276
10.8729	0.395
10.913	0.5
10.9531	0.601
10.9932	0.655
11.0332	0.705
11.0733	0.735
11.1134	0.755
11.1534	0.77
11.1935	0.785
11.2336	0.79
11.2736	0.793
11.3137	0.798
11.3538	0.8
11.3938	0.8
11.4339	0.8
11.474	0.8
11.514	0.798
11.5541	0.798
11.5942	0.795
11.6342	0.786
11.6743	0.765
11.7144	0.713
11.7544	0.651
11.7945	0.561
11.8346	0.483
11.8746	0.418
11.9147	0.406
11.9548	0.395
11.9948	0.363
12.0349	0.335
12.075	0.305
12.1151	0.291
12.1551	0.29
12.1952	0.29
12.2353	0.333
12.2753	0.423
12.3154	0.52
12.3555	0.6
12.3955	0.678
12.4356	0.713
12.4757	0.741
12.5157	0.736
12.5558	0.711
12.5959	0.7
12.6359	0.726
12.676	0.755
12.7161	0.786
12.7561	0.805
12.7962	0.825
12.8363	0.836
12.8763	0.841
12.9164	0.85
12.9565	0.851
12.9965	0.858
13.0366	0.858
13.0767	0.858
13.1168	0.86
13.1568	0.86
13.1969	0.863
13.237	0.863
13.277	0.863
13.3171	0.861
13.3572	0.856
13.3972	0.851
13.4373	0.841
13.4774	0.831
13.5174	0.81
13.5575	0.78
13.5976	0.738
13.6376	0.681
13.6777	0.636
13.7178	0.591
13.7578	0.57
13.7979	0.56
13.838	0.565
13.878	0.591
13.9181	0.625
13.9582	0.648
13.9982	0.666
14.0383	0.68
14.0784	0.686
14.1185	0.678
14.1585	0.658
14.1986	0.643
14.2387	0.643
14.2787	0.65
14.3188	0.656
14.3589	0.655
14.3989	0.646
14.439	0.626
14.4791	0.615
14.5191	0.606
14.5592	0.603
14.5993	0.603
14.6393	0.613
14.6794	0.62
14.7195	0.631
14.7595	0.635
14.7996	0.64
14.8397	0.641
14.8797	0.635
14.9198	0.621
14.9599	0.605
14.9999	0.6
15.04	0.6
15.0801	0.601
15.1201	0.61
15.1602	0.621
15.2003	0.636
15.2404	0.645
15.2804	0.66
15.3205	0.663
15.3606	0.668
15.4006	0.67
15.4407	0.671
15.4808	0.671
15.5208	0.671
15.5609	0.666
15.601	0.656
15.641	0.65
15.6811	0.646
15.7212	0.643
15.7612	0.641
15.8013	0.641
15.8414	0.643
15.8814	0.643
15.9215	0.645
15.9616	0.648
16.0016	0.65
