Infrared Spectrum: 1,2-BENZO-CARBAZOLE
Formula: C16 H11 N
CAS: 239-01-0
State: SOLID (1.0% IN KBr PELLET)
Class: COBLENTZ
Instrument: Not specified, most likely a prism, grating, or hybrid spectrometer.
Sampling: TRANSMISSION
Path length: 0.0355 CM THICK
Resolution: 4
Origin: ANDERSON PHYSICAL LABORATORY
1/CM	TRANSMITTANCE
672.285	0.896
680.712	0.897
689.139	0.896
697.566	0.888
705.993	0.887
714.42	0.872
722.847	0.839
731.274	0.69
739.701	0.227
748.128	0.233
756.555	0.433
764.982	0.6368
773.409	0.9239
781.836	0.944
790.263	0.821
798.69	0.89
807.117	0.884
815.544	0.6841
823.971	0.366
832.398	0.771
840.825	0.902
849.252	0.909
857.679	0.893
866.106	0.878
874.533	0.891
882.96	0.932
891.387	0.935
899.814	0.942
908.241	0.938
916.668	0.938
925.095	0.92
933.522	0.866
941.949	0.873
950.376	0.879
958.803	0.896
967.23	0.899
975.657	0.905
984.084	0.909
992.511	0.912
1000.94	0.912
1009.36	0.912
1017.79	0.882
1026.22	0.869
1034.65	0.885
1043.07	0.899
1051.5	0.888
1059.93	0.888
1068.35	0.894
1076.78	0.899
1085.21	0.899
1093.63	0.893
1102.06	0.83
1110.49	0.872
1118.92	0.875
1127.34	0.83
1135.77	0.83
1144.2	0.852
1152.62	0.845
1161.05	0.818
1169.48	0.809
1177.9	0.858
1186.33	0.863
1194.76	0.86
1203.19	0.843
1211.61	0.815
1220.04	0.825
1228.47	0.845
1236.89	0.831
1245.32	0.654
1253.75	0.786
1262.17	0.842
1270.6	0.846
1279.03	0.842
1287.46	0.702
1295.88	0.806
1304.31	0.798
1312.74	0.679
1321.16	0.769
1329.59	0.756
1338.02	0.577
1346.44	0.765
1354.87	0.809
1363.3	0.83
1371.73	0.818
1380.15	0.738
1388.58	0.607
1397.01	0.541
1405.43	0.786
1413.86	0.818
1422.29	0.778
1430.71	0.739
1439.14	0.756
1447.57	0.6661
1456	0.5709
1464.42	0.766
1472.85	0.616
1481.28	0.765
1489.7	0.866
1498.13	0.854
1506.56	0.827
1514.98	0.84
1523.41	0.84
1531.84	0.815
1540.27	0.709
1548.69	0.774
1557.12	0.807
1565.55	0.804
1573.97	0.792
1582.4	0.822
1590.83	0.839
1599.25	0.809
1607.68	0.796
1616.11	0.792
1624.54	0.781
1632.96	0.748
1641.39	0.771
1649.82	0.8
1658.24	0.807
1666.67	0.816
1675.1	0.822
1683.52	0.819
1691.95	0.819
1700.38	0.821
1708.81	0.822
1717.23	0.822
1725.66	0.822
1734.09	0.824
1742.51	0.825
1750.94	0.824
1759.37	0.822
1767.79	0.816
1776.22	0.813
1784.65	0.81
1793.08	0.807
1801.5	0.806
1809.93	0.804
1818.36	0.804
1826.78	0.806
1835.21	0.806
1843.64	0.804
1852.06	0.803
1860.49	0.801
1868.92	0.796
1877.35	0.795
1885.77	0.784
1894.2	0.769
1902.63	0.766
1911.05	0.763
1919.48	0.763
1927.91	0.768
1936.33	0.771
1944.76	0.768
1953.19	0.768
1961.62	0.772
1970.04	0.78
1978.47	0.78
1986.9	0.78
1995.32	0.78
2003.75	0.778
2012.18	0.7765
2020.6	0.7745
2029.03	0.7725
2037.46	0.769
2045.89	0.768
2054.31	0.768
2062.74	0.7656
2071.17	0.7599
2079.59	0.757
2088.02	0.756
2096.45	0.754
2104.87	0.7528
2113.3	0.75
2121.73	0.745
2130.15	0.744
2138.58	0.744
2147.01	0.7432
2155.44	0.741
2163.86	0.7381
2172.29	0.7377
2180.72	0.736
2189.14	0.7353
2197.57	0.735
2206	0.733
2214.42	0.732
2222.85	0.7293
2231.28	0.726
2239.71	0.7208
2248.13	0.717
2256.56	0.715
2264.99	0.714
2273.41	0.714
2281.84	0.712
2290.27	0.712
2298.69	0.711
2307.12	0.7101
2315.55	0.7069
2323.98	0.705
2332.4	0.7029
2340.83	0.7023
2349.26	0.705
2357.68	0.7077
2366.11	0.709
2374.54	0.7072
2382.96	0.7054
2391.39	0.7032
2399.82	0.7017
2408.25	0.6996
2416.67	0.692
2425.1	0.6882
2433.53	0.6865
2441.95	0.682
2450.38	0.682
2458.81	0.681
2467.23	0.679
2475.66	0.678
2484.09	0.676
2492.52	0.675
2500.94	0.675
2509.37	0.673
2517.8	0.673
2526.22	0.6719
2534.65	0.6684
2543.08	0.666
2551.5	0.6632
2559.93	0.6599
2568.36	0.6577
2576.79	0.6559
2585.21	0.6542
2593.64	0.6518
2602.07	0.6456
2610.49	0.6438
2618.92	0.642
2627.35	0.642
2635.77	0.642
2644.2	0.642
2652.63	0.6391
2661.06	0.636
2669.48	0.6318
2677.91	0.6273
2686.34	0.6251
2694.76	0.625
2703.19	0.6246
2711.62	0.624
2720.04	0.621
2728.47	0.6176
2736.9	0.6155
2745.33	0.6135
2753.75	0.613
2762.18	0.613
2770.61	0.6125
2779.03	0.6092
2787.46	0.6059
2795.89	0.604
2804.31	0.603
2812.74	0.6014
2821.17	0.6
2829.6	0.598
2838.02	0.5938
2846.45	0.5922
2854.88	0.5888
2863.3	0.5836
2871.73	0.583
2880.16	0.581
2888.58	0.58
2897.01	0.5776
2905.44	0.5757
2913.87	0.5713
2922.29	0.569
2930.72	0.568
2939.15	0.566
2947.57	0.5631
2956	0.5598
2964.43	0.5565
2972.85	0.5538
2981.28	0.553
2989.71	0.5495
2998.14	0.546
3006.56	0.5402
3014.99	0.5319
3023.42	0.5222
3031.84	0.5154
3040.27	0.5048
3048.7	0.4956
3057.12	0.4804
3065.55	0.478
3073.98	0.4806
3082.41	0.4843
3090.83	0.493
3099.26	0.5044
3107.69	0.5165
3116.11	0.52
3124.54	0.5204
3132.97	0.5249
3141.39	0.527
3149.82	0.5269
3158.25	0.5248
3166.68	0.52
3175.1	0.5171
3183.53	0.5137
3191.96	0.5116
3200.38	0.509
3208.81	0.5061
3217.24	0.5046
3225.66	0.5025
3234.09	0.5
3242.52	0.497
3250.95	0.4955
3259.37	0.492
3267.8	0.4885
3276.23	0.485
3284.65	0.4817
3293.08	0.4799
3301.51	0.4764
3309.93	0.4729
3318.36	0.4697
3326.79	0.4664
3335.22	0.4644
3343.64	0.4603
3352.07	0.45
3360.5	0.4442
3368.92	0.4403
3377.35	0.4303
3385.78	0.4202
3394.2	0.4112
3402.63	0.3912
3411.06	0.3551
3419.49	0.3179
3427.91	0.2829
3436.34	0.2588
3444.77	0.2609
3453.19	0.3058
3461.62	0.3784
3470.05	0.4501
3478.47	0.4554
3486.9	0.4575
3495.33	0.458
3503.76	0.458
3512.18	0.458
3520.61	0.4575
3529.04	0.457
3537.46	0.455
3545.89	0.455
3554.32	0.4545
3562.74	0.454
3571.17	0.454
3579.6	0.4533
3588.02	0.452
3596.45	0.452
3604.88	0.451
3613.31	0.451
3621.73	0.451
3630.16	0.451
3638.59	0.451
3647.01	0.451
3655.44	0.451
3663.87	0.451
3672.29	0.449
3680.72	0.449
3689.15	0.449
3697.58	0.449
3706	0.449
3714.43	0.449
3722.86	0.448
3731.28	0.448
3739.71	0.448
3748.14	0.448
3756.56	0.448
3764.99	0.448
3773.42	0.4457
3781.85	0.445
3790.27	0.443
3798.7	0.44
3807.13	0.439
3815.55	0.437
3823.98	0.436
3832.41	0.436
3840.83	0.436
3849.26	0.434
3857.69	0.4332
3866.12	0.4296
3874.54	0.4263
3882.97	0.425
3891.4	0.4241
3899.82	0.424
3908.25	0.422
3916.68	0.4197
3925.1	0.418
3933.53	0.416
3941.96	0.415
3950.39	0.415
3958.81	0.416
3967.24	0.415
3975.67	0.413
3984.09	0.4123
