Infrared Spectrum: (-)-Noe's reagent,(-)-MBF-OH dimer
Formula: C 24 H 38 O 3
CAS: 239-35-0
State: gas
Origin: EPA-IR VAPOR PHASE LIBRARY
1/CM	ABSORBANCE
549.8	0.001824
559.445	0.0013839
569.09	0.0011153
578.734	0.0017398
588.379	0.0012876
598.024	0.00080514
607.669	0.00074895
617.313	0.001784
626.958	0.00079249
636.603	0.000449
646.248	0.0009864
655.893	0.0013873
665.537	0.000623
675.182	0.00076672
684.827	0.001794
694.472	0.005054
704.116	0.007884
713.761	0.011754
723.406	0.012864
733.051	0.005284
742.695	0.002874
752.34	0.004444
761.985	0.006344
771.63	0.004134
781.275	0.003054
790.919	0.002564
800.564	0.0015932
810.209	0.001689
819.854	0.002054
829.498	0.003374
839.143	0.002884
848.788	0.0016747
858.433	0.0013759
868.078	0.0015915
877.722	0.002434
887.367	0.003334
897.012	0.002304
906.657	0.001744
916.301	0.0017424
925.946	0.002054
935.591	0.002814
945.236	0.003714
954.88	0.005004
964.525	0.008654
974.17	0.015524
983.815	0.016614
993.46	0.008934
1003.1	0.006384
1012.75	0.008284
1022.39	0.016014
1032.04	0.016044
1041.68	0.007424
1051.33	0.006194
1060.97	0.008694
1070.62	0.007084
1080.26	0.007104
1089.91	0.006554
1099.55	0.004704
1109.2	0.004074
1118.84	0.003974
1128.49	0.011584
1138.13	0.024134
1147.78	0.021664
1157.42	0.006754
1167.07	0.002454
1176.71	0.002404
1186.36	0.001954
1196	0.002394
1205.64	0.002004
1215.29	0.0015195
1224.93	0.0010818
1234.58	0.0010523
1244.22	0.001914
1253.87	0.002794
1263.51	0.002834
1273.16	0.002084
1282.8	0.002494
1292.45	0.002654
1302.09	0.002214
1311.74	0.0013765
1321.38	0.0013614
1331.03	0.0016799
1340.67	0.001854
1350.32	0.002504
1359.96	0.004274
1369.61	0.006394
1379.25	0.007804
1388.9	0.007434
1398.54	0.005364
1408.18	0.002344
1417.83	0.002124
1427.47	0.002594
1437.12	0.003784
1446.76	0.005574
1456.41	0.006994
1466.05	0.007914
1475.7	0.008814
1485.34	0.006764
1494.99	0.003504
1504.63	0.001994
1514.28	0.0015005
1523.92	0.0013396
1533.57	0.0013234
1543.21	0.0013302
1552.86	0.0012716
1562.5	0.0014697
1572.15	0.002174
1581.79	0.004054
1591.44	0.007864
1601.08	0.012614
1610.73	0.012814
1620.37	0.007204
1630.01	0.002204
1639.66	0.0015041
1649.3	0.0014123
1658.95	0.001166
1668.59	0.0011655
1678.24	0.0011132
1687.88	0.0010332
1697.53	0.001025
1707.17	0.001017
1716.82	0.000883
1726.46	0.001043
1736.11	0.0009632
1745.75	0.0010489
1755.4	0.0012472
1765.04	0.001924
1774.69	0.0017169
1784.33	0.0010543
1793.98	0.00084341
1803.62	0.0009874
1813.27	0.000945
1822.91	0.00075723
1832.55	0.0008377
1842.2	0.00077663
1851.84	0.0010114
1861.49	0.0009093
1871.13	0.0009084
1880.78	0.0009109
1890.42	0.0008851
1900.07	0.00078696
1909.71	0.0009414
1919.36	0.00083226
1929	0.000752028
1938.65	0.00084174
1948.29	0.0009754
1957.94	0.0010039
1967.58	0.0009503
1977.23	0.0009689
1986.87	0.0008943
1996.52	0.0010255
2006.16	0.0011381
2015.81	0.0010245
2025.45	0.0011723
2035.1	0.0008771
2044.74	0.0011611
2054.38	0.0010733
2064.03	0.0009245
2073.67	0.0008969
2083.32	0.0010788
2092.96	0.0010252
2102.61	0.0010734
2112.25	0.0010701
2121.9	0.0009726
2131.54	0.0009402
2141.19	0.0010908
2150.83	0.0008687
2160.48	0.00079977
2170.12	0.00080374
2179.77	0.0009279
2189.41	0.0009061
2199.06	0.0008965
2208.7	0.0009436
2218.35	0.0009589
2227.99	0.0010779
2237.64	0.00082332
2247.28	0.00082029
2256.92	0.0008553
2266.57	0.0009918
2276.21	0.0008924
2285.86	0.0011383
2295.5	0.0010437
2305.15	0.0009412
2314.79	0.0009147
2324.44	0.0008864
2334.08	0.0010295
2343.73	0.0009394
2353.37	0.0008603
2363.02	0.0008927
2372.66	0.00081037
2382.31	0.0009228
2391.95	0.0009944
2401.6	0.0008555
2411.24	0.0009228
2420.89	0.00083305
2430.53	0.0008761
2440.18	0.0009827
2449.82	0.00081649
2459.47	0.00081266
2469.11	0.0008695
2478.75	0.0008989
2488.4	0.001121
2498.04	0.0009572
2507.69	0.000947
2517.33	0.00077049
2526.98	0.00083023
2536.62	0.00082078
2546.27	0.0010605
2555.91	0.00079027
2565.56	0.0011886
2575.2	0.0009713
2584.85	0.0012129
2594.49	0.001072
2604.14	0.0010853
2613.78	0.001049
2623.43	0.0009072
2633.07	0.000975
2642.72	0.001047
2652.36	0.0009629
2662.01	0.0011876
2671.65	0.001155
2681.29	0.0009507
2690.94	0.0012556
2700.58	0.0010658
2710.23	0.001083
2719.87	0.001313
2729.52	0.001764
2739.16	0.0016228
2748.81	0.0015117
2758.45	0.0011802
2768.1	0.0015442
2777.74	0.0014036
2787.39	0.0015016
2797.03	0.0015508
2806.68	0.0016596
2816.32	0.002054
2825.97	0.002324
2835.61	0.002484
2845.26	0.002764
2854.9	0.003834
2864.55	0.007154
2874.19	0.013964
2883.84	0.019574
2893.48	0.019674
2903.12	0.017974
2912.77	0.021394
2922.41	0.032194
2932.06	0.052824
2941.7	0.068904
2951.35	0.058864
2960.99	0.053724
2970.64	0.043524
2980.28	0.030944
2989.93	0.023394
2999.57	0.015954
3009.22	0.007334
3018.86	0.003474
3028.51	0.002634
3038.15	0.002224
3047.8	0.002174
3057.44	0.001924
3067.09	0.002564
3076.73	0.002524
3086.38	0.004064
3096.02	0.006394
3105.67	0.005824
3115.31	0.002914
3124.95	0.0016888
3134.6	0.001528
3144.24	0.0014454
3153.89	0.0017302
3163.53	0.0011569
3173.18	0.0011484
3182.82	0.0014835
3192.47	0.0012717
3202.11	0.0014589
3211.76	0.0014661
3221.4	0.0014248
3231.05	0.0010829
3240.69	0.0009257
3250.34	0.00081719
3259.98	0.000631
3269.63	0.000631
3279.27	0.00082514
3288.92	0.00081572
3298.56	0.0010289
3308.21	0.0009759
3317.85	0.0006958
3327.49	0.0009847
3337.14	0.00080006
3346.78	0.001045
3356.43	0.0009986
3366.07	0.000503
3375.72	0.0009122
3385.36	0.000508
3395.01	0.00081191
3404.65	0.00089
3414.3	0.000948
3423.94	0.000671
3433.59	0.000549
3443.23	0.0006898
3452.88	0.000751274
3462.52	0.00081544
3472.17	0.0006643
3481.81	0.000639
3491.46	0.0008715
3501.1	0.0010392
3510.75	0.00084239
3520.39	0.0009448
3530.04	0.00054
3539.68	0.0009751
3549.32	0.0009232
3558.97	0.000589
3568.61	0.00058
3578.26	0.0006792
3587.9	0.000595
3597.55	0.0007198
3607.19	0.0008706
3616.84	0.0006544
3626.48	0.0006533
3636.13	0.0009375
3645.77	0.0008448
3655.42	0.000518
3665.06	0.0006492
3674.71	0.000604
3684.35	0.00082904
3694	0.00079074
3703.64	0.0009101
3713.29	0.0007315
3722.93	0.00075996
3732.58	0.00075471
3742.22	0.000363
3751.86	0.0011047
3761.51	0.00077377
3771.15	0.000589
3780.8	0.0010214
3790.44	0.0006962
3800.09	0.0006789
3809.73	0.00077074
3819.38	0.0010027
3829.02	0.00082223
3838.67	0.0008452
3848.31	0.00081121
3857.96	0.00076215
3867.6	0.00078233
3877.25	0.0010618
3886.89	0.000461
3896.54	0.000562
3906.18	0.000532
3915.83	0.0009179
3925.47	0.0009384
3935.12	0.0007644
3944.76	0.0011868
3954.41	0.0010317
3964.05	0.0007054
3973.69	0.0009683
3983.34	0.0007235
3992.98	0.0006751
