Infrared Spectrum: 1H-CYCLOPROP[c]ISOQUINOLINE, 1a,7b-DIHYDRO-, HYDROCHLORIDE
Formula: C10 H10 Cl N
CAS: 23910-22-7
State: LIQUID (NEAT)
Class: COBLENTZ III
Instrument: PERKIN-ELMER 21 (GRATING)
Instrument parameters: NaCl PRISM
Sampling: TRANSMISSION
Path length: CAPILLARY
Resolution: 2
Origin: SMITH KLINE & FRENCH LABS.
MICROMETERS	TRANSMITTANCE
1.993	0.98
2.0272	0.979
2.06141	0.968
2.09561	0.978
2.12982	0.98
2.16402	0.979
2.19822	0.98
2.23243	0.976
2.26663	0.98
2.30084	0.981
2.33504	0.984
2.36925	0.987
2.40345	0.982
2.43765	0.981
2.47186	0.98
2.50606	0.984
2.54027	0.985
2.57447	0.982
2.60867	0.997
2.64288	0.998
2.67708	1
2.71129	1
2.74549	1.001
2.77969	1.003
2.8139	1.002
2.8481	0.992
2.88231	0.973
2.91651	0.958
2.95072	0.947
2.98492	0.94
3.01912	0.937
3.05333	0.937
3.08753	0.92
3.12174	0.925
3.15594	0.925
3.19014	0.924
3.22435	0.924
3.25855	0.924
3.29276	0.918
3.32696	0.84
3.36116	0.746
3.39537	0.693
3.42957	0.766
3.46378	0.796
3.49798	0.833
3.53218	0.883
3.56639	0.898
3.60059	0.917
3.6348	0.928
3.669	0.935
3.70321	0.939
3.73741	0.948
3.77161	0.948
3.80582	0.951
3.84002	0.953
3.87423	0.953
3.90843	0.953
3.94263	0.951
3.97684	0.958
4.01104	0.958
4.04525	0.952
4.07945	0.957
4.11365	0.957
4.14786	0.942
4.18206	0.942
4.21627	0.946
4.25047	0.958
4.28468	0.959
4.31888	0.959
4.35308	0.959
4.38729	0.958
4.42149	0.947
4.4557	0.947
4.4899	0.956
4.5241	0.942
4.55831	0.945
4.59251	0.937
4.62672	0.934
4.66092	0.946
4.69512	0.945
4.72933	0.943
4.76353	0.948
4.79774	0.939
4.83194	0.933
4.86615	0.945
4.90035	0.943
4.93455	0.941
4.96876	0.941
5.00296	0.943
5.03717	0.943
5.07137	0.94
5.10557	0.926
5.13978	0.908
5.17398	0.898
5.20819	0.903
5.24239	0.902
5.27659	0.907
5.3108	0.919
5.345	0.903
5.37921	0.913
5.41341	0.903
5.44762	0.912
5.48182	0.898
5.51602	0.895
5.55023	0.906
5.58443	0.917
5.61864	0.92
5.65284	0.928
5.68704	0.925
5.72125	0.912
5.75545	0.915
5.78966	0.911
5.82386	0.902
5.85806	0.911
5.89227	0.911
5.92647	0.904
5.96068	0.909
5.99488	0.911
6.02908	0.901
6.06329	0.875
6.09749	0.859
6.1317	0.689
6.1659	0.485
6.20011	0.342
6.23431	0.328
6.26851	0.619
6.30272	0.735
6.33692	0.813
6.37113	0.831
6.40533	0.559
6.43953	0.522
6.47374	0.732
6.50794	0.831
6.54215	0.864
6.57635	0.875
6.61055	0.87
6.64476	0.89
6.67896	0.89
6.71317	0.869
6.74737	0.762
6.78158	0.781
6.81578	0.833
6.84998	0.833
6.88419	0.73
6.91839	0.721
6.9526	0.792
6.9868	0.813
7.021	0.786
7.05521	0.773
7.08941	0.772
7.12362	0.802
7.15782	0.845
7.19202	0.862
7.22623	0.839
7.26043	0.809
7.29464	0.836
7.32884	0.853
7.36305	0.862
7.39725	0.834
7.43145	0.863
7.46566	0.87
7.49986	0.858
7.53407	0.862
7.56827	0.875
7.60247	0.887
7.63668	0.885
7.67088	0.869
7.70509	0.839
7.73929	0.866
7.77349	0.884
7.8077	0.884
7.8419	0.88
7.87611	0.873
7.91031	0.861
7.94452	0.824
7.97872	0.694
8.01292	0.79
8.04713	0.851
8.08133	0.867
8.11554	0.858
8.14974	0.822
8.18394	0.59
8.21815	0.444
8.25235	0.468
8.28656	0.585
8.32076	0.654
8.35496	0.678
8.38917	0.789
8.42337	0.805
8.45758	0.816
8.49178	0.842
8.52598	0.852
8.56019	0.828
8.59439	0.771
8.6286	0.75
8.6628	0.751
8.69701	0.732
8.73121	0.784
8.76541	0.822
8.79962	0.822
8.83382	0.799
8.86803	0.647
8.90223	0.577
8.93643	0.734
8.97064	0.744
9.00484	0.79
9.03905	0.82
9.07325	0.851
9.10745	0.861
9.14166	0.861
9.17586	0.861
9.21007	0.861
9.24427	0.866
9.27848	0.869
9.31268	0.873
9.34688	0.874
9.38109	0.873
9.41529	0.868
9.4495	0.874
9.4837	0.864
9.5179	0.85
9.55211	0.83
9.58631	0.794
9.62052	0.741
9.65472	0.674
9.68892	0.65
9.72313	0.644
9.75733	0.693
9.79154	0.788
9.82574	0.825
9.85995	0.814
9.89415	0.783
9.92835	0.745
9.96256	0.752
9.99676	0.822
10.031	0.838
10.0652	0.863
10.0994	0.87
10.1336	0.87
10.1678	0.87
10.202	0.861
10.2362	0.856
10.2704	0.844
10.3046	0.825
10.3388	0.811
10.373	0.778
10.4072	0.705
10.4414	0.6
10.4756	0.517
10.5098	0.494
10.544	0.503
10.5782	0.538
10.6124	0.669
10.6466	0.753
10.6808	0.801
10.715	0.84
10.7493	0.863
10.7835	0.874
10.8177	0.878
10.8519	0.883
10.8861	0.884
10.9203	0.883
10.9545	0.863
10.9887	0.845
11.0229	0.813
11.0571	0.714
11.0913	0.588
11.1255	0.451
11.1597	0.384
11.1939	0.437
11.2281	0.546
11.2623	0.576
11.2965	0.554
11.3307	0.532
11.3649	0.561
11.3991	0.651
11.4333	0.697
11.4675	0.725
11.5017	0.761
11.5359	0.76
11.5702	0.76
11.6044	0.76
11.6386	0.772
11.6728	0.803
11.707	0.831
11.7412	0.863
11.7754	0.89
11.8096	0.891
11.8438	0.892
11.878	0.892
11.9122	0.892
11.9464	0.892
11.9806	0.889
12.0148	0.889
12.049	0.894
12.0832	0.895
12.1174	0.891
12.1516	0.87
12.1858	0.831
12.22	0.803
12.2542	0.764
12.2884	0.741
12.3226	0.736
12.3568	0.757
12.391	0.791
12.4253	0.83
12.4595	0.836
12.4937	0.824
12.5279	0.825
12.5621	0.834
12.5963	0.842
12.6305	0.844
12.6647	0.855
12.6989	0.855
12.7331	0.844
12.7673	0.812
12.8015	0.801
12.8357	0.781
12.8699	0.728
12.9041	0.627
12.9383	0.466
12.9725	0.308
13.0067	0.332
13.0409	0.38
13.0751	0.392
13.1093	0.347
13.1435	0.293
13.1777	0.263
13.2119	0.214
13.2462	0.199
13.2804	0.19
13.3146	0.209
13.3488	0.25
13.383	0.33
13.4172	0.395
13.4514	0.455
13.4856	0.462
13.5198	0.453
13.554	0.387
13.5882	0.313
13.6224	0.302
13.6566	0.361
13.6908	0.39
13.725	0.398
13.7592	0.378
13.7934	0.371
13.8276	0.381
13.8618	0.442
13.896	0.503
13.9302	0.561
13.9644	0.576
13.9986	0.572
14.0328	0.54
14.0671	0.521
14.1013	0.509
14.1355	0.511
14.1697	0.551
14.2039	0.582
14.2381	0.612
14.2723	0.646
14.3065	0.672
14.3407	0.684
14.3749	0.705
14.4091	0.728
14.4433	0.742
14.4775	0.749
14.5117	0.755
14.5459	0.764
14.5801	0.769
14.6143	0.771
14.6485	0.772
14.6827	0.777
14.7169	0.777
14.7511	0.777
14.7853	0.781
14.8195	0.775
14.8537	0.773
14.8879	0.769
14.9222	0.768
14.9564	0.766
14.9906	0.767
15.0248	0.773
15.059	0.767
15.0932	0.755
15.1274	0.753
15.1616	0.753
