Infrared Spectrum: 3-Chlorophenyl isothiocyanate
Formula: C 7 H 4 Cl N S
CAS: 2392-68-9
State: gas
Origin: EPA-IR VAPOR PHASE LIBRARY
1/CM	ABSORBANCE
549.8	0.018651
559.445	0.014951
569.09	0.011591
578.734	0.008681
588.379	0.006921
598.024	0.008711
607.669	0.007621
617.313	0.003851
626.958	0.003241
636.603	0.002951
646.248	0.003221
655.893	0.006121
665.537	0.012681
675.182	0.020191
684.827	0.012971
694.472	0.006731
704.116	0.004971
713.761	0.005691
723.406	0.008141
733.051	0.013011
742.695	0.021701
752.34	0.043071
761.985	0.066031
771.63	0.078971
781.275	0.051011
790.919	0.019731
800.564	0.006831
810.209	0.004631
819.854	0.004271
829.498	0.003221
839.143	0.002011
848.788	0.003331
858.433	0.010751
868.078	0.020091
877.722	0.013091
887.367	0.005751
897.012	0.004061
906.657	0.004841
916.301	0.004301
925.946	0.003471
935.591	0.003531
945.236	0.004981
954.88	0.009671
964.525	0.016171
974.17	0.013981
983.815	0.007231
993.46	0.005761
1003.1	0.004741
1012.75	0.002681
1022.39	0.0015077
1032.04	0.0012169
1041.68	0.001861
1051.33	0.002831
1060.97	0.007961
1070.62	0.014651
1080.26	0.015991
1089.91	0.020461
1099.55	0.011311
1109.2	0.003621
1118.84	0.001771
1128.49	0.0013004
1138.13	0.0006953
1147.78	0.0010677
1157.42	0.0013824
1167.07	0.0013028
1176.71	0.0007199
1186.36	0.0007088
1196	0.0007548
1205.64	0.0008109
1215.29	0.0007671
1224.93	0.003001
1234.58	0.005141
1244.22	0.005771
1253.87	0.005261
1263.51	0.005781
1273.16	0.005521
1282.8	0.003881
1292.45	0.004271
1302.09	0.002781
1311.74	0.001566
1321.38	0.002161
1331.03	0.003501
1340.67	0.002251
1350.32	0.0009327
1359.96	0.0008237
1369.61	0.0009914
1379.25	0.0013732
1388.9	0.002351
1398.54	0.003801
1408.18	0.006161
1417.83	0.013821
1427.47	0.018301
1437.12	0.009711
1446.76	0.007101
1456.41	0.014351
1466.05	0.042711
1475.7	0.067941
1485.34	0.031621
1494.99	0.009091
1504.63	0.005891
1514.28	0.007241
1523.92	0.008011
1533.57	0.006461
1543.21	0.008931
1552.86	0.017691
1562.5	0.035491
1572.15	0.064031
1581.79	0.134441
1591.44	0.167141
1601.08	0.044891
1610.73	0.009851
1620.37	0.006471
1630.01	0.005081
1639.66	0.003881
1649.3	0.003601
1658.95	0.004391
1668.59	0.004441
1678.24	0.002811
1687.88	0.002281
1697.53	0.002331
1707.17	0.002321
1716.82	0.002641
1726.46	0.003421
1736.11	0.003761
1745.75	0.003351
1755.4	0.003111
1765.04	0.003751
1774.69	0.004731
1784.33	0.004771
1793.98	0.003811
1803.62	0.003681
1813.27	0.003811
1822.91	0.003801
1832.55	0.003871
1842.2	0.004161
1851.84	0.005521
1861.49	0.005531
1871.13	0.005351
1880.78	0.006651
1890.42	0.008901
1900.07	0.012961
1909.71	0.019521
1919.36	0.030341
1929	0.041721
1938.65	0.048801
1948.29	0.057571
1957.94	0.072131
1967.58	0.092391
1977.23	0.121781
1986.87	0.164001
1996.52	0.214771
2006.16	0.261101
2015.81	0.310421
2025.45	0.396141
2035.1	0.512161
2044.74	0.432181
2054.38	0.257481
2064.03	0.179501
2073.67	0.198241
2083.32	0.267831
2092.96	0.291701
2102.61	0.228131
2112.25	0.145371
2121.9	0.101561
2131.54	0.084141
2141.19	0.073721
2150.83	0.061791
2160.48	0.045641
2170.12	0.032101
2179.77	0.024841
2189.41	0.021891
2199.06	0.022091
2208.7	0.020301
2218.35	0.016801
2227.99	0.014471
2237.64	0.011471
2247.28	0.008071
2256.92	0.006371
2266.57	0.004931
2276.21	0.003711
2285.86	0.002911
2295.5	0.002241
2305.15	0.002021
2314.79	0.002191
2324.44	0.002461
2334.08	0.002381
2343.73	0.001971
2353.37	0.002131
2363.02	0.002261
2372.66	0.002301
2382.31	0.002801
2391.95	0.002951
2401.6	0.003521
2411.24	0.004141
2420.89	0.004151
2430.53	0.003811
2440.18	0.003561
2449.82	0.003801
2459.47	0.004171
2469.11	0.004411
2478.75	0.004181
2488.4	0.004251
2498.04	0.004531
2507.69	0.004591
2517.33	0.004021
2526.98	0.003911
2536.62	0.004491
2546.27	0.004881
2555.91	0.005551
2565.56	0.006771
2575.2	0.008741
2584.85	0.007401
2594.49	0.004031
2604.14	0.002301
2613.78	0.001921
2623.43	0.001761
2633.07	0.001661
2642.72	0.001661
2652.36	0.001651
2662.01	0.001552
2671.65	0.001741
2681.29	0.002111
2690.94	0.002331
2700.58	0.002381
2710.23	0.002601
2719.87	0.002321
2729.52	0.002331
2739.16	0.002491
2748.81	0.002671
2758.45	0.002931
2768.1	0.003261
2777.74	0.003491
2787.39	0.003891
2797.03	0.004311
2806.68	0.004071
2816.32	0.003491
2825.97	0.003051
2835.61	0.002311
2845.26	0.001731
2854.9	0.001841
2864.55	0.001631
2874.19	0.0014224
2883.84	0.0012781
2893.48	0.0011127
2903.12	0.001303
2912.77	0.0012919
2922.41	0.0013752
2932.06	0.0015649
2941.7	0.001406
2951.35	0.0013215
2960.99	0.0013936
2970.64	0.001581
2980.28	0.001881
2989.93	0.002161
2999.57	0.001991
3009.22	0.002331
3018.86	0.002421
3028.51	0.002551
3038.15	0.002421
3047.8	0.002091
3057.44	0.002621
3067.09	0.004201
3076.73	0.006361
3086.38	0.006001
3096.02	0.003361
3105.67	0.001701
3115.31	0.0007381
3124.95	0.000588017
3134.6	0.0005012
3144.24	0.00059178
3153.89	0.0005085
3163.53	0.000395
3173.18	0.00059587
3182.82	0.0005116
3192.47	0.000358
3202.11	0.000221
3211.76	0.000308
3221.4	0.000339
3231.05	0.000238
3240.69	0.000185
3250.34	9.3e-05
3259.98	0.000291
3269.63	0.000296
3279.27	0.000137
3288.92	0.000133
3298.56	0.000294
3308.21	7.8e-05
3317.85	0.000163
3327.49	0.000261
3337.14	0.000283
3346.78	0.000443
3356.43	0.000263
3366.07	0.000404
3375.72	0.000153
3385.36	0.0005297
3395.01	0.000335
3404.65	0.000249
3414.3	6e-05
3423.94	0.00035
3433.59	0.000476
3443.23	0.000335
3452.88	0.0005795
3462.52	0.0004999
3472.17	0.000392
3481.81	0.000413
3491.46	0.000468
3501.1	0.000439
3510.75	0.000437
3520.39	0.000398
3530.04	0.000423
3539.68	0.000371
3549.32	0.000329
3558.97	0.0004888
3568.61	0.000359
3578.26	0.000184
3587.9	0.000297
3597.55	0.000473
3607.19	0.000318
3616.84	0.0005363
3626.48	0.0005069
3636.13	0.000329
3645.77	0.000449
3655.42	0.000465
3665.06	0.0005347
3674.71	0.00031
3684.35	0.000348
3694	0.0007411
3703.64	0.0005492
3713.29	0.00065456
3722.93	0.0005688
3732.58	0.00066828
3742.22	0.00064812
3751.86	0.0007509
3761.51	0.0008359
3771.15	0.0005531
3780.8	0.0006911
3790.44	0.0005554
3800.09	0.0007028
3809.73	0.00064563
3819.38	0.00062352
3829.02	0.0005394
3838.67	0.0007637
3848.31	0.00066231
3857.96	0.0008933
3867.6	0.0010035
3877.25	0.0009818
3886.89	0.0008749
3896.54	0.0011277
3906.18	0.0009186
3915.83	0.0012177
3925.47	0.0013996
3935.12	0.0015056
3944.76	0.0014859
3954.41	0.001611
3964.05	0.0015027
3973.69	0.001851
3983.34	0.001931
3992.98	0.002061
