Infrared Spectrum: ESTRONE BENZOATE
Formula: C25 H26 O3
CAS: 2393-53-5
State: SOLUTION (2.1% IN CS2)
Melting point: 209-217 C (CORR.)
Class: COBLENTZ
Instrument: Not specified, most likely a prism, grating, or hybrid spectrometer.
Sampling: TRANSMISSION
Path length: 0.1 CM
Resolution: 4
Origin: DEPARTMENT OF PHARMACOLOGY, THE STATE UNIVERSITY OF IOWA, IOWA
MICROMETERS	TRANSMITTANCE
2.091	0.616
2.12828	0.616
2.16557	0.614
2.20285	0.616
2.24014	0.616
2.27742	0.614
2.3147	0.614
2.35199	0.614
2.38927	0.611
2.42656	0.611
2.46384	0.611
2.50112	0.613
2.53841	0.616
2.57569	0.62
2.61298	0.623
2.65026	0.625
2.68754	0.622
2.72483	0.62
2.76211	0.617
2.7994	0.614
2.83668	0.61
2.87397	0.604
2.91125	0.601
2.94853	0.597
2.98582	0.597
3.0231	0.597
3.06039	0.6
3.09767	0.603
3.13495	0.606
3.17224	0.606
3.20952	0.597
3.24681	0.575
3.28409	0.569
3.32137	0.534
3.35866	0.366
3.39594	0.324
3.43323	0.359
3.47051	0.377
3.50779	0.415
3.54508	0.482
3.58236	0.545
3.61965	0.574
3.65693	0.593
3.69421	0.598
3.7315	0.609
3.76878	0.611
3.80607	0.613
3.84335	0.616
3.88063	0.617
3.91792	0.617
3.9552	0.622
3.99249	0.622
4.02977	0.622
4.06705	0.623
4.10434	0.623
4.14162	0.625
4.17891	0.626
4.21619	0.625
4.25348	0.625
4.29076	0.626
4.32804	0.623
4.36533	0.62
4.40261	0.617
4.4399	0.616
4.47718	0.613
4.51446	0.611
4.55175	0.611
4.58903	0.61
4.62632	0.609
4.6636	0.603
4.70088	0.6
4.73817	0.597
4.77545	0.598
4.81274	0.609
4.85002	0.62
4.8873	0.625
4.92459	0.629
4.96187	0.63
4.99916	0.635
5.03644	0.636
5.07372	0.633
5.11101	0.627
5.14829	0.625
5.18558	0.625
5.22286	0.623
5.26014	0.622
5.29743	0.622
5.33471	0.625
5.372	0.625
5.40928	0.622
5.44656	0.617
5.48385	0.61
5.52113	0.6
5.55842	0.594
5.5957	0.572
5.63298	0.537
5.67027	0.392
5.70755	0.21
5.74484	0.162
5.78212	0.255
5.81941	0.369
5.85669	0.47
5.89397	0.482
5.93126	0.494
5.96854	0.542
6.00583	0.552
6.04311	0.558
6.08039	0.558
6.11768	0.556
6.15496	0.552
6.19225	0.545
6.22953	0.536
6.26681	0.529
6.3041	0.52
6.34138	0.514
6.37867	0.513
6.41595	0.51
6.45323	0.507
6.49052	0.505
6.5278	0.504
6.56509	0.504
6.60237	0.501
6.63965	0.5
6.67694	0.498
6.71422	0.5
6.75151	0.498
6.78879	0.497
6.82607	0.494
6.86336	0.491
6.90064	0.486
6.93793	0.482
6.97521	0.479
7.01249	0.476
7.04978	0.475
7.08706	0.473
7.12435	0.469
7.16163	0.47
7.19892	0.473
7.2362	0.486
7.27348	0.488
7.31077	0.491
7.34805	0.504
7.38534	0.527
7.42262	0.537
7.4599	0.534
7.49719	0.53
7.53447	0.531
7.57176	0.531
7.60904	0.514
7.64632	0.476
7.68361	0.468
7.72089	0.457
7.75818	0.428
7.79546	0.393
7.83274	0.354
7.87003	0.297
7.90731	0.197
7.9446	0.139
7.98188	0.139
8.01916	0.162
8.05645	0.165
8.09373	0.167
8.13102	0.219
8.1683	0.209
8.20558	0.197
8.24287	0.187
8.28015	0.226
8.31744	0.261
8.35472	0.359
8.392	0.443
8.42929	0.454
8.46657	0.454
8.50386	0.343
8.54114	0.29
8.57843	0.366
8.61571	0.396
8.65299	0.376
8.69028	0.284
8.72756	0.26
8.76485	0.373
8.80213	0.396
8.83941	0.408
8.8767	0.418
8.91398	0.437
8.95127	0.444
8.98855	0.44
9.02583	0.43
9.06312	0.422
9.1004	0.414
9.13769	0.412
9.17497	0.428
9.21225	0.405
9.24954	0.327
9.28682	0.252
9.32411	0.257
9.36139	0.289
9.39867	0.265
9.43596	0.199
9.47324	0.247
9.51053	0.315
9.54781	0.393
9.58509	0.422
9.62238	0.434
9.65966	0.444
9.69695	0.454
9.73423	0.366
9.77151	0.295
9.8088	0.372
9.84608	0.411
9.88337	0.409
9.92065	0.396
9.95794	0.38
9.99522	0.39
10.0325	0.452
10.0698	0.515
10.1071	0.537
10.1444	0.54
10.1816	0.546
10.2189	0.552
10.2562	0.559
10.2935	0.563
10.3308	0.562
10.3681	0.562
10.4053	0.563
10.4426	0.569
10.4799	0.577
10.5172	0.581
10.5545	0.584
10.5918	0.585
10.629	0.585
10.6663	0.585
10.7036	0.578
10.7409	0.574
10.7782	0.568
10.8155	0.568
10.8528	0.571
10.89	0.571
10.9273	0.536
10.9646	0.515
11.0019	0.517
11.0392	0.526
11.0765	0.523
11.1137	0.492
11.151	0.468
11.1883	0.459
11.2256	0.453
11.2629	0.452
11.3002	0.454
11.3374	0.459
11.3747	0.466
11.412	0.472
11.4493	0.479
11.4866	0.484
11.5239	0.486
11.5611	0.491
11.5984	0.494
11.6357	0.495
11.673	0.495
11.7103	0.495
11.7476	0.498
11.7849	0.498
11.8221	0.501
11.8594	0.507
11.8967	0.517
11.934	0.529
11.9713	0.542
12.0086	0.555
12.0458	0.562
12.0831	0.566
12.1204	0.569
12.1577	0.566
12.195	0.55
12.2323	0.531
12.2695	0.507
12.3068	0.497
12.3441	0.513
12.3814	0.546
12.4187	0.562
12.456	0.568
12.4933	0.574
12.5305	0.577
12.5678	0.581
12.6051	0.584
12.6424	0.581
12.6797	0.578
12.717	0.572
12.7542	0.556
12.7915	0.552
12.8288	0.552
12.8661	0.559
12.9034	0.572
12.9407	0.59
12.9779	0.597
13.0152	0.614
13.0525	0.622
13.0898	0.627
13.1271	0.63
13.1644	0.633
13.2016	0.633
13.2389	0.633
13.2762	0.635
13.3135	0.632
13.3508	0.627
13.3881	0.62
13.4254	0.6
13.4626	0.593
13.4999	0.571
13.5372	0.562
13.5745	0.558
13.6118	0.562
13.6491	0.585
13.6863	0.61
13.7236	0.616
13.7609	0.619
13.7982	0.619
13.8355	0.617
13.8728	0.613
13.91	0.607
13.9473	0.597
13.9846	0.581
14.0219	0.537
14.0592	0.469
14.0965	0.379
14.1337	0.268
14.171	0.218
14.2083	0.196
14.2456	0.199
14.2829	0.279
14.3202	0.375
14.3575	0.447
14.3947	0.504
14.432	0.526
14.4693	0.539
14.5066	0.545
14.5439	0.545
14.5812	0.543
14.6184	0.533
14.6557	0.53
14.693	0.54
14.7303	0.562
14.7676	0.579
14.8049	0.597
14.8421	0.614
14.8794	0.62
14.9167	0.623
14.954	0.635
14.9913	0.643
15.0286	0.648
15.0659	0.648
15.1031	0.649
15.1404	0.649
15.1777	0.649
15.215	0.649
