Infrared Spectrum: P-METHOXY BENZYLAMINE
Formula: C8 H11 N O
CAS: 2393-23-9
State: LIQUID
Boiling point: 126-128 C AT 17 mmHg
Class: COBLENTZ
Instrument: Not specified, most likely a prism, grating, or hybrid spectrometer.
Sampling: TRANSMISSION
Path length: 0.003 CM
Resolution: 4
Origin: WYANDOTTE CHEMICALS CORP., WYANDOTTE, MICHIGAN, USA
MICROMETERS	TRANSMITTANCE
2.078	0.963
2.11779	0.958
2.15758	0.951
2.19737	0.92
2.23715	0.931
2.27694	0.928
2.31673	0.931
2.35652	0.938
2.39631	0.926
2.4361	0.94
2.47589	0.94
2.51568	0.948
2.55546	0.955
2.59525	0.961
2.63504	0.965
2.67483	0.963
2.71462	0.933
2.75441	0.9
2.7942	0.88
2.83399	0.86
2.87377	0.82
2.91356	0.77
2.95335	0.707
2.99314	0.448
3.03293	0.528
3.07272	0.553
3.11251	0.598
3.15229	0.611
3.19208	0.664
3.23187	0.669
3.27166	0.561
3.31145	0.401
3.35124	0.403
3.39103	0.22
3.43082	0.23
3.4706	0.372
3.51039	0.265
3.55018	0.461
3.58997	0.732
3.62976	0.792
3.66955	0.832
3.70934	0.873
3.74913	0.888
3.78891	0.89
3.8287	0.9
3.86849	0.892
3.90828	0.901
3.94807	0.875
3.98786	0.893
4.02765	0.9
4.06743	0.883
4.10722	0.905
4.14701	0.916
4.1868	0.905
4.22659	0.936
4.26638	0.943
4.30617	0.946
4.34596	0.94
4.38574	0.926
4.42553	0.918
4.46532	0.918
4.50511	0.935
4.5449	0.925
4.58469	0.936
4.62448	0.936
4.66427	0.935
4.70405	0.95
4.74384	0.95
4.78363	0.943
4.82342	0.915
4.86321	0.87
4.903	0.808
4.94279	0.852
4.98257	0.895
5.02236	0.895
5.06215	0.878
5.10194	0.882
5.14173	0.875
5.18152	0.873
5.22131	0.883
5.2611	0.862
5.30088	0.828
5.34067	0.808
5.38046	0.847
5.42025	0.88
5.46004	0.897
5.49983	0.898
5.53962	0.898
5.57941	0.901
5.61919	0.882
5.65898	0.865
5.69877	0.87
5.73856	0.863
5.77835	0.862
5.81814	0.848
5.85793	0.83
5.89771	0.81
5.9375	0.759
5.97729	0.686
6.01708	0.574
6.05687	0.461
6.09666	0.395
6.13645	0.016
6.17624	0.084
6.21602	0.249
6.25581	0.186
6.2956	0.445
6.33539	0.536
6.37518	0.578
6.41497	0.601
6.45476	0.563
6.49454	0.405
6.53433	0.137
6.57412	0.039
6.61391	0.167
6.6537	0.421
6.69349	0.514
6.73328	0.373
6.77307	0.104
6.81285	0.156
6.85264	0.22
6.89243	0.189
6.93222	0.488
6.97201	0.518
7.0118	0.538
7.05159	0.641
7.09138	0.667
7.13116	0.611
7.17095	0.471
7.21074	0.42
7.25053	0.556
7.29032	0.602
7.33011	0.579
7.3699	0.549
7.40968	0.543
7.44947	0.556
7.48926	0.536
7.52905	0.473
7.56884	0.438
7.60863	0.26
7.64842	0.059
7.68821	0.189
7.72799	0.255
7.76778	0.27
7.80757	0.229
7.84736	0.132
7.88715	0.053
7.92694	0.026
7.96673	0.026
8.00652	0.023
8.0463	0.028
8.08609	0.054
8.12588	0.207
8.16567	0.37
8.20546	0.456
8.24525	0.485
8.28504	0.486
8.32482	0.518
8.36461	0.448
8.4044	0.181
8.44419	0.043
8.48398	0.043
8.52377	0.162
8.56356	0.408
8.60335	0.528
8.64313	0.553
8.68292	0.612
8.72271	0.671
8.7625	0.694
8.80229	0.715
8.84208	0.705
8.88187	0.669
8.92166	0.624
8.96144	0.498
9.00123	0.5
9.04102	0.646
9.08081	0.684
9.1206	0.692
9.16039	0.684
9.20018	0.642
9.23996	0.604
9.27975	0.568
9.31954	0.529
9.35933	0.501
9.39912	0.468
9.43891	0.398
9.4787	0.32
9.51849	0.179
9.55827	0.069
9.59806	0.031
9.63785	0.029
9.67764	0.033
9.71743	0.064
9.75722	0.197
9.79701	0.337
9.8368	0.395
9.87658	0.465
9.91637	0.536
9.95616	0.568
9.99595	0.566
10.0357	0.556
10.0755	0.549
10.1153	0.549
10.1551	0.549
10.1949	0.551
10.2347	0.559
10.2745	0.563
10.3143	0.569
10.354	0.563
10.3938	0.551
10.4336	0.549
10.4734	0.549
10.5132	0.543
10.553	0.534
10.5928	0.511
10.6326	0.49
10.6724	0.455
10.7121	0.428
10.7519	0.408
10.7917	0.395
10.8315	0.382
10.8713	0.355
10.9111	0.332
10.9509	0.305
10.9907	0.285
11.0305	0.26
11.0702	0.239
11.11	0.22
11.1498	0.199
11.1896	0.191
11.2294	0.174
11.2692	0.166
11.309	0.157
11.3488	0.151
11.3886	0.149
11.4283	0.146
11.4681	0.147
11.5079	0.151
11.5477	0.151
11.5875	0.147
11.6273	0.151
11.6671	0.151
11.7069	0.151
11.7467	0.142
11.7864	0.131
11.8262	0.116
11.866	0.094
11.9058	0.078
11.9456	0.053
11.9854	0.041
12.0252	0.038
12.065	0.036
12.1048	0.036
12.1445	0.036
12.1843	0.038
12.2241	0.039
12.2639	0.038
12.3037	0.038
12.3435	0.038
12.3833	0.043
12.4231	0.051
12.4628	0.089
12.5026	0.159
12.5424	0.227
12.5822	0.303
12.622	0.358
12.6618	0.416
12.7016	0.46
12.7414	0.496
12.7812	0.528
12.8209	0.544
12.8607	0.558
12.9005	0.578
12.9403	0.599
12.9801	0.617
13.0199	0.631
13.0597	0.634
13.0995	0.641
13.1393	0.632
13.179	0.632
13.2188	0.619
13.2586	0.611
13.2984	0.596
13.3382	0.558
13.378	0.513
13.4178	0.47
13.4576	0.416
13.4974	0.375
13.5371	0.348
13.5769	0.345
13.6167	0.367
13.6565	0.385
13.6963	0.401
13.7361	0.421
13.7759	0.433
13.8157	0.451
13.8555	0.451
13.8952	0.468
13.935	0.465
13.9748	0.47
14.0146	0.461
14.0544	0.435
14.0942	0.393
14.134	0.352
14.1738	0.318
14.2136	0.3
14.2533	0.313
14.2931	0.352
14.3329	0.421
14.3727	0.481
14.4125	0.534
14.4523	0.578
14.4921	0.614
14.5319	0.637
14.5716	0.662
14.6114	0.674
14.6512	0.686
14.691	0.702
14.7308	0.715
14.7706	0.715
14.8104	0.717
14.8502	0.727
14.89	0.734
14.9297	0.737
14.9695	0.729
15.0093	0.722
15.0491	0.725
15.0889	0.74
15.1287	0.745
15.1685	0.747
15.2083	0.742
15.2481	0.742
15.2878	0.744
15.3276	0.745
15.3674	0.742
15.4072	0.74
15.447	0.739
15.4868	0.739
15.5266	0.737
15.5664	0.732
15.6062	0.73
15.6459	0.712
15.6857	0.699
15.7255	0.692
15.7653	0.682
15.8051	0.699
15.8449	0.705
15.8847	0.704
15.9245	0.714
15.9643	0.714
16.004	0.715
