Infrared Spectrum: Bis(4-chlorophenylthio)methane
Formula: C 13 H 10 Cl 2 S 2
CAS: 2393-97-7
State: gas
Origin: EPA-IR VAPOR PHASE LIBRARY
1/CM	ABSORBANCE
549.8	0.009252
559.445	0.004422
569.09	0.002462
578.734	0.002812
588.379	0.002532
598.024	0.003082
607.669	0.002242
617.313	0.003432
626.958	0.002672
636.603	0.002402
646.248	0.003092
655.893	0.002442
665.537	0.003082
675.182	0.003112
684.827	0.003802
694.472	0.005912
704.116	0.010542
713.761	0.014402
723.406	0.012682
733.051	0.011692
742.695	0.015072
752.34	0.008532
761.985	0.004802
771.63	0.005452
781.275	0.007572
790.919	0.013642
800.564	0.031022
810.209	0.046432
819.854	0.052122
829.498	0.036802
839.143	0.024182
848.788	0.009502
858.433	0.005552
868.078	0.003382
877.722	0.002462
887.367	0.002342
897.012	0.001792
906.657	0.001722
916.301	0.0014411
925.946	0.0010139
935.591	0.001862
945.236	0.0015951
954.88	0.001762
964.525	0.001722
974.17	0.0012431
983.815	0.001932
993.46	0.002752
1003.1	0.012952
1012.75	0.077832
1022.39	0.016872
1032.04	0.004862
1041.68	0.005062
1051.33	0.004572
1060.97	0.008382
1070.62	0.012232
1080.26	0.022892
1089.91	0.099072
1099.55	0.133142
1109.2	0.033902
1118.84	0.015762
1128.49	0.009532
1138.13	0.006152
1147.78	0.004262
1157.42	0.004382
1167.07	0.005042
1176.71	0.009102
1186.36	0.020022
1196	0.043372
1205.64	0.016032
1215.29	0.008072
1224.93	0.007032
1234.58	0.005262
1244.22	0.005502
1253.87	0.004552
1263.51	0.004752
1273.16	0.002792
1282.8	0.003322
1292.45	0.003812
1302.09	0.002962
1311.74	0.002982
1321.38	0.002952
1331.03	0.002942
1340.67	0.003062
1350.32	0.003062
1359.96	0.003682
1369.61	0.005742
1379.25	0.010602
1388.9	0.015462
1398.54	0.013222
1408.18	0.010052
1417.83	0.007902
1427.47	0.009532
1437.12	0.009812
1446.76	0.008812
1456.41	0.012432
1466.05	0.041702
1475.7	0.140632
1485.34	0.047162
1494.99	0.009632
1504.63	0.005412
1514.28	0.003832
1523.92	0.003182
1533.57	0.002882
1543.21	0.003582
1552.86	0.004432
1562.5	0.007622
1572.15	0.012242
1581.79	0.009042
1591.44	0.005232
1601.08	0.004262
1610.73	0.004392
1620.37	0.005042
1630.01	0.005502
1639.66	0.005822
1649.3	0.004552
1658.95	0.003062
1668.59	0.002312
1678.24	0.0015746
1687.88	0.0014028
1697.53	0.001682
1707.17	0.0015198
1716.82	0.001962
1726.46	0.001882
1736.11	0.002202
1745.75	0.002252
1755.4	0.002652
1765.04	0.003342
1774.69	0.002772
1784.33	0.001792
1793.98	0.0013753
1803.62	0.0013493
1813.27	0.0012782
1822.91	0.0014719
1832.55	0.001712
1842.2	0.002242
1851.84	0.002002
1861.49	0.002142
1871.13	0.002802
1880.78	0.003972
1890.42	0.005022
1900.07	0.003922
1909.71	0.002292
1919.36	0.001682
1929	0.0013741
1938.65	0.0013442
1948.29	0.001662
1957.94	0.0013247
1967.58	0.001104
1977.23	0.0009984
1986.87	0.0010381
1996.52	0.0010461
2006.16	0.0007893
2015.81	0.0009817
2025.45	0.0009608
2035.1	0.0009359
2044.74	0.0010626
2054.38	0.0011826
2064.03	0.0010798
2073.67	0.0009963
2083.32	0.0008743
2092.96	0.0009069
2102.61	0.0010002
2112.25	0.0010832
2121.9	0.001055
2131.54	0.0009675
2141.19	0.0008901
2150.83	0.0008595
2160.48	0.0009691
2170.12	0.0009272
2179.77	0.0009732
2189.41	0.00074027
2199.06	0.0008824
2208.7	0.0009453
2218.35	0.0010323
2227.99	0.0009266
2237.64	0.0008382
2247.28	0.0009028
2256.92	0.0010585
2266.57	0.0013476
2276.21	0.0012405
2285.86	0.0013343
2295.5	0.0012082
2305.15	0.0010656
2314.79	0.0009601
2324.44	0.0011587
2334.08	0.00071701
2343.73	0.0009046
2353.37	0.0010658
2363.02	0.00073004
2372.66	0.0009126
2382.31	0.0010594
2391.95	0.0009282
2401.6	0.0009487
2411.24	0.0006679
2420.89	0.0006217
2430.53	0.0008431
2440.18	0.0009322
2449.82	0.0009308
2459.47	0.00070194
2469.11	0.0008321
2478.75	0.000647416
2488.4	0.000858
2498.04	0.000893
2507.69	0.0010815
2517.33	0.0008477
2526.98	0.0010706
2536.62	0.0010445
2546.27	0.0012156
2555.91	0.0012936
2565.56	0.0013092
2575.2	0.0016406
2584.85	0.0010247
2594.49	0.0009276
2604.14	0.00074108
2613.78	0.0009072
2623.43	0.0007839
2633.07	0.0008067
2642.72	0.00072083
2652.36	0.001338
2662.01	0.0014589
2671.65	0.0010406
2681.29	0.00064007
2690.94	0.0007932
2700.58	0.00063319
2710.23	0.000487
2719.87	0.00068597
2729.52	0.0009673
2739.16	0.0007964
2748.81	0.000789
2758.45	0.0004
2768.1	0.00063523
2777.74	0.0010738
2787.39	0.0010016
2797.03	0.0009943
2806.68	0.0011564
2816.32	0.0009029
2825.97	0.0009699
2835.61	0.000497
2845.26	0.000441
2854.9	0.000479
2864.55	0.0009087
2874.19	0.0007454
2883.84	0.0005736
2893.48	0.0005703
2903.12	0.0005469
2912.77	0.0016408
2922.41	0.003872
2932.06	0.006542
2941.7	0.003402
2951.35	0.001702
2960.99	0.0012642
2970.64	0.001802
2980.28	0.001782
2989.93	0.0011151
2999.57	0.0010708
3009.22	0.0014344
3018.86	0.002722
3028.51	0.002982
3038.15	0.002152
3047.8	0.002012
3057.44	0.003092
3067.09	0.003772
3076.73	0.007412
3086.38	0.009702
3096.02	0.004922
3105.67	0.002682
3115.31	0.0012749
3124.95	0.0010943
3134.6	0.0011321
3144.24	0.0008364
3153.89	0.000842
3163.53	0.000471
3173.18	0.000805
3182.82	0.0008102
3192.47	0.0006319
3202.11	0.0011381
3211.76	0.0006042
3221.4	0.0008475
3231.05	0.000456
3240.69	0.0009532
3250.34	0.000918
3259.98	0.0009367
3269.63	0.00070728
3279.27	0.000514
3288.92	0.000381
3298.56	0.0010979
3308.21	0.0008588
3317.85	0.0007579
3327.49	0.000277
3337.14	0.0009138
3346.78	0.00071014
3356.43	0.000536
3366.07	0.0009741
3375.72	0.0008355
3385.36	0.000622
3395.01	0.0008278
3404.65	0.0010394
3414.3	0.000556
3423.94	0.000482
3433.59	0.0009709
3443.23	0.0005496
3452.88	0.001223
3462.52	0.0011409
3472.17	0.0008189
3481.81	0.0007425
3491.46	0.00067674
3501.1	0.00070033
3510.75	0.0009077
3520.39	0.0010695
3530.04	0.000535
3539.68	0.0009553
3549.32	0.0010428
3558.97	0.000541
3568.61	0.0008966
3578.26	0.000436
3587.9	0.0005732
3597.55	0.0007233
3607.19	0.0005929
3616.84	0.0009184
3626.48	0.000237
3636.13	0.0011009
3645.77	0.0009501
3655.42	0.000537
3665.06	0.0009417
3674.71	0.000453
3684.35	0.0008238
3694	0.000829
3703.64	0.0008928
3713.29	0.0009814
3722.93	0.0007664
3732.58	0.0008469
3742.22	0.000306
3751.86	0.0011029
3761.51	0.0008648
3771.15	0.0008606
3780.8	0.0008413
3790.44	0.0010116
3800.09	0.0010088
3809.73	0.001206
3819.38	0.0013601
3829.02	0.001772
3838.67	0.0013486
3848.31	0.0009345
3857.96	0.00074024
3867.6	0.0008042
3877.25	0.0006221
3886.89	0.00068714
3896.54	0.0015763
3906.18	0.0008849
3915.83	0.0010583
3925.47	0.00070516
3935.12	0.0008
3944.76	0.0007717
3954.41	0.000231
3964.05	0.0010165
3973.69	0.0011815
3983.34	0.00066014
3992.98	0.00070792
