Infrared Spectrum: 3-(4-Aminophenyl)propionic acid
Formula: C 9 H 11 N O 2
CAS: 2393-17-1
State: gas
Origin: EPA-IR VAPOR PHASE LIBRARY
1/CM	ABSORBANCE
549.8	0.003301
559.445	0.003541
569.09	0.003361
578.734	0.003011
588.379	0.002701
598.024	0.002781
607.669	0.002821
617.313	0.003251
626.958	0.003181
636.603	0.003161
646.248	0.003951
655.893	0.003761
665.537	0.003381
675.182	0.002881
684.827	0.002451
694.472	0.002171
704.116	0.001861
713.761	0.001821
723.406	0.001561
733.051	0.0014095
742.695	0.0012967
752.34	0.0013223
761.985	0.0011681
771.63	0.0012706
781.275	0.0011612
790.919	0.001641
800.564	0.002261
810.209	0.002831
819.854	0.003131
829.498	0.002441
839.143	0.001751
848.788	0.0011707
858.433	0.0007995
868.078	0.0008858
877.722	0.0006718
887.367	0.0006268
897.012	0.0008131
906.657	0.0009918
916.301	0.000875
925.946	0.0008949
935.591	0.0008742
945.236	0.0011042
954.88	0.0009901
964.525	0.0010542
974.17	0.0010673
983.815	0.0011957
993.46	0.0010444
1003.1	0.0011201
1012.75	0.0012495
1022.39	0.001581
1032.04	0.001631
1041.68	0.001426
1051.33	0.0014122
1060.97	0.0013342
1070.62	0.001981
1080.26	0.003001
1089.91	0.003721
1099.55	0.005181
1109.2	0.008181
1118.84	0.010111
1128.49	0.008291
1138.13	0.005051
1147.78	0.004021
1157.42	0.002791
1167.07	0.002821
1176.71	0.003551
1186.36	0.003721
1196	0.002611
1205.64	0.002171
1215.29	0.002081
1224.93	0.001771
1234.58	0.001731
1244.22	0.002211
1253.87	0.002971
1263.51	0.004971
1273.16	0.006031
1282.8	0.003821
1292.45	0.002121
1302.09	0.001721
1311.74	0.0013923
1321.38	0.0013529
1331.03	0.0014346
1340.67	0.001601
1350.32	0.001851
1359.96	0.001991
1369.61	0.002351
1379.25	0.002511
1388.9	0.002011
1398.54	0.0014684
1408.18	0.0012392
1417.83	0.001219
1427.47	0.0013991
1437.12	0.0013829
1446.76	0.0013257
1456.41	0.0012427
1466.05	0.0010291
1475.7	0.0008254
1485.34	0.0007812
1494.99	0.0012947
1504.63	0.003271
1514.28	0.007931
1523.92	0.005921
1533.57	0.001921
1543.21	0.0009783
1552.86	0.0008373
1562.5	0.0009103
1572.15	0.0009518
1581.79	0.0009435
1591.44	0.0011786
1601.08	0.001841
1610.73	0.002751
1620.37	0.004991
1630.01	0.005971
1639.66	0.003341
1649.3	0.0014408
1658.95	0.0009402
1668.59	0.0007482
1678.24	0.0007872
1687.88	0.0007898
1697.53	0.0008857
1707.17	0.0010384
1716.82	0.0013369
1726.46	0.001671
1736.11	0.002571
1745.75	0.003871
1755.4	0.005751
1765.04	0.009131
1774.69	0.012661
1784.33	0.011031
1793.98	0.006831
1803.62	0.004051
1813.27	0.002511
1822.91	0.0014883
1832.55	0.0010884
1842.2	0.0008217
1851.84	0.0007376
1861.49	0.0007234
1871.13	0.0007299
1880.78	0.0006224
1890.42	0.00059778
1900.07	0.00053447
1909.71	0.00056545
1919.36	0.0004607
1929	0.00049907
1938.65	0.0004306
1948.29	0.000452
1957.94	0.0004322
1967.58	0.0004749
1977.23	0.0004656
1986.87	0.00050818
1996.52	0.0004329
2006.16	0.00049699
2015.81	0.0004601
2025.45	0.0004119
2035.1	0.0004633
2044.74	0.000373
2054.38	0.0004545
2064.03	0.000442
2073.67	0.0004214
2083.32	0.0004444
2092.96	0.000417
2102.61	0.0004271
2112.25	0.0004043
2121.9	0.000469
2131.54	0.000375
2141.19	0.000415
2150.83	0.000396
2160.48	0.000331
2170.12	0.000333
2179.77	0.000327
2189.41	0.00037
2199.06	0.000419
2208.7	0.000367
2218.35	0.00049671
2227.99	0.00039
2237.64	0.000407
2247.28	0.0004647
2256.92	0.0004449
2266.57	0.0004228
2276.21	0.000362
2285.86	0.000358
2295.5	0.000334
2305.15	0.0004403
2314.79	0.0004088
2324.44	0.0004098
2334.08	0.0004534
2343.73	0.0004066
2353.37	0.000391
2363.02	0.000386
2372.66	0.000321
2382.31	0.000353
2391.95	0.000329
2401.6	0.000328
2411.24	0.0004164
2420.89	0.000327
2430.53	0.000286
2440.18	0.000372
2449.82	0.000288
2459.47	0.000349
2469.11	0.000361
2478.75	0.000393
2488.4	0.000359
2498.04	0.0004303
2507.69	0.000326
2517.33	0.000297
2526.98	0.000334
2536.62	0.0004798
2546.27	0.000411
2555.91	0.000317
2565.56	0.000375
2575.2	0.000354
2584.85	0.0004411
2594.49	0.0004169
2604.14	0.000326
2613.78	0.000304
2623.43	0.0004021
2633.07	0.00039
2642.72	0.0004867
2652.36	0.000396
2662.01	0.000382
2671.65	0.000369
2681.29	0.000385
2690.94	0.000315
2700.58	0.000272
2710.23	0.000297
2719.87	0.000322
2729.52	0.0004297
2739.16	0.000346
2748.81	0.000311
2758.45	0.000283
2768.1	0.000208
2777.74	0.0004422
2787.39	0.000309
2797.03	0.000374
2806.68	0.000369
2816.32	0.000355
2825.97	0.00037
2835.61	0.000315
2845.26	0.00057123
2854.9	0.0006407
2864.55	0.00059783
2874.19	0.0009208
2883.84	0.0008801
2893.48	0.000758
2903.12	0.0008976
2912.77	0.000968
2922.41	0.0013408
2932.06	0.001711
2941.7	0.001771
2951.35	0.001611
2960.99	0.001394
2970.64	0.0012397
2980.28	0.0009103
2989.93	0.0010175
2999.57	0.001521
3009.22	0.001811
3018.86	0.001931
3028.51	0.002481
3038.15	0.002321
3047.8	0.001541
3057.44	0.0011702
3067.09	0.0008168
3076.73	0.0007203
3086.38	0.0004429
3096.02	0.0006195
3105.67	0.0006316
3115.31	0.00059424
3124.95	0.000501653
3134.6	0.00036
3144.24	0.00049753
3153.89	0.000363
3163.53	0.000348
3173.18	0.0004037
3182.82	0.0004197
3192.47	0.00053031
3202.11	0.000431
3211.76	0.000236
3221.4	0.0004427
3231.05	0.000399
3240.69	0.0004421
3250.34	0.000378
3259.98	0.000278
3269.63	0.000336
3279.27	0.0004679
3288.92	0.0004607
3298.56	0.00055655
3308.21	0.000243
3317.85	0.00033
3327.49	0.0004194
3337.14	0.000179
3346.78	0.000236
3356.43	0.000361
3366.07	0.000615
3375.72	0.000222
3385.36	0.0006053
3395.01	0.000664
3404.65	0.00088
3414.3	0.0008843
3423.94	0.00054166
3433.59	0.0004482
3443.23	0.00052489
3452.88	0.000273
3462.52	0.00034
3472.17	0.0006322
3481.81	0.0006569
3491.46	0.0007485
3501.1	0.0006709
3510.75	0.0006263
3520.39	0.0004447
3530.04	0.00053707
3539.68	0.0007528
3549.32	0.0009074
3558.97	0.0011643
3568.61	0.004221
3578.26	0.005181
3587.9	0.001621
3597.55	0.0007592
3607.19	0.0006064
3616.84	0.0004218
3626.48	0.0004459
3636.13	0.000263
3645.77	0.000157
3655.42	0.000146
3665.06	0.000357
3674.71	0.000359
3684.35	0.000337
3694	0.000384
3703.64	0.000206
3713.29	0.0004247
3722.93	0.000388
3732.58	0.000289
3742.22	0.0004235
3751.86	0.0005629
3761.51	0.000193
3771.15	0.0004781
3780.8	0.000334
3790.44	0.000269
3800.09	0.000222
3809.73	0.00026
3819.38	0.0004801
3829.02	0.000362
3838.67	0.000216
3848.31	0.00012
3857.96	0.000372
3867.6	0.00059888
3877.25	0.000287
3886.89	0.00039
3896.54	0.000271
3906.18	0.0004613
3915.83	0.000318
3925.47	0.00051419
3935.12	0.000312
3944.76	0.0004437
3954.41	0.000417
3964.05	0.0004331
3973.69	0.000356
3983.34	0.0004165
3992.98	0.000461
