Infrared Spectrum: Bis(3-chlorophenylsulphonyl)methane
Formula: C 13 H 10 Cl 2 O 4 S 2
CAS: 2394-03-8
State: gas
Origin: EPA-IR VAPOR PHASE LIBRARY
1/CM	ABSORBANCE
549.8	0.0024175
559.445	0.0034
569.09	0.00855
578.734	0.00572
588.379	0.001584
598.024	0.0019338
607.669	0.00305
617.313	0.0022441
626.958	0.0019075
636.603	0.001265
646.248	0.0021221
655.893	0.00362
665.537	0.0062
675.182	0.00802
684.827	0.00375
694.472	0.00315
704.116	0.00282
713.761	0.00434
723.406	0.0059
733.051	0.00891
742.695	0.01158
752.34	0.01334
761.985	0.00675
771.63	0.00659
781.275	0.00822
790.919	0.00564
800.564	0.00589
810.209	0.00447
819.854	0.00414
829.498	0.00777
839.143	0.0114
848.788	0.00555
858.433	0.00295
868.078	0.0024246
877.722	0.00326
887.367	0.00338
897.012	0.00292
906.657	0.0028
916.301	0.0019154
925.946	0.0026508
935.591	0.0024771
945.236	0.0019321
954.88	0.0025305
964.525	0.00278
974.17	0.0021968
983.815	0.0019181
993.46	0.0019725
1003.1	0.0025895
1012.75	0.0020663
1022.39	0.001524
1032.04	0.0022236
1041.68	0.00302
1051.33	0.0025394
1060.97	0.00384
1070.62	0.00578
1080.26	0.0057
1089.91	0.005
1099.55	0.00575
1109.2	0.00451
1118.84	0.0056
1128.49	0.0035
1138.13	0.00547
1147.78	0.01026
1157.42	0.0193
1167.07	0.01607
1176.71	0.01106
1186.36	0.00412
1196	0.00411
1205.64	0.00859
1215.29	0.00786
1224.93	0.001253
1234.58	0.0018864
1244.22	0.00011
1253.87	0.000893
1263.51	0.001608
1273.16	0.0017131
1282.8	0.0025223
1292.45	0.0041
1302.09	0.00322
1311.74	0.00305
1321.38	0.0028
1331.03	0.00365
1340.67	0.00722
1350.32	0.01574
1359.96	0.02431
1369.61	0.0182
1379.25	0.00714
1388.9	0.00408
1398.54	0.00416
1408.18	0.00512
1417.83	0.00682
1427.47	0.00337
1437.12	0.0029
1446.76	0.00357
1456.41	0.00514
1466.05	0.00544
1475.7	0.00383
1485.34	0.0026837
1494.99	0.0025651
1504.63	0.0024999
1514.28	0.0019953
1523.92	0.0022574
1533.57	0.0020243
1543.21	0.0020999
1552.86	0.00277
1562.5	0.00303
1572.15	0.00429
1581.79	0.00557
1591.44	0.00313
1601.08	0.0019944
1610.73	0.0023068
1620.37	0.0019849
1630.01	0.001926
1639.66	0.0016928
1649.3	0.001102
1658.95	0.0019061
1668.59	0.0019367
1678.24	0.0019691
1687.88	0.00177219
1697.53	0.0021663
1707.17	0.00185511
1716.82	0.0019187
1726.46	0.00177492
1736.11	0.00175193
1745.75	0.0020002
1755.4	0.0020241
1765.04	0.0019191
1774.69	0.0019495
1784.33	0.002012
1793.98	0.0021717
1803.62	0.0021186
1813.27	0.00185418
1822.91	0.0022466
1832.55	0.0018882
1842.2	0.0021487
1851.84	0.0019989
1861.49	0.0020747
1871.13	0.0023641
1880.78	0.002618
1890.42	0.0023323
1900.07	0.0020705
1909.71	0.0019674
1919.36	0.0024111
1929	0.0020518
1938.65	0.0021955
1948.29	0.0025626
1957.94	0.0024872
1967.58	0.0024263
1977.23	0.0023127
1986.87	0.0024893
1996.52	0.002167
2006.16	0.0022868
2015.81	0.0024182
2025.45	0.0020561
2035.1	0.002299
2044.74	0.002407
2054.38	0.0022594
2064.03	0.0023881
2073.67	0.0021666
2083.32	0.0021374
2092.96	0.0022902
2102.61	0.0023659
2112.25	0.0023425
2121.9	0.0022375
2131.54	0.0022349
2141.19	0.0021457
2150.83	0.002392
2160.48	0.0020318
2170.12	0.0023455
2179.77	0.0023183
2189.41	0.0022852
2199.06	0.0020574
2208.7	0.0023887
2218.35	0.0028
2227.99	0.0022263
2237.64	0.00238
2247.28	0.0024027
2256.92	0.0025039
2266.57	0.0025379
2276.21	0.0022702
2285.86	0.0021819
2295.5	0.0026061
2305.15	0.0025298
2314.79	0.0022965
2324.44	0.002141
2334.08	0.0026218
2343.73	0.0025896
2353.37	0.0024813
2363.02	0.00284
2372.66	0.0022416
2382.31	0.0023042
2391.95	0.0022668
2401.6	0.0026478
2411.24	0.0020324
2420.89	0.0024364
2430.53	0.0023347
2440.18	0.00182235
2449.82	0.0021199
2459.47	0.0020512
2469.11	0.0024342
2478.75	0.0024397
2488.4	0.0022226
2498.04	0.0023793
2507.69	0.0022187
2517.33	0.0025802
2526.98	0.0026328
2536.62	0.0021291
2546.27	0.0022444
2555.91	0.0022601
2565.56	0.0023274
2575.2	0.002153
2584.85	0.0020758
2594.49	0.0020728
2604.14	0.0019897
2613.78	0.0019806
2623.43	0.002629
2633.07	0.0023398
2642.72	0.0024085
2652.36	0.0023817
2662.01	0.0022697
2671.65	0.0022725
2681.29	0.0028
2690.94	0.0025737
2700.58	0.0019527
2710.23	0.0022851
2719.87	0.00181107
2729.52	0.0024609
2739.16	0.0021351
2748.81	0.0024005
2758.45	0.0023906
2768.1	0.0025006
2777.74	0.0021586
2787.39	0.0022592
2797.03	0.0024369
2806.68	0.0023092
2816.32	0.0019318
2825.97	0.0025102
2835.61	0.0026308
2845.26	0.0022854
2854.9	0.00279
2864.55	0.0019586
2874.19	0.0024359
2883.84	0.0023643
2893.48	0.0023654
2903.12	0.0025256
2912.77	0.0020744
2922.41	0.00283
2932.06	0.00291
2941.7	0.00298
2951.35	0.0025641
2960.99	0.00177966
2970.64	0.0020199
2980.28	0.00283
2989.93	0.0026043
2999.57	0.0024013
3009.22	0.0019401
3018.86	0.00177538
3028.51	0.002204
3038.15	0.0026983
3047.8	0.0021155
3057.44	0.0029
3067.09	0.00309
3076.73	0.00356
3086.38	0.00317
3096.02	0.0027351
3105.67	0.0025037
3115.31	0.0022366
3124.95	0.0022086
3134.6	0.0019711
3144.24	0.0024124
3153.89	0.0024127
3163.53	0.00285
3173.18	0.00312
3182.82	0.0022149
3192.47	0.00297
3202.11	0.0026874
3211.76	0.0020466
3221.4	0.0022058
3231.05	0.0026355
3240.69	0.00234
3250.34	0.0021318
3259.98	0.0024625
3269.63	0.0027423
3279.27	0.0021463
3288.92	0.0022316
3298.56	0.0019528
3308.21	0.0026479
3317.85	0.0020095
3327.49	0.0024056
3337.14	0.0021117
3346.78	0.0018632
3356.43	0.001602
3366.07	0.0025678
3375.72	0.0023582
3385.36	0.0019941
3395.01	0.0023537
3404.65	0.0022573
3414.3	0.00176191
3423.94	0.002502
3433.59	0.0019568
3443.23	0.0019246
3452.88	0.0023216
3462.52	0.0024636
3472.17	0.0025976
3481.81	0.0021128
3491.46	0.0023685
3501.1	0.0021773
3510.75	0.0016841
3520.39	0.0023894
3530.04	0.0021704
3539.68	0.0019041
3549.32	0.0024903
3558.97	0.001697
3568.61	0.0017264
3578.26	0.0018108
3587.9	0.0022402
3597.55	0.0021598
3607.19	0.0024374
3616.84	0.0017963
3626.48	0.0019631
3636.13	0.0022471
3645.77	0.002758
3655.42	0.0025036
3665.06	0.0020853
3674.71	0.0018971
3684.35	0.00294
3694	0.00307
3703.64	0.003
3713.29	0.0024316
3722.93	0.0026013
3732.58	0.002028
3742.22	0.00289
3751.86	0.001647
3761.51	0.0025893
3771.15	0.0020769
3780.8	0.00179747
3790.44	0.0020494
3800.09	0.0019289
3809.73	0.0023066
3819.38	0.0016929
3829.02	0.0019496
3838.67	0.0022816
3848.31	0.0022083
3857.96	0.0020394
3867.6	0.0020552
3877.25	0.00279
3886.89	0.00284
3896.54	0.00332
3906.18	0.0022209
3915.83	0.00176973
3925.47	0.00180674
3935.12	0.0025129
3944.76	0.0021675
3954.41	0.0028
3964.05	0.00298
3973.69	0.00341
3983.34	0.00279
3992.98	0.0022562
