Infrared Spectrum: Bis(4-Chlorophenylsulphonyl)methane
Formula: C 13 H 10 Cl 2 O 4 S 2
CAS: 2394-02-7
State: gas
Origin: EPA-IR VAPOR PHASE LIBRARY
1/CM	ABSORBANCE
549.8	0.00812
559.445	0.00555
569.09	0.00491
578.734	0.001953
588.379	0.001227
598.024	0.001245
607.669	0.000582
617.313	0.001253
626.958	0.0016855
636.603	0.000759
646.248	0.00052
655.893	0.000902
665.537	0.001117
675.182	0.000969
684.827	0.000834
694.472	0.00155679
704.116	0.001111
713.761	0.0020714
723.406	0.0020792
733.051	0.00335
742.695	0.00307
752.34	0.00571
761.985	0.01383
771.63	0.01178
781.275	0.00485
790.919	0.0024254
800.564	0.00256
810.209	0.00498
819.854	0.01206
829.498	0.01442
839.143	0.00539
848.788	0.0019145
858.433	0.0021393
868.078	0.001457
877.722	0.000796
887.367	0.000591
897.012	0.001064
906.657	0.001231
916.301	0.000886
925.946	0.00103
935.591	0.000908
945.236	0.000819
954.88	0.000769
964.525	0.0014448
974.17	0.001348
983.815	0.00141
993.46	0.001095
1003.1	0.000974
1012.75	0.004
1022.39	0.001789
1032.04	0.0017143
1041.68	0.000976
1051.33	0.00048
1060.97	0.0020848
1070.62	0.00282
1080.26	0.00903
1089.91	0.01534
1099.55	0.00757
1109.2	0.0025073
1118.84	0.0017423
1128.49	0.000582
1138.13	0.0022956
1147.78	0.00834
1157.42	0.01356
1167.07	0.00874
1176.71	0.00739
1186.36	0.00396
1196	0.00335
1205.64	0.00835
1215.29	0.00626
1224.93	0.00318
1234.58	0.001171
1244.22	0.00161381
1253.87	0.001259
1263.51	0.001894
1273.16	0.00265
1282.8	0.001573
1292.45	0.001345
1302.09	0.001197
1311.74	0.0014917
1321.38	0.0016086
1331.03	0.00268
1340.67	0.00509
1350.32	0.01369
1359.96	0.01688
1369.61	0.0126
1379.25	0.00468
1388.9	0.00337
1398.54	0.00357
1408.18	0.0016915
1417.83	0.0014308
1427.47	0.001364
1437.12	0.001255
1446.76	0.001222
1456.41	0.001344
1466.05	0.0023247
1475.7	0.00622
1485.34	0.00267
1494.99	0.0014727
1504.63	0.001385
1514.28	0.001192
1523.92	0.001343
1533.57	0.001193
1543.21	0.0018065
1552.86	0.0020525
1562.5	0.0026
1572.15	0.00415
1581.79	0.00639
1591.44	0.00406
1601.08	0.0014
1610.73	0.0014237
1620.37	0.00151073
1630.01	0.0014556
1639.66	0.001367
1649.3	0.0014349
1658.95	0.0014885
1668.59	0.001152
1678.24	0.001267
1687.88	0.001246
1697.53	0.00108
1707.17	0.001022
1716.82	0.001096
1726.46	0.001041
1736.11	0.001044
1745.75	0.000968
1755.4	0.001092
1765.04	0.001222
1774.69	0.001267
1784.33	0.00105
1793.98	0.001051
1803.62	0.001156
1813.27	0.001074
1822.91	0.00102
1832.55	0.001293
1842.2	0.001078
1851.84	0.001221
1861.49	0.001051
1871.13	0.001015
1880.78	0.000961
1890.42	0.000992
1900.07	0.001123
1909.71	0.001228
1919.36	0.001273
1929	0.001176
1938.65	0.001077
1948.29	0.001069
1957.94	0.00084
1967.58	0.001165
1977.23	0.000994
1986.87	0.001058
1996.52	0.001002
2006.16	0.001045
2015.81	0.000859
2025.45	0.000968
2035.1	0.001199
2044.74	0.000942
2054.38	0.000969
2064.03	0.001057
2073.67	0.000998
2083.32	0.001122
2092.96	0.000823
2102.61	0.000906
2112.25	0.000914
2121.9	0.001156
2131.54	0.000875
2141.19	0.001023
2150.83	0.001101
2160.48	0.001054
2170.12	0.001076
2179.77	0.001357
2189.41	0.001274
2199.06	0.0014428
2208.7	0.000942
2218.35	0.0014735
2227.99	0.001275
2237.64	0.000879
2247.28	0.001227
2256.92	0.001148
2266.57	0.001271
2276.21	0.001002
2285.86	0.000951
2295.5	0.000958
2305.15	0.00101
2314.79	0.000923
2324.44	0.000904
2334.08	0.000967
2343.73	0.000866
2353.37	0.001346
2363.02	0.000909
2372.66	0.001133
2382.31	0.001334
2391.95	0.000948
2401.6	0.001034
2411.24	0.000858
2420.89	0.001404
2430.53	0.001235
2440.18	0.001056
2449.82	0.001321
2459.47	0.00092
2469.11	0.001142
2478.75	0.000999
2488.4	0.001087
2498.04	0.001114
2507.69	0.00133
2517.33	0.001104
2526.98	0.000887
2536.62	0.000997
2546.27	0.001027
2555.91	0.000967
2565.56	0.001002
2575.2	0.000933
2584.85	0.00121
2594.49	0.001055
2604.14	0.00109
2613.78	0.001217
2623.43	0.000641
2633.07	0.00101
2642.72	0.001003
2652.36	0.000955
2662.01	0.001138
2671.65	0.000898
2681.29	0.001059
2690.94	0.001341
2700.58	0.000843
2710.23	0.000706
2719.87	0.001009
2729.52	0.000979
2739.16	0.001261
2748.81	0.001024
2758.45	0.001234
2768.1	0.000851
2777.74	0.000799
2787.39	0.0011
2797.03	0.001315
2806.68	0.001133
2816.32	0.001277
2825.97	0.000844
2835.61	0.001119
2845.26	0.001118
2854.9	0.001124
2864.55	0.001112
2874.19	0.001347
2883.84	0.000911
2893.48	0.001005
2903.12	0.001147
2912.77	0.000666
2922.41	0.000943
2932.06	0.0015084
2941.7	0.000974
2951.35	0.000859
2960.99	0.0014527
2970.64	0.000924
2980.28	0.001156
2989.93	0.00092
2999.57	0.0014564
3009.22	0.001419
3018.86	0.000944
3028.51	0.00156047
3038.15	0.001045
3047.8	0.000875
3057.44	0.0014799
3067.09	0.001271
3076.73	0.001331
3086.38	0.0014637
3096.02	0.001262
3105.67	0.001191
3115.31	0.001139
3124.95	0.001358
3134.6	0.001087
3144.24	0.000662
3153.89	0.001251
3163.53	0.001204
3173.18	0.001088
3182.82	0.000821
3192.47	0.001095
3202.11	0.001399
3211.76	0.000867
3221.4	0.000557
3231.05	0.001253
3240.69	0.001241
3250.34	0.000966
3259.98	0.0014304
3269.63	0.000963
3279.27	0.000778
3288.92	0.000693
3298.56	0.001302
3308.21	0.000765
3317.85	0.000675
3327.49	0.00037
3337.14	0.000648
3346.78	0.000829
3356.43	0.000881
3366.07	0.001084
3375.72	0.001007
3385.36	0.001258
3395.01	0.001033
3404.65	0.001057
3414.3	0.001176
3423.94	0.001127
3433.59	0.000661
3443.23	0.00037
3452.88	0.000998
3462.52	0.001255
3472.17	0.001187
3481.81	0.001177
3491.46	0.00085
3501.1	0.00081
3510.75	0.000761
3520.39	0.000636
3530.04	0.001153
3539.68	0.001145
3549.32	0.001287
3558.97	0.001028
3568.61	0.001
3578.26	0.000983
3587.9	0.001102
3597.55	0.000954
3607.19	0.000987
3616.84	0.001304
3626.48	0.001115
3636.13	0.000739
3645.77	0.000623
3655.42	0.0003
3665.06	0.0004
3674.71	0.000849
3684.35	0.001277
3694	0.001154
3703.64	0.001131
3713.29	0.00151274
3722.93	0.0017779
3732.58	0.000901
3742.22	0.000565
3751.86	0.001265
3761.51	0.001031
3771.15	0.00108
3780.8	0.001399
3790.44	0.0014375
3800.09	0.001127
3809.73	0.001093
3819.38	0.000825
3829.02	0.001216
3838.67	0.001193
3848.31	0.00152895
3857.96	0.000893
3867.6	0.00158021
3877.25	0.0014264
3886.89	0.001034
3896.54	0.00097
3906.18	0.001117
3915.83	0.000758
3925.47	0.000644
3935.12	0.001036
3944.76	0.001058
3954.41	0.000994
3964.05	0.00127
3973.69	0.00158737
3983.34	0.001005
3992.98	0.000968
