Infrared Spectrum: 19,21-DIHYDROXYPREGN-4-ENE-3,20-DIONE
Formula: C21 H30 O4
CAS: 2394-23-2
State: SOLID (KBr DISC)
Class: COBLENTZ III
Instrument: BECKMAN IR-4 (HYBRID PRISM-GRATING)
Sampling: TRANSMISSION
Resolution: 4
Origin: THE WORCESTER FOUNDATION FOR EXPERIMENTAL BIOLOGY, Neal L. McNiven
1/CM	TRANSMITTANCE
600	0.7
610.96	0.712
621.921	0.696
632.881	0.702
643.841	0.702
654.802	0.723
665.762	0.754
676.723	0.827
687.683	0.827
698.643	0.721
709.604	0.875
720.564	0.914
731.524	0.9
742.485	0.882
753.445	0.853
764.405	0.806
775.366	0.773
786.326	0.802
797.287	0.851
808.247	0.863
819.207	0.823
830.168	0.818
841.128	0.753
852.088	0.771
863.049	0.672
874.009	0.421
884.969	0.68
895.93	0.5771
906.89	0.604
917.851	0.747
928.811	0.786
939.771	0.763
950.732	0.77
961.692	0.742
972.652	0.759
983.613	0.686
994.573	0.665
1005.53	0.485
1016.49	0.566
1027.45	0.366
1038.41	0.237
1049.37	0.31
1060.34	0.117
1071.3	0.265
1082.26	0.452
1093.22	0.5839
1104.18	0.649
1115.14	0.46
1126.1	0.686
1137.06	0.739
1148.02	0.745
1158.98	0.753
1169.94	0.641
1180.9	0.675
1191.86	0.564
1202.82	0.551
1213.78	0.452
1224.74	0.42
1235.7	0.412
1246.66	0.562
1257.62	0.38
1268.58	0.577
1279.54	0.55
1290.5	0.532
1301.46	0.634
1312.42	0.66
1323.38	0.489
1334.34	0.517
1345.3	0.386
1356.27	0.351
1367.23	0.518
1378.19	0.369
1389.15	0.457
1400.11	0.486
1411.07	0.494
1422.03	0.457
1432.99	0.444
1443.95	0.386
1454.91	0.54
1465.87	0.614
1476.83	0.715
1487.79	0.775
1498.75	0.803
1509.71	0.832
1520.67	0.841
1531.63	0.858
1542.59	0.843
1553.55	0.818
1564.51	0.798
1575.47	0.773
1586.43	0.721
1597.39	0.582
1608.35	0.452
1619.31	0.392
1630.27	0.207
1641.23	0.108
1652.19	0.063
1663.16	0.114
1674.12	0.363
1685.08	0.56
1696.04	0.4729
1707	0.176
1717.96	0.563
1728.92	0.672
1739.88	0.742
1750.84	0.812
1761.8	0.834
1772.76	0.845
1783.72	0.848
1794.68	0.849
1805.64	0.864
1816.6	0.862
1827.56	0.867
1838.52	0.871
1849.48	0.87
1860.44	0.873
1871.4	0.874
1882.36	0.879
1893.32	0.877
1904.28	0.88
1915.24	0.872
1926.2	0.877
1937.16	0.876
1948.12	0.859
1959.09	0.867
1970.05	0.871
1981.01	0.868
1991.97	0.864
2002.93	0.861
2013.89	0.861
2024.85	0.86
2035.81	0.8575
2046.77	0.853
2057.73	0.8482
2068.69	0.847
2079.65	0.8493
2090.61	0.851
2101.57	0.8492
2112.53	0.8455
2123.49	0.8377
2134.45	0.835
2145.41	0.833
2156.37	0.832
2167.33	0.831
2178.29	0.831
2189.25	0.83
2200.21	0.83
2211.17	0.83
2222.13	0.83
2233.09	0.83
2244.05	0.832
2255.01	0.832
2265.98	0.831
2276.94	0.83
2287.9	0.8284
2298.86	0.8247
2309.82	0.8219
2320.78	0.821
2331.74	0.819
2342.7	0.8177
2353.66	0.816
2364.62	0.816
2375.58	0.8146
2386.54	0.81
2397.5	0.7997
2408.46	0.7893
2419.42	0.785
2430.38	0.784
2441.34	0.784
2452.3	0.783
2463.26	0.781
2474.22	0.781
2485.18	0.781
2496.14	0.781
2507.1	0.7784
2518.06	0.7736
2529.02	0.7706
2539.98	0.7632
2550.94	0.763
2561.91	0.76
2572.87	0.7559
2583.83	0.755
2594.79	0.7534
2605.75	0.7516
2616.71	0.7435
2627.67	0.7331
2638.63	0.7313
2649.59	0.7266
2660.55	0.7208
2671.51	0.7161
2682.47	0.7143
2693.43	0.7096
2704.39	0.707
2715.35	0.7051
2726.31	0.706
2737.27	0.71
2748.23	0.7116
2759.19	0.7041
2770.15	0.702
2781.11	0.6919
2792.07	0.6804
2803.03	0.6662
2813.99	0.659
2824.95	0.6487
2835.91	0.6145
2846.87	0.5605
2857.83	0.4896
2868.8	0.4048
2879.76	0.3101
2890.72	0.2988
2901.68	0.321
2912.64	0.3071
2923.6	0.2724
2934.56	0.2341
2945.52	0.1906
2956.48	0.1656
2967.44	0.1373
2978.4	0.124
2989.36	0.1625
3000.32	0.2142
3011.28	0.3071
3022.24	0.3923
3033.2	0.4647
3044.16	0.5211
3055.12	0.5586
3066.08	0.5802
3077.04	0.6092
3088	0.6316
3098.96	0.6446
3109.92	0.648
3120.88	0.648
3131.84	0.6419
3142.8	0.6354
3153.76	0.6299
3164.73	0.6224
3175.69	0.6174
3186.65	0.6081
3197.61	0.5958
3208.57	0.5826
3219.53	0.569
3230.49	0.5594
3241.45	0.5387
3252.41	0.5191
3263.37	0.492
3274.33	0.4697
3285.29	0.4478
3296.25	0.4393
3307.21	0.4192
3318.17	0.4006
3329.13	0.3816
3340.09	0.3665
3351.05	0.3478
3362.01	0.3256
3372.97	0.3105
3383.93	0.2966
3394.89	0.2768
3405.85	0.2542
3416.81	0.2354
3427.77	0.2148
3438.73	0.1738
3449.69	0.125
3460.65	0.1002
3471.62	0.0899
3482.58	0.1041
3493.54	0.1293
3504.5	0.1549
3515.46	0.1773
3526.42	0.2046
3537.38	0.2108
3548.34	0.2183
3559.3	0.2352
3570.26	0.2896
3581.22	0.3571
3592.18	0.4056
3603.14	0.4431
3614.1	0.4727
3625.06	0.5009
3636.02	0.526
3646.98	0.5418
3657.94	0.5497
3668.9	0.5673
3679.86	0.5797
3690.82	0.5898
3701.78	0.5974
3712.74	0.6019
3723.7	0.6054
3734.66	0.6109
3745.62	0.614
3756.58	0.6175
3767.55	0.619
3778.51	0.621
3789.47	0.6257
3800.43	0.6295
3811.39	0.632
3822.35	0.632
3833.31	0.63
3844.27	0.6241
3855.23	0.6143
3866.19	0.6041
3877.15	0.6055
3888.11	0.6145
3899.07	0.617
3910.03	0.614
3920.99	0.6113
3931.95	0.606
3942.91	0.6038
3953.87	0.601
3964.83	0.5982
3975.79	0.5975
3986.75	0.598
3997.71	0.598
4008.67	0.5932
4019.63	0.592
4030.59	0.59
4041.55	0.59
4052.51	0.5854
4063.47	0.5779
4074.44	0.5707
4085.4	0.573
4096.36	0.5724
4107.32	0.5634
4118.28	0.561
4129.24	0.563
4140.2	0.5658
4151.16	0.5685
4162.12	0.5726
4173.08	0.5751
4184.04	0.5752
4195	0.574
4205.96	0.572
4216.92	0.571
4227.88	0.5692
4238.84	0.5659
4249.8	0.561
4260.76	0.561
4271.72	0.5592
4282.68	0.559
4293.64	0.559
4304.6	0.558
4315.56	0.5552
4326.52	0.5518
4337.48	0.546
4348.44	0.545
4359.4	0.5441
4370.37	0.5414
4381.33	0.539
4392.29	0.5392
4403.25	0.541
4414.21	0.5414
4425.17	0.539
4436.13	0.5356
4447.09	0.5251
4458.05	0.523
4469.01	0.5254
4479.97	0.5293
4490.93	0.533
4501.89	0.5317
4512.85	0.5266
4523.81	0.5239
4534.77	0.523
4545.73	0.5183
4556.69	0.5136
4567.65	0.5103
4578.61	0.513
4589.57	0.515
4600.53	0.5174
4611.49	0.5168
4622.45	0.5112
4633.41	0.5067
4644.37	0.5127
4655.33	0.515
4666.29	0.5111
4677.26	0.5093
4688.22	0.5028
4699.18	0.4952
4710.14	0.5019
4721.1	0.506
4732.06	0.5006
4743.02	0.4944
4753.98	0.5
4764.94	0.5
4775.9	0.4955
4786.86	0.492
4797.82	0.489
4808.78	0.489
4819.74	0.489
4830.7	0.4856
4841.66	0.483
4852.62	0.481
