Infrared Spectrum: 9,10-DIHYDRO-N,N-DIMETHYL-2-TRIFLUOROMETHYL-9-ANTHRACENEPROPYLAMINE, HYDROCHLORIDE
Formula: C20 H23 Cl F3 N
CAS: 23945-32-6
State: SOLID (OIL MULL)
Class: COBLENTZ III
Instrument: Not specified, most likely a prism spectrometer.
Instrument parameters: NaCl PRISM
Sampling: TRANSMISSION
Resolution: 2
Origin: SMITH KLINE & FRENCH LABS.
MICROMETERS	TRANSMITTANCE
2.001	0.78
2.03479	0.78
2.06858	0.781
2.10237	0.785
2.13616	0.789
2.16995	0.792
2.20374	0.795
2.23752	0.798
2.27131	0.798
2.3051	0.791
2.33889	0.781
2.37268	0.773
2.40647	0.773
2.44026	0.775
2.47405	0.779
2.50784	0.793
2.54163	0.8
2.57542	0.802
2.60921	0.81
2.643	0.813
2.67678	0.815
2.71057	0.828
2.74436	0.831
2.77815	0.832
2.81194	0.83
2.84573	0.822
2.87952	0.813
2.91331	0.804
2.9471	0.796
2.98089	0.787
3.01468	0.781
3.04847	0.784
3.08225	0.787
3.11604	0.791
3.14983	0.795
3.18362	0.798
3.21741	0.796
3.2512	0.791
3.28499	0.78
3.31878	0.731
3.35257	0.653
3.38636	0.508
3.42015	0.208
3.45394	0.097
3.48773	0.051
3.52151	0.05
3.5553	0.049
3.58909	0.351
3.62288	0.549
3.65667	0.63
3.69046	0.636
3.72425	0.626
3.75804	0.555
3.79183	0.44
3.82562	0.369
3.85941	0.333
3.8932	0.279
3.92699	0.24
3.96077	0.321
3.99456	0.327
4.02835	0.326
4.06214	0.298
4.09593	0.271
4.12972	0.339
4.16351	0.444
4.1973	0.533
4.23109	0.595
4.26488	0.63
4.29867	0.659
4.33246	0.686
4.36625	0.731
4.40003	0.774
4.43382	0.815
4.46761	0.826
4.5014	0.843
4.53519	0.854
4.56898	0.863
4.60277	0.873
4.63656	0.878
4.67035	0.886
4.70414	0.887
4.73793	0.887
4.77172	0.889
4.80551	0.895
4.83929	0.897
4.87308	0.901
4.90687	0.902
4.94066	0.902
4.97445	0.902
5.00824	0.906
5.04203	0.91
5.07582	0.91
5.10961	0.91
5.1434	0.914
5.17719	0.914
5.21098	0.91
5.24476	0.903
5.27855	0.9
5.31234	0.898
5.34613	0.897
5.37992	0.897
5.41371	0.898
5.4475	0.901
5.48129	0.902
5.51508	0.904
5.54887	0.909
5.58266	0.909
5.61645	0.909
5.65024	0.913
5.68402	0.919
5.71781	0.914
5.7516	0.913
5.78539	0.907
5.81918	0.9
5.85297	0.9
5.88676	0.897
5.92055	0.892
5.95434	0.874
5.98813	0.862
6.02192	0.862
6.05571	0.871
6.0895	0.877
6.12328	0.867
6.15707	0.85
6.19086	0.746
6.22465	0.822
6.25844	0.844
6.29223	0.842
6.32602	0.797
6.35981	0.786
6.3936	0.827
6.42739	0.849
6.46118	0.851
6.49497	0.856
6.52876	0.853
6.56254	0.849
6.59633	0.845
6.63012	0.832
6.66391	0.812
6.6977	0.766
6.73149	0.497
6.76528	0.274
6.79907	0.383
6.83286	0.225
6.86665	0.161
6.90044	0.19
6.93423	0.255
6.96801	0.331
7.0018	0.416
7.03559	0.491
7.06938	0.591
7.10317	0.722
7.13696	0.751
7.17075	0.709
7.20454	0.657
7.23833	0.681
7.27212	0.409
7.30591	0.367
7.3397	0.53
7.37349	0.556
7.40727	0.59
7.44106	0.512
7.47485	0.514
7.50864	0.413
7.54243	0.186
7.57622	0.101
7.61001	0.122
7.6438	0.35
7.67759	0.539
7.71138	0.548
7.74517	0.407
7.77896	0.456
7.81275	0.528
7.84653	0.589
7.88032	0.691
7.91411	0.742
7.9479	0.766
7.98169	0.765
8.01548	0.672
8.04927	0.76
8.08306	0.784
8.11685	0.8
8.15064	0.8
8.18443	0.775
8.21822	0.785
8.25201	0.793
8.28579	0.718
8.31958	0.696
8.35337	0.722
8.38716	0.71
8.42095	0.648
8.45474	0.573
8.48853	0.549
8.52232	0.395
8.55611	0.365
8.5899	0.226
8.62369	0.143
8.65748	0.148
8.69126	0.253
8.72505	0.374
8.75884	0.404
8.79263	0.268
8.82642	0.357
8.86021	0.353
8.894	0.222
8.92779	0.128
8.96158	0.078
8.99537	0.042
9.02916	0.15
9.06295	0.322
9.09674	0.475
9.13052	0.514
9.16431	0.54
9.1981	0.628
9.23189	0.672
9.26568	0.657
9.29947	0.463
9.33326	0.242
9.36705	0.324
9.40084	0.563
9.43463	0.645
9.46842	0.69
9.50221	0.69
9.536	0.668
9.56978	0.616
9.60357	0.734
9.63736	0.797
9.67115	0.802
9.70494	0.733
9.73873	0.806
9.77252	0.827
9.80631	0.838
9.8401	0.843
9.87389	0.84
9.90768	0.81
9.94147	0.69
9.97526	0.716
10.009	0.701
10.0428	0.793
10.0766	0.83
10.1104	0.832
10.1442	0.826
10.178	0.786
10.2118	0.712
10.2456	0.566
10.2794	0.609
10.3131	0.628
10.3469	0.586
10.3807	0.642
10.4145	0.727
10.4483	0.751
10.4821	0.738
10.5159	0.759
10.5497	0.772
10.5835	0.798
10.6173	0.739
10.651	0.743
10.6848	0.748
10.7186	0.721
10.7524	0.704
10.7862	0.616
10.82	0.592
10.8538	0.655
10.8876	0.734
10.9214	0.806
10.9551	0.834
10.9889	0.857
11.0227	0.862
11.0565	0.871
11.0903	0.866
11.1241	0.812
11.1579	0.798
11.1917	0.763
11.2255	0.746
11.2592	0.815
11.293	0.865
11.3268	0.881
11.3606	0.893
11.3944	0.895
11.4282	0.895
11.462	0.884
11.4958	0.834
11.5296	0.792
11.5633	0.824
11.5971	0.83
11.6309	0.851
11.6647	0.842
11.6985	0.772
11.7323	0.779
11.7661	0.853
11.7999	0.877
11.8337	0.89
11.8675	0.896
11.9012	0.898
11.935	0.898
11.9688	0.895
12.0026	0.874
12.0364	0.819
12.0702	0.691
12.104	0.7
12.1378	0.755
12.1716	0.795
12.2053	0.754
12.2391	0.632
12.2729	0.449
12.3067	0.587
12.3405	0.748
12.3743	0.838
12.4081	0.872
12.4419	0.889
12.4757	0.892
12.5094	0.892
12.5432	0.886
12.577	0.871
12.6108	0.867
12.6446	0.89
12.6784	0.897
12.7122	0.897
12.746	0.897
12.7798	0.896
12.8135	0.891
12.8473	0.881
12.8811	0.85
12.9149	0.825
12.9487	0.808
12.9825	0.768
13.0163	0.622
13.0501	0.513
13.0839	0.498
13.1177	0.518
13.1514	0.502
13.1852	0.46
13.219	0.512
13.2528	0.521
13.2866	0.381
13.3204	0.354
13.3542	0.501
13.388	0.637
13.4218	0.722
13.4555	0.766
13.4893	0.796
13.5231	0.8
13.5569	0.779
13.5907	0.691
13.6245	0.666
13.6583	0.726
13.6921	0.744
13.7259	0.702
13.7596	0.521
13.7934	0.404
13.8272	0.532
13.861	0.674
13.8948	0.715
13.9286	0.716
13.9624	0.61
13.9962	0.495
14.03	0.591
14.0638	0.713
14.0975	0.771
14.1313	0.79
14.1651	0.814
14.1989	0.821
14.2327	0.834
14.2665	0.839
14.3003	0.843
14.3341	0.844
14.3679	0.843
14.4016	0.838
14.4354	0.836
14.4692	0.836
14.503	0.831
14.5368	0.827
14.5706	0.827
14.6044	0.826
14.6382	0.825
14.672	0.822
14.7057	0.814
14.7395	0.807
14.7733	0.796
14.8071	0.772
14.8409	0.726
14.8747	0.657
14.9085	0.653
14.9423	0.685
14.9761	0.727
15.0098	0.739
15.0436	0.742
