Infrared Spectrum: 1,6-Heptadiyne
Formula: C 7 H 8
CAS: 2396-63-6
State: gas
Instrument: HP-GC/MS/IRD
Origin: NIST Mass Spectrometry Data Center
1/CM	ABSORBANCE
550	0.0025043
562	0.0029546
574	0.0019671
586	0.0019513
598	0.0033259
610	0.0094247
622	0.0284321
634	0.0763772
646	0.0501966
658	0.0155867
670	0.0042186
682	0.0014852
694	0.000711
706	0.0004266
718	0.000316
730	0.0003002
742	0.0002844
754	0.0001738
766	0.0001817
778	0.0001896
790	0.0001106
802	0.0001106
814	0.0001975
826	0.0001738
838	0.0001027
850	2.37e-05
862	6.32e-05
874	3.95e-05
886	6.32e-05
898	0.0001264
910	7.9e-05
922	7.11e-05
934	7.9e-05
946	6.32e-05
958	0.0001817
970	0.0001343
982	0.0001185
994	0.0002212
1006	0.0003239
1018	0.0005135
1030	0.000632
1042	0.0005372
1054	0.0004582
1066	0.0003239
1078	0.0001975
1090	0.0001501
1102	0.0001659
1114	0.0001975
1126	0.0001343
1138	0.0001896
1150	0.0002133
1162	0.000395
1174	0.0005372
1186	0.0006636
1198	0.0007663
1210	0.0010902
1222	0.0019355
1234	0.0061225
1246	0.0150179
1258	0.0159501
1270	0.0084688
1282	0.0035313
1294	0.0026623
1306	0.0025122
1318	0.0027887
1330	0.0028124
1342	0.002528
1354	0.0016906
1366	0.0008058
1378	0.0003871
1390	0.0003318
1402	0.0004661
1414	0.0010033
1426	0.0027176
1438	0.0045978
1450	0.004266
1462	0.0023384
1474	0.0011613
1486	0.0005925
1498	0.0003634
1510	0.0002923
1522	0.0001738
1534	0.0001501
1546	8.69e-05
1558	7.11e-05
1570	6.32e-05
1582	8.69e-05
1594	9.48e-05
1606	0.0001106
1618	0.0001106
1630	7.9e-05
1642	6.32e-05
1654	2.37e-05
1666	5.53e-05
1678	2.37e-05
1690	2.37e-05
1702	1.58e-05
1714	7.9e-06
1726	3.95e-05
1738	5.53e-05
1750	3.16e-05
1762	8.69e-05
1774	9.48e-05
1786	9.48e-05
1798	7.9e-05
1810	7.11e-05
1822	6.32e-05
1834	3.95e-05
1846	3.95e-05
1858	6.32e-05
1870	8.69e-05
1882	0.0001264
1894	0.0001106
1906	0.0001027
1918	0.0001027
1930	7.9e-05
1942	8.69e-05
1954	7.11e-05
1966	7.9e-05
1978	7.9e-05
1990	0.0001185
2002	8.69e-05
2014	0.0001264
2026	0.000158
2038	0.0001659
2050	0.0001659
2062	0.0002133
2074	0.000316
2086	0.0006004
2098	0.001343
2110	0.0026307
2122	0.0031995
2134	0.0020066
2146	0.0005451
2158	0.0002449
2170	0.0001501
2182	0.000158
2194	0.0001659
2206	0.0001422
2218	0.0001659
2230	0.0001185
2242	0.0001264
2254	0.0001106
2266	0.0001106
2278	0.0001106
2290	0.000158
2302	0.0001817
2314	0.0001343
2326	0.000158
2338	9.48e-05
2350	0.0001106
2362	5.53e-05
2374	7.9e-05
2386	7.9e-05
2398	6.32e-05
2410	6.32e-05
2422	7.9e-05
2434	8.69e-05
2446	0.0001106
2458	0.0001106
2470	9.48e-05
2482	0.0001027
2494	0.0001106
2506	5.53e-05
2518	3.95e-05
2530	7.11e-05
2542	4.74e-05
2554	7.11e-05
2566	5.53e-05
2578	6.32e-05
2590	7.9e-05
2602	8.69e-05
2614	0.0001343
2626	0.0001738
2638	0.0002133
2650	0.0003081
2662	0.0003081
2674	0.0003239
2686	0.0004424
2698	0.0004345
2710	0.0002686
2722	0.0002528
2734	0.000237
2746	0.0002528
2758	0.0002291
2770	0.0002212
2782	0.0003002
2794	0.0003239
2806	0.000395
2818	0.0006083
2830	0.0010033
2842	0.0018644
2854	0.002765
2866	0.0032864
2878	0.0031837
2890	0.0031442
2902	0.0040369
2914	0.0062884
2926	0.0092825
2938	0.0122055
2950	0.0144333
2962	0.0136749
2974	0.0085636
2986	0.0037288
2998	0.001422
3010	0.0006399
3022	0.000395
3034	0.0003239
3046	0.0002212
3058	0.0001896
3070	0.0001343
3082	0.0001343
3094	0.0001185
3106	0.0001106
3118	0.0001185
3130	8.69e-05
3142	0.0001027
3154	0.0001185
3166	0.0001185
3178	0.0001264
3190	0.0001659
3202	0.0002133
3214	0.0001738
3226	0.000237
3238	0.0004108
3250	0.000711
3262	0.0013114
3274	0.0025043
3286	0.0046531
3298	0.01027
3310	0.0154129
3322	0.0281556
3334	0.0260858
3346	0.0086426
3358	0.0032864
3370	0.0016511
3382	0.0007979
3394	0.0004661
3406	0.0002765
3418	0.0001817
3430	0.0001343
3442	0.0001185
3454	7.11e-05
3466	4.74e-05
3478	5.53e-05
3490	0.0001185
3502	3.16e-05
3514	9.48e-05
3526	6.32e-05
3538	5.53e-05
3550	7.9e-06
3562	4.74e-05
3574	0.0001027
3586	7.11e-05
3598	7.11e-05
3610	3.16e-05
3622	4.74e-05
3634	7.11e-05
3646	7.9e-05
3658	8.69e-05
3670	3.16e-05
3682	5.53e-05
3694	7.11e-05
3706	9.48e-05
3718	8.69e-05
3730	0.0001185
3742	2.37e-05
3754	6.32e-05
3766	0.0001343
3778	3.95e-05
3790	0.0001422
3802	0.0001106
3814	8.69e-05
3826	0.0001027
3838	8.69e-05
