Infrared Spectrum: p-n-BUTYRALDEHYDE
Formula: C12 H24 O3
CAS: 2396-43-2
State: LIQUID
Boiling point: 115-117 C AT 17 mmHg
Class: COBLENTZ
Instrument: Not specified, most likely a prism, grating, or hybrid spectrometer.
Sampling: TRANSMISSION
Path length: 0.003 CM
Resolution: 4
Origin: WYANDOTTE CHEMICALS CORP., WYANDOTTE, MICHIGAN, USA
MICROMETERS	TRANSMITTANCE
2.02	0.991
2.06082	0.991
2.10164	0.991
2.14245	0.988
2.18327	0.967
2.22409	0.906
2.26491	0.915
2.30572	0.928
2.34654	0.925
2.38736	0.908
2.42818	0.921
2.46899	0.918
2.50981	0.937
2.55063	0.938
2.59145	0.937
2.63226	0.942
2.67308	0.947
2.7139	0.95
2.75472	0.949
2.79553	0.93
2.83635	0.913
2.87717	0.889
2.91799	0.879
2.9588	0.874
2.99962	0.869
3.04044	0.862
3.08126	0.845
3.12207	0.82
3.16289	0.789
3.20371	0.775
3.24453	0.748
3.28534	0.685
3.32616	0.516
3.36698	0.089
3.4078	0.044
3.44861	0.078
3.48943	0.073
3.53025	0.103
3.57107	0.29
3.61188	0.504
3.6527	0.517
3.69352	0.604
3.73434	0.624
3.77515	0.682
3.81597	0.758
3.85679	0.713
3.89761	0.816
3.93842	0.845
3.97924	0.865
4.02006	0.869
4.06088	0.867
4.10169	0.87
4.14251	0.87
4.18333	0.869
4.22415	0.852
4.26496	0.876
4.30578	0.893
4.3466	0.896
4.38742	0.887
4.42824	0.879
4.46905	0.877
4.50987	0.876
4.55069	0.877
4.59151	0.877
4.63232	0.879
4.67314	0.876
4.71396	0.881
4.75478	0.869
4.79559	0.857
4.83641	0.865
4.87723	0.862
4.91805	0.853
4.95886	0.848
4.99968	0.857
5.0405	0.852
5.08132	0.848
5.12213	0.847
5.16295	0.857
5.20377	0.843
5.24459	0.831
5.2854	0.853
5.32622	0.83
5.36704	0.838
5.40786	0.848
5.44867	0.859
5.48949	0.859
5.53031	0.848
5.57113	0.848
5.61194	0.85
5.65276	0.828
5.69358	0.806
5.7344	0.711
5.77521	0.738
5.81603	0.677
5.85685	0.731
5.89767	0.786
5.93848	0.808
5.9793	0.816
6.02012	0.818
6.06094	0.818
6.10175	0.814
6.14257	0.809
6.18339	0.801
6.22421	0.799
6.26502	0.801
6.30584	0.803
6.34666	0.803
6.38748	0.799
6.42829	0.796
6.46911	0.787
6.50993	0.779
6.55075	0.765
6.59156	0.75
6.63238	0.724
6.6732	0.687
6.71402	0.592
6.75484	0.368
6.79565	0.095
6.83647	0.127
6.87729	0.202
6.91811	0.256
6.95892	0.37
6.99974	0.482
7.04056	0.495
7.08138	0.395
7.12219	0.205
7.16301	0.21
7.20383	0.21
7.24465	0.1
7.28546	0.056
7.32628	0.05
7.3671	0.073
7.40792	0.062
7.44873	0.127
7.48955	0.393
7.53037	0.336
7.57119	0.421
7.612	0.555
7.65282	0.55
7.69364	0.507
7.73446	0.558
7.77527	0.548
7.81609	0.359
7.85691	0.349
7.89773	0.511
7.93854	0.455
7.97936	0.29
8.02018	0.208
8.061	0.227
8.10181	0.341
8.14263	0.511
8.18345	0.536
8.22427	0.526
8.26508	0.495
8.3059	0.456
8.34672	0.395
8.38754	0.293
8.42835	0.186
8.46917	0.074
8.50999	0.037
8.55081	0.032
8.59162	0.035
8.63244	0.037
8.67326	0.037
8.71408	0.039
8.75489	0.073
8.79571	0.061
8.83653	0.04
8.87735	0.049
8.91816	0.04
8.95898	0.033
8.9998	0.032
9.04062	0.033
9.08144	0.033
9.12225	0.04
9.16307	0.081
9.20389	0.178
9.24471	0.229
9.28552	0.207
9.32634	0.144
9.36716	0.11
9.40798	0.137
9.44879	0.202
9.48961	0.222
9.53043	0.247
9.57125	0.305
9.61206	0.322
9.65288	0.324
9.6937	0.366
9.73452	0.308
9.77533	0.154
9.81615	0.062
9.85697	0.05
9.89779	0.042
9.9386	0.045
9.97942	0.061
10.0202	0.101
10.0611	0.125
10.1019	0.144
10.1427	0.193
10.1835	0.237
10.2243	0.225
10.2651	0.186
10.306	0.135
10.3468	0.101
10.3876	0.101
10.4284	0.146
10.4692	0.219
10.51	0.314
10.5509	0.46
10.5917	0.56
10.6325	0.612
10.6733	0.65
10.7141	0.663
10.755	0.665
10.7958	0.67
10.8366	0.668
10.8774	0.679
10.9182	0.689
10.959	0.667
10.9999	0.573
11.0407	0.48
11.0815	0.485
11.1223	0.544
11.1631	0.609
11.2039	0.645
11.2448	0.651
11.2856	0.636
11.3264	0.612
11.3672	0.601
11.408	0.587
11.4489	0.575
11.4897	0.584
11.5305	0.602
11.5713	0.616
11.6121	0.607
11.6529	0.589
11.6938	0.524
11.7346	0.443
11.7754	0.383
11.8162	0.358
11.857	0.39
11.8978	0.449
11.9387	0.497
11.9795	0.509
12.0203	0.485
12.0611	0.434
12.1019	0.429
12.1428	0.504
12.1836	0.58
12.2244	0.628
12.2652	0.66
12.306	0.687
12.3468	0.711
12.3877	0.724
12.4285	0.733
12.4693	0.735
12.5101	0.735
12.5509	0.735
12.5917	0.73
12.6326	0.716
12.6734	0.704
12.7142	0.697
12.755	0.68
12.7958	0.674
12.8366	0.658
12.8775	0.655
12.9183	0.651
12.9591	0.64
12.9999	0.614
13.0407	0.589
13.0816	0.589
13.1224	0.589
13.1632	0.585
13.204	0.584
13.2448	0.565
13.2856	0.522
13.3265	0.478
13.3673	0.47
13.4081	0.497
13.4489	0.541
13.4897	0.584
13.5305	0.611
13.5714	0.636
13.6122	0.66
13.653	0.687
13.6938	0.718
13.7346	0.745
13.7755	0.762
13.8163	0.772
13.8571	0.779
13.8979	0.784
13.9387	0.787
13.9795	0.791
14.0204	0.789
14.0612	0.787
14.102	0.789
14.1428	0.792
14.1836	0.792
14.2244	0.792
14.2653	0.789
14.3061	0.789
14.3469	0.789
14.3877	0.791
14.4285	0.791
14.4694	0.786
14.5102	0.78
14.551	0.779
14.5918	0.779
14.6326	0.77
14.6734	0.772
14.7143	0.769
14.7551	0.765
14.7959	0.76
14.8367	0.755
14.8775	0.758
14.9183	0.755
14.9592	0.75
15	0.724
15.0408	0.714
15.0816	0.73
15.1224	0.74
15.1632	0.74
15.2041	0.733
15.2449	0.723
15.2857	0.719
15.3265	0.718
15.3673	0.714
15.4082	0.709
15.449	0.702
15.4898	0.702
15.5306	0.696
15.5714	0.692
15.6122	0.687
15.6531	0.685
15.6939	0.677
15.7347	0.67
15.7755	0.67
15.8163	0.67
15.8571	0.667
15.898	0.658
15.9388	0.655
15.9796	0.653
