Infrared Spectrum: 1,8-Nonadiyne
Formula: C 9 H 12
CAS: 2396-65-8
State: gas
Instrument: HP-GC/MS/IRD
Origin: NIST Mass Spectrometry Data Center
1/CM	ABSORBANCE
550	0.0010792
562	0.0008664
574	0.0008968
586	0.001102
598	0.0018582
610	0.0048336
622	0.0147478
634	0.038
646	0.0176244
658	0.00475
670	0.0016264
682	0.0007258
694	0.0004484
706	0.00038
718	0.0005092
730	0.0005358
742	0.0004256
754	0.0003268
766	0.0002546
778	0.00019
790	0.00019
802	0.0001672
814	0.0002052
826	0.0001216
838	0.0001406
850	0.0001482
862	0.0001368
874	0.000133
886	9.12e-05
898	0.0001406
910	6.84e-05
922	0.0001292
934	0.0001596
946	0.0001672
958	0.0002014
970	0.0001064
982	0.0001064
994	3.8e-05
1006	6.46e-05
1018	9.5e-05
1030	0.0001178
1042	0.0001558
1054	0.0002166
1066	0.000228
1078	0.0002204
1090	0.0001824
1102	8.74e-05
1114	0.0001026
1126	5.7e-05
1138	8.36e-05
1150	0.0001102
1162	0.0001634
1174	0.0002166
1186	0.0002698
1198	0.0004104
1210	0.0005928
1222	0.0011666
1234	0.0033592
1246	0.008303
1258	0.0070034
1270	0.0025156
1282	0.00133
1294	0.0009918
1306	0.0009918
1318	0.001216
1330	0.0015466
1342	0.0014668
1354	0.0011742
1366	0.0007638
1378	0.0004978
1390	0.0003458
1402	0.0003382
1414	0.0005434
1426	0.0012274
1438	0.0025384
1450	0.00247
1462	0.001881
1474	0.0010944
1486	0.0004978
1498	0.0002698
1510	0.00019
1522	0.000114
1534	8.74e-05
1546	7.6e-05
1558	1.14e-05
1570	5.32e-05
1582	7.22e-05
1594	6.84e-05
1606	4.94e-05
1618	7.98e-05
1630	4.18e-05
1642	4.94e-05
1654	7.6e-06
1666	7.6e-06
1678	4.94e-05
1690	4.56e-05
1702	1.9e-05
1714	4.56e-05
1726	6.46e-05
1738	7.22e-05
1750	7.22e-05
1762	7.6e-05
1774	8.74e-05
1786	8.74e-05
1798	5.32e-05
1810	6.46e-05
1822	7.98e-05
1834	6.08e-05
1846	4.94e-05
1858	6.08e-05
1870	9.5e-05
1882	9.12e-05
1894	6.46e-05
1906	3.04e-05
1918	4.94e-05
1930	7.6e-05
1942	4.56e-05
1954	6.46e-05
1966	3.8e-05
1978	6.46e-05
1990	6.84e-05
2002	8.36e-05
2014	9.5e-05
2026	9.5e-05
2038	0.0001406
2050	0.0001026
2062	0.0001444
2074	0.0002052
2086	0.0003572
2098	0.0007524
2110	0.0014326
2122	0.0016834
2134	0.0007638
2146	0.0002584
2158	0.000152
2170	0.0001026
2182	0.0001102
2194	9.88e-05
2206	0.0001102
2218	8.36e-05
2230	7.22e-05
2242	0.0001026
2254	7.98e-05
2266	0.0001102
2278	9.88e-05
2290	8.36e-05
2302	9.88e-05
2314	0.0001178
2326	0.0001064
2338	8.36e-05
2350	0.0001064
2362	0.0001368
2374	0.0001368
2386	0.0001026
2398	9.12e-05
2410	8.74e-05
2422	9.5e-05
2434	7.22e-05
2446	6.46e-05
2458	7.22e-05
2470	4.56e-05
2482	4.56e-05
2494	6.08e-05
2506	9.12e-05
2518	9.12e-05
2530	0.0001026
2542	7.98e-05
2554	6.84e-05
2566	4.94e-05
2578	6.84e-05
2590	9.5e-05
2602	9.12e-05
2614	0.0001102
2626	0.0001292
2638	0.0001938
2650	0.0001862
2662	0.0002242
2674	0.0002622
2686	0.0003078
2698	0.0003458
2710	0.000209
2722	0.00019
2734	0.00019
2746	0.000228
2758	0.0002052
2770	0.0002546
2782	0.0002432
2794	0.0003078
2806	0.000399
2818	0.0005662
2830	0.000912
2842	0.0017404
2854	0.003363
2866	0.0050236
2878	0.0048716
2890	0.0036442
2902	0.004066
2914	0.0064866
2926	0.0109934
2938	0.0170506
2950	0.0178942
2962	0.0096406
2974	0.003477
2986	0.0013984
2998	0.0007676
3010	0.0004902
3022	0.000399
3034	0.0003002
3046	0.0002318
3058	0.0002242
3070	0.0002128
3082	0.000152
3094	0.0001292
3106	8.74e-05
3118	0.0001254
3130	0.0001254
3142	7.98e-05
3154	6.84e-05
3166	4.18e-05
3178	7.6e-05
3190	8.36e-05
3202	0.0001178
3214	0.0001558
3226	0.000133
3238	0.0002508
3250	0.0003534
3262	0.0006384
3274	0.0011666
3286	0.0021622
3298	0.0040812
3310	0.0071022
3322	0.0121372
3334	0.0120878
3346	0.0035112
3358	0.0016454
3370	0.0008208
3382	0.0003914
3394	0.000228
3406	0.0001862
3418	0.000171
3430	0.0001786
3442	0.000152
3454	0.0001406
3466	0.0001178
3478	9.12e-05
3490	0.0001026
3502	8.36e-05
3514	7.22e-05
3526	6.08e-05
3538	8.36e-05
3550	8.36e-05
3562	6.84e-05
3574	7.22e-05
3586	0.0001064
3598	8.74e-05
3610	8.36e-05
3622	9.12e-05
3634	7.6e-05
3646	8.74e-05
3658	8.36e-05
3670	0.0001102
3682	0.0001064
3694	9.5e-05
3706	9.12e-05
3718	0.0001178
3730	4.94e-05
3742	0.0001558
3754	0.000114
3766	0.0001254
3778	0.0001216
3790	9.88e-05
3802	4.94e-05
3814	0.0001064
3826	6.84e-05
3838	7.6e-05
