Infrared Spectrum: ANISOLE, p-(PHENYLAZO)-
Formula: C13 H12 N2 O
CAS: 2396-60-3
State: SOLUTION (CCl4 FOR 4000-1320, CS2 FOR 1320-450 CM^-^1) VS SOLVENT
Class: COBLENTZ III
Instrument: CARY 90 (GRATING)
Instrument parameters: ORDER CHANGES: 3000, 2000, 1200 CM^-^1
Sampling: TRANSMISSION
Path length: 0.009 CM, AND 0.009 CM
Resolution: 2
Origin: WESTERN REGIONAL RES. USDA
1/CM	TRANSMITTANCE
4006	0.9296
3997	0.9296
3988	0.9296
3979	0.9296
3970	0.9295
3961	0.9294
3952	0.9294
3943	0.9289
3934	0.9284
3925	0.9278
3916	0.9274
3907	0.9268
3898	0.9262
3889	0.9255
3880	0.9249
3871	0.9243
3862	0.9237
3853	0.9231
3844	0.9231
3835	0.9231
3826	0.9231
3817	0.9231
3808	0.9231
3799	0.9232
3790	0.9233
3781	0.9233
3772	0.9234
3763	0.9235
3754	0.9235
3745	0.9235
3736	0.9234
3727	0.9233
3718	0.9233
3709	0.9232
3700	0.9231
3691	0.9228
3682	0.9227
3673	0.9224
3664	0.9221
3655	0.922
3646	0.9221
3637	0.9224
3628	0.9228
3619	0.9232
3610	0.9236
3601	0.9236
3592	0.9235
3583	0.9233
3574	0.9232
3565	0.9231
3556	0.9233
3547	0.9235
3538	0.9238
3529	0.924
3520	0.9248
3511	0.9255
3502	0.9263
3493	0.927
3484	0.9278
3475	0.9286
3466	0.9294
3457	0.9301
3448	0.9306
3439	0.9309
3430	0.9313
3421	0.9317
3412	0.9321
3403	0.9324
3394	0.9328
3385	0.9328
3376	0.9328
3367	0.9327
3358	0.9325
3349	0.9324
3340	0.9321
3331	0.9317
3322	0.9314
3313	0.931
3304	0.9306
3295	0.93
3286	0.9296
3277	0.9291
3268	0.9281
3259	0.9271
3250	0.9254
3241	0.9235
3232	0.9218
3223	0.9197
3214	0.9146
3205	0.9087
3196	0.9044
3187	0.9001
3178	0.8983
3169	0.9023
3160	0.9049
3151	0.9049
3142	0.9037
3133	0.9001
3124	0.8877
3115	0.8608
3106	0.7901
3097	0.7518
3088	0.6955
3079	0.6318
3070	0.6739
3061	0.7141
3052	0.7358
3043	0.799
3034	0.7907
3025	0.7419
3016	0.6688
3007	0.7275
2998	0.8198
2989	0.847
2980	0.7404
2971	0.6312
2962	0.649
2953	0.6787
2944	0.7011
2935	0.7749
2926	0.8096
2917	0.7121
2908	0.7378
2899	0.8199
2890	0.8704
2881	0.8851
2872	0.8877
2863	0.8748
2854	0.75
2845	0.5366
2836	0.7344
2827	0.8543
2818	0.8857
2809	0.8911
2800	0.8927
2791	0.8921
2782	0.8904
2773	0.8873
2764	0.8827
2755	0.8774
2746	0.8728
2737	0.8806
2728	0.8838
2719	0.8862
2710	0.8878
2701	0.8889
2692	0.8896
2683	0.8896
2674	0.8891
2665	0.8865
2656	0.8834
2647	0.8786
2638	0.8728
2629	0.8716
2620	0.8734
2611	0.8745
2602	0.8721
2593	0.8651
2584	0.8531
2575	0.8483
2566	0.8509
2557	0.8582
2548	0.8662
2539	0.8773
2530	0.8761
2521	0.8703
2512	0.8678
2503	0.8675
2494	0.8694
2485	0.8728
2476	0.8761
2467	0.8775
2458	0.8791
2449	0.8798
2440	0.8803
2431	0.8807
2422	0.8809
2413	0.8808
2404	0.8808
2395	0.8807
2386	0.8806
2377	0.88
2368	0.8792
2359	0.8783
2350	0.8775
2341	0.8766
2332	0.8755
2323	0.8743
2314	0.8732
2305	0.8724
2296	0.8721
2287	0.8721
2278	0.8728
2269	0.8741
2260	0.8752
2251	0.8761
2242	0.877
2233	0.8778
2224	0.8791
2215	0.8802
2206	0.8814
2197	0.8823
2188	0.8833
2179	0.8837
2170	0.8839
2161	0.8837
2152	0.8836
2143	0.883
2134	0.8821
2125	0.8805
2116	0.8787
2107	0.8756
2098	0.8723
2089	0.8658
2080	0.8562
2071	0.8341
2062	0.8316
2053	0.8471
2044	0.8563
2035	0.853
2026	0.8336
2017	0.8254
2008	0.8301
1999	0.8561
1990	0.862
1981	0.8558
1972	0.8406
1963	0.8283
1954	0.8082
1945	0.8314
1936	0.8505
1927	0.8468
1918	0.8418
1909	0.8136
1900	0.7964
1891	0.8128
1882	0.824
1873	0.8354
1864	0.8443
1855	0.8516
1846	0.8541
1837	0.8535
1828	0.8507
1819	0.8444
1810	0.8316
1801	0.8242
1792	0.8493
1783	0.8468
1774	0.8285
1765	0.8214
1756	0.831
1747	0.8408
1738	0.8471
1729	0.8518
1720	0.8545
1711	0.8558
1702	0.8511
1693	0.8368
1684	0.8193
1675	0.828
1666	0.8289
1657	0.822
1648	0.7897
1639	0.78
1630	0.7748
1621	0.6812
1612	0.4737
1603	0.0203
1594	0.238
1585	0.1676
1576	0.5654
1567	0.6911
1558	0.7319
1549	0.75
1540	0.7642
1531	0.7599
1522	0.7365
1513	0.5729
1504	0.0161
1495	0.2793
1486	0.44
1477	0.6257
1468	0.4907
1459	0.3425
1450	0.6233
1441	0.3296
1432	0.7126
1423	0.7457
1414	0.3875
1405	0.7581
1396	0.8128
1387	0.813
1378	0.8248
1369	0.825
1360	0.8126
1351	0.808
1342	0.7965
1333	0.7494
1324	0.5812
1315	0.4683
1306	0.59
1297	0.2902
1288	0.5498
1279	0.6124
1270	0.3787
1261	0.1368
1252	0.0035
1243	0.1258
1234	0.3498
1225	0.5042
1216	0.6493
1207	0.7343
1198	0.7671
1189	0.7464
1180	0.3543
1171	0.5685
1162	0.7345
1153	0.3138
1144	0.2151
1135	0.0971
1126	0.6957
1117	0.7533
1108	0.6965
1099	0.4208
1090	0.7593
1081	0.7941
1072	0.753
1063	0.6765
1054	0.7691
1045	0.5598
1036	0.1058
1027	0.37
1018	0.4672
1009	0.7394
1000	0.7567
991	0.7892
982	0.7937
973	0.8014
964	0.7928
955	0.7901
946	0.7815
937	0.7101
928	0.7592
919	0.6797
910	0.7003
901	0.7756
892	0.7893
883	0.7984
874	0.7968
865	0.7851
856	0.7541
847	0.6433
838	0.1451
829	0.3782
820	0.6562
811	0.7361
802	0.6017
793	0.7722
784	0.775
775	0.6788
766	0.17
757	0.4601
748	0.7265
739	0.7943
730	0.8012
721	0.6024
712	0.6947
703	0.7972
694	0.6843
685	0.0626
676	0.6598
667	0.8033
658	0.7805
649	0.8128
640	0.7507
631	0.8014
622	0.7743
613	0.8297
604	0.8334
595	0.8351
586	0.8336
577	0.8242
568	0.7968
559	0.726
550	0.2926
541	0.5098
532	0.4965
523	0.7376
514	0.6155
505	0.5575
496	0.685
487	0.7265
478	0.7717
469	0.7965
