Infrared Spectrum: 4-(Heptafluoroisopropyl)toluene
Formula: C 10 H 7 F 7
CAS: 2396-26-1
State: gas
Origin: EPA-IR VAPOR PHASE LIBRARY
1/CM	ABSORBANCE
549.9	0.01854
559.547	0.01197
569.193	0.00843
578.84	0.00655
588.486	0.00655
598.133	0.00652
607.779	0.0054588
617.426	0.00607
627.072	0.00759
636.719	0.0058982
646.365	0.0055497
656.012	0.004776
665.658	0.00500938
675.305	0.00546
684.951	0.00642
694.598	0.01691
704.245	0.03149
713.891	0.01517
723.538	0.03782
733.184	0.09001
742.831	0.03772
752.477	0.04497
762.124	0.01272
771.77	0.00616
781.417	0.00737
791.063	0.00832
800.71	0.02383
810.356	0.06535
820.003	0.02775
829.649	0.00808
839.296	0.00807
848.943	0.00617
858.589	0.0056151
868.236	0.005456
877.882	0.00494666
887.529	0.004717
897.175	0.0052352
906.822	0.0064
916.468	0.00935
926.115	0.01659
935.761	0.03795
945.408	0.10768
955.054	0.1465
964.701	0.06538
974.347	0.12189
983.994	0.16874
993.64	0.06844
1003.29	0.02626
1012.93	0.0173
1022.58	0.0146
1032.23	0.0119
1041.87	0.01027
1051.52	0.00953
1061.17	0.00936
1070.81	0.01189
1080.46	0.02006
1090.11	0.04592
1099.75	0.08749
1109.4	0.08069
1119.05	0.036
1128.69	0.02354
1138.34	0.0255
1147.99	0.02397
1157.63	0.04131
1167.28	0.08606
1176.92	0.07731
1186.57	0.1086
1196.22	0.21456
1205.86	0.30139
1215.51	0.51776
1225.16	0.53783
1234.8	0.52701
1244.45	0.23708
1254.1	0.15706
1263.74	0.20744
1273.39	0.28992
1283.04	0.25489
1292.68	0.2536
1302.33	0.3318
1311.98	0.16491
1321.62	0.06745
1331.27	0.04395
1340.92	0.02136
1350.56	0.01528
1360.21	0.01095
1369.86	0.00945
1379.5	0.00943
1389.15	0.00868
1398.79	0.00728
1408.44	0.00743
1418.09	0.00904
1427.73	0.00956
1437.38	0.00845
1447.03	0.0077
1456.67	0.00756
1466.32	0.00813
1475.97	0.00829
1485.61	0.00921
1495.26	0.01098
1504.91	0.01624
1514.55	0.02617
1524.2	0.02271
1533.85	0.01151
1543.49	0.00951
1553.14	0.00817
1562.79	0.00686
1572.43	0.00637
1582.08	0.00613
1591.73	0.00634
1601.37	0.00856
1611.02	0.01389
1620.67	0.01462
1630.31	0.0109
1639.96	0.00822
1649.6	0.00629
1659.25	0.004379
1668.9	0.003952
1678.54	0.00363
1688.19	0.00346
1697.84	0.00332
1707.48	0.00357
1717.13	0.00354
1726.78	0.00382
1736.42	0.00385
1746.07	0.00415
1755.72	0.004323
1765.36	0.003943
1775.01	0.004101
1784.66	0.0050878
1794.3	0.00656
1803.95	0.0050788
1813.6	0.00378
1823.24	0.00354
1832.89	0.00345
1842.54	0.0034
1852.18	0.00348
1861.83	0.00349
1871.47	0.00362
1881.12	0.00377
1890.77	0.00447
1900.41	0.00661
1910.06	0.00732
1919.71	0.0052991
1929.35	0.004011
1939	0.00352
1948.65	0.00338
1958.29	0.00337
1967.94	0.00362
1977.59	0.00379
1987.23	0.00368
1996.88	0.00349
2006.53	0.0033
2016.17	0.00323
2025.82	0.00313
2035.47	0.00309
2045.11	0.00299
2054.76	0.00302
2064.41	0.00281
2074.05	0.0027
2083.7	0.0027
2093.35	0.00272
2102.99	0.0028
2112.64	0.0028
2122.28	0.00291
2131.93	0.00301
2141.58	0.00325
2151.22	0.00343
2160.87	0.00354
2170.52	0.00366
2180.16	0.00361
2189.81	0.00359
2199.46	0.00361
2209.1	0.00371
2218.75	0.00367
2228.4	0.00356
2238.04	0.00351
2247.69	0.00359
2257.34	0.00356
2266.98	0.0033
2276.63	0.00326
2286.28	0.0032
2295.92	0.00309
2305.57	0.0031
2315.22	0.0031
2324.86	0.0034
2334.51	0.00386
2344.16	0.004217
2353.8	0.004521
2363.45	0.004554
2373.09	0.004524
2382.74	0.004454
2392.39	0.004122
2402.03	0.003998
2411.68	0.00389
2421.33	0.00386
2430.97	0.003962
2440.62	0.004077
2450.27	0.00404
2459.91	0.004057
2469.56	0.003977
2479.21	0.00391
2488.85	0.00387
2498.5	0.00375
2508.15	0.00374
2517.79	0.00365
2527.44	0.00341
2537.09	0.0032
2546.73	0.0029
2556.38	0.00271
2566.03	0.00258
2575.67	0.00245
2585.32	0.00251
2594.96	0.00257
2604.61	0.00259
2614.26	0.00236
2623.9	0.00227
2633.55	0.00227
2643.2	0.00222
2652.84	0.00203
2662.49	0.00199
2672.14	0.00197
2681.78	0.002
2691.43	0.002
2701.08	0.00195
2710.72	0.00205
2720.37	0.00215
2730.02	0.00236
2739.66	0.00266
2749.31	0.00277
2758.96	0.00232
2768.6	0.00213
2778.25	0.00212
2787.9	0.00215
2797.54	0.00222
2807.19	0.00235
2816.84	0.00257
2826.48	0.00279
2836.13	0.00296
2845.77	0.00367
2855.42	0.00497666
2865.07	0.00701
2874.71	0.00997
2884.36	0.01077
2894.01	0.00916
2903.65	0.00862
2913.3	0.00985
2922.95	0.01405
2932.59	0.02177
2942.24	0.02009
2951.89	0.01116
2961.53	0.00763
2971.18	0.00651
2980.83	0.00627
2990.47	0.00724
3000.12	0.00904
3009.77	0.01117
3019.41	0.01377
3029.06	0.01493
3038.71	0.01861
3048.35	0.02131
3058	0.01376
3067.64	0.00691
3077.29	0.0055407
3086.94	0.005267
3096.58	0.004411
3106.23	0.004487
3115.88	0.00374
3125.52	0.00212
3135.17	0.00154
3144.82	0.00132
3154.46	0.00079
3164.11	0.00051
3173.76	0.00045
3183.4	0.00033
3193.05	0.00043
3202.7	0.00019
3212.34	0.0002
3221.99	0.00036
3231.64	0.00028
3241.28	0.00056
3250.93	0.00032
3260.58	0.00037
3270.22	0.00036
3279.87	0.00031
3289.52	0
3299.16	0.00055
3308.81	0.00045
3318.45	0.00059
3328.1	0.00059
3337.75	0.00061
3347.39	0.00074
3357.04	0.0008
3366.69	0.0006
3376.33	0.00079
3385.98	0.00095
3395.63	0.00068
3405.27	0.00092
3414.92	0.00101
3424.57	0.001
3434.21	0.00098
3443.86	0.00096
3453.51	0.00106
3463.15	0.00106
3472.8	0.00138
3482.45	0.00137
3492.09	0.00153
3501.74	0.00142
3511.39	0.00154
3521.03	0.00151
3530.68	0.0017
3540.33	0.00175
3549.97	0.00166
3559.62	0.00155
3569.26	0.00184
3578.91	0.00194
3588.56	0.00168
3598.2	0.00184
3607.85	0.00195
3617.5	0.00188
3627.14	0.00187
3636.79	0.00202
3646.44	0.0023
3656.08	0.00219
3665.73	0.00217
3675.38	0.0022
3685.02	0.00248
3694.67	0.00232
3704.32	0.00232
3713.96	0.0023
3723.61	0.00212
3733.26	0.00219
3742.9	0.00238
3752.55	0.00227
3762.2	0.00243
3771.84	0.00239
3781.49	0.00232
3791.13	0.00238
3800.78	0.00222
3810.43	0.00233
3820.07	0.00231
3829.72	0.00233
3839.37	0.00245
3849.01	0.00257
3858.66	0.0026
3868.31	0.00257
3877.95	0.00253
3887.6	0.00271
3897.25	0.00279
3906.89	0.00264
3916.54	0.00264
3926.19	0.0026
3935.83	0.00263
3945.48	0.00263
3955.13	0.00255
3964.77	0.00273
3974.42	0.00274
3984.07	0.00266
3993.71	0.00269
