Infrared Spectrum: N-BENZYLMETHYLAMINO-ACETONE
Formula: C11 H15 N O
CAS: 23982-57-2
Class: COBLENTZ
Instrument: PERKIN-ELMER
Sampling: TRANSMISSION
Path length: CAPILLARY
Resolution: 4
Origin: ABBOTT LABORATORIES - WASHBURN
MICROMETERS	TRANSMITTANCE
2.013	0.907
2.04634	0.907
2.07967	0.907
2.11301	0.9089
2.14634	0.909
2.17968	0.9041
2.21301	0.904
2.24635	0.909
2.27968	0.9021
2.31302	0.892
2.34635	0.894
2.37969	0.897
2.41302	0.899
2.44636	0.896
2.47969	0.889
2.51303	0.892
2.54636	0.894
2.5797	0.8988
2.61303	0.904
2.64637	0.905
2.6797	0.905
2.71304	0.8992
2.74637	0.8924
2.77971	0.8892
2.81304	0.877
2.84638	0.872
2.87971	0.8691
2.91305	0.8581
2.94638	0.8587
2.97972	0.8688
3.01305	0.871
3.04639	0.874
3.07972	0.881
3.11306	0.8762
3.14639	0.871
3.17973	0.8643
3.21306	0.8249
3.2464	0.735
3.27973	0.6992
3.31307	0.6606
3.3464	0.6677
3.37974	0.6133
3.41307	0.572
3.44641	0.57
3.47974	0.5701
3.51308	0.5148
3.54641	0.4951
3.57975	0.4468
3.61308	0.4485
3.64642	0.674
3.67975	0.7678
3.71309	0.7899
3.74642	0.8256
3.77976	0.8664
3.81309	0.876
3.84643	0.881
3.87976	0.887
3.9131	0.887
3.94643	0.891
3.97977	0.8911
4.0131	0.892
4.04644	0.894
4.07977	0.894
4.11311	0.894
4.14644	0.896
4.17978	0.899
4.21311	0.899
4.24645	0.896
4.27978	0.8941
4.31312	0.889
4.34645	0.897
4.37979	0.8988
4.41312	0.902
4.44646	0.9
4.47979	0.897
4.51313	0.897
4.54646	0.897
4.5798	0.897
4.61313	0.902
4.64647	0.899
4.6798	0.8971
4.71314	0.896
4.74647	0.8969
4.77981	0.8969
4.81314	0.897
4.84648	0.9
4.87981	0.899
4.91315	0.897
4.94648	0.897
4.97982	0.897
5.01315	0.8921
5.04649	0.8842
5.07982	0.879
5.11316	0.8643
5.14649	0.866
5.17983	0.8809
5.21316	0.886
5.2465	0.8875
5.27983	0.8802
5.31317	0.8679
5.3465	0.866
5.37984	0.8765
5.41317	0.883
5.44651	0.8831
5.47984	0.8678
5.51318	0.8502
5.54651	0.843
5.57985	0.843
5.61318	0.8399
5.64652	0.8187
5.67985	0.8003
5.71319	0.7572
5.74652	0.6617
5.77986	0.1375
5.81319	0.1029
5.84653	0.2173
5.87987	0.3874
5.9132	0.6193
5.94654	0.6958
5.97987	0.7059
6.01321	0.7406
6.04654	0.772
6.07988	0.7744
6.11321	0.798
6.14655	0.815
6.17988	0.816
6.21322	0.8161
6.24655	0.7662
6.27989	0.779
6.31322	0.7948
6.34656	0.8022
6.37989	0.827
6.41323	0.834
6.44656	0.833
6.4799	0.8324
6.51323	0.8295
6.54657	0.833
6.5799	0.828
6.61324	0.8284
6.64657	0.8209
6.67991	0.7712
6.71324	0.5443
6.74658	0.7111
6.77991	0.7266
6.81325	0.6642
6.84658	0.5112
6.87992	0.316
6.91325	0.3757
6.94659	0.4927
6.97992	0.5275
7.01326	0.5247
7.04659	0.5484
7.07993	0.5617
7.11326	0.576
7.1466	0.6033
7.17993	0.6322
7.21327	0.6639
7.2466	0.6586
7.27994	0.5466
7.31327	0.405
7.34661	0.4134
7.37994	0.3172
7.41328	0.3307
7.44661	0.4702
7.47995	0.5665
7.51328	0.6447
7.54662	0.6652
7.57995	0.673
7.61329	0.6731
7.64662	0.6963
7.67996	0.7261
7.71329	0.729
7.74663	0.7116
7.77996	0.6993
7.8133	0.6935
7.84663	0.6699
7.87997	0.6415
7.9133	0.6448
7.94664	0.6574
7.97997	0.625
8.01331	0.5796
8.04664	0.5857
8.07998	0.6566
8.11331	0.676
8.14665	0.6126
8.17998	0.4592
8.21332	0.4108
8.24665	0.4861
8.27999	0.55
8.31332	0.585
8.34666	0.6058
8.37999	0.6192
8.41333	0.6392
8.44666	0.6519
8.48	0.6271
8.51333	0.5818
8.54667	0.5491
8.58	0.531
8.61334	0.5327
8.64667	0.5555
8.68001	0.5867
8.71334	0.613
8.74668	0.5928
8.78001	0.5682
8.81335	0.5566
8.84668	0.5568
8.88002	0.572
8.91335	0.5603
8.94669	0.5849
8.98002	0.6773
9.01336	0.7214
9.04669	0.7395
9.08003	0.7572
9.11336	0.7697
9.1467	0.773
9.18003	0.7788
9.21337	0.787
9.2467	0.767
9.28004	0.7064
9.31337	0.6129
9.34671	0.6625
9.38004	0.7097
9.41338	0.7139
9.44671	0.6784
9.48005	0.62
9.51338	0.5741
9.54672	0.5397
9.58005	0.5016
9.61339	0.4758
9.64672	0.4555
9.68006	0.438
9.7134	0.4269
9.74673	0.3259
9.78007	0.3983
9.8134	0.5477
9.84674	0.6177
9.88007	0.6774
9.91341	0.7076
9.94674	0.725
9.98008	0.728
10.0134	0.731
10.0467	0.731
10.0801	0.7302
10.1134	0.727
10.1468	0.7203
10.1801	0.706
10.2134	0.688
10.2468	0.6677
10.2801	0.666
10.3134	0.668
10.3468	0.669
10.3801	0.6782
10.4134	0.691
10.4468	0.704
10.4801	0.7238
10.5134	0.7487
10.5468	0.7718
10.5801	0.786
10.6134	0.7994
10.6468	0.818
10.6801	0.823
10.7134	0.8257
10.7468	0.826
10.7801	0.828
10.8135	0.8226
10.8468	0.8039
10.8801	0.7723
10.9135	0.7364
10.9468	0.7127
10.9801	0.6951
11.0135	0.6945
11.0468	0.7033
11.0801	0.7408
11.1135	0.7574
11.1468	0.759
11.1801	0.7548
11.2135	0.7487
11.2468	0.744
11.2801	0.7319
11.3135	0.7259
11.3468	0.7189
11.3801	0.7208
11.4135	0.7268
11.4468	0.731
11.4802	0.7398
11.5135	0.7515
11.5468	0.7585
11.5802	0.7663
11.6135	0.77
11.6468	0.7627
11.6802	0.7526
11.7135	0.745
11.7468	0.747
11.7802	0.745
11.8135	0.745
11.8468	0.7544
11.8802	0.762
11.9135	0.7686
11.9468	0.7714
11.9802	0.7708
12.0135	0.775
12.0468	0.767
12.0802	0.764
12.1135	0.7548
12.1469	0.752
12.1802	0.75
12.2135	0.7569
12.2469	0.762
12.2802	0.764
12.3135	0.7667
12.3469	0.765
12.3802	0.7678
12.4135	0.7728
12.4469	0.7745
12.4802	0.7845
12.5135	0.7877
12.5469	0.787
12.5802	0.788
12.6135	0.787
12.6469	0.7791
12.6802	0.7675
12.7135	0.7612
12.7469	0.755
12.7802	0.7496
12.8136	0.747
12.8469	0.75
12.8802	0.757
12.9136	0.7678
12.9469	0.7635
12.9802	0.765
13.0136	0.7669
13.0469	0.764
13.0802	0.755
13.1136	0.7471
13.1469	0.7342
13.1802	0.7115
13.2136	0.6846
13.2469	0.6314
13.2802	0.5558
13.3136	0.4545
13.3469	0.3619
13.3802	0.2769
13.4136	0.2247
13.4469	0.1923
13.4803	0.1719
13.5136	0.1761
13.5469	0.1835
13.5803	0.2168
13.6136	0.2706
13.6469	0.3276
13.6803	0.3928
13.7136	0.4801
13.7469	0.5403
13.7803	0.5827
13.8136	0.6212
13.8469	0.6515
13.8803	0.6696
13.9136	0.6842
13.9469	0.6893
13.9803	0.694
14.0136	0.691
14.047	0.6781
14.0803	0.6611
14.1136	0.6285
14.147	0.5729
14.1803	0.4881
14.2136	0.3855
14.247	0.2671
14.2803	0.2009
14.3136	0.1618
14.347	0.1642
14.3803	0.2565
14.4136	0.374
14.447	0.474
14.4803	0.5492
14.5136	0.6024
14.547	0.6394
14.5803	0.6686
14.6136	0.6693
14.647	0.681
14.6803	0.686
14.7137	0.6906
14.747	0.686
14.7803	0.689
14.8137	0.689
14.847	0.686
14.8803	0.6739
14.9137	0.6709
14.947	0.6649
14.9803	0.656
