Infrared Spectrum: 3-Bromoanisole
Formula: C 7 H 7 Br O
CAS: 2398-37-0
State: gas
Instrument: HP-GC/MS/IRD
Origin: NIST Mass Spectrometry Data Center
1/CM	ABSORBANCE
550	0.000558
562	0.000759
574	0.000402
586	8.4e-05
598	6e-06
610	8.7e-05
622	0.000246
634	0.000345
646	0.000594
658	0.001806
670	0.003222
682	0.004329
694	0.002079
706	0.00051
718	0.000228
730	0.000321
742	0.000879
754	0.003135
766	0.006717
778	0.005631
790	0.002031
802	0.001077
814	0.002748
826	0.009471
838	0.013683
850	0.005268
862	0.003009
874	0.001983
886	0.00096
898	0.000471
910	0.000315
922	0.000231
934	0.000249
946	0.0003
958	0.000468
970	0.000741
982	0.001548
994	0.003003
1006	0.002583
1018	0.00507
1030	0.011448
1042	0.016884
1054	0.012135
1066	0.005817
1078	0.003237
1090	0.002544
1102	0.001071
1114	0.000855
1126	0.000894
1138	0.001074
1150	0.001755
1162	0.002286
1174	0.00213
1186	0.002511
1198	0.002565
1210	0.004842
1222	0.010968
1234	0.016803
1246	0.018111
1258	0.010995
1270	0.007578
1282	0.010479
1294	0.010002
1306	0.005646
1318	0.003822
1330	0.003018
1342	0.001593
1354	0.000849
1366	0.000666
1378	0.000906
1390	0.001665
1402	0.002715
1414	0.004701
1426	0.007173
1438	0.007536
1450	0.007917
1462	0.010134
1474	0.024093
1486	0.018456
1498	0.00387
1510	0.002103
1522	0.002223
1534	0.00222
1546	0.003159
1558	0.006606
1570	0.016776
1582	0.028422
1594	0.026295
1606	0.010263
1618	0.003315
1630	0.001467
1642	0.000939
1654	0.000735
1666	0.000555
1678	0.000516
1690	0.000408
1702	0.00036
1714	0.000459
1726	0.000549
1738	0.000495
1750	0.000447
1762	0.00033
1774	0.000258
1786	0.000225
1798	0.000231
1810	0.000309
1822	0.000384
1834	0.000444
1846	0.000327
1858	0.000237
1870	0.00024
1882	0.00021
1894	0.000213
1906	0.000393
1918	0.000432
1930	0.000213
1942	8.7e-05
1954	0.000105
1966	5.1e-05
1978	5.7e-05
1990	0.000117
2002	0.000129
2014	0.000144
2026	0.000243
2038	0.000345
2050	0.00051
2062	0.000609
2074	0.000633
2086	0.000594
2098	0.000375
2110	0.000213
2122	0.000159
2134	0.000144
2146	8.7e-05
2158	6.9e-05
2170	5.1e-05
2182	3e-05
2194	3e-05
2206	9e-06
2218	3.6e-05
2230	4.5e-05
2242	6.3e-05
2254	9.6e-05
2266	0.000123
2278	9.3e-05
2290	0.000114
2302	0.000135
2314	0.000171
2326	0.00015
2338	9e-05
2350	8.1e-05
2362	7.8e-05
2374	7.5e-05
2386	0.000102
2398	0.000132
2410	0.000174
2422	0.000183
2434	0.000141
2446	0.000102
2458	0.000111
2470	0.000168
2482	0.000267
2494	0.000312
2506	0.00027
2518	0.000252
2530	0.000186
2542	0.000153
2554	0.000138
2566	0.000135
2578	0.000183
2590	0.000114
2602	0.000126
2614	0.000117
2626	0.000111
2638	0.00012
2650	0.000114
2662	0.000117
2674	0.000129
2686	0.00015
2698	0.000153
2710	0.000162
2722	0.000171
2734	0.00015
2746	9.6e-05
2758	0.00015
2770	0.000225
2782	0.000294
2794	0.000357
2806	0.000552
2818	0.00084
2830	0.001542
2842	0.003093
2854	0.002934
2866	0.001752
2878	0.001551
2890	0.001632
2902	0.002214
2914	0.002874
2926	0.003042
2938	0.004182
2950	0.005871
2962	0.005004
2974	0.003273
2986	0.002298
2998	0.002922
3010	0.00468
3022	0.003228
3034	0.00168
3046	0.00123
3058	0.001197
3070	0.001926
3082	0.002589
3094	0.001707
3106	0.000819
3118	0.000372
3130	0.000282
3142	0.000204
3154	0.000258
3166	0.000228
3178	0.000174
3190	9.9e-05
3202	0.000105
3214	0.000156
3226	0.000108
3238	8.1e-05
3250	0.000102
3262	7.8e-05
3274	0.00012
3286	7.2e-05
3298	9e-05
3310	0.000147
3322	7.5e-05
3334	3.6e-05
3346	5.7e-05
3358	3.6e-05
3370	4.2e-05
3382	8.4e-05
3394	5.1e-05
3406	3e-06
3418	9.3e-05
3430	7.8e-05
3442	8.4e-05
3454	0.000159
3466	5.7e-05
3478	9.9e-05
3490	0.000102
3502	8.1e-05
3514	0.000123
3526	0.000144
3538	0.000108
3550	0.000123
3562	0.00018
3574	0.000144
3586	0.00015
3598	0.000123
3610	0.000126
3622	0.00012
3634	0.000144
3646	0.000153
3658	0.000189
3670	0.000147
3682	0.000156
3694	0.000135
3706	0.000147
3718	0.000201
3730	0.000126
3742	0.000234
3754	0.000216
3766	0.000165
3778	0.000189
3790	0.000174
3802	0.000165
3814	0.000201
3826	0.000135
3838	0.000237
