Infrared Spectrum: 1-(2-Cyanoethyl)-2-ethyl-4-methylimidazole
Formula: C 9 H 13 N 3
CAS: 23996-25-0
State: gas
Origin: EPA-IR VAPOR PHASE LIBRARY
1/CM	ABSORBANCE
549.9	0.001979
559.547	0.002029
569.193	0.0015145
578.84	0.0016931
588.486	0.002049
598.133	0.002719
607.779	0.003549
617.426	0.004729
627.072	0.006199
636.719	0.006909
646.365	0.004969
656.012	0.003509
665.658	0.003229
675.305	0.002869
684.951	0.003219
694.598	0.007069
704.245	0.014609
713.891	0.015229
723.538	0.010429
733.184	0.005179
742.831	0.002499
752.477	0.002099
762.124	0.002069
771.77	0.002079
781.417	0.001999
791.063	0.001989
800.71	0.002099
810.356	0.002769
820.003	0.002959
829.649	0.002249
839.296	0.0015385
848.943	0.0011036
858.589	0.00098879
868.236	0.0008582
877.882	0.0008437
887.529	0.0008206
897.175	0.0010297
906.822	0.001463
916.468	0.002209
926.115	0.002349
935.761	0.002139
945.408	0.002029
955.054	0.002359
964.701	0.002659
974.347	0.003619
983.994	0.004379
993.64	0.004679
1003.29	0.005559
1012.93	0.004909
1022.58	0.003599
1032.23	0.003569
1041.87	0.004579
1051.52	0.006889
1061.17	0.011379
1070.81	0.013009
1080.46	0.007099
1090.11	0.003789
1099.75	0.002789
1109.4	0.002659
1119.05	0.003279
1128.69	0.003669
1138.34	0.003279
1147.99	0.002949
1157.63	0.005439
1167.28	0.012789
1176.92	0.012899
1186.57	0.005959
1196.22	0.005189
1205.86	0.004669
1215.51	0.002659
1225.16	0.002419
1234.8	0.002999
1244.45	0.003619
1254.1	0.004289
1263.74	0.005899
1273.39	0.009669
1283.04	0.019469
1292.68	0.033849
1302.33	0.029289
1311.98	0.014679
1321.62	0.013239
1331.27	0.013539
1340.92	0.012889
1350.56	0.016859
1360.21	0.025909
1369.86	0.029089
1379.5	0.023379
1389.15	0.018359
1398.79	0.015669
1408.44	0.022229
1418.09	0.037029
1427.73	0.048309
1437.38	0.044529
1447.03	0.035939
1456.67	0.029719
1466.32	0.026809
1475.97	0.018319
1485.61	0.010389
1495.26	0.012099
1504.91	0.021189
1514.55	0.019589
1524.2	0.008269
1533.85	0.004459
1543.49	0.003899
1553.14	0.004539
1562.79	0.007099
1572.43	0.010229
1582.08	0.008319
1591.73	0.003949
1601.37	0.002209
1611.02	0.0017475
1620.67	0.0014432
1630.31	0.0013365
1639.96	0.0012014
1649.6	0.0010717
1659.25	0.0010226
1668.9	0.00092304
1678.54	0.0008553
1688.19	0.000822
1697.84	0.000701
1707.48	0.000714
1717.13	0.000706
1726.78	0.000726
1736.42	0.000737
1746.07	0.0007905
1755.72	0.0007956
1765.36	0.0008258
1775.01	0.000758
1784.66	0.000665
1794.3	0.000648
1803.95	0.00061
1813.6	0.000616
1823.24	0.000583
1832.89	0.000552
1842.54	0.000629
1852.18	0.000602
1861.83	0.000621
1871.47	0.00061
1881.12	0.000632
1890.77	0.000652
1900.41	0.000644
1910.06	0.000625
1919.71	0.000678
1929.35	0.000706
1939	0.000692
1948.65	0.000737
1958.29	0.000695
1967.94	0.000694
1977.59	0.000748
1987.23	0.000687
1996.88	0.000738
2006.53	0.000623
2016.17	0.000653
2025.82	0.000636
2035.47	0.0006
2045.11	0.00065
2054.76	0.00063
2064.41	0.000663
2074.05	0.000669
2083.7	0.000596
2093.35	0.000642
2102.99	0.000638
2112.64	0.000654
2122.28	0.000684
2131.93	0.000635
2141.58	0.000708
2151.22	0.000753
2160.87	0.000759
2170.52	0.000773
2180.16	0.000786
2189.81	0.00078
2199.46	0.000775
2209.1	0.000764
2218.75	0.00075
2228.4	0.0008327
2238.04	0.00097451
2247.69	0.0014534
2257.34	0.0016228
2266.98	0.0011772
2276.63	0.00096602
2286.28	0.0008545
2295.92	0.000897762
2305.57	0.00097097
2315.22	0.0009938
2324.86	0.0011165
2334.51	0.0012012
2344.16	0.0012544
2353.8	0.0011562
2363.45	0.0011241
2373.09	0.0011282
2382.74	0.0010914
2392.39	0.0010651
2402.03	0.0010734
2411.68	0.0011148
2421.33	0.0010981
2430.97	0.001187
2440.62	0.0011479
2450.27	0.0011672
2459.91	0.0011503
2469.56	0.0010893
2479.21	0.0010819
2488.85	0.0011755
2498.5	0.001092
2508.15	0.0010954
2517.79	0.0010699
2527.44	0.0010442
2537.09	0.00097484
2546.73	0.0009892
2556.38	0.0010317
2566.03	0.0010386
2575.67	0.0010815
2585.32	0.0010972
2594.96	0.0010713
2604.61	0.0010585
2614.26	0.00097002
2623.9	0.0010188
2633.55	0.0012271
2643.2	0.0012571
2652.84	0.0012048
2662.49	0.0012403
2672.14	0.0011539
2681.78	0.0011989
2691.43	0.0012384
2701.08	0.0013977
2710.72	0.001604
2720.37	0.0016759
2730.02	0.0018561
2739.66	0.002279
2749.31	0.002389
2758.96	0.002239
2768.6	0.002039
2778.25	0.001969
2787.9	0.002169
2797.54	0.002519
2807.19	0.002819
2816.84	0.003259
2826.48	0.003899
2836.13	0.004969
2845.77	0.006419
2855.42	0.008689
2865.07	0.012259
2874.71	0.015909
2884.36	0.018469
2894.01	0.020459
2903.65	0.022059
2913.3	0.022959
2922.95	0.026529
2932.59	0.036899
2942.24	0.042399
2951.89	0.038649
2961.53	0.036189
2971.18	0.036629
2980.83	0.037069
2990.47	0.031999
3000.12	0.020149
3009.77	0.011189
3019.41	0.007119
3029.06	0.005369
3038.71	0.004549
3048.35	0.004369
3058	0.003779
3067.64	0.003209
3077.29	0.002919
3086.94	0.002419
3096.58	0.002069
3106.23	0.002039
3115.88	0.001949
3125.52	0.0015706
3135.17	0.0012952
3144.82	0.0013491
3154.46	0.0012967
3164.11	0.001007
3173.76	0.000773
3183.4	0.000713
3193.05	0.00054
3202.7	0.000708
3212.34	0.000535
3221.99	0.000413
3231.64	0.000387
3241.28	0.000496
3250.93	0.000423
3260.58	0.000441
3270.22	0.000224
3279.87	0.000244
3289.52	0.000325
3299.16	0.000386
3308.81	0.000225
3318.45	0.000303
3328.1	0.000222
3337.75	0.000208
3347.39	0.000112
3357.04	0.000272
3366.69	0.00023
3376.33	0.000159
3385.98	0.00015
3395.63	0.000351
3405.27	0.000262
3414.92	0.000262
3424.57	0.000218
3434.21	0.00016
3443.86	2.4e-05
3453.51	0.00012
3463.15	0.000162
3472.8	0.000293
3482.45	0.000308
3492.09	0.000387
3501.74	0.000381
3511.39	0.000451
3521.03	0.000187
3530.68	0.000297
3540.33	0.00032
3549.97	0.000187
3559.62	0.000307
3569.26	0.000276
3578.91	0.00026
3588.56	0.000426
3598.2	0.00016
3607.85	0.000293
3617.5	0.000202
3627.14	0.000307
3636.79	0.000292
3646.44	0.000226
3656.08	0.000212
3665.73	0.000355
3675.38	0.00029
3685.02	0.000293
3694.67	0.000301
3704.32	0.000327
3713.96	0.000258
3723.61	0.000469
3733.26	0.000261
3742.9	0.000403
3752.55	0.000298
3762.2	0.000401
3771.84	0.000463
3781.49	0.000327
3791.13	0.000426
3800.78	0.000294
3810.43	0.000384
3820.07	0.000307
3829.72	0.000283
3839.37	0.000384
3849.01	0.000481
3858.66	0.000509
3868.31	0.000546
3877.95	0.000395
3887.6	0.00046
3897.25	0.000507
3906.89	0.000536
3916.54	0.000469
3926.19	0.000641
3935.83	0.000652
3945.48	0.000775
3955.13	0.000661
3964.77	0.000747
3974.42	0.000638
3984.07	0.000566
3993.71	0.000703
