Infrared Spectrum: SYM-DICHLOROTETRAMETHYLDISILOXANE
Formula: C4 H12 Cl2 O Si2
CAS: 2401-73-2
State: SOLUTION (6% IN CCl4 FOR 3800-1320, 3% IN CS2 FOR 1320-630, AND 6% IN CCl4 FOR 630-220 CM^-^1)
Boiling point: 135 C AT 750 mmHg
Class: COBLENTZ III
Instrument: PERKIN-ELMER 521 (GRATING)
Instrument parameters: FILTERS AT 3150, 2500, 2000, 1150, 700, 410. GRATING CHANGES: 2000, 630 CM^-^1
Sampling: TRANSMISSION
Path length: 0.011 CM, 0.011 CM, AND 0.021 CM
Resolution: 2
Origin: DOW CORNING CORP.
1/CM	TRANSMITTANCE
207.151	0.133
216.378	0.018
225.605	0.187
234.833	0.32
244.06	0.464
253.287	0.557
262.514	0.618
271.742	0.68
280.969	0.738
290.196	0.739
299.423	0.732
308.65	0.722
317.878	0.614
327.105	0.35
336.332	0.188
345.559	0.498
354.786	0.781
364.014	0.833
373.241	0.843
382.468	0.853
391.695	0.859
400.923	0.866
410.15	0.857
419.377	0.854
428.604	0.841
437.831	0.803
447.059	0.694
456.286	0.375
465.513	0.352
474.74	0.319
483.967	0.004
493.195	0.151
502.422	0.595
511.649	0.734
520.876	0.766
530.104	0.786
539.331	0.786
548.558	0.773
557.785	0.724
567.012	0.578
576.24	0.285
585.467	0.289
594.694	0.68
603.921	0.797
613.149	0.841
622.376	0.842
631.603	0.895
640.83	0.888
650.057	0.871
659.285	0.83
668.512	0.59
677.739	0.828
686.966	0.842
696.193	0.816
705.421	0.834
714.648	0.866
723.875	0.863
733.102	0.848
742.33	0.846
751.557	0.839
760.784	0.827
770.011	0.795
779.238	0.717
788.466	0.508
797.693	0.145
806.92	0.112
816.147	0.276
825.374	0.14
834.602	0.429
843.829	0.625
853.056	0.688
862.283	0.724
871.511	0.773
880.738	0.805
889.965	0.824
899.192	0.847
908.419	0.859
917.647	0.871
926.874	0.876
936.101	0.878
945.328	0.879
954.556	0.874
963.783	0.878
973.01	0.872
982.237	0.863
991.464	0.835
1000.69	0.803
1009.92	0.749
1019.15	0.696
1028.37	0.624
1037.6	0.532
1046.83	0.394
1056.05	0.167
1065.28	0.071
1074.51	0.136
1083.74	0.272
1092.96	0.436
1102.19	0.561
1111.42	0.617
1120.65	0.662
1129.87	0.708
1139.1	0.753
1148.33	0.794
1157.55	0.826
1166.78	0.846
1176.01	0.858
1185.24	0.865
1194.46	0.872
1203.69	0.87
1212.92	0.861
1222.14	0.845
1231.37	0.825
1240.6	0.754
1249.83	0.4729
1259.05	0.3071
1268.28	0.792
1277.51	0.839
1286.74	0.864
1295.96	0.873
1305.19	0.876
1314.42	0.874
1323.64	0.807
1332.87	0.805
1342.1	0.799
1351.33	0.788
1360.55	0.78
1369.78	0.765
1379.01	0.739
1388.23	0.698
1397.46	0.616
1406.69	0.645
1415.92	0.708
1425.14	0.771
1434.37	0.781
1443.6	0.779
1452.83	0.785
1462.05	0.799
1471.28	0.804
1480.51	0.804
1489.73	0.804
1498.96	0.804
1508.19	0.801
1517.42	0.793
1526.64	0.779
1535.87	0.772
1545.1	0.78
1554.32	0.8
1563.55	0.807
1572.78	0.814
1582.01	0.818
1591.23	0.82
1600.46	0.82
1609.69	0.819
1618.92	0.818
1628.14	0.814
1637.37	0.801
1646.6	0.786
1655.82	0.794
1665.05	0.809
1674.28	0.833
1683.51	0.839
1692.73	0.839
1701.96	0.839
1711.19	0.84
1720.41	0.841
1729.64	0.841
1738.87	0.841
1748.1	0.841
1757.32	0.84
1766.55	0.839
1775.78	0.836
1785	0.839
1794.23	0.842
1803.46	0.846
1812.69	0.847
1821.91	0.849
1831.14	0.847
1840.37	0.843
1849.6	0.847
1858.82	0.85
1868.05	0.849
1877.28	0.851
1886.5	0.85
1895.73	0.847
1904.96	0.841
1914.19	0.84
1923.41	0.831
1932.64	0.822
1941.87	0.832
1951.09	0.832
1960.32	0.833
1969.55	0.836
1978.78	0.843
1988	0.835
1997.23	0.833
2006.46	0.858
2015.69	0.8651
2024.91	0.871
2034.14	0.8714
2043.37	0.8664
2052.59	0.863
2061.82	0.8534
2071.05	0.8546
2080.28	0.861
2089.5	0.8604
2098.73	0.863
2107.96	0.8613
2117.18	0.861
2126.41	0.8618
2135.64	0.864
2144.87	0.865
2154.09	0.867
2163.32	0.869
2172.55	0.867
2181.78	0.8699
2191	0.8701
2200.23	0.871
2209.46	0.872
2218.68	0.872
2227.91	0.871
2237.14	0.872
2246.37	0.873
2255.59	0.874
2264.82	0.8731
2274.05	0.874
2283.27	0.874
2292.5	0.873
2301.73	0.8709
2310.96	0.8628
2320.18	0.855
2329.41	0.8542
2338.64	0.8572
2347.87	0.857
2357.09	0.8583
2366.32	0.8695
2375.55	0.8793
2384.77	0.885
2394	0.8843
2403.23	0.8846
2412.46	0.884
2421.68	0.882
2430.91	0.882
2440.14	0.881
2449.36	0.881
2458.59	0.8815
2467.82	0.879
2477.05	0.8805
2486.27	0.881
2495.5	0.8795
2504.73	0.8796
2513.96	0.8816
2523.18	0.886
2532.41	0.887
2541.64	0.887
2550.86	0.887
2560.09	0.887
2569.32	0.887
2578.55	0.887
2587.77	0.886
2597	0.888
2606.23	0.888
2615.45	0.886
2624.68	0.886
2633.91	0.8852
2643.14	0.885
2652.36	0.885
2661.59	0.885
2670.82	0.886
2680.04	0.886
2689.27	0.886
2698.5	0.886
2707.73	0.886
2716.95	0.886
2726.18	0.886
2735.41	0.886
2744.64	0.8859
2753.86	0.8849
2763.09	0.881
2772.32	0.8779
2781.54	0.874
2790.77	0.873
2800	0.874
2809.23	0.876
2818.45	0.874
2827.68	0.873
2836.91	0.8717
2846.13	0.869
2855.36	0.8657
2864.59	0.863
2873.82	0.8603
2883.04	0.8552
2892.27	0.8434
2901.5	0.8263
2910.73	0.8319
2919.95	0.843
2929.18	0.8405
2938.41	0.833
2947.63	0.8119
2956.86	0.7508
2966.09	0.6263
2975.32	0.6089
2984.54	0.7551
2993.77	0.8424
3003	0.8745
3012.22	0.8797
3021.45	0.882
3030.68	0.885
3039.91	0.885
3049.13	0.885
3058.36	0.885
3067.59	0.885
3076.82	0.885
3086.04	0.8842
3095.27	0.884
3104.5	0.882
3113.72	0.882
3122.95	0.881
3132.18	0.8949
3141.41	0.896
3150.63	0.896
3159.86	0.898
3169.09	0.9
3178.31	0.901
3187.54	0.901
3196.77	0.901
3206	0.9
3215.22	0.9
3224.45	0.901
3233.68	0.902
3242.91	0.9021
3252.13	0.903
3261.36	0.903
3270.59	0.903
3279.81	0.903
3289.04	0.902
3298.27	0.901
3307.5	0.901
3316.72	0.901
3325.95	0.9013
3335.18	0.902
3344.4	0.9014
3353.63	0.902
3362.86	0.901
3372.09	0.901
3381.31	0.901
3390.54	0.901
3399.77	0.901
3409	0.901
3418.22	0.901
3427.45	0.902
3436.68	0.902
3445.9	0.902
3455.13	0.902
3464.36	0.902
3473.59	0.902
3482.81	0.902
3492.04	0.902
3501.27	0.901
3510.49	0.901
3519.72	0.9017
3528.95	0.902
3538.18	0.9028
3547.4	0.904
3556.63	0.904
3565.86	0.903
3575.08	0.903
3584.31	0.8984
3593.54	0.8969
3602.77	0.9
3611.99	0.898
3621.22	0.898
3630.45	0.898
3639.68	0.898
3648.9	0.895
3658.13	0.894
3667.36	0.894
3676.58	0.894
3685.81	0.892
3695.04	0.8889
3704.27	0.8849
3713.49	0.882
3722.72	0.885
3731.95	0.885
3741.17	0.887
3750.4	0.89
3759.63	0.889
3768.86	0.888
3778.08	0.8883
3787.31	0.89
