Infrared Spectrum: Picolinonitrile, 1-oxide
Formula: C6 H4 N2 O
CAS: 2402-98-4
State: SOLID (SPLIT MULL), FLUOROLUBE FOR 3800-1330 CM^-^1, NUJOL FOR 1330-460 CM^-^1
Class: COBLENTZ III
Instrument: DOW KBr FOREPRISM-GRATING
Instrument parameters: BLAZED AT 3.5, 12.0, 20.0 MICRON AND CHANGED AT 5.0, 7.5, 14.9 MICRON
Sampling: TRANSMISSION
Resolution: 2
Origin: DOW CHEMICAL COMPANY
1/CM	TRANSMITTANCE
462	0.7041
471	0.6346
480	0.7589
489	0.7675
498	0.7594
507	0.5394
516	0.7633
525	0.7701
534	0.7778
543	0.7862
552	0.7894
561	0.5901
570	0.7933
579	0.7585
588	0.796
597	0.7968
606	0.7475
615	0.7718
624	0.7651
633	0.7901
642	0.7936
651	0.8051
660	0.8068
669	0.8068
678	0.8267
687	0.8388
696	0.8371
705	0.8318
714	0.8099
723	0.5825
732	0.7638
741	0.7698
750	0.4627
759	0.7975
768	0.774
777	0.5294
786	0.0715
795	0.5989
804	0.7764
813	0.7961
822	0.7926
831	0.7851
840	0.7718
849	0.7261
858	0.29
867	0.7103
876	0.8084
885	0.8151
894	0.7939
903	0.8171
912	0.816
921	0.8118
930	0.8037
939	0.7917
948	0.7741
957	0.7815
966	0.6969
975	0.7847
984	0.7931
993	0.761
1002	0.7804
1011	0.7775
1020	0.7665
1029	0.7551
1038	0.7398
1047	0.6156
1056	0.7407
1065	0.7439
1074	0.7175
1083	0.7044
1092	0.6925
1101	0.6803
1110	0.597
1119	0.606
1128	0.6988
1137	0.7065
1146	0.6917
1155	0.6478
1164	0.5541
1173	0.6857
1182	0.693
1191	0.6878
1200	0.5879
1209	0.6264
1218	0.5274
1227	0.2585
1236	0.6754
1245	0.6849
1254	0.5865
1263	0.3426
1272	0.016
1281	0.4232
1290	0.5693
1299	0.0985
1308	0.6094
1317	0.7165
1326	0.6825
1335	0.6918
1344	0.6614
1353	0.6669
1362	0.7143
1371	0.7136
1380	0.694
1389	0.6728
1398	0.6533
1407	0.6048
1416	0.4934
1425	0.1601
1434	0.072
1443	0.5298
1452	0.8478
1461	0.7701
1470	0.8128
1479	0.771
1488	0.3054
1497	0.4738
1506	0.9201
1515	0.9018
1524	0.8832
1533	0.8793
1542	0.8574
1551	0.8058
1560	0.6819
1569	0.8607
1578	0.8458
1587	0.8187
1596	0.7407
1605	0.556
1614	0.8598
1623	0.8387
1632	0.8321
1641	0.8315
1650	0.8086
1659	0.7944
1668	0.8081
1677	0.8095
1686	0.8151
1695	0.8149
1704	0.8118
1713	0.8075
1722	0.8101
1731	0.7975
1740	0.783
1749	0.7815
1758	0.7919
1767	0.7801
1776	0.7856
1785	0.7844
1794	0.7814
1803	0.7785
1812	0.7751
1821	0.7647
1830	0.7411
1839	0.7361
1848	0.7634
1857	0.7612
1866	0.7532
1875	0.7581
1884	0.7562
1893	0.7505
1902	0.744
1911	0.7417
1920	0.7275
1929	0.7147
1938	0.7303
1947	0.7103
1956	0.6792
1965	0.7251
1974	0.7165
1983	0.6885
1992	0.6906
2001	0.7215
2010	0.72
2019	0.7169
2028	0.7172
2037	0.7128
2046	0.7068
2055	0.7015
2064	0.6961
2073	0.6911
2082	0.6865
2091	0.6818
2100	0.6789
2109	0.6732
2118	0.6558
2127	0.6476
2136	0.6621
2145	0.6568
2154	0.6476
2163	0.6443
2172	0.6469
2181	0.64
2190	0.6307
2199	0.6235
2208	0.6169
2217	0.6086
2226	0.5979
2235	0.58
2244	0.5484
2253	0.4058
2262	0.6475
2271	0.6207
2280	0.6018
2289	0.5964
2298	0.5901
2307	0.5839
2316	0.5783
2325	0.5736
2334	0.5716
2343	0.5695
2352	0.5693
2361	0.5693
2370	0.5678
2379	0.5657
2388	0.5637
2397	0.562
2406	0.5599
2415	0.557
2424	0.5534
2433	0.5529
2442	0.5529
2451	0.5478
2460	0.5448
2469	0.5435
2478	0.5409
2487	0.5351
2496	0.5306
2505	0.5297
2514	0.5207
2523	0.5064
2532	0.5125
2541	0.5282
2550	0.5286
2559	0.5262
2568	0.5236
2577	0.5202
2586	0.516
2595	0.5125
2604	0.5132
2613	0.511
2622	0.5066
2631	0.5021
2640	0.4974
2649	0.4931
2658	0.4891
2667	0.4851
2676	0.4816
2685	0.4781
2694	0.4747
2703	0.4712
2712	0.4679
2721	0.4645
2730	0.4609
2739	0.4571
2748	0.4527
2757	0.4467
2766	0.4418
2775	0.4377
2784	0.442
2793	0.4458
2802	0.4416
2811	0.4366
2820	0.4312
2829	0.4286
2838	0.4273
2847	0.4235
2856	0.4178
2865	0.4131
2874	0.4141
2883	0.4136
2892	0.4094
2901	0.4045
2910	0.3995
2919	0.3942
2928	0.3887
2937	0.3829
2946	0.3762
2955	0.369
2964	0.3609
2973	0.359
2982	0.3637
2991	0.3582
3000	0.3443
3009	0.3209
3018	0.2827
3027	0.3236
3036	0.2818
3045	0.2172
3054	0.383
3063	0.3792
3072	0.3377
3081	0.3334
3090	0.2974
3099	0.3707
3108	0.351
3117	0.317
3126	0.3284
3135	0.2329
3144	0.402
3153	0.3932
3162	0.3878
3171	0.387
3180	0.3852
3189	0.3825
3198	0.3793
3207	0.3759
3216	0.3737
3225	0.3712
3234	0.3686
3243	0.3659
3252	0.3636
3261	0.3612
3270	0.3589
3279	0.3571
3288	0.3557
3297	0.3542
3306	0.3529
3315	0.3514
3324	0.35
3333	0.3488
3342	0.3477
3351	0.3466
3360	0.3479
3369	0.3508
3378	0.351
3387	0.3495
3396	0.3478
3405	0.3455
3414	0.3436
3423	0.342
3432	0.3405
3441	0.339
3450	0.338
3459	0.3368
3468	0.3347
3477	0.3329
3486	0.3314
3495	0.3297
3504	0.3275
3513	0.3253
3522	0.323
3531	0.3209
3540	0.319
3549	0.317
3558	0.3151
3567	0.3129
3576	0.3106
3585	0.3082
3594	0.3059
3603	0.3034
3612	0.3012
3621	0.2991
3630	0.2974
3639	0.2957
3648	0.294
3657	0.2922
3666	0.2906
3675	0.2892
3684	0.2879
3693	0.2865
3702	0.2853
3711	0.2839
3720	0.2826
3729	0.2811
3738	0.2798
3747	0.2782
3756	0.2766
3765	0.2752
3774	0.2743
3783	0.2727
3792	0.2709
