Infrared Spectrum: 2-(4-Fluorophenyl)-1,1,1,3,3,3-hexafluoro-2-propanol
Formula: C 9 H 5 F 7 O
CAS: 2402-74-6
State: gas
Origin: EPA-IR VAPOR PHASE LIBRARY
1/CM	ABSORBANCE
549.8	0.020622
559.445	0.015042
569.09	0.013712
578.734	0.012392
588.379	0.029102
598.024	0.034882
607.669	0.010862
617.313	0.008052
626.958	0.010802
636.603	0.009292
646.248	0.007892
655.893	0.004712
665.537	0.004842
675.182	0.005282
684.827	0.008902
694.472	0.033132
704.116	0.053432
713.761	0.016782
723.406	0.018632
733.051	0.067732
742.695	0.039372
752.34	0.023402
761.985	0.007722
771.63	0.004512
781.275	0.005112
790.919	0.006612
800.564	0.010812
810.209	0.020742
819.854	0.032182
829.498	0.109222
839.143	0.103092
848.788	0.020622
858.433	0.013662
868.078	0.013082
877.722	0.011012
887.367	0.012672
897.012	0.018922
906.657	0.032112
916.301	0.077232
925.946	0.133302
935.591	0.091952
945.236	0.054102
954.88	0.065322
964.525	0.104472
974.17	0.097462
983.815	0.046192
993.46	0.026302
1003.1	0.022532
1012.75	0.025082
1022.39	0.022112
1032.04	0.018262
1041.68	0.019062
1051.33	0.019362
1060.97	0.020902
1070.62	0.028512
1080.26	0.056172
1089.91	0.115242
1099.55	0.103342
1109.2	0.057902
1118.84	0.061392
1128.49	0.068232
1138.13	0.055322
1147.78	0.094712
1157.42	0.189112
1167.07	0.374752
1176.71	0.328692
1186.36	0.202042
1196	0.216592
1205.64	0.288492
1215.29	0.503412
1224.93	0.585812
1234.58	0.495342
1244.22	0.608612
1253.87	0.523752
1263.51	0.427682
1273.16	0.351752
1282.8	0.221792
1292.45	0.172002
1302.09	0.109832
1311.74	0.064102
1321.38	0.039402
1331.03	0.026112
1340.67	0.023362
1350.32	0.025402
1359.96	0.030542
1369.61	0.034092
1379.25	0.024632
1388.9	0.013692
1398.54	0.009472
1408.18	0.009472
1417.83	0.011072
1427.47	0.010102
1437.12	0.008032
1446.76	0.009102
1456.41	0.011462
1466.05	0.011592
1475.7	0.010802
1485.34	0.012692
1494.99	0.020152
1504.63	0.063742
1514.28	0.194392
1523.92	0.122162
1533.57	0.032742
1543.21	0.019922
1552.86	0.013732
1562.5	0.011042
1572.15	0.010812
1581.79	0.013512
1591.44	0.024892
1601.08	0.060592
1610.73	0.073552
1620.37	0.033862
1630.01	0.013952
1639.66	0.010542
1649.3	0.008912
1658.95	0.005112
1668.59	0.004132
1678.24	0.003662
1687.88	0.002882
1697.53	0.002452
1707.17	0.002602
1716.82	0.002502
1726.46	0.002662
1736.11	0.002782
1745.75	0.003092
1755.4	0.003892
1765.04	0.006252
1774.69	0.005002
1784.33	0.003132
1793.98	0.002402
1803.62	0.002202
1813.27	0.002212
1822.91	0.002082
1832.55	0.002052
1842.2	0.002442
1851.84	0.002572
1861.49	0.002792
1871.13	0.002912
1880.78	0.004252
1890.42	0.006782
1900.07	0.006872
1909.71	0.004412
1919.36	0.003722
1929	0.002632
1938.65	0.0019061
1948.29	0.002052
1957.94	0.0017773
1967.58	0.002202
1977.23	0.002442
1986.87	0.002652
1996.52	0.002542
2006.16	0.002542
2015.81	0.002212
2025.45	0.002162
2035.1	0.002112
2044.74	0.002322
2054.38	0.002882
2064.03	0.003302
2073.67	0.002982
2083.32	0.002342
2092.96	0.002192
2102.61	0.001922
2112.25	0.002052
2121.9	0.002342
2131.54	0.002952
2141.19	0.002632
2150.83	0.002282
2160.48	0.002262
2170.12	0.002122
2179.77	0.002472
2189.41	0.002512
2199.06	0.002392
2208.7	0.002532
2218.35	0.002162
2227.99	0.0018234
2237.64	0.001952
2247.28	0.0018732
2256.92	0.002172
2266.57	0.002182
2276.21	0.002392
2285.86	0.002362
2295.5	0.002562
2305.15	0.002662
2314.79	0.002512
2324.44	0.003122
2334.08	0.003752
2343.73	0.003562
2353.37	0.003712
2363.02	0.003272
2372.66	0.003622
2382.31	0.003502
2391.95	0.003352
2401.6	0.003272
2411.24	0.003922
2420.89	0.004142
2430.53	0.004072
2440.18	0.003432
2449.82	0.002852
2459.47	0.003032
2469.11	0.003292
2478.75	0.003202
2488.4	0.003592
2498.04	0.003102
2507.69	0.002312
2517.33	0.002092
2526.98	0.002252
2536.62	0.002192
2546.27	0.0017888
2555.91	0.002192
2565.56	0.0018301
2575.2	0.0018386
2584.85	0.002182
2594.49	0.0019001
2604.14	0.0013933
2613.78	0.0010695
2623.43	0.0012648
2633.07	0.0011703
2642.72	0.0010958
2652.36	0.0014479
2662.01	0.0012408
2671.65	0.0014717
2681.29	0.0014909
2690.94	0.0018469
2700.58	0.0018084
2710.23	0.0019077
2719.87	0.0014459
2729.52	0.001663
2739.16	0.0015965
2748.81	0.0012003
2758.45	0.0010865
2768.1	0.0013905
2777.74	0.0013641
2787.39	0.0015743
2797.03	0.0015039
2806.68	0.0012463
2816.32	0.001299
2825.97	0.0013147
2835.61	0.0014972
2845.26	0.0011707
2854.9	0.00097206
2864.55	0.0008763
2874.19	0.0016969
2883.84	0.0014516
2893.48	0.0012288
2903.12	0.0014527
2912.77	0.0011212
2922.41	0.00075
2932.06	0.00099261
2941.7	0.00099975
2951.35	0.0013268
2960.99	0.0015879
2970.64	0.0010411
2980.28	0.0011587
2989.93	0.0012817
2999.57	0.0008753
3009.22	0.0012058
3018.86	0.0013485
3028.51	0.0018137
3038.15	0.0017992
3047.8	0.0013923
3057.44	0.002312
3067.09	0.003912
3076.73	0.003462
3086.38	0.004052
3096.02	0.005632
3105.67	0.003372
3115.31	0.0015612
3124.95	0.001434
3134.6	0.0015111
3144.24	0.0008617
3153.89	0.0014077
3163.53	0.00097422
3173.18	0.00100713
3182.82	0.0017454
3192.47	0.0010886
3202.11	0.0013532
3211.76	0.001508
3221.4	0.0010978
3231.05	0.0014906
3240.69	0.0019035
3250.34	0.0013052
3259.98	0.0019051
3269.63	0.0015842
3279.27	0.0017602
3288.92	0.0014763
3298.56	0.001326
3308.21	0.0014854
3317.85	0.002212
3327.49	0.002282
3337.14	0.0017074
3346.78	0.0015641
3356.43	0.002032
3366.07	0.002232
3375.72	0.0019047
3385.36	0.0016298
3395.01	0.0016336
3404.65	0.001323
3414.3	0.0016347
3423.94	0.0011356
3433.59	0.0013789
3443.23	0.0018205
3452.88	0.0013231
3462.52	0.0016808
3472.17	0.0013987
3481.81	0.0013211
3491.46	0.0017966
3501.1	0.00075
3510.75	0.000741
3520.39	0.0015448
3530.04	0.0012924
3539.68	0.0015962
3549.32	0.0015423
3558.97	0.001982
3568.61	0.002222
3578.26	0.003002
3587.9	0.004082
3597.55	0.004602
3607.19	0.009322
3616.84	0.039222
3626.48	0.117932
3636.13	0.059032
3645.77	0.017032
3655.42	0.007412
3665.06	0.005512
3674.71	0.004512
3684.35	0.003042
3694	0.002472
3703.64	0.002412
3713.29	0.002492
3722.93	0.002032
3732.58	0.002632
3742.22	0.0018278
3751.86	0.0015729
3761.51	0.001942
3771.15	0.0015312
3780.8	0.0014926
3790.44	0.0016067
3800.09	0.002162
3809.73	0.0013721
3819.38	0.0015549
3829.02	0.0018387
3838.67	0.0014632
3848.31	0.0011685
3857.96	0.0018991
3867.6	0.001972
3877.25	0.002312
3886.89	0.002052
3896.54	0.002592
3906.18	0.002132
3915.83	0.002032
3925.47	0.001972
3935.12	0.002482
3944.76	0.0018457
3954.41	0.002532
3964.05	0.002292
3973.69	0.002432
3983.34	0.002482
3992.98	0.0016069
