Infrared Spectrum: trans-1,2-Dimethylcyclopropane
Formula: C 5 H 10
CAS: 2402-06-4
State: gas
Instrument: HP-GC/MS/IRD
Origin: NIST Mass Spectrometry Data Center
1/CM	ABSORBANCE
550	0.0003344
562	0.0002508
574	0.0001938
586	0.000133
598	0.0002356
610	0.0005054
622	0.0005586
634	0.0004902
646	0.0005054
658	0.0005548
670	0.0005852
682	0.0006422
694	0.0006118
706	0.0007904
718	0.0010222
730	0.0012426
742	0.0020292
754	0.0027664
766	0.003002
778	0.0022192
790	0.0015846
802	0.0011248
814	0.0009234
826	0.0009918
838	0.001691
850	0.0031692
862	0.0044954
874	0.0037088
886	0.0027702
898	0.0016986
910	0.0012198
922	0.0009918
934	0.0009424
946	0.0010526
958	0.0014174
970	0.0019646
982	0.0024016
994	0.0028994
1006	0.0038152
1018	0.0045258
1030	0.0039406
1042	0.0028956
1054	0.0022648
1066	0.0024206
1078	0.0022002
1090	0.0020102
1102	0.0015504
1114	0.0011058
1126	0.0007524
1138	0.0005928
1150	0.0006916
1162	0.0008246
1174	0.000779
1186	0.0006802
1198	0.0005738
1210	0.000513
1222	0.0004978
1234	0.0005092
1246	0.0005776
1258	0.0006042
1270	0.000817
1282	0.0010222
1294	0.001672
1306	0.002356
1318	0.0025574
1330	0.0023408
1342	0.0014516
1354	0.001406
1366	0.0018202
1378	0.0025688
1390	0.003021
1402	0.0028196
1414	0.0026676
1426	0.0035682
1438	0.0054758
1450	0.0061104
1462	0.007068
1474	0.0052934
1486	0.0037088
1498	0.002299
1510	0.0014098
1522	0.0010298
1534	0.000893
1546	0.000817
1558	0.0006688
1570	0.0007068
1582	0.0007144
1594	0.0007182
1606	0.0007866
1618	0.000836
1630	0.0008208
1642	0.0007334
1654	0.0006612
1666	0.0005738
1678	0.0004256
1690	0.0003648
1702	0.0003116
1714	0.000285
1726	0.000342
1738	0.0003534
1750	0.0002774
1762	0.0002888
1774	0.0003572
1786	0.000456
1798	0.000437
1810	0.0003914
1822	0.0003496
1834	0.0003686
1846	0.0003762
1858	0.0003192
1870	0.000342
1882	0.0003116
1894	0.0002812
1906	0.0002698
1918	0.0003078
1930	0.00038
1942	0.0004066
1954	0.0004066
1966	0.000361
1978	0.0003458
1990	0.0002926
2002	0.0003002
2014	0.0003572
2026	0.0004408
2038	0.0004522
2050	0.0004066
2062	0.0002774
2074	0.0002014
2086	0.0001672
2098	0.0001786
2110	0.0001748
2122	0.0002014
2134	0.0002736
2146	0.0003154
2158	0.0003306
2170	0.0002584
2182	0.0001596
2194	0.0001444
2206	0.000133
2218	8.74e-05
2230	0.0001634
2242	0.0001976
2254	0.0001748
2266	0.0001178
2278	6.46e-05
2290	2.66e-05
2302	1.52e-05
2314	1.9e-05
2326	6.08e-05
2338	4.56e-05
2350	2.28e-05
2362	7.22e-05
2374	5.7e-05
2386	5.7e-05
2398	4.94e-05
2410	7.6e-05
2422	0.0001026
2434	0.000133
2446	0.0001064
2458	0.0001672
2470	0.000133
2482	0.0001254
2494	9.5e-05
2506	6.46e-05
2518	9.12e-05
2530	8.36e-05
2542	0.000133
2554	0.0001748
2566	9.5e-05
2578	7.6e-05
2590	9.88e-05
2602	0.0001064
2614	0.0001368
2626	0.000171
2638	0.0001824
2650	0.0001862
2662	0.0002318
2674	0.0002584
2686	0.0002926
2698	0.0003952
2710	0.0005282
2722	0.0007524
2734	0.001197
2746	0.0014782
2758	0.001672
2770	0.0013452
2782	0.0013794
2794	0.0016112
2806	0.0017746
2818	0.0022382
2830	0.0027664
2842	0.0037886
2854	0.0063004
2866	0.0139042
2878	0.016606
2890	0.0187264
2902	0.0184794
2914	0.0194028
2926	0.0242022
2938	0.0309548
2950	0.038
2962	0.0362406
2974	0.0296096
2986	0.0226328
2998	0.0202996
3010	0.0241756
3022	0.0163362
3034	0.0115672
3046	0.0090896
3058	0.0093214
3070	0.0107768
3082	0.007638
3094	0.0042788
3106	0.002413
3118	0.0016758
3130	0.0014402
3142	0.0013528
3154	0.0011742
3166	0.0009158
3178	0.0007372
3190	0.0005662
3202	0.0003876
3214	0.0003382
3226	0.000304
3238	0.0003496
3250	0.0002584
3262	0.0002698
3274	0.0002736
3286	0.000247
3298	0.0001672
3310	0.0002166
3322	0.0002356
3334	0.0001178
3346	0.0001444
3358	0.0001406
3370	0.0001976
3382	0.0002394
3394	0.0001938
3406	0.000133
3418	5.7e-05
3430	3.8e-05
3442	6.08e-05
3454	0.0001292
3466	0.0001406
3478	0.0001368
3490	0.0001178
3502	0.000133
3514	7.22e-05
3526	4.56e-05
3538	4.94e-05
3550	3.04e-05
3562	4.56e-05
3574	6.46e-05
3586	0.000114
3598	5.32e-05
3610	8.74e-05
3622	5.32e-05
3634	6.84e-05
3646	7.98e-05
3658	9.88e-05
3670	9.88e-05
3682	0.000133
3694	0.000171
3706	0.0001368
3718	8.74e-05
3730	0.0002128
3742	0.0001748
3754	0.0002052
3766	0.0002166
3778	0.0002204
3790	0.0001102
3802	0.0001748
3814	0.000171
3826	0.000209
3838	0.0003078
