Infrared Spectrum: PYRIDINE, 3-BROMO-, 1-OXIDE
Formula: C5 H4 Br N O
CAS: 2402-97-3
State: SOLUTION (10% CCl4 FOR 3800-1330, 10% CS2 FOR 1330-400 CM^-^1)
Class: COBLENTZ III
Instrument: BECKMAN IR-9 (GRATING)
Instrument parameters: ORDER CHANGES: 670, 1200, 2000 CM^-^1
Sampling: TRANSMISSION
Path length: 0.010 CM, 0.011 CM
Resolution: 2
Origin: DOW CHEMICAL COMPANY
1/CM	TRANSMITTANCE
404	0.0576
413	0.1981
422	0.3605
431	0.5268
440	0.5201
449	0.635
458	0.7104
467	0.7635
476	0.7825
485	0.7771
494	0.4376
503	0.7775
512	0.8106
521	0.8184
530	0.8235
539	0.8125
548	0.3155
557	0.7965
566	0.8186
575	0.8491
584	0.8591
593	0.8664
602	0.8716
611	0.8753
620	0.8745
629	0.8624
638	0.8378
647	0.7947
656	0.7378
665	0.1227
674	0.5526
683	0.7792
692	0.7258
701	0.8685
710	0.8728
719	0.8753
728	0.8783
737	0.88
746	0.8802
755	0.8547
764	0.5814
773	0.1735
782	0.432
791	0.6388
800	0.7788
809	0.8383
818	0.8589
827	0.8552
836	0.8075
845	0.4456
854	0.5712
863	0.6408
872	0.5579
881	0.5899
890	0.299
899	0.272
908	0.7806
917	0.8308
926	0.8612
935	0.8751
944	0.8771
953	0.8742
962	0.8694
971	0.8708
980	0.87
989	0.8107
998	0.6447
1007	0.0001
1016	0.6228
1025	0.8396
1034	0.8678
1043	0.8728
1052	0.8699
1061	0.8466
1070	0.6675
1079	0.5285
1088	0.6091
1097	0.7764
1106	0.8523
1115	0.8684
1124	0.8721
1133	0.8637
1142	0.8172
1151	0.3932
1160	0.5826
1169	0.7575
1178	0.851
1187	0.8661
1196	0.8482
1205	0.8065
1214	0.7571
1223	0.7378
1232	0.6655
1241	0.7239
1250	0.521
1259	0.0002
1268	0.211
1277	0.68
1286	0.2447
1295	0.0005
1304	0.5707
1313	0.6572
1322	0.7796
1331	0.7925
1340	0.7982
1349	0.8135
1358	0.8278
1367	0.8316
1376	0.829
1385	0.8111
1394	0.7401
1403	0.7224
1412	0.3984
1421	0.1055
1430	0.3534
1439	0.5772
1448	0.5672
1457	0.6129
1466	0.0003
1475	0.4667
1484	0.7388
1493	0.748
1502	0.6984
1511	0.6376
1520	0.5279
1529	0.2512
1538	0.1891
1547	0.3958
1556	0.4012
1565	0.4623
1574	0.4994
1583	0.4172
1592	0.0045
1601	0.5458
1610	0.72
1619	0.7482
1628	0.7511
1637	0.7946
1646	0.8061
1655	0.8097
1664	0.8176
1673	0.8218
1682	0.8242
1691	0.8244
1700	0.8121
1709	0.8146
1718	0.838
1727	0.8386
1736	0.8383
1745	0.8388
1754	0.8397
1763	0.841
1772	0.8447
1781	0.8435
1790	0.8535
1799	0.8568
1808	0.8489
1817	0.8474
1826	0.8495
1835	0.8394
1844	0.8443
1853	0.8491
1862	0.8531
1871	0.8554
1880	0.8591
1889	0.8605
1898	0.8466
1907	0.8071
1916	0.837
1925	0.8521
1934	0.8565
1943	0.8561
1952	0.8556
1961	0.8585
1970	0.8588
1979	0.8591
1988	0.8594
1997	0.8574
2006	0.8614
2015	0.8654
2024	0.8674
2033	0.8673
2042	0.8658
2051	0.8628
2060	0.8624
2069	0.8697
2078	0.8712
2087	0.8721
2096	0.8718
2105	0.8702
2114	0.8682
2123	0.8647
2132	0.8601
2141	0.8504
2150	0.8331
2159	0.8311
2168	0.8465
2177	0.8597
2186	0.8573
2195	0.8554
2204	0.8677
2213	0.869
2222	0.8698
2231	0.8702
2240	0.8693
2249	0.8688
2258	0.8665
2267	0.8574
2276	0.844
2285	0.8407
2294	0.8398
2303	0.8391
2312	0.8378
2321	0.8341
2330	0.8324
2339	0.8325
2348	0.8342
2357	0.8374
2366	0.8371
2375	0.8382
2384	0.8402
2393	0.848
2402	0.8515
2411	0.8503
2420	0.8452
2429	0.8439
2438	0.8475
2447	0.855
2456	0.8589
2465	0.8584
2474	0.8528
2483	0.8454
2492	0.8403
2501	0.8366
2510	0.8278
2519	0.8201
2528	0.8335
2537	0.8458
2546	0.8391
2555	0.8285
2564	0.8412
2573	0.8528
2582	0.8493
2591	0.8485
2600	0.849
2609	0.8523
2618	0.8537
2627	0.8548
2636	0.8568
2645	0.8583
2654	0.8594
2663	0.8591
2672	0.8566
2681	0.851
2690	0.8512
2699	0.8539
2708	0.8462
2717	0.8308
2726	0.8165
2735	0.815
2744	0.8302
2753	0.8421
2762	0.85
2771	0.8538
2780	0.8566
2789	0.8588
2798	0.8601
2807	0.86
2816	0.86
2825	0.8594
2834	0.8564
2843	0.8515
2852	0.8464
2861	0.8439
2870	0.8443
2879	0.8447
2888	0.8444
2897	0.8439
2906	0.844
2915	0.8425
2924	0.8371
2933	0.8317
2942	0.8323
2951	0.8312
2960	0.8267
2969	0.826
2978	0.822
2987	0.8101
2996	0.7958
3005	0.7743
3014	0.7575
3023	0.7491
3032	0.7264
3041	0.7011
3050	0.7065
3059	0.6833
3068	0.6536
3077	0.6349
3086	0.6355
3095	0.6412
3104	0.6233
3113	0.589
3122	0.6152
3131	0.6697
3140	0.7395
3149	0.7893
3158	0.8005
3167	0.8058
3176	0.809
3185	0.8105
3194	0.8158
3203	0.8221
3212	0.8278
3221	0.8297
3230	0.8302
3239	0.8306
3248	0.8304
3257	0.8299
3266	0.8294
3275	0.828
3284	0.8264
3293	0.8242
3302	0.822
3311	0.8194
3320	0.8164
3329	0.8133
3338	0.81
3347	0.8065
3356	0.803
3365	0.7986
3374	0.794
3383	0.789
3392	0.7856
3401	0.7833
3410	0.7815
3419	0.7807
3428	0.7818
3437	0.7833
3446	0.7851
3455	0.7871
3464	0.7905
3473	0.7941
3482	0.7981
3491	0.8021
3500	0.8062
3509	0.8108
3518	0.8154
3527	0.8198
3536	0.8236
3545	0.8271
3554	0.8309
3563	0.8345
3572	0.838
3581	0.8405
3590	0.8394
3599	0.8433
3608	0.8468
3617	0.8475
3626	0.8499
3635	0.8534
3644	0.8555
3653	0.8571
3662	0.8581
3671	0.85
3680	0.8384
3689	0.8364
3698	0.849
3707	0.8592
3716	0.8673
3725	0.8686
3734	0.8688
3743	0.8689
3752	0.8688
3761	0.8687
3770	0.8685
3779	0.8683
3788	0.8683
3797	0.8683
