Infrared Spectrum: Alpha-BENZYLIDENE-P-BROMO-ACETOPHENONE
Formula: C15 H11 Br O
CAS: 2403-27-2
State: SOLID (1.0% IN KBr PELLET)
Class: COBLENTZ
Instrument: Not specified, most likely a prism, grating, or hybrid spectrometer.
Sampling: TRANSMISSION
Path length: 0.0355 CM THICK
Resolution: 4
Origin: ANDERSON PHYSICAL LABORATORY
1/CM	TRANSMITTANCE
667.29	0.741
675.701	0.804
684.112	0.5481
692.524	0.3389
700.935	0.818
709.346	0.87
717.757	0.8011
726.169	0.5567
734.58	0.891
742.991	0.842
751.402	0.657
759.813	0.122
768.225	0.6502
776.636	0.8999
785.047	0.878
793.458	0.6828
801.87	0.911
810.281	0.887
818.692	0.749
827.103	0.178
835.515	0.804
843.926	0.834
852.337	0.8841
860.748	0.927
869.159	0.896
877.571	0.9199
885.982	0.894
894.393	0.888
902.804	0.929
911.216	0.926
919.627	0.896
928.038	0.902
936.449	0.902
944.86	0.891
953.272	0.833
961.683	0.852
970.094	0.77
978.505	0.3901
986.917	0.345
995.328	0.551
1003.74	0.5719
1012.15	0.5768
1020.56	0.867
1028.97	0.713
1037.38	0.423
1045.8	0.849
1054.21	0.863
1062.62	0.815
1071.03	0.421
1079.44	0.804
1087.85	0.923
1096.26	0.915
1104.67	0.842
1113.09	0.875
1121.5	0.927
1129.91	0.924
1138.32	0.92
1146.73	0.909
1155.14	0.869
1163.55	0.819
1171.96	0.869
1180.37	0.741
1188.79	0.848
1197.2	0.833
1205.61	0.6901
1214.02	0.597
1222.43	0.39
1230.84	0.822
1239.25	0.894
1247.66	0.885
1256.08	0.875
1264.49	0.843
1272.9	0.7311
1281.31	0.755
1289.72	0.6481
1298.13	0.713
1306.54	0.728
1314.95	0.734
1323.37	0.633
1331.78	0.5329
1340.19	0.3721
1348.6	0.7888
1357.01	0.875
1365.42	0.822
1373.83	0.863
1382.24	0.842
1390.66	0.75
1399.07	0.588
1407.48	0.794
1415.89	0.87
1424.3	0.872
1432.71	0.861
1441.12	0.822
1449.53	0.5732
1457.95	0.8089
1466.36	0.855
1474.77	0.807
1483.18	0.696
1491.59	0.752
1500	0.758
1508.41	0.836
1516.82	0.822
1525.24	0.81
1533.65	0.777
1542.06	0.713
1550.47	0.648
1558.88	0.46
1567.29	0.445
1575.7	0.313
1584.11	0.226
1592.52	0.3548
1600.94	0.078
1609.35	0.2828
1617.76	0.6989
1626.17	0.755
1634.58	0.743
1642.99	0.684
1651.4	0.3249
1659.81	0.2591
1668.23	0.7401
1676.64	0.867
1685.05	0.902
1693.46	0.932
1701.87	0.953
1710.28	0.956
1718.69	0.954
1727.1	0.947
1735.52	0.944
1743.93	0.941
1752.34	0.933
1760.75	0.926
1769.16	0.92
1777.57	0.92
1785.98	0.92
1794.39	0.92
1802.81	0.915
1811.22	0.912
1819.63	0.914
1828.04	0.908
1836.45	0.908
1844.86	0.908
1853.27	0.908
1861.68	0.906
1870.1	0.903
1878.51	0.897
1886.92	0.885
1895.33	0.879
1903.74	0.876
1912.15	0.866
1920.56	0.857
1928.97	0.879
1937.39	0.879
1945.8	0.876
1954.21	0.873
1962.62	0.863
1971.03	0.873
1979.44	0.875
1987.85	0.875
1996.26	0.876
2004.68	0.8727
2013.09	0.871
2021.5	0.87
2029.91	0.869
2038.32	0.8667
2046.73	0.865
2055.14	0.8632
2063.55	0.861
2071.96	0.858
2080.38	0.8575
2088.79	0.857
2097.2	0.855
2105.61	0.854
2114.02	0.854
2122.43	0.854
2130.84	0.8539
2139.25	0.852
2147.67	0.8514
2156.08	0.851
2164.49	0.8478
2172.9	0.8443
2181.31	0.8403
2189.72	0.8373
2198.13	0.836
2206.54	0.834
2214.96	0.833
2223.37	0.831
2231.78	0.8298
2240.19	0.8276
2248.6	0.8258
2257.01	0.8194
2265.42	0.8177
2273.83	0.815
2282.25	0.815
2290.66	0.8121
2299.07	0.81
2307.48	0.809
2315.89	0.809
2324.3	0.8072
2332.71	0.807
2341.12	0.807
2349.54	0.807
2357.95	0.807
2366.36	0.806
2374.77	0.804
2383.18	0.803
2391.59	0.8011
2400	0.7978
2408.41	0.7961
2416.83	0.7943
2425.24	0.792
2433.65	0.791
2442.06	0.789
2450.47	0.788
2458.88	0.788
2467.29	0.7858
2475.7	0.785
2484.11	0.783
2492.53	0.779
2500.94	0.7725
2509.35	0.7705
2517.76	0.7678
2526.17	0.767
2534.58	0.765
2542.99	0.764
2551.4	0.764
2559.82	0.762
2568.23	0.7617
2576.64	0.7599
2585.05	0.7582
2593.46	0.756
2601.87	0.756
2610.28	0.756
2618.69	0.756
2627.11	0.755
2635.52	0.7544
2643.93	0.753
2652.34	0.753
2660.75	0.752
2669.16	0.7514
2677.57	0.75
2685.98	0.7473
2694.4	0.7439
2702.81	0.742
2711.22	0.7362
2719.63	0.7314
2728.04	0.728
2736.45	0.726
2744.86	0.725
2753.27	0.7221
2761.69	0.722
2770.1	0.722
2778.51	0.7208
2786.92	0.72
2795.33	0.72
2803.74	0.7196
2812.15	0.7177
2820.56	0.7142
2828.98	0.713
2837.39	0.7106
2845.8	0.71
2854.21	0.7071
2862.62	0.705
2871.03	0.7027
2879.44	0.6966
2887.85	0.695
2896.27	0.6916
2904.68	0.6896
2913.09	0.6863
2921.5	0.6841
2929.91	0.6838
2938.32	0.6821
2946.73	0.6803
2955.14	0.6712
2963.55	0.6628
2971.97	0.6536
2980.38	0.6458
2988.79	0.6391
2997.2	0.6293
3005.61	0.6265
3014.02	0.624
3022.43	0.624
3030.84	0.6268
3039.26	0.6325
3047.67	0.6383
3056.08	0.644
3064.49	0.6455
3072.9	0.649
3081.31	0.651
3089.72	0.653
3098.13	0.6524
3106.55	0.6505
3114.96	0.648
3123.37	0.6449
3131.78	0.6417
3140.19	0.6363
3148.6	0.6322
3157.01	0.63
3165.42	0.6297
3173.84	0.6278
3182.25	0.6262
3190.66	0.624
3199.07	0.623
3207.48	0.621
3215.89	0.6202
3224.3	0.6198
3232.71	0.617
3241.13	0.614
3249.54	0.6111
3257.95	0.6053
3266.36	0.5996
3274.77	0.597
3283.18	0.5961
3291.59	0.594
3300	0.593
3308.42	0.5884
3316.83	0.5787
3325.24	0.5638
3333.65	0.5586
3342.06	0.5513
3350.47	0.5462
3358.88	0.5417
3367.29	0.539
3375.71	0.5377
3384.12	0.5341
3392.53	0.534
3400.94	0.534
3409.35	0.534
3417.76	0.534
3426.17	0.5344
3434.58	0.537
3442.99	0.539
3451.41	0.5419
3459.82	0.5437
3468.23	0.55
3476.64	0.5535
3485.05	0.555
3493.46	0.5585
3501.87	0.5635
3510.28	0.5667
3518.7	0.57
3527.11	0.5723
3535.52	0.574
3543.93	0.5758
3552.34	0.578
3560.75	0.579
3569.16	0.581
3577.57	0.5818
3585.99	0.5851
3594.4	0.588
3602.81	0.59
3611.22	0.59
3619.63	0.59
3628.04	0.59
3636.45	0.59
3644.86	0.59
3653.28	0.5899
3661.69	0.588
3670.1	0.588
3678.51	0.5872
3686.92	0.587
3695.33	0.585
3703.74	0.585
3712.15	0.585
3720.57	0.584
3728.98	0.582
3737.39	0.5798
3745.8	0.5781
3754.21	0.576
3762.62	0.576
3771.03	0.576
3779.44	0.576
3787.86	0.5759
3796.27	0.5738
3804.68	0.5707
3813.09	0.569
3821.5	0.567
3829.91	0.567
3838.32	0.566
3846.73	0.5631
3855.14	0.561
3863.56	0.561
3871.97	0.56
3880.38	0.56
3888.79	0.56
3897.2	0.558
3905.61	0.557
3914.02	0.5551
3922.43	0.5548
3930.85	0.554
3939.26	0.552
3947.67	0.551
3956.08	0.548
3964.49	0.548
3972.9	0.548
3981.31	0.548
