Infrared Spectrum: N-ISOBUTENYL MORPHOLINE
Formula: C8 H15 N O
CAS: 2403-55-6
Boiling point: 118-122 C AT 150 mmHg
Class: COBLENTZ
Instrument: Not specified, most likely a prism, grating, or hybrid spectrometer.
Sampling: TRANSMISSION
Path length: SMEAR
Resolution: 4
Origin: TENNESSEE EASTMAN COMPANY, RESEARCH LABORATORIES
MICROMETERS	TRANSMITTANCE
2.02	0.991
2.05973	0.993
2.09947	0.993
2.1392	0.993
2.17893	0.993
2.21867	0.991
2.2584	0.985
2.29814	0.975
2.33787	0.973
2.3776	0.973
2.41734	0.973
2.45707	0.973
2.4968	0.973
2.53654	0.973
2.57627	0.973
2.616	0.971
2.65574	0.97
2.69547	0.971
2.73521	0.97
2.77494	0.97
2.81467	0.966
2.85441	0.96
2.89414	0.956
2.93387	0.955
2.97361	0.955
3.01334	0.953
3.05307	0.953
3.09281	0.955
3.13254	0.953
3.17228	0.946
3.21201	0.936
3.25174	0.923
3.29148	0.876
3.33121	0.505
3.37094	0.201
3.41068	0.196
3.45041	0.256
3.49015	0.282
3.52988	0.234
3.56961	0.635
3.60935	0.7
3.64908	0.713
3.68881	0.815
3.72855	0.787
3.76828	0.845
3.80801	0.895
3.84775	0.926
3.88748	0.936
3.92722	0.936
3.96695	0.94
4.00668	0.943
4.04642	0.941
4.08615	0.943
4.12588	0.946
4.16562	0.951
4.20535	0.951
4.24508	0.951
4.28482	0.946
4.32455	0.945
4.36429	0.946
4.40402	0.951
4.44375	0.951
4.48349	0.953
4.52322	0.953
4.56295	0.951
4.60269	0.953
4.64242	0.956
4.68215	0.956
4.72189	0.958
4.76162	0.955
4.80136	0.96
4.84109	0.961
4.88082	0.958
4.92056	0.95
4.96029	0.95
5.00002	0.941
5.03976	0.921
5.07949	0.926
5.11922	0.931
5.15896	0.933
5.19869	0.943
5.23843	0.953
5.27816	0.955
5.31789	0.956
5.35763	0.956
5.39736	0.956
5.43709	0.955
5.47683	0.953
5.51656	0.953
5.55629	0.953
5.59603	0.948
5.63576	0.938
5.6755	0.921
5.71523	0.881
5.75496	0.841
5.7947	0.848
5.83443	0.855
5.87416	0.846
5.9139	0.718
5.95363	0.559
5.99336	0.742
6.0331	0.821
6.07283	0.843
6.11257	0.87
6.1523	0.893
6.19203	0.896
6.23177	0.915
6.2715	0.921
6.31123	0.921
6.35097	0.921
6.3907	0.916
6.43044	0.911
6.47017	0.911
6.5099	0.911
6.54964	0.908
6.58937	0.906
6.6291	0.898
6.66884	0.886
6.70857	0.836
6.7483	0.768
6.78804	0.647
6.82777	0.487
6.86751	0.322
6.90724	0.455
6.94697	0.663
6.98671	0.742
7.02644	0.797
7.06617	0.818
7.10591	0.815
7.14564	0.728
7.18537	0.647
7.22511	0.46
7.26484	0.47
7.30458	0.494
7.34431	0.595
7.38404	0.7
7.42378	0.623
7.46351	0.557
7.50324	0.698
7.54298	0.797
7.58271	0.806
7.62244	0.806
7.66218	0.788
7.70191	0.71
7.74165	0.532
7.78138	0.482
7.82111	0.59
7.86085	0.46
7.90058	0.286
7.94031	0.61
7.98005	0.757
8.01978	0.813
8.05951	0.835
8.09925	0.835
8.13898	0.821
8.17872	0.816
8.21845	0.8
8.25818	0.712
8.29792	0.638
8.33765	0.625
8.37738	0.48
8.41712	0.227
8.45685	0.099
8.49658	0.121
8.53632	0.262
8.57605	0.452
8.61579	0.577
8.65552	0.63
8.69525	0.652
8.73499	0.637
8.77472	0.565
8.81445	0.445
8.85419	0.216
8.89392	0.053
8.93365	0.041
8.97339	0.168
9.01312	0.429
9.05286	0.589
9.09259	0.67
9.13232	0.73
9.17206	0.755
9.21179	0.763
9.25152	0.697
9.29126	0.514
9.33099	0.569
9.37073	0.675
9.41046	0.62
9.45019	0.575
9.48993	0.702
9.52966	0.755
9.56939	0.763
9.60913	0.673
9.64886	0.559
9.68859	0.685
9.72833	0.743
9.76806	0.762
9.8078	0.735
9.84753	0.5
9.88726	0.276
9.927	0.452
9.96673	0.667
10.0065	0.733
10.0462	0.762
10.0859	0.768
10.1257	0.768
10.1654	0.775
10.2051	0.805
10.2449	0.833
10.2846	0.843
10.3243	0.848
10.3641	0.848
10.4038	0.835
10.4435	0.8
10.4833	0.801
10.523	0.831
10.5627	0.848
10.6025	0.86
10.6422	0.865
10.6819	0.866
10.7217	0.853
10.7614	0.821
10.8011	0.758
10.8409	0.738
10.8806	0.803
10.9203	0.838
10.9601	0.85
10.9998	0.853
11.0395	0.856
11.0793	0.858
11.119	0.858
11.1587	0.855
11.1985	0.845
11.2382	0.823
11.2779	0.798
11.3177	0.747
11.3574	0.665
11.3971	0.504
11.4369	0.331
11.4766	0.183
11.5163	0.202
11.5561	0.407
11.5958	0.637
11.6355	0.683
11.6753	0.69
11.715	0.688
11.7547	0.695
11.7945	0.705
11.8342	0.67
11.8739	0.6
11.9137	0.529
11.9534	0.499
11.9931	0.55
12.0329	0.635
12.0726	0.693
12.1123	0.72
12.1521	0.728
12.1918	0.728
12.2315	0.713
12.2713	0.67
12.311	0.623
12.3507	0.622
12.3905	0.68
12.4302	0.74
12.4699	0.785
12.5097	0.806
12.5494	0.825
12.5892	0.84
12.6289	0.85
12.6686	0.855
12.7084	0.863
12.7481	0.868
12.7878	0.871
12.8276	0.876
12.8673	0.88
12.907	0.885
12.9468	0.888
12.9865	0.89
13.0262	0.895
13.066	0.901
13.1057	0.901
13.1454	0.903
13.1852	0.906
13.2249	0.908
13.2646	0.91
13.3044	0.911
13.3441	0.913
13.3838	0.915
13.4236	0.916
13.4633	0.916
13.503	0.916
13.5428	0.918
13.5825	0.918
13.6222	0.918
13.662	0.92
13.7017	0.92
13.7414	0.918
13.7812	0.92
13.8209	0.92
13.8606	0.918
13.9004	0.918
13.9401	0.92
13.9798	0.918
14.0196	0.92
14.0593	0.916
14.099	0.916
14.1388	0.916
14.1785	0.913
14.2182	0.913
14.258	0.91
14.2977	0.908
14.3374	0.905
14.3772	0.903
14.4169	0.9
14.4566	0.9
14.4964	0.898
14.5361	0.895
14.5758	0.891
14.6156	0.89
14.6553	0.888
14.695	0.886
14.7348	0.881
14.7745	0.876
14.8142	0.871
14.854	0.868
14.8937	0.866
14.9334	0.861
14.9732	0.85
15.0129	0.843
15.0526	0.84
15.0924	0.84
15.1321	0.84
15.1718	0.836
15.2116	0.835
15.2513	0.83
15.291	0.828
15.3308	0.82
15.3705	0.808
15.4102	0.803
15.45	0.792
15.4897	0.778
15.5294	0.763
15.5692	0.735
15.6089	0.715
15.6486	0.703
15.6884	0.7
15.7281	0.698
15.7678	0.702
15.8076	0.707
15.8473	0.713
15.887	0.718
15.9268	0.72
15.9665	0.723
