Infrared Spectrum: N-(n-Butyl)benzylamine
Formula: C 11 H 17 N
CAS: 2403-22-7
State: gas
Instrument: HP-GC/MS/IRD
Origin: NIST Mass Spectrometry Data Center
1/CM	ABSORBANCE
550	0.0031906
562	0.0028832
574	0.0043142
586	0.0057452
598	0.0060102
610	0.0047806
622	0.0041976
634	0.005141
646	0.0072716
658	0.0108226
670	0.0170872
682	0.0273374
694	0.0462054
706	0.0442232
718	0.0360188
730	0.0386582
742	0.0351496
754	0.0187408
766	0.0082786
778	0.004081
790	0.0034768
802	0.0036358
814	0.003657
826	0.0026394
838	0.0014946
850	0.000848
862	0.0004664
874	0.0006042
886	0.0009964
898	0.0024804
910	0.0025122
922	0.0021836
934	0.001802
946	0.0019398
958	0.0023108
970	0.0026394
982	0.0025334
994	0.0020988
1006	0.0024274
1018	0.0047382
1030	0.0085542
1042	0.0028196
1054	0.0040174
1066	0.0059254
1078	0.0069218
1090	0.0095718
1102	0.017013
1114	0.0295104
1126	0.0375346
1138	0.0238076
1150	0.0125928
1162	0.0066462
1174	0.0049078
1186	0.0059148
1198	0.0078016
1210	0.0048866
1222	0.0036146
1234	0.0037524
1246	0.003498
1258	0.0034238
1270	0.0034132
1282	0.0041128
1294	0.0057134
1306	0.007261
1318	0.0089676
1330	0.0121052
1342	0.0140768
1354	0.0154548
1366	0.013462
1378	0.0101972
1390	0.00689
1402	0.0047806
1414	0.0054696
1426	0.0096248
1438	0.020829
1450	0.0379692
1462	0.0396864
1474	0.0226628
1486	0.0149778
1498	0.014522
1510	0.0045686
1522	0.0022578
1534	0.0016642
1546	0.001219
1558	0.0011024
1570	0.0014416
1582	0.0024698
1594	0.0044308
1606	0.0046958
1618	0.0015794
1630	0.0005724
1642	0.0004982
1654	0.00053
1666	0.0002438
1678	4.24e-05
1690	0
1702	6.36e-05
1714	0.0001484
1726	0.0002862
1738	0.0004558
1750	0.0004346
1762	0.0004452
1774	0.0008056
1786	0.0016218
1798	0.00265
1810	0.0015264
1822	0.0009116
1834	0.0006996
1846	0.0009434
1858	0.0013568
1870	0.0016218
1882	0.0012826
1894	0.0006678
1906	0.0005724
1918	0.0009116
1930	0.0017172
1942	0.0024168
1954	0.002173
1966	0.0007102
1978	0.0002968
1990	0.0002226
2002	0.0001696
2014	0.000212
2026	0.0002968
2038	0.000371
2050	0.0004134
2062	0.000424
2074	0.0003816
2086	0.0004134
2098	0.0004558
2110	0.0004346
2122	0.0004558
2134	0.000477
2146	0.0005088
2158	0.0004982
2170	0.0005194
2182	0.0005194
2194	0.0005088
2206	0.0004982
2218	0.0004452
2230	0.0004982
2242	0.0005406
2254	0.0005724
2266	0.000583
2278	0.0005618
2290	0.0005406
2302	0.0006466
2314	0.0008586
2326	0.0007844
2338	0.000795
2350	0.0007102
2362	0.0007208
2374	0.0006996
2386	0.0006572
2398	0.0006466
2410	0.0006996
2422	0.0007208
2434	0.0006996
2446	0.0006784
2458	0.000689
2470	0.0006678
2482	0.000689
2494	0.0006996
2506	0.0007632
2518	0.0008374
2530	0.0008798
2542	0.0009752
2554	0.0011554
2566	0.0014204
2578	0.0017066
2590	0.0019504
2602	0.0021094
2614	0.0022048
2626	0.0023426
2638	0.0026182
2650	0.0029892
2662	0.0035192
2674	0.0041234
2686	0.004823
2698	0.0055014
2710	0.0059996
2722	0.006519
2734	0.0076744
2746	0.0090842
2758	0.0100912
2770	0.0119674
2782	0.0166632
2794	0.025228
2806	0.0371106
2818	0.0463326
2830	0.046375
2842	0.0429512
2854	0.0448592
2866	0.051039
2878	0.0582894
2890	0.0584908
2902	0.0585014
2914	0.0754932
2926	0.0986754
2938	0.10477
2950	0.0829026
2962	0.0796484
2974	0.0687198
2986	0.030846
2998	0.0187196
3010	0.0183274
3022	0.0264152
3034	0.0338246
3046	0.0244966
3058	0.0238394
3070	0.035669
3082	0.0246662
3094	0.0163664
3106	0.0100806
3118	0.0056392
3130	0.0030528
3142	0.0022472
3154	0.0018974
3166	0.0019292
3178	0.00159
3190	0.0013038
3202	0.0011872
3214	0.0010388
3226	0.0009116
3238	0.0008162
3250	0.0007314
3262	0.0006996
3274	0.0006572
3286	0.0006466
3298	0.0006466
3310	0.0005512
3322	0.0005936
3334	0.000689
3346	0.0006254
3358	0.0007526
3370	0.0008056
3382	0.0007632
3394	0.0007208
3406	0.0006254
3418	0.0006254
3430	0.0005406
3442	0.00053
3454	0.0005088
3466	0.0004664
3478	0.0004982
3490	0.000477
3502	0.000477
3514	0.0005194
3526	0.0004664
3538	0.0004982
3550	0.0004664
3562	0.0004558
3574	0.0005194
3586	0.0005194
3598	0.0005724
3610	0.0007102
3622	0.000689
3634	0.0007844
3646	0.0008056
3658	0.0009222
3670	0.0008268
3682	0.0007632
3694	0.0007632
3706	0.0007314
3718	0.0007632
3730	0.0007632
3742	0.0007632
3754	0.000795
3766	0.0008586
3778	0.0008056
3790	0.0007526
3802	0.0008692
3814	0.000742
3826	0.0008798
3838	0.0008374
