Infrared Spectrum: N,N-DIETHYL-P-METHYL PHOSPHONAMIDIC ACID, ETHYL ESTER
Formula: C7 H18 N O2 P
CAS: 2404-81-1
State: LIQUID
Boiling point: 54 C AT 1 mmHg
Class: COBLENTZ
Instrument: Not specified, most likely a prism, grating, or hybrid spectrometer.
Sampling: TRANSMISSION
Path length: FILM
Resolution: 4
MICROMETERS	TRANSMITTANCE
2.007	0.9
2.04673	0.901
2.08647	0.903
2.1262	0.901
2.16594	0.912
2.20567	0.907
2.24541	0.89
2.28514	0.894
2.32487	0.896
2.36461	0.904
2.40434	0.908
2.44408	0.903
2.48381	0.911
2.52355	0.912
2.56328	0.911
2.60301	0.912
2.64275	0.915
2.68248	0.908
2.72222	0.894
2.76195	0.87
2.80169	0.819
2.84142	0.823
2.88116	0.839
2.92089	0.864
2.96062	0.88
3.00036	0.887
3.04009	0.888
3.07983	0.895
3.11956	0.898
3.1593	0.898
3.19903	0.892
3.23876	0.882
3.2785	0.85
3.31823	0.439
3.35797	0.536
3.3977	0.536
3.43744	0.588
3.47717	0.717
3.5169	0.849
3.55664	0.886
3.59637	0.896
3.63611	0.898
3.67584	0.905
3.71558	0.916
3.75531	0.916
3.79504	0.923
3.83478	0.921
3.87451	0.924
3.91425	0.925
3.95398	0.933
3.99372	0.928
4.03345	0.921
4.07318	0.923
4.11292	0.927
4.15265	0.929
4.19239	0.935
4.23212	0.935
4.27186	0.933
4.31159	0.932
4.35133	0.935
4.39106	0.932
4.43079	0.931
4.47053	0.933
4.51026	0.933
4.55	0.933
4.58973	0.933
4.62947	0.935
4.6692	0.935
4.70893	0.935
4.74867	0.935
4.7884	0.936
4.82814	0.937
4.86787	0.94
4.90761	0.941
4.94734	0.94
4.98707	0.939
5.02681	0.939
5.06654	0.94
5.10628	0.94
5.14601	0.944
5.18575	0.941
5.22548	0.94
5.26521	0.94
5.30495	0.941
5.34468	0.941
5.38442	0.94
5.42415	0.937
5.46389	0.935
5.50362	0.932
5.54335	0.932
5.58309	0.936
5.62282	0.94
5.66256	0.941
5.70229	0.939
5.74203	0.932
5.78176	0.927
5.8215	0.927
5.86123	0.92
5.90096	0.915
5.9407	0.907
5.98043	0.903
6.02017	0.912
6.0599	0.905
6.09964	0.912
6.13937	0.92
6.1791	0.916
6.21884	0.919
6.25857	0.923
6.29831	0.924
6.33804	0.925
6.37778	0.928
6.41751	0.915
6.45724	0.921
6.49698	0.921
6.53671	0.917
6.57645	0.916
6.61618	0.907
6.65592	0.894
6.69565	0.867
6.73538	0.793
6.77512	0.725
6.81485	0.683
6.85459	0.729
6.89432	0.761
6.93406	0.826
6.97379	0.823
7.01352	0.793
7.05326	0.823
7.09299	0.81
7.13273	0.705
7.17246	0.56
7.2122	0.479
7.25193	0.622
7.29167	0.663
7.3314	0.675
7.37113	0.704
7.41087	0.76
7.4506	0.846
7.49034	0.867
7.53007	0.85
7.56981	0.694
7.60954	0.458
7.64927	0.479
7.68901	0.618
7.72874	0.758
7.76848	0.827
7.80821	0.839
7.84795	0.831
7.88768	0.801
7.92741	0.758
7.96715	0.582
8.00688	0.313
8.04662	0.127
8.08635	0.098
8.12609	0.143
8.16582	0.271
8.20555	0.417
8.24529	0.332
8.28502	0.29
8.32476	0.547
8.36449	0.658
8.40423	0.593
8.44396	0.519
8.48369	0.566
8.52343	0.675
8.56316	0.699
8.6029	0.739
8.64263	0.778
8.68237	0.815
8.7221	0.83
8.76184	0.833
8.80157	0.829
8.8413	0.817
8.88104	0.803
8.92077	0.773
8.96051	0.723
9.00024	0.678
9.03998	0.593
9.07971	0.565
9.11944	0.622
9.15918	0.67
9.19891	0.663
9.23865	0.635
9.27838	0.601
9.31812	0.529
9.35785	0.456
9.39758	0.385
9.43732	0.325
9.47705	0.258
9.51679	0.177
9.55652	0.166
9.59626	0.184
9.63599	0.197
9.67572	0.154
9.71546	0.109
9.75519	0.215
9.79493	0.343
9.83466	0.472
9.8744	0.541
9.91413	0.63
9.95386	0.728
9.9936	0.748
10.0333	0.762
10.0731	0.777
10.1128	0.768
10.1525	0.762
10.1923	0.741
10.232	0.696
10.2717	0.621
10.3115	0.491
10.3512	0.385
10.3909	0.283
10.4307	0.188
10.4704	0.16
10.5101	0.158
10.5499	0.196
10.5896	0.256
10.6293	0.335
10.6691	0.402
10.7088	0.478
10.7486	0.537
10.7883	0.593
10.828	0.656
10.8678	0.723
10.9075	0.753
10.9472	0.753
10.987	0.736
11.0267	0.708
11.0664	0.623
11.1062	0.507
11.1459	0.467
11.1856	0.524
11.2254	0.569
11.2651	0.643
11.3048	0.656
11.3446	0.649
11.3843	0.641
11.424	0.708
11.4638	0.774
11.5035	0.823
11.5432	0.854
11.583	0.878
11.6227	0.888
11.6624	0.895
11.7022	0.901
11.7419	0.905
11.7816	0.911
11.8214	0.912
11.8611	0.911
11.9008	0.911
11.9406	0.912
11.9803	0.905
12.02	0.901
12.0598	0.898
12.0995	0.894
12.1393	0.888
12.179	0.879
12.2187	0.866
12.2585	0.85
12.2982	0.831
12.3379	0.814
12.3777	0.786
12.4174	0.74
12.4571	0.684
12.4969	0.594
12.5366	0.539
12.5763	0.482
12.6161	0.471
12.6558	0.468
12.6955	0.455
12.7353	0.437
12.775	0.418
12.8147	0.398
12.8545	0.398
12.8942	0.471
12.9339	0.544
12.9737	0.578
13.0134	0.671
13.0531	0.658
13.0929	0.639
13.1326	0.61
13.1723	0.597
13.2121	0.618
13.2518	0.639
13.2915	0.656
13.3313	0.667
13.371	0.668
13.4108	0.67
13.4505	0.671
13.4902	0.687
13.53	0.708
13.5697	0.732
13.6094	0.757
13.6492	0.774
13.6889	0.796
13.7286	0.81
13.7684	0.825
13.8081	0.839
13.8478	0.846
13.8876	0.851
13.9273	0.855
13.967	0.856
14.0068	0.858
14.0465	0.859
14.0862	0.858
14.126	0.854
14.1657	0.851
14.2054	0.849
14.2452	0.846
14.2849	0.843
14.3246	0.841
14.3644	0.835
14.4041	0.833
14.4438	0.831
14.4836	0.825
14.5233	0.818
14.563	0.817
14.6028	0.811
14.6425	0.805
14.6822	0.803
14.722	0.798
14.7617	0.793
14.8015	0.784
14.8412	0.776
14.8809	0.765
14.9207	0.757
14.9604	0.749
15.0001	0.748
15.0399	0.735
15.0796	0.728
15.1193	0.717
15.1591	0.704
15.1988	0.694
15.2385	0.69
15.2783	0.684
15.318	0.682
15.3577	0.683
