Infrared Spectrum: Bromocycloheptane
Formula: C 7 H 13 Br
CAS: 2404-35-5
State: gas
Instrument: HP-GC/MS/IRD
Origin: NIST Mass Spectrometry Data Center
1/CM	ABSORBANCE
550	0.0002115
562	8.55e-05
574	0.0002745
586	0.0006975
598	0.0003645
610	9e-06
622	2.7e-05
634	0.000162
646	0.000522
658	0.0010485
670	0.0016965
682	0.0023805
694	0.001539
706	0.0005985
718	0.000603
730	0.0011745
742	0.001197
754	0.000495
766	0.00018
778	0.000108
790	0.0001575
802	0.000369
814	0.000891
826	0.0009405
838	0.0008325
850	0.000684
862	0.000432
874	0.0003555
886	0.000504
898	0.000657
910	0.0008955
922	0.00126
934	0.0017145
946	0.001539
958	0.000747
970	0.0004905
982	0.000729
994	0.000936
1006	0.0008055
1018	0.000666
1030	0.0002835
1042	0.000117
1054	6.75e-05
1066	1.35e-05
1078	3.6e-05
1090	8.1e-05
1102	0.0003555
1114	0.000567
1126	0.0006615
1138	0.0011565
1150	0.0014985
1162	0.000828
1174	0.0005895
1186	0.001215
1198	0.003645
1210	0.005706
1222	0.0036765
1234	0.001368
1246	0.0006975
1258	0.000666
1270	0.00135
1282	0.0019035
1294	0.001107
1306	0.0005715
1318	0.0005805
1330	0.000873
1342	0.001413
1354	0.00153
1366	0.000963
1378	0.0004185
1390	0.000288
1402	0.000351
1414	0.0006345
1426	0.001458
1438	0.003276
1450	0.0057015
1462	0.0059895
1474	0.003294
1486	0.001287
1498	0.000549
1510	0.000306
1522	0.0001755
1534	0.0001305
1546	0.0001035
1558	7.65e-05
1570	0.000108
1582	5.4e-05
1594	7.65e-05
1606	5.4e-05
1618	4.05e-05
1630	4.5e-05
1642	5.4e-05
1654	2.25e-05
1666	4.5e-05
1678	4.95e-05
1690	4.5e-05
1702	5.4e-05
1714	5.4e-05
1726	3.15e-05
1738	4.95e-05
1750	3.15e-05
1762	3.6e-05
1774	3.15e-05
1786	3.6e-05
1798	4.05e-05
1810	4.05e-05
1822	3.6e-05
1834	5.4e-05
1846	4.5e-05
1858	4.05e-05
1870	2.25e-05
1882	2.7e-05
1894	5.4e-05
1906	2.7e-05
1918	4.5e-05
1930	2.7e-05
1942	4.05e-05
1954	2.7e-05
1966	3.15e-05
1978	2.25e-05
1990	1.35e-05
2002	2.7e-05
2014	4.05e-05
2026	4.05e-05
2038	2.25e-05
2050	4.5e-05
2062	4.05e-05
2074	1.8e-05
2086	3.15e-05
2098	2.7e-05
2110	4.95e-05
2122	4.95e-05
2134	4.5e-05
2146	6.75e-05
2158	8.1e-05
2170	0.0001035
2182	9.45e-05
2194	8.1e-05
2206	8.1e-05
2218	8.55e-05
2230	7.2e-05
2242	5.85e-05
2254	6.3e-05
2266	8.1e-05
2278	7.2e-05
2290	8.1e-05
2302	7.2e-05
2314	4.5e-05
2326	5.85e-05
2338	6.75e-05
2350	7.65e-05
2362	3.6e-05
2374	5.85e-05
2386	4.5e-05
2398	4.95e-05
2410	3.6e-05
2422	4.05e-05
2434	3.15e-05
2446	4.95e-05
2458	7.2e-05
2470	7.65e-05
2482	6.75e-05
2494	4.5e-05
2506	6.3e-05
2518	3.6e-05
2530	5.4e-05
2542	8.55e-05
2554	0.0001035
2566	0.0001485
2578	0.000126
2590	0.000108
2602	0.000126
2614	0.0001305
2626	0.00018
2638	0.000243
2650	0.000333
2662	0.0004365
2674	0.0005625
2686	0.000648
2698	0.000612
2710	0.0005265
2722	0.000396
2734	0.000297
2746	0.0002745
2758	0.000306
2770	0.000405
2782	0.000558
2794	0.000801
2806	0.0009855
2818	0.0012105
2830	0.0017865
2842	0.003312
2854	0.007335
2866	0.0123435
2878	0.011205
2890	0.008514
2902	0.0096975
2914	0.0164565
2926	0.033102
2938	0.045
2950	0.0324765
2962	0.0179055
2974	0.0083475
2986	0.003177
2998	0.001413
3010	0.0008955
3022	0.0006975
3034	0.000504
3046	0.000378
3058	0.000315
3070	0.0002565
3082	0.0002385
3094	0.0001845
3106	0.0001755
3118	0.0001485
3130	0.0001485
3142	0.0001125
3154	0.0001395
3166	0.000162
3178	0.000117
3190	0.000153
3202	0.000117
3214	0.000126
3226	0.0001215
3238	0.000117
3250	9e-05
3262	0.000126
3274	8.1e-05
3286	7.2e-05
3298	7.65e-05
3310	5.85e-05
3322	7.65e-05
3334	7.65e-05
3346	2.25e-05
3358	4.05e-05
3370	6.75e-05
3382	0.000135
3394	6.3e-05
3406	9e-05
3418	9.9e-05
3430	7.65e-05
3442	0.0001485
3454	6.75e-05
3466	3.6e-05
3478	0.0001305
3490	7.65e-05
3502	9.45e-05
3514	6.3e-05
3526	4.5e-06
3538	5.85e-05
3550	4.05e-05
3562	4.95e-05
3574	9.45e-05
3586	4.5e-05
3598	0.000126
3610	5.4e-05
3622	7.2e-05
3634	0.000108
3646	6.3e-05
3658	7.65e-05
3670	9.45e-05
3682	9e-05
3694	0.0001305
3706	0.000117
3718	5.85e-05
3730	0.000117
3742	4.95e-05
3754	4.05e-05
3766	0.0001395
3778	0.0001575
3790	0.0001305
3802	9.9e-05
3814	9.9e-05
3826	7.2e-05
3838	0.0001125
