Infrared Spectrum: N,N-DIMETHYL-P-METHYL PHOSPHONAMIDIC ACID, ETHYL ESTER
Formula: C5 H14 N O2 P
CAS: 2404-80-0
State: LIQUID
Boiling point: 55 C AT 1 mmHg
Class: COBLENTZ
Instrument: Not specified, most likely a prism, grating, or hybrid spectrometer.
Sampling: TRANSMISSION
Path length: FILM
Resolution: 4
MICROMETERS	TRANSMITTANCE
2.007	0.887
2.04675	0.888
2.08651	0.891
2.12626	0.893
2.16602	0.893
2.20577	0.884
2.24553	0.851
2.28528	0.86
2.32504	0.873
2.36479	0.881
2.40455	0.877
2.4443	0.879
2.48406	0.891
2.52381	0.893
2.56356	0.891
2.60332	0.897
2.64307	0.908
2.68283	0.913
2.72258	0.913
2.76234	0.908
2.80209	0.893
2.84185	0.881
2.8816	0.887
2.92136	0.897
2.96111	0.907
3.00086	0.907
3.04062	0.907
3.08037	0.9
3.12013	0.901
3.15988	0.893
3.19964	0.88
3.23939	0.857
3.27915	0.799
3.3189	0.436
3.35866	0.229
3.39841	0.213
3.43817	0.175
3.47792	0.274
3.51767	0.427
3.55743	0.444
3.59718	0.715
3.63694	0.814
3.67669	0.893
3.71645	0.926
3.7562	0.934
3.79596	0.929
3.83571	0.934
3.87547	0.936
3.91522	0.94
3.95497	0.946
3.99473	0.949
4.03448	0.945
4.07424	0.94
4.11399	0.95
4.15375	0.958
4.1935	0.962
4.23326	0.966
4.27301	0.97
4.31277	0.961
4.35252	0.965
4.39228	0.966
4.43203	0.968
4.47178	0.966
4.51154	0.958
4.55129	0.958
4.59105	0.965
4.6308	0.964
4.67056	0.965
4.71031	0.962
4.75007	0.957
4.78982	0.964
4.82958	0.969
4.86933	0.978
4.90909	0.984
4.94884	0.985
4.98859	0.976
5.02835	0.958
5.0681	0.954
5.10786	0.954
5.14761	0.972
5.18737	0.977
5.22712	0.98
5.26688	0.976
5.30663	0.982
5.34639	0.97
5.38614	0.966
5.42589	0.964
5.46565	0.95
5.5054	0.933
5.54516	0.936
5.58491	0.949
5.62467	0.957
5.66442	0.965
5.70418	0.953
5.74393	0.948
5.78369	0.94
5.82344	0.937
5.8632	0.936
5.90295	0.934
5.9427	0.922
5.98246	0.905
6.02221	0.892
6.06197	0.893
6.10172	0.908
6.14148	0.918
6.18123	0.924
6.22099	0.922
6.26074	0.921
6.3005	0.922
6.34025	0.918
6.38	0.913
6.41976	0.908
6.45951	0.901
6.49927	0.889
6.53902	0.877
6.57878	0.844
6.61853	0.766
6.65829	0.606
6.69804	0.416
6.7378	0.435
6.77755	0.395
6.81731	0.326
6.85706	0.431
6.89681	0.487
6.93657	0.605
6.97632	0.618
7.01608	0.59
7.05583	0.661
7.09559	0.694
7.13534	0.561
7.1751	0.541
7.21485	0.71
7.25461	0.749
7.29436	0.721
7.33412	0.782
7.37387	0.794
7.41362	0.763
7.45338	0.707
7.49313	0.573
7.53289	0.378
7.57264	0.205
7.6124	0.042
7.65215	0.037
7.69191	0.047
7.73166	0.086
7.77142	0.189
7.81117	0.326
7.85092	0.427
7.89068	0.447
7.93043	0.399
7.97019	0.248
8.00994	0.053
8.0497	0.022
8.08945	0.017
8.12921	0.015
8.16896	0.026
8.20872	0.151
8.24847	0.332
8.28823	0.387
8.32798	0.382
8.36773	0.308
8.40749	0.289
8.44724	0.373
8.487	0.438
8.52675	0.436
8.56651	0.418
8.60626	0.472
8.64602	0.536
8.68577	0.589
8.72553	0.645
8.76528	0.682
8.80503	0.689
8.84479	0.679
8.88454	0.656
8.9243	0.612
8.96405	0.575
9.00381	0.496
9.04356	0.349
9.08332	0.326
9.12307	0.409
9.16283	0.434
9.20258	0.436
9.24234	0.383
9.28209	0.292
9.32184	0.177
9.3616	0.134
9.40135	0.088
9.44111	0.035
9.48086	0.021
9.52062	0.011
9.56037	0.007
9.60013	0.003
9.63988	0.006
9.67964	0.026
9.71939	0.104
9.75915	0.2
9.7989	0.288
9.83865	0.31
9.87841	0.294
9.91816	0.227
9.95792	0.151
9.99767	0.047
10.0374	0.022
10.0772	0.011
10.1169	0.006
10.1567	0.01
10.1964	0.027
10.2362	0.065
10.276	0.1
10.3157	0.099
10.3555	0.062
10.3952	0.038
10.435	0.023
10.4747	0.018
10.5145	0.017
10.5542	0.021
10.594	0.027
10.6337	0.041
10.6735	0.051
10.7133	0.099
10.753	0.13
10.7928	0.203
10.8325	0.281
10.8723	0.345
10.912	0.377
10.9518	0.371
10.9915	0.304
11.0313	0.223
11.071	0.118
11.1108	0.062
11.1506	0.054
11.1903	0.087
11.2301	0.132
11.2698	0.166
11.3096	0.175
11.3493	0.233
11.3891	0.361
11.4288	0.471
11.4686	0.625
11.5083	0.682
11.5481	0.742
11.5879	0.78
11.6276	0.814
11.6674	0.835
11.7071	0.852
11.7469	0.863
11.7866	0.872
11.8264	0.876
11.8661	0.885
11.9059	0.883
11.9456	0.88
11.9854	0.881
12.0252	0.88
12.0649	0.872
12.1047	0.859
12.1444	0.847
12.1842	0.831
12.2239	0.788
12.2637	0.756
12.3034	0.731
12.3432	0.698
12.3829	0.665
12.4227	0.616
12.4625	0.561
12.5022	0.446
12.542	0.338
12.5817	0.249
12.6215	0.162
12.6612	0.071
12.701	0.042
12.7407	0.034
12.7805	0.034
12.8202	0.061
12.86	0.136
12.8998	0.22
12.9395	0.292
12.9793	0.317
13.019	0.281
13.0588	0.245
13.0985	0.217
13.1383	0.211
13.178	0.217
13.2178	0.235
13.2575	0.247
13.2973	0.256
13.3371	0.27
13.3768	0.292
13.4166	0.313
13.4563	0.367
13.4961	0.423
13.5358	0.471
13.5756	0.525
13.6153	0.593
13.6551	0.661
13.6948	0.709
13.7346	0.738
13.7744	0.763
13.8141	0.792
13.8539	0.804
13.8936	0.815
13.9334	0.83
13.9731	0.836
14.0129	0.843
14.0526	0.848
14.0924	0.852
14.1322	0.855
14.1719	0.855
14.2117	0.855
14.2514	0.855
14.2912	0.855
14.3309	0.849
14.3707	0.844
14.4104	0.843
14.4502	0.84
14.4899	0.836
14.5297	0.832
14.5695	0.826
14.6092	0.819
14.649	0.812
14.6887	0.804
14.7285	0.796
14.7682	0.786
14.808	0.772
14.8477	0.759
14.8875	0.739
14.9272	0.714
14.967	0.694
15.0068	0.641
15.0465	0.581
15.0863	0.525
15.126	0.476
15.1658	0.475
15.2055	0.503
15.2453	0.548
15.285	0.589
15.3248	0.632
15.3645	0.633
15.4043	0.632
