Infrared Spectrum: Dibutyl methylphosphonate
Formula: C 9 H 21 O 3 P
CAS: 2404-73-1
State: gas
Origin: EPA-IR VAPOR PHASE LIBRARY
1/CM	ABSORBANCE
501.5	0.01968
513.074	0.01653
524.648	0.01174
536.222	0.00711
547.796	0.00428
559.37	0.00255
570.944	0.00154
582.518	0.00103
594.092	0.0008675
605.666	0.0007952
617.24	0.0008036
628.814	0.0008225
640.388	0.00102
651.962	0.0013
663.536	0.00166
675.11	0.00255
686.684	0.00448
698.258	0.00799
709.832	0.01117
721.406	0.01356
732.98	0.01637
744.554	0.01904
756.128	0.01924
767.702	0.01722
779.276	0.02192
790.85	0.03438
802.423	0.04194
813.997	0.03983
825.571	0.02975
837.145	0.01695
848.719	0.01254
860.293	0.01249
871.867	0.01544
883.441	0.02566
895.015	0.05111
906.589	0.07367
918.163	0.1079
929.737	0.07655
941.311	0.05032
952.885	0.065
964.459	0.09628
976.033	0.14233
987.607	0.12783
999.181	0.11849
1010.76	0.16841
1022.33	0.2456
1033.9	0.202
1045.48	0.15684
1057.05	0.13997
1068.63	0.13631
1080.2	0.10254
1091.77	0.05785
1103.35	0.0346
1114.92	0.02681
1126.49	0.02357
1138.07	0.02057
1149.64	0.0175
1161.22	0.01341
1172.79	0.01003
1184.36	0.00832
1195.94	0.00793
1207.51	0.00896
1219.09	0.01203
1230.66	0.01866
1242.23	0.03063
1253.81	0.06492
1265.38	0.11818
1276.96	0.09069
1288.53	0.05231
1300.1	0.0472
1311.68	0.06492
1323.25	0.0313
1334.83	0.01227
1346.4	0.00843
1357.97	0.00703
1369.55	0.00785
1381.12	0.01332
1392.7	0.01553
1404.27	0.00951
1415.84	0.0089
1427.42	0.01056
1438.99	0.01116
1450.57	0.01336
1462.14	0.01733
1473.71	0.01657
1485.29	0.01091
1496.86	0.00645
1508.44	0.00426
1520.01	0.00324
1531.58	0.00266
1543.16	0.00232
1554.73	0.00204
1566.31	0.00182
1577.88	0.00168
1589.45	0.00147
1601.03	0.00128
1612.6	0.0012
1624.18	0.00116
1635.75	0.00113
1647.32	0.00112
1658.9	0.00122
1670.47	0.00137
1682.05	0.00149
1693.62	0.00158
1705.19	0.00165
1716.77	0.00183
1728.34	0.00203
1739.92	0.00202
1751.49	0.00206
1763.06	0.00213
1774.64	0.00216
1786.21	0.00212
1797.79	0.0021
1809.36	0.00219
1820.93	0.00208
1832.51	0.00185
1844.08	0.00177
1855.66	0.00183
1867.23	0.00176
1878.8	0.0015
1890.38	0.00121
1901.95	0.001
1913.53	0.0008307
1925.1	0.0007521
1936.67	0.0007232
1948.25	0.000749
1959.82	0.0007735
1971.4	0.0007818
1982.97	0.0007974
1994.54	0.0007798
2006.12	0.0007899
2017.69	0.0008028
2029.27	0.0007963
2040.84	0.0007997
2052.41	0.0007697
2063.99	0.0006928
2075.56	0.0006338
2087.14	0.0006137
2098.71	0.0006873
2110.28	0.0006836
2121.86	0.0006292
2133.43	0.0005474
2145.01	0.0004847
2156.58	0.0004474
2168.15	0.0004807
2179.73	0.0005333
2191.3	0.0005891
2202.88	0.0005675
2214.45	0.00054
2226.02	0.0004485
2237.6	0.0003987
2249.17	0.0003796
2260.74	0.0003553
2272.32	0.0003848
2283.89	0.000415
2295.47	0.0004191
2307.04	0.0004028
2318.61	0.0003721
2330.19	0.0004221
2341.76	0.0004347
2353.34	0.0004225
2364.91	0.0003721
2376.48	0.0003954
2388.06	0.0004243
2399.63	0.000457
2411.21	0.0004245
2422.78	0.0004112
2434.35	0.0003949
2445.93	0.0003372
2457.5	0.0003441
2469.08	0.0002979
2480.65	0.0003148
2492.22	0.000319
2503.8	0.0004041
2515.37	0.0005083
2526.95	0.0005434
2538.52	0.0004778
2550.09	0.0004441
2561.67	0.0005353
2573.24	0.0005881
2584.82	0.0006604
2596.39	0.0006761
2607.96	0.0006983
2619.54	0.0006856
2631.11	0.000696
2642.69	0.0007757
2654.26	0.0008844
2665.83	0.0011
2677.41	0.00129
2688.98	0.00141
2700.56	0.00159
2712.13	0.00179
2723.7	0.00208
2735.28	0.00263
2746.85	0.00336
2758.43	0.00359
2770	0.00352
2781.57	0.00352
2793.15	0.00383
2804.72	0.00453
2816.3	0.00573
2827.87	0.00776
2839.44	0.01149
2851.02	0.01809
2862.59	0.02634
2874.17	0.04148
2885.74	0.05615
2897.31	0.05561
2908.89	0.06121
2920.46	0.06928
2932.04	0.08291
2943.61	0.10714
2955.18	0.11781
2966.76	0.14036
2978.33	0.10669
2989.91	0.0502
3001.48	0.02811
3013.05	0.01701
3024.63	0.01021
3036.2	0.00734
3047.78	0.00551
3059.35	0.00429
3070.92	0.00357
3082.5	0.00312
3094.07	0.00279
3105.65	0.00255
3117.22	0.00228
3128.79	0.00201
3140.37	0.00186
3151.94	0.00174
3163.52	0.00158
3175.09	0.00148
3186.66	0.00137
3198.24	0.00121
3209.81	0.00105
3221.39	0.0008828
3232.96	0.0007291
3244.53	0.0006415
3256.11	0.0005112
3267.68	0.0004674
3279.26	0.0004018
3290.83	0.0003983
3302.4	0.0004274
3313.98	0.0003717
3325.55	0.0003209
3337.13	0.0003064
3348.7	0.000303
3360.27	0.0002761
3371.85	0.0002943
3383.42	0.0002893
3395	0.000245
3406.57	0.0002439
3418.14	0.0002313
3429.72	0.0002046
3441.29	0.0001954
3452.86	0.0002149
3464.44	0.000173
3476.01	0.0001073
3487.59	0.0001697
3499.16	0.0001581
3510.73	5.535e-05
3522.31	7.878e-05
3533.88	0.0001205
3545.46	7.269e-05
3557.03	7.65e-05
3568.6	9.192e-05
3580.18	0.0001037
3591.75	7.603e-05
3603.33	0.0001271
3614.9	0.0001372
3626.47	0.0002217
3638.05	0.0002714
3649.62	0.0002713
3661.2	0.000251
3672.77	0.0002831
3684.34	0.0003658
3695.92	0.00043
3707.49	0.0004212
3719.07	0.0004433
3730.64	0.0004476
3742.21	0.0004927
3753.79	0.0004359
3765.36	0.000442
3776.94	0.0004464
3788.51	0.0004243
3800.08	0.0004447
3811.66	0.0005627
3823.23	0.0006213
3834.81	0.0007197
3846.38	0.0006763
3857.95	0.0006593
3869.53	0.0006293
3881.1	0.0006154
3892.68	0.0006751
3904.25	0.000637
3915.82	0.00073
3927.4	0.0007367
3938.97	0.0006854
3950.55	0.0006544
3962.12	0.0006786
3973.69	0.0006717
3985.27	0.000832
3996.84	0.0008726
