Infrared Spectrum: 2,4-THIAZOLIDINEDIONE, 5-(M-NITROBENZYLIDENE)-
Formula: C10 H6 N2 O4 S
CAS: 24044-52-8
State: SOLID (KBr PELLET)
Melting point: 287 C DECOMPOSES
Class: COBLENTZ
Instrument: Not specified, most likely a prism, grating, or hybrid spectrometer.
Sampling: TRANSMISSION
Resolution: 4
Origin: TENNESSEE EASTMAN COMPANY, RESEARCH LABORATORIES
MICROMETERS	TRANSMITTANCE
1.993	0.951
2.0341	0.95
2.07519	0.95
2.11629	0.951
2.15739	0.953
2.19849	0.958
2.23958	0.958
2.28068	0.96
2.32178	0.962
2.36287	0.967
2.40397	0.972
2.44507	0.974
2.48616	0.977
2.52726	0.977
2.56836	0.977
2.60946	0.977
2.65055	0.979
2.69165	0.97
2.73275	0.849
2.77384	0.725
2.81494	0.648
2.85604	0.588
2.89714	0.54
2.93823	0.566
2.97933	0.668
3.02043	0.758
3.06152	0.802
3.10262	0.833
3.14372	0.869
3.18481	0.881
3.22591	0.864
3.26701	0.871
3.30811	0.873
3.3492	0.886
3.3903	0.883
3.4314	0.898
3.47249	0.931
3.51359	0.95
3.55469	0.95
3.59579	0.933
3.63688	0.915
3.67798	0.909
3.71908	0.898
3.76017	0.89
3.80127	0.879
3.84237	0.871
3.88346	0.864
3.92456	0.862
3.96566	0.864
4.00676	0.867
4.04785	0.871
4.08895	0.869
4.13005	0.867
4.17114	0.867
4.21224	0.869
4.25334	0.871
4.29444	0.871
4.33553	0.885
4.37663	0.905
4.41773	0.924
4.45882	0.933
4.49992	0.934
4.54102	0.938
4.58211	0.948
4.62321	0.957
4.66431	0.965
4.70541	0.97
4.7465	0.975
4.7876	0.981
4.8287	0.982
4.86979	0.981
4.91089	0.981
4.95199	0.981
4.99309	0.975
5.03418	0.951
5.07528	0.941
5.11638	0.938
5.15747	0.924
5.19857	0.902
5.23967	0.883
5.28076	0.867
5.32186	0.861
5.36296	0.85
5.40406	0.85
5.44515	0.85
5.48625	0.854
5.52735	0.857
5.56844	0.849
5.60954	0.813
5.65064	0.763
5.69174	0.696
5.73283	0.617
5.77393	0.548
5.81503	0.365
5.85612	0.188
5.89722	0.111
5.93832	0.226
5.97941	0.471
6.02051	0.619
6.06161	0.643
6.10271	0.6
6.1438	0.497
6.1849	0.432
6.226	0.399
6.26709	0.401
6.30819	0.307
6.34929	0.325
6.39039	0.492
6.43148	0.433
6.47258	0.162
6.51368	0.337
6.55477	0.732
6.59587	0.84
6.63697	0.888
6.67807	0.886
6.71916	0.83
6.76026	0.874
6.80136	0.9
6.84245	0.919
6.88355	0.917
6.92465	0.902
6.96574	0.924
7.00684	0.948
7.04794	0.951
7.08904	0.953
7.13013	0.951
7.17123	0.941
7.21233	0.917
7.25342	0.855
7.29452	0.722
7.33562	0.403
7.37672	0.133
7.41781	0.308
7.45891	0.353
7.50001	0.348
7.5411	0.296
7.5822	0.264
7.6233	0.262
7.66439	0.349
7.70549	0.423
7.74659	0.6
7.78769	0.691
7.82878	0.766
7.86988	0.809
7.91098	0.828
7.95207	0.833
7.99317	0.823
8.03427	0.794
8.07537	0.725
8.11646	0.595
8.15756	0.48
8.19866	0.43
8.23975	0.492
8.28085	0.547
8.32195	0.636
8.36304	0.679
8.40414	0.694
8.44524	0.692
8.48634	0.656
8.52743	0.651
8.56853	0.674
8.60963	0.722
8.65072	0.773
8.69182	0.811
8.73292	0.831
8.77402	0.845
8.81511	0.85
8.85621	0.855
8.89731	0.857
8.9384	0.847
8.9795	0.804
9.0206	0.783
9.06169	0.782
9.10279	0.782
9.14389	0.813
9.18499	0.825
9.22608	0.826
9.26718	0.84
9.30828	0.847
9.34937	0.854
9.39047	0.864
9.43157	0.867
9.47267	0.871
9.51376	0.871
9.55486	0.871
9.59596	0.869
9.63705	0.855
9.67815	0.833
9.71925	0.801
9.76034	0.78
9.80144	0.775
9.84254	0.799
9.88364	0.814
9.92473	0.821
9.96583	0.823
10.0069	0.833
10.048	0.84
10.0891	0.843
10.1302	0.847
10.1713	0.843
10.2124	0.845
10.2535	0.85
10.2946	0.85
10.3357	0.85
10.3768	0.852
10.4179	0.854
10.459	0.852
10.5001	0.852
10.5412	0.852
10.5823	0.854
10.6234	0.847
10.6645	0.833
10.7056	0.807
10.7467	0.783
10.7878	0.768
10.8289	0.768
10.87	0.744
10.9111	0.737
10.9522	0.761
10.9933	0.789
11.0344	0.814
11.0755	0.838
11.1165	0.861
11.1576	0.874
11.1987	0.883
11.2398	0.888
11.2809	0.888
11.322	0.888
11.3631	0.888
11.4042	0.888
11.4453	0.888
11.4864	0.89
11.5275	0.902
11.5686	0.907
11.6097	0.91
11.6508	0.912
11.6919	0.912
11.733	0.914
11.7741	0.912
11.8152	0.912
11.8563	0.9
11.8974	0.85
11.9385	0.789
11.9796	0.754
12.0207	0.753
12.0618	0.797
12.1029	0.837
12.144	0.862
12.1851	0.873
12.2262	0.874
12.2673	0.873
12.3084	0.85
12.3495	0.816
12.3906	0.783
12.4317	0.77
12.4728	0.773
12.5138	0.811
12.5549	0.867
12.596	0.895
12.6371	0.903
12.6782	0.907
12.7193	0.91
12.7604	0.91
12.8015	0.91
12.8426	0.909
12.8837	0.907
12.9248	0.902
12.9659	0.874
13.007	0.819
13.0481	0.768
13.0892	0.732
13.1303	0.699
13.1714	0.651
13.2125	0.579
13.2536	0.53
13.2947	0.526
13.3358	0.627
13.3769	0.716
13.418	0.797
13.4591	0.845
13.5002	0.857
13.5413	0.859
13.5824	0.838
13.6235	0.806
13.6646	0.802
13.7057	0.857
13.7468	0.893
13.7879	0.917
13.829	0.927
13.8701	0.933
13.9111	0.936
13.9522	0.938
13.9933	0.939
14.0344	0.941
14.0755	0.939
14.1166	0.927
14.1577	0.886
14.1988	0.849
14.2399	0.818
14.281	0.802
14.3221	0.801
14.3632	0.813
14.4043	0.833
14.4454	0.842
14.4865	0.852
14.5276	0.857
14.5687	0.859
14.6098	0.859
14.6509	0.837
14.692	0.814
14.7331	0.778
14.7742	0.742
14.8153	0.703
14.8564	0.672
14.8975	0.636
14.9386	0.607
14.9797	0.583
15.0208	0.569
15.0619	0.569
15.103	0.638
15.1441	0.696
15.1852	0.751
15.2263	0.794
15.2674	0.811
15.3084	0.823
15.3495	0.828
15.3906	0.828
15.4317	0.83
15.4728	0.83
15.5139	0.83
15.555	0.83
15.5961	0.83
15.6372	0.828
15.6783	0.826
15.7194	0.816
15.7605	0.804
15.8016	0.787
15.8427	0.768
15.8838	0.751
15.9249	0.74
15.966	0.734
