Infrared Spectrum: Ethyl 2-isothiocyanatoacetate
Formula: C 5 H 7 N O 2 S
CAS: 24066-82-8
State: gas
Origin: EPA-IR VAPOR PHASE LIBRARY
1/CM	ABSORBANCE
549.8	0.008642
559.445	0.008972
569.09	0.008582
578.734	0.007862
588.379	0.006982
598.024	0.006092
607.669	0.005042
617.313	0.004822
626.958	0.004632
636.603	0.004932
646.248	0.004972
655.893	0.005532
665.537	0.006592
675.182	0.007242
684.827	0.007952
694.472	0.008952
704.116	0.009672
713.761	0.010142
723.406	0.010762
733.051	0.011512
742.695	0.010292
752.34	0.008352
761.985	0.006052
771.63	0.004522
781.275	0.003292
790.919	0.002432
800.564	0.002252
810.209	0.001592
819.854	0.001802
829.498	0.002142
839.143	0.002722
848.788	0.004662
858.433	0.006392
868.078	0.006232
877.722	0.004402
887.367	0.003692
897.012	0.004292
906.657	0.005832
916.301	0.008212
925.946	0.008872
935.591	0.007622
945.236	0.005682
954.88	0.004362
964.525	0.003882
974.17	0.003802
983.815	0.004102
993.46	0.005692
1003.1	0.010202
1012.75	0.021202
1022.39	0.038252
1032.04	0.043762
1041.68	0.030872
1051.33	0.017342
1060.97	0.011282
1070.62	0.008652
1080.26	0.008372
1089.91	0.011072
1099.55	0.013562
1109.2	0.012922
1118.84	0.012362
1128.49	0.013202
1138.13	0.015352
1147.78	0.020732
1157.42	0.031042
1167.07	0.053362
1176.71	0.093462
1186.36	0.141232
1196	0.136242
1205.64	0.081522
1215.29	0.054202
1224.93	0.045662
1234.58	0.046332
1244.22	0.052982
1253.87	0.059822
1263.51	0.061512
1273.16	0.054242
1282.8	0.040102
1292.45	0.029302
1302.09	0.025762
1311.74	0.025862
1321.38	0.029022
1331.03	0.027452
1340.67	0.020282
1350.32	0.015192
1359.96	0.013642
1369.61	0.016672
1379.25	0.015692
1388.9	0.009242
1398.54	0.007622
1408.18	0.007072
1417.83	0.007672
1427.47	0.011872
1437.12	0.016692
1446.76	0.013822
1456.41	0.008662
1466.05	0.008282
1475.7	0.007672
1485.34	0.005602
1494.99	0.003982
1504.63	0.002952
1514.28	0.002502
1523.92	0.002172
1533.57	0.001952
1543.21	0.001922
1552.86	0.001922
1562.5	0.001772
1572.15	0.001652
1581.79	0.001592
1591.44	0.001502
1601.08	0.001512
1610.73	0.001542
1620.37	0.001502
1630.01	0.001382
1639.66	0.001572
1649.3	0.001572
1658.95	0.001672
1668.59	0.001922
1678.24	0.002222
1687.88	0.002872
1697.53	0.003682
1707.17	0.005242
1716.82	0.008012
1726.46	0.012762
1736.11	0.021442
1745.75	0.043612
1755.4	0.097242
1765.04	0.112942
1774.69	0.074162
1784.33	0.050832
1793.98	0.029112
1803.62	0.016222
1813.27	0.010152
1822.91	0.006742
1832.55	0.005032
1842.2	0.004162
1851.84	0.003792
1861.49	0.003732
1871.13	0.004112
1880.78	0.004562
1890.42	0.005122
1900.07	0.005752
1909.71	0.006732
1919.36	0.008292
1929	0.010372
1938.65	0.013302
1948.29	0.017102
1957.94	0.022022
1967.58	0.028922
1977.23	0.038732
1986.87	0.052962
1996.52	0.073532
2006.16	0.102012
2015.81	0.140172
2025.45	0.190162
2035.1	0.250902
2044.74	0.305922
2054.38	0.308852
2064.03	0.260262
2073.67	0.194072
2083.32	0.141872
2092.96	0.107312
2102.61	0.081132
2112.25	0.059662
2121.9	0.043552
2131.54	0.033462
2141.19	0.027792
2150.83	0.024652
2160.48	0.023202
2170.12	0.022872
2179.77	0.023022
2189.41	0.021732
2199.06	0.018262
2208.7	0.014882
2218.35	0.013002
2227.99	0.012392
2237.64	0.012162
2247.28	0.012122
2256.92	0.011622
2266.57	0.010882
2276.21	0.009982
2285.86	0.008652
2295.5	0.007122
2305.15	0.005642
2314.79	0.004482
2324.44	0.003522
2334.08	0.003062
2343.73	0.002842
2353.37	0.002572
2363.02	0.002462
2372.66	0.002292
2382.31	0.002052
2391.95	0.001942
2401.6	0.001822
2411.24	0.001602
2420.89	0.001522
2430.53	0.0012995
2440.18	0.001412
2449.82	0.0013142
2459.47	0.001362
2469.11	0.001412
2478.75	0.001402
2488.4	0.001572
2498.04	0.001622
2507.69	0.001632
2517.33	0.001702
2526.98	0.001712
2536.62	0.001762
2546.27	0.002002
2555.91	0.002122
2565.56	0.002252
2575.2	0.002412
2584.85	0.002432
2594.49	0.002312
2604.14	0.002162
2613.78	0.001772
2623.43	0.001612
2633.07	0.001382
2642.72	0.001382
2652.36	0.0012595
2662.01	0.0011939
2671.65	0.001362
2681.29	0.001472
2690.94	0.001592
2700.58	0.001672
2710.23	0.001962
2719.87	0.002482
2729.52	0.003052
2739.16	0.003722
2748.81	0.004222
2758.45	0.004352
2768.1	0.004362
2777.74	0.004092
2787.39	0.003742
2797.03	0.003392
2806.68	0.003092
2816.32	0.002972
2825.97	0.002982
2835.61	0.003242
2845.26	0.003602
2854.9	0.004192
2864.55	0.004342
2874.19	0.004772
2883.84	0.005502
2893.48	0.006092
2903.12	0.006662
2912.77	0.008292
2922.41	0.010572
2932.06	0.015442
2941.7	0.021632
2951.35	0.020552
2960.99	0.016202
2970.64	0.016632
2980.28	0.021912
2989.93	0.025582
2999.57	0.020312
3009.22	0.013912
3018.86	0.009692
3028.51	0.005852
3038.15	0.003882
3047.8	0.002722
3057.44	0.002022
3067.09	0.001632
3076.73	0.001522
3086.38	0.001362
3096.02	0.0012374
3105.67	0.0012181
3115.31	0.000992
3124.95	0.0011189
3134.6	0.001068
3144.24	0.0009153
3153.89	0.0007319
3163.53	0.000838
3173.18	0.0007994
3182.82	0.0005995
3192.47	0.0005711
3202.11	0.0005995
3211.76	0.0006018
3221.4	0.0004786
3231.05	0.0004886
3240.69	0.00036219
3250.34	0.000351641
3259.98	0.00036872
3269.63	0.000345006
3279.27	0.000478
3288.92	0.000159
3298.56	0.00041574
3308.21	0.000321
3317.85	0.00033692
3327.49	0.0002527
3337.14	0.000163
3346.78	0.00040954
3356.43	0.0003165
3366.07	0.00040048
3375.72	0.00037625
3385.36	0.00044106
3395.01	0.00038818
3404.65	0.00034752
3414.3	0.00043016
3423.94	0.00044165
3433.59	0.00042487
3443.23	0.00039244
3452.88	0.000523
3462.52	0.0006407
3472.17	0.0006263
3481.81	0.0007362
3491.46	0.0010535
3501.1	0.001402
3510.75	0.001452
3520.39	0.0011112
3530.04	0.0011858
3539.68	0.0009955
3549.32	0.0007276
3558.97	0.0004991
3568.61	0.00036545
3578.26	0.0005705
3587.9	0.0002707
3597.55	0
3607.19	0.00035498
3616.84	0.000255
3626.48	0.0002803
3636.13	0.0004487
3645.77	0.00037265
3655.42	0.000112
3665.06	0.000165
3674.71	0.000186
3684.35	0.000151
3694	0.0004474
3703.64	0.0002694
3713.29	0.0002884
3722.93	0.00033919
3732.58	0.000226
3742.22	0.0003107
3751.86	0.00029
3761.51	0.000228
3771.15	0.00039921
3780.8	0.00043379
3790.44	0.00043446
3800.09	0.0002726
3809.73	0.00037522
3819.38	0.00044126
3829.02	0.00043908
3838.67	0.0003056
3848.31	0.00037681
3857.96	0.0005047
3867.6	0.00035553
3877.25	0.0007223
3886.89	0.0007195
3896.54	0.0007352
3906.18	0.00038678
3915.83	0.0005471
3925.47	0.0007751
3935.12	0.0007308
3944.76	0.0007597
3954.41	0.0009092
3964.05	0.0007748
3973.69	0.0009137
3983.34	0.000939
3992.98	0.0012395
