Infrared Spectrum: 5-Chlorothiophene-2-carboxylic acid
Formula: C 5 H 3 Cl O 2 S
CAS: 24065-33-6
State: gas
Origin: EPA-IR VAPOR PHASE LIBRARY
1/CM	ABSORBANCE
549.8	0.015975
559.445	0.015605
569.09	0.016965
578.734	0.011585
588.379	0.006955
598.024	0.003675
607.669	0.003045
617.313	0.002865
626.958	0.003195
636.603	0.006755
646.248	0.013255
655.893	0.013385
665.537	0.005105
675.182	0.003365
684.827	0.004305
694.472	0.010315
704.116	0.033425
713.761	0.032415
723.406	0.011715
733.051	0.020455
742.695	0.033705
752.34	0.029635
761.985	0.017505
771.63	0.008215
781.275	0.006245
790.919	0.008975
800.564	0.012995
810.209	0.017985
819.854	0.010355
829.498	0.004215
839.143	0.002175
848.788	0.001665
858.433	0.0012104
868.078	0.0011393
877.722	0.001895
887.367	0.0012826
897.012	0.001595
906.657	0.001855
916.301	0.0013196
925.946	0.001515
935.591	0.001615
945.236	0.001825
954.88	0.002145
964.525	0.003645
974.17	0.006545
983.815	0.011735
993.46	0.020435
1003.1	0.026495
1012.75	0.018615
1022.39	0.017435
1032.04	0.036545
1041.68	0.065235
1051.33	0.064805
1060.97	0.050755
1070.62	0.065035
1080.26	0.056815
1089.91	0.017525
1099.55	0.009045
1109.2	0.007725
1118.84	0.008755
1128.49	0.012915
1138.13	0.029545
1147.78	0.062485
1157.42	0.080955
1167.07	0.081595
1176.71	0.077815
1186.36	0.049335
1196	0.018195
1205.64	0.018825
1215.29	0.022565
1224.93	0.015385
1234.58	0.007145
1244.22	0.008225
1253.87	0.010605
1263.51	0.016935
1273.16	0.023835
1282.8	0.023595
1292.45	0.016025
1302.09	0.012545
1311.74	0.016605
1321.38	0.018345
1331.03	0.014975
1340.67	0.016255
1350.32	0.029025
1359.96	0.040505
1369.61	0.026415
1379.25	0.006985
1388.9	0.005675
1398.54	0.009355
1408.18	0.027585
1417.83	0.102425
1427.47	0.167055
1437.12	0.088225
1446.76	0.014375
1456.41	0.007515
1466.05	0.004845
1475.7	0.004155
1485.34	0.005075
1494.99	0.005515
1504.63	0.004585
1514.28	0.005355
1523.92	0.011835
1533.57	0.017725
1543.21	0.012185
1552.86	0.005345
1562.5	0.003195
1572.15	0.002085
1581.79	0.001975
1591.44	0.002055
1601.08	0.002985
1610.73	0.003955
1620.37	0.003925
1630.01	0.002825
1639.66	0.002235
1649.3	0.002075
1658.95	0.002225
1668.59	0.003235
1678.24	0.004745
1687.88	0.005815
1697.53	0.005935
1707.17	0.007325
1716.82	0.010665
1726.46	0.020405
1736.11	0.056755
1745.75	0.165995
1755.4	0.261135
1765.04	0.187335
1774.69	0.051355
1784.33	0.017255
1793.98	0.009125
1803.62	0.006185
1813.27	0.005375
1822.91	0.005635
1832.55	0.004785
1842.2	0.003425
1851.84	0.002565
1861.49	0.002635
1871.13	0.002575
1880.78	0.003005
1890.42	0.003455
1900.07	0.002575
1909.71	0.001455
1919.36	0.0010132
1929	0.0009291
1938.65	0.0007096
1948.29	0.0007358
1957.94	0.000848
1967.58	0.0008758
1977.23	0.0007683
1986.87	0.0008147
1996.52	0.0009629
2006.16	0.0009188
2015.81	0.0012914
2025.45	0.0013506
2035.1	0.001153
2044.74	0.0010636
2054.38	0.0010836
2064.03	0.0013241
2073.67	0.0013115
2083.32	0.0012246
2092.96	0.000949
2102.61	0.0008163
2112.25	0.0011518
2121.9	0.001316
2131.54	0.001375
2141.19	0.0011963
2150.83	0.0009212
2160.48	0.000732
2170.12	0.0007972
2179.77	0.0006264
2189.41	0.0007506
2199.06	0.0008234
2208.7	0.0011348
2218.35	0.0009676
2227.99	0.0009634
2237.64	0.0008398
2247.28	0.000732
2256.92	0.0007828
2266.57	0.0008547
2276.21	0.0008882
2285.86	0.0010482
2295.5	0.001485
2305.15	0.001915
2314.79	0.002365
2324.44	0.002455
2334.08	0.002485
2343.73	0.002205
2353.37	0.002445
2363.02	0.003115
2372.66	0.002565
2382.31	0.001475
2391.95	0.0008134
2401.6	0.0010357
2411.24	0.0009516
2420.89	0.0012672
2430.53	0.0012062
2440.18	0.0010173
2449.82	0.0011114
2459.47	0.0009799
2469.11	0.0011789
2478.75	0.0011679
2488.4	0.0011484
2498.04	0.001111
2507.69	0.0009958
2517.33	0.0010011
2526.98	0.0007953
2536.62	0.0009821
2546.27	0.0007176
2555.91	0.0008008
2565.56	0.0009624
2575.2	0.0011179
2584.85	0.0009821
2594.49	0.0010003
2604.14	0.0008477
2613.78	0.000814
2623.43	0.00041977
2633.07	0.0006576
2642.72	0.0007884
2652.36	0.0006394
2662.01	0.0007473
2671.65	0.0007753
2681.29	0.0009147
2690.94	0.0009385
2700.58	0.00119
2710.23	0.0011245
2719.87	0.0011021
2729.52	0.0008986
2739.16	0.0008251
2748.81	0.0009435
2758.45	0.0010051
2768.1	0.0005688
2777.74	0.0008475
2787.39	0.0007535
2797.03	0.0008969
2806.68	0.0007072
2816.32	0.000997
2825.97	0.000903
2835.61	0.0007603
2845.26	0.0007077
2854.9	0.0008205
2864.55	0.0005648
2874.19	0.0009516
2883.84	0.0008844
2893.48	0.0006413
2903.12	0.0006555
2912.77	0.0007297
2922.41	0.0008902
2932.06	0.0007857
2941.7	0.0007206
2951.35	0.0005951
2960.99	0.0008419
2970.64	0.0006145
2980.28	0.0007376
2989.93	0.0005133
2999.57	0.0006591
3009.22	0.0007817
3018.86	0.0008059
3028.51	0.0008872
3038.15	0.0009942
3047.8	0.00091
3057.44	0.0008748
3067.09	0.0007339
3076.73	0.0007028
3086.38	0.0009238
3096.02	0.0011339
3105.67	0.0012687
3115.31	0.0011241
3124.95	0.0011924
3134.6	0.0006081
3144.24	0.0006011
3153.89	0.0005716
3163.53	0.0009477
3173.18	0.0013437
3182.82	0.0013184
3192.47	0.0009886
3202.11	0.0006808
3211.76	0.00051
3221.4	0.0009003
3231.05	0.00038646
3240.69	0.0002944
3250.34	0.0005889
3259.98	0.0007838
3269.63	0.0005976
3279.27	0.0008103
3288.92	0.0006647
3298.56	0.0006268
3308.21	0.0005506
3317.85	0.0009128
3327.49	0.0010125
3337.14	0.0003534
3346.78	0.0006627
3356.43	0.0005477
3366.07	0.00042223
3375.72	0.0005572
3385.36	0.000547
3395.01	0.0007245
3404.65	0.0006409
3414.3	0.0005384
3423.94	0.0006059
3433.59	0.0007612
3443.23	0.0008611
3452.88	0.000914
3462.52	0.0009041
3472.17	0.001365
3481.81	0.001975
3491.46	0.002515
3501.1	0.002225
3510.75	0.001705
3520.39	0.0011696
3530.04	0.0012307
3539.68	0.0013024
3549.32	0.001845
3558.97	0.004065
3568.61	0.016225
3578.26	0.072805
3587.9	0.082075
3597.55	0.020875
3607.19	0.003215
3616.84	0.001865
3626.48	0.0012037
3636.13	0.0012023
3645.77	0.0010921
3655.42	0.0007842
3665.06	0.0007587
3674.71	0.0007505
3684.35	0.0009827
3694	0.0008893
3703.64	0.0006048
3713.29	0.0007909
3722.93	0.0010025
3732.58	0.0008791
3742.22	0.0006554
3751.86	0.0008557
3761.51	0.0007545
3771.15	0.0005856
3780.8	0.00039433
3790.44	0.0005659
3800.09	0.00067
3809.73	0.0008956
3819.38	0.0008584
3829.02	0.0007644
3838.67	0.0006085
3848.31	0.0007582
3857.96	0.0005924
3867.6	0.000593
3877.25	0.0011252
3886.89	0.000629
3896.54	0.0004752
3906.18	0.0005411
3915.83	0.00040821
3925.47	0.0005293
3935.12	0.0006515
3944.76	0.0006635
3954.41	0.0009321
3964.05	0.0009871
3973.69	0.0005328
3983.34	0.0006072
3992.98	0.0006857
