Infrared Spectrum: 2-Methylcyclopentanol
Formula: C 6 H 12 O
CAS: 24070-77-7
State: gas
Instrument: HP-GC/MS/IRD
Origin: NIST Mass Spectrometry Data Center
1/CM	ABSORBANCE
550	0.0002838
562	0.000165
574	0.0001254
586	1.65e-05
598	0.0001749
610	0.0001617
622	0.0001287
634	0.0001089
646	7.59e-05
658	0.0001089
670	4.29e-05
682	9.24e-05
694	0.0001056
706	9.24e-05
718	8.91e-05
730	0.0001287
742	0.0001584
754	0.0001419
766	0.0001716
778	0.0003234
790	0.0003927
802	0.0003861
814	0.0004653
826	0.0004818
838	0.0006402
850	0.0008085
862	0.0008811
874	0.0008712
886	0.000924
898	0.0009273
910	0.0008844
922	0.0009834
934	0.0015774
946	0.0025278
958	0.0033198
970	0.003531
982	0.0034452
994	0.0035838
1006	0.0040557
1018	0.0046233
1030	0.0047784
1042	0.0049962
1054	0.0055869
1066	0.0061347
1078	0.0058707
1090	0.0047586
1102	0.0033429
1114	0.0026136
1126	0.0023661
1138	0.0023661
1150	0.0023628
1162	0.0024288
1174	0.0025773
1186	0.0026466
1198	0.002607
1210	0.0025509
1222	0.0026994
1234	0.0028446
1246	0.0028644
1258	0.0027621
1270	0.0026862
1282	0.0025773
1294	0.0024519
1306	0.0023166
1318	0.0021384
1330	0.0019899
1342	0.0019899
1354	0.0021516
1366	0.0024255
1378	0.0026664
1390	0.0023628
1402	0.0016434
1414	0.0011385
1426	0.0011616
1438	0.0017985
1450	0.0025938
1462	0.0030492
1474	0.0024519
1486	0.001617
1498	0.0007821
1510	0.0003729
1522	0.0002178
1534	0.0001254
1546	9.57e-05
1558	8.91e-05
1570	8.25e-05
1582	8.91e-05
1594	9.57e-05
1606	9.24e-05
1618	7.26e-05
1630	6.93e-05
1642	7.92e-05
1654	4.62e-05
1666	6.27e-05
1678	4.62e-05
1690	5.61e-05
1702	3.63e-05
1714	9.9e-06
1726	2.64e-05
1738	2.31e-05
1750	2.64e-05
1762	4.62e-05
1774	5.61e-05
1786	1.98e-05
1798	2.64e-05
1810	1.32e-05
1822	2.31e-05
1834	3.96e-05
1846	4.29e-05
1858	5.61e-05
1870	1.65e-05
1882	1.65e-05
1894	2.31e-05
1906	2.31e-05
1918	9.9e-06
1930	2.64e-05
1942	1.98e-05
1954	9.9e-06
1966	3.3e-06
1978	6.6e-06
1990	1.32e-05
2002	3.3e-06
2014	9.9e-06
2026	9.9e-06
2038	1.98e-05
2050	9.9e-06
2062	1.32e-05
2074	1.65e-05
2086	1.32e-05
2098	3.3e-05
2110	1.98e-05
2122	3.63e-05
2134	6.27e-05
2146	4.62e-05
2158	5.61e-05
2170	7.26e-05
2182	2.97e-05
2194	4.29e-05
2206	3.63e-05
2218	2.31e-05
2230	3.63e-05
2242	3.63e-05
2254	4.95e-05
2266	6.27e-05
2278	5.28e-05
2290	6.93e-05
2302	5.61e-05
2314	7.59e-05
2326	6.27e-05
2338	7.92e-05
2350	9.9e-05
2362	7.92e-05
2374	7.59e-05
2386	5.61e-05
2398	8.58e-05
2410	7.26e-05
2422	6.27e-05
2434	8.91e-05
2446	9.9e-05
2458	9.57e-05
2470	9.9e-05
2482	9.9e-05
2494	7.26e-05
2506	8.25e-05
2518	0.0001122
2530	0.0001122
2542	0.0001287
2554	0.0001584
2566	0.0001419
2578	0.0001683
2590	0.0002079
2602	0.0002244
2614	0.0002343
2626	0.0002409
2638	0.0002277
2650	0.0002541
2662	0.0002607
2674	0.0002574
2686	0.0003135
2698	0.0003564
2710	0.0003795
2722	0.000462
2734	0.0005313
2746	0.0005676
2758	0.0005643
2770	0.0005808
2782	0.0005907
2794	0.0006699
2806	0.0008514
2818	0.0011847
2830	0.0016896
2842	0.0025707
2854	0.0046233
2866	0.0087318
2878	0.0129096
2890	0.0147246
2902	0.0150183
2914	0.0154077
2926	0.0172194
2938	0.0210738
2950	0.0272547
2962	0.0326997
2974	0.0243936
2986	0.012936
2998	0.0049203
3010	0.0023727
3022	0.0014256
3034	0.0009933
3046	0.0007623
3058	0.000627
3070	0.0005841
3082	0.0004884
3094	0.0003894
3106	0.0003597
3118	0.0003432
3130	0.0002871
3142	0.0002904
3154	0.0002805
3166	0.0002706
3178	0.0002277
3190	0.0001848
3202	0.0001287
3214	0.0001056
3226	9.9e-05
3238	4.95e-05
3250	6.93e-05
3262	6.93e-05
3274	5.94e-05
3286	7.59e-05
3298	7.92e-05
3310	7.59e-05
3322	5.94e-05
3334	3.3e-05
3346	4.29e-05
3358	5.28e-05
3370	9.9e-05
3382	5.94e-05
3394	0.0001122
3406	0.0001089
3418	0.0001221
3430	0.000132
3442	0.0001386
3454	0.0001518
3466	0.0001419
3478	0.0001419
3490	0.0001221
3502	0.0001089
3514	0.0001287
3526	0.0001089
3538	0.000132
3550	8.91e-05
3562	7.92e-05
3574	8.91e-05
3586	8.91e-05
3598	0.0001716
3610	0.0002442
3622	0.0004521
3634	0.0010758
3646	0.0020295
3658	0.0023991
3670	0.0017589
3682	0.0007194
3694	0.0002673
3706	0.0002079
3718	0.0001089
3730	8.58e-05
3742	8.91e-05
3754	0.0001221
3766	0.0001287
3778	0.0001518
3790	0.0001584
3802	0.0001254
3814	0.0001452
3826	0.0001683
3838	0.0002145
