Infrared Spectrum: p-Octyloxybenzaldehyde
Formula: C 15 H 22 O 2
CAS: 24083-13-4
State: gas
Origin: EPA-IR VAPOR PHASE LIBRARY
1/CM	ABSORBANCE
549.8	0.001433
559.445	0.001213
569.09	0.001363
578.734	0.001673
588.379	0.002633
598.024	0.004913
607.669	0.006993
617.313	0.008663
626.958	0.003813
636.603	0.003283
646.248	0.004993
655.893	0.003733
665.537	0.001523
675.182	0.0010466
684.827	0.0010718
694.472	0.001153
704.116	0.001343
713.761	0.001893
723.406	0.002133
733.051	0.002043
742.695	0.002313
752.34	0.002503
761.985	0.002963
771.63	0.003043
781.275	0.003123
790.919	0.003743
800.564	0.005933
810.209	0.008943
819.854	0.014493
829.498	0.019733
839.143	0.017063
848.788	0.017503
858.433	0.012533
868.078	0.005533
877.722	0.003513
887.367	0.002703
897.012	0.002703
906.657	0.002833
916.301	0.002543
925.946	0.002473
935.591	0.002553
945.236	0.002993
954.88	0.003603
964.525	0.005023
974.17	0.005873
983.815	0.007333
993.46	0.008593
1003.1	0.009653
1012.75	0.011473
1022.39	0.013963
1032.04	0.015803
1041.68	0.014243
1051.33	0.010163
1060.97	0.008173
1070.62	0.006273
1080.26	0.004543
1089.91	0.004603
1099.55	0.004763
1109.2	0.005603
1118.84	0.005193
1128.49	0.004703
1138.13	0.006003
1147.78	0.016033
1157.42	0.075653
1167.07	0.037023
1176.71	0.008983
1186.36	0.008933
1196	0.017283
1205.64	0.031883
1215.29	0.035463
1224.93	0.044913
1234.58	0.055653
1244.22	0.076293
1253.87	0.082523
1263.51	0.048013
1273.16	0.022893
1282.8	0.017813
1292.45	0.023833
1302.09	0.032873
1311.74	0.022263
1321.38	0.012373
1331.03	0.008153
1340.67	0.006573
1350.32	0.006063
1359.96	0.005193
1369.61	0.005263
1379.25	0.008493
1388.9	0.013163
1398.54	0.007673
1408.18	0.005263
1417.83	0.006033
1427.47	0.007513
1437.12	0.005633
1446.76	0.006673
1456.41	0.008913
1466.05	0.012473
1475.7	0.014923
1485.34	0.008423
1494.99	0.012943
1504.63	0.036443
1514.28	0.022403
1523.92	0.006543
1533.57	0.004253
1543.21	0.004133
1552.86	0.004883
1562.5	0.008313
1572.15	0.020063
1581.79	0.035913
1591.44	0.051853
1601.08	0.087943
1610.73	0.048413
1620.37	0.015993
1630.01	0.007133
1639.66	0.004663
1649.3	0.004003
1658.95	0.004033
1668.59	0.005233
1678.24	0.007583
1687.88	0.010433
1697.53	0.019033
1707.17	0.047203
1716.82	0.112683
1726.46	0.044623
1736.11	0.010623
1745.75	0.004423
1755.4	0.002763
1765.04	0.002223
1774.69	0.001733
1784.33	0.001353
1793.98	0.001303
1803.62	0.0011393
1813.27	0.0010216
1822.91	0.0008643
1832.55	0.0008913
1842.2	0.0008936
1851.84	0.0009427
1861.49	0.0009873
1871.13	0.0009748
1880.78	0.0011239
1890.42	0.001433
1900.07	0.001543
1909.71	0.0011233
1919.36	0.0010597
1929	0.0010649
1938.65	0.0010034
1948.29	0.0009107
1957.94	0.0010777
1967.58	0.001183
1977.23	0.001273
1986.87	0.001283
1996.52	0.001393
2006.16	0.001753
2015.81	0.001843
2025.45	0.001423
2035.1	0.001333
2044.74	0.001233
2054.38	0.0011481
2064.03	0.0011088
2073.67	0.0010025
2083.32	0.0009338
2092.96	0.0008716
2102.61	0.0008448
2112.25	0.000711
2121.9	0.0006039
2131.54	0.0005442
2141.19	0.0005909
2150.83	0.000541
2160.48	0.0005059
2170.12	0.0005011
2179.77	0.0004898
2189.41	0.0005033
2199.06	0.0003645
2208.7	0.0004935
2218.35	0.0004584
2227.99	0.0004372
2237.64	0.0005042
2247.28	0.0004386
2256.92	0.0005936
2266.57	0.0006841
2276.21	0.0006357
2285.86	0.000562
2295.5	0.0006397
2305.15	0.0006213
2314.79	0.0007114
2324.44	0.0006179
2334.08	0.0004717
2343.73	0.0004798
2353.37	0.0005251
2363.02	0.0005816
2372.66	0.0005595
2382.31	0.0005851
2391.95	0.0007217
2401.6	0.0008473
2411.24	0.0009329
2420.89	0.0009738
2430.53	0.0009213
2440.18	0.000953
2449.82	0.0010707
2459.47	0.001107
2469.11	0.0009981
2478.75	0.000938
2488.4	0.0009223
2498.04	0.001163
2507.69	0.001263
2517.33	0.001183
2526.98	0.001233
2536.62	0.001423
2546.27	0.001723
2555.91	0.001713
2565.56	0.001713
2575.2	0.001643
2584.85	0.001673
2594.49	0.001703
2604.14	0.001553
2613.78	0.001503
2623.43	0.001363
2633.07	0.001223
2642.72	0.001433
2652.36	0.001523
2662.01	0.001793
2671.65	0.002553
2681.29	0.003833
2690.94	0.004903
2700.58	0.006613
2710.23	0.010513
2719.87	0.015863
2729.52	0.015833
2739.16	0.009963
2748.81	0.006403
2758.45	0.005193
2768.1	0.005243
2777.74	0.006643
2787.39	0.009323
2797.03	0.011263
2806.68	0.011823
2816.32	0.013213
2825.97	0.011293
2835.61	0.009513
2845.26	0.011553
2854.9	0.019463
2864.55	0.028713
2874.19	0.027623
2883.84	0.025163
2893.48	0.022353
2903.12	0.025243
2912.77	0.035103
2922.41	0.052653
2932.06	0.072223
2941.7	0.069573
2951.35	0.052413
2960.99	0.042593
2970.64	0.036723
2980.28	0.019733
2989.93	0.010773
2999.57	0.007203
3009.22	0.005593
3018.86	0.004943
3028.51	0.005103
3038.15	0.005373
3047.8	0.003603
3057.44	0.002973
3067.09	0.003403
3076.73	0.004143
3086.38	0.003313
3096.02	0.003073
3105.67	0.002733
3115.31	0.001913
3124.95	0.001293
3134.6	0.001253
3144.24	0.0008124
3153.89	0.0010137
3163.53	0.0007553
3173.18	0.0007923
3182.82	0.0006744
3192.47	0.0008357
3202.11	0.0007443
3211.76	0.0005381
3221.4	0.0004415
3231.05	0.0003024
3240.69	0.0004599
3250.34	0.00017705
3259.98	0.0002741
3269.63	0.00025294
3279.27	0.0003013
3288.92	0.00023734
3298.56	0.0003287
3308.21	0.0003865
3317.85	0.00023731
3327.49	0.0003582
3337.14	0.00018207
3346.78	0.0004268
3356.43	0.0003523
3366.07	0.0003228
3375.72	0.0002968
3385.36	0.0004932
3395.01	0.0008357
3404.65	0.001213
3414.3	0.001673
3423.94	0.001203
3433.59	0.0005772
3443.23	0.0004806
3452.88	0.0004318
3462.52	0.0003782
3472.17	0.0003497
3481.81	0.0003
3491.46	0.0001017
3501.1	0.0003159
3510.75	0.00015199
3520.39	0.0002598
3530.04	0.000376
3539.68	0.00021752
3549.32	0.0003374
3558.97	0.00021789
3568.61	0.0001025
3578.26	0.00022046
3587.9	0.0002855
3597.55	0.0004491
3607.19	0.0002688
3616.84	0.0001182
3626.48	0.0002327
3636.13	0.0002791
3645.77	0.0003637
3655.42	0.0004587
3665.06	0.0003362
3674.71	0.0004103
3684.35	0.0003251
3694	0.0003689
3703.64	0.0003616
3713.29	0.0003688
3722.93	0.000448
3732.58	0.00018243
3742.22	0.0001768
3751.86	0.00021573
3761.51	0.0003116
3771.15	0.0003119
3780.8	0.0003926
3790.44	0.0003589
3800.09	0.00018706
3809.73	0.0002991
3819.38	0.0004377
3829.02	0.00024203
3838.67	0.0003255
3848.31	0.0003714
3857.96	0.0004315
3867.6	0.0004444
3877.25	0.0004706
3886.89	0.0003635
3896.54	0.0004083
3906.18	0.0004053
3915.83	0.0004103
3925.47	0.0003449
3935.12	0.0004462
3944.76	0.0005478
3954.41	0.0004326
3964.05	0.00024312
3973.69	0.0005291
3983.34	0.0004529
3992.98	0.0005718
