Infrared Spectrum: 2,2,6-Trimethylcyclohexanone
Formula: C 9 H 16 O
CAS: 2408-37-9
State: gas
Instrument: HP-GC/MS/IRD
Origin: NIST Mass Spectrometry Data Center
1/CM	ABSORBANCE
550	0.0008775
562	0.000195
574	5.46e-05
586	6.63e-05
598	3.12e-05
610	7.41e-05
622	0.0001755
634	0.0001287
646	4.68e-05
658	0.0001287
670	0.0001443
682	0
694	0.0001521
706	0.0001443
718	0.0002652
730	0.000312
742	0.000351
754	0.0002652
766	0.0001872
778	0.0002613
790	0.0003042
802	0.0004212
814	0.0003549
826	0.0004797
838	0.0007293
850	0.001677
862	0.0019305
874	0.0009399
886	0.0005499
898	0.0004095
910	0.0004095
922	0.000546
934	0.0009633
946	0.0016887
958	0.0025506
970	0.0029679
982	0.0044382
994	0.0051012
1006	0.0039195
1018	0.0035607
1030	0.0024648
1042	0.0015678
1054	0.0014937
1066	0.0011154
1078	0.0008229
1090	0.001209
1102	0.0022074
1114	0.0039117
1126	0.0041418
1138	0.0021255
1150	0.0008814
1162	0.0007527
1174	0.0007332
1186	0.0006903
1198	0.0007761
1210	0.0009009
1222	0.0007956
1234	0.0008034
1246	0.0009009
1258	0.0007605
1270	0.0007488
1282	0.0009048
1294	0.0010803
1306	0.0013923
1318	0.0013572
1330	0.0012831
1342	0.0016926
1354	0.0024219
1366	0.0038142
1378	0.0051324
1390	0.0048672
1402	0.0020592
1414	0.0010062
1426	0.0012285
1438	0.002691
1450	0.00585
1462	0.0079638
1474	0.0059475
1486	0.0026559
1498	0.0009477
1510	0.0005343
1522	0.0004407
1534	0.0003549
1546	0.0002886
1558	0.0003042
1570	0.0003081
1582	0.0002808
1594	0.0003042
1606	0.0003159
1618	0.0004095
1630	0.0004797
1642	0.0006474
1654	0.000897
1666	0.00117
1678	0.0017862
1690	0.003393
1702	0.0105534
1714	0.0250692
1726	0.0244374
1738	0.0075192
1750	0.0018486
1762	0.0010725
1774	0.000819
1786	0.0006513
1798	0.000429
1810	0.0002808
1822	0.0002301
1834	0.0002301
1846	0.0002223
1858	0.0001872
1870	0.0001482
1882	0.0001209
1894	0.0001092
1906	9.75e-05
1918	9.75e-05
1930	0.0001014
1942	8.97e-05
1954	7.8e-05
1966	7.8e-05
1978	6.63e-05
1990	6.63e-05
2002	5.07e-05
2014	7.41e-05
2026	5.85e-05
2038	5.85e-05
2050	4.29e-05
2062	2.73e-05
2074	2.34e-05
2086	1.95e-05
2098	5.07e-05
2110	5.85e-05
2122	7.02e-05
2134	3.9e-05
2146	3.9e-05
2158	5.07e-05
2170	4.29e-05
2182	5.07e-05
2194	3.51e-05
2206	5.07e-05
2218	5.07e-05
2230	5.07e-05
2242	2.34e-05
2254	1.95e-05
2266	4.68e-05
2278	7.8e-05
2290	8.58e-05
2302	0.0001053
2314	8.19e-05
2326	0.0001092
2338	8.58e-05
2350	8.97e-05
2362	9.75e-05
2374	8.19e-05
2386	0.0001131
2398	0.0001209
2410	0.000117
2422	0.0001209
2434	8.97e-05
2446	0.0001053
2458	0.0001092
2470	7.8e-05
2482	0.0001209
2494	0.0001248
2506	0.0001326
2518	0.0001248
2530	0.0001287
2542	0.0001443
2554	0.000156
2566	0.000156
2578	0.0001755
2590	0.0001911
2602	0.000195
2614	0.0002457
2626	0.0002613
2638	0.000312
2650	0.0003861
2662	0.0004095
2674	0.0004251
2686	0.0003588
2698	0.0003159
2710	0.0003159
2722	0.0004251
2734	0.0005187
2746	0.0005421
2758	0.0005538
2770	0.0006435
2782	0.000702
2794	0.0008502
2806	0.0010725
2818	0.0013533
2830	0.0017277
2842	0.0029718
2854	0.0070239
2866	0.012012
2878	0.014352
2890	0.0126126
2902	0.0117078
2914	0.017082
2926	0.0284934
2938	0.039
2950	0.0277875
2962	0.0182364
2974	0.0217737
2986	0.0182676
2998	0.0076713
3010	0.0022737
3022	0.0012012
3034	0.0009672
3046	0.0008853
3058	0.000819
3070	0.0007293
3082	0.0006903
3094	0.0006825
3106	0.0006045
3118	0.0005187
3130	0.0004758
3142	0.0005109
3154	0.0005109
3166	0.0005187
3178	0.000468
3190	0.0004095
3202	0.0003354
3214	0.0003666
3226	0.0002613
3238	0.0002262
3250	0.0001911
3262	0.0002262
3274	0.0002184
3286	0.0002262
3298	0.0002184
3310	0.0001521
3322	0.0001872
3334	0.0001482
3346	0.0001677
3358	0.0001482
3370	0.0001638
3382	0.0001989
3394	0.0002691
3406	0.0004407
3418	0.0005226
3430	0.0005265
3442	0.0002847
3454	0.0001833
3466	0.0001365
3478	9.75e-05
3490	0.0001209
3502	0.0001092
3514	9.75e-05
3526	8.97e-05
3538	5.46e-05
3550	6.24e-05
3562	0.0001014
3574	2.73e-05
3586	4.68e-05
3598	1.95e-05
3610	6.24e-05
3622	1.95e-05
3634	7.8e-05
3646	7.02e-05
3658	3.9e-05
3670	7.41e-05
3682	4.68e-05
3694	3.12e-05
3706	8.58e-05
3718	8.97e-05
3730	0.0001482
3742	0.0001521
3754	0.0001443
3766	8.58e-05
3778	8.97e-05
3790	9.36e-05
3802	0.0001911
3814	0.0002028
3826	0.0001521
3838	0.0001131
