Infrared Spectrum: p-Dodecyloxybenzaldehyde
Formula: C 19 H 30 O 2
CAS: 24083-19-0
State: gas
Origin: EPA-IR VAPOR PHASE LIBRARY
1/CM	ABSORBANCE
549.8	0.00255
559.445	0.00231
569.09	0.00208
578.734	0.00274
588.379	0.00603
598.024	0.01042
607.669	0.01529
617.313	0.01947
626.958	0.00852
636.603	0.00721
646.248	0.01074
655.893	0.00811
665.537	0.00336
675.182	0.00215
684.827	0.00194
694.472	0.00272
704.116	0.00397
713.761	0.00563
723.406	0.00598
733.051	0.00568
742.695	0.00572
752.34	0.00638
761.985	0.00668
771.63	0.00666
781.275	0.00708
790.919	0.00851
800.564	0.0134
810.209	0.02021
819.854	0.03254
829.498	0.04558
839.143	0.03897
848.788	0.03963
858.433	0.0267
868.078	0.01317
877.722	0.00776
887.367	0.0058
897.012	0.00542
906.657	0.00575
916.301	0.00602
925.946	0.00656
935.591	0.00638
945.236	0.00656
954.88	0.00781
964.525	0.00991
974.17	0.01201
983.815	0.01402
993.46	0.01757
1003.1	0.02297
1012.75	0.02961
1022.39	0.0348
1032.04	0.03294
1041.68	0.02782
1051.33	0.0232
1060.97	0.0193
1070.62	0.01534
1080.26	0.01175
1089.91	0.00985
1099.55	0.01078
1109.2	0.01211
1118.84	0.0099
1128.49	0.0103
1138.13	0.0135
1147.78	0.03653
1157.42	0.17348
1167.07	0.08159
1176.71	0.02145
1186.36	0.02064
1196	0.0383
1205.64	0.0731
1215.29	0.0822
1224.93	0.10159
1234.58	0.12618
1244.22	0.17364
1253.87	0.18631
1263.51	0.10779
1273.16	0.05288
1282.8	0.04138
1292.45	0.05515
1302.09	0.07675
1311.74	0.05204
1321.38	0.02964
1331.03	0.02008
1340.67	0.01727
1350.32	0.0173
1359.96	0.01501
1369.61	0.01446
1379.25	0.02058
1388.9	0.03069
1398.54	0.01789
1408.18	0.0124
1417.83	0.0146
1427.47	0.01815
1437.12	0.01529
1446.76	0.01992
1456.41	0.028
1466.05	0.0351
1475.7	0.03709
1485.34	0.02011
1494.99	0.03001
1504.63	0.08271
1514.28	0.04958
1523.92	0.01544
1533.57	0.01008
1543.21	0.0095
1552.86	0.01098
1562.5	0.01868
1572.15	0.04537
1581.79	0.08117
1591.44	0.11637
1601.08	0.19924
1610.73	0.10773
1620.37	0.03587
1630.01	0.0162
1639.66	0.01061
1649.3	0.0089
1658.95	0.009
1668.59	0.0118
1678.24	0.01681
1687.88	0.02319
1697.53	0.04268
1707.17	0.10595
1716.82	0.25786
1726.46	0.09698
1736.11	0.02382
1745.75	0.01
1755.4	0.00605
1765.04	0.00487
1774.69	0.00398
1784.33	0.00317
1793.98	0.00296
1803.62	0.00264
1813.27	0.00226
1822.91	0.00204
1832.55	0.00199
1842.2	0.00197
1851.84	0.00208
1861.49	0.00211
1871.13	0.00206
1880.78	0.00235
1890.42	0.0032
1900.07	0.00334
1909.71	0.00244
1919.36	0.00221
1929	0.00216
1938.65	0.00203
1948.29	0.00196
1957.94	0.00226
1967.58	0.00245
1977.23	0.00267
1986.87	0.00284
1996.52	0.00317
2006.16	0.00386
2015.81	0.00406
2025.45	0.0033
2035.1	0.00291
2044.74	0.0028
2054.38	0.00262
2064.03	0.00234
2073.67	0.00224
2083.32	0.00205
2092.96	0.00198
2102.61	0.00176
2112.25	0.00153
2121.9	0.00133
2131.54	0.00121
2141.19	0.0012
2150.83	0.00114
2160.48	0.00102
2170.12	0.0009923
2179.77	0.0009094
2189.41	0.0009917
2199.06	0.0009574
2208.7	0.0009924
2218.35	0.00105
2227.99	0.0011
2237.64	0.00106
2247.28	0.00118
2256.92	0.00133
2266.57	0.00149
2276.21	0.00145
2285.86	0.00135
2295.5	0.0013
2305.15	0.00137
2314.79	0.00152
2324.44	0.0015
2334.08	0.00108
2343.73	0.00115
2353.37	0.00112
2363.02	0.00135
2372.66	0.0013
2382.31	0.00143
2391.95	0.0016
2401.6	0.00195
2411.24	0.00218
2420.89	0.00214
2430.53	0.00197
2440.18	0.00226
2449.82	0.00248
2459.47	0.00244
2469.11	0.00232
2478.75	0.00224
2488.4	0.00247
2498.04	0.00257
2507.69	0.00281
2517.33	0.00293
2526.98	0.00288
2536.62	0.00329
2546.27	0.00391
2555.91	0.00414
2565.56	0.00399
2575.2	0.00402
2584.85	0.00403
2594.49	0.00407
2604.14	0.00383
2613.78	0.00381
2623.43	0.00366
2633.07	0.00365
2642.72	0.00386
2652.36	0.00426
2662.01	0.00503
2671.65	0.00675
2681.29	0.00955
2690.94	0.01231
2700.58	0.01604
2710.23	0.02461
2719.87	0.03667
2729.52	0.03705
2739.16	0.02325
2748.81	0.01529
2758.45	0.01278
2768.1	0.01306
2777.74	0.01626
2787.39	0.02324
2797.03	0.02822
2806.68	0.02937
2816.32	0.03363
2825.97	0.03058
2835.61	0.02876
2845.26	0.0397
2854.9	0.07839
2864.55	0.11537
2874.19	0.09019
2883.84	0.07439
2893.48	0.06906
2903.12	0.08564
2912.77	0.12737
2922.41	0.20782
2932.06	0.30234
2941.7	0.24943
2951.35	0.15759
2960.99	0.11329
2970.64	0.09113
2980.28	0.04899
2989.93	0.02787
2999.57	0.01895
3009.22	0.01474
3018.86	0.01258
3028.51	0.01282
3038.15	0.01327
3047.8	0.00917
3057.44	0.00748
3067.09	0.00832
3076.73	0.01005
3086.38	0.00765
3096.02	0.00751
3105.67	0.00641
3115.31	0.00462
3124.95	0.00333
3134.6	0.00246
3144.24	0.00237
3153.89	0.00214
3163.53	0.00197
3173.18	0.00183
3182.82	0.00179
3192.47	0.00165
3202.11	0.0015
3211.76	0.00134
3221.4	0.0009842
3231.05	0.0008381
3240.69	0.0005915
3250.34	0.0006177
3259.98	0.0005557
3269.63	0.0005597
3279.27	0.000485
3288.92	0.0005116
3298.56	0.0004576
3308.21	0.0005034
3317.85	0.0004657
3327.49	0.000592
3337.14	0.000517
3346.78	0.0006122
3356.43	0.0006547
3366.07	0.0007382
3375.72	0.00103
3385.36	0.00121
3395.01	0.00166
3404.65	0.00291
3414.3	0.00327
3423.94	0.0022
3433.59	0.00138
3443.23	0.0009173
3452.88	0.0006087
3462.52	0.0004247
3472.17	0.0003336
3481.81	0.0002817
3491.46	0.00016
3501.1	0.0002621
3510.75	0.0001904
3520.39	0.000207
3530.04	0.0001806
3539.68	0.0001673
3549.32	0.0001838
3558.97	0.0003092
3568.61	0.000273
3578.26	0.0002393
3587.9	0.0003832
3597.55	0.0003256
3607.19	0.0003866
3616.84	0.00059
3626.48	0.0005507
3636.13	0.0006668
3645.77	0.0006943
3655.42	0.0007195
3665.06	0.0007563
3674.71	0.0007839
3684.35	0.000589
3694	0.0004558
3703.64	0.0005406
3713.29	0.0007266
3722.93	0.0005945
3732.58	0.0007297
3742.22	0.0004574
3751.86	0.0007315
3761.51	0.0005384
3771.15	0.0005402
3780.8	0.0006646
3790.44	0.0005834
3800.09	0.0005314
3809.73	0.000659
3819.38	0.0008389
3829.02	0.0006058
3838.67	0.0007312
3848.31	0.0005827
3857.96	0.0004373
3867.6	0.0005555
3877.25	0.0006496
3886.89	0.0005655
3896.54	0.0009181
3906.18	0.0006442
3915.83	0.0005737
3925.47	0.0007855
3935.12	0.0008255
3944.76	0.0006791
3954.41	0.0008112
3964.05	0.0007475
3973.69	0.0005981
3983.34	0.00105
3992.98	0.0009945
