Infrared Spectrum: p-Decyloxybenzaldehyde
Formula: C 17 H 26 O 2
CAS: 24083-16-7
State: gas
Origin: EPA-IR VAPOR PHASE LIBRARY
1/CM	ABSORBANCE
549.8	0.001602
559.445	0.001372
569.09	0.001252
578.734	0.001682
588.379	0.003942
598.024	0.007022
607.669	0.010292
617.313	0.012882
626.958	0.005802
636.603	0.005042
646.248	0.007192
655.893	0.005592
665.537	0.002052
675.182	0.001452
684.827	0.001262
694.472	0.001732
704.116	0.002452
713.761	0.003382
723.406	0.003522
733.051	0.003612
742.695	0.003522
752.34	0.004202
761.985	0.004792
771.63	0.004332
781.275	0.004872
790.919	0.005552
800.564	0.009082
810.209	0.013832
819.854	0.022082
829.498	0.030372
839.143	0.026402
848.788	0.026822
858.433	0.018092
868.078	0.008852
877.722	0.005622
887.367	0.004422
897.012	0.004222
906.657	0.003922
916.301	0.003862
925.946	0.004002
935.591	0.004702
945.236	0.005322
954.88	0.005412
964.525	0.005892
974.17	0.006632
983.815	0.009032
993.46	0.013512
1003.1	0.017502
1012.75	0.019902
1022.39	0.022062
1032.04	0.021202
1041.68	0.019212
1051.33	0.016312
1060.97	0.012882
1070.62	0.009812
1080.26	0.007702
1089.91	0.006762
1099.55	0.007272
1109.2	0.008262
1118.84	0.006872
1128.49	0.006702
1138.13	0.009462
1147.78	0.024982
1157.42	0.116922
1167.07	0.055512
1176.71	0.014322
1186.36	0.013942
1196	0.025652
1205.64	0.048712
1215.29	0.055652
1224.93	0.068442
1234.58	0.084652
1244.22	0.118492
1253.87	0.126532
1263.51	0.073242
1273.16	0.035572
1282.8	0.027362
1292.45	0.036952
1302.09	0.051512
1311.74	0.034732
1321.38	0.019662
1331.03	0.013192
1340.67	0.010952
1350.32	0.010572
1359.96	0.009102
1369.61	0.009022
1379.25	0.013592
1388.9	0.020672
1398.54	0.011972
1408.18	0.008212
1417.83	0.009582
1427.47	0.012052
1437.12	0.009562
1446.76	0.011962
1456.41	0.016312
1466.05	0.021502
1475.7	0.024062
1485.34	0.013432
1494.99	0.020252
1504.63	0.056092
1514.28	0.033792
1523.92	0.010402
1533.57	0.006862
1543.21	0.006432
1552.86	0.007522
1562.5	0.012772
1572.15	0.030842
1581.79	0.055152
1591.44	0.079232
1601.08	0.135442
1610.73	0.073902
1620.37	0.024562
1630.01	0.010972
1639.66	0.007242
1649.3	0.006022
1658.95	0.006172
1668.59	0.008052
1678.24	0.011452
1687.88	0.015752
1697.53	0.028922
1707.17	0.072092
1716.82	0.174892
1726.46	0.067162
1736.11	0.016202
1745.75	0.006842
1755.4	0.004222
1765.04	0.003412
1774.69	0.002812
1784.33	0.002172
1793.98	0.002052
1803.62	0.001802
1813.27	0.001642
1822.91	0.001402
1832.55	0.001372
1842.2	0.001352
1851.84	0.001462
1861.49	0.001512
1871.13	0.001492
1880.78	0.001722
1890.42	0.002222
1900.07	0.002292
1909.71	0.001712
1919.36	0.001602
1929	0.001582
1938.65	0.001492
1948.29	0.001442
1957.94	0.001652
1967.58	0.001782
1977.23	0.001912
1986.87	0.002042
1996.52	0.002392
2006.16	0.002762
2015.81	0.002772
2025.45	0.002362
2035.1	0.002052
2044.74	0.002012
2054.38	0.001852
2064.03	0.001732
2073.67	0.001632
2083.32	0.001492
2092.96	0.001312
2102.61	0.001332
2112.25	0.0011203
2121.9	0.0010231
2131.54	0.0009403
2141.19	0.0007964
2150.83	0.000875
2160.48	0.0008299
2170.12	0.0008001
2179.77	0.0007014
2189.41	0.0007975
2199.06	0.0007504
2208.7	0.0006742
2218.35	0.0007694
2227.99	0.0007864
2237.64	0.0008527
2247.28	0.0009128
2256.92	0.0009947
2266.57	0.0010987
2276.21	0.0010823
2285.86	0.0010516
2295.5	0.0008443
2305.15	0.0009774
2314.79	0.0010545
2324.44	0.0010734
2334.08	0.00089
2343.73	0.0008072
2353.37	0.000868
2363.02	0.0008645
2372.66	0.0009661
2382.31	0.001052
2391.95	0.001252
2401.6	0.001442
2411.24	0.001632
2420.89	0.001492
2430.53	0.001472
2440.18	0.001482
2449.82	0.001772
2459.47	0.001742
2469.11	0.001682
2478.75	0.001652
2488.4	0.001662
2498.04	0.001812
2507.69	0.002002
2517.33	0.002012
2526.98	0.002042
2536.62	0.002292
2546.27	0.002632
2555.91	0.002862
2565.56	0.002762
2575.2	0.002712
2584.85	0.002782
2594.49	0.002662
2604.14	0.002592
2613.78	0.002542
2623.43	0.002422
2633.07	0.002382
2642.72	0.002522
2652.36	0.002772
2662.01	0.003262
2671.65	0.004332
2681.29	0.006312
2690.94	0.008012
2700.58	0.010802
2710.23	0.016672
2719.87	0.024712
2729.52	0.024962
2739.16	0.015652
2748.81	0.010222
2758.45	0.008482
2768.1	0.008622
2777.74	0.010502
2787.39	0.015272
2797.03	0.018492
2806.68	0.019162
2816.32	0.021592
2825.97	0.019062
2835.61	0.017072
2845.26	0.022502
2854.9	0.041392
2864.55	0.060982
2874.19	0.052052
2883.84	0.044732
2893.48	0.040532
2903.12	0.048502
2912.77	0.070302
2922.41	0.110852
2932.06	0.157462
2941.7	0.138642
2951.35	0.094452
2960.99	0.071422
2970.64	0.059122
2980.28	0.031642
2989.93	0.017752
2999.57	0.012082
3009.22	0.009362
3018.86	0.008042
3028.51	0.008412
3038.15	0.008872
3047.8	0.005962
3057.44	0.004972
3067.09	0.005472
3076.73	0.006662
3086.38	0.005312
3096.02	0.005072
3105.67	0.004372
3115.31	0.003202
3124.95	0.002322
3134.6	0.001772
3144.24	0.001662
3153.89	0.001762
3163.53	0.001372
3173.18	0.001282
3182.82	0.001175
3192.47	0.0012096
3202.11	0.0011203
3211.76	0.0009151
3221.4	0.0006763
3231.05	0.000616
3240.69	0.0006368
3250.34	0.0005544
3259.98	0.0004913
3269.63	0.0004167
3279.27	0.0004976
3288.92	0.0003619
3298.56	0.00049
3308.21	0.0004506
3317.85	0.0005094
3327.49	0.0005004
3337.14	0.0004006
3346.78	0.0005681
3356.43	0.0005735
3366.07	0.0005815
3375.72	0.0005308
3385.36	0.0007723
3395.01	0.001342
3404.65	0.002042
3414.3	0.002392
3423.94	0.001592
3433.59	0.0010009
3443.23	0.0007116
3452.88	0.0005155
3462.52	0.00034436
3472.17	0.0001953
3481.81	0.00027971
3491.46	0.00031515
3501.1	4.9e-05
3510.75	0.0002079
3520.39	3.9e-05
3530.04	0.0003561
3539.68	0.0002132
3549.32	0.00024767
3558.97	4.2e-05
3568.61	0.000117
3578.26	0.000258934
3587.9	0.0002977
3597.55	0.00027455
3607.19	0.00031305
3616.84	0.0003655
3626.48	0.000422
3636.13	0.0005678
3645.77	0.0001653
3655.42	0.0002216
3665.06	0.0005384
3674.71	0.0004208
3684.35	0.0005849
3694	0.0005482
3703.64	0.0004613
3713.29	0.0004395
3722.93	0.0004233
3732.58	0.0003739
3742.22	0.0004267
3751.86	0.0002398
3761.51	0.0004186
3771.15	0.0003759
3780.8	0.0005112
3790.44	0.0004489
3800.09	0.0005827
3809.73	0.000354
3819.38	0.0003708
3829.02	0.0004936
3838.67	0.0003766
3848.31	0.0004466
3857.96	0.0005591
3867.6	0.0005199
3877.25	0.0004821
3886.89	0.0005273
3896.54	0.0006201
3906.18	0.0006272
3915.83	0.0006523
3925.47	0.0006039
3935.12	0.0004771
3944.76	0.0005436
3954.41	0.0005895
3964.05	0.0006245
3973.69	0.0007523
3983.34	0.0009681
3992.98	0.0008039
