Infrared Spectrum: Butanedioic acid, 2-methylene, diethyl ester
Formula: C9 H14 O4
CAS: 2409-52-1
State: SOLUTION (10% CCl4 FOR 2.7-7.5, 10% CS2 FOR 7.5-26 MICRON) VS SOLVENT
Class: COBLENTZ
Instrument: DOW KBr FOREPRISM-GRATING
Instrument parameters: BLAZED AT 3.5, 12.0, 20.0 MICRON AND CHANGED AT 5.0, 7.5, 14.9 MICRON
Sampling: TRANSMISSION
Path length: 0.011 CM, 0.011 CM
Resolution: 2
Origin: DOW CHEMICAL COMPANY
1/CM	TRANSMITTANCE
3794	0.8712
3785	0.8712
3776	0.8711
3767	0.871
3758	0.8709
3749	0.8708
3740	0.8713
3731	0.8713
3722	0.8709
3713	0.8705
3704	0.8701
3695	0.8678
3686	0.8647
3677	0.8554
3668	0.8411
3659	0.8427
3650	0.8466
3641	0.8492
3632	0.8503
3623	0.8501
3614	0.8496
3605	0.8495
3596	0.8497
3587	0.8468
3578	0.8418
3569	0.8361
3560	0.8277
3551	0.8196
3542	0.8125
3533	0.8086
3524	0.8069
3515	0.8068
3506	0.809
3497	0.8121
3488	0.8157
3479	0.8172
3470	0.8143
3461	0.8072
3452	0.8003
3443	0.795
3434	0.7932
3425	0.7921
3416	0.7914
3407	0.7911
3398	0.7919
3389	0.7954
3380	0.7965
3371	0.7938
3362	0.7875
3353	0.7805
3344	0.7746
3335	0.7688
3326	0.7638
3317	0.7588
3308	0.7545
3299	0.7501
3290	0.7461
3281	0.7422
3272	0.7384
3263	0.736
3254	0.7336
3245	0.7311
3236	0.7289
3227	0.7267
3218	0.7247
3209	0.7226
3200	0.7211
3191	0.7196
3182	0.7183
3173	0.7175
3164	0.7169
3155	0.7156
3146	0.7138
3137	0.7101
3128	0.7035
3119	0.6948
3110	0.6828
3101	0.6714
3092	0.6708
3083	0.6725
3074	0.6736
3065	0.6732
3056	0.6715
3047	0.6625
3038	0.6518
3029	0.6342
3020	0.611
3011	0.5827
3002	0.3587
2993	0.1881
2984	0.1266
2975	0.2087
2966	0.3149
2957	0.3484
2948	0.4348
2939	0.3626
2930	0.3664
2921	0.4539
2912	0.4745
2903	0.4018
2894	0.4702
2885	0.5527
2876	0.5824
2867	0.56
2858	0.6128
2849	0.6541
2840	0.6774
2831	0.6941
2822	0.7074
2813	0.7193
2804	0.7305
2795	0.7406
2786	0.7484
2777	0.7558
2768	0.7598
2759	0.7631
2750	0.7657
2741	0.7647
2732	0.7636
2723	0.7646
2714	0.7657
2705	0.7672
2696	0.7697
2687	0.7718
2678	0.7739
2669	0.7735
2660	0.7715
2651	0.7714
2642	0.7719
2633	0.7708
2624	0.7703
2615	0.7701
2606	0.7708
2597	0.7756
2588	0.7796
2579	0.7822
2570	0.785
2561	0.7875
2552	0.7886
2543	0.7897
2534	0.7915
2525	0.7933
2516	0.7987
2507	0.8041
2498	0.8088
2489	0.8134
2480	0.8181
2471	0.8228
2462	0.8277
2453	0.8315
2444	0.8345
2435	0.8366
2426	0.8388
2417	0.8403
2408	0.8413
2399	0.8423
2390	0.8434
2381	0.8443
2372	0.8449
2363	0.8454
2354	0.8461
2345	0.8467
2336	0.8473
2327	0.848
2318	0.8498
2309	0.8524
2300	0.8552
2291	0.8571
2282	0.8578
2273	0.8585
2264	0.8594
2255	0.8605
2246	0.8616
2237	0.8634
2228	0.8652
2219	0.867
2210	0.8686
2201	0.8691
2192	0.8689
2183	0.8704
2174	0.8786
2165	0.8744
2156	0.8718
2147	0.8703
2138	0.8696
2129	0.8688
2120	0.8681
2111	0.8654
2102	0.8627
2093	0.8599
2084	0.8571
2075	0.8543
2066	0.853
2057	0.852
2048	0.852
2039	0.852
2030	0.8517
2021	0.8513
2012	0.8509
2003	0.8501
1994	0.8494
1985	0.8515
1976	0.854
1967	0.8545
1958	0.8538
1949	0.851
1940	0.8475
1931	0.8437
1922	0.8347
1913	0.815
1904	0.8001
1895	0.7915
1886	0.7894
1877	0.7934
1868	0.8097
1859	0.8201
1850	0.825
1841	0.8228
1832	0.8151
1823	0.8041
1814	0.7881
1805	0.7678
1796	0.7446
1787	0.7146
1778	0.6633
1769	0.5937
1760	0.4725
1751	0.2149
1742	0.0122
1733	0.0049
1724	0.0028
1715	0.0035
1706	0.0062
1697	0.1487
1688	0.3806
1679	0.5086
1670	0.5977
1661	0.6488
1652	0.6635
1643	0.3514
1634	0.3242
1625	0.5137
1616	0.634
1607	0.7006
1598	0.7465
1589	0.769
1580	0.7851
1571	0.7931
1562	0.7975
1553	0.8039
1544	0.8125
1535	0.818
1526	0.8131
1517	0.8053
1508	0.7926
1499	0.7728
1490	0.7369
1481	0.5312
1472	0.4594
1463	0.3784
1454	0.4602
1445	0.3366
1436	0.4628
1427	0.3366
1418	0.2438
1409	0.3135
1400	0.3029
1391	0.3098
1382	0.3826
1373	0.1081
1364	0.2812
1355	0.5238
1346	0.3762
1337	0.1303
1328	0.1403
1319	0.1354
1310	0.0245
1301	0.0878
1292	0.1163
1283	0.1502
1274	0.2393
1265	0.2418
1256	0.1781
1247	0.136
1238	0.1877
1229	0.2287
1220	0.1932
1211	0.1206
1202	0.0561
1193	0.0245
1184	0.0117
1175	0.0152
1166	0.0254
1157	0.0352
1148	0.0167
1139	0.01
1130	0.0564
1121	0.2592
1112	0.3525
1103	0.4265
1094	0.3309
1085	0.5497
1076	0.6162
1067	0.6461
1058	0.6506
1049	0.5569
1040	0.3464
1031	0.0675
1022	0.1033
1013	0.4382
1004	0.6372
995	0.6994
986	0.7238
977	0.7056
968	0.5571
959	0.5003
950	0.2555
941	0.2168
932	0.4776
923	0.5682
914	0.6268
905	0.6792
896	0.6978
887	0.6668
878	0.6726
869	0.6698
860	0.5225
851	0.5834
842	0.6887
833	0.7231
824	0.6259
815	0.3409
806	0.5195
797	0.6635
788	0.6696
779	0.6846
770	0.7095
761	0.691
752	0.6945
743	0.6622
734	0.6214
725	0.6948
716	0.7408
707	0.7684
698	0.7889
689	0.7898
680	0.7861
671	0.7801
662	0.7718
653	0.7578
644	0.7333
635	0.7221
626	0.7128
617	0.7154
608	0.7257
599	0.7398
590	0.7469
581	0.7351
572	0.7199
563	0.7175
554	0.7203
545	0.7269
536	0.7356
527	0.7432
518	0.7514
509	0.7601
500	0.7667
491	0.7695
482	0.7689
473	0.7614
464	0.7521
455	0.7421
446	0.7349
437	0.7307
428	0.731
419	0.7315
410	0.7336
401	0.7356
