Infrared Spectrum: PHENETHYLAMINE, o-BROMO-N,N-DIMETHYL-, HYDROCHLORIDE
Formula: C10 H15 Br Cl N
CAS: 2410-48-2
State: SOLID (OIL MULL)
Class: COBLENTZ III
Instrument: PERKIN-ELMER 21 (GRATING)
Instrument parameters: NaCl PRISM
Sampling: TRANSMISSION
Resolution: 2
Origin: SMITH KLINE & FRENCH LABS.
MICROMETERS	TRANSMITTANCE
2.013	0.283
2.0472	0.29
2.0814	0.293
2.11561	0.302
2.14981	0.312
2.18401	0.318
2.21821	0.323
2.25242	0.329
2.28662	0.323
2.32082	0.312
2.35502	0.318
2.38922	0.329
2.42343	0.338
2.45763	0.344
2.49183	0.354
2.52603	0.362
2.56024	0.371
2.59444	0.375
2.62864	0.381
2.66284	0.388
2.69704	0.391
2.73125	0.402
2.76545	0.409
2.79965	0.413
2.83385	0.419
2.86806	0.422
2.90226	0.423
2.93646	0.423
2.97066	0.423
3.00487	0.422
3.03907	0.416
3.07327	0.423
3.10747	0.433
3.14167	0.428
3.17588	0.422
3.21008	0.417
3.24428	0.411
3.27848	0.408
3.31269	0.372
3.34689	0.265
3.38109	0.141
3.41529	0.072
3.44949	0.065
3.4837	0.066
3.5179	0.07
3.5521	0.098
3.5863	0.435
3.62051	0.526
3.65471	0.525
3.68891	0.5
3.72311	0.474
3.75731	0.409
3.79152	0.354
3.82572	0.336
3.85992	0.283
3.89412	0.254
3.92833	0.237
3.96253	0.245
3.99673	0.244
4.03093	0.255
4.06513	0.234
4.09934	0.22
4.13354	0.225
4.16774	0.236
4.20194	0.25
4.23615	0.256
4.27035	0.267
4.30455	0.309
4.33875	0.328
4.37295	0.366
4.40716	0.381
4.44136	0.401
4.47556	0.416
4.50976	0.433
4.54397	0.447
4.57817	0.462
4.61237	0.478
4.64657	0.491
4.68077	0.504
4.71498	0.51
4.74918	0.518
4.78338	0.532
4.81758	0.541
4.85179	0.551
4.88599	0.557
4.92019	0.562
4.95439	0.57
4.9886	0.577
5.0228	0.579
5.057	0.585
5.0912	0.591
5.1254	0.59
5.15961	0.596
5.19381	0.602
5.22801	0.607
5.26221	0.611
5.29642	0.619
5.33062	0.615
5.36482	0.624
5.39902	0.632
5.43322	0.631
5.46743	0.637
5.50163	0.643
5.53583	0.65
5.57003	0.654
5.60424	0.66
5.63844	0.659
5.67264	0.66
5.70684	0.66
5.74104	0.659
5.77525	0.659
5.80945	0.66
5.84365	0.661
5.87785	0.66
5.91206	0.649
5.94626	0.642
5.98046	0.66
6.01466	0.654
6.04886	0.638
6.08307	0.639
6.11727	0.665
6.15147	0.675
6.18567	0.68
6.21988	0.681
6.25408	0.68
6.28828	0.667
6.32248	0.669
6.35668	0.67
6.39089	0.576
6.42509	0.613
6.45929	0.609
6.49349	0.607
6.5277	0.632
6.5619	0.642
6.5961	0.632
6.6303	0.636
6.6645	0.641
6.69871	0.596
6.73291	0.476
6.76711	0.225
6.80131	0.119
6.83552	0.088
6.86972	0.107
6.90392	0.131
6.93812	0.242
6.97233	0.246
7.00653	0.317
7.04073	0.413
7.07493	0.482
7.10913	0.375
7.14334	0.479
7.17754	0.492
7.21174	0.436
7.24594	0.255
7.28015	0.22
7.31435	0.327
7.34855	0.375
7.38275	0.5
7.41695	0.538
7.45116	0.569
7.48536	0.58
7.51956	0.602
7.55376	0.594
7.58797	0.574
7.62217	0.521
7.65637	0.542
7.69057	0.592
7.72477	0.61
7.75898	0.576
7.79318	0.559
7.82738	0.6
7.86158	0.622
7.89579	0.632
7.92999	0.649
7.96419	0.664
7.99839	0.666
8.03259	0.656
8.0668	0.564
8.101	0.531
8.1352	0.579
8.1694	0.63
8.20361	0.653
8.23781	0.664
8.27201	0.661
8.30621	0.661
8.34041	0.659
8.37462	0.663
8.40882	0.677
8.44302	0.682
8.47722	0.682
8.51143	0.626
8.54563	0.526
8.57983	0.564
8.61403	0.625
8.64823	0.642
8.68244	0.641
8.71664	0.66
8.75084	0.622
8.78504	0.591
8.81925	0.661
8.85345	0.693
8.88765	0.71
8.92185	0.722
8.95606	0.723
8.99026	0.725
9.02446	0.701
9.05866	0.682
9.09286	0.718
9.12707	0.738
9.16127	0.748
9.19547	0.75
9.22967	0.75
9.26388	0.748
9.29808	0.737
9.33228	0.734
9.36648	0.739
9.40068	0.728
9.43489	0.684
9.46909	0.667
9.50329	0.7
9.53749	0.594
9.5717	0.581
9.6059	0.586
9.6401	0.566
9.6743	0.572
9.7085	0.361
9.74271	0.397
9.77691	0.498
9.81111	0.474
9.84531	0.47
9.87952	0.597
9.91372	0.635
9.94792	0.631
9.98212	0.565
10.0163	0.513
10.0505	0.527
10.0847	0.583
10.1189	0.636
10.1531	0.666
10.1873	0.678
10.2215	0.689
10.2557	0.673
10.2899	0.635
10.3241	0.553
10.3583	0.4
10.3925	0.453
10.4268	0.45
10.461	0.496
10.4952	0.596
10.5294	0.643
10.5636	0.681
10.5978	0.693
10.632	0.703
10.6662	0.711
10.7004	0.722
10.7346	0.721
10.7688	0.732
10.803	0.742
10.8372	0.748
10.8714	0.753
10.9056	0.751
10.9398	0.751
10.974	0.772
11.0082	0.777
11.0424	0.782
11.0766	0.787
11.1108	0.784
11.145	0.789
11.1792	0.793
11.2134	0.793
11.2476	0.793
11.2818	0.793
11.316	0.794
11.3502	0.798
11.3844	0.801
11.4186	0.801
11.4528	0.794
11.487	0.8
11.5212	0.796
11.5554	0.781
11.5896	0.787
11.6238	0.791
11.658	0.794
11.6922	0.793
11.7264	0.794
11.7606	0.804
11.7948	0.806
11.829	0.804
11.8632	0.81
11.8974	0.815
11.9317	0.815
11.9659	0.822
12.0001	0.822
12.0343	0.828
12.0685	0.83
12.1027	0.827
12.1369	0.832
12.1711	0.832
12.2053	0.838
12.2395	0.832
12.2737	0.829
12.3079	0.821
12.3421	0.806
12.3763	0.791
12.4105	0.789
12.4447	0.804
12.4789	0.816
12.5131	0.828
12.5473	0.819
12.5815	0.818
12.6157	0.785
12.6499	0.748
12.6841	0.726
12.7183	0.647
12.7525	0.577
12.7867	0.547
12.8209	0.536
12.8551	0.435
12.8893	0.307
12.9235	0.223
12.9577	0.181
12.9919	0.175
13.0261	0.293
13.0603	0.381
13.0945	0.503
13.1287	0.559
13.1629	0.583
13.1971	0.546
13.2313	0.508
13.2655	0.551
13.2997	0.602
13.3339	0.66
13.3681	0.689
13.4023	0.698
13.4365	0.711
13.4708	0.72
13.505	0.717
13.5392	0.718
13.5734	0.71
13.6076	0.716
13.6418	0.715
13.676	0.716
13.7102	0.721
13.7444	0.718
13.7786	0.725
13.8128	0.717
13.847	0.708
13.8812	0.687
13.9154	0.619
13.9496	0.643
13.9838	0.693
14.018	0.715
14.0522	0.742
14.0864	0.754
14.1206	0.763
14.1548	0.768
14.189	0.77
14.2232	0.771
14.2574	0.771
14.2916	0.778
14.3258	0.779
14.36	0.771
14.3942	0.779
14.4284	0.773
14.4626	0.771
14.4968	0.773
14.531	0.77
14.5652	0.77
14.5994	0.768
14.6336	0.757
14.6678	0.766
14.702	0.757
14.7362	0.753
14.7704	0.746
14.8046	0.744
14.8388	0.744
14.873	0.739
14.9072	0.734
14.9414	0.723
14.9756	0.712
15.0099	0.661
15.0441	0.644
15.0783	0.648
15.1125	0.639
15.1467	0.625
15.1809	0.566
15.2151	0.448
15.2493	0.441
15.2835	0.503
