Infrared Spectrum: TRI-N-HEPTYLAMINE
Formula: C21 H45 N
CAS: 2411-36-1
State: LIQUID
Boiling point: 151-154 C AT 1 mmHg
Class: COBLENTZ
Instrument: Not specified, most likely a prism, grating, or hybrid spectrometer.
Sampling: TRANSMISSION
Path length: 0.003 CM
Resolution: 4
Origin: WYANDOTTE CHEMICALS CORP., WYANDOTTE, MICHIGAN, USA
MICROMETERS	TRANSMITTANCE
2.025	0.991
2.06373	0.987
2.10246	1
2.14119	0.991
2.17992	0.961
2.21865	0.8
2.25738	0.78
2.29611	0.792
2.33484	0.795
2.37358	0.806
2.41231	0.832
2.45104	0.878
2.48977	0.894
2.5285	0.907
2.56723	0.904
2.60596	0.92
2.64469	0.933
2.68342	0.926
2.72215	0.93
2.76088	0.939
2.79961	0.956
2.83834	0.959
2.87707	0.949
2.9158	0.93
2.95453	0.92
2.99327	0.907
3.032	0.896
3.07073	0.886
3.10946	0.86
3.14819	0.814
3.18692	0.803
3.22565	0.769
3.26438	0.652
3.30311	0.404
3.34184	0.081
3.38057	0.008
3.4193	0.021
3.45803	0.025
3.49676	0.025
3.53549	0.032
3.57422	0.027
3.61296	0.056
3.65169	0.131
3.69042	0.232
3.72915	0.381
3.76788	0.461
3.80661	0.587
3.84534	0.652
3.88407	0.683
3.9228	0.751
3.96153	0.813
4.00026	0.834
4.03899	0.85
4.07772	0.865
4.11645	0.871
4.15518	0.873
4.19391	0.866
4.23265	0.865
4.27138	0.879
4.31011	0.887
4.34884	0.891
4.38757	0.884
4.4263	0.881
4.46503	0.899
4.50376	0.899
4.54249	0.904
4.58122	0.9
4.61995	0.909
4.65868	0.909
4.69741	0.905
4.73614	0.92
4.77487	0.926
4.8136	0.925
4.85234	0.922
4.89107	0.915
4.9298	0.905
4.96853	0.892
5.00726	0.907
5.04599	0.915
5.08472	0.918
5.12345	0.92
5.16218	0.93
5.20091	0.918
5.23964	0.925
5.27837	0.928
5.3171	0.925
5.35583	0.931
5.39456	0.92
5.43329	0.931
5.47203	0.926
5.51076	0.928
5.54949	0.926
5.58822	0.917
5.62695	0.918
5.66568	0.912
5.70441	0.904
5.74314	0.873
5.78187	0.797
5.8206	0.775
5.85933	0.75
5.89806	0.636
5.93679	0.727
5.97552	0.774
6.01425	0.774
6.05298	0.737
6.09172	0.769
6.13045	0.824
6.16918	0.813
6.20791	0.798
6.24664	0.811
6.28537	0.813
6.3241	0.803
6.36283	0.801
6.40156	0.787
6.44029	0.788
6.47902	0.769
6.51775	0.762
6.55648	0.717
6.59521	0.681
6.63394	0.628
6.67267	0.537
6.71141	0.355
6.75014	0.116
6.78887	0.029
6.8276	0.037
6.86633	0.063
6.90506	0.123
6.94379	0.28
6.98252	0.431
7.02125	0.534
7.05998	0.555
7.09871	0.534
7.13744	0.448
7.17617	0.28
7.2149	0.094
7.25363	0.079
7.29236	0.112
7.3311	0.18
7.36983	0.235
7.40856	0.259
7.44729	0.336
7.48602	0.4
7.52475	0.423
7.56348	0.357
7.60221	0.266
7.64094	0.215
7.67967	0.212
7.7184	0.243
7.75713	0.311
7.79586	0.375
7.83459	0.323
7.87332	0.318
7.91205	0.323
7.95079	0.357
7.98952	0.426
8.02825	0.491
8.06698	0.405
8.10571	0.336
8.14444	0.329
8.18317	0.353
8.2219	0.366
8.26063	0.352
8.29936	0.349
8.33809	0.389
8.37682	0.454
8.41555	0.477
8.45428	0.491
8.49301	0.451
8.53174	0.368
8.57048	0.313
8.60921	0.292
8.64794	0.298
8.68667	0.396
8.7254	0.47
8.76413	0.446
8.80286	0.435
8.84159	0.43
8.88032	0.353
8.91905	0.303
8.95778	0.305
8.99651	0.209
9.03524	0.081
9.07397	0.034
9.1127	0.037
9.15143	0.066
9.19017	0.128
9.2289	0.198
9.26763	0.274
9.30636	0.352
9.34509	0.397
9.38382	0.418
9.42255	0.441
9.46128	0.456
9.50001	0.465
9.53874	0.444
9.57747	0.415
9.6162	0.391
9.65493	0.397
9.69366	0.422
9.73239	0.444
9.77112	0.441
9.80986	0.439
9.84859	0.438
9.88732	0.462
9.92605	0.5
9.96478	0.535
10.0035	0.56
10.0422	0.597
10.081	0.613
10.1197	0.631
10.1584	0.639
10.1972	0.649
10.2359	0.654
10.2746	0.67
10.3134	0.683
10.3521	0.689
10.3908	0.696
10.4295	0.698
10.4683	0.699
10.507	0.706
10.5457	0.701
10.5845	0.696
10.6232	0.673
10.6619	0.654
10.7007	0.642
10.7394	0.641
10.7781	0.636
10.8169	0.626
10.8556	0.608
10.8943	0.607
10.933	0.615
10.9718	0.634
11.0105	0.642
11.0492	0.629
11.088	0.61
11.1267	0.587
11.1654	0.587
11.2042	0.582
11.2429	0.6
11.2816	0.637
11.3203	0.644
11.3591	0.655
11.3978	0.649
11.4365	0.646
11.4753	0.657
11.514	0.663
11.5527	0.668
11.5915	0.678
11.6302	0.68
11.6689	0.673
11.7077	0.681
11.7464	0.676
11.7851	0.668
11.8238	0.662
11.8626	0.655
11.9013	0.654
11.94	0.657
11.9788	0.646
12.0175	0.649
12.0562	0.641
12.095	0.634
12.1337	0.629
12.1724	0.625
12.2112	0.629
12.2499	0.642
12.2886	0.665
12.3273	0.701
12.3661	0.727
12.4048	0.754
12.4435	0.772
12.4823	0.784
12.521	0.777
12.5597	0.772
12.5985	0.756
12.6372	0.74
12.6759	0.717
12.7147	0.691
12.7534	0.668
12.7921	0.652
12.8308	0.629
12.8696	0.608
12.9083	0.589
12.947	0.576
12.9858	0.573
13.0245	0.589
13.0632	0.613
13.102	0.625
13.1407	0.633
13.1794	0.642
13.2182	0.634
13.2569	0.629
13.2956	0.621
13.3343	0.602
13.3731	0.581
13.4118	0.561
13.4505	0.54
13.4893	0.521
13.528	0.511
13.5667	0.495
13.6055	0.485
13.6442	0.449
13.6829	0.41
13.7216	0.332
13.7604	0.259
13.7991	0.202
13.8378	0.18
13.8766	0.207
13.9153	0.274
13.954	0.339
13.9928	0.413
14.0315	0.491
14.0702	0.54
14.109	0.59
14.1477	0.634
14.1864	0.66
14.2251	0.686
14.2639	0.711
14.3026	0.741
14.3413	0.75
14.3801	0.779
14.4188	0.793
14.4575	0.811
14.4963	0.818
14.535	0.829
14.5737	0.836
14.6125	0.845
14.6512	0.845
14.6899	0.847
14.7286	0.852
14.7674	0.857
14.8061	0.853
14.8448	0.857
14.8836	0.857
14.9223	0.858
14.961	0.849
14.9998	0.84
15.0385	0.821
15.0772	0.84
15.116	0.845
15.1547	0.852
15.1934	0.844
15.2321	0.836
15.2709	0.837
15.3096	0.831
15.3483	0.826
15.3871	0.824
15.4258	0.81
15.4645	0.803
15.5033	0.798
15.542	0.801
15.5807	0.808
15.6194	0.803
15.6582	0.788
15.6969	0.772
15.7356	0.772
15.7744	0.771
15.8131	0.762
15.8518	0.764
15.8906	0.751
15.9293	0.746
15.968	0.735
