Infrared Spectrum: 3-QUINUCLIDINONE, 2-BENZYLIDENE-
Formula: C14 H15 N O
CAS: 24123-89-5
State: SOLID (SPLIT MULL)
Melting point: 130 C
Class: COBLENTZ III
Instrument: DOW KBr FOREPRISM-GRATING
Instrument parameters: BLAZED AT 3.5, 12.0, 20.0 MICRON AND CHANGED AT 5.0, 7.5, 14.9 MICRON
Sampling: TRANSMISSION
Resolution: 2
Origin: DOW CHEMICAL COMPANY
1/CM	TRANSMITTANCE
464	0.7957
473	0.7692
482	0.7724
491	0.7154
500	0.4396
509	0.7706
518	0.7885
527	0.6857
536	0.8193
545	0.8196
554	0.8064
563	0.7668
572	0.394
581	0.8097
590	0.7983
599	0.7275
608	0.8425
617	0.8437
626	0.8196
635	0.6661
644	0.8696
653	0.8618
662	0.8402
671	0.8374
680	0.7774
689	0.2914
698	0.748
707	0.8477
716	0.7597
725	0.3707
734	0.8072
743	0.8311
752	0.8004
761	0.5464
770	0.8724
779	0.8463
788	0.7905
797	0.5214
806	0.7465
815	0.7853
824	0.8842
833	0.8678
842	0.8403
851	0.6735
860	0.5586
869	0.8428
878	0.8433
887	0.7986
896	0.7971
905	0.8055
914	0.7678
923	0.7976
932	0.7528
941	0.2631
950	0.8094
959	0.7903
968	0.6964
977	0.7361
986	0.7651
995	0.5265
1004	0.7989
1013	0.7832
1022	0.7018
1031	0.5419
1040	0.7747
1049	0.7375
1058	0.695
1067	0.5015
1076	0.6898
1085	0.5474
1094	0.2576
1103	0.4642
1112	0.6891
1121	0.8131
1130	0.7968
1139	0.7795
1148	0.7115
1157	0.6417
1166	0.2905
1175	0.7262
1184	0.7653
1193	0.7292
1202	0.6561
1211	0.7826
1220	0.7701
1229	0.7365
1238	0.6515
1247	0.3743
1256	0.6172
1265	0.7232
1274	0.6851
1283	0.6855
1292	0.6401
1301	0.6811
1310	0.6289
1319	0.611
1328	0.5609
1337	0.6661
1346	0.7733
1355	0.7825
1364	0.7789
1373	0.8349
1382	0.8418
1391	0.8285
1400	0.8243
1409	0.829
1418	0.825
1427	0.8194
1436	0.7671
1445	0.574
1454	0.7943
1463	0.7615
1472	0.8218
1481	0.8014
1490	0.6351
1499	0.8004
1508	0.8681
1517	0.8527
1526	0.842
1535	0.8333
1544	0.8333
1553	0.8208
1562	0.7999
1571	0.7469
1580	0.7849
1589	0.7365
1598	0.6637
1607	0.6204
1616	0.455
1625	0.226
1634	0.7642
1643	0.8538
1652	0.8637
1661	0.8475
1670	0.8051
1679	0.7914
1688	0.7193
1697	0.5075
1706	0.1677
1715	0.7901
1724	0.8475
1733	0.8394
1742	0.8468
1751	0.8618
1760	0.8746
1769	0.8694
1778	0.8642
1787	0.858
1796	0.8531
1805	0.8481
1814	0.8417
1823	0.8409
1832	0.8452
1841	0.8425
1850	0.8387
1859	0.8345
1868	0.8291
1877	0.8223
1886	0.8153
1895	0.8283
1904	0.8288
1913	0.8281
1922	0.826
1931	0.8212
1940	0.8155
1949	0.8142
1958	0.8181
1967	0.8044
1976	0.8018
1985	0.7964
1994	0.7845
2003	0.7915
2012	0.7867
2021	0.7818
2030	0.7776
2039	0.7744
2048	0.7715
2057	0.7687
2066	0.7658
2075	0.7628
2084	0.7601
2093	0.7565
2102	0.7531
2111	0.7494
2120	0.7457
2129	0.7418
2138	0.738
2147	0.7338
2156	0.7292
2165	0.7246
2174	0.72
2183	0.7151
2192	0.7101
2201	0.7051
2210	0.7003
2219	0.6957
2228	0.6915
2237	0.6872
2246	0.6831
2255	0.6789
2264	0.6748
2273	0.6715
2282	0.6682
2291	0.6657
2300	0.6636
2309	0.6614
2318	0.6593
2327	0.6582
2336	0.6571
2345	0.6558
2354	0.6551
2363	0.655
2372	0.6548
2381	0.6545
2390	0.654
2399	0.6534
2408	0.6528
2417	0.6521
2426	0.6512
2435	0.6504
2444	0.6495
2453	0.6486
2462	0.6471
2471	0.6456
2480	0.6441
2489	0.6425
2498	0.6406
2507	0.6387
2516	0.6369
2525	0.635
2534	0.633
2543	0.6309
2552	0.6289
2561	0.6269
2570	0.6243
2579	0.6214
2588	0.6186
2597	0.6158
2606	0.6126
2615	0.6093
2624	0.606
2633	0.6026
2642	0.5994
2651	0.5962
2660	0.5932
2669	0.59
2678	0.5865
2687	0.5829
2696	0.5793
2705	0.5754
2714	0.571
2723	0.5668
2732	0.5626
2741	0.5587
2750	0.5549
2759	0.551
2768	0.5478
2777	0.5446
2786	0.5412
2795	0.5366
2804	0.5319
2813	0.526
2822	0.5193
2831	0.5092
2840	0.4955
2849	0.4786
2858	0.453
2867	0.4082
2876	0.3616
2885	0.4881
2894	0.4632
2903	0.4408
2912	0.424
2921	0.3859
2930	0.3534
2939	0.3095
2948	0.3634
2957	0.3155
2966	0.3648
2975	0.5691
2984	0.5567
2993	0.5435
3002	0.5295
3011	0.5167
3020	0.5187
3029	0.5169
3038	0.5038
3047	0.4987
3056	0.4899
3065	0.5034
3074	0.4966
3083	0.4945
3092	0.5008
3101	0.4988
3110	0.4969
3119	0.4952
3128	0.4926
3137	0.4897
3146	0.4872
3155	0.4844
3164	0.4815
3173	0.4785
3182	0.4756
3191	0.4726
3200	0.4697
3209	0.4668
3218	0.4643
3227	0.4617
3236	0.4591
3245	0.4565
3254	0.4537
3263	0.4509
3272	0.4481
3281	0.4452
3290	0.4421
3299	0.4389
3308	0.4358
3317	0.4326
3326	0.4295
3335	0.4264
3344	0.4233
3353	0.4201
3362	0.4164
3371	0.4127
3380	0.4091
3389	0.4148
3398	0.4165
3407	0.415
3416	0.4134
3425	0.4116
3434	0.4094
3443	0.4071
3452	0.4048
3461	0.4025
3470	0.4004
3479	0.398
3488	0.3959
3497	0.3941
3506	0.3922
3515	0.3903
3524	0.3884
3533	0.3864
3542	0.3846
3551	0.3827
3560	0.3808
3569	0.3789
3578	0.3772
3587	0.3755
3596	0.3739
3605	0.3722
3614	0.3706
3623	0.3691
3632	0.3679
3641	0.3664
3650	0.3652
3659	0.3638
3668	0.3623
3677	0.3607
3686	0.3591
3695	0.3575
3704	0.3559
3713	0.3539
3722	0.352
3731	0.35
3740	0.3482
3749	0.3468
3758	0.3455
3767	0.3441
3776	0.3432
3785	0.3422
