Infrared Spectrum: 2,4-THIAZOLIDINEDIONE, 5-P-CHLOROBENZYLIDENE-
Formula: C10 H6 Cl N O2 S
CAS: 24138-83-8
State: SOLID (KBr PELLET)
Melting point: 226-228 C
Class: COBLENTZ
Instrument: Not specified, most likely a prism, grating, or hybrid spectrometer.
Sampling: TRANSMISSION
Resolution: 4
Origin: TENNESSEE EASTMAN COMPANY, RESEARCH LABORATORIES
MICROMETERS	TRANSMITTANCE
2.027	0.742
2.0682	0.735
2.10941	0.735
2.15061	0.735
2.19182	0.735
2.23302	0.735
2.27423	0.737
2.31543	0.737
2.35664	0.74
2.39784	0.745
2.43905	0.749
2.48025	0.75
2.52146	0.757
2.56266	0.761
2.60387	0.769
2.64507	0.771
2.68628	0.776
2.72748	0.773
2.76869	0.708
2.80989	0.646
2.8511	0.598
2.8923	0.568
2.93351	0.559
2.97471	0.587
3.01592	0.626
3.05712	0.646
3.09833	0.597
3.13953	0.488
3.18074	0.43
3.22194	0.47
3.26315	0.51
3.30435	0.551
3.34556	0.66
3.38676	0.708
3.42797	0.738
3.46917	0.769
3.51038	0.783
3.55158	0.788
3.59279	0.755
3.63399	0.742
3.6752	0.808
3.7164	0.829
3.75761	0.836
3.79881	0.844
3.84002	0.848
3.88122	0.851
3.92243	0.851
3.96363	0.858
4.00484	0.868
4.04604	0.868
4.08725	0.868
4.12845	0.87
4.16966	0.872
4.21086	0.875
4.25207	0.897
4.29327	0.899
4.33448	0.899
4.37568	0.899
4.41688	0.899
4.45809	0.902
4.49929	0.904
4.5405	0.904
4.5817	0.906
4.62291	0.906
4.66411	0.907
4.70532	0.909
4.74652	0.909
4.78773	0.909
4.82893	0.911
4.87014	0.911
4.91134	0.912
4.95255	0.912
4.99375	0.918
5.03496	0.921
5.07616	0.919
5.11737	0.919
5.15857	0.919
5.19978	0.919
5.24098	0.909
5.28219	0.904
5.32339	0.911
5.3646	0.907
5.4058	0.909
5.44701	0.901
5.48821	0.897
5.52942	0.873
5.57062	0.798
5.61183	0.622
5.65303	0.399
5.69424	0.122
5.73544	0.22
5.77665	0.061
5.81785	0.186
5.85906	0.308
5.90026	0.552
5.94147	0.668
5.98267	0.749
6.02388	0.778
6.06508	0.779
6.10629	0.747
6.14749	0.667
6.1887	0.465
6.2299	0.607
6.27111	0.682
6.31231	0.762
6.35352	0.817
6.39472	0.824
6.43593	0.843
6.47713	0.849
6.51834	0.86
6.55954	0.86
6.60075	0.863
6.64195	0.848
6.68316	0.629
6.72436	0.831
6.76556	0.854
6.80677	0.865
6.84797	0.873
6.88918	0.885
6.93038	0.887
6.97159	0.887
7.01279	0.889
7.054	0.839
7.0952	0.588
7.13641	0.711
7.17761	0.802
7.21882	0.832
7.26002	0.858
7.30123	0.858
7.34243	0.851
7.38364	0.802
7.42484	0.668
7.46605	0.511
7.50725	0.428
7.54846	0.459
7.58966	0.733
7.63087	0.798
7.67207	0.747
7.71328	0.721
7.75448	0.762
7.79569	0.692
7.83689	0.841
7.8781	0.878
7.9193	0.889
7.96051	0.89
8.00171	0.892
8.04292	0.892
8.08412	0.856
8.12533	0.798
8.16653	0.771
8.20774	0.769
8.24894	0.798
8.29015	0.846
8.33135	0.856
8.37256	0.86
8.41376	0.779
8.45497	0.696
8.49617	0.523
8.53738	0.486
8.57858	0.624
8.61979	0.696
8.66099	0.75
8.7022	0.807
8.7434	0.834
8.78461	0.844
8.82581	0.858
8.86702	0.86
8.90822	0.834
8.94943	0.836
8.99063	0.825
9.03183	0.822
9.07304	0.825
9.11424	0.767
9.15545	0.546
9.19665	0.757
9.23786	0.848
9.27906	0.868
9.32027	0.872
9.36147	0.878
9.40268	0.883
9.44388	0.889
9.48509	0.889
9.52629	0.889
9.5675	0.889
9.6087	0.89
9.64991	0.892
9.69111	0.894
9.73232	0.897
9.77352	0.856
9.81473	0.665
9.85593	0.563
9.89714	0.778
9.93834	0.851
9.97955	0.865
10.0208	0.88
10.062	0.894
10.1032	0.909
10.1444	0.914
10.1856	0.918
10.2268	0.919
10.268	0.921
10.3092	0.921
10.3504	0.921
10.3916	0.923
10.4328	0.921
10.474	0.921
10.5152	0.923
10.5564	0.928
10.5976	0.928
10.6388	0.93
10.68	0.933
10.7212	0.94
10.7624	0.94
10.8036	0.943
10.8449	0.945
10.8861	0.945
10.9273	0.945
10.9685	0.945
11.0097	0.943
11.0509	0.911
11.0921	0.769
11.1333	0.759
11.1745	0.865
11.2157	0.916
11.2569	0.931
11.2981	0.94
11.3393	0.943
11.3805	0.947
11.4217	0.95
11.4629	0.95
11.5041	0.952
11.5453	0.952
11.5865	0.952
11.6277	0.952
11.6689	0.952
11.7102	0.952
11.7514	0.952
11.7926	0.952
11.8338	0.95
11.875	0.948
11.9162	0.947
11.9574	0.938
11.9986	0.928
12.0398	0.906
12.081	0.861
12.1222	0.752
12.1634	0.508
12.2046	0.479
12.2458	0.602
12.287	0.728
12.3282	0.783
12.3694	0.832
12.4106	0.87
12.4518	0.895
12.493	0.904
12.5343	0.907
12.5755	0.907
12.6167	0.907
12.6579	0.901
12.6991	0.875
12.7403	0.849
12.7815	0.825
12.8227	0.802
12.8639	0.783
12.9051	0.773
12.9463	0.767
12.9875	0.766
13.0287	0.767
13.0699	0.778
13.1111	0.79
13.1523	0.8
13.1935	0.808
13.2347	0.819
13.2759	0.824
13.3171	0.824
13.3584	0.822
13.3996	0.822
13.4408	0.824
13.482	0.834
13.5232	0.846
13.5644	0.882
13.6056	0.924
13.6468	0.941
13.688	0.943
13.7292	0.943
13.7704	0.941
13.8116	0.941
13.8528	0.941
13.894	0.941
13.9352	0.943
13.9764	0.943
14.0176	0.941
14.0588	0.935
14.1	0.899
14.1412	0.819
14.1824	0.696
14.2237	0.573
14.2649	0.529
14.3061	0.532
14.3473	0.605
14.3885	0.704
14.4297	0.764
14.4709	0.793
14.5121	0.8
14.5533	0.827
14.5945	0.853
14.6357	0.877
14.6769	0.877
14.7181	0.866
14.7593	0.851
14.8005	0.858
14.8417	0.889
14.8829	0.926
14.9241	0.943
14.9653	0.952
15.0065	0.957
15.0478	0.969
15.089	0.976
15.1302	0.981
15.1714	0.981
15.2126	0.982
15.2538	0.981
15.295	0.979
15.3362	0.972
15.3774	0.965
15.4186	0.96
15.4598	0.953
15.501	0.95
15.5422	0.941
15.5834	0.936
15.6246	0.924
15.6658	0.909
15.707	0.894
15.7482	0.863
15.7894	0.836
15.8306	0.817
15.8719	0.812
15.9131	0.805
15.9543	0.802
15.9955	0.8
