Infrared Spectrum: 2,6-Diisopropyl naphthalene
Formula: C 16 H 20
CAS: 24157-81-1
State: gas
Origin: EPA-IR VAPOR PHASE LIBRARY
1/CM	ABSORBANCE
549.8	0.0005803
559.445	0.0004025
569.09	0.0008804
578.734	0.0008173
588.379	0.001681
598.024	0.001321
607.669	0.0005023
617.313	0.000177576
626.958	0.0002715
636.603	0.0006823
646.248	0.001361
655.893	0.002741
665.537	0.004511
675.182	0.010561
684.827	0.013071
694.472	0.006171
704.116	0.001811
713.761	0.001511
723.406	0.0009855
733.051	0.0005924
742.695	0.0004119
752.34	0.0005544
761.985	0.0006469
771.63	0.0008115
781.275	0.001391
790.919	0.004261
800.564	0.016241
810.209	0.029181
819.854	0.012381
829.498	0.002801
839.143	0.001601
848.788	0.002231
858.433	0.003401
868.078	0.008651
877.722	0.027611
887.367	0.028531
897.012	0.009731
906.657	0.005191
916.301	0.011361
925.946	0.015461
935.591	0.006341
945.236	0.003081
954.88	0.002761
964.525	0.002041
974.17	0.001231
983.815	0.0011153
993.46	0.001211
1003.1	0.001351
1012.75	0.001591
1022.39	0.001651
1032.04	0.004491
1041.68	0.014011
1051.33	0.009141
1060.97	0.006661
1070.62	0.009631
1080.26	0.005111
1089.91	0.003231
1099.55	0.003371
1109.2	0.004041
1118.84	0.004131
1128.49	0.006501
1138.13	0.008111
1147.78	0.005821
1157.42	0.004441
1167.07	0.014351
1176.71	0.008761
1186.36	0.002161
1196	0.001261
1205.64	0.001361
1215.29	0.0009723
1224.93	0.001601
1234.58	0.002121
1244.22	0.001931
1253.87	0.003251
1263.51	0.004871
1273.16	0.006621
1282.8	0.006701
1292.45	0.008991
1302.09	0.019281
1311.74	0.016241
1321.38	0.009971
1331.03	0.005441
1340.67	0.004721
1350.32	0.007271
1359.96	0.013381
1369.61	0.017641
1379.25	0.014661
1388.9	0.016501
1398.54	0.009891
1408.18	0.005721
1417.83	0.004661
1427.47	0.004771
1437.12	0.006411
1446.76	0.010061
1456.41	0.015841
1466.05	0.022241
1475.7	0.017561
1485.34	0.012551
1494.99	0.017011
1504.63	0.013771
1514.28	0.004251
1523.92	0.002281
1533.57	0.001711
1543.21	0.001671
1552.86	0.001961
1562.5	0.002301
1572.15	0.002751
1581.79	0.003321
1591.44	0.008911
1601.08	0.024441
1610.73	0.019171
1620.37	0.007361
1630.01	0.003001
1639.66	0.001941
1649.3	0.001631
1658.95	0.001271
1668.59	0.0010602
1678.24	0.0011179
1687.88	0.001321
1697.53	0.001251
1707.17	0.0010925
1716.82	0.001251
1726.46	0.001261
1736.11	0.001281
1745.75	0.003261
1755.4	0.007391
1765.04	0.005231
1774.69	0.002261
1784.33	0.0009902
1793.98	0.0007091
1803.62	0.0006695
1813.27	0.0005393
1822.91	0.0006987
1832.55	0.001251
1842.2	0.001411
1851.84	0.0008155
1861.49	0.0006784
1871.13	0.0007113
1880.78	0.000954
1890.42	0.001851
1900.07	0.003531
1909.71	0.003181
1919.36	0.001361
1929	0.0006578
1938.65	0.000482
1948.29	0.0004863
1957.94	0.0004143
1967.58	0.0004186
1977.23	0.0003665
1986.87	0.0004274
1996.52	0.0004261
2006.16	0.0003901
2015.81	0.0003859
2025.45	0.0003862
2035.1	0.0003875
2044.74	0.0004515
2054.38	0.0003915
2064.03	0.0004072
2073.67	0.0004632
2083.32	0.0004999
2092.96	0.0004848
2102.61	0.0004265
2112.25	0.0004637
2121.9	0.000287
2131.54	0.000412
2141.19	0.0002915
2150.83	0.0003701
2160.48	0.0003684
2170.12	0.0004527
2179.77	0.0005292
2189.41	0.0003874
2199.06	0.0003564
2208.7	0.0005562
2218.35	0.0005362
2227.99	0.0006596
2237.64	0.0006248
2247.28	0.0007848
2256.92	0.0006638
2266.57	0.0005803
2276.21	0.0006588
2285.86	0.0006246
2295.5	0.0007226
2305.15	0.0007213
2314.79	0.0007454
2324.44	0.0006438
2334.08	0.0006667
2343.73	0.0006245
2353.37	0.0006411
2363.02	0.0005366
2372.66	0.0007345
2382.31	0.0007832
2391.95	0.0008271
2401.6	0.0007978
2411.24	0.0007796
2420.89	0.0006916
2430.53	0.0007552
2440.18	0.0008488
2449.82	0.0009407
2459.47	0.0010583
2469.11	0.0009745
2478.75	0.0009608
2488.4	0.0008506
2498.04	0.0008748
2507.69	0.0007401
2517.33	0.0006578
2526.98	0.0007335
2536.62	0.0007946
2546.27	0.0009216
2555.91	0.0009172
2565.56	0.0009803
2575.2	0.001381
2584.85	0.001691
2594.49	0.001611
2604.14	0.001321
2613.78	0.001221
2623.43	0.001211
2633.07	0.0011364
2642.72	0.0010243
2652.36	0.0010969
2662.01	0.0010342
2671.65	0.0011471
2681.29	0.0010986
2690.94	0.001241
2700.58	0.001191
2710.23	0.001421
2719.87	0.002151
2729.52	0.002531
2739.16	0.002301
2748.81	0.002411
2758.45	0.002681
2768.1	0.002791
2777.74	0.002581
2787.39	0.002551
2797.03	0.002891
2806.68	0.003251
2816.32	0.004061
2825.97	0.004541
2835.61	0.005551
2845.26	0.007611
2854.9	0.011991
2864.55	0.020881
2874.19	0.040961
2883.84	0.053261
2893.48	0.045161
2903.12	0.046191
2912.77	0.048761
2922.41	0.049981
2932.06	0.061791
2941.7	0.069901
2951.35	0.070751
2960.99	0.157371
2970.64	0.221781
2980.28	0.087761
2989.93	0.035501
2999.57	0.024761
3009.22	0.021401
3018.86	0.025141
3028.51	0.024331
3038.15	0.022701
3047.8	0.034751
3057.44	0.039141
3067.09	0.024441
3076.73	0.012571
3086.38	0.007991
3096.02	0.005801
3105.67	0.004071
3115.31	0.003151
3124.95	0.002911
3134.6	0.002941
3144.24	0.002751
3153.89	0.002661
3163.53	0.002711
3173.18	0.002791
3182.82	0.002691
3192.47	0.002581
3202.11	0.002301
3211.76	0.002061
3221.4	0.001821
3231.05	0.001551
3240.69	0.0011395
3250.34	0.0008381
3259.98	0.0007019
3269.63	0.0007545
3279.27	0.0006404
3288.92	0.0006218
3298.56	0.0006526
3308.21	0.0005032
3317.85	0.000406
3327.49	0.0005534
3337.14	0.0004579
3346.78	0.0005029
3356.43	0.000527
3366.07	0.0005276
3375.72	0.0004716
3385.36	0.0004855
3395.01	0.0006336
3404.65	0.0007179
3414.3	0.0004842
3423.94	0.0004021
3433.59	0.0003857
3443.23	0.000388
3452.88	0.0003758
3462.52	0.0004885
3472.17	0.0004501
3481.81	0.0003302
3491.46	0.00034
3501.1	0.00021621
3510.75	0.0004712
3520.39	0.0003332
3530.04	0.0002804
3539.68	0.0003357
3549.32	0.0003919
3558.97	0.0003043
3568.61	0.00022988
3578.26	2.9e-05
3587.9	0
3597.55	0.0002856
3607.19	0.00022329
3616.84	0.0003172
3626.48	0.0003525
3636.13	0.0003229
3645.77	0.00018302
3655.42	0.0001156
3665.06	0.0003062
3674.71	0.0004514
3684.35	0.000434
3694	0.0003608
3703.64	0.0003799
3713.29	0.0004735
3722.93	0.0003368
3732.58	0.0001323
3742.22	0.0004811
3751.86	0.0004292
3761.51	0.0005987
3771.15	0.0003812
3780.8	0.000467
3790.44	0.0003625
3800.09	0.0004687
3809.73	0.0005881
3819.38	0.0005513
3829.02	0.0006984
3838.67	0.0007816
3848.31	0.0006302
3857.96	0.0005576
3867.6	0.0007135
3877.25	0.0006707
3886.89	0.0004718
3896.54	0.0006117
3906.18	0.0006593
3915.83	0.0004264
3925.47	0.0005811
3935.12	0.0005016
3944.76	0.0008054
3954.41	0.0008783
3964.05	0.0007616
3973.69	0.0009584
3983.34	0.0007757
3992.98	0.0009907
