Infrared Spectrum: 1,5-NAPHTHALENEDIMETHANOL, Alpha,Alpha,Alpha',Alpha'-TETRAMETHYL-
Formula: C16 H20 O2
CAS: 24168-56-7
State: SOLID (1 mg / 650 mg KBr DISC)
Class: COBLENTZ III
Instrument: PERKIN-ELMER 21 (GRATING)
Instrument parameters: FILTER CHANGE AT ABOUT 1020 CM^-^1.
Sampling: TRANSMISSION
Resolution: 2
Origin: SOUTHERN RESEARCH INSTITUTE
1/CM	TRANSMITTANCE
600	0.638
609.211	0.632
618.421	0.6251
627.632	0.6173
636.842	0.6082
646.053	0.602
655.263	0.6
664.474	0.5984
673.684	0.591
682.895	0.5844
692.105	0.578
701.316	0.577
710.526	0.5837
719.737	0.5929
728.947	0.6173
738.158	0.6276
747.368	0.6232
756.579	0.6464
765.789	0.6396
775	0.5391
784.21	0.206
793.421	0.4748
802.631	0.7533
811.842	0.8221
821.052	0.8317
830.263	0.8327
839.474	0.829
848.684	0.825
857.895	0.8063
867.105	0.7483
876.316	0.6061
885.526	0.5343
894.737	0.7737
903.947	0.6005
913.158	0.819
922.368	0.835
931.579	0.8227
940.789	0.7839
950	0.6841
959.21	0.4132
968.421	0.7833
977.631	0.7237
986.842	0.837
996.052	0.8375
1005.26	0.8541
1014.47	0.8706
1023.68	0.8658
1032.89	0.8445
1042.1	0.8226
1051.32	0.8204
1060.53	0.8199
1069.74	0.7725
1078.95	0.825
1088.16	0.8184
1097.37	0.8015
1106.58	0.7579
1115.79	0.7007
1125	0.6421
1134.21	0.433
1143.42	0.4018
1152.63	0.2065
1161.84	0.439
1171.05	0.768
1180.26	0.824
1189.47	0.7757
1198.68	0.5661
1207.89	0.8123
1217.1	0.7983
1226.32	0.5993
1235.53	0.8015
1244.74	0.8021
1253.95	0.7357
1263.16	0.6001
1272.37	0.5917
1281.58	0.8145
1290.79	0.824
1300	0.819
1309.21	0.7953
1318.42	0.7616
1327.63	0.715
1336.84	0.781
1346.05	0.7745
1355.26	0.7121
1364.47	0.4128
1373.68	0.5633
1382.89	0.6089
1392.1	0.5257
1401.32	0.5535
1410.53	0.6854
1419.74	0.7529
1428.95	0.8197
1438.16	0.7919
1447.37	0.706
1456.58	0.7479
1465.79	0.7247
1475	0.721
1484.21	0.8244
1493.42	0.8566
1502.63	0.8465
1511.84	0.8055
1521.05	0.8157
1530.26	0.8927
1539.47	0.913
1548.68	0.917
1557.89	0.9125
1567.1	0.9075
1576.32	0.8983
1585.53	0.8685
1594.74	0.7925
1603.95	0.8074
1613.16	0.849
1622.37	0.8522
1631.58	0.854
1640.79	0.857
1650	0.895
1659.21	0.9089
1668.42	0.92
1677.63	0.917
1686.84	0.9132
1696.05	0.9155
1705.26	0.925
1714.47	0.9273
1723.68	0.928
1732.89	0.9305
1742.1	0.933
1751.32	0.933
1760.53	0.933
1769.74	0.931
1778.95	0.9297
1788.16	0.9276
1797.37	0.9217
1806.58	0.8878
1815.79	0.925
1825	0.933
1834.21	0.933
1843.42	0.931
1852.63	0.93
1861.84	0.925
1871.05	0.9185
1880.26	0.921
1889.47	0.9286
1898.68	0.938
1907.89	0.937
1917.1	0.934
1926.31	0.9296
1935.53	0.924
1944.74	0.9141
1953.95	0.9138
1963.16	0.9284
1972.37	0.9353
1981.58	0.937
1990.79	0.938
2000	0.939
2009.21	0.935
2018.42	0.934
2027.63	0.931
2036.84	0.933
2046.05	0.933
2055.26	0.933
2064.47	0.931
2073.68	0.93
2082.89	0.93
2092.1	0.93
2101.31	0.93
2110.53	0.931
2119.74	0.931
2128.95	0.931
2138.16	0.931
2147.37	0.931
2156.58	0.93
2165.79	0.929
2175	0.929
2184.21	0.929
2193.42	0.929
2202.63	0.928
2211.84	0.928
2221.05	0.925
2230.26	0.924
2239.47	0.922
2248.68	0.918
2257.89	0.916
2267.1	0.912
2276.31	0.909
2285.53	0.908
2294.74	0.908
2303.95	0.907
2313.16	0.905
2322.37	0.909
2331.58	0.909
2340.79	0.909
2350	0.908
2359.21	0.908
2368.42	0.908
2377.63	0.9
2386.84	0.895
2396.05	0.895
2405.26	0.892
2414.47	0.89
2423.68	0.887
2432.89	0.882
2442.1	0.876
2451.31	0.865
2460.53	0.854
2469.74	0.848
2478.95	0.84
2488.16	0.827
2497.37	0.825
2506.58	0.827
2515.79	0.828
2525	0.831
2534.21	0.837
2543.42	0.846
2552.63	0.85
2561.84	0.852
2571.05	0.848
2580.26	0.844
2589.47	0.841
2598.68	0.84
2607.89	0.84
2617.1	0.84
2626.31	0.837
2635.53	0.837
2644.74	0.837
2653.95	0.836
2663.16	0.833
2672.37	0.827
2681.58	0.825
2690.79	0.815
2700	0.808
2709.21	0.799
2718.42	0.786
2727.63	0.772
2736.84	0.763
2746.05	0.761
2755.26	0.761
2764.47	0.761
2773.68	0.761
2782.89	0.761
2792.1	0.761
2801.31	0.76
2810.52	0.753
2819.74	0.739
2828.95	0.722
2838.16	0.714
2847.37	0.705
2856.58	0.698
2865.79	0.692
2875	0.689
2884.21	0.688
2893.42	0.672
2902.63	0.655
2911.84	0.628
2921.05	0.602
2930.26	0.6
2939.47	0.598
2948.68	0.581
2957.89	0.5091
2967.1	0.463
2976.31	0.475
2985.52	0.5469
2994.74	0.672
3003.95	0.739
3013.16	0.722
3022.37	0.708
3031.58	0.712
3040.79	0.719
3050	0.721
3059.21	0.713
3068.42	0.704
3077.63	0.696
3086.84	0.685
3096.05	0.668
3105.26	0.654
3114.47	0.643
3123.68	0.625
3132.89	0.612
3142.1	0.603
3151.31	0.583
3160.52	0.558
3169.74	0.522
3178.95	0.482
3188.16	0.446
3197.37	0.42
3206.58	0.396
3215.79	0.378
3225	0.353
3234.21	0.321
3243.42	0.287
3252.63	0.259
3261.84	0.236
3271.05	0.225
3280.26	0.215
3289.47	0.212
3298.68	0.21
3307.89	0.215
3317.1	0.225
3326.31	0.24
3335.52	0.251
3344.74	0.28
3353.95	0.303
3363.16	0.327
3372.37	0.341
3381.58	0.358
3390.79	0.376
3400	0.397
3409.21	0.424
3418.42	0.448
3427.63	0.471
3436.84	0.501
3446.05	0.535
3455.26	0.562
3464.47	0.59
3473.68	0.624
3482.89	0.654
3492.1	0.68
3501.31	0.701
3510.52	0.725
3519.74	0.751
3528.95	0.772
3538.16	0.794
3547.37	0.801
3556.58	0.814
3565.79	0.821
3575	0.832
3584.21	0.84
3593.42	0.844
3602.63	0.854
3611.84	0.869
3621.05	0.883
3630.26	0.891
3639.47	0.913
3648.68	0.916
3657.89	0.916
3667.1	0.916
3676.31	0.916
3685.52	0.917
3694.73	0.917
3703.95	0.918
3713.16	0.918
3722.37	0.918
3731.58	0.918
3740.79	0.918
3750	0.918
3759.21	0.918
3768.42	0.918
3777.63	0.918
3786.84	0.918
3796.05	0.918
3805.26	0.918
3814.47	0.913
3823.68	0.904
3832.89	0.904
3842.1	0.904
3851.31	0.904
3860.52	0.903
3869.73	0.901
3878.95	0.9
3888.16	0.9
3897.37	0.9
3906.58	0.899
3915.79	0.899
3925	0.9
3934.21	0.897
3943.42	0.897
3952.63	0.897
3961.84	0.899
3971.05	0.899
3980.26	0.899
3989.47	0.899
3998.68	0.897
4007.89	0.897
