Infrared Spectrum: Tris(2-thienyl)phosphine
Formula: C 12 H 9 P S 3
CAS: 24171-89-9
State: gas
Origin: EPA-IR VAPOR PHASE LIBRARY
1/CM	ABSORBANCE
549.8	0.005538
559.445	0.010878
569.09	0.026108
578.734	0.019818
588.379	0.008318
598.024	0.005398
607.669	0.004948
617.313	0.005058
626.958	0.005558
636.603	0.009728
646.248	0.015348
655.893	0.012068
665.537	0.016458
675.182	0.034238
684.827	0.069588
694.472	0.195238
704.116	0.393918
713.761	0.126508
723.406	0.039658
733.051	0.026328
742.695	0.037608
752.34	0.019308
761.985	0.007468
771.63	0.006808
781.275	0.006308
790.919	0.004848
800.564	0.006518
810.209	0.010418
819.854	0.020598
829.498	0.044588
839.143	0.037638
848.788	0.057468
858.433	0.039908
868.078	0.011708
877.722	0.006468
887.367	0.004578
897.012	0.004138
906.657	0.003238
916.301	0.002698
925.946	0.002628
935.591	0.002908
945.236	0.003398
954.88	0.005638
964.525	0.011178
974.17	0.026538
983.815	0.052568
993.46	0.101308
1003.1	0.069378
1012.75	0.015178
1022.39	0.006108
1032.04	0.004818
1041.68	0.005438
1051.33	0.007928
1060.97	0.007038
1070.62	0.007098
1080.26	0.021218
1089.91	0.022228
1099.55	0.005848
1109.2	0.003288
1118.84	0.002568
1128.49	0.002088
1138.13	0.002598
1147.78	0.002588
1157.42	0.002228
1167.07	0.002668
1176.71	0.002318
1186.36	0.003108
1196	0.005898
1205.64	0.025188
1215.29	0.141298
1224.93	0.103978
1234.58	0.014128
1244.22	0.005208
1253.87	0.003918
1263.51	0.005458
1273.16	0.005768
1282.8	0.002738
1292.45	0.002188
1302.09	0.002678
1311.74	0.003858
1321.38	0.006398
1331.03	0.011518
1340.67	0.008908
1350.32	0.003938
1359.96	0.003698
1369.61	0.005818
1379.25	0.010828
1388.9	0.022948
1398.54	0.045918
1408.18	0.055818
1417.83	0.022948
1427.47	0.008078
1437.12	0.004308
1446.76	0.002878
1456.41	0.002598
1466.05	0.003638
1475.7	0.004398
1485.34	0.007518
1494.99	0.017648
1504.63	0.017848
1514.28	0.007848
1523.92	0.014048
1533.57	0.015358
1543.21	0.006458
1552.86	0.002908
1562.5	0.002638
1572.15	0.002798
1581.79	0.003808
1591.44	0.006648
1601.08	0.007478
1610.73	0.003918
1620.37	0.003328
1630.01	0.003808
1639.66	0.004248
1649.3	0.006958
1658.95	0.008628
1668.59	0.004688
1678.24	0.002318
1687.88	0.001848
1697.53	0.002138
1707.17	0.003918
1716.82	0.008388
1726.46	0.008378
1736.11	0.003518
1745.75	0.001968
1755.4	0.001688
1765.04	0.002088
1774.69	0.003948
1784.33	0.009728
1793.98	0.014108
1803.62	0.005608
1813.27	0.002158
1822.91	0.001518
1832.55	0.001578
1842.2	0.0011283
1851.84	0.0009205
1861.49	0.0007887
1871.13	0.0006151
1880.78	0.0007393
1890.42	0.0009801
1900.07	0.001608
1909.71	0.001588
1919.36	0.0009736
1929	0.0008002
1938.65	0.0008175
1948.29	0.0007911
1957.94	0.0009719
1967.58	0.0010227
1977.23	0.0010521
1986.87	0.0007936
1996.52	0.0006962
2006.16	0.0006684
2015.81	0.0006226
2025.45	0.0008614
2035.1	0.0010063
2044.74	0.001498
2054.38	0.001558
2064.03	0.002108
2073.67	0.002608
2083.32	0.001868
2092.96	0.0011377
2102.61	0.0010473
2112.25	0.0010478
2121.9	0.0008518
2131.54	0.0010518
2141.19	0.001264
2150.83	0.0010156
2160.48	0.001648
2170.12	0.003608
2179.77	0.002708
2189.41	0.001728
2199.06	0.0011815
2208.7	0.0012581
2218.35	0.001056
2227.99	0.0010309
2237.64	0.0012142
2247.28	0.001648
2256.92	0.002058
2266.57	0.001438
2276.21	0.0009613
2285.86	0.0008055
2295.5	0.0008647
2305.15	0.0010367
2314.79	0.0012421
2324.44	0.0012863
2334.08	0.0012288
2343.73	0.0011515
2353.37	0.0011315
2363.02	0.001338
2372.66	0.002188
2382.31	0.003068
2391.95	0.003298
2401.6	0.002858
2411.24	0.001878
2420.89	0.001358
2430.53	0.001598
2440.18	0.001318
2449.82	0.0007411
2459.47	0.0007683
2469.11	0.0008645
2478.75	0.001096
2488.4	0.0011279
2498.04	0.0008144
2507.69	0.000541
2517.33	0.00037993
2526.98	0.0004149
2536.62	0.0005967
2546.27	0.0008164
2555.91	0.0007787
2565.56	0.000789
2575.2	0.0012098
2584.85	0.001538
2594.49	0.0006386
2604.14	0.0004369
2613.78	0.00030345
2623.43	0.0004682
2633.07	0.0004557
2642.72	0.0004285
2652.36	0.0005254
2662.01	0.0005984
2671.65	0.0004771
2681.29	0.0004559
2690.94	0.00035887
2700.58	0.0004412
2710.23	0.0005612
2719.87	0.000476
2729.52	0.0006728
2739.16	0.0004974
2748.81	0.0004526
2758.45	0.0004568
2768.1	0.0005176
2777.74	0.0005991
2787.39	0.0012847
2797.03	0.001708
2806.68	0.001608
2816.32	0.0009292
2825.97	0.0007571
2835.61	0.00038737
2845.26	0.0004812
2854.9	0.0005876
2864.55	0.0006663
2874.19	0.001358
2883.84	0.001858
2893.48	0.0013046
2903.12	0.0004634
2912.77	0.0004892
2922.41	0.00034751
2932.06	0.00032256
2941.7	0.00036104
2951.35	0.0002107
2960.99	0.0004213
2970.64	0.0007131
2980.28	0.0009899
2989.93	0.0011502
2999.57	0.0009252
3009.22	0.0007929
3018.86	0.0007037
3028.51	0.0005753
3038.15	0.0009015
3047.8	0.001618
3057.44	0.004688
3067.09	0.014838
3076.73	0.030508
3086.38	0.040008
3096.02	0.020208
3105.67	0.012218
3115.31	0.012978
3124.95	0.002738
3134.6	0.0013013
3144.24	0.0007193
3153.89	0.0007478
3163.53	0.0005272
3173.18	0.000438
3182.82	0.00035657
3192.47	0.0002155
3202.11	0.000205
3211.76	0.0002633
3221.4	0.000414
3231.05	0.00033027
3240.69	0.0003231
3250.34	0.0004301
3259.98	0.00033857
3269.63	0.000133
3279.27	0.000239
3288.92	0.0004473
3298.56	0.0002584
3308.21	0.0002685
3317.85	0.0002621
3327.49	0.000274
3337.14	0.00034118
3346.78	0.0002506
3356.43	0.00033442
3366.07	0.0002848
3375.72	0.0002307
3385.36	0.00036932
3395.01	0.0004601
3404.65	0.000114
3414.3	0.000206
3423.94	0.0002799
3433.59	0.0002444
3443.23	1e-06
3452.88	0.000167
3462.52	0.000188
3472.17	0.0004711
3481.81	0.00032763
3491.46	0.000308686
3501.1	0.0004734
3510.75	0.0002505
3520.39	0.000317569
3530.04	0.0005153
3539.68	0.0004711
3549.32	0.00030008
3558.97	0.0002436
3568.61	0.00038071
3578.26	0.0002393
3587.9	0.000177
3597.55	0.00036166
3607.19	0.0002786
3616.84	0.00036507
3626.48	0.0004174
3636.13	0.0002216
3645.77	0.00012
3655.42	0.000157
3665.06	0.000313998
3674.71	0.0004591
3684.35	0.00037649
3694	0.0002731
3703.64	0.000493
3713.29	0.0005966
3722.93	0.0010839
3732.58	0.0009797
3742.22	0.0011472
3751.86	0.0008956
3761.51	0.0006088
3771.15	0.0006331
3780.8	0.0002849
3790.44	0.000595
3800.09	0.0010426
3809.73	0.001738
3819.38	0.002288
3829.02	0.002758
3838.67	0.001818
3848.31	0.0007774
3857.96	0.0005467
3867.6	0.0005868
3877.25	0.0005778
3886.89	0.0004134
3896.54	0.0005395
3906.18	0.0005814
3915.83	0.001388
3925.47	0.002348
3935.12	0.003448
3944.76	0.002598
3954.41	0.001688
3964.05	0.001888
3973.69	0.0008464
3983.34	0.00032052
3992.98	0.000203
