Infrared Spectrum: 2,2',6,6'-Tetramethyl-p,p'-biphenol
Formula: C16 H18 O2
CAS: 2417-04-1
State: SOLID (SPLIT MULL), FLUOROLUBE FOR 3800-1330 CM^-^1, NUJOL FOR 1330-400 CM^-^1
Class: COBLENTZ III
Instrument: BECKMAN IR-9 (GRATING)
Instrument parameters: ORDER CHANGES: 670, 1200, 2000 CM^-^1
Sampling: TRANSMISSION
Resolution: 2
Origin: DOW CHEMICAL COMPANY
1/CM	TRANSMITTANCE
402	0.6558
411	0.6485
420	0.6538
429	0.6854
438	0.7364
447	0.7585
456	0.7647
465	0.7644
474	0.7528
483	0.7631
492	0.7403
501	0.8083
510	0.8451
519	0.813
528	0.8314
537	0.8518
546	0.8584
555	0.8528
564	0.7811
573	0.8399
582	0.834
591	0.74
600	0.8682
609	0.8612
618	0.8433
627	0.8225
636	0.8043
645	0.7934
654	0.7858
663	0.7561
672	0.7453
681	0.8134
690	0.828
699	0.8344
708	0.8268
717	0.7608
726	0.7067
735	0.8076
744	0.8273
753	0.8444
762	0.8543
771	0.8582
780	0.8665
789	0.8788
798	0.8828
807	0.8817
816	0.8802
825	0.8021
834	0.8327
843	0.8718
852	0.8424
861	0.1416
870	0.8441
879	0.8724
888	0.8744
897	0.8732
906	0.8745
915	0.873
924	0.866
933	0.8491
942	0.7692
951	0.7251
960	0.8228
969	0.8238
978	0.8055
987	0.7805
996	0.8136
1005	0.8308
1014	0.8228
1023	0.7768
1032	0.689
1041	0.7408
1050	0.8176
1059	0.8188
1068	0.8071
1077	0.7518
1086	0.42
1095	0.7225
1104	0.8174
1113	0.8275
1122	0.8253
1131	0.8125
1140	0.8019
1149	0.7805
1158	0.7575
1167	0.733
1176	0.6905
1185	0.5257
1194	0.1944
1203	0.0705
1212	0.3243
1221	0.7308
1230	0.7342
1239	0.5715
1248	0.2365
1257	0.4727
1266	0.6554
1275	0.7228
1284	0.6671
1293	0.7333
1302	0.7769
1311	0.7761
1320	0.7506
1329	0.6441
1338	0.508
1347	0.3732
1356	0.3002
1365	0.4803
1374	0.6621
1383	0.65
1392	0.4879
1401	0.6436
1410	0.715
1419	0.7292
1428	0.6804
1437	0.6255
1446	0.6618
1455	0.6512
1464	0.4964
1473	0.2693
1482	0.4352
1491	0.6933
1500	0.746
1509	0.8259
1518	0.8465
1527	0.8575
1536	0.8645
1545	0.8694
1554	0.8737
1563	0.8763
1572	0.8763
1581	0.8668
1590	0.8389
1599	0.7251
1608	0.7144
1617	0.8632
1626	0.8801
1635	0.8845
1644	0.8848
1653	0.8801
1662	0.8778
1671	0.8784
1680	0.8747
1689	0.8675
1698	0.8588
1707	0.8481
1716	0.8344
1725	0.8225
1734	0.827
1743	0.8609
1752	0.8675
1761	0.8689
1770	0.8694
1779	0.8692
1788	0.8689
1797	0.8685
1806	0.8678
1815	0.8671
1824	0.8658
1833	0.8644
1842	0.8631
1851	0.8618
1860	0.8602
1869	0.8587
1878	0.8558
1887	0.8537
1896	0.8521
1905	0.8507
1914	0.8499
1923	0.8492
1932	0.8478
1941	0.8467
1950	0.845
1959	0.8444
1968	0.8445
1977	0.8442
1986	0.8407
1995	0.8337
2004	0.8334
2013	0.8384
2022	0.8378
2031	0.8363
2040	0.8332
2049	0.8293
2058	0.8256
2067	0.8221
2076	0.8188
2085	0.8161
2094	0.8136
2103	0.8115
2112	0.8097
2121	0.8076
2130	0.8053
2139	0.8018
2148	0.7978
2157	0.7937
2166	0.7898
2175	0.7858
2184	0.7832
2193	0.7811
2202	0.7794
2211	0.7764
2220	0.7714
2229	0.7649
2238	0.758
2247	0.7528
2256	0.7494
2265	0.7458
2274	0.7426
2283	0.7395
2292	0.7376
2301	0.736
2310	0.7348
2319	0.735
2328	0.7351
2337	0.7362
2346	0.7376
2355	0.7395
2364	0.7415
2373	0.74
2382	0.7324
2391	0.7253
2400	0.7224
2409	0.7217
2418	0.7208
2427	0.7196
2436	0.7181
2445	0.7167
2454	0.7158
2463	0.715
2472	0.7143
2481	0.714
2490	0.7137
2499	0.7133
2508	0.7128
2517	0.7118
2526	0.7101
2535	0.7088
2544	0.7075
2553	0.7061
2562	0.7057
2571	0.7051
2580	0.704
2589	0.7025
2598	0.7007
2607	0.6986
2616	0.6965
2625	0.695
2634	0.6926
2643	0.6884
2652	0.6848
2661	0.6818
2670	0.6801
2679	0.6789
2688	0.6761
2697	0.6728
2706	0.6699
2715	0.6668
2724	0.6636
2733	0.6601
2742	0.6587
2751	0.6607
2760	0.6611
2769	0.6607
2778	0.6582
2787	0.6542
2796	0.6498
2805	0.6432
2814	0.6364
2823	0.6277
2832	0.6154
2841	0.5932
2850	0.5703
2859	0.5654
2868	0.5819
2877	0.5854
2886	0.5821
2895	0.5693
2904	0.536
2913	0.4872
2922	0.4681
2931	0.5368
2940	0.5514
2949	0.5479
2958	0.5373
2967	0.5312
2976	0.5645
2985	0.5769
2994	0.586
3003	0.589
3012	0.5887
3021	0.5847
3030	0.57
3039	0.5606
3048	0.5555
3057	0.5121
3066	0.5302
3075	0.5555
3084	0.5683
3093	0.5685
3102	0.5662
3111	0.5617
3120	0.5564
3129	0.5492
3138	0.542
3147	0.5348
3156	0.5267
3165	0.5178
3174	0.5077
3183	0.4967
3192	0.4852
3201	0.4732
3210	0.4612
3219	0.4472
3228	0.4331
3237	0.4167
3246	0.3991
3255	0.3818
3264	0.3647
3273	0.3499
3282	0.3362
3291	0.3216
3300	0.3041
3309	0.2884
3318	0.2734
3327	0.2601
3336	0.2466
3345	0.2363
3354	0.2304
3363	0.2244
3372	0.2204
3381	0.2179
3390	0.2176
3399	0.2224
3408	0.2364
3417	0.2615
3426	0.3034
3435	0.3416
3444	0.3804
3453	0.4088
3462	0.4402
3471	0.4757
3480	0.5056
3489	0.53
3498	0.5522
3507	0.5716
3516	0.5826
3525	0.5898
3534	0.5946
3543	0.5968
3552	0.5969
3561	0.5962
3570	0.5937
3579	0.5901
3588	0.5862
3597	0.5832
3606	0.5802
3615	0.577
3624	0.5737
3633	0.5704
3642	0.5672
3651	0.5643
3660	0.5614
3669	0.5584
3678	0.5553
3687	0.552
3696	0.5488
3705	0.5455
3714	0.5423
3723	0.5393
3732	0.5364
3741	0.5335
3750	0.5306
3759	0.5275
3768	0.5245
3777	0.5212
3786	0.5182
3795	0.5151
