Infrared Spectrum: 6-Methyl-5-octen-2-one
Formula: C 9 H 16 O
CAS: 24199-46-0
State: gas
Origin: EPA-IR VAPOR PHASE LIBRARY
1/CM	ABSORBANCE
549.8	0.00365
559.445	0.00291
569.09	0.00171
578.734	0.0012634
588.379	0.0014032
598.024	0.0013918
607.669	0.00159
617.313	0.0008874
626.958	0.0007147
636.603	0.000688
646.248	0.00048443
655.893	0.00041433
665.537	0.0005848
675.182	0.000218
684.827	0.0003431
694.472	0.0005959
704.116	0.0009479
713.761	0.0010386
723.406	0.0014087
733.051	0.0010932
742.695	0.0009225
752.34	0.0010049
761.985	0.0007646
771.63	0.0009668
781.275	0.0012408
790.919	0.0009045
800.564	0.0011819
810.209	0.00154
819.854	0.00227
829.498	0.00248
839.143	0.00315
848.788	0.00335
858.433	0.00313
868.078	0.00241
877.722	0.00204
887.367	0.0013922
897.012	0.00175
906.657	0.00215
916.301	0.00216
925.946	0.00253
935.591	0.00252
945.236	0.00271
954.88	0.00256
964.525	0.00229
974.17	0.00278
983.815	0.00269
993.46	0.00298
1003.1	0.0024
1012.75	0.00232
1022.39	0.00216
1032.04	0.00196
1041.68	0.00192
1051.33	0.00221
1060.97	0.00265
1070.62	0.00328
1080.26	0.00211
1089.91	0.0023
1099.55	0.00315
1109.2	0.00269
1118.84	0.00397
1128.49	0.0046
1138.13	0.00698
1147.78	0.01134
1157.42	0.01271
1167.07	0.01067
1176.71	0.00946
1186.36	0.00774
1196	0.00725
1205.64	0.00766
1215.29	0.00689
1224.93	0.00693
1234.58	0.00658
1244.22	0.00568
1253.87	0.00475
1263.51	0.00435
1273.16	0.00392
1282.8	0.0033
1292.45	0.00303
1302.09	0.0032
1311.74	0.00452
1321.38	0.00651
1331.03	0.00804
1340.67	0.00992
1350.32	0.01405
1359.96	0.01802
1369.61	0.01519
1379.25	0.01075
1388.9	0.00833
1398.54	0.00676
1408.18	0.00651
1417.83	0.00707
1427.47	0.00759
1437.12	0.00794
1446.76	0.00804
1456.41	0.00787
1466.05	0.00674
1475.7	0.00489
1485.34	0.00343
1494.99	0.00273
1504.63	0.00235
1514.28	0.00222
1523.92	0.00217
1533.57	0.0022
1543.21	0.00208
1552.86	0.00192
1562.5	0.00188
1572.15	0.00174
1581.79	0.00153
1591.44	0.0015
1601.08	0.0013921
1610.73	0.0013499
1620.37	0.0014197
1630.01	0.00151
1639.66	0.0017
1649.3	0.00189
1658.95	0.00255
1668.59	0.0031
1678.24	0.00397
1687.88	0.00569
1697.53	0.00885
1707.17	0.01435
1716.82	0.02378
1726.46	0.03532
1736.11	0.03519
1745.75	0.02206
1755.4	0.01124
1765.04	0.00598
1774.69	0.0034
1784.33	0.00223
1793.98	0.00167
1803.62	0.0012198
1813.27	0.0010068
1822.91	0.0009384
1832.55	0.0007742
1842.2	0.0008032
1851.84	0.000787
1861.49	0.0008092
1871.13	0.000732
1880.78	0.0006837
1890.42	0.0007167
1900.07	0.0007399
1909.71	0.0005666
1919.36	0.0005715
1929	0.0005953
1938.65	0.0005797
1948.29	0.0005232
1957.94	0.0006955
1967.58	0.0005851
1977.23	0.0005267
1986.87	0.0005483
1996.52	0.0004059
2006.16	0.00045806
2015.81	0.00051142
2025.45	0.0005361
2035.1	0.0005433
2044.74	0.0005476
2054.38	0.0006555
2064.03	0.0005654
2073.67	0.000429609
2083.32	0.0005431
2092.96	0.0005759
2102.61	0.0005231
2112.25	0.0005508
2121.9	0.0006055
2131.54	0.0005956
2141.19	0.0005671
2150.83	0.0005715
2160.48	0.00049729
2170.12	0.0005733
2179.77	0.0006135
2189.41	0.0005287
2199.06	0.0005924
2208.7	0.0005461
2218.35	0.00048202
2227.99	0.0005337
2237.64	0.0005375
2247.28	0.0005595
2256.92	0.00046175
2266.57	0.0005252
2276.21	0.00048922
2285.86	0.0006351
2295.5	0.0005765
2305.15	0.00048633
2314.79	0.00043351
2324.44	0.000575
2334.08	0.00049549
2343.73	0.0005521
2353.37	0.0005539
2363.02	0.00044994
2372.66	0.0006447
2382.31	0.0006027
2391.95	0.0006238
2401.6	0.0006167
2411.24	0.0006322
2420.89	0.00047587
2430.53	0.0005432
2440.18	0.0005774
2449.82	0.0005332
2459.47	0.0006039
2469.11	0.00046505
2478.75	0.00046737
2488.4	0.0005508
2498.04	0.0005835
2507.69	0.0005612
2517.33	0.00049071
2526.98	0.0006362
2536.62	0.00050827
2546.27	0.0005961
2555.91	0.0006339
2565.56	0.0006396
2575.2	0.00049081
2584.85	0.0006328
2594.49	0.000642
2604.14	0.0007634
2613.78	0.0005721
2623.43	0.0006865
2633.07	0.0007307
2642.72	0.0006347
2652.36	0.0006282
2662.01	0.0006801
2671.65	0.0007367
2681.29	0.0008233
2690.94	0.0009102
2700.58	0.0007126
2710.23	0.000834
2719.87	0.0009362
2729.52	0.0009949
2739.16	0.0011347
2748.81	0.0012828
2758.45	0.0013382
2768.1	0.00145
2777.74	0.00143
2787.39	0.00186
2797.03	0.00179
2806.68	0.00243
2816.32	0.00277
2825.97	0.00366
2835.61	0.0051
2845.26	0.0076
2854.9	0.01069
2864.55	0.01318
2874.19	0.01456
2883.84	0.01742
2893.48	0.02038
2903.12	0.02238
2912.77	0.02418
2922.41	0.02623
2932.06	0.02692
2941.7	0.02641
2951.35	0.02458
2960.99	0.02767
2970.64	0.03548
2980.28	0.02847
2989.93	0.01791
2999.57	0.01308
3009.22	0.01062
3018.86	0.00836
3028.51	0.00663
3038.15	0.00557
3047.8	0.00443
3057.44	0.00396
3067.09	0.00338
3076.73	0.00289
3086.38	0.00229
3096.02	0.00186
3105.67	0.00173
3115.31	0.00144
3124.95	0.0010043
3134.6	0.0010002
3144.24	0.0008736
3153.89	0.0008355
3163.53	0.0008086
3173.18	0.0008434
3182.82	0.0008433
3192.47	0.0005461
3202.11	0.0007663
3211.76	0.0006099
3221.4	0.000427769
3231.05	0.0005312
3240.69	0.0006343
3250.34	0.0005529
3259.98	0.000284
3269.63	0.0005649
3279.27	0.000386
3288.92	0.0003479
3298.56	0.00044589
3308.21	0.0006678
3317.85	0.0003661
3327.49	0.00048701
3337.14	0.0005207
3346.78	0.000424683
3356.43	0.0003705
3366.07	0.00047996
3375.72	0.000577
3385.36	0.0005922
3395.01	0.00049718
3404.65	0.0003767
3414.3	0.0007957
3423.94	0.0005723
3433.59	0.0009673
3443.23	0.0010689
3452.88	0.0009955
3462.52	0.0010276
3472.17	0.0006019
3481.81	0.0005561
3491.46	0.0005682
3501.1	0.0004098
3510.75	0.0003547
3520.39	0.000429763
3530.04	0.000275
3539.68	0.000225
3549.32	0.0005724
3558.97	0.000142
3568.61	0.00050037
3578.26	0.0006444
3587.9	0.0006292
3597.55	0.0003724
3607.19	0.0006582
3616.84	0.00045664
3626.48	0.00041463
3636.13	0.000304
3645.77	0.0003581
3655.42	0.000288
3665.06	0.00041343
3674.71	0.00043998
3684.35	0.0003279
3694	0.000351
3703.64	0.0003433
3713.29	0.000192
3722.93	0.0006148
3732.58	0.0005911
3742.22	0.00047786
3751.86	0.0006904
3761.51	0.00048384
3771.15	0.0003617
3780.8	0.0005234
3790.44	0.0006147
3800.09	0.0005446
3809.73	0.0003496
3819.38	0.000261
3829.02	0.0004863
3838.67	0.0006118
3848.31	0.000331
3857.96	0.0005641
3867.6	0.000226
3877.25	0.00043737
3886.89	0.0006357
3896.54	0.00044656
3906.18	0.00048116
3915.83	0.0005809
3925.47	0.0006775
3935.12	0.0003615
3944.76	0.0006542
3954.41	0.0006398
3964.05	0.0006796
3973.69	0.00051349
3983.34	0.0005521
3992.98	0.0005476
