Infrared Spectrum: LINOLENYL ALDEHYDE
Formula: C18 H30 O
CAS: 2423-13-4
State: SOLUTION (10% CS2 FOR 5000-2380 AND 1390-625, 10% C2Cl4 FOR 2380-1390 CM^-^1)
Class: COBLENTZ
Instrument: PERKIN-ELMER
Sampling: TRANSMISSION
Path length: 0.01 CM, 0.01 CM
Resolution: 4
Origin: HORMEL INSTITUTE
MICROMETERS	TRANSMITTANCE
2.02	0.901
2.05391	0.903
2.08782	0.903
2.12173	0.903
2.15564	0.903
2.18954	0.901
2.22345	0.9
2.25736	0.891
2.29127	0.884
2.32518	0.877
2.35909	0.876
2.393	0.879
2.42691	0.886
2.46082	0.888
2.49472	0.891
2.52863	0.894
2.56254	0.894
2.59645	0.896
2.63036	0.894
2.66427	0.898
2.69818	0.891
2.73209	0.886
2.766	0.871
2.7999	0.85
2.83381	0.838
2.86772	0.83
2.90163	0.81
2.93554	0.811
2.96945	0.82
3.00336	0.82
3.03727	0.82
3.07118	0.822
3.10508	0.827
3.13899	0.83
3.1729	0.832
3.20681	0.832
3.24072	0.825
3.27463	0.789
3.30854	0.415
3.34245	0.516
3.37636	0.281
3.41026	0.089
3.44417	0.201
3.47808	0.318
3.51199	0.25
3.5459	0.532
3.57981	0.662
3.61372	0.771
3.64763	0.774
3.68154	0.583
3.71545	0.698
3.74935	0.803
3.78326	0.837
3.81717	0.854
3.85108	0.866
3.88499	0.871
3.9189	0.874
3.95281	0.877
3.98672	0.881
4.02063	0.886
4.05453	0.888
4.08844	0.889
4.12235	0.889
4.15626	0.891
4.19017	0.894
4.22408	0.901
4.25799	0.894
4.2919	0.894
4.32581	0.883
4.35971	0.881
4.39362	0.884
4.42753	0.883
4.46144	0.883
4.49535	0.884
4.52926	0.891
4.56317	0.889
4.59708	0.886
4.63099	0.889
4.66489	0.893
4.6988	0.891
4.73271	0.893
4.76662	0.893
4.80053	0.891
4.83444	0.888
4.86835	0.888
4.90226	0.889
4.93617	0.891
4.97007	0.891
5.00398	0.891
5.03789	0.894
5.0718	0.894
5.10571	0.896
5.13962	0.893
5.17353	0.891
5.20744	0.891
5.24135	0.884
5.27525	0.884
5.30916	0.877
5.34307	0.877
5.37698	0.872
5.41089	0.876
5.4448	0.866
5.47871	0.861
5.51262	0.854
5.54653	0.842
5.58043	0.823
5.61434	0.801
5.64825	0.755
5.68216	0.7
5.71607	0.527
5.74998	0.283
5.78389	0.096
5.8178	0.494
5.85171	0.637
5.88561	0.686
5.91952	0.716
5.95343	0.759
5.98734	0.754
6.02125	0.742
6.05516	0.732
6.08907	0.762
6.12298	0.789
6.15689	0.794
6.19079	0.796
6.2247	0.803
6.25861	0.81
6.29252	0.82
6.32643	0.83
6.36034	0.837
6.39425	0.842
6.42816	0.84
6.46207	0.854
6.49598	0.844
6.52988	0.854
6.56379	0.881
6.5977	0.883
6.63161	0.84
6.66552	0.833
6.69943	0.828
6.73334	0.793
6.76725	0.762
6.80116	0.533
6.83506	0.471
6.86897	0.503
6.90288	0.55
6.93679	0.571
6.9707	0.601
7.00461	0.632
7.03852	0.644
7.07243	0.618
7.10634	0.628
7.14024	0.623
7.17415	0.596
7.20806	0.669
7.24197	0.689
7.27588	0.669
7.30979	0.688
7.3437	0.705
7.37761	0.708
7.41152	0.716
7.44542	0.727
7.47933	0.737
7.51324	0.742
7.54715	0.738
7.58106	0.732
7.61497	0.708
7.64888	0.703
7.68279	0.711
7.7167	0.718
7.7506	0.713
7.78451	0.698
7.81842	0.681
7.85233	0.662
7.88624	0.655
7.92015	0.664
7.95406	0.683
7.98797	0.677
8.02188	0.662
8.05578	0.63
8.08969	0.622
8.1236	0.655
8.15751	0.694
8.19142	0.718
8.22533	0.733
8.25924	0.745
8.29315	0.747
8.32706	0.75
8.36096	0.754
8.39487	0.754
8.42878	0.754
8.46269	0.752
8.4966	0.752
8.53051	0.75
8.56442	0.75
8.59833	0.75
8.63224	0.75
8.66614	0.747
8.70005	0.745
8.73396	0.745
8.76787	0.745
8.80178	0.745
8.83569	0.744
8.8696	0.735
8.90351	0.732
8.93742	0.725
8.97132	0.722
9.00523	0.722
9.03914	0.722
9.07305	0.72
9.10696	0.716
9.14087	0.716
9.17478	0.722
9.20869	0.706
9.2426	0.7
9.2765	0.683
9.31041	0.662
9.34432	0.632
9.37823	0.635
9.41214	0.664
9.44605	0.674
9.47996	0.683
9.51387	0.688
9.54778	0.689
9.58169	0.691
9.61559	0.693
9.6495	0.694
9.68341	0.694
9.71732	0.691
9.75123	0.684
9.78514	0.684
9.81905	0.689
9.85296	0.694
9.88687	0.701
9.92077	0.706
9.95468	0.708
9.98859	0.708
10.0225	0.708
10.0564	0.706
10.0903	0.706
10.1242	0.703
10.1581	0.688
10.192	0.674
10.226	0.652
10.2599	0.605
10.2938	0.557
10.3277	0.523
10.3616	0.525
10.3955	0.588
10.4294	0.647
10.4633	0.676
10.4972	0.684
10.5311	0.691
10.565	0.691
10.599	0.693
10.6329	0.694
10.6668	0.694
10.7007	0.694
10.7346	0.696
10.7685	0.696
10.8024	0.7
10.8363	0.698
10.8702	0.694
10.9041	0.691
10.938	0.689
10.972	0.693
11.0059	0.698
11.0398	0.706
11.0737	0.715
11.1076	0.72
11.1415	0.723
11.1754	0.73
11.2093	0.733
11.2432	0.737
11.2771	0.74
11.311	0.744
11.3449	0.745
11.3789	0.747
11.4128	0.745
11.4467	0.744
11.4806	0.74
11.5145	0.732
11.5484	0.73
11.5823	0.73
11.6162	0.733
11.6501	0.742
11.684	0.745
11.7179	0.745
11.7519	0.747
11.7858	0.749
11.8197	0.757
11.8536	0.762
11.8875	0.764
11.9214	0.771
11.9553	0.774
11.9892	0.776
12.0231	0.776
12.057	0.776
12.0909	0.776
12.1249	0.776
12.1588	0.774
12.1927	0.772
12.2266	0.771
12.2605	0.769
12.2944	0.767
12.3283	0.762
12.3622	0.761
12.3961	0.759
12.43	0.759
12.4639	0.755
12.4979	0.749
12.5318	0.74
12.5657	0.728
12.5996	0.72
12.6335	0.722
12.6674	0.727
12.7013	0.73
12.7352	0.733
12.7691	0.738
12.803	0.74
12.8369	0.74
12.8708	0.737
12.9048	0.733
12.9387	0.73
12.9726	0.723
13.0065	0.716
13.0404	0.708
13.0743	0.7
13.1082	0.693
13.1421	0.684
13.176	0.676
13.2099	0.666
13.2438	0.659
13.2778	0.647
13.3117	0.635
13.3456	0.623
13.3795	0.61
13.4134	0.594
13.4473	0.581
13.4812	0.566
13.5151	0.55
13.549	0.535
13.5829	0.52
13.6168	0.5
13.6508	0.488
13.6847	0.471
13.7186	0.459
13.7525	0.444
13.7864	0.43
13.8203	0.422
13.8542	0.418
13.8881	0.418
13.922	0.418
13.9559	0.422
13.9898	0.422
14.0238	0.422
14.0577	0.425
14.0916	0.428
14.1255	0.432
14.1594	0.433
14.1933	0.437
14.2272	0.438
14.2611	0.44
14.295	0.444
14.3289	0.449
14.3628	0.449
14.3967	0.45
14.4307	0.45
14.4646	0.457
14.4985	0.461
14.5324	0.462
14.5663	0.464
14.6002	0.466
14.6341	0.471
14.668	0.476
14.7019	0.479
14.7358	0.483
14.7697	0.488
14.8037	0.493
14.8376	0.493
14.8715	0.501
14.9054	0.508
14.9393	0.522
14.9732	0.544
15.0071	0.51
15.041	0.498
