Infrared Spectrum: Guanidine, 1,3-diphenyl-, hydrochloride
Formula: C13 H14 Cl N3
CAS: 24245-27-0
State: SOLID (KBr DISC, 0.8% WT.)
Class: COBLENTZ III
Instrument: PERKIN-ELMER 157
Sampling: TRANSMISSION
Resolution: 2
Origin: BRITISH PETROLEUM CO. LTD., ENGLAND
1/CM	TRANSMITTANCE
667	0.3829
676	0.3394
685	0.2427
694	0.1722
703	0.1522
712	0.2463
721	0.3212
730	0.332
739	0.37
748	0.301
757	0.0715
766	0.1716
775	0.4256
784	0.6874
793	0.79
802	0.8477
811	0.8678
820	0.8658
829	0.8486
838	0.7964
847	0.7232
856	0.6721
865	0.8004
874	0.6809
883	0.838
892	0.8377
901	0.7926
910	0.6244
919	0.6815
928	0.8149
937	0.8095
946	0.7918
955	0.7877
964	0.7707
973	0.7339
982	0.7689
991	0.7695
1000	0.763
1009	0.7455
1018	0.7163
1027	0.6365
1036	0.7102
1045	0.741
1054	0.7226
1063	0.6988
1072	0.6408
1081	0.5556
1090	0.6291
1099	0.5939
1108	0.5684
1117	0.5676
1126	0.5806
1135	0.5999
1144	0.5954
1153	0.5733
1162	0.5635
1171	0.5676
1180	0.5672
1189	0.5659
1198	0.5449
1207	0.5142
1216	0.4615
1225	0.3594
1234	0.2015
1243	0.1985
1252	0.3601
1261	0.439
1270	0.4864
1279	0.4783
1288	0.3727
1297	0.4321
1306	0.4615
1315	0.4229
1324	0.5197
1333	0.5207
1342	0.5207
1351	0.507
1360	0.4924
1369	0.4705
1378	0.4222
1387	0.3644
1396	0.3125
1405	0.2213
1414	0.2788
1423	0.2883
1432	0.2207
1441	0.4135
1450	0.3819
1459	0.2455
1468	0.1815
1477	0.2369
1486	0.1475
1495	0.0904
1504	0.3324
1513	0.4225
1522	0.4181
1531	0.3822
1540	0.3152
1549	0.2457
1558	0.1568
1567	0.051
1576	0.0375
1585	0.044
1594	0.0813
1603	0.0538
1612	0.0645
1621	0.0474
1630	0.0889
1639	0.1073
1648	0.07
1657	0.048
1666	0.0936
1675	0.2571
1684	0.47
1693	0.6427
1702	0.7588
1711	0.8332
1720	0.8613
1729	0.9071
1738	0.9105
1747	0.9114
1756	0.9119
1765	0.9121
1774	0.9116
1783	0.9056
1792	0.8866
1801	0.8796
1810	0.8803
1819	0.8806
1828	0.88
1837	0.8787
1846	0.8687
1855	0.8632
1864	0.8577
1873	0.8385
1882	0.8218
1891	0.8201
1900	0.8216
1909	0.8152
1918	0.8026
1927	0.7988
1936	0.7964
1945	0.7857
1954	0.7787
1963	0.7767
1972	0.7755
1981	0.7748
1990	0.7744
1999	0.7739
2008	0.7735
2017	0.773
2026	0.7717
2035	0.7705
2044	0.7688
2053	0.7654
2062	0.7608
2071	0.754
2080	0.7443
2089	0.7379
2098	0.7336
2107	0.7314
2116	0.7265
2125	0.7206
2134	0.7179
2143	0.7156
2152	0.7143
2161	0.7121
2170	0.7088
2179	0.7051
2188	0.7015
2197	0.699
2206	0.6972
2215	0.6941
2224	0.6897
2233	0.6855
2242	0.6814
2251	0.6776
2260	0.6745
2269	0.6714
2278	0.6685
2287	0.6656
2296	0.6627
2305	0.6583
2314	0.6529
2323	0.6456
2332	0.6392
2341	0.6343
2350	0.6309
2359	0.6284
2368	0.6259
2377	0.6234
2386	0.62
2395	0.6164
2404	0.6128
2413	0.609
2422	0.6054
2431	0.6014
2440	0.5964
2449	0.5912
2458	0.5816
2467	0.5731
2476	0.5712
2485	0.5693
2494	0.5663
2503	0.5631
2512	0.5597
2521	0.5558
2530	0.5516
2539	0.5467
2548	0.5412
2557	0.5352
2566	0.5283
2575	0.5203
2584	0.5088
2593	0.496
2602	0.4848
2611	0.4751
2620	0.4641
2629	0.4514
2638	0.438
2647	0.4216
2656	0.4026
2665	0.387
2674	0.3742
2683	0.3663
2692	0.3584
2701	0.3456
2710	0.3206
2719	0.3019
2728	0.2767
2737	0.2676
2746	0.2568
2755	0.2454
2764	0.2342
2773	0.2248
2782	0.2131
2791	0.1979
2800	0.1567
2809	0.1469
2818	0.145
2827	0.1443
2836	0.1443
2845	0.1431
2854	0.1371
2863	0.1186
2872	0.1121
2881	0.1116
2890	0.111
2899	0.1097
2908	0.1051
2917	0.0905
2926	0.0852
2935	0.0838
2944	0.0839
2953	0.0848
2962	0.0864
2971	0.0883
2980	0.0902
2989	0.0918
2998	0.0924
3007	0.0908
3016	0.085
3025	0.0768
3034	0.0706
3043	0.0677
3052	0.0668
3061	0.0667
3070	0.0668
3079	0.0667
3088	0.0695
3097	0.0733
3106	0.0792
3115	0.0852
3124	0.0919
3133	0.1066
3142	0.1318
3151	0.1589
3160	0.1804
3169	0.1899
3178	0.1922
3187	0.1929
3196	0.1932
3205	0.1934
3214	0.1937
3223	0.1941
3232	0.1954
3241	0.2048
3250	0.2141
3259	0.2213
3268	0.2305
3277	0.2418
3286	0.2568
3295	0.272
3304	0.2918
3313	0.3042
3322	0.3184
3331	0.3262
3340	0.3293
3349	0.3299
3358	0.3295
3367	0.3289
3376	0.3277
3385	0.3189
3394	0.3054
3403	0.2988
3412	0.2955
3421	0.2985
3430	0.353
3439	0.4281
3448	0.4827
3457	0.494
3466	0.5109
3475	0.5362
3484	0.5438
3493	0.5478
3502	0.5673
3511	0.5708
3520	0.5735
3529	0.5803
3538	0.5875
3547	0.5896
3556	0.5904
3565	0.5912
3574	0.5917
3583	0.5922
3592	0.5928
3601	0.5933
3610	0.5936
3619	0.594
3628	0.5943
3637	0.5947
3646	0.5947
3655	0.5947
3664	0.5947
3673	0.5947
3682	0.5943
3691	0.5935
3700	0.5894
3709	0.5815
3718	0.5777
3727	0.576
3736	0.575
3745	0.5746
3754	0.5743
3763	0.5744
3772	0.5745
3781	0.5745
3790	0.5745
3799	0.5744
3808	0.5739
3817	0.573
3826	0.5709
3835	0.5674
3844	0.5642
3853	0.5611
3862	0.5583
3871	0.5559
3880	0.5545
3889	0.5537
3898	0.5528
3907	0.5524
3916	0.5524
3925	0.5524
3934	0.5523
3943	0.5523
3952	0.5523
3961	0.5522
3970	0.5522
3979	0.5522
3988	0.5521
3997	0.5521
