Infrared Spectrum: ISOBUTYRIC ACID, VINYL ESTER
Formula: C6 H10 O2
CAS: 2424-98-8
Class: COBLENTZ
Instrument: Not specified, most likely a prism, grating, or hybrid spectrometer.
Sampling: TRANSMISSION
Path length: SMEAR
Resolution: 4
Origin: TENNESSEE EASTMAN COMPANY, RESEARCH LABORATORIES
MICROMETERS	TRANSMITTANCE
2.03	0.977
2.07126	0.974
2.11252	0.974
2.15378	0.972
2.19504	0.969
2.2363	0.956
2.27757	0.948
2.31883	0.948
2.36009	0.95
2.40135	0.95
2.44261	0.951
2.48387	0.951
2.52513	0.958
2.56639	0.963
2.60765	0.969
2.64891	0.969
2.69018	0.974
2.73144	0.972
2.7727	0.972
2.81396	0.97
2.85522	0.958
2.89648	0.95
2.93774	0.956
2.979	0.958
3.02026	0.962
3.06152	0.963
3.10279	0.962
3.14405	0.958
3.18531	0.955
3.22657	0.907
3.26783	0.917
3.30909	0.905
3.35035	0.447
3.39161	0.676
3.43287	0.777
3.47413	0.855
3.5154	0.938
3.55666	0.95
3.59792	0.953
3.63918	0.953
3.68044	0.953
3.7217	0.955
3.76296	0.955
3.80422	0.955
3.84548	0.955
3.88674	0.955
3.92801	0.955
3.96927	0.955
4.01053	0.955
4.05179	0.955
4.09305	0.955
4.13431	0.955
4.17557	0.955
4.21683	0.963
4.25809	0.987
4.29935	0.989
4.34062	0.963
4.38188	0.938
4.42314	0.936
4.4644	0.939
4.50566	0.944
4.54692	0.946
4.58818	0.951
4.62944	0.951
4.6707	0.948
4.71196	0.944
4.75323	0.944
4.79449	0.944
4.83575	0.943
4.87701	0.931
4.91827	0.917
4.95953	0.92
5.00079	0.924
5.04205	0.924
5.08331	0.929
5.12457	0.931
5.16584	0.931
5.2071	0.927
5.24836	0.922
5.28962	0.922
5.33088	0.932
5.37214	0.929
5.4134	0.917
5.45466	0.903
5.49592	0.879
5.53718	0.853
5.57845	0.764
5.61971	0.523
5.66097	0.091
5.70223	0.134
5.74349	0.561
5.78475	0.745
5.82601	0.786
5.86727	0.829
5.90853	0.853
5.94979	0.867
5.99106	0.834
6.03232	0.617
6.07358	0.352
6.11484	0.7
6.1561	0.814
6.19736	0.865
6.23862	0.9
6.27988	0.898
6.32114	0.896
6.3624	0.896
6.40367	0.9
6.44493	0.91
6.48619	0.913
6.52745	0.913
6.56871	0.91
6.60997	0.898
6.65123	0.882
6.69249	0.834
6.73375	0.71
6.77501	0.555
6.81628	0.688
6.85754	0.755
6.8988	0.808
6.94006	0.855
6.98132	0.867
7.02258	0.877
7.06384	0.876
7.1051	0.865
7.14636	0.702
7.18762	0.617
7.22889	0.75
7.27015	0.745
7.31141	0.733
7.35267	0.685
7.39393	0.557
7.43519	0.581
7.47645	0.698
7.51771	0.762
7.55897	0.805
7.60023	0.822
7.6415	0.805
7.68276	0.705
7.72402	0.671
7.76528	0.767
7.80654	0.79
7.8478	0.793
7.88906	0.796
7.93032	0.76
7.97158	0.64
8.01284	0.487
8.05411	0.483
8.09537	0.592
8.13663	0.645
8.17789	0.655
8.21915	0.64
8.26041	0.581
8.30167	0.492
8.34293	0.385
8.38419	0.273
8.42545	0.253
8.46672	0.311
8.50798	0.227
8.54924	0.096
8.5905	0.053
8.63176	0.037
8.67302	0.034
8.71428	0.037
8.75554	0.065
8.7968	0.149
8.83806	0.271
8.87932	0.363
8.92059	0.423
8.96185	0.426
9.00311	0.425
9.04437	0.409
9.08563	0.416
9.12689	0.554
9.16815	0.631
9.20941	0.669
9.25067	0.678
9.29193	0.647
9.3332	0.573
9.37446	0.531
9.41572	0.605
9.45698	0.697
9.49824	0.767
9.5395	0.814
9.58076	0.834
9.62202	0.846
9.66328	0.858
9.70454	0.865
9.74581	0.869
9.78707	0.874
9.82833	0.879
9.86959	0.882
9.91085	0.884
9.95211	0.884
9.99337	0.886
10.0346	0.886
10.0759	0.886
10.1172	0.884
10.1584	0.874
10.1997	0.855
10.2409	0.824
10.2822	0.781
10.3235	0.695
10.3647	0.638
10.406	0.597
10.4472	0.53
10.4885	0.478
10.5298	0.493
10.571	0.605
10.6123	0.7
10.6535	0.755
10.6948	0.774
10.7361	0.798
10.7773	0.82
10.8186	0.839
10.8599	0.853
10.9011	0.858
10.9424	0.858
10.9836	0.858
11.0249	0.855
11.0662	0.839
11.1074	0.812
11.1487	0.781
11.1899	0.728
11.2312	0.664
11.2725	0.602
11.3137	0.555
11.355	0.524
11.3962	0.512
11.4375	0.511
11.4788	0.535
11.52	0.604
11.5613	0.672
11.6026	0.74
11.6438	0.771
11.6851	0.793
11.7263	0.793
11.7676	0.757
11.8089	0.743
11.8501	0.757
11.8914	0.796
11.9326	0.834
11.9739	0.853
12.0152	0.876
12.0564	0.884
12.0977	0.895
12.1389	0.898
12.1802	0.903
12.2215	0.901
12.2627	0.903
12.304	0.905
12.3452	0.907
12.3865	0.907
12.4278	0.907
12.469	0.907
12.5103	0.91
12.5516	0.912
12.5928	0.91
12.6341	0.912
12.6753	0.912
12.7166	0.912
12.7579	0.912
12.7991	0.912
12.8404	0.912
12.8816	0.912
12.9229	0.91
12.9642	0.905
13.0054	0.898
13.0467	0.888
13.0879	0.874
13.1292	0.857
13.1705	0.845
13.2117	0.831
13.253	0.822
13.2943	0.819
13.3355	0.819
13.3768	0.822
13.418	0.829
13.4593	0.839
13.5006	0.843
13.5418	0.845
13.5831	0.846
13.6243	0.846
13.6656	0.846
13.7069	0.846
13.7481	0.846
13.7894	0.846
13.8306	0.845
13.8719	0.843
13.9132	0.836
13.9544	0.826
13.9957	0.82
14.0369	0.807
14.0782	0.8
14.1195	0.784
14.1607	0.767
14.202	0.757
14.2433	0.755
14.2845	0.753
14.3258	0.753
14.367	0.753
14.4083	0.753
14.4496	0.755
14.4908	0.757
14.5321	0.76
14.5733	0.759
14.6146	0.759
14.6559	0.759
14.6971	0.759
14.7384	0.759
14.7796	0.759
14.8209	0.755
14.8622	0.753
14.9034	0.746
14.9447	0.743
14.986	0.746
15.0272	0.752
15.0685	0.746
15.1097	0.738
15.151	0.731
15.1923	0.726
15.2335	0.719
15.2748	0.712
15.316	0.703
15.3573	0.702
15.3986	0.7
15.4398	0.695
15.4811	0.691
15.5223	0.69
15.5636	0.686
15.6049	0.681
15.6461	0.676
15.6874	0.674
15.7286	0.672
15.7699	0.671
15.8112	0.667
15.8524	0.669
15.8937	0.669
15.935	0.669
15.9762	0.669
