Infrared Spectrum: 2-Hexyl-1-decanol
Formula: C 16 H 34 O
CAS: 2425-77-6
State: gas
Instrument: HP-GC/MS/IRD
Origin: NIST Mass Spectrometry Data Center
1/CM	ABSORBANCE
550	0.0002475
562	0.0002475
574	9.75e-05
586	0.00012
598	0
610	6e-05
622	6e-05
634	0.0001275
646	6.75e-05
658	7.5e-05
670	9.75e-05
682	0.0001125
694	0.000285
706	0.000645
718	0.001095
730	0.00111
742	0.00087
754	0.0007125
766	0.00063
778	0.00045
790	0.00042
802	0.00039
814	0.0003225
826	0.0002775
838	0.0003975
850	0.000435
862	0.0005025
874	0.0006375
886	0.00072
898	0.000765
910	0.0007725
922	0.000855
934	0.000945
946	0.0011325
958	0.001365
970	0.001695
982	0.0020925
994	0.0026925
1006	0.0037575
1018	0.0057
1030	0.00837
1042	0.0074775
1054	0.005085
1066	0.0033525
1078	0.002175
1090	0.00159
1102	0.001335
1114	0.00123
1126	0.00114
1138	0.001065
1150	0.000975
1162	0.00099
1174	0.00111
1186	0.0011775
1198	0.0012525
1210	0.0013575
1222	0.0014025
1234	0.001455
1246	0.001485
1258	0.00153
1270	0.001605
1282	0.001695
1294	0.001815
1306	0.00192
1318	0.0018975
1330	0.00201
1342	0.00258
1354	0.0028125
1366	0.00282
1378	0.00294
1390	0.00246
1402	0.0015825
1414	0.00132
1426	0.00144
1438	0.0024375
1450	0.0046575
1462	0.006435
1474	0.0048525
1486	0.002115
1498	0.0010875
1510	0.0008175
1522	0.0005775
1534	0.0003825
1546	0.0003375
1558	0.00036
1570	0.0001875
1582	0.00015
1594	0.000105
1606	9.75e-05
1618	0.0001125
1630	0.000105
1642	0.00012
1654	0.0001875
1666	9.75e-05
1678	9.75e-05
1690	9.75e-05
1702	0.0001575
1714	0.000135
1726	4.5e-05
1738	0.000105
1750	9.75e-05
1762	5.25e-05
1774	5.25e-05
1786	4.5e-05
1798	4.5e-05
1810	7.5e-06
1822	2.25e-05
1834	7.5e-06
1846	4.5e-05
1858	7.5e-06
1870	3.75e-05
1882	0
1894	7.5e-06
1906	1.5e-05
1918	7.5e-06
1930	0
1942	7.5e-06
1954	1.5e-05
1966	3.75e-05
1978	2.25e-05
1990	4.5e-05
2002	6e-05
2014	7.5e-05
2026	0.000105
2038	0.0001125
2050	0.00012
2062	9.75e-05
2074	6e-05
2086	4.5e-05
2098	3e-05
2110	1.5e-05
2122	7.5e-06
2134	7.5e-06
2146	3e-05
2158	3.75e-05
2170	7.5e-06
2182	3.75e-05
2194	2.25e-05
2206	0
2218	2.25e-05
2230	7.5e-06
2242	1.5e-05
2254	2.25e-05
2266	3e-05
2278	3.75e-05
2290	5.25e-05
2302	5.25e-05
2314	7.5e-05
2326	9e-05
2338	9.75e-05
2350	9e-05
2362	0.0001425
2374	8.25e-05
2386	5.25e-05
2398	7.5e-05
2410	5.25e-05
2422	8.25e-05
2434	6e-05
2446	5.25e-05
2458	6e-05
2470	5.25e-05
2482	6e-05
2494	7.5e-05
2506	9.75e-05
2518	0.0001275
2530	0.0001725
2542	0.00018
2554	0.00021
2566	0.00024
2578	0.0002925
2590	0.0002775
2602	0.0003525
2614	0.00039
2626	0.00045
2638	0.00051
2650	0.0006
2662	0.00069
2674	0.0007875
2686	0.0008025
2698	0.0008175
2710	0.0008475
2722	0.0009375
2734	0.001065
2746	0.001215
2758	0.00129
2770	0.00144
2782	0.00171
2794	0.0021225
2806	0.0026475
2818	0.00354
2830	0.005115
2842	0.00861
2854	0.0196275
2866	0.03021
2878	0.0261225
2890	0.02292
2902	0.0261825
2914	0.039945
2926	0.0667275
2938	0.06915
2950	0.040095
2962	0.031425
2974	0.0231
2986	0.0099375
2998	0.00549
3010	0.0035475
3022	0.002565
3034	0.00192
3046	0.0014775
3058	0.001215
3070	0.0009825
3082	0.0008175
3094	0.00072
3106	0.000585
3118	0.00051
3130	0.0004575
3142	0.00039
3154	0.0003525
3166	0.0003375
3178	0.0003075
3190	0.0002475
3202	0.00021
3214	0.00015
3226	0.0001125
3238	6.75e-05
3250	3.75e-05
3262	3.75e-05
3274	3e-05
3286	2.25e-05
3298	0
3310	2.25e-05
3322	7.5e-06
3334	3e-05
3346	3.75e-05
3358	1.5e-05
3370	4.5e-05
3382	3e-05
3394	4.5e-05
3406	6e-05
3418	0
3430	3e-05
3442	3.75e-05
3454	3e-05
3466	2.25e-05
3478	4.5e-05
3490	5.25e-05
3502	3.75e-05
3514	1.5e-05
3526	4.5e-05
3538	1.5e-05
3550	3.75e-05
3562	7.5e-05
3574	0
3586	0.0001125
3598	7.5e-05
3610	0.000195
3622	0.000225
3634	0.0003675
3646	0.000825
3658	0.00174
3670	0.0022275
3682	0.001005
3694	0.0004275
3706	0.0002325
3718	0.0001575
3730	0.000165
3742	0.000165
3754	0.00015
3766	9.75e-05
3778	8.25e-05
3790	9e-05
3802	0.0001425
3814	0.000135
3826	0.000135
3838	0.00018
