Infrared Spectrum: N-t-Butylformamide
Formula: C 5 H 11 N O
CAS: 2425-74-3
State: gas
Origin: EPA-IR VAPOR PHASE LIBRARY
1/CM	ABSORBANCE
501.5	3.643e-05
513.074	0.0001682
524.648	0.0002543
536.222	0.0002628
547.796	0.00012204
559.37	0.0002885
570.944	0.0001751
582.518	0.0002318
594.092	0.0001191
605.666	0.0002224
617.24	0.0001431
628.814	5.724e-05
640.388	4e-06
651.962	7.223e-05
663.536	0.0001348
675.11	0.0001797
686.684	0.0002186
698.258	0.0003398
709.832	0.0003129
721.406	0.0002072
732.98	0.0001468
744.554	0.0001853
756.128	8.884e-05
767.702	0.00010067
779.276	7.821e-05
790.85	0.00010357
802.423	2.26e-05
813.997	0.0001606
825.571	0.0001557
837.145	0.0001502
848.719	0.00013275
860.293	0.0001642
871.867	0.0002465
883.441	0.0002335
895.015	0.0002579
906.589	0.0002383
918.163	0.0002551
929.737	0.0003455
941.311	0.0003644
952.885	0.0004272
964.459	0.0004264
976.033	0.0004325
987.607	0.0003797
999.181	0.0003185
1010.76	0.0002906
1022.33	0.0003126
1033.9	0.0003609
1045.48	0.0003948
1057.05	0.0003242
1068.63	0.0003088
1080.2	0.0003107
1091.77	0.000338
1103.35	0.0003568
1114.92	0.0004125
1126.49	0.0004087
1138.07	0.0004087
1149.64	0.0006451
1161.22	0.0011988
1172.79	0.0015788
1184.36	0.0013988
1195.94	0.0009715
1207.51	0.0015588
1219.09	0.0026288
1230.66	0.0033188
1242.23	0.0028988
1253.81	0.0019888
1265.38	0.0010285
1276.96	0.0007047
1288.53	0.0005466
1300.1	0.0003134
1311.68	0.000153
1323.25	0.00010855
1334.83	0.00014
1346.4	0.0005011
1357.97	0.0013188
1369.55	0.0021488
1381.12	0.0020488
1392.7	0.0015688
1404.27	0.0011488
1415.84	0.0008782
1427.42	0.0012588
1438.99	0.0023788
1450.57	0.0031888
1462.14	0.0032488
1473.71	0.0034988
1485.29	0.0043288
1496.86	0.0039488
1508.44	0.0021788
1520.01	0.0007697
1531.58	0.0004272
1543.16	0.0002989
1554.73	0.0002485
1566.31	0.0002522
1577.88	0.0002742
1589.45	0.0002679
1601.03	0.0002813
1612.6	0.0002405
1624.18	0.0002313
1635.75	0.0002229
1647.32	0.0002814
1658.9	0.0003979
1670.47	0.0006105
1682.05	0.0010488
1693.62	0.0023088
1705.19	0.0068988
1716.77	0.0152188
1728.34	0.0178288
1739.92	0.0108788
1751.49	0.0030688
1763.06	0.0010488
1774.64	0.0005855
1786.21	0.000438
1797.79	0.0003385
1809.36	0.0002882
1820.93	0.0002255
1832.51	0.0001453
1844.08	0.0001304
1855.66	0.00012901
1867.23	0.00012608
1878.8	0.00013353
1890.38	0.00011324
1901.95	9.357e-05
1913.53	0.00010081
1925.1	0.00012173
1936.67	0.0001315
1948.25	0.00013159
1959.82	9.344e-05
1971.4	6.89e-05
1982.97	5.525e-05
1994.54	5.174e-05
2006.12	7.972e-05
2017.69	7.37e-05
2029.27	7.569e-05
2040.84	8.522e-05
2052.41	8.864e-05
2063.99	9.086e-05
2075.56	7.784e-05
2087.14	0.00010748
2098.71	7.728e-05
2110.28	8.861e-05
2121.86	8.057e-05
2133.43	0.00010652
2145.01	0.00010912
2156.58	9.596e-05
2168.15	9.802e-05
2179.73	0.00012236
2191.3	8.915e-05
2202.88	0.00012363
2214.45	0.00011417
2226.02	0.00011071
2237.6	0.00011615
2249.17	0.00011154
2260.74	0.00013095
2272.32	0.0001197
2283.89	0.00012037
2295.47	0.0001791
2307.04	0.0001559
2318.61	0.000149
2330.19	0.0001553
2341.76	0.0001628
2353.34	0.000182
2364.91	0.0001941
2376.48	0.000157
2388.06	0.0001469
2399.63	0.0001398
2411.21	0.00012652
2422.78	0.00012691
2434.35	0.00010851
2445.93	0.00011621
2457.5	0.00012294
2469.08	0.00013497
2480.65	0.00012018
2492.22	0.0001499
2503.8	0.00013166
2515.37	0.0001661
2526.95	0.0001522
2538.52	0.0001583
2550.09	0.00013428
2561.67	0.0001623
2573.24	0.0001399
2584.82	0.00012965
2596.39	0.0001742
2607.96	0.0001924
2619.54	0.0001868
2631.11	0.0001908
2642.69	0.0002234
2654.26	0.0002186
2665.83	0.0002815
2677.41	0.0002674
2688.98	0.000278
2700.56	0.0003341
2712.13	0.0003674
2723.7	0.0005399
2735.28	0.0011188
2746.85	0.0017488
2758.43	0.0016888
2770	0.0010183
2781.57	0.0006198
2793.15	0.0005638
2804.72	0.0007256
2816.3	0.0014188
2827.87	0.0025188
2839.44	0.0029588
2851.02	0.0022188
2862.59	0.0015888
2874.17	0.0016388
2885.74	0.0017788
2897.31	0.0017888
2908.89	0.0019188
2920.46	0.0021288
2932.04	0.0023388
2943.61	0.0025988
2955.18	0.0032788
2966.76	0.0046788
2978.33	0.0053688
2989.91	0.0040588
3001.48	0.0019288
3013.05	0.0009071
3024.63	0.0004263
3036.2	0.0003309
3047.78	0.0003235
3059.35	0.0003089
3070.92	0.0003058
3082.5	0.0003029
3094.07	0.0002763
3105.65	0.0002597
3117.22	0.0003435
3128.79	0.0003099
3140.37	0.000275
3151.94	0.0002768
3163.52	0.000255
3175.09	0.0002899
3186.66	0.0002844
3198.24	0.0002538
3209.81	0.0002809
3221.39	0.0002486
3232.96	0.0002805
3244.53	0.0002995
3256.11	0.0002096
3267.68	0.0001875
3279.26	0.0002187
3290.83	0.0001958
3302.4	0.0001932
3313.98	0.0002175
3325.55	0.0001773
3337.13	0.0002363
3348.7	0.0002172
3360.27	0.0002072
3371.85	0.0002464
3383.42	0.0002854
3395	0.0003013
3406.57	0.0004447
3418.14	0.0005417
3429.72	0.0007546
3441.29	0.0008806
3452.86	0.0007712
3464.44	0.0005776
3476.01	0.0003092
3487.59	0.0002518
3499.16	0.0001732
3510.73	0.0001516
3522.31	0.0001744
3533.88	0.0001223
3545.46	0.0001428
3557.03	0.0001556
3568.6	0.00011961
3580.18	0.0001934
3591.75	0.000141
3603.33	0.0002224
3614.9	0.000177
3626.47	0.0001459
3638.05	0.0001616
3649.62	0.0001599
3661.2	0.0001469
3672.77	0.0002042
3684.34	0.000153
3695.92	0.0002274
3707.49	0.0002146
3719.07	0.0001418
3730.64	0.0001642
3742.21	0.0001501
3753.79	0.0001634
3765.36	0.0001778
3776.94	0.0002005
3788.51	0.0001806
3800.08	0.0001977
3811.66	0.0002543
3823.23	0.0001919
3834.81	0.0002414
3846.38	0.0002137
3857.95	0.0001661
3869.53	0.0002152
3881.1	0.0002308
3892.68	0.0002205
3904.25	0.0002376
3915.82	0.0001861
3927.4	0.0001841
3938.97	0.0002557
3950.55	0.0001984
3962.12	0.0001891
3973.69	0.0002855
3985.27	0.0002524
3996.84	0.0002003
