Infrared Spectrum: 3,4,5,6-Tetrahydrophthalic anhydride
Formula: C 8 H 8 O 3
CAS: 2426-02-0
State: gas
Origin: EPA-IR VAPOR PHASE LIBRARY
1/CM	ABSORBANCE
549.8	0.001711
559.445	0.002461
569.09	0.001401
578.734	0.0004694
588.379	0.0003392
598.024	6.5e-05
607.669	4.7e-05
617.313	0
626.958	8.51e-05
636.603	0.00026577
646.248	0.00024461
655.893	0.0003497
665.537	0.0003947
675.182	0.0009166
684.827	0.004051
694.472	0.009211
704.116	0.008991
713.761	0.009401
723.406	0.016301
733.051	0.011681
742.695	0.005591
752.34	0.001731
761.985	0.0010672
771.63	0.0010153
781.275	0.0010899
790.919	0.001501
800.564	0.001721
810.209	0.001831
819.854	0.002071
829.498	0.003641
839.143	0.005951
848.788	0.006721
858.433	0.009051
868.078	0.021221
877.722	0.054371
887.367	0.097391
897.012	0.117871
906.657	0.085311
916.301	0.026701
925.946	0.008711
935.591	0.007241
945.236	0.012321
954.88	0.013841
964.525	0.010431
974.17	0.006331
983.815	0.004681
993.46	0.003731
1003.1	0.003491
1012.75	0.005031
1022.39	0.010391
1032.04	0.011841
1041.68	0.006431
1051.33	0.003711
1060.97	0.007351
1070.62	0.016701
1080.26	0.018471
1089.91	0.008711
1099.55	0.003731
1109.2	0.003021
1118.84	0.002611
1128.49	0.003041
1138.13	0.003191
1147.78	0.003511
1157.42	0.005411
1167.07	0.011231
1176.71	0.013701
1186.36	0.009611
1196	0.006341
1205.64	0.006751
1215.29	0.009051
1224.93	0.011081
1234.58	0.013491
1244.22	0.027251
1253.87	0.068541
1263.51	0.095511
1273.16	0.063611
1282.8	0.017021
1292.45	0.009541
1302.09	0.008011
1311.74	0.008361
1321.38	0.006481
1331.03	0.004991
1340.67	0.006621
1350.32	0.007611
1359.96	0.005971
1369.61	0.003821
1379.25	0.002711
1388.9	0.002181
1398.54	0.001911
1408.18	0.002161
1417.83	0.003271
1427.47	0.008711
1437.12	0.014221
1446.76	0.014001
1456.41	0.011261
1466.05	0.006361
1475.7	0.003361
1485.34	0.002971
1494.99	0.002621
1504.63	0.001911
1514.28	0.001511
1523.92	0.001271
1533.57	0.001221
1543.21	0.001401
1552.86	0.001761
1562.5	0.001611
1572.15	0.001371
1581.79	0.001231
1591.44	0.001371
1601.08	0.0010895
1610.73	0.000903
1620.37	0.0008333
1630.01	0.0009437
1639.66	0.0011545
1649.3	0.001651
1658.95	0.002861
1668.59	0.005921
1678.24	0.008961
1687.88	0.007681
1697.53	0.004341
1707.17	0.003981
1716.82	0.006391
1726.46	0.009451
1736.11	0.011851
1745.75	0.014751
1755.4	0.025291
1765.04	0.053451
1774.69	0.137421
1784.33	0.347851
1793.98	0.378961
1803.62	0.172071
1813.27	0.053581
1822.91	0.028921
1832.55	0.022371
1842.2	0.033481
1851.84	0.054731
1861.49	0.052971
1871.13	0.026631
1880.78	0.009791
1890.42	0.006681
1900.07	0.005921
1909.71	0.005881
1919.36	0.006121
1929	0.005311
1938.65	0.003931
1948.29	0.003481
1957.94	0.003701
1967.58	0.003361
1977.23	0.002541
1986.87	0.001921
1996.52	0.001541
2006.16	0.001471
2015.81	0.001591
2025.45	0.001431
2035.1	0.0011446
2044.74	0.0010863
2054.38	0.0010566
2064.03	0.0009854
2073.67	0.0009856
2083.32	0.0010294
2092.96	0.0010218
2102.61	0.001321
2112.25	0.001631
2121.9	0.001801
2131.54	0.002051
2141.19	0.002451
2150.83	0.002661
2160.48	0.002341
2170.12	0.001591
2179.77	0.0009633
2189.41	0.0007287
2199.06	0.0007843
2208.7	0.0007553
2218.35	0.0007765
2227.99	0.0008285
2237.64	0.0008275
2247.28	0.000825
2256.92	0.0007026
2266.57	0.0006136
2276.21	0.0005644
2285.86	0.0006452
2295.5	0.0006736
2305.15	0.0006262
2314.79	0.0006008
2324.44	0.0006175
2334.08	0.0007278
2343.73	0.0007137
2353.37	0.0005357
2363.02	0.0003672
2372.66	0.0004348
2382.31	0.0004542
2391.95	0.0004093
2401.6	0.0005179
2411.24	0.0006408
2420.89	0.0006792
2430.53	0.0008588
2440.18	0.0008347
2449.82	0.000671
2459.47	0.0005243
2469.11	0.0004286
2478.75	0.0004059
2488.4	0.0004468
2498.04	0.000485
2507.69	0.0004092
2517.33	0.0003934
2526.98	0.0003057
2536.62	0.0003161
2546.27	0.0003074
2555.91	0.000348
2565.56	0.0003639
2575.2	0.0003779
2584.85	0.0003739
2594.49	0.0003485
2604.14	0.0003446
2613.78	0.00034
2623.43	0.0003429
2633.07	0.0004366
2642.72	0.0005221
2652.36	0.000699
2662.01	0.0009826
2671.65	0.000802
2681.29	0.0006933
2690.94	0.0005138
2700.58	0.0004152
2710.23	0.000435
2719.87	0.000396
2729.52	0.0003201
2739.16	0.0003855
2748.81	0.0004066
2758.45	0.0005575
2768.1	0.0007839
2777.74	0.0008816
2787.39	0.000704
2797.03	0.0008826
2806.68	0.000955
2816.32	0.0009867
2825.97	0.001321
2835.61	0.002601
2845.26	0.005141
2854.9	0.006991
2864.55	0.010421
2874.19	0.015301
2883.84	0.012671
2893.48	0.008921
2903.12	0.008341
2912.77	0.010211
2922.41	0.012591
2932.06	0.021671
2941.7	0.034201
2951.35	0.057841
2960.99	0.058291
2970.64	0.028641
2980.28	0.004491
2989.93	0.001761
2999.57	0.0011603
3009.22	0.0008386
3018.86	0.0008473
3028.51	0.0009282
3038.15	0.000956
3047.8	0.0010874
3057.44	0.0010084
3067.09	0.0006899
3076.73	0.0003918
3086.38	0.0003284
3096.02	0.0003231
3105.67	0.0002863
3115.31	0.0001657
3124.95	0.00017258
3134.6	6.4e-05
3144.24	0.00025219
3153.89	0.00022083
3163.53	0.00024242
3173.18	0.00020191
3182.82	0.0003259
3192.47	0.0003083
3202.11	0.0004186
3211.76	0.00020798
3221.4	0.0001381
3231.05	0.00020265
3240.69	0.000181686
3250.34	0.00021048
3259.98	0.00022701
3269.63	0.0001288
3279.27	0.0001357
3288.92	0.0001663
3298.56	0.0001343
3308.21	0.000129
3317.85	8.43e-05
3327.49	0.0001599
3337.14	0.0003124
3346.78	0.0002319
3356.43	0.0002583
3366.07	0.00025166
3375.72	0.0003087
3385.36	0.00027031
3395.01	0.000182299
3404.65	0.00025889
3414.3	0.0003474
3423.94	0.00021754
3433.59	0.00027736
3443.23	0.00026396
3452.88	0.0001573
3462.52	0.000317
3472.17	0.00027272
3481.81	0.0002266
3491.46	0.0003172
3501.1	0.0004743
3510.75	0.0004715
3520.39	0.0004718
3530.04	0.0006232
3539.68	0.0007556
3549.32	0.0010175
3558.97	0.001401
3568.61	0.001751
3578.26	0.002001
3587.9	0.001951
3597.55	0.002041
3607.19	0.002741
3616.84	0.004041
3626.48	0.004901
3636.13	0.003811
3645.77	0.002081
3655.42	0.001231
3665.06	0.0007015
3674.71	0.00067
3684.35	0.0006718
3694	0.0007445
3703.64	0.0008819
3713.29	0.0008851
3722.93	0.0007467
3732.58	0.0004934
3742.22	0.0005512
3751.86	0.0004537
3761.51	0.0003434
3771.15	0.0004952
3780.8	0.000458
3790.44	0.0002956
3800.09	0.0005237
3809.73	0.0004453
3819.38	0.0003193
3829.02	0.000404
3838.67	0.0003177
3848.31	0.0003955
3857.96	0.0003026
3867.6	0.00023487
3877.25	0.00025407
3886.89	0.0003375
3896.54	0.0003011
3906.18	0.0003543
3915.83	0.0003997
3925.47	0.0004669
3935.12	0.0003513
3944.76	0.00021036
3954.41	0.0003591
3964.05	0.0004358
3973.69	0.000328
3983.34	0.0003424
3992.98	0.0004989
