Infrared Spectrum: 4-BENZYLOXY-3-METHOXY-BENZALDEHYDE
Formula: C15 H14 O3
CAS: 2426-87-1
State: LIQUID
Class: COBLENTZ
Instrument: PERKIN-ELMER
Sampling: TRANSMISSION
Path length: CAPILLARY
Resolution: 4
Origin: ABBOTT LABORATORIES - WASHBURN
MICROMETERS	TRANSMITTANCE
2.014	0.947
2.04809	0.948
2.08218	0.9451
2.11628	0.941
2.15037	0.945
2.18446	0.9401
2.21855	0.9351
2.25264	0.943
2.28674	0.9364
2.32083	0.9346
2.35492	0.9355
2.38901	0.935
2.42311	0.936
2.4572	0.933
2.49129	0.933
2.52538	0.9352
2.55947	0.9337
2.59357	0.9322
2.62766	0.9315
2.66175	0.9406
2.69584	0.9356
2.72993	0.936
2.76403	0.933
2.79812	0.931
2.83221	0.925
2.8663	0.917
2.9004	0.912
2.93449	0.9129
2.96858	0.9102
3.00267	0.8984
3.03676	0.905
3.07086	0.911
3.10495	0.914
3.13904	0.9118
3.17313	0.9106
3.20722	0.9015
3.24132	0.8718
3.27541	0.8162
3.3095	0.7813
3.34359	0.789
3.37769	0.7743
3.41178	0.7188
3.44587	0.7362
3.47996	0.7424
3.51405	0.6899
3.54815	0.7264
3.58224	0.87
3.61633	0.8969
3.65042	0.8882
3.68451	0.8847
3.71861	0.9017
3.7527	0.9119
3.78679	0.9227
3.82088	0.923
3.85498	0.9175
3.88907	0.9144
3.92316	0.9155
3.95725	0.921
3.99134	0.9183
4.02544	0.923
4.05953	0.928
4.09362	0.9305
4.12771	0.919
4.1618	0.923
4.1959	0.9234
4.22999	0.919
4.26408	0.926
4.29817	0.9235
4.33227	0.921
4.36636	0.926
4.40045	0.931
4.43454	0.9249
4.46863	0.931
4.50273	0.9249
4.53682	0.929
4.57091	0.928
4.605	0.9283
4.63909	0.9217
4.67319	0.9233
4.70728	0.9248
4.74137	0.9244
4.77546	0.928
4.80956	0.927
4.84365	0.9207
4.87774	0.9212
4.91183	0.9186
4.94592	0.9137
4.98002	0.907
5.01411	0.9087
5.0482	0.8949
5.08229	0.8825
5.11638	0.8821
5.15048	0.8871
5.18457	0.8941
5.21866	0.902
5.25275	0.907
5.28685	0.902
5.32094	0.9021
5.35503	0.899
5.38912	0.905
5.42321	0.9037
5.45731	0.904
5.4914	0.9018
5.52549	0.894
5.55958	0.9067
5.59367	0.9087
5.62777	0.894
5.66186	0.895
5.69595	0.8921
5.73004	0.8901
5.76414	0.8829
5.79823	0.8603
5.83232	0.7843
5.86641	0.5033
5.9005	0.1736
5.9346	0.227
5.96869	0.3651
6.00278	0.5451
6.03687	0.7004
6.07096	0.7653
6.10506	0.8007
6.13915	0.8252
6.17324	0.8288
6.20733	0.793
6.24143	0.6696
6.27552	0.4266
6.30961	0.3293
6.3437	0.5204
6.37779	0.7356
6.41189	0.7961
6.44598	0.8325
6.48007	0.849
6.51416	0.8511
6.54825	0.852
6.58235	0.849
6.61644	0.831
6.65053	0.7934
6.68462	0.6464
6.71872	0.598
6.75281	0.1809
6.7869	0.2796
6.82099	0.4681
6.85508	0.4333
6.88918	0.3531
6.92327	0.4003
6.95736	0.3883
6.99145	0.5639
7.02554	0.785
7.05964	0.8157
7.09373	0.8337
7.12782	0.8149
7.16191	0.7679
7.19601	0.5938
7.2301	0.5923
7.26419	0.6418
7.29828	0.4147
7.33237	0.5167
7.36647	0.6632
7.40056	0.7657
7.43465	0.81
7.46874	0.8299
7.50283	0.813
7.53693	0.7856
7.57102	0.7154
7.60511	0.5875
7.6392	0.504
7.6733	0.5077
7.70739	0.5536
7.74148	0.5881
7.77557	0.5752
7.80966	0.4811
7.84376	0.3217
7.87785	0.1759
7.91194	0.1039
7.94603	0.141
7.98012	0.175
8.01422	0.1119
8.04831	0.1599
8.0824	0.352
8.11649	0.4741
8.15058	0.4906
8.18468	0.4455
8.21877	0.3498
8.25286	0.3501
8.28695	0.4174
8.32105	0.4803
8.35514	0.5459
8.38923	0.6226
8.42332	0.6155
8.45741	0.4428
8.49151	0.464
8.5256	0.5677
8.55969	0.6894
8.59378	0.7125
8.62787	0.7651
8.66197	0.7841
8.69606	0.8002
8.73015	0.8112
8.76424	0.8322
8.79834	0.8349
8.83243	0.8343
8.86652	0.841
8.90061	0.8404
8.9347	0.8353
8.9688	0.834
9.00289	0.8349
9.03698	0.8287
9.07107	0.8269
9.10516	0.8058
9.13926	0.7886
9.17335	0.74
9.20744	0.6389
9.24153	0.464
9.27563	0.4499
9.30972	0.4982
9.34381	0.4076
9.3779	0.35
9.41199	0.3917
9.44609	0.5209
9.48018	0.6179
9.51427	0.706
9.54836	0.7409
9.58245	0.7672
9.61655	0.7822
9.65064	0.7807
9.68473	0.7734
9.71882	0.7259
9.75292	0.741
9.78701	0.7548
9.8211	0.7376
9.85519	0.6944
9.88928	0.6515
9.92338	0.6299
9.95747	0.6109
9.99156	0.615
10.0257	0.611
10.0597	0.606
10.0938	0.6022
10.1279	0.5857
10.162	0.5599
10.1961	0.5277
10.2302	0.4987
10.2643	0.487
10.2984	0.4778
10.3325	0.4782
10.3666	0.4924
10.4007	0.5077
10.4348	0.5287
10.4689	0.5521
10.5029	0.5792
10.537	0.6113
10.5711	0.6425
10.6052	0.7001
10.6393	0.7416
10.6734	0.7743
10.7075	0.7942
10.7416	0.805
10.7757	0.7927
10.8098	0.769
10.8439	0.7233
10.878	0.6585
10.912	0.5934
10.9461	0.526
10.9802	0.5313
11.0143	0.556
11.0484	0.6307
11.0825	0.7053
11.1166	0.7699
11.1507	0.8017
11.1848	0.82
11.2189	0.83
11.253	0.835
11.2871	0.8411
11.3212	0.851
11.3552	0.8581
11.3893	0.8631
11.4234	0.868
11.4575	0.8658
11.4916	0.861
11.5257	0.8537
11.5598	0.84
11.5939	0.8283
11.628	0.8028
11.6621	0.777
11.6962	0.7699
11.7303	0.7691
11.7644	0.776
11.7984	0.7913
11.8325	0.8004
11.8666	0.8183
11.9007	0.8241
11.9348	0.827
11.9689	0.839
12.003	0.8459
12.0371	0.8369
12.0712	0.829
12.1053	0.8297
12.1394	0.8179
12.1735	0.8168
12.2075	0.8077
12.2416	0.7933
12.2757	0.7737
12.3098	0.7687
12.3439	0.7637
12.378	0.7469
12.4121	0.7226
12.4462	0.712
12.4803	0.714
12.5144	0.7138
12.5485	0.7033
12.5826	0.6633
12.6167	0.604
12.6507	0.5505
12.6848	0.4817
12.7189	0.447
12.753	0.4421
12.7871	0.4718
12.8212	0.534
12.8553	0.594
12.8894	0.6252
12.9235	0.634
12.9576	0.6098
12.9917	0.5496
13.0258	0.4508
13.0599	0.3942
13.0939	0.3698
13.128	0.374
13.1621	0.37
13.1962	0.3755
13.2303	0.3548
13.2644	0.338
13.2985	0.3414
13.3326	0.3586
13.3667	0.3934
13.4008	0.4158
13.4349	0.432
13.469	0.4351
13.5031	0.4369
13.5371	0.429
13.5712	0.4319
13.6053	0.4357
13.6394	0.4687
13.6735	0.5108
13.7076	0.5535
13.7417	0.6127
13.7758	0.6769
13.8099	0.7086
13.844	0.7405
13.8781	0.75
13.9122	0.7581
13.9462	0.762
13.9803	0.7568
14.0144	0.7579
14.0485	0.753
14.0826	0.7444
14.1167	0.7233
14.1508	0.6752
14.1849	0.6108
14.219	0.4968
14.2531	0.4479
14.2872	0.3838
14.3213	0.358
14.3554	0.3707
14.3894	0.4142
14.4235	0.5247
14.4576	0.5781
14.4917	0.6638
14.5258	0.7155
14.5599	0.7424
14.594	0.7624
14.6281	0.7651
14.6622	0.769
14.6963	0.769
14.7304	0.7649
14.7645	0.757
14.7986	0.7548
14.8326	0.7497
14.8667	0.743
14.9008	0.743
14.9349	0.7377
14.969	0.7259
15.0031	0.7138
15.0372	0.6846
15.0713	0.6677
15.1054	0.6576
15.1395	0.6458
15.1736	0.6423
15.2077	0.6473
15.2417	0.6563
15.2758	0.6666
15.3099	0.6804
15.344	0.683
