Infrared Spectrum: L-.alpha.-Methylbenzyl isothiocyanate
Formula: C 9 H 9 N S
CAS: 24277-43-8
State: gas
Origin: EPA-IR VAPOR PHASE LIBRARY
1/CM	ABSORBANCE
549.8	0.017622
559.445	0.016422
569.09	0.015842
578.734	0.013992
588.379	0.012752
598.024	0.010852
607.669	0.007832
617.313	0.006952
626.958	0.006302
636.603	0.005642
646.248	0.005512
655.893	0.006062
665.537	0.009182
675.182	0.015812
684.827	0.028212
694.472	0.042472
704.116	0.035572
713.761	0.020292
723.406	0.012482
733.051	0.010072
742.695	0.010782
752.34	0.014082
761.985	0.013972
771.63	0.011222
781.275	0.008382
790.919	0.004172
800.564	0.002492
810.209	0.0014421
819.854	0.0012754
829.498	0.0009391
839.143	0.0009556
848.788	0.0008836
858.433	0.0010468
868.078	0.0012491
877.722	0.0014783
887.367	0.002052
897.012	0.002382
906.657	0.002932
916.301	0.002592
925.946	0.002812
935.591	0.004362
945.236	0.007672
954.88	0.009352
964.525	0.007092
974.17	0.004052
983.815	0.003412
993.46	0.003202
1003.1	0.004682
1012.75	0.011452
1022.39	0.022542
1032.04	0.015212
1041.68	0.007812
1051.33	0.006232
1060.97	0.006942
1070.62	0.007142
1080.26	0.006992
1089.91	0.006402
1099.55	0.007522
1109.2	0.007962
1118.84	0.008122
1128.49	0.006332
1138.13	0.003802
1147.78	0.002962
1157.42	0.002622
1167.07	0.002422
1176.71	0.004222
1186.36	0.005902
1196	0.007042
1205.64	0.007172
1215.29	0.004752
1224.93	0.003332
1234.58	0.003562
1244.22	0.003922
1253.87	0.005292
1263.51	0.008352
1273.16	0.014702
1282.8	0.018742
1292.45	0.024202
1302.09	0.035662
1311.74	0.044192
1321.38	0.043432
1331.03	0.031512
1340.67	0.027652
1350.32	0.023382
1359.96	0.010082
1369.61	0.008912
1379.25	0.010972
1388.9	0.008402
1398.54	0.004432
1408.18	0.003212
1417.83	0.003442
1427.47	0.004752
1437.12	0.007772
1446.76	0.014082
1456.41	0.016382
1466.05	0.009192
1475.7	0.005352
1485.34	0.007352
1494.99	0.010732
1504.63	0.006122
1514.28	0.002632
1523.92	0.002212
1533.57	0.001972
1543.21	0.001782
1552.86	0.001592
1562.5	0.001812
1572.15	0.002182
1581.79	0.003372
1591.44	0.004922
1601.08	0.005602
1610.73	0.004142
1620.37	0.002312
1630.01	0.001722
1639.66	0.001542
1649.3	0.001622
1658.95	0.001782
1668.59	0.001852
1678.24	0.001812
1687.88	0.001662
1697.53	0.001552
1707.17	0.001662
1716.82	0.001732
1726.46	0.002122
1736.11	0.002322
1745.75	0.002272
1755.4	0.001892
1765.04	0.001792
1774.69	0.001902
1784.33	0.002642
1793.98	0.003612
1803.62	0.002982
1813.27	0.002202
1822.91	0.001942
1832.55	0.001822
1842.2	0.002042
1851.84	0.002692
1861.49	0.003652
1871.13	0.004672
1880.78	0.005792
1890.42	0.007112
1900.07	0.008172
1909.71	0.010182
1919.36	0.013222
1929	0.017642
1938.65	0.024002
1948.29	0.032252
1957.94	0.043312
1967.58	0.056502
1977.23	0.071642
1986.87	0.090702
1996.52	0.117052
2006.16	0.153312
2015.81	0.197142
2025.45	0.240832
2035.1	0.274102
2044.74	0.286452
2054.38	0.274452
2064.03	0.250472
2073.67	0.222282
2083.32	0.181372
2092.96	0.131342
2102.61	0.097182
2112.25	0.081982
2121.9	0.078242
2131.54	0.077442
2141.19	0.073742
2150.83	0.066462
2160.48	0.055422
2170.12	0.041652
2179.77	0.029962
2189.41	0.022552
2199.06	0.018852
2208.7	0.016862
2218.35	0.014802
2227.99	0.013172
2237.64	0.011562
2247.28	0.009732
2256.92	0.007582
2266.57	0.005772
2276.21	0.004342
2285.86	0.003422
2295.5	0.002752
2305.15	0.002652
2314.79	0.002652
2324.44	0.002522
2334.08	0.002322
2343.73	0.002132
2353.37	0.001842
2363.02	0.001652
2372.66	0.001632
2382.31	0.001532
2391.95	0.0014901
2401.6	0.0014027
2411.24	0.0014234
2420.89	0.0012919
2430.53	0.0013034
2440.18	0.0013655
2449.82	0.0014178
2459.47	0.001532
2469.11	0.001582
2478.75	0.0014521
2488.4	0.001572
2498.04	0.001682
2507.69	0.001702
2517.33	0.001672
2526.98	0.001952
2536.62	0.002012
2546.27	0.002232
2555.91	0.002372
2565.56	0.002562
2575.2	0.002582
2584.85	0.002362
2594.49	0.002182
2604.14	0.002072
2613.78	0.001802
2623.43	0.001692
2633.07	0.001692
2642.72	0.001722
2652.36	0.001692
2662.01	0.001522
2671.65	0.001672
2681.29	0.001682
2690.94	0.001862
2700.58	0.001912
2710.23	0.002162
2719.87	0.002612
2729.52	0.002722
2739.16	0.003062
2748.81	0.003062
2758.45	0.003162
2768.1	0.002892
2777.74	0.002752
2787.39	0.002502
2797.03	0.002322
2806.68	0.002042
2816.32	0.001992
2825.97	0.001912
2835.61	0.001702
2845.26	0.001852
2854.9	0.001892
2864.55	0.002422
2874.19	0.003802
2883.84	0.004812
2893.48	0.005382
2903.12	0.007122
2912.77	0.010092
2922.41	0.011122
2932.06	0.011172
2941.7	0.011562
2951.35	0.008842
2960.99	0.005032
2970.64	0.005632
2980.28	0.015062
2989.93	0.034912
2999.57	0.023502
3009.22	0.007902
3018.86	0.007992
3028.51	0.013172
3038.15	0.016792
3047.8	0.014012
3057.44	0.011612
3067.09	0.017272
3076.73	0.019962
3086.38	0.013772
3096.02	0.009782
3105.67	0.007012
3115.31	0.004492
3124.95	0.002302
3134.6	0.0013959
3144.24	0.0010342
3153.89	0.0007848
3163.53	0.0007769
3173.18	0.0007512
3182.82	0.0007358
3192.47	0.0006576
3202.11	0.0006837
3211.76	0.0004241
3221.4	0.000398
3231.05	0.00057144
3240.69	0.000234
3250.34	0.0004077
3259.98	0.000379
3269.63	0.00018
3279.27	0.000119
3288.92	0.000192
3298.56	0.000162
3308.21	0.000205
3317.85	0.0001
3327.49	0.000255
3337.14	0.000265
3346.78	8.8e-05
3356.43	0.000243
3366.07	0
3375.72	0.0004258
3385.36	0.000365
3395.01	0.000378
3404.65	0.0006091
3414.3	0.0004227
3423.94	0.000272
3433.59	0.000186
3443.23	0.0004161
3452.88	0.0004591
3462.52	0.000346
3472.17	0.0004618
3481.81	0.0004806
3491.46	0.0004187
3501.1	0.00057375
3510.75	0.000371
3520.39	0.000272
3530.04	0.000377
3539.68	0.00052807
3549.32	0.00050021
3558.97	0.00026
3568.61	0.000379
3578.26	0.000294
3587.9	0.000336
3597.55	0.000366
3607.19	0.000417
3616.84	0.000446
3626.48	0.000296
3636.13	0.0004399
3645.77	0.000510326
3655.42	0.00055596
3665.06	0.0006267
3674.71	0.00059993
3684.35	0.000298
3694	0.000367
3703.64	0.00053783
3713.29	0.0006497
3722.93	0.00052979
3732.58	0.0004579
3742.22	0.000314
3751.86	0.000263
3761.51	0.000249
3771.15	0.000328
3780.8	0.0004406
3790.44	0.000394
3800.09	0.00049949
3809.73	0.0006272
3819.38	0.0004805
3829.02	0.00051614
3838.67	0.0007223
3848.31	0.0007317
3857.96	0.0006861
3867.6	0.00054651
3877.25	0.0004888
3886.89	0.0007784
3896.54	0.0006758
3906.18	0.000907
3915.83	0.0010471
3925.47	0.0010846
3935.12	0.0008783
3944.76	0.0007075
3954.41	0.0014229
3964.05	0.0012533
3973.69	0.0014837
3983.34	0.0013585
3992.98	0.001522
