Infrared Spectrum: D-.alpha.-Methylbenzyl isothiocyanate
Formula: C 9 H 9 N S
CAS: 24277-44-9
State: gas
Origin: EPA-IR VAPOR PHASE LIBRARY
1/CM	ABSORBANCE
549.8	0.021871
559.445	0.020911
569.09	0.020171
578.734	0.018151
588.379	0.016321
598.024	0.014001
607.669	0.010361
617.313	0.009101
626.958	0.007911
636.603	0.006941
646.248	0.006831
655.893	0.007751
665.537	0.011631
675.182	0.020471
684.827	0.036381
694.472	0.055391
704.116	0.046051
713.761	0.026571
723.406	0.016141
733.051	0.013151
742.695	0.014001
752.34	0.018551
761.985	0.018051
771.63	0.014311
781.275	0.010301
790.919	0.005291
800.564	0.002911
810.209	0.001701
819.854	0.0014549
829.498	0.0011573
839.143	0.0009749
848.788	0.0009958
858.433	0.0010519
868.078	0.001206
877.722	0.001721
887.367	0.002111
897.012	0.002921
906.657	0.003661
916.301	0.003311
925.946	0.003321
935.591	0.005361
945.236	0.009831
954.88	0.012081
964.525	0.008751
974.17	0.005571
983.815	0.004181
993.46	0.004181
1003.1	0.006051
1012.75	0.014681
1022.39	0.028941
1032.04	0.019351
1041.68	0.010231
1051.33	0.008101
1060.97	0.009011
1070.62	0.008901
1080.26	0.008291
1089.91	0.007651
1099.55	0.009151
1109.2	0.010481
1118.84	0.009931
1128.49	0.007571
1138.13	0.004591
1147.78	0.003241
1157.42	0.003011
1167.07	0.002941
1176.71	0.004761
1186.36	0.006711
1196	0.008361
1205.64	0.008081
1215.29	0.004841
1224.93	0.003791
1234.58	0.004061
1244.22	0.004891
1253.87	0.006291
1263.51	0.010611
1273.16	0.018761
1282.8	0.024061
1292.45	0.031231
1302.09	0.046201
1311.74	0.057351
1321.38	0.056521
1331.03	0.040731
1340.67	0.035771
1350.32	0.030341
1359.96	0.013021
1369.61	0.011351
1379.25	0.014181
1388.9	0.010821
1398.54	0.005501
1408.18	0.003861
1417.83	0.004221
1427.47	0.005981
1437.12	0.009971
1446.76	0.018281
1456.41	0.021211
1466.05	0.011861
1475.7	0.006741
1485.34	0.009561
1494.99	0.013811
1504.63	0.007751
1514.28	0.003341
1523.92	0.002641
1533.57	0.002401
1543.21	0.002091
1552.86	0.001971
1562.5	0.002041
1572.15	0.002741
1581.79	0.004101
1591.44	0.006251
1601.08	0.007091
1610.73	0.005181
1620.37	0.002851
1630.01	0.002061
1639.66	0.001861
1649.3	0.001871
1658.95	0.002031
1668.59	0.002311
1678.24	0.002161
1687.88	0.001821
1697.53	0.001731
1707.17	0.001751
1716.82	0.002121
1726.46	0.002491
1736.11	0.002871
1745.75	0.002741
1755.4	0.002291
1765.04	0.002101
1774.69	0.002311
1784.33	0.003251
1793.98	0.004541
1803.62	0.003681
1813.27	0.002651
1822.91	0.002371
1832.55	0.002271
1842.2	0.002561
1851.84	0.003351
1861.49	0.004551
1871.13	0.005831
1880.78	0.007501
1890.42	0.009011
1900.07	0.010521
1909.71	0.013191
1919.36	0.017171
1929	0.022971
1938.65	0.031161
1948.29	0.042081
1957.94	0.056511
1967.58	0.073721
1977.23	0.093341
1986.87	0.118081
1996.52	0.152411
2006.16	0.199441
2015.81	0.256561
2025.45	0.313401
2035.1	0.356871
2044.74	0.372851
2054.38	0.357191
2064.03	0.326201
2073.67	0.289521
2083.32	0.236271
2092.96	0.171031
2102.61	0.126601
2112.25	0.106611
2121.9	0.101791
2131.54	0.100741
2141.19	0.095811
2150.83	0.086451
2160.48	0.072091
2170.12	0.054191
2179.77	0.038631
2189.41	0.029081
2199.06	0.024401
2208.7	0.021691
2218.35	0.019061
2227.99	0.017031
2237.64	0.014921
2247.28	0.012471
2256.92	0.009791
2266.57	0.007431
2276.21	0.005511
2285.86	0.004311
2295.5	0.003621
2305.15	0.003141
2314.79	0.003391
2324.44	0.003221
2334.08	0.002941
2343.73	0.002521
2353.37	0.002351
2363.02	0.002141
2372.66	0.001971
2382.31	0.001891
2391.95	0.001801
2401.6	0.001711
2411.24	0.001751
2420.89	0.001691
2430.53	0.0015263
2440.18	0.001661
2449.82	0.001691
2459.47	0.001721
2469.11	0.001841
2478.75	0.001931
2488.4	0.001981
2498.04	0.002021
2507.69	0.001981
2517.33	0.002031
2526.98	0.002281
2536.62	0.002501
2546.27	0.002821
2555.91	0.002971
2565.56	0.003181
2575.2	0.003161
2584.85	0.003021
2594.49	0.002721
2604.14	0.002341
2613.78	0.002221
2623.43	0.002151
2633.07	0.002111
2642.72	0.002151
2652.36	0.002121
2662.01	0.001991
2671.65	0.001961
2681.29	0.002151
2690.94	0.002301
2700.58	0.002381
2710.23	0.002801
2719.87	0.003121
2729.52	0.003501
2739.16	0.003821
2748.81	0.003931
2758.45	0.003951
2768.1	0.003811
2777.74	0.003471
2787.39	0.003201
2797.03	0.002881
2806.68	0.002701
2816.32	0.002361
2825.97	0.002371
2835.61	0.002261
2845.26	0.002261
2854.9	0.002411
2864.55	0.003151
2874.19	0.004971
2883.84	0.006201
2893.48	0.007061
2903.12	0.009411
2912.77	0.013161
2922.41	0.014481
2932.06	0.014441
2941.7	0.015031
2951.35	0.011221
2960.99	0.006871
2970.64	0.007241
2980.28	0.019391
2989.93	0.045501
2999.57	0.030581
3009.22	0.010401
3018.86	0.010481
3028.51	0.017051
3038.15	0.021751
3047.8	0.018301
3057.44	0.015221
3067.09	0.022201
3076.73	0.026241
3086.38	0.017931
3096.02	0.012681
3105.67	0.009101
3115.31	0.005761
3124.95	0.002971
3134.6	0.001561
3144.24	0.0011493
3153.89	0.0009895
3163.53	0.0010017
3173.18	0.0009124
3182.82	0.0007576
3192.47	0.000560102
3202.11	0.0006847
3211.76	0.00057616
3221.4	0.0005249
3231.05	0.0005472
3240.69	0.000383
3250.34	0.000321
3259.98	0.000275
3269.63	0.000364
3279.27	0.000387
3288.92	0.000278
3298.56	0.000228
3308.21	0.000228
3317.85	0.00016
3327.49	0.000195
3337.14	0.000221
3346.78	0.000193
3356.43	9.9e-05
3366.07	0.000224
3375.72	0.000263
3385.36	0.000262
3395.01	0.000322
3404.65	0.000392
3414.3	0.000251
3423.94	0.000313
3433.59	0.000265
3443.23	0.000323
3452.88	0.000298
3462.52	0.000118
3472.17	0.000116
3481.81	5.6e-05
3491.46	0.000373
3501.1	0.000171
3510.75	0.000376
3520.39	0.000497
3530.04	0.000264
3539.68	0.000288
3549.32	0.0004725
3558.97	0.0004744
3568.61	0.000288
3578.26	0.000415
3587.9	0.000407
3597.55	0.000258
3607.19	0.000385
3616.84	0.000199
3626.48	0.000339
3636.13	0.000442
3645.77	0.0005355
3655.42	0.000311
3665.06	0.0004698
3674.71	0.0004987
3684.35	0.000446
3694	0.000296
3703.64	0.0004665
3713.29	0.000469
3722.93	0.0004742
3732.58	0.000453
3742.22	0.0005416
3751.86	0.000448
3761.51	0.0004806
3771.15	0.00032
3780.8	0.000282
3790.44	0.000389
3800.09	0.000337
3809.73	0.000453
3819.38	0.00058308
3829.02	0.000416
3838.67	0.00060676
3848.31	0.000958
3857.96	0.0007024
3867.6	0.0006981
3877.25	0.0007887
3886.89	0.0008847
3896.54	0.0008297
3906.18	0.0007655
3915.83	0.0009223
3925.47	0.0011543
3935.12	0.0011414
3944.76	0.0013981
3954.41	0.0014989
3964.05	0.0013807
3973.69	0.0015371
3983.34	0.001691
3992.98	0.001861
