Infrared Spectrum: 4-Amino-3,5-dichlorobenzotrifluoride
Formula: C 7 H 4 Cl 2 F 3 N
CAS: 24279-39-8
State: gas
Origin: EPA-IR VAPOR PHASE LIBRARY
1/CM	ABSORBANCE
549.8	0.00726
559.445	0.00746
569.09	0.00608
578.734	0.00643
588.379	0.00699
598.024	0.00852
607.669	0.00784
617.313	0.00749
626.958	0.00816
636.603	0.01204
646.248	0.02512
655.893	0.05576
665.537	0.10691
675.182	0.06093
684.827	0.01455
694.472	0.01482
704.116	0.02101
713.761	0.0249
723.406	0.03112
733.051	0.02114
742.695	0.01869
752.34	0.02006
761.985	0.02304
771.63	0.02873
781.275	0.05345
790.919	0.09125
800.564	0.07563
810.209	0.03946
819.854	0.02459
829.498	0.01808
839.143	0.01343
848.788	0.00983
858.433	0.00924
868.078	0.01715
877.722	0.07136
887.367	0.08037
897.012	0.02696
906.657	0.01425
916.301	0.01166
925.946	0.0097
935.591	0.00882
945.236	0.00846
954.88	0.008
964.525	0.00739
974.17	0.00828
983.815	0.00736
993.46	0.00676
1003.1	0.00698
1012.75	0.0073
1022.39	0.00818
1032.04	0.00834
1041.68	0.00849
1051.33	0.01138
1060.97	0.01772
1070.62	0.03108
1080.26	0.04238
1089.91	0.03026
1099.55	0.04432
1109.2	0.0824
1118.84	0.07068
1128.49	0.11551
1138.13	0.30294
1147.78	0.38837
1157.42	0.12505
1167.07	0.19852
1176.71	0.29626
1186.36	0.11077
1196	0.035
1205.64	0.02052
1215.29	0.01875
1224.93	0.01891
1234.58	0.03109
1244.22	0.02926
1253.87	0.02527
1263.51	0.04379
1273.16	0.14255
1282.8	0.21339
1292.45	0.10261
1302.09	0.087
1311.74	0.16779
1321.38	0.47659
1331.03	0.71463
1340.67	0.20838
1350.32	0.03259
1359.96	0.01386
1369.61	0.01218
1379.25	0.01618
1388.9	0.01952
1398.54	0.03109
1408.18	0.06714
1417.83	0.06376
1427.47	0.02415
1437.12	0.01443
1446.76	0.01082
1456.41	0.00823
1466.05	0.0077
1475.7	0.01173
1485.34	0.0292
1494.99	0.043
1504.63	0.01693
1514.28	0.00587
1523.92	0.00606
1533.57	0.0087
1543.21	0.00892
1552.86	0.00974
1562.5	0.01969
1572.15	0.02976
1581.79	0.03204
1591.44	0.03434
1601.08	0.03584
1610.73	0.07952
1620.37	0.16603
1630.01	0.11454
1639.66	0.05321
1649.3	0.03209
1658.95	0.01271
1668.59	0.00789
1678.24	0.00575
1687.88	0.00514
1697.53	0.00414
1707.17	0.00369
1716.82	0.00347
1726.46	0.00309
1736.11	0.00287
1745.75	0.00368
1755.4	0.00636
1765.04	0.01197
1774.69	0.01092
1784.33	0.00572
1793.98	0.00359
1803.62	0.00274
1813.27	0.00253
1822.91	0.00218
1832.55	0.00212
1842.2	0.00214
1851.84	0.0022
1861.49	0.00205
1871.13	0.00221
1880.78	0.00219
1890.42	0.00204
1900.07	0.0019257
1909.71	0.00219
1919.36	0.00226
1929	0.00208
1938.65	0.00215
1948.29	0.00215
1957.94	0.00202
1967.58	0.0018737
1977.23	0.0018601
1986.87	0.0018961
1996.52	0.0018682
2006.16	0.0018631
2015.81	0.00215
2025.45	0.00223
2035.1	0.00207
2044.74	0.00215
2054.38	0.00224
2064.03	0.0019092
2073.67	0.0017466
2083.32	0.001632
2092.96	0.0017452
2102.61	0.0018498
2112.25	0.00202
2121.9	0.0018774
2131.54	0.0019598
2141.19	0.00209
2150.83	0.00232
2160.48	0.00225
2170.12	0.00199
2179.77	0.0016667
2189.41	0.001947
2199.06	0.00288
2208.7	0.00322
2218.35	0.00254
2227.99	0.00211
2237.64	0.00248
2247.28	0.00275
2256.92	0.00318
2266.57	0.00322
2276.21	0.00315
2285.86	0.00289
2295.5	0.00255
2305.15	0.00275
2314.79	0.00245
2324.44	0.00267
2334.08	0.00243
2343.73	0.00226
2353.37	0.00239
2363.02	0.00227
2372.66	0.00232
2382.31	0.0016637
2391.95	0.0017373
2401.6	0.0018566
2411.24	0.0016354
2420.89	0.0012909
2430.53	0.0014682
2440.18	0.0014162
2449.82	0.0015093
2459.47	0.0014113
2469.11	0.0016893
2478.75	0.001619
2488.4	0.0016026
2498.04	0.0019211
2507.69	0.00216
2517.33	0.0019657
2526.98	0.0016569
2536.62	0.00207
2546.27	0.0031
2555.91	0.00301
2565.56	0.00198
2575.2	0.001555
2584.85	0.0012786
2594.49	0.0017264
2604.14	0.0018292
2613.78	0.00274
2623.43	0.00375
2633.07	0.00368
2642.72	0.00279
2652.36	0.00275
2662.01	0.00232
2671.65	0.0013708
2681.29	0.0013102
2690.94	0.000969
2700.58	0.0011267
2710.23	0.0009493
2719.87	0.000735
2729.52	0.0011436
2739.16	0.0011837
2748.81	0.0011246
2758.45	0.0015199
2768.1	0.0011439
2777.74	0.0015321
2787.39	0.0009507
2797.03	0.0012559
2806.68	0.001466
2816.32	0.0011834
2825.97	0.000828
2835.61	0.0013755
2845.26	0.0017686
2854.9	0.0018939
2864.55	0.001245
2874.19	0.0013476
2883.84	0.0013803
2893.48	0.001285
2903.12	0.0014721
2912.77	0.00203
2922.41	0.0015599
2932.06	0.00203
2941.7	0.00245
2951.35	0.00208
2960.99	0.00225
2970.64	0.001615
2980.28	0.0014346
2989.93	0.0012783
2999.57	0.000683
3009.22	0.0012597
3018.86	0.0011883
3028.51	0.00103374
3038.15	0.0011767
3047.8	0.0012912
3057.44	0.00104077
3067.09	0.0016451
3076.73	0.00225
3086.38	0.00221
3096.02	0.00205
3105.67	0.0018182
3115.31	0.00258
3124.95	0.00251
3134.6	0.00231
3144.24	0.00222
3153.89	0.00105474
3163.53	0.0015414
3173.18	0.0012909
3182.82	0.001689
3192.47	0.0018574
3202.11	0.00206
3211.76	0.0015701
3221.4	0.0012498
3231.05	0.0014036
3240.69	0.001192
3250.34	0.0011451
3259.98	0.001383
3269.63	0.000779
3279.27	0.0011539
3288.92	0.00104191
3298.56	0.000718
3308.21	0.0011922
3317.85	0.000846
3327.49	0.0011201
3337.14	0.000714
3346.78	0.00106666
3356.43	0.0017445
3366.07	0.00214
3375.72	0.00245
3385.36	0.00477
3395.01	0.01057
3404.65	0.02166
3414.3	0.03631
3423.94	0.03691
3433.59	0.03201
3443.23	0.01329
3452.88	0.00552
3462.52	0.00488
3472.17	0.00648
3481.81	0.00823
3491.46	0.01348
3501.1	0.01921
3510.75	0.02969
3520.39	0.03277
3530.04	0.0301
3539.68	0.02465
3549.32	0.01017
3558.97	0.00463
3568.61	0.0024
3578.26	0.00217
3587.9	0.0013078
3597.55	0.0016517
3607.19	0.0013768
3616.84	0.0013243
3626.48	0.0011683
3636.13	0.000766
3645.77	0.00097633
3655.42	0.000612
3665.06	0.000806
3674.71	0.000676
3684.35	0.000821
3694	0.000601
3703.64	0.000703
3713.29	0.001192
3722.93	0.0015427
3732.58	0.0013427
3742.22	0.0013515
3751.86	0.001365
3761.51	5.9e-05
3771.15	0.000693
3780.8	0.00099998
3790.44	0.0011569
3800.09	0.0016053
3809.73	0.000875
3819.38	0.0012863
3829.02	0.000676
3838.67	0.0013642
3848.31	0.0012333
3857.96	0.0013186
3867.6	0.0014049
3877.25	0.000834
3886.89	0.0014431
3896.54	0.0012374
3906.18	0.001866
3915.83	0.0017501
3925.47	0.0018939
3935.12	0.0013228
3944.76	0.0016188
3954.41	0.0014864
3964.05	0.0014789
3973.69	0.0015495
3983.34	0.0019635
3992.98	0.0013144
