Infrared Spectrum: MELAMINE, HEXACHLORO-
Formula: C3 Cl6 N6
CAS: 2428-04-8
State: SOLID (OIL MULL)
Class: COBLENTZ III
Instrument: BAIRD (GRATING)
Instrument parameters: NaCl PRISM
Sampling: TRANSMISSION
Resolution: 2
Origin: WYANDOTTE CHEMICALS CORP.
1/CM	TRANSMITTANCE
4000	0.3937
3991	0.395
3982	0.3962
3973	0.3977
3964	0.3991
3955	0.4005
3946	0.4018
3937	0.4032
3928	0.4046
3919	0.4059
3910	0.4074
3901	0.4088
3892	0.4103
3883	0.4118
3874	0.4132
3865	0.4147
3856	0.4162
3847	0.4176
3838	0.4189
3829	0.4202
3820	0.4215
3811	0.4228
3802	0.4243
3793	0.4264
3784	0.4288
3775	0.4334
3766	0.4386
3757	0.4418
3748	0.4436
3739	0.4446
3730	0.4452
3721	0.446
3712	0.4467
3703	0.4475
3694	0.4485
3685	0.4495
3676	0.4505
3667	0.4519
3658	0.4536
3649	0.4554
3640	0.4577
3631	0.4599
3622	0.4621
3613	0.4639
3604	0.4655
3595	0.467
3586	0.4677
3577	0.468
3568	0.4675
3559	0.4669
3550	0.4662
3541	0.4648
3532	0.4635
3523	0.4622
3514	0.4608
3505	0.4598
3496	0.4589
3487	0.458
3478	0.457
3469	0.4562
3460	0.4553
3451	0.4542
3442	0.4532
3433	0.452
3424	0.451
3415	0.4498
3406	0.4489
3397	0.448
3388	0.4472
3379	0.4462
3370	0.4455
3361	0.4446
3352	0.4437
3343	0.4427
3334	0.4417
3325	0.4415
3316	0.4415
3307	0.4416
3298	0.4417
3289	0.4427
3280	0.4436
3271	0.4449
3262	0.4467
3253	0.4485
3244	0.4504
3235	0.4523
3226	0.4542
3217	0.4562
3208	0.4583
3199	0.4602
3190	0.4618
3181	0.4635
3172	0.4651
3163	0.4666
3154	0.468
3145	0.4695
3136	0.4707
3127	0.4715
3118	0.4723
3109	0.4728
3100	0.4728
3091	0.4729
3082	0.4721
3073	0.471
3064	0.4691
3055	0.4668
3046	0.4626
3037	0.4565
3028	0.4472
3019	0.4342
3010	0.415
3001	0.3698
2992	0.297
2983	0.2152
2974	0.1471
2965	0.1307
2956	0.1042
2947	0.0857
2938	0.066
2929	0.0614
2920	0.0606
2911	0.0651
2902	0.0813
2893	0.1216
2884	0.1377
2875	0.1418
2866	0.1423
2857	0.1402
2848	0.1386
2839	0.1607
2830	0.3603
2821	0.5137
2812	0.5437
2803	0.5612
2794	0.5743
2785	0.5865
2776	0.595
2767	0.601
2758	0.6045
2749	0.6065
2740	0.6082
2731	0.61
2722	0.6118
2713	0.6142
2704	0.6173
2695	0.6204
2686	0.6237
2677	0.6269
2668	0.6302
2659	0.6344
2650	0.6387
2641	0.6428
2632	0.6471
2623	0.6514
2614	0.6551
2605	0.6567
2596	0.6584
2587	0.6603
2578	0.6634
2569	0.6668
2560	0.6704
2551	0.674
2542	0.6775
2533	0.6811
2524	0.6846
2515	0.6881
2506	0.6917
2497	0.6949
2488	0.6978
2479	0.701
2470	0.7041
2461	0.7065
2452	0.7092
2443	0.7118
2434	0.7141
2425	0.7161
2416	0.7183
2407	0.7206
2398	0.7231
2389	0.7258
2380	0.7286
2371	0.731
2362	0.7301
2353	0.7282
2344	0.7275
2335	0.7285
2326	0.7315
2317	0.7361
2308	0.7451
2299	0.7586
2290	0.7686
2281	0.7739
2272	0.7778
2263	0.7808
2254	0.7838
2245	0.786
2236	0.7885
2227	0.7921
2218	0.7962
2209	0.8012
2200	0.8064
2191	0.8115
2182	0.8157
2173	0.8171
2164	0.8176
2155	0.8193
2146	0.8209
2137	0.8234
2128	0.8263
2119	0.8293
2110	0.8324
2101	0.8355
2092	0.8389
2083	0.8424
2074	0.8459
2065	0.8492
2056	0.8524
2047	0.8556
2038	0.8589
2029	0.8621
2020	0.8656
2011	0.8695
2002	0.8734
1993	0.8773
1984	0.8813
1975	0.885
1966	0.8888
1957	0.8925
1948	0.8965
1939	0.9001
1930	0.9039
1921	0.9075
1912	0.9112
1903	0.9147
1894	0.9183
1885	0.922
1876	0.9257
1867	0.9287
1858	0.9307
1849	0.9325
1840	0.9353
1831	0.9395
1822	0.946
1813	0.9484
1804	0.9465
1795	0.944
1786	0.9424
1777	0.9411
1768	0.9428
1759	0.9404
1750	0.9212
1741	0.9068
1732	0.9023
1723	0.9013
1714	0.9018
1705	0.8877
1696	0.8755
1687	0.8707
1678	0.861
1669	0.8334
1660	0.8432
1651	0.8596
1642	0.851
1633	0.8235
1624	0.7818
1615	0.6908
1606	0.5573
1597	0.5378
1588	0.4255
1579	0.3038
1570	0.2642
1561	0.1998
1552	0.1684
1543	0.1538
1534	0.3459
1525	0.4898
1516	0.6387
1507	0.6751
1498	0.6871
1489	0.6366
1480	0.4037
1471	0.3564
1462	0.4375
1453	0.5286
1444	0.6267
1435	0.6906
1426	0.7336
1417	0.7274
1408	0.6704
1399	0.4899
1390	0.3289
1381	0.2397
1372	0.2171
1363	0.1893
1354	0.1595
1345	0.1624
1336	0.2384
1327	0.3198
1318	0.3989
1309	0.4771
1300	0.5472
1291	0.635
1282	0.6886
1273	0.7262
1264	0.7408
1255	0.7306
1246	0.7603
1237	0.7861
1228	0.8119
1219	0.8213
1210	0.8296
1201	0.845
1192	0.8612
1183	0.8687
1174	0.8643
1165	0.856
1156	0.8545
1147	0.8634
1138	0.8617
1129	0.8233
1120	0.7678
1111	0.7541
1102	0.7189
1093	0.7441
1084	0.7861
1075	0.8266
1066	0.8566
1057	0.874
1048	0.8783
1039	0.879
1030	0.8942
1021	0.9089
1012	0.9313
1003	0.9546
994	0.9708
985	0.977
976	0.9761
967	0.9842
958	0.9892
949	0.9944
940	0.9991
931	1.0025
922	1.0049
913	1.003
904	1.0052
895	1.0068
886	1.0093
877	1.0109
868	0.9957
859	0.9848
850	0.9852
841	0.9628
832	1.0061
823	1.0142
814	1.0159
805	1.013
796	0.9862
787	0.4975
778	0.9653
769	1.007
760	1.0094
751	1.0083
742	1.0074
733	1.0025
724	0.9903
715	0.9959
706	0.9897
697	0.9371
688	0.871
679	0.734
670	0.8325
661	0.8658
652	0.8746
643	0.8202
634	0.763
