Infrared Spectrum: a-Norandrost-3(5)-en-2-one, 17-hydroxy-, cyclic ethylene acetal
Formula: C20 H30 O3
CAS: 2429-36-9
State: SOLID (KBr DISC)
Class: COBLENTZ III
Instrument: PERKIN-ELMER 21 (GRATING)
Resolution: 2
Origin: THE SQUIBB INSTITUTE FOR MEDICAL RESEARCH
1/CM	TRANSMITTANCE
661	0.8899
670	0.9004
679	0.8609
688	0.8055
697	0.9346
706	0.9397
715	0.9385
724	0.9244
733	0.8744
742	0.8311
751	0.585
760	0.9075
769	0.9357
778	0.909
787	0.8925
796	0.7047
805	0.8942
814	0.8432
823	0.5551
832	0.6455
841	0.744
850	0.6164
859	0.3076
868	0.6613
877	0.8319
886	0.7598
895	0.7384
904	0.6336
913	0.8091
922	0.6742
931	0.6777
940	0.3587
949	0.1753
958	0.1651
967	0.4092
976	0.5772
985	0.5524
994	0.4708
1003	0.2281
1012	0.2043
1021	0.2254
1030	0.3111
1039	0.3469
1048	0.1827
1057	0.2487
1066	0.103
1075	0.0377
1084	0.0254
1093	0.0892
1102	0.1087
1111	0.2481
1120	0.3705
1129	0.3245
1138	0.3346
1147	0.3458
1156	0.3659
1165	0.548
1174	0.4176
1183	0.3896
1192	0.3082
1201	0.3472
1210	0.327
1219	0.3248
1228	0.5133
1237	0.5113
1246	0.3424
1255	0.4472
1264	0.4612
1273	0.2104
1282	0.31
1291	0.4114
1300	0.5311
1309	0.4112
1318	0.5236
1327	0.3719
1336	0.1129
1345	0.1288
1354	0.3232
1363	0.6003
1372	0.4314
1381	0.5391
1390	0.6997
1399	0.6734
1408	0.642
1417	0.6431
1426	0.5907
1435	0.3385
1444	0.4361
1453	0.4843
1462	0.53
1471	0.4652
1480	0.7213
1489	0.8777
1498	0.9363
1507	0.9645
1516	0.9817
1525	0.9893
1534	0.993
1543	0.9929
1552	0.9908
1561	0.9909
1570	0.9921
1579	0.985
1588	0.9695
1597	0.9477
1606	0.9239
1615	0.8955
1624	0.8769
1633	0.8715
1642	0.8427
1651	0.7314
1660	0.5329
1669	0.5492
1678	0.8679
1687	0.9023
1696	0.9302
1705	0.9475
1714	0.9581
1723	0.9745
1732	1.0026
1741	1.0019
1750	1.0009
1759	0.9996
1768	0.999
1777	0.999
1786	0.9994
1795	1.0003
1804	1.0018
1813	1.0029
1822	1.0032
1831	1.0036
1840	1.0039
1849	1.0041
1858	1.0042
1867	1.0044
1876	1.0046
1885	1.0044
1894	1.0042
1903	1.004
1912	1.0042
1921	1.0048
1930	1.0054
1939	1.0059
1948	1.0064
1957	1.0067
1966	1.0059
1975	1.0051
1984	1.0042
1993	1.0032
2002	1.003
2011	1.003
2020	1.0039
2029	1.0056
2038	1.007
2047	1.0073
2056	1.0066
2065	1.0054
2074	1.0042
2083	1.0038
2092	1.0038
2101	1.0041
2110	1.0043
2119	1.0045
2128	1.0051
2137	1.0058
2146	1.0062
2155	1.0063
2164	1.0064
2173	1.0063
2182	1.0062
2191	1.0062
2200	1.0056
2209	1.0045
2218	1.0033
2227	1.0022
2236	1.0011
2245	0.9991
2254	0.9972
2263	0.9952
2272	0.9934
2281	0.9921
2290	0.9907
2299	0.9894
2308	0.9884
2317	0.9876
2326	0.9871
2335	0.9869
2344	0.9866
2353	0.9866
2362	0.9869
2371	0.9872
2380	0.9875
2389	0.9874
2398	0.9872
2407	0.987
2416	0.9862
2425	0.9851
2434	0.984
2443	0.9829
2452	0.9818
2461	0.9807
2470	0.9794
2479	0.9782
2488	0.977
2497	0.9749
2506	0.9724
2515	0.9698
2524	0.9663
2533	0.9621
2542	0.9579
2551	0.9538
2560	0.9487
2569	0.9432
2578	0.9377
2587	0.9306
2596	0.9236
2605	0.9166
2614	0.9094
2623	0.9023
2632	0.8951
2641	0.885
2650	0.8798
2659	0.8778
2668	0.8762
2677	0.8745
2686	0.873
2695	0.8715
2704	0.8695
2713	0.8664
2722	0.8615
2731	0.8519
2740	0.8352
2749	0.8099
2758	0.7778
2767	0.7487
2776	0.7242
2785	0.6976
2794	0.6702
2803	0.638
2812	0.5448
2821	0.4341
2830	0.3241
2839	0.2148
2848	0.1113
2857	0.0996
2866	0.0996
2875	0.101
2884	0.1028
2893	0.1049
2902	0.1074
2911	0.1113
2920	0.116
2929	0.122
2938	0.13
2947	0.1397
2956	0.1536
2965	0.1772
2974	0.2308
2983	0.324
2992	0.4315
3001	0.5384
3010	0.6446
3019	0.7502
3028	0.833
3037	0.8414
3046	0.8442
3055	0.847
3064	0.8967
3073	0.9493
3082	0.9534
3091	0.9541
3100	0.9542
3109	0.954
3118	0.954
3127	0.9537
3136	0.9526
3145	0.9515
3154	0.95
3163	0.9478
3172	0.9444
3181	0.9407
3190	0.9353
3199	0.9299
3208	0.9245
3217	0.9192
3226	0.9138
3235	0.9088
3244	0.9038
3253	0.8987
3262	0.8927
3271	0.8862
3280	0.8799
3289	0.8726
3298	0.8643
3307	0.856
3316	0.8437
3325	0.8279
3334	0.8108
3343	0.7929
3352	0.7728
3361	0.7402
3370	0.6994
3379	0.6691
3388	0.6315
3397	0.5811
3406	0.53
3415	0.4791
3424	0.4286
3433	0.3784
3442	0.3283
3451	0.2786
3460	0.2291
3469	0.1799
3478	0.1375
3487	0.1361
3496	0.1387
3505	0.1874
3514	0.2648
3523	0.3418
3532	0.4185
3541	0.4948
3550	0.5706
3559	0.6461
3568	0.7212
3577	0.8575
3586	0.872
3595	0.8976
3604	0.9286
3613	0.9535
3622	0.9847
3631	0.9978
3640	1.0047
3649	1.0088
3658	1.0118
3667	1.0148
3676	1.0171
3685	1.0191
3694	1.0211
3703	1.0227
3712	1.0236
3721	1.0244
3730	1.0252
3739	1.0254
3748	1.0254
3757	1.0253
3766	1.0252
3775	1.0248
3784	1.024
3793	1.0232
3802	1.0224
3811	1.0214
3820	1.0197
3829	1.018
3838	1.0161
3847	1.0142
3856	1.0128
3865	1.0118
3874	1.0111
3883	1.0108
3892	1.0105
3901	1.0102
3910	1.0101
3919	1.0101
3928	1.0101
3937	1.0101
3946	1.0101
3955	1.0101
3964	1.0102
3973	1.0102
3982	1.0103
3991	1.0103
4000	1.0104
