Infrared Spectrum: 2-Propyn-1-ol, 1,1-dicyclopropyl-,
Formula: C9 H12 O
CAS: 24297-12-9
State: LIQUID (NEAT)
Class: COBLENTZ III
Instrument: PERKIN-ELMER 21 (GRATING)
Instrument parameters: FILTER AT ABOUT 10 MICRONS
Path length: CAPILLARY
Resolution: 2
Origin: ABBOTT LABORATORIES
1/CM	TRANSMITTANCE
667	0.4158
676	0.4867
685	0.5495
694	0.5819
703	0.6171
712	0.6555
721	0.6873
730	0.7069
739	0.7165
748	0.7204
757	0.7252
766	0.7538
775	0.7465
784	0.748
793	0.7723
802	0.7567
811	0.7017
820	0.6545
829	0.6346
838	0.6581
847	0.5249
856	0.7329
865	0.7333
874	0.7491
883	0.6437
892	0.62
901	0.5516
910	0.5244
919	0.5147
928	0.3654
937	0.5377
946	0.7112
955	0.7161
964	0.6196
973	0.4833
982	0.3003
991	0.2304
1000	0.236
1009	0.2465
1018	0.1927
1027	0.11
1036	0.1668
1045	0.3877
1054	0.4909
1063	0.595
1072	0.6733
1081	0.703
1090	0.6782
1099	0.6427
1108	0.6721
1117	0.7035
1126	0.6642
1135	0.5917
1144	0.476
1153	0.5929
1162	0.6112
1171	0.6447
1180	0.6498
1189	0.6234
1198	0.5902
1207	0.6195
1216	0.6317
1225	0.6247
1234	0.6325
1243	0.6677
1252	0.6637
1261	0.6435
1270	0.6183
1279	0.5808
1288	0.5407
1297	0.5229
1306	0.5223
1315	0.5281
1324	0.5426
1333	0.5617
1342	0.5836
1351	0.5688
1360	0.5212
1369	0.5428
1378	0.5453
1387	0.5692
1396	0.5816
1405	0.5806
1414	0.5619
1423	0.5623
1432	0.6724
1441	0.6913
1450	0.6872
1459	0.691
1468	0.7467
1477	0.7773
1486	0.7926
1495	0.8022
1504	0.8027
1513	0.7938
1522	0.7866
1531	0.785
1540	0.7882
1549	0.7937
1558	0.8071
1567	0.8115
1576	0.8107
1585	0.8059
1594	0.7964
1603	0.7856
1612	0.7738
1621	0.7628
1630	0.754
1639	0.75
1648	0.7474
1657	0.7447
1666	0.7463
1675	0.7627
1684	0.7828
1693	0.8074
1702	0.8229
1711	0.8276
1720	0.8303
1729	0.833
1738	0.8357
1747	0.8401
1756	0.8461
1765	0.8506
1774	0.8514
1783	0.85
1792	0.848
1801	0.8455
1810	0.8438
1819	0.8428
1828	0.8416
1837	0.8397
1846	0.839
1855	0.84
1864	0.8413
1873	0.8425
1882	0.8416
1891	0.8403
1900	0.8376
1909	0.8355
1918	0.8345
1927	0.8357
1936	0.8368
1945	0.8387
1954	0.8414
1963	0.844
1972	0.846
1981	0.8474
1990	0.8483
1999	0.8492
2008	0.8495
2017	0.8479
2026	0.8441
2035	0.8398
2044	0.835
2053	0.8289
2062	0.8242
2071	0.8243
2080	0.8218
2089	0.7909
2098	0.782
2107	0.8011
2116	0.838
2125	0.8508
2134	0.8526
2143	0.8515
2152	0.8535
2161	0.8544
2170	0.8544
2179	0.8533
2188	0.8524
2197	0.8513
2206	0.851
2215	0.8506
2224	0.8502
2233	0.8514
2242	0.8529
2251	0.8544
2260	0.8558
2269	0.8565
2278	0.8571
2287	0.8575
2296	0.857
2305	0.8564
2314	0.8558
2323	0.8553
2332	0.8547
2341	0.8537
2350	0.8527
2359	0.8518
2368	0.8508
2377	0.8498
2386	0.8489
2395	0.8481
2404	0.8473
2413	0.8466
2422	0.8458
2431	0.845
2440	0.8443
2449	0.8438
2458	0.8434
2467	0.843
2476	0.8425
2485	0.8421
2494	0.8417
2503	0.8413
2512	0.841
2521	0.8407
2530	0.8404
2539	0.84
2548	0.8397
2557	0.8389
2566	0.8382
2575	0.8374
2584	0.8367
2593	0.836
2602	0.835
2611	0.8337
2620	0.8325
2629	0.8313
2638	0.8302
2647	0.829
2656	0.8279
2665	0.8267
2674	0.8255
2683	0.8245
2692	0.8235
2701	0.8224
2710	0.8214
2719	0.8204
2728	0.8195
2737	0.8185
2746	0.8169
2755	0.8152
2764	0.8135
2773	0.8119
2782	0.8102
2791	0.8056
2800	0.8002
2809	0.7943
2818	0.785
2827	0.7757
2836	0.7674
2845	0.7612
2854	0.7582
2863	0.7554
2872	0.754
2881	0.7528
2890	0.7462
2899	0.7386
2908	0.7316
2917	0.7264
2926	0.7215
2935	0.7165
2944	0.7116
2953	0.6947
2962	0.6424
2971	0.5906
2980	0.5391
2989	0.4879
2998	0.4395
3007	0.438
3016	0.5026
3025	0.7044
3034	0.7391
3043	0.725
3052	0.6912
3061	0.6577
3070	0.6243
3079	0.6132
3088	0.6303
3097	0.6837
3106	0.7369
3115	0.7826
3124	0.7858
3133	0.7836
3142	0.7811
3151	0.7745
3160	0.7617
3169	0.7482
3178	0.7352
3187	0.7086
3196	0.6686
3205	0.6288
3214	0.5893
3223	0.55
3232	0.511
3241	0.4721
3250	0.4334
3259	0.395
3268	0.3567
3277	0.3198
3286	0.3128
3295	0.3627
3304	0.4695
3313	0.4981
3322	0.4961
3331	0.4896
3340	0.4777
3349	0.466
3358	0.4541
3367	0.4425
3376	0.4309
3385	0.4193
3394	0.4113
3403	0.4108
3412	0.4105
3421	0.4114
3430	0.4166
3439	0.4333
3448	0.4501
3457	0.4668
3466	0.4834
3475	0.4986
3484	0.5194
3493	0.5381
3502	0.5725
3511	0.5908
3520	0.6001
3529	0.6034
3538	0.6064
3547	0.625
3556	0.6565
3565	0.6878
3574	0.719
3583	0.7479
3592	0.7594
3601	0.7703
3610	0.7816
3619	0.8009
3628	0.8197
3637	0.8317
3646	0.8381
3655	0.8464
3664	0.8545
3673	0.8577
3682	0.8601
3691	0.861
3700	0.8613
3709	0.8615
3718	0.8617
3727	0.8609
3736	0.86
3745	0.8591
3754	0.8581
3763	0.8571
3772	0.8553
3781	0.8534
3790	0.8515
3799	0.8496
3808	0.848
3817	0.8468
3826	0.8458
3835	0.8448
3844	0.8438
3853	0.8431
3862	0.8425
3871	0.8425
3880	0.8435
3889	0.8446
3898	0.8459
3907	0.8478
3916	0.8498
3925	0.8518
3934	0.854
3943	0.8561
3952	0.8581
3961	0.8599
3970	0.8607
3979	0.8611
3988	0.8614
3997	0.8617
