Infrared Spectrum: 6H-Indolo[2,3-b]quinoxaline
Formula: C14 H9 N3
CAS: 243-59-4
State: SOLID (SPLIT MULL), FLUOROLUBE FOR 3800-1330 CM^-^1, NUJOL FOR 1330-400 CM^-^1
Class: COBLENTZ III
Instrument: DOW KBr FOREPRISM-GRATING
Instrument parameters: BLAZED AT 3.5, 12.0, 20.0 MICRON AND CHANGED AT 5.0, 7.5, 14.9 MICRON
Sampling: TRANSMISSION
Resolution: 2
Origin: DOW CHEMICAL COMPANY
1/CM	TRANSMITTANCE
383	0.8334
392	0.8346
401	0.8354
410	0.8389
419	0.8638
428	0.8638
437	0.8563
446	0.7439
455	0.6274
464	0.9063
473	0.9083
482	0.7919
491	0.9341
500	0.94
509	0.9356
518	0.8683
527	0.9306
536	0.9242
545	0.9213
554	0.883
563	0.8901
572	0.7439
581	0.793
590	0.9058
599	0.9009
608	0.8302
617	0.8803
626	0.8675
635	0.8611
644	0.8521
653	0.8246
662	0.7997
671	0.7861
680	0.8124
689	0.8174
698	0.8238
707	0.8299
716	0.7672
725	0.5721
734	0.6888
743	0.5529
752	0.0939
761	0.5118
770	0.236
779	0.8118
788	0.8423
797	0.8328
806	0.8662
815	0.8441
824	0.6895
833	0.8292
842	0.8633
851	0.8675
860	0.8678
869	0.864
878	0.7453
887	0.8827
896	0.8825
905	0.8764
914	0.8611
923	0.828
932	0.7571
941	0.8311
950	0.8235
959	0.8652
968	0.8389
977	0.851
986	0.8671
995	0.8559
1004	0.5162
1013	0.8018
1022	0.8406
1031	0.8393
1040	0.862
1049	0.8621
1058	0.8583
1067	0.8528
1076	0.8468
1085	0.8364
1094	0.7912
1103	0.6158
1112	0.7728
1121	0.696
1130	0.6045
1139	0.5177
1148	0.7518
1157	0.8026
1166	0.7937
1175	0.7799
1184	0.7614
1193	0.5685
1202	0.4898
1211	0.2928
1220	0.6654
1229	0.6594
1238	0.522
1247	0.45
1256	0.7303
1265	0.6999
1274	0.7525
1283	0.754
1292	0.7417
1301	0.7205
1310	0.6905
1319	0.5869
1328	0.4958
1337	0.2581
1346	0.7351
1355	0.6472
1364	0.5716
1373	0.305
1382	0.7049
1391	0.625
1400	0.3839
1409	0.1654
1418	0.4445
1427	0.735
1436	0.7465
1445	0.7475
1454	0.5389
1463	0.4464
1472	0.5003
1481	0.7598
1490	0.3134
1499	0.8333
1508	0.8425
1517	0.8408
1526	0.8443
1535	0.8363
1544	0.8121
1553	0.7948
1562	0.7485
1571	0.693
1580	0.4897
1589	0.5592
1598	0.3642
1607	0.4918
1616	0.1674
1625	0.7908
1634	0.7895
1643	0.8155
1652	0.8215
1661	0.8441
1670	0.8618
1679	0.8507
1688	0.8416
1697	0.8118
1706	0.7715
1715	0.837
1724	0.8396
1733	0.8623
1742	0.8684
1751	0.8668
1760	0.8612
1769	0.8571
1778	0.84
1787	0.8445
1796	0.8425
1805	0.8424
1814	0.8335
1823	0.83
1832	0.8309
1841	0.8318
1850	0.8284
1859	0.8186
1868	0.81
1877	0.8138
1886	0.8043
1895	0.7864
1904	0.7912
1913	0.7953
1922	0.7937
1931	0.7805
1940	0.7757
1949	0.7718
1958	0.7796
1967	0.7906
1976	0.7868
1985	0.7833
1994	0.7765
2003	0.7725
2012	0.7685
2021	0.7649
2030	0.7593
2039	0.7545
2048	0.7499
2057	0.7455
2066	0.7411
2075	0.7369
2084	0.7334
2093	0.7299
2102	0.7262
2111	0.7226
2120	0.719
2129	0.7151
2138	0.7114
2147	0.7075
2156	0.7033
2165	0.6988
2174	0.6942
2183	0.6895
2192	0.6849
2201	0.6804
2210	0.675
2219	0.6686
2228	0.6604
2237	0.6531
2246	0.6468
2255	0.6408
2264	0.6356
2273	0.6302
2282	0.6237
2291	0.6176
2300	0.6116
2309	0.6053
2318	0.5976
2327	0.5928
2336	0.5912
2345	0.5896
2354	0.5883
2363	0.5895
2372	0.5884
2381	0.5886
2390	0.5882
2399	0.5874
2408	0.5856
2417	0.5829
2426	0.5803
2435	0.5769
2444	0.5731
2453	0.5692
2462	0.5653
2471	0.561
2480	0.5567
2489	0.5526
2498	0.5486
2507	0.5445
2516	0.5401
2525	0.5357
2534	0.5325
2543	0.5295
2552	0.5267
2561	0.5238
2570	0.5197
2579	0.5128
2588	0.5037
2597	0.4947
2606	0.486
2615	0.4773
2624	0.4688
2633	0.4616
2642	0.4587
2651	0.4479
2660	0.4302
2669	0.4137
2678	0.4059
2687	0.413
2696	0.4223
2705	0.429
2714	0.4233
2723	0.4098
2732	0.392
2741	0.3737
2750	0.371
2759	0.3684
2768	0.3662
2777	0.3426
2786	0.3352
2795	0.3558
2804	0.3568
2813	0.3477
2822	0.3125
2831	0.2967
2840	0.3056
2849	0.3173
2858	0.3271
2867	0.3334
2876	0.3248
2885	0.3172
2894	0.315
2903	0.3084
2912	0.302
2921	0.298
2930	0.2942
2939	0.2948
2948	0.2959
2957	0.2819
2966	0.2562
2975	0.2466
2984	0.2472
2993	0.2382
3002	0.2348
3011	0.2306
3020	0.2244
3029	0.2358
3038	0.241
3047	0.2266
3056	0.2193
3065	0.1971
3074	0.1948
3083	0.1935
3092	0.2011
3101	0.2111
3110	0.2201
3119	0.2213
3128	0.2173
3137	0.2196
3146	0.2253
3155	0.2379
3164	0.256
3173	0.2783
3182	0.3016
3191	0.3184
3200	0.3268
3209	0.3378
3218	0.3528
3227	0.3662
3236	0.3856
3245	0.4018
3254	0.4118
3263	0.422
3272	0.4286
3281	0.4321
3290	0.4353
3299	0.4383
3308	0.4386
3317	0.4377
3326	0.4373
3335	0.4367
3344	0.4347
3353	0.4325
3362	0.4303
3371	0.4281
3380	0.4255
3389	0.4228
3398	0.4202
3407	0.4175
3416	0.4148
3425	0.4121
3434	0.4093
3443	0.4064
3452	0.4036
3461	0.4012
3470	0.3991
3479	0.3968
3488	0.3947
3497	0.393
3506	0.3914
3515	0.3899
3524	0.3882
3533	0.3866
3542	0.3848
3551	0.383
3560	0.381
3569	0.3793
3578	0.3775
3587	0.3756
3596	0.3738
3605	0.3718
3614	0.37
3623	0.368
3632	0.3662
3641	0.3642
3650	0.3623
3659	0.3604
3668	0.3587
3677	0.357
3686	0.3553
3695	0.3536
3704	0.3518
3713	0.3502
3722	0.3487
3731	0.3476
3740	0.3464
3749	0.3453
3758	0.3442
3767	0.343
3776	0.3418
3785	0.3409
3794	0.34
