Infrared Spectrum: Benzonaphthofuran
Formula: C 16 H 10 O
CAS: 243-42-5
State: gas
Instrument: HP-GC/MS/IRD
Origin: NIST Mass Spectrometry Data Center
1/CM	ABSORBANCE
550	0.0002486
562	4.73e-05
574	0.0005456
586	1.43e-05
598	0.0001375
610	0.000363
622	0.0005401
634	0.0003091
646	0.0001529
658	0.0002376
670	0.0001276
682	0.0002992
694	0.0003817
706	0.0005379
718	0.0011352
730	0.0027555
742	0.006248
754	0.0036289
766	0.0010527
778	0.0003476
790	0.0003938
802	0.0004389
814	0.0003256
826	0.0004334
838	0.0006875
850	0.0022352
862	0.0046365
874	0.0020174
886	0.0007513
898	0.0006985
910	0.0009702
922	0.0004862
934	0.0005071
946	0.0005258
958	0.000407
970	0.0003872
982	0.0010351
994	0.0004499
1006	0.0008272
1018	0.0009152
1030	0.0001628
1042	0.0001177
1054	0.0001078
1066	0.0001221
1078	0.0001364
1090	0.0004037
1102	0.00077
1114	0.0028985
1126	0.0014366
1138	0.0004763
1150	0.0034276
1162	0.0018678
1174	0.0004004
1186	0.0024222
1198	0.0102025
1210	0.0056782
1222	0.0011638
1234	0.0002838
1246	0.0004763
1258	0.0004279
1270	0.0001056
1282	0.0002002
1294	0.0005742
1306	0.0003069
1318	0.0003883
1330	0.0003421
1342	0.000561
1354	0.0003597
1366	0.0003124
1378	0.0003234
1390	0.0009306
1402	0.0012243
1414	0.0008503
1426	0.0013926
1438	0.002343
1450	0.0020482
1462	0.0047113
1474	0.0019855
1486	0.001001
1498	0.0015367
1510	0.0011561
1522	0.0003432
1534	0.0002167
1546	0.000187
1558	0.0002002
1570	0.0004697
1582	0.0008393
1594	0.0014663
1606	0.0014333
1618	0.0006941
1630	0.0004312
1642	0.0004576
1654	0.0004268
1666	0.0003179
1678	0.0002948
1690	0.0002673
1702	0.0001265
1714	0.0001122
1726	0.0002068
1738	8.69e-05
1750	0.0001012
1762	0.0001529
1774	0.000165
1786	0.0001287
1798	0.0001727
1810	0.0001705
1822	9.57e-05
1834	6.38e-05
1846	9.46e-05
1858	7.15e-05
1870	4.29e-05
1882	0.0001694
1894	0.0002508
1906	0.0001837
1918	0.0002101
1930	0.0004521
1942	0.0002024
1954	8.69e-05
1966	3.85e-05
1978	6.6e-05
1990	7.7e-05
2002	7.81e-05
2014	5.72e-05
2026	6.93e-05
2038	7.26e-05
2050	6.93e-05
2062	9.02e-05
2074	6.05e-05
2086	3.85e-05
2098	9.24e-05
2110	6.05e-05
2122	4.07e-05
2134	8.91e-05
2146	5.61e-05
2158	4.62e-05
2170	6.6e-05
2182	5.72e-05
2194	7.92e-05
2206	7.26e-05
2218	8.69e-05
2230	9.9e-05
2242	0.0001111
2254	4.95e-05
2266	6.49e-05
2278	7.15e-05
2290	1.98e-05
2302	4.84e-05
2314	2.75e-05
2326	3.3e-06
2338	3.3e-06
2350	1.98e-05
2362	3.3e-06
2374	2.2e-06
2386	7.81e-05
2398	8.91e-05
2410	0.0001419
2422	0.0001188
2434	0.00011
2446	0.0001342
2458	0.0001276
2470	0.0001155
2482	0.0001001
2494	0.0001265
2506	0.0001298
2518	0.0001485
2530	0.0001804
2542	0.0001683
2554	0.0001287
2566	0.0001188
2578	0.0001133
2590	0.0001474
2602	0.0001441
2614	0.0001463
2626	0.0001331
2638	0.0001815
2650	0.0001606
2662	0.0001474
2674	0.0001452
2686	0.0001342
2698	0.0001859
2710	0.000176
2722	0.0001782
2734	0.0002057
2746	0.0001771
2758	0.000198
2770	0.0002321
2782	0.0002475
2794	0.0002618
2806	0.0002772
2818	0.0001936
2830	0.0002508
2842	0.0002508
2854	0.0001881
2866	0.0001562
2878	0.0002211
2890	0.0002299
2902	0.0002002
2914	0.0002398
2926	0.0002299
2938	0.0003014
2950	0.0003377
2962	0.0003069
2974	0.000286
2986	0.0003146
2998	0.0004488
3010	0.0005335
3022	0.0006248
3034	0.000891
3046	0.0014927
3058	0.0029799
3070	0.0031823
3082	0.0023199
3094	0.0013684
3106	0.0005918
3118	0.0002805
3130	0.0002794
3142	0.0003267
3154	0.0002607
3166	0.0002453
3178	0.000187
3190	0.0002035
3202	0.0001628
3214	0.0001815
3226	0.0002024
3238	0.0001452
3250	0.0001485
3262	0.0001848
3274	0.0002002
3286	0.0001672
3298	0.0001683
3310	0.0001221
3322	0.0001837
3334	0.0001463
3346	0.0001408
3358	0.000176
3370	0.0001001
3382	8.8e-05
3394	0.0001342
3406	0.0001562
3418	0.0001221
3430	9.02e-05
3442	2.31e-05
3454	4.29e-05
3466	9.57e-05
3478	5.61e-05
3490	0.0001331
3502	3.3e-05
3514	6.27e-05
3526	3.19e-05
3538	6.93e-05
3550	7.48e-05
3562	0.0001353
3574	3.63e-05
3586	3.85e-05
3598	6.05e-05
3610	5.39e-05
3622	9.02e-05
3634	6.05e-05
3646	4.84e-05
3658	1.54e-05
3670	7.81e-05
3682	0.0001221
3694	0.0001221
3706	0.00011
3718	0.0002002
3730	9.46e-05
3742	7.26e-05
3754	5.39e-05
3766	0.0001166
3778	0.0001078
3790	0.0001914
3802	0.000165
3814	0.0001408
3826	0.0001529
3838	6.82e-05
