Infrared Spectrum: 2,3-Benzofluorene
Formula: C 17 H 12
CAS: 243-17-4
State: gas
Instrument: HP-GC/MS/IRD
Origin: NIST Mass Spectrometry Data Center
1/CM	ABSORBANCE
550	0.0007272
562	0.0014958
574	0.0021276
586	8.46e-05
598	0.0004266
610	0.0006642
622	0.000162
634	6.3e-05
646	5.58e-05
658	0.0001854
670	0.0003312
682	0.0004644
694	0.0007236
706	0.0023724
718	0.0104526
730	0.0105696
742	0.0060408
754	0.0082926
766	0.0137718
778	0.0046368
790	0.0007092
802	0.000531
814	0.0004032
826	0.0005058
838	0.0004464
850	0.0015876
862	0.007065
874	0.0049752
886	0.0013122
898	0.0005004
910	0.0004698
922	0.0006624
934	0.000711
946	0.0016776
958	0.0017856
970	0.0006444
982	0.0005742
994	0.0002556
1006	0.0006804
1018	0.0022968
1030	0.0005832
1042	0.0002376
1054	9.54e-05
1066	0.0001008
1078	0.0001422
1090	0.0001332
1102	0.0002808
1114	0.000612
1126	0.0005706
1138	0.001791
1150	0.0014778
1162	0.0005778
1174	0.0006732
1186	0.0025002
1198	0.0007362
1210	0.0004266
1222	0.0007002
1234	0.0004698
1246	0.0002592
1258	0.000927
1270	0.0007884
1282	0.0002718
1294	0.000657
1306	0.0022716
1318	0.000657
1330	0.000567
1342	0.0009396
1354	0.000684
1366	0.000243
1378	0.0003024
1390	0.0004428
1402	0.0013824
1414	0.0032832
1426	0.003294
1438	0.0048546
1450	0.002628
1462	0.0019818
1474	0.003177
1486	0.001791
1498	0.0036162
1510	0.0021024
1522	0.0003312
1534	0.0001764
1546	0.0001602
1558	0.00036
1570	0.0014778
1582	0.0017532
1594	0.0006768
1606	0.0007596
1618	0.0007146
1630	0.0007236
1642	0.0005616
1654	0.0003006
1666	0.000459
1678	0.0008766
1690	0.0008442
1702	0.0005526
1714	0.0005346
1726	0.0006012
1738	0.0006516
1750	0.0005688
1762	0.000432
1774	0.0005832
1786	0.0006678
1798	0.0008442
1810	0.0008586
1822	0.0006858
1834	0.0005004
1846	0.0004032
1858	0.0003024
1870	0.0003204
1882	0.0005724
1894	0.0009288
1906	0.0007362
1918	0.0006912
1930	0.0011772
1942	0.0012528
1954	0.0002322
1966	0.0001188
1978	7.02e-05
1990	6.48e-05
2002	6.66e-05
2014	7.56e-05
2026	5.58e-05
2038	5.04e-05
2050	5.94e-05
2062	3.42e-05
2074	4.5e-05
2086	6.84e-05
2098	6.48e-05
2110	2.7e-05
2122	5.4e-05
2134	3.24e-05
2146	4.5e-05
2158	5.4e-05
2170	6.12e-05
2182	8.1e-05
2194	7.92e-05
2206	0.0001494
2218	8.28e-05
2230	7.02e-05
2242	8.46e-05
2254	8.82e-05
2266	0.0001134
2278	0.000108
2290	9.9e-05
2302	0.0001476
2314	0.000162
2326	0.0001836
2338	0.0001764
2350	0.0001314
2362	0.0001008
2374	8.28e-05
2386	7.74e-05
2398	8.82e-05
2410	0.0001008
2422	9.9e-05
2434	7.02e-05
2446	7.92e-05
2458	0.0001152
2470	7.2e-05
2482	5.4e-05
2494	9.9e-05
2506	0.0001188
2518	0.0001098
2530	0.0001152
2542	0.0001062
2554	3.96e-05
2566	6.48e-05
2578	0.000108
2590	0.000117
2602	0.000108
2614	7.2e-05
2626	4.86e-05
2638	3.96e-05
2650	0.0001152
2662	4.5e-05
2674	0.0001098
2686	8.46e-05
2698	9.36e-05
2710	7.56e-05
2722	4.32e-05
2734	3.42e-05
2746	6.3e-05
2758	0.000108
2770	0.0001872
2782	0.0002106
2794	0.0003456
2806	0.0005904
2818	0.0005904
2830	0.000432
2842	0.0002754
2854	0.000234
2866	0.0003042
2878	0.0003924
2890	0.0006354
2902	0.0027144
2914	0.00495
2926	0.0032832
2938	0.0012006
2950	0.0006642
2962	0.0006642
2974	0.0007074
2986	0.0011718
2998	0.002187
3010	0.004464
3022	0.0075042
3034	0.006732
3046	0.0079074
3058	0.0162126
3070	0.0161046
3082	0.0090846
3094	0.0044424
3106	0.0014094
3118	0.0006588
3130	0.0004626
3142	0.0003834
3154	0.0003726
3166	0.0002448
3178	0.000234
3190	0.0002376
3202	0.0001872
3214	0.0001782
3226	0.0001476
3238	2.7e-05
3250	1.62e-05
3262	4.86e-05
3274	3.42e-05
3286	2.88e-05
3298	5.04e-05
3310	0
3322	6.84e-05
3334	4.5e-05
3346	4.32e-05
3358	9.54e-05
3370	5.76e-05
3382	3.96e-05
3394	1.44e-05
3406	3.78e-05
3418	3.96e-05
3430	9.72e-05
3442	4.86e-05
3454	2.88e-05
3466	3.06e-05
3478	4.5e-05
3490	3.96e-05
3502	6.3e-05
3514	6.66e-05
3526	8.1e-05
3538	7.02e-05
3550	6.84e-05
3562	6.66e-05
3574	0.0001062
3586	2.88e-05
3598	7.56e-05
3610	0.0001548
3622	0.0001656
3634	0.0001512
3646	9.72e-05
3658	0.0001764
3670	0.0001098
3682	0.0001332
3694	0.0001602
3706	0.0001008
3718	0.0001206
3730	0.0001476
3742	9.36e-05
3754	0.0001224
3766	0.0001404
3778	0.0001566
3790	0.0001962
3802	8.28e-05
3814	0.000117
3826	0.0001422
3838	0.0001872
