Infrared Spectrum: 6-Phenyl-n-hexanol
Formula: C 12 H 18 O
CAS: 2430-16-2
State: gas
Origin: EPA-IR VAPOR PHASE LIBRARY
1/CM	ABSORBANCE
549.8	0.000734
559.445	0.0005867
569.09	0.002369
578.734	0.003069
588.379	0.002609
598.024	0.0010181
607.669	0.0006622
617.313	0.001559
626.958	0.0008362
636.603	4.9e-05
646.248	0.001799
655.893	0.002379
665.537	0.003269
675.182	0.005619
684.827	0.011279
694.472	0.024049
704.116	0.020789
713.761	0.014809
723.406	0.014859
733.051	0.018179
742.695	0.018929
752.34	0.010769
761.985	0.005279
771.63	0.003469
781.275	0.002299
790.919	0.001999
800.564	0.002139
810.209	0.001679
819.854	0.001979
829.498	0.001489
839.143	0.001899
848.788	0.001759
858.433	0.002219
868.078	0.002629
877.722	0.002499
887.367	0.003659
897.012	0.003959
906.657	0.004609
916.301	0.004179
925.946	0.003739
935.591	0.004399
945.236	0.004789
954.88	0.005699
964.525	0.006449
974.17	0.007359
983.815	0.008869
993.46	0.011439
1003.1	0.012709
1012.75	0.016589
1022.39	0.022379
1032.04	0.028379
1041.68	0.027479
1051.33	0.027569
1060.97	0.022449
1070.62	0.019099
1080.26	0.015839
1089.91	0.013179
1099.55	0.007049
1109.2	0.004789
1118.84	0.004169
1128.49	0.003939
1138.13	0.003699
1147.78	0.003619
1157.42	0.004189
1167.07	0.003849
1176.71	0.003219
1186.36	0.003819
1196	0.002729
1205.64	0.004519
1215.29	0.002859
1224.93	0.003989
1234.58	0.004459
1244.22	0.003909
1253.87	0.003869
1263.51	0.004119
1273.16	0.004089
1282.8	0.004779
1292.45	0.004969
1302.09	0.004929
1311.74	0.005009
1321.38	0.005349
1331.03	0.005729
1340.67	0.006869
1350.32	0.007959
1359.96	0.007449
1369.61	0.007579
1379.25	0.008399
1388.9	0.008349
1398.54	0.006629
1408.18	0.004949
1417.83	0.004529
1427.47	0.005089
1437.12	0.007469
1446.76	0.011429
1456.41	0.013379
1466.05	0.010239
1475.7	0.007529
1485.34	0.008399
1494.99	0.013749
1504.63	0.007569
1514.28	0.002999
1523.92	0.002029
1533.57	0.001849
1543.21	0.001829
1552.86	0.001379
1562.5	0.001789
1572.15	0.002099
1581.79	0.003099
1591.44	0.004769
1601.08	0.007269
1610.73	0.004599
1620.37	0.001529
1630.01	0.0011113
1639.66	0.0009947
1649.3	0.0012136
1658.95	0.000906
1668.59	0.000643
1678.24	0.0007522
1687.88	0.00030001
1697.53	0.000712
1707.17	0.0007503
1716.82	0.000683
1726.46	0.0007959
1736.11	0.00099
1745.75	0.0011718
1755.4	0.0006715
1765.04	0.0007137
1774.69	0.0009284
1784.33	0.001449
1793.98	0.002169
1803.62	0.001419
1813.27	0.0011545
1822.91	0.0007561
1832.55	0.000921
1842.2	0.0011835
1851.84	0.001299
1861.49	0.001389
1871.13	0.001709
1880.78	0.001419
1890.42	0.001061
1900.07	0.0006561
1909.71	0.0009331
1919.36	0.0010486
1929	0.002069
1938.65	0.002129
1948.29	0.002129
1957.94	0.001619
1967.58	0.0009294
1977.23	0.0008745
1986.87	0.0007037
1996.52	0.0008447
2006.16	0.0010407
2015.81	0.0010386
2025.45	0.0010754
2035.1	0.000926
2044.74	0.0009003
2054.38	0.0007199
2064.03	0.0008634
2073.67	0.0007926
2083.32	0.0009261
2092.96	0.0005902
2102.61	0.0007208
2112.25	0.0007201
2121.9	0.0007818
2131.54	0.0008103
2141.19	0.0007424
2150.83	0.0007384
2160.48	0.0008726
2170.12	0.0010008
2179.77	0.0008583
2189.41	0.0006169
2199.06	0.0009169
2208.7	0.0009302
2218.35	0.0006511
2227.99	0.00093
2237.64	0.0008662
2247.28	0.0007079
2256.92	0.0010071
2266.57	0.0007882
2276.21	0.0008169
2285.86	0.0008022
2295.5	0.0009018
2305.15	0.0010518
2314.79	0.0010908
2324.44	0.0008487
2334.08	0.0010883
2343.73	0.0008201
2353.37	0.0010855
2363.02	0.0007866
2372.66	0.0009793
2382.31	0.0005993
2391.95	0.0009014
2401.6	0.0008854
2411.24	0.0009762
2420.89	0.0008964
2430.53	0.0007176
2440.18	0.0007825
2449.82	0.0008811
2459.47	0.0009459
2469.11	0.0009927
2478.75	0.0011775
2488.4	0.0010943
2498.04	0.0010892
2507.69	0.0010497
2517.33	0.000854
2526.98	0.0009749
2536.62	0.0009326
2546.27	0.0009339
2555.91	0.001459
2565.56	0.0010433
2575.2	0.0010393
2584.85	0.001299
2594.49	0.0011808
2604.14	0.001319
2613.78	0.0010165
2623.43	0.001489
2633.07	0.001729
2642.72	0.001839
2652.36	0.001859
2662.01	0.002059
2671.65	0.001699
2681.29	0.002109
2690.94	0.002319
2700.58	0.002039
2710.23	0.002169
2719.87	0.002509
2729.52	0.002519
2739.16	0.002639
2748.81	0.003009
2758.45	0.003419
2768.1	0.003449
2777.74	0.003839
2787.39	0.004349
2797.03	0.004649
2806.68	0.005169
2816.32	0.005909
2825.97	0.007129
2835.61	0.010359
2845.26	0.017559
2854.9	0.030079
2864.55	0.043849
2874.19	0.042859
2883.84	0.035929
2893.48	0.032469
2903.12	0.038109
2912.77	0.051619
2922.41	0.075419
2932.06	0.106339
2941.7	0.107109
2951.35	0.065379
2960.99	0.034249
2970.64	0.019039
2980.28	0.011679
2989.93	0.008049
2999.57	0.007649
3009.22	0.008869
3018.86	0.014419
3028.51	0.022699
3038.15	0.020589
3047.8	0.012319
3057.44	0.013369
3067.09	0.021319
3076.73	0.017719
3086.38	0.011849
3096.02	0.008589
3105.67	0.005549
3115.31	0.003629
3124.95	0.002409
3134.6	0.001789
3144.24	0.0011558
3153.89	0.0010818
3163.53	0.001579
3173.18	0.001409
3182.82	0.0009994
3192.47	0.0009774
3202.11	0.0011458
3211.76	0.001209
3221.4	0.0007207
3231.05	0.0010506
3240.69	0.0009631
3250.34	0.0004295
3259.98	0.00033511
3269.63	0.001015
3279.27	0.0005954
3288.92	0.0011362
3298.56	0.0004852
3308.21	0.0011917
3317.85	0.0005771
3327.49	0.00032042
3337.14	0.0007091
3346.78	0.0007934
3356.43	0.0007883
3366.07	0.0007614
3375.72	0.0006392
3385.36	0.0007298
3395.01	0.0005345
3404.65	0.0005641
3414.3	0.001309
3423.94	0.000794
3433.59	0.0006616
3443.23	0.0010951
3452.88	0.0008933
3462.52	0.0011582
3472.17	0.0008746
3481.81	0.0007477
3491.46	0.001679
3501.1	0.0011875
3510.75	0.0009994
3520.39	0.0007099
3530.04	0.0007511
3539.68	0.0008427
3549.32	0.0006944
3558.97	0.0006765
3568.61	0.0010297
3578.26	0.0010546
3587.9	0.0010231
3597.55	0.0012342
3607.19	0.0010684
3616.84	0.001549
3626.48	0.002319
3636.13	0.003089
3645.77	0.003999
3655.42	0.006779
3665.06	0.008169
3674.71	0.007749
3684.35	0.004529
3694	0.002949
3703.64	0.001949
3713.29	0.001609
3722.93	0.0010415
3732.58	0.000548
3742.22	0.0006533
3751.86	0.001339
3761.51	0.0007874
3771.15	0.0003791
3780.8	0.000993
3790.44	0.0011834
3800.09	0.000852
3809.73	0.001679
3819.38	0.001559
3829.02	0.0007446
3838.67	0.0008911
3848.31	0.001549
3857.96	0.002019
3867.6	0.001919
3877.25	0.001359
3886.89	0.001529
3896.54	0.001299
3906.18	0.0011885
3915.83	0.0010706
3925.47	0.0008575
3935.12	0.0005111
3944.76	0.0003889
3954.41	0.0010978
3964.05	0.0004701
3973.69	0.0008326
3983.34	0.0005499
3992.98	0.0008911
