Infrared Spectrum: QUINAZOLINONE, 3-METHYL-2-(o-TOLYL)-4-(3H)-
Formula: C16 H14 N2 O
CAS: 24303-76-2
State: SOLUTION (10% CCl4 FOR 3800-1330, 10% CS2 FOR 1330-400 CM^-^1)
Class: COBLENTZ III
Instrument: DOW KBr FOREPRISM-GRATING
Instrument parameters: BLAZED AT 3.5, 12.0, 20.0 MICRON AND CHANGED AT 5.0, 7.5, 14.9 MICRON
Sampling: TRANSMISSION
Path length: 0.011 CM, 0.011 CM
Resolution: 2
Origin: DOW CHEMICAL COMPANY
1/CM	TRANSMITTANCE
388.425	0.356
397.329	0.398
406.232	0.539
415.136	0.827
424.04	0.953
432.944	1.009
441.847	1.013
450.751	0.965
459.655	0.844
468.558	0.993
477.462	1.056
486.366	1.06
495.27	1.049
504.173	1.038
513.077	1.005
521.981	0.877
530.884	0.933
539.788	0.995
548.692	1.001
557.596	0.922
566.499	1.02
575.403	0.878
584.307	1.03
593.21	1.034
602.114	1.026
611.018	1.006
619.922	0.701
628.825	0.847
637.729	0.943
646.633	0.907
655.537	0.6
664.44	0.911
673.344	0.997
682.248	0.953
691.151	0.789
700.055	0.173
708.959	0.922
717.863	0.621
726.766	0.885
735.67	0.953
744.574	0.903
753.477	0.473
762.381	0.545
771.285	0.115
780.189	0.643
789.092	0.822
797.996	0.826
806.9	0.95
815.803	0.969
824.707	0.975
833.611	0.955
842.515	0.9
851.418	0.767
860.322	0.756
869.226	0.683
878.129	0.663
887.033	0.911
895.937	0.961
904.841	0.976
913.744	0.979
922.648	0.977
931.552	0.964
940.455	0.962
949.359	0.962
958.263	0.778
967.167	0.96
976.07	0.944
984.974	0.938
993.878	0.936
1002.78	0.902
1011.69	0.891
1020.59	0.683
1029.49	0.721
1038.4	0.797
1047.3	0.881
1056.2	0.958
1065.11	0.962
1074.01	0.955
1082.91	0.931
1091.82	0.867
1100.72	0.493
1109.63	0.764
1118.53	0.831
1127.43	0.376
1136.34	0.907
1145.24	0.882
1154.14	0.848
1163.05	0.943
1171.95	0.92
1180.86	0.903
1189.76	0.757
1198.66	0.6791
1207.57	0.859
1216.47	0.803
1225.37	0.745
1234.28	0.561
1243.18	0.814
1252.09	0.756
1260.99	0.487
1269.89	0.1
1278.8	0.522
1287.7	0.285
1296.6	0.614
1305.51	0.469
1314.41	0.436
1323.32	0.213
1332.22	0.221
1341.12	0.093
1350.03	0.436
1358.93	0.844
1367.83	0.869
1376.74	0.636
1385.64	0.278
1394.54	0.849
1403.45	0.918
1412.35	0.918
1421.26	0.87
1430.16	0.56
1439.06	0.508
1447.97	0.691
1456.87	0.571
1465.77	0.334
1474.68	0.038
1483.58	0.632
1492.49	0.271
1501.39	0.526
1510.29	0.581
1519.2	0.674
1528.1	0.654
1537	0.6
1545.91	0.49
1554.81	0.447
1563.72	0.38
1572.62	0.079
1581.52	0.254
1590.43	0.174
1599.33	0.097
1608.23	0.026
1617.14	0.039
1626.04	0.659
1634.95	0.819
1643.85	0.811
1652.75	0.691
1661.66	0.621
1670.56	0.404
1679.46	0.057
1688.37	0.015
1697.27	0.011
1706.18	0.176
1715.08	0.637
1723.98	0.71
1732.89	0.756
1741.79	0.845
1750.69	0.911
1759.6	0.942
1768.5	0.971
1777.4	0.976
1786.31	0.96
1795.21	0.951
1804.12	0.972
1813.02	0.979
1821.92	0.987
1830.83	0.954
1839.73	0.951
1848.63	0.976
1857.54	0.975
1866.44	0.98
1875.35	0.988
1884.25	0.99
1893.15	1.004
1902.06	1.002
1910.96	0.993
1919.86	0.955
1928.77	0.987
1937.67	0.988
1946.58	0.954
1955.48	0.958
1964.38	0.988
1973.29	0.968
1982.19	1.001
1991.09	1.004
2000	0.99
2008.9	0.9822
2017.81	0.993
2026.71	0.994
2035.61	0.993
2044.52	0.9902
2053.42	0.9973
2062.32	1.001
2071.23	0.9963
2080.13	0.9934
2089.03	1.0016
2097.94	0.9935
2106.84	0.9875
2115.75	0.9897
2124.65	0.995
2133.55	0.994
2142.46	0.994
2151.36	0.994
2160.26	0.9914
2169.17	0.99
2178.07	0.99
2186.98	0.991
2195.88	0.991
2204.78	0.99
2213.69	0.986
2222.59	0.983
2231.49	0.979
2240.4	0.9787
2249.3	0.976
2258.21	0.973
2267.11	0.966
2276.01	0.9647
2284.92	0.9616
2293.82	0.96
2302.72	0.958
2311.63	0.955
2320.53	0.953
2329.44	0.9494
2338.34	0.9407
2347.24	0.942
2356.15	0.951
2365.05	0.953
2373.95	0.954
2382.86	0.955
2391.76	0.96
2400.66	0.9709
2409.57	0.969
2418.47	0.966
2427.38	0.964
2436.28	0.961
2445.18	0.958
2454.09	0.9494
2462.99	0.94
2471.89	0.9442
2480.8	0.9573
2489.7	0.958
2498.61	0.9628
2507.51	0.965
2516.41	0.965
2525.32	0.966
2534.22	0.966
2543.12	0.965
2552.03	0.964
2560.93	0.9573
2569.84	0.954
2578.74	0.9492
2587.64	0.946
2596.55	0.9353
2605.45	0.9329
2614.35	0.9419
2623.26	0.9491
2632.16	0.955
2641.07	0.955
2649.97	0.955
2658.87	0.9572
2667.78	0.962
2676.68	0.961
2685.58	0.958
2694.49	0.9588
2703.39	0.96
2712.3	0.9591
2721.2	0.955
2730.1	0.9519
2739.01	0.9412
2747.91	0.9506
2756.81	0.955
2765.72	0.957
2774.62	0.957
2783.52	0.9502
2792.43	0.9443
2801.33	0.9363
2810.24	0.939
2819.14	0.942
2828.04	0.936
2836.95	0.9219
2845.85	0.895
2854.75	0.8905
2863.66	0.8738
2872.56	0.877
2881.47	0.8803
2890.37	0.8807
2899.27	0.8729
2908.18	0.8579
2917.08	0.7984
2925.98	0.7245
2934.89	0.759
2943.79	0.8168
2952.7	0.7875
2961.6	0.7753
2970.5	0.772
2979.41	0.7858
2988.31	0.8207
2997.21	0.8518
3006.12	0.8494
3015.02	0.7895
3023.93	0.7632
3032.83	0.705
3041.73	0.794
3050.64	0.7816
3059.54	0.7371
3068.44	0.6888
3077.35	0.6967
3086.25	0.7658
3095.15	0.8569
3104.06	0.9015
3112.96	0.9174
3121.87	0.931
3130.77	0.932
3139.67	0.932
3148.58	0.9314
3157.48	0.928
3166.38	0.925
3175.29	0.9317
3184.19	0.9358
3193.1	0.939
3202	0.9482
3210.9	0.9568
3219.81	0.9619
3228.71	0.965
3237.61	0.968
3246.52	0.966
3255.42	0.966
3264.33	0.966
3273.23	0.9658
3282.13	0.965
3291.04	0.9666
3299.94	0.9723
3308.84	0.973
3317.75	0.973
3326.65	0.972
3335.56	0.9655
3344.46	0.9539
3353.36	0.9367
3362.27	0.925
3371.17	0.934
3380.07	0.9569
3388.98	0.9713
3397.88	0.9786
3406.78	0.98
3415.69	0.98
3424.59	0.98
3433.5	0.979
3442.4	0.976
3451.3	0.976
3460.21	0.976
3469.11	0.976
3478.01	0.972
3486.92	0.9688
3495.82	0.968
3504.73	0.971
3513.63	0.973
3522.53	0.976
3531.44	0.977
3540.34	0.977
3549.24	0.977
3558.15	0.979
3567.05	0.979
3575.96	0.9723
3584.86	0.9757
3593.76	0.977
3602.67	0.975
3611.57	0.9758
3620.47	0.98
3629.38	0.98
3638.28	0.98
3647.19	0.98
3656.09	0.98
3664.99	0.9769
3673.9	0.9694
3682.8	0.9728
3691.7	0.975
3700.61	0.977
3709.51	0.977
3718.42	0.9783
3727.32	0.977
3736.22	0.977
3745.13	0.977
3754.03	0.977
3762.93	0.979
3771.84	0.979
3780.74	0.979
3789.64	0.979
3798.55	0.979
