Infrared Spectrum: Ethyl thiopropionate
Formula: C 5 H 10 O S
CAS: 2432-42-0
State: gas
Origin: EPA-IR VAPOR PHASE LIBRARY
1/CM	ABSORBANCE
549.9	0.0055
559.547	0.00761
569.193	0.01127
578.84	0.01685
588.486	0.02125
598.133	0.0199
607.779	0.01388
617.426	0.00825
627.072	0.00511
636.719	0.00389
646.365	0.00324
656.012	0.00352
665.658	0.0046
675.305	0.00656
684.951	0.00943
694.598	0.01324
704.245	0.01651
713.891	0.01632
723.538	0.01213
733.184	0.00637
742.831	0.00401
752.477	0.00357
762.124	0.00342
771.77	0.00359
781.417	0.0036
791.063	0.00336
800.71	0.00299
810.356	0.0026
820.003	0.00247
829.649	0.00254
839.296	0.00265
848.943	0.00288
858.589	0.00315
868.236	0.0039
877.882	0.00529
887.529	0.00828
897.175	0.01505
906.822	0.03359
916.468	0.07796
926.115	0.12042
935.761	0.11514
945.408	0.06386
955.054	0.02733
964.701	0.02005
974.347	0.01949
983.994	0.02031
993.64	0.02523
1003.29	0.03623
1012.93	0.04303
1022.58	0.03915
1032.23	0.0304
1041.87	0.02915
1051.52	0.03087
1061.17	0.0298
1070.81	0.02621
1080.46	0.02582
1090.11	0.02789
1099.75	0.02942
1109.4	0.03208
1119.05	0.03774
1128.69	0.04148
1138.34	0.03566
1147.99	0.02302
1157.63	0.01301
1167.28	0.00822
1176.92	0.00595
1186.57	0.00471
1196.22	0.00418
1205.86	0.00434
1215.51	0.00494
1225.16	0.00583
1234.8	0.00698
1244.45	0.00933
1254.1	0.01661
1263.74	0.02383
1273.39	0.02169
1283.04	0.01221
1292.68	0.00721
1302.33	0.00637
1311.98	0.00754
1321.62	0.00927
1331.27	0.0097
1340.92	0.0083
1350.56	0.00627
1360.21	0.00611
1369.86	0.00788
1379.5	0.01046
1389.15	0.01169
1398.79	0.01149
1408.44	0.01261
1418.09	0.01505
1427.73	0.01728
1437.38	0.01853
1447.03	0.01974
1456.67	0.02177
1466.32	0.02015
1475.97	0.01551
1485.61	0.00918
1495.26	0.00612
1504.91	0.00446
1514.55	0.00362
1524.2	0.00307
1533.85	0.00264
1543.49	0.0023245
1553.14	0.0021962
1562.79	0.0021385
1572.43	0.0021321
1582.08	0.0022142
1591.73	0.0023828
1601.37	0.00268
1611.02	0.00311
1620.67	0.00366
1630.31	0.00434
1639.96	0.00543
1649.6	0.00747
1659.25	0.01155
1668.9	0.02021
1678.54	0.04101
1688.19	0.0858
1697.84	0.15914
1707.48	0.19601
1717.13	0.17628
1726.78	0.09055
1736.42	0.03463
1746.07	0.01383
1755.72	0.00742
1765.36	0.00494
1775.01	0.00373
1784.66	0.00306
1794.3	0.00256
1803.95	0.0021809
1813.6	0.0018688
1823.24	0.0017907
1832.89	0.0018018
1842.54	0.0018888
1852.18	0.0019337
1861.83	0.0018775
1871.47	0.001707
1881.12	0.00151028
1890.77	0.001295
1900.41	0.00124
1910.06	0.001306
1919.71	0.001304
1929.35	0.0014356
1939	0.0014014
1948.65	0.001344
1958.29	0.001129
1967.94	0.000969
1977.59	0.000858
1987.23	0.000905
1996.88	0.000979
2006.53	0.00095
2016.17	0.000927
2025.82	0.000869
2035.47	0.000749
2045.11	0.000796
2054.76	0.000758
2064.41	0.000664
2074.05	0.000684
2083.7	0.000665
2093.35	0.000677
2102.99	0.000676
2112.64	0.000672
2122.28	0.000646
2131.93	0.000717
2141.58	0.000833
2151.22	0.000845
2160.87	0.000847
2170.52	0.00083
2180.16	0.000842
2189.81	0.000813
2199.46	0.000807
2209.1	0.000851
2218.75	0.00088
2228.4	0.000896
2238.04	0.000885
2247.69	0.000905
2257.34	0.000799
2266.98	0.000749
2276.63	0.000752
2286.28	0.000751
2295.92	0.000815
2305.57	0.000867
2315.22	0.000912
2324.86	0.000874
2334.51	0.000911
2344.16	0.000879
2353.8	0.000875
2363.45	0.000829
2373.09	0.000798
2382.74	0.00083
2392.39	0.000827
2402.03	0.000779
2411.68	0.000803
2421.33	0.000874
2430.97	0.000983
2440.62	0.000997
2450.27	0.000826
2459.91	0.000721
2469.56	0.000661
2479.21	0.00069
2488.85	0.00063
2498.5	0.000603
2508.15	0.000568
2517.79	0.000553
2527.44	0.000467
2537.09	0.000478
2546.73	0.00033
2556.38	0.00032
2566.03	0.00042
2575.67	0.00038
2585.32	0.00036
2594.96	0.00039
2604.61	0.000452
2614.26	0.000499
2623.9	0.000595
2633.55	0.000677
2643.2	0.00067
2652.84	0.000589
2662.49	0.000601
2672.14	0.000664
2681.78	0.000791
2691.43	0.00095
2701.08	0.001085
2710.72	0.001067
2720.37	0.001181
2730.02	0.001323
2739.66	0.0016856
2749.31	0.0018177
2758.96	0.0015577
2768.6	0.00144991
2778.25	0.001314
2787.9	0.0016092
2797.54	0.0018976
2807.19	0.00271
2816.84	0.00339
2826.48	0.00426
2836.13	0.00496
2845.77	0.00563
2855.42	0.00697
2865.07	0.0099
2874.71	0.01624
2884.36	0.02515
2894.01	0.02804
2903.65	0.02587
2913.3	0.02572
2922.95	0.03203
2932.59	0.05046
2942.24	0.06536
2951.89	0.06261
2961.53	0.05093
2971.18	0.05623
2980.83	0.06608
2990.47	0.05949
3000.12	0.04038
3009.77	0.02391
3019.41	0.01426
3029.06	0.00862
3038.71	0.0055
3048.35	0.00412
3058	0.00335
3067.64	0.00289
3077.29	0.0024226
3086.94	0.0021432
3096.58	0.001961
3106.23	0.001936
3115.88	0.0017636
3125.52	0.0016956
3135.17	0.001662
3144.82	0.001317
3154.46	0.001327
3164.11	0.001248
3173.76	0.001189
3183.4	0.001146
3193.05	0.000908
3202.7	0.000771
3212.34	0.00037
3221.99	0.00041
3231.64	0.00021
3241.28	0.00023
3250.93	9e-05
3260.58	0
3270.22	0.00019
3279.87	0.00016
3289.52	0.0004
3299.16	0.00045
3308.81	0.00023
3318.45	0.00032
3328.1	0.000477
3337.75	0.00044
3347.39	0.000591
3357.04	0.000736
3366.69	0.001226
3376.33	0.0019887
3385.98	0.00287
3395.63	0.00327
3405.27	0.00305
3414.92	0.0017177
3424.57	0.000912
3434.21	0.000622
3443.86	0.000559
3453.51	0.00032
3463.15	0.00031
3472.8	0.00016
3482.45	0.00024
3492.09	0.00028
3501.74	0.00032
3511.39	0.00024
3521.03	0.00027
3530.68	0.00024
3540.33	0.00026
3549.97	0.00037
3559.62	0.00031
3569.26	0.00028
3578.91	0.00025
3588.56	0.00041
3598.2	0.00035
3607.85	0.00029
3617.5	0.00034
3627.14	0.00042
3636.79	0.00038
3646.44	0.00044
3656.08	0.000502
3665.73	0.00036
3675.38	0.0004
3685.02	0.000484
3694.67	0.000461
3704.32	0.000528
3713.96	0.000478
3723.61	0.000462
3733.26	0.000479
3742.9	0.000467
3752.55	0.000561
3762.2	0.00037
3771.84	0.000555
3781.49	0.000552
3791.13	0.00043
3800.78	0.00043
3810.43	0.00043
3820.07	0.000593
3829.72	0.000466
3839.37	0.000529
3849.01	0.000591
3858.66	0.000543
3868.31	0.000608
3877.95	0.000762
3887.6	0.000573
3897.25	0.000765
3906.89	0.000767
3916.54	0.000804
3926.19	0.000787
3935.83	0.000752
3945.48	0.000904
3955.13	0.00094
3964.77	0.000804
3974.42	0.001088
3984.07	0.001043
3993.71	0.001252
