Infrared Spectrum: 2-Methyldecanoic acid
Formula: C 11 H 22 O 2
CAS: 24323-23-7
State: gas
Instrument: HP-GC/MS/IRD
Origin: NIST Mass Spectrometry Data Center
1/CM	ABSORBANCE
550	0.0020784
562	0.0021472
574	0.0028096
586	0.0031536
598	0.0025808
610	0.0020384
622	0.0015568
634	0.001008
646	0.0005104
658	0.0002368
670	0.000184
682	0.0002016
694	0.0003136
706	0.0004784
718	0.0007056
730	0.0008
742	0.0008736
754	0.0008368
766	0.0007616
778	0.0006288
790	0.000456
802	0.0003296
814	0.0001824
826	0.0001392
838	0.000128
850	0.0001024
862	0.0001024
874	0.0001008
886	6.24e-05
898	6.4e-05
910	6.08e-05
922	8.64e-05
934	9.44e-05
946	1.28e-05
958	7.36e-05
970	0.000112
982	0.0002496
994	0.0004112
1006	0.0006976
1018	0.0008864
1030	0.0011728
1042	0.0014944
1054	0.0018816
1066	0.0025696
1078	0.0036112
1090	0.0050816
1102	0.006624
1114	0.0061872
1126	0.004968
1138	0.0041408
1150	0.0035216
1162	0.002888
1174	0.0024032
1186	0.0018304
1198	0.0012432
1210	0.0008272
1222	0.000592
1234	0.0004576
1246	0.0004096
1258	0.000512
1270	0.0006784
1282	0.0007776
1294	0.0009232
1306	0.0009568
1318	0.0008592
1330	0.0008336
1342	0.0009648
1354	0.001112
1366	0.001184
1378	0.001336
1390	0.0012864
1402	0.00084
1414	0.0005664
1426	0.0005184
1438	0.0007584
1450	0.001448
1462	0.0021184
1474	0.0015024
1486	0.0005968
1498	0.0002784
1510	0.000192
1522	0.0001424
1534	0.0001072
1546	8e-05
1558	7.52e-05
1570	7.04e-05
1582	7.36e-05
1594	4.8e-05
1606	3.36e-05
1618	5.12e-05
1630	6.08e-05
1642	5.92e-05
1654	7.84e-05
1666	0.000104
1678	0.0001392
1690	0.0002048
1702	0.0003472
1714	0.0006624
1726	0.0014112
1738	0.0026976
1750	0.0047584
1762	0.0093824
1774	0.012784
1786	0.0064416
1798	0.003272
1810	0.0014704
1822	0.0006256
1834	0.0003264
1846	0.0002016
1858	0.0001568
1870	0.00012
1882	0.0001008
1894	8.64e-05
1906	8.16e-05
1918	6.4e-05
1930	5.12e-05
1942	4.96e-05
1954	1.6e-05
1966	2.88e-05
1978	1.6e-06
1990	1.6e-06
2002	2.08e-05
2014	2.24e-05
2026	2.08e-05
2038	4e-05
2050	3.84e-05
2062	3.36e-05
2074	2.72e-05
2086	1.6e-05
2098	2.24e-05
2110	2.88e-05
2122	2.24e-05
2134	2.72e-05
2146	3.2e-05
2158	5.44e-05
2170	5.12e-05
2182	5.92e-05
2194	4.48e-05
2206	4.8e-05
2218	3.84e-05
2230	3.84e-05
2242	1.76e-05
2254	3.36e-05
2266	9.6e-06
2278	4.96e-05
2290	1.76e-05
2302	3.68e-05
2314	2.08e-05
2326	5.28e-05
2338	6.72e-05
2350	4e-05
2362	8.96e-05
2374	5.44e-05
2386	4.16e-05
2398	1.6e-05
2410	8e-06
2422	2.4e-05
2434	3.52e-05
2446	1.28e-05
2458	4e-05
2470	3.36e-05
2482	3.2e-05
2494	2.4e-05
2506	2.24e-05
2518	2.08e-05
2530	2.24e-05
2542	4.96e-05
2554	4.8e-05
2566	3.52e-05
2578	2.88e-05
2590	4.64e-05
2602	4.16e-05
2614	6.08e-05
2626	6.88e-05
2638	8.8e-05
2650	8e-05
2662	0.0001216
2674	0.0001184
2686	0.0001168
2698	9.92e-05
2710	0.0001104
2722	0.00012
2734	0.00016
2746	0.0001408
2758	0.0001808
2770	0.000192
2782	0.0002448
2794	0.0003248
2806	0.0004576
2818	0.0006368
2830	0.00092
2842	0.0016272
2854	0.0037344
2866	0.0059984
2878	0.0051168
2890	0.0043824
2902	0.0048768
2914	0.0076064
2926	0.0134016
2938	0.0157584
2950	0.0109904
2962	0.0077456
2974	0.006416
2986	0.0045328
2998	0.0021888
3010	0.0010336
3022	0.0006448
3034	0.0004832
3046	0.0003504
3058	0.000328
3070	0.000256
3082	0.0002112
3094	0.0001856
3106	0.0001296
3118	0.000152
3130	0.000136
3142	0.0001248
3154	8.48e-05
3166	0.0001072
3178	0.0001216
3190	7.2e-05
3202	9.28e-05
3214	3.04e-05
3226	3.84e-05
3238	3.52e-05
3250	5.92e-05
3262	2.88e-05
3274	7.04e-05
3286	6.56e-05
3298	9.6e-06
3310	5.44e-05
3322	7.52e-05
3334	5.44e-05
3346	5.76e-05
3358	6.4e-05
3370	4.48e-05
3382	2.72e-05
3394	3.36e-05
3406	4.16e-05
3418	5.44e-05
3430	5.92e-05
3442	5.44e-05
3454	5.92e-05
3466	5.76e-05
3478	8.64e-05
3490	0.0001024
3502	0.0001568
3514	0.00016
3526	0.0002336
3538	0.0003392
3550	0.0006176
3562	0.002024
3574	0.004592
3586	0.0016352
3598	0.0004064
3610	0.0002336
3622	0.0001728
3634	0.0001616
3646	0.0001584
3658	0.0001056
3670	0.0001312
3682	0.0001056
3694	0.0001152
3706	7.04e-05
3718	0.0001056
3730	9.92e-05
3742	9.76e-05
3754	0.0001088
3766	9.6e-05
3778	9.44e-05
3790	0.000104
3802	0.0001088
3814	0.0001168
3826	0.0001104
3838	0.0001072
