Infrared Spectrum: 2-Methylundecanoic acid
Formula: C 12 H 24 O 2
CAS: 24323-25-9
State: gas
Instrument: HP-GC/MS/IRD
Origin: NIST Mass Spectrometry Data Center
1/CM	ABSORBANCE
550	0.0019201
562	0.0015288
574	0.0018486
586	0.0021723
598	0.0017914
610	0.0013949
622	0.0011076
634	0.0006526
646	0.000338
658	0.0002483
670	0.0002808
682	0.0002431
694	0.0002275
706	0.0003601
718	0.0005733
730	0.0005603
742	0.0006344
754	0.0006669
766	0.0005694
778	0.0004875
790	0.0003757
802	0.0002847
814	0.0001963
826	0.0001261
838	8.97e-05
850	9.36e-05
862	0.0001144
874	0.0001001
886	8.58e-05
898	0.00013
910	9.62e-05
922	0.0001092
934	5.98e-05
946	2.6e-05
958	5.85e-05
970	0.0001105
982	0.0001846
994	0.0003445
1006	0.0005304
1018	0.000663
1030	0.0007995
1042	0.0010764
1054	0.0013741
1066	0.0018161
1078	0.0025233
1090	0.0036088
1102	0.0046631
1114	0.0044005
1126	0.0035113
1138	0.0029601
1150	0.0025103
1162	0.0020215
1174	0.0017394
1186	0.0014261
1198	0.0009789
1210	0.0007007
1222	0.0005057
1234	0.0003913
1246	0.0003224
1258	0.0003848
1270	0.0004732
1282	0.0005512
1294	0.00065
1306	0.0006903
1318	0.0006097
1330	0.0006045
1342	0.0006981
1354	0.0008411
1366	0.0008697
1378	0.0009503
1390	0.0009191
1402	0.0005941
1414	0.0004251
1426	0.0003796
1438	0.0005694
1450	0.0010738
1462	0.0015925
1474	0.001105
1486	0.000416
1498	0.0002184
1510	0.0001417
1522	0.0001144
1534	7.8e-05
1546	8.06e-05
1558	4.94e-05
1570	5.72e-05
1582	6.11e-05
1594	4.81e-05
1606	6.5e-05
1618	4.55e-05
1630	7.54e-05
1642	4.81e-05
1654	8.58e-05
1666	8.32e-05
1678	0.0001326
1690	0.0001729
1702	0.0002873
1714	0.0004953
1726	0.0010231
1738	0.0018889
1750	0.0033111
1762	0.006474
1774	0.0088101
1786	0.0044421
1798	0.0022659
1810	0.0010517
1822	0.0004862
1834	0.0002717
1846	0.0001638
1858	0.0001209
1870	9.62e-05
1882	8.19e-05
1894	5.33e-05
1906	5.59e-05
1918	4.94e-05
1930	2.47e-05
1942	3.38e-05
1954	3.64e-05
1966	2.08e-05
1978	2.34e-05
1990	3.25e-05
2002	1.04e-05
2014	3.38e-05
2026	3.25e-05
2038	3.9e-05
2050	3.25e-05
2062	3.12e-05
2074	1.95e-05
2086	2.34e-05
2098	1.82e-05
2110	1.04e-05
2122	2.21e-05
2134	7.8e-06
2146	4.16e-05
2158	3.9e-05
2170	4.42e-05
2182	4.81e-05
2194	3.51e-05
2206	5.59e-05
2218	4.42e-05
2230	5.85e-05
2242	1.43e-05
2254	2.99e-05
2266	2.86e-05
2278	4.81e-05
2290	4.29e-05
2302	4.94e-05
2314	8.32e-05
2326	0.0001027
2338	0.0001079
2350	8.58e-05
2362	0.0001248
2374	8.84e-05
2386	3.9e-05
2398	3.12e-05
2410	3.12e-05
2422	5.07e-05
2434	1.95e-05
2446	1.3e-05
2458	2.34e-05
2470	3.77e-05
2482	3.51e-05
2494	2.99e-05
2506	4.16e-05
2518	5.33e-05
2530	5.2e-05
2542	6.24e-05
2554	6.37e-05
2566	7.93e-05
2578	6.37e-05
2590	7.41e-05
2602	8.58e-05
2614	8.58e-05
2626	0.0001053
2638	0.0001443
2650	0.0001053
2662	0.0001391
2674	0.0001391
2686	0.0001521
2698	0.0001352
2710	0.000117
2722	0.0001521
2734	0.0001898
2746	0.0001885
2758	0.0001872
2770	0.0001898
2782	0.0002561
2794	0.0003549
2806	0.000429
2818	0.0005655
2830	0.0008229
2842	0.0013429
2854	0.0031005
2866	0.0048984
2878	0.0039
2890	0.0033748
2902	0.0038155
2914	0.0060424
2926	0.0109343
2938	0.0125957
2950	0.0083278
2962	0.0056407
2974	0.0045825
2986	0.003315
2998	0.0016133
3010	0.0007943
3022	0.0005551
3034	0.0004199
3046	0.0003588
3058	0.0003068
3070	0.0002431
3082	0.0001911
3094	0.0001963
3106	0.0001911
3118	0.0001807
3130	0.0001976
3142	0.0001443
3154	0.00013
3166	0.0001391
3178	0.0001261
3190	0.0001053
3202	0.000117
3214	0.0001092
3226	0.0001105
3238	9.1e-05
3250	5.07e-05
3262	5.59e-05
3274	8.19e-05
3286	5.46e-05
3298	4.55e-05
3310	5.33e-05
3322	1.82e-05
3334	6.37e-05
3346	4.16e-05
3358	8.32e-05
3370	3.38e-05
3382	7.15e-05
3394	3.12e-05
3406	6.63e-05
3418	5.72e-05
3430	3.77e-05
3442	3.12e-05
3454	5.33e-05
3466	6.89e-05
3478	7.93e-05
3490	0.0001118
3502	7.41e-05
3514	0.0001222
3526	0.0001339
3538	0.0002483
3550	0.0004056
3562	0.0014053
3574	0.0031798
3586	0.0011076
3598	0.0003276
3610	0.0001235
3622	9.49e-05
3634	9.62e-05
3646	8.84e-05
3658	2.08e-05
3670	7.15e-05
3682	1.69e-05
3694	6.37e-05
3706	5.46e-05
3718	3.64e-05
3730	4.42e-05
3742	7.93e-05
3754	3.38e-05
3766	4.81e-05
3778	6.24e-05
3790	3.9e-05
3802	4.55e-05
3814	6.11e-05
3826	4.68e-05
3838	9.1e-05
