Infrared Spectrum: Bicyclo[2.2.2]-5-octene-2,3-dicarboxylic anhydride
Formula: C 10 H 10 O 3
CAS: 24327-08-0
State: gas
Origin: EPA-IR VAPOR PHASE LIBRARY
1/CM	ABSORBANCE
549.8	0.0008486
559.445	0.001921
569.09	0.003871
578.734	0.013731
588.379	0.017481
598.024	0.009061
607.669	0.004121
617.313	0.005251
626.958	0.003741
636.603	0.001871
646.248	0.0013012
655.893	0.001521
665.537	0.004511
675.182	0.017941
684.827	0.019671
694.472	0.007071
704.116	0.003701
713.761	0.013091
723.406	0.024361
733.051	0.015471
742.695	0.004681
752.34	0.004021
761.985	0.006561
771.63	0.014241
781.275	0.015021
790.919	0.006821
800.564	0.002981
810.209	0.001991
819.854	0.002621
829.498	0.005811
839.143	0.011321
848.788	0.015801
858.433	0.013931
868.078	0.009291
877.722	0.007941
887.367	0.018151
897.012	0.051991
906.657	0.091031
916.301	0.070331
925.946	0.037561
935.591	0.066121
945.236	0.119571
954.88	0.094711
964.525	0.032291
974.17	0.014051
983.815	0.013301
993.46	0.009121
1003.1	0.006241
1012.75	0.005811
1022.39	0.005421
1032.04	0.005961
1041.68	0.007721
1051.33	0.011641
1060.97	0.023341
1070.62	0.053131
1080.26	0.081541
1089.91	0.071661
1099.55	0.039361
1109.2	0.020361
1118.84	0.009361
1128.49	0.004691
1138.13	0.005221
1147.78	0.007051
1157.42	0.007361
1167.07	0.010581
1176.71	0.012371
1186.36	0.012731
1196	0.021991
1205.64	0.048781
1215.29	0.080611
1224.93	0.089541
1234.58	0.080721
1244.22	0.059181
1253.87	0.034301
1263.51	0.017821
1273.16	0.010991
1282.8	0.010901
1292.45	0.011591
1302.09	0.008381
1311.74	0.005771
1321.38	0.006731
1331.03	0.006231
1340.67	0.005191
1350.32	0.005831
1359.96	0.005571
1369.61	0.006161
1379.25	0.005951
1388.9	0.004161
1398.54	0.002881
1408.18	0.002191
1417.83	0.001881
1427.47	0.001811
1437.12	0.002121
1446.76	0.003381
1456.41	0.005071
1466.05	0.006561
1475.7	0.004501
1485.34	0.002351
1494.99	0.002221
1504.63	0.002271
1514.28	0.002391
1523.92	0.002541
1533.57	0.002171
1543.21	0.001741
1552.86	0.001421
1562.5	0.0012932
1572.15	0.001361
1581.79	0.0012374
1591.44	0.001371
1601.08	0.001721
1610.73	0.002451
1620.37	0.002871
1630.01	0.002551
1639.66	0.001811
1649.3	0.001961
1658.95	0.002981
1668.59	0.003591
1678.24	0.003421
1687.88	0.003591
1697.53	0.004041
1707.17	0.004241
1716.82	0.004721
1726.46	0.005991
1736.11	0.007601
1745.75	0.008991
1755.4	0.014141
1765.04	0.027261
1774.69	0.060171
1784.33	0.171321
1793.98	0.321651
1803.62	0.303621
1813.27	0.168511
1822.91	0.096491
1832.55	0.059391
1842.2	0.048151
1851.84	0.042731
1861.49	0.043621
1871.13	0.057221
1880.78	0.060001
1890.42	0.036721
1900.07	0.016631
1909.71	0.007571
1919.36	0.004351
1929	0.003031
1938.65	0.002491
1948.29	0.002121
1957.94	0.002001
1967.58	0.002171
1977.23	0.002371
1986.87	0.002481
1996.52	0.002571
2006.16	0.002931
2015.81	0.002651
2025.45	0.002051
2035.1	0.001551
2044.74	0.0012516
2054.38	0.0011109
2064.03	0.0011839
2073.67	0.0011617
2083.32	0.0013002
2092.96	0.0012545
2102.61	0.001531
2112.25	0.001821
2121.9	0.002241
2131.54	0.002541
2141.19	0.002741
2150.83	0.002831
2160.48	0.002941
2170.12	0.002871
2179.77	0.002431
2189.41	0.001961
2199.06	0.001661
2208.7	0.001341
2218.35	0.0011394
2227.99	0.0009598
2237.64	0.0009242
2247.28	0.0010714
2256.92	0.0010314
2266.57	0.0012394
2276.21	0.001242
2285.86	0.001571
2295.5	0.001811
2305.15	0.001811
2314.79	0.001581
2324.44	0.001421
2334.08	0.0012391
2343.73	0.0009758
2353.37	0.0009041
2363.02	0.0009094
2372.66	0.0009554
2382.31	0.0008534
2391.95	0.0008993
2401.6	0.0009416
2411.24	0.0008811
2420.89	0.0010296
2430.53	0.0009523
2440.18	0.0009761
2449.82	0.0008267
2459.47	0.0008372
2469.11	0.000692
2478.75	0.0006222
2488.4	0.0007405
2498.04	0.000699
2507.69	0.0006706
2517.33	0.0006146
2526.98	0.0005504
2536.62	0.0005495
2546.27	0.0006757
2555.91	0.0004798
2565.56	0.0005265
2575.2	0.0004899
2584.85	0.0004174
2594.49	0.0004951
2604.14	0.0005745
2613.78	0.0006213
2623.43	0.0006922
2633.07	0.0006483
2642.72	0.0006451
2652.36	0.0006219
2662.01	0.00042092
2671.65	0.0005338
2681.29	0.0005156
2690.94	0.0005762
2700.58	0.0007292
2710.23	0.0006113
2719.87	0.0005985
2729.52	0.0004616
2739.16	0.0005498
2748.81	0.0004399
2758.45	0.0005368
2768.1	0.0006529
2777.74	0.0008003
2787.39	0.0006326
2797.03	0.0006657
2806.68	0.0009336
2816.32	0.0009382
2825.97	0.0010653
2835.61	0.0009728
2845.26	0.0012959
2854.9	0.001981
2864.55	0.006061
2874.19	0.020651
2883.84	0.025511
2893.48	0.011751
2903.12	0.006341
2912.77	0.010841
2922.41	0.015991
2932.06	0.024511
2941.7	0.037191
2951.35	0.041841
2960.99	0.054901
2970.64	0.060331
2980.28	0.040461
2989.93	0.015781
2999.57	0.003591
3009.22	0.001931
3018.86	0.001551
3028.51	0.0011773
3038.15	0.001511
3047.8	0.003041
3057.44	0.008551
3067.09	0.014031
3076.73	0.006601
3086.38	0.001641
3096.02	0.0007167
3105.67	0.0007362
3115.31	0.0006939
3124.95	0.0006703
3134.6	0.0005745
3144.24	0.0006165
3153.89	0.0005305
3163.53	0.0007154
3173.18	0.0007332
3182.82	0.0008467
3192.47	0.0007393
3202.11	0.0007709
3211.76	0.000576
3221.4	0.0005641
3231.05	0.000205
3240.69	0.000116
3250.34	0.00027
3259.98	0.000211
3269.63	0.00033775
3279.27	0.0002513
3288.92	0.00038371
3298.56	0.000168
3308.21	0.000188
3317.85	0.00038537
3327.49	0.0005073
3337.14	0.0003017
3346.78	0.00037372
3356.43	0.00039112
3366.07	0.0002325
3375.72	0.000127
3385.36	0.000323423
3395.01	0.00033325
3404.65	0.0002771
3414.3	0.0002937
3423.94	0.0002395
3433.59	0.0002964
3443.23	0.0002296
3452.88	0.0002535
3462.52	0.0002473
3472.17	0.0004742
3481.81	0.00038621
3491.46	0.000151
3501.1	0.0003154
3510.75	0.00038806
3520.39	0.0004673
3530.04	0.000131
3539.68	0.0005625
3549.32	0.000468
3558.97	0.0007026
3568.61	0.0009902
3578.26	0.001341
3587.9	0.001541
3597.55	0.001691
3607.19	0.001671
3616.84	0.002301
3626.48	0.002551
3636.13	0.003221
3645.77	0.003421
3655.42	0.003181
3665.06	0.002601
3674.71	0.001921
3684.35	0.0013104
3694	0.0010869
3703.64	0.0010637
3713.29	0.0010567
3722.93	0.0008254
3732.58	0.0008179
3742.22	0.0007942
3751.86	0.0006795
3761.51	0.0007859
3771.15	0.0006026
3780.8	0.0004691
3790.44	0.000701
3800.09	0.0005553
3809.73	0.000495
3819.38	0.0005992
3829.02	0.00040619
3838.67	0.00032752
3848.31	0.0005185
3857.96	0.00037388
3867.6	0.00034565
3877.25	0.0006234
3886.89	0.00031164
3896.54	0.0003691
3906.18	0.00022
3915.83	0.00038819
3925.47	0.0002491
3935.12	0.0003059
3944.76	0.0005526
3954.41	0.0007769
3964.05	0.0006377
3973.69	0.000593
3983.34	0.000767
3992.98	0.0007001
