Infrared Spectrum: Dioctyl sebacate
Formula: C26 H50 O4
CAS: 2432-87-3
State: SOLUTION (10% CCl4 FOR 2.7-7.5, CS2 FOR 7.5-26 MICRON) VS SOLVENT
Class: COBLENTZ III
Instrument: DOW KBr FOREPRISM-GRATING
Instrument parameters: BLAZED AT 3.5, 12.0, 20.0 MICRON AND CHANGED AT 5.0, 7.5, 14.9 MICRON
Sampling: TRANSMISSION
Path length: 0.011 CM, 0.011 CM
Resolution: 2
Origin: DOW CHEMICAL COMPANY
1/CM	TRANSMITTANCE
3792	0.8612
3783	0.8613
3774	0.8614
3765	0.8615
3756	0.8618
3747	0.8623
3738	0.8628
3729	0.8634
3720	0.8633
3711	0.8633
3702	0.8632
3693	0.8632
3684	0.8635
3675	0.8637
3666	0.864
3657	0.8641
3648	0.8642
3639	0.8643
3630	0.8647
3621	0.8656
3612	0.8665
3603	0.8675
3594	0.8688
3585	0.8706
3576	0.8746
3567	0.8782
3558	0.8781
3549	0.8782
3540	0.8788
3531	0.8793
3522	0.8799
3513	0.8804
3504	0.8813
3495	0.8823
3486	0.8834
3477	0.8845
3468	0.8852
3459	0.8851
3450	0.8785
3441	0.8704
3432	0.8662
3423	0.866
3414	0.8706
3405	0.8798
3396	0.8889
3387	0.893
3378	0.8947
3369	0.8951
3360	0.8955
3351	0.8955
3342	0.8952
3333	0.8949
3324	0.8947
3315	0.8949
3306	0.8953
3297	0.8956
3288	0.8958
3279	0.8957
3270	0.8956
3261	0.8952
3252	0.8944
3243	0.8931
3234	0.8914
3225	0.8892
3216	0.8863
3207	0.8834
3198	0.8823
3189	0.8816
3180	0.8813
3171	0.881
3162	0.8808
3153	0.8805
3144	0.8799
3135	0.8793
3126	0.8785
3117	0.8762
3108	0.8739
3099	0.8704
3090	0.867
3081	0.8612
3072	0.8546
3063	0.8475
3054	0.8413
3045	0.8331
3036	0.8225
3027	0.8092
3018	0.7875
3009	0.7436
3000	0.6217
2991	0.4459
2982	0.218
2973	0.154
2964	0.0856
2955	0.0629
2946	0.0513
2937	0.0249
2928	0.0169
2919	0.0197
2910	0.0962
2901	0.1999
2892	0.3035
2883	0.3573
2874	0.1674
2865	0.0664
2856	0.0721
2847	0.3161
2838	0.5336
2829	0.6127
2820	0.6745
2811	0.7257
2802	0.7604
2793	0.7838
2784	0.8019
2775	0.8142
2766	0.8225
2757	0.8288
2748	0.8302
2739	0.8261
2730	0.8223
2721	0.8221
2712	0.8241
2703	0.8262
2694	0.8299
2685	0.8303
2676	0.8302
2667	0.831
2658	0.8328
2649	0.8348
2640	0.8368
2631	0.839
2622	0.8412
2613	0.8432
2604	0.8448
2595	0.8464
2586	0.848
2577	0.8496
2568	0.8512
2559	0.8528
2550	0.8548
2541	0.8566
2532	0.8585
2523	0.8601
2514	0.8609
2505	0.8617
2496	0.8625
2487	0.8638
2478	0.865
2469	0.8661
2460	0.8671
2451	0.8677
2442	0.8683
2433	0.8687
2424	0.8674
2415	0.8655
2406	0.8636
2397	0.8618
2388	0.8607
2379	0.8603
2370	0.8603
2361	0.8606
2352	0.8611
2343	0.8611
2334	0.8603
2325	0.8593
2316	0.8557
2307	0.8541
2298	0.8547
2289	0.8553
2280	0.8564
2271	0.8575
2262	0.8589
2253	0.8602
2244	0.8615
2235	0.8627
2226	0.8643
2217	0.8661
2208	0.8681
2199	0.8693
2190	0.8713
2181	0.8806
2172	0.8766
2163	0.8757
2154	0.875
2145	0.8744
2136	0.8742
2127	0.874
2118	0.8739
2109	0.8736
2100	0.8734
2091	0.873
2082	0.8721
2073	0.8702
2064	0.8671
2055	0.8652
2046	0.8636
2037	0.8632
2028	0.8628
2019	0.8631
2010	0.8636
2001	0.8641
1992	0.8653
1983	0.8668
1974	0.8678
1965	0.8683
1956	0.8683
1947	0.8682
1938	0.8682
1929	0.8681
1920	0.8681
1911	0.8677
1902	0.8668
1893	0.866
1884	0.8655
1875	0.865
1866	0.8635
1857	0.8615
1848	0.8593
1839	0.8568
1830	0.8531
1821	0.8483
1812	0.8414
1803	0.8344
1794	0.8262
1785	0.8155
1776	0.8008
1767	0.776
1758	0.7336
1749	0.4973
1740	0.1632
1731	0.0057
1722	0.0044
1713	0.1826
1704	0.5207
1695	0.6335
1686	0.6876
1677	0.7375
1668	0.7715
1659	0.8011
1650	0.8144
1641	0.8245
1632	0.8323
1623	0.8387
1614	0.8435
1605	0.848
1596	0.8521
1587	0.8553
1578	0.8545
1569	0.8544
1560	0.8558
1551	0.8575
1542	0.8578
1533	0.8511
1524	0.8438
1515	0.8371
1506	0.8253
1497	0.8099
1488	0.7884
1479	0.7443
1470	0.2532
1461	0.284
1452	0.4036
1443	0.5288
1434	0.5887
1425	0.6182
1416	0.6492
1407	0.7268
1398	0.7225
1389	0.5046
1380	0.2284
1371	0.3825
1362	0.4391
1353	0.5008
1344	0.4767
1335	0.4457
1326	0.5106
1317	0.492
1308	0.4693
1299	0.4495
1290	0.455
1281	0.4426
1272	0.3721
1263	0.3206
1254	0.2627
1245	0.2487
1236	0.2876
1227	0.2934
1218	0.2888
1209	0.2614
1200	0.2162
1191	0.1736
1182	0.1313
1173	0.1316
1164	0.2355
1155	0.3416
1146	0.3414
1137	0.3666
1128	0.2248
1119	0.1379
1110	0.3516
1101	0.4276
1092	0.4251
1083	0.4237
1074	0.4812
1065	0.5142
1056	0.5186
1047	0.5268
1038	0.5225
1029	0.5316
1020	0.6054
1011	0.6574
1002	0.6641
993	0.6921
984	0.7167
975	0.6975
966	0.6768
957	0.6946
948	0.6834
939	0.696
930	0.7519
921	0.7761
912	0.7861
903	0.7943
894	0.7968
885	0.7868
876	0.7821
867	0.7851
858	0.7958
849	0.7974
840	0.7699
831	0.7795
822	0.8275
813	0.8536
804	0.8515
795	0.8456
786	0.8425
777	0.8368
768	0.8307
759	0.8175
750	0.8107
741	0.8008
732	0.7626
723	0.6547
714	0.8043
705	0.8411
696	0.8527
687	0.867
678	0.8709
669	0.8747
660	0.8909
651	0.8718
642	0.8699
633	0.8686
624	0.8606
615	0.8443
606	0.8371
597	0.8337
588	0.8321
579	0.8364
570	0.8457
561	0.8548
552	0.8604
543	0.8616
534	0.8438
525	0.8347
516	0.8361
507	0.837
498	0.831
489	0.8305
480	0.8314
471	0.8308
462	0.8252
453	0.8242
444	0.8239
435	0.8213
426	0.8191
417	0.8187
408	0.8188
399	0.82
