Infrared Spectrum: 4-CYCLOHEXYLCYCLOHEXANOL
Formula: C12 H22 O
CAS: 2433-14-9
State: SOLID (SPLIT MULL: FLUOROLUBE FOR 3800-1330 CM^-^1, MINERAL OIL FOR 1330-400 CM^-^1)
Class: COBLENTZ
Instrument: Not specified, most likely a prism, grating, or hybrid spectrometer.
Sampling: TRANSMISSION
Resolution: 4
Origin: WYANDOTTE CHEMICALS CORP., WYANDOTTE, MICHIGAN, USA
MICROMETERS	TRANSMITTANCE
2.019	0.329
2.05622	0.328
2.09343	0.328
2.13065	0.335
2.16786	0.339
2.20508	0.342
2.2423	0.353
2.27951	0.367
2.31673	0.384
2.35394	0.384
2.39116	0.399
2.42838	0.412
2.46559	0.419
2.50281	0.43
2.54002	0.443
2.57724	0.463
2.61446	0.479
2.65167	0.482
2.68889	0.499
2.7261	0.513
2.76332	0.53
2.80054	0.556
2.83775	0.572
2.87497	0.584
2.91218	0.587
2.9494	0.55
2.98662	0.466
3.02383	0.395
3.06105	0.331
3.09826	0.331
3.13548	0.349
3.1727	0.374
3.20991	0.421
3.24713	0.488
3.28434	0.556
3.32156	0.636
3.35878	0.701
3.39599	0.418
3.43321	0.127
3.47042	0.157
3.50764	0.222
3.54486	0.163
3.58207	0.281
3.61929	0.353
3.6565	0.412
3.69372	0.443
3.73094	0.458
3.76815	0.471
3.80537	0.494
3.84258	0.51
3.8798	0.524
3.91702	0.533
3.95423	0.558
3.99145	0.57
4.02866	0.589
4.06588	0.6
4.1031	0.604
4.14031	0.614
4.17753	0.618
4.21474	0.626
4.25196	0.632
4.28918	0.626
4.32639	0.631
4.36361	0.639
4.40082	0.676
4.43804	0.693
4.47526	0.701
4.51247	0.71
4.54969	0.72
4.5869	0.73
4.62412	0.738
4.66133	0.741
4.69855	0.754
4.73577	0.762
4.77298	0.766
4.8102	0.782
4.84741	0.8
4.88463	0.8
4.92185	0.804
4.95906	0.814
4.99628	0.818
5.03349	0.822
5.07071	0.822
5.10793	0.832
5.14514	0.85
5.18236	0.849
5.21957	0.852
5.25679	0.861
5.29401	0.864
5.33122	0.866
5.36844	0.87
5.40565	0.884
5.44287	0.883
5.48009	0.889
5.5173	0.892
5.55452	0.9
5.59173	0.895
5.62895	0.908
5.66617	0.908
5.70338	0.912
5.7406	0.917
5.77781	0.916
5.81503	0.897
5.85225	0.902
5.88946	0.909
5.92668	0.883
5.96389	0.891
6.00111	0.908
6.03833	0.889
6.07554	0.898
6.11276	0.908
6.14997	0.908
6.18719	0.911
6.22441	0.912
6.26162	0.92
6.29884	0.922
6.33605	0.93
6.37327	0.914
6.41049	0.931
6.4477	0.911
6.48492	0.928
6.52213	0.922
6.55935	0.922
6.59657	0.92
6.63378	0.928
6.671	0.925
6.70821	0.936
6.74543	0.917
6.78265	0.841
6.81986	0.716
6.85708	0.471
6.89429	0.489
6.93151	0.534
6.96873	0.65
7.00594	0.704
7.04316	0.743
7.08037	0.765
7.11759	0.793
7.15481	0.797
7.19202	0.821
7.22924	0.769
7.26645	0.718
7.30367	0.709
7.34089	0.256
7.3781	0.23
7.41532	0.264
7.45253	0.329
7.48975	0.468
7.52697	0.589
7.56418	0.486
7.6014	0.412
7.63861	0.493
7.67583	0.432
7.71305	0.542
7.75026	0.562
7.78748	0.632
7.82469	0.597
7.86191	0.496
7.89913	0.46
7.93634	0.547
7.97356	0.639
8.01077	0.614
8.04799	0.668
8.08521	0.671
8.12242	0.573
8.15964	0.721
8.19685	0.774
8.23407	0.757
8.27129	0.752
8.3085	0.65
8.34572	0.608
8.38293	0.712
8.42015	0.772
8.45737	0.702
8.49458	0.74
8.5318	0.702
8.56901	0.802
8.60623	0.738
8.64345	0.69
8.68066	0.659
8.71788	0.553
8.75509	0.623
8.79231	0.676
8.82953	0.676
8.86674	0.678
8.90396	0.701
8.94117	0.698
8.97839	0.724
9.01561	0.583
9.05282	0.418
9.09004	0.496
9.12725	0.569
9.16447	0.489
9.20169	0.399
9.2389	0.377
9.27612	0.272
9.31333	0.328
9.35055	0.22
9.38777	0.099
9.42498	0.043
9.4622	0.094
9.49941	0.144
9.53663	0.171
9.57385	0.239
9.61106	0.25
9.64828	0.281
9.68549	0.331
9.72271	0.475
9.75993	0.559
9.79714	0.612
9.83436	0.629
9.87157	0.632
9.90879	0.656
9.946	0.646
9.98322	0.586
10.0204	0.427
10.0577	0.348
10.0949	0.461
10.1321	0.494
10.1693	0.461
10.2065	0.52
10.2437	0.519
10.2809	0.474
10.3182	0.43
10.3554	0.373
10.3926	0.323
10.4298	0.297
10.467	0.353
10.5042	0.506
10.5415	0.491
10.5787	0.283
10.6159	0.51
10.6531	0.743
10.6903	0.835
10.7275	0.855
10.7648	0.816
10.802	0.777
10.8392	0.836
10.8764	0.884
10.9136	0.891
10.9508	0.898
10.9881	0.933
11.0253	0.93
11.0625	0.878
11.0997	0.863
11.1369	0.828
11.1741	0.699
11.2113	0.556
11.2486	0.447
11.2858	0.458
11.323	0.503
11.3602	0.531
11.3974	0.758
11.4346	0.852
11.4719	0.906
11.5091	0.925
11.5463	0.945
11.5835	0.933
11.6207	0.875
11.6579	0.771
11.6952	0.807
11.7324	0.805
11.7696	0.783
11.8068	0.81
11.844	0.687
11.8812	0.712
11.9185	0.828
11.9557	0.864
11.9929	0.858
12.0301	0.842
12.0673	0.818
12.1045	0.835
12.1417	0.891
12.179	0.923
12.2162	0.917
12.2534	0.9
12.2906	0.898
12.3278	0.931
12.365	0.947
12.4023	0.953
12.4395	0.958
12.4767	0.961
12.5139	0.961
12.5511	0.944
12.5883	0.891
12.6256	0.842
12.6628	0.87
12.7	0.814
12.7372	0.8
12.7744	0.863
12.8116	0.892
12.8489	0.9
12.8861	0.903
12.9233	0.894
12.9605	0.9
12.9977	0.883
13.0349	0.852
13.0721	0.861
13.1094	0.878
13.1466	0.866
13.1838	0.853
13.221	0.827
13.2582	0.799
13.2954	0.79
13.3327	0.783
13.3699	0.777
13.4071	0.785
13.4443	0.799
13.4815	0.802
13.5187	0.805
13.556	0.81
13.5932	0.808
13.6304	0.81
13.6676	0.814
13.7048	0.819
13.742	0.819
13.7793	0.819
13.8165	0.819
13.8537	0.814
13.8909	0.813
13.9281	0.818
13.9653	0.821
14.0025	0.832
14.0398	0.841
14.077	0.835
14.1142	0.844
14.1514	0.844
14.1886	0.846
14.2258	0.841
14.2631	0.825
14.3003	0.805
14.3375	0.772
14.3747	0.721
14.4119	0.712
14.4491	0.741
14.4864	0.791
14.5236	0.814
14.5608	0.819
14.598	0.811
14.6352	0.805
14.6724	0.799
14.7097	0.797
14.7469	0.782
14.7841	0.779
14.8213	0.774
14.8585	0.752
14.8957	0.73
14.9329	0.698
14.9702	0.682
15.0074	0.67
15.0446	0.662
15.0818	0.668
15.119	0.706
15.1562	0.729
15.1935	0.73
15.2307	0.715
15.2679	0.704
15.3051	0.698
15.3423	0.673
15.3795	0.66
15.4168	0.645
15.454	0.636
15.4912	0.617
15.5284	0.615
15.5656	0.615
15.6028	0.604
15.6401	0.587
15.6773	0.583
15.7145	0.57
15.7517	0.559
15.7889	0.552
15.8261	0.538
15.8633	0.524
15.9006	0.517
15.9378	0.513
15.975	0.5
