Infrared Spectrum: n-Tricosanoic acid
Formula: C 23 H 46 O 2
CAS: 2433-96-7
State: gas
Origin: EPA-IR VAPOR PHASE LIBRARY
1/CM	ABSORBANCE
549.8	0.002435
559.445	0.001945
569.09	0.001995
578.734	0.002215
588.379	0.002505
598.024	0.002095
607.669	0.002645
617.313	0.002745
626.958	0.002595
636.603	0.002255
646.248	0.001785
655.893	0.0008176
665.537	0.0010293
675.182	0.001265
684.827	0.0010779
694.472	0.0010779
704.116	0.001525
713.761	0.001855
723.406	0.001625
733.051	0.001775
742.695	0.001185
752.34	0.0007721
761.985	0.0007832
771.63	0.0003956
781.275	0.0008363
790.919	0.000683
800.564	0.0002991
810.209	0.0004672
819.854	0.0003431
829.498	0.00028235
839.143	0.0003124
848.788	0.0005604
858.433	5.4e-05
868.078	0.0007582
877.722	0.0006559
887.367	0.0006914
897.012	0.0008751
906.657	0.0007504
916.301	0.0005084
925.946	0.0006747
935.591	0.0004628
945.236	0.0006138
954.88	0.0005237
964.525	0.000434
974.17	0.0003201
983.815	0.0006218
993.46	0.0007147
1003.1	0.0008641
1012.75	0.0010514
1022.39	0.001465
1032.04	0.001535
1041.68	0.001905
1051.33	0.002595
1060.97	0.002785
1070.62	0.003205
1080.26	0.004835
1089.91	0.005045
1099.55	0.006285
1109.2	0.007165
1118.84	0.007285
1128.49	0.007895
1138.13	0.006855
1147.78	0.005525
1157.42	0.004715
1167.07	0.003575
1176.71	0.002645
1186.36	0.002085
1196	0.001885
1205.64	0.002005
1215.29	0.001745
1224.93	0.0009008
1234.58	0.001515
1244.22	0.0011226
1253.87	0.001455
1263.51	0.001855
1273.16	0.001595
1282.8	0.001505
1292.45	0.002005
1302.09	0.002115
1311.74	0.001995
1321.38	0.001825
1331.03	0.002065
1340.67	0.002635
1350.32	0.003345
1359.96	0.003215
1369.61	0.003285
1379.25	0.003075
1388.9	0.002575
1398.54	0.001785
1408.18	0.001425
1417.83	0.001485
1427.47	0.001625
1437.12	0.002295
1446.76	0.003525
1456.41	0.004865
1466.05	0.004635
1475.7	0.002645
1485.34	0.001275
1494.99	0.0008154
1504.63	0.0008327
1514.28	0.0008088
1523.92	0.0005466
1533.57	0.000369
1543.21	0.0003766
1552.86	0.0005381
1562.5	0.0004345
1572.15	0.00023436
1581.79	0.000297
1591.44	0.0003944
1601.08	0.0004046
1610.73	0.0003675
1620.37	0.000541
1630.01	0.00025251
1639.66	0.0003174
1649.3	0.000321
1658.95	0.000342
1668.59	0.0003662
1678.24	0.0004398
1687.88	0.0005586
1697.53	0.0006398
1707.17	0.0007969
1716.82	0.001136
1726.46	0.001955
1736.11	0.002835
1745.75	0.004665
1755.4	0.007145
1765.04	0.010915
1774.69	0.015205
1784.33	0.012735
1793.98	0.008115
1803.62	0.004915
1813.27	0.002685
1822.91	0.001435
1832.55	0.0008664
1842.2	0.0007483
1851.84	0.0004276
1861.49	0.0003638
1871.13	0.0004241
1880.78	0.0004284
1890.42	0.0003663
1900.07	0.0003701
1909.71	0.0004248
1919.36	0.0004242
1929	0.00039
1938.65	0.000314
1948.29	0.00027029
1957.94	0.0003407
1967.58	0.00025878
1977.23	0.0002866
1986.87	0.00021184
1996.52	0.00038
2006.16	0.0004312
2015.81	0.000402
2025.45	0.0003187
2035.1	0.0004714
2044.74	0.0004353
2054.38	0.0003805
2064.03	0.0004301
2073.67	0.00027032
2083.32	0.0003339
2092.96	0.0002974
2102.61	0.0003415
2112.25	0.0003903
2121.9	0.0003567
2131.54	0.0004
2141.19	0.0003122
2150.83	0.00027875
2160.48	0.0003843
2170.12	0.0002962
2179.77	0.0004345
2189.41	0.0004166
2199.06	0.0005095
2208.7	0.0004733
2218.35	0.0003828
2227.99	0.0004575
2237.64	0.0003966
2247.28	0.0004878
2256.92	0.0004946
2266.57	0.0003526
2276.21	0.0004375
2285.86	0.0003263
2295.5	0.0003581
2305.15	0.0004122
2314.79	0.0004689
2324.44	0.0003906
2334.08	0.0004609
2343.73	0.0003277
2353.37	0.0004291
2363.02	0.0003062
2372.66	0.0003335
2382.31	0.0003673
2391.95	0.00039
2401.6	0.0004844
2411.24	0.0002877
2420.89	0.0004125
2430.53	0.0005114
2440.18	0.0003689
2449.82	0.0003789
2459.47	0.000371
2469.11	0.0004662
2478.75	0.0003644
2488.4	0.0002939
2498.04	0.0004951
2507.69	0.0004401
2517.33	0.0004139
2526.98	0.0004027
2536.62	0.0005066
2546.27	0.0004885
2555.91	0.000554
2565.56	0.0006305
2575.2	0.0004614
2584.85	0.0005055
2594.49	0.000612
2604.14	0.0005729
2613.78	0.0005363
2623.43	0.0005967
2633.07	0.0007632
2642.72	0.000663
2652.36	0.0009785
2662.01	0.0009306
2671.65	0.0008139
2681.29	0.0007914
2690.94	0.0008843
2700.58	0.0008449
2710.23	0.0009226
2719.87	0.0009948
2729.52	0.0008584
2739.16	0.0010203
2748.81	0.0008942
2758.45	0.0009787
2768.1	0.0010831
2777.74	0.001345
2787.39	0.001295
2797.03	0.001625
2806.68	0.002005
2816.32	0.002365
2825.97	0.002975
2835.61	0.004105
2845.26	0.007335
2854.9	0.017885
2864.55	0.025195
2874.19	0.016135
2883.84	0.011665
2893.48	0.011455
2903.12	0.016295
2912.77	0.025635
2922.41	0.045345
2932.06	0.069365
2941.7	0.047675
2951.35	0.024335
2960.99	0.015535
2970.64	0.011585
2980.28	0.006675
2989.93	0.004275
2999.57	0.002965
3009.22	0.002165
3018.86	0.001855
3028.51	0.001465
3038.15	0.001315
3047.8	0.0009851
3057.44	0.0009445
3067.09	0.0007821
3076.73	0.0007049
3086.38	0.0004665
3096.02	0.0006442
3105.67	0.0006486
3115.31	0.0006803
3124.95	0.0003952
3134.6	0.0003593
3144.24	0.0003132
3153.89	0.0004878
3163.53	0.0003287
3173.18	0.0005155
3182.82	0.0003266
3192.47	0.0005939
3202.11	0.0005655
3211.76	0.0005765
3221.4	0.00020965
3231.05	0.0003564
3240.69	0.0003197
3250.34	0.00021835
3259.98	0.0003575
3269.63	0.0002999
3279.27	0.0005111
3288.92	0.0003725
3298.56	0.00026778
3308.21	0.0004191
3317.85	0.0001681
3327.49	0.0004396
3337.14	0.0003804
3346.78	0.0002996
3356.43	0.0002133
3366.07	0.0006044
3375.72	0.0005258
3385.36	0.0003871
3395.01	0.0002553
3404.65	0.0003085
3414.3	0.00027608
3423.94	0.00026393
3433.59	0.0004559
3443.23	0.0003889
3452.88	0.0004217
3462.52	0.0006384
3472.17	0.00021335
3481.81	0.0004219
3491.46	0.0004947
3501.1	0.0002907
3510.75	0.00023042
3520.39	0.0005438
3530.04	0.0005989
3539.68	0.000573
3549.32	0.0010929
3558.97	0.001805
3568.61	0.004455
3578.26	0.005875
3587.9	0.001825
3597.55	0.0011797
3607.19	0.0005466
3616.84	0.000725
3626.48	0.0004837
3636.13	0.0003176
3645.77	0.0005456
3655.42	0.0003761
3665.06	0.000442
3674.71	0.00023928
3684.35	0.0006093
3694	0.0003446
3703.64	0.0006379
3713.29	0.0001474
3722.93	0.0002935
3732.58	0.0003518
3742.22	0.0006036
3751.86	0.0004698
3761.51	0.0005859
3771.15	0.0003846
3780.8	0.0003444
3790.44	0.0007419
3800.09	0.00024114
3809.73	0.0003124
3819.38	0.0005152
3829.02	0.0003853
3838.67	0.0003829
3848.31	0.00022954
3857.96	0.0005334
3867.6	0.0003436
3877.25	0.0006582
3886.89	0.0004143
3896.54	0.0003873
3906.18	0.0003992
3915.83	0.0003701
3925.47	0.000681
3935.12	0.0005488
3944.76	0.0003909
3954.41	0.0006668
3964.05	0.0003167
3973.69	0.0004254
3983.34	7.9e-05
3992.98	0.0005669
