Infrared Spectrum: 1,1,2-Trimethoxyethane
Formula: C5 H12 O3
CAS: 24332-20-5
State: SOLUTION (10% CCl4 FOR 3800-1330, 10% CS2 FOR 1330-470 CM^-^1)
Class: COBLENTZ III
Instrument: DOW KBr FOREPRISM-GRATING
Instrument parameters: BLAZED AT 3.5, 12.0, 20.0 MICRON AND CHANGED AT 5.0, 7.5, 14.9 MICRON
Sampling: TRANSMISSION
Path length: 0.011 CM, 0.011 CM
Resolution: 2
Origin: DOW CHEMICAL COMPANY
1/CM	TRANSMITTANCE
469	0.8354
478	0.8373
487	0.8362
496	0.8328
505	0.8258
514	0.8131
523	0.7925
532	0.7742
541	0.7604
550	0.7484
559	0.7325
568	0.7133
577	0.6863
586	0.6816
595	0.7622
604	0.8112
613	0.8245
622	0.8245
631	0.8028
640	0.8006
649	0.8361
658	0.879
667	0.8481
676	0.71
685	0.776
694	0.8096
703	0.8169
712	0.8161
721	0.8344
730	0.843
739	0.8522
748	0.8665
757	0.8783
766	0.8884
775	0.8961
784	0.9011
793	0.8904
802	0.8717
811	0.8527
820	0.7551
829	0.7158
838	0.5138
847	0.6557
856	0.5001
865	0.5875
874	0.7668
883	0.8115
892	0.8168
901	0.777
910	0.509
919	0.5025
928	0.3842
937	0.2787
946	0.0829
955	0.5522
964	0.5657
973	0.3706
982	0.3201
991	0.3756
1000	0.6315
1009	0.6895
1018	0.7175
1027	0.5498
1036	0.3507
1045	0.2026
1054	0.0348
1063	-0.0036
1072	-0.0036
1081	-0.0036
1090	-0.0036
1099	0.0087
1108	-0.0036
1117	-0.0036
1126	-0.0036
1135	0.0125
1144	0.0329
1153	0.1306
1162	0.3435
1171	0.4152
1180	0.3092
1189	0.006
1198	0.0133
1207	0.1897
1216	0.4064
1225	0.6106
1234	0.6449
1243	0.5363
1252	0.5829
1261	0.6625
1270	0.7073
1279	0.6454
1288	0.7064
1297	0.7622
1306	0.7311
1315	0.482
1324	0.5938
1333	0.7302
1342	0.773
1351	0.7508
1360	0.6148
1369	0.5116
1378	0.7055
1387	0.8108
1396	0.7391
1405	0.7109
1414	0.7815
1423	0.7589
1432	0.6724
1441	0.4806
1450	0.208
1459	0.2384
1468	0.2566
1477	0.4448
1486	0.6369
1495	0.7821
1504	0.8395
1513	0.8752
1522	0.876
1531	0.8814
1540	0.9002
1549	0.8998
1558	0.8019
1567	0.8361
1576	0.8562
1585	0.8604
1594	0.8294
1603	0.8333
1612	0.85
1621	0.8692
1630	0.8811
1639	0.8921
1648	0.8985
1657	0.9045
1666	0.9017
1675	0.896
1684	0.8928
1693	0.8966
1702	0.9004
1711	0.886
1720	0.8641
1729	0.8834
1738	0.8925
1747	0.8915
1756	0.897
1765	0.9046
1774	0.9111
1783	0.9146
1792	0.9166
1801	0.9189
1810	0.9233
1819	0.9225
1828	0.9215
1837	0.9258
1846	0.9277
1855	0.9309
1864	0.9319
1873	0.9338
1882	0.9341
1891	0.9331
1900	0.9322
1909	0.9301
1918	0.9266
1927	0.9216
1936	0.9178
1945	0.9138
1954	0.913
1963	0.9216
1972	0.905
1981	0.9073
1990	0.9078
1999	0.8922
2008	0.8698
2017	0.8574
2026	0.8608
2035	0.865
2044	0.8531
2053	0.8545
2062	0.8516
2071	0.8476
2080	0.8425
2089	0.8381
2098	0.8407
2107	0.8488
2116	0.8533
2125	0.8535
2134	0.8546
2143	0.8587
2152	0.866
2161	0.874
2170	0.879
2179	0.8792
2188	0.8798
2197	0.8821
2206	0.8839
2215	0.8865
2224	0.8894
2233	0.8896
2242	0.8906
2251	0.8923
2260	0.893
2269	0.893
2278	0.8953
2287	0.8979
2296	0.8999
2305	0.9014
2314	0.9109
2323	0.9221
2332	0.9302
2341	0.9364
2350	0.9352
2359	0.9306
2368	0.925
2377	0.9193
2386	0.9089
2395	0.9059
2404	0.9078
2413	0.9098
2422	0.9166
2431	0.9227
2440	0.9256
2449	0.926
2458	0.9258
2467	0.9268
2476	0.9268
2485	0.925
2494	0.925
2503	0.9248
2512	0.9246
2521	0.924
2530	0.9236
2539	0.9228
2548	0.9214
2557	0.9194
2566	0.9147
2575	0.9094
2584	0.9023
2593	0.8932
2602	0.89
2611	0.8956
2620	0.8934
2629	0.8867
2638	0.8837
2647	0.8863
2656	0.886
2665	0.8824
2674	0.874
2683	0.8615
2692	0.8489
2701	0.8456
2710	0.854
2719	0.8548
2728	0.8554
2737	0.8618
2746	0.8562
2755	0.8328
2764	0.8117
2773	0.787
2782	0.7659
2791	0.7403
2800	0.6971
2809	0.563
2818	0.3041
2827	0.135
2836	0.0525
2845	0.1638
2854	0.2992
2863	0.2851
2872	0.2113
2881	0.137
2890	0.0816
2899	0.032
2908	0.0048
2917	-0.0036
2926	-0.0036
2935	-0.0036
2944	0.0015
2953	0.0479
2962	0.0564
2971	0.1976
2980	0.2391
2989	0.1658
2998	0.1086
3007	0.3865
3016	0.5945
3025	0.691
3034	0.7268
3043	0.7452
3052	0.8025
3061	0.8173
3070	0.83
3079	0.8332
3088	0.843
3097	0.8609
3106	0.8686
3115	0.8758
3124	0.8841
3133	0.8897
3142	0.89
3151	0.8872
3160	0.8786
3169	0.8916
3178	0.9053
3187	0.9106
3196	0.9116
3205	0.9127
3214	0.9156
3223	0.9157
3232	0.9156
3241	0.915
3250	0.9142
3259	0.9123
3268	0.9087
3277	0.9005
3286	0.8872
3295	0.8668
3304	0.8437
3313	0.8249
3322	0.8514
3331	0.8792
3340	0.8755
3349	0.8874
3358	0.8976
3367	0.9058
3376	0.912
3385	0.9172
3394	0.9201
3403	0.9224
3412	0.924
3421	0.9254
3430	0.9263
3439	0.9271
3448	0.927
3457	0.9264
3466	0.9256
3475	0.9239
3484	0.9223
3493	0.9202
3502	0.9184
3511	0.917
3520	0.9157
3529	0.917
3538	0.921
3547	0.9271
3556	0.9303
3565	0.9361
3574	0.9436
3583	0.9472
3592	0.9503
3601	0.9532
3610	0.9562
3619	0.9584
3628	0.9528
3637	0.9563
3646	0.9589
3655	0.9556
3664	0.9556
3673	0.9415
3682	0.9406
3691	0.9502
3700	0.9638
3709	0.9645
3718	0.966
3727	0.9712
3736	0.9757
3745	0.9707
3754	0.9662
3763	0.9614
3772	0.9589
3781	0.9663
3790	0.9696
3799	0.9639
