Infrared Spectrum: Dihydro-6-methyl-2,4(1H,3H)-pyrimidinedione
Formula: C 5 H 8 N 2 O 2
CAS: 2434-49-3
State: gas
Origin: EPA-IR VAPOR PHASE LIBRARY
1/CM	ABSORBANCE
549.8	0.002486
559.445	0.003266
569.09	0.004216
578.734	0.004526
588.379	0.003516
598.024	0.002026
607.669	0.002116
617.313	0.002746
626.958	0.003916
636.603	0.005106
646.248	0.005326
655.893	0.004866
665.537	0.004676
675.182	0.005046
684.827	0.003926
694.472	0.002946
704.116	0.002096
713.761	0.001606
723.406	0.001486
733.051	0.001586
742.695	0.002666
752.34	0.004086
761.985	0.004726
771.63	0.003536
781.275	0.002116
790.919	0.001466
800.564	0.001246
810.209	0.001366
819.854	0.0011029
829.498	0.001386
839.143	0.001226
848.788	0.001256
858.433	0.001526
868.078	0.001486
877.722	0.001366
887.367	0.0011045
897.012	0.001346
906.657	0.0010435
916.301	0.0011248
925.946	0.0010892
935.591	0.001336
945.236	0.001346
954.88	0.0011104
964.525	0.0008678
974.17	0.0006797
983.815	0.0009987
993.46	0.001746
1003.1	0.002216
1012.75	0.002676
1022.39	0.001536
1032.04	0.001356
1041.68	0.001246
1051.33	0.001446
1060.97	0.001446
1070.62	0.001746
1080.26	0.001926
1089.91	0.001396
1099.55	0.001586
1109.2	0.001686
1118.84	0.002066
1128.49	0.002486
1138.13	0.002836
1147.78	0.002896
1157.42	0.003026
1167.07	0.004016
1176.71	0.005496
1186.36	0.008286
1196	0.008186
1205.64	0.006106
1215.29	0.003716
1224.93	0.003576
1234.58	0.005666
1244.22	0.007656
1253.87	0.008916
1263.51	0.008946
1273.16	0.008816
1282.8	0.008206
1292.45	0.007086
1302.09	0.005326
1311.74	0.005426
1321.38	0.006836
1331.03	0.009056
1340.67	0.011416
1350.32	0.011216
1359.96	0.009656
1369.61	0.009286
1379.25	0.010056
1388.9	0.010896
1398.54	0.011876
1408.18	0.013606
1417.83	0.014906
1427.47	0.014456
1437.12	0.011856
1446.76	0.008046
1456.41	0.005446
1466.05	0.003716
1475.7	0.002456
1485.34	0.001656
1494.99	0.001406
1504.63	0.001566
1514.28	0.001576
1523.92	0.001426
1533.57	0.0011223
1543.21	0.0010508
1552.86	0.000912
1562.5	0.0008823
1572.15	0.0008349
1581.79	0.0008395
1591.44	0.0007476
1601.08	0.0007216
1610.73	0.0008776
1620.37	0.0011007
1630.01	0.001216
1639.66	0.001416
1649.3	0.001336
1658.95	0.001416
1668.59	0.001786
1678.24	0.002626
1687.88	0.003836
1697.53	0.005756
1707.17	0.008186
1716.82	0.012386
1726.46	0.021606
1736.11	0.041336
1745.75	0.072966
1755.4	0.091976
1765.04	0.078016
1774.69	0.039806
1784.33	0.016106
1793.98	0.008026
1803.62	0.004836
1813.27	0.003486
1822.91	0.002856
1832.55	0.002526
1842.2	0.002286
1851.84	0.002026
1861.49	0.001816
1871.13	0.001636
1880.78	0.001576
1890.42	0.001236
1900.07	0.0010851
1909.71	0.0009176
1919.36	0.0007805
1929	0.0007366
1938.65	0.0007945
1948.29	0.0006675
1957.94	0.0007194
1967.58	0.000653
1977.23	0.0006949
1986.87	0.0006323
1996.52	0.0004901
2006.16	0.0004964
2015.81	0.0004376
2025.45	0.0005024
2035.1	0.0004837
2044.74	0.0004684
2054.38	0.0003893
2064.03	0.0004996
2073.67	0.0004512
2083.32	0.0004388
2092.96	0.0003831
2102.61	0.0004618
2112.25	0.0003857
2121.9	0.0004096
2131.54	0.0003932
2141.19	0.0003921
2150.83	0.0003643
2160.48	0.000402
2170.12	0.0003984
2179.77	0.0003531
2189.41	0.00038
2199.06	0.00027313
2208.7	0.0004356
2218.35	0.000425
2227.99	0.0003216
2237.64	0.00030217
2247.28	0.0003138
2256.92	0.0003504
2266.57	0.0003194
2276.21	0.0004127
2285.86	0.0003604
2295.5	0.0003799
2305.15	0.0004289
2314.79	0.0003556
2324.44	0.0003374
2334.08	0.0003535
2343.73	0.0003259
2353.37	0.00024919
2363.02	0.00029258
2372.66	0.0003509
2382.31	0.0004131
2391.95	0.0004143
2401.6	0.0003712
2411.24	0.0003817
2420.89	0.0004157
2430.53	0.0004476
2440.18	0.0004478
2449.82	0.0003585
2459.47	0.0003744
2469.11	0.0003105
2478.75	0.0003762
2488.4	0.0004125
2498.04	0.0003417
2507.69	0.00026128
2517.33	0.0003506
2526.98	0.0003268
2536.62	0.000342
2546.27	0.000314
2555.91	0.00030093
2565.56	0.000379
2575.2	0.0004023
2584.85	0.00029319
2594.49	0.0003948
2604.14	0.00029719
2613.78	0.0004911
2623.43	0.0003324
2633.07	0.00026932
2642.72	0.0003773
2652.36	0.0003585
2662.01	0.0004327
2671.65	0.00025335
2681.29	0.0003343
2690.94	0.0003649
2700.58	0.0003259
2710.23	0.0003719
2719.87	0.0003148
2729.52	0.0004653
2739.16	0.0005315
2748.81	0.0004244
2758.45	0.0003906
2768.1	0.0004283
2777.74	0.0004873
2787.39	0.0004375
2797.03	0.0006671
2806.68	0.000488
2816.32	0.0004788
2825.97	0.0005036
2835.61	0.0006283
2845.26	0.0006336
2854.9	0.0008519
2864.55	0.001296
2874.19	0.001866
2883.84	0.002156
2893.48	0.001876
2903.12	0.001546
2912.77	0.001426
2922.41	0.001656
2932.06	0.002046
2941.7	0.002156
2951.35	0.001866
2960.99	0.001926
2970.64	0.003616
2980.28	0.004986
2989.93	0.004126
2999.57	0.001776
3009.22	0.0006466
3018.86	0.0005198
3028.51	0.0003171
3038.15	0.00022299
3047.8	0.00025225
3057.44	0.00029962
3067.09	0.0003085
3076.73	0.00027983
3086.38	0.0003587
3096.02	0.0005986
3105.67	0.0003863
3115.31	0.0005275
3124.95	0.00030137
3134.6	0.0003948
3144.24	0.00029994
3153.89	0.000398
3163.53	0.0003911
3173.18	0.000359
3182.82	0.00028973
3192.47	0.00029231
3202.11	0.0003321
3211.76	0.0003347
3221.4	0.00025612
3231.05	0.00028908
3240.69	0.00030572
3250.34	0.00029386
3259.98	0.0001253
3269.63	0.00025567
3279.27	9.5e-05
3288.92	0.00025311
3298.56	0.0001577
3308.21	0.0003435
3317.85	0.0003529
3327.49	0.000177
3337.14	0.0001345
3346.78	0.0001681
3356.43	0.00028926
3366.07	0.00021663
3375.72	0.0003318
3385.36	0.00025155
3395.01	0.0004456
3404.65	0.0005419
3414.3	0.001536
3423.94	0.004286
3433.59	0.007956
3443.23	0.009846
3452.88	0.007676
3462.52	0.004496
3472.17	0.002216
3481.81	0.001316
3491.46	0.0012048
3501.1	0.0009248
3510.75	0.0007392
3520.39	0.0006232
3530.04	0.0003881
3539.68	0.0004811
3549.32	0.0004797
3558.97	0.0005555
3568.61	0.0004955
3578.26	0.0003723
3587.9	0.00028075
3597.55	0.00026192
3607.19	0.00020232
3616.84	0.00029073
3626.48	0.000208961
3636.13	0.00020531
3645.77	0.00026902
3655.42	0.000105
3665.06	0.0001264
3674.71	0.00022509
3684.35	0.0003268
3694	6.1e-05
3703.64	0.00028484
3713.29	0.0001763
3722.93	0.0001485
3732.58	0.0001314
3742.22	0.00020389
3751.86	0.00027089
3761.51	0.0001252
3771.15	0.0001311
3780.8	9.8e-05
3790.44	0.0001504
3800.09	0.0003957
3809.73	0.0001634
3819.38	0.00027829
3829.02	0.0001891
3838.67	0.0002661
3848.31	0.0004096
3857.96	0.00020257
3867.6	0.00025147
3877.25	0.00022672
3886.89	0.0003054
3896.54	0.0003132
3906.18	0.00022619
3915.83	0.0001956
3925.47	0.00023596
3935.12	0.0001147
3944.76	0.0003934
3954.41	0.000363
3964.05	0.0003689
3973.69	0.00025166
3983.34	0.0001231
3992.98	0.00027238
