Infrared Spectrum: DIISOPROMINE, HYDROCHLORIDE
Formula: C21 H30 Cl N
CAS: 24358-65-4
State: SOLID (KCl DISC)
Class: COBLENTZ III
Instrument: PERKIN-ELMER 21 (GRATING)
Instrument parameters: FILTER AT ABOUT 10 MICRONS
Sampling: TRANSMISSION
Resolution: 2
1/CM	TRANSMITTANCE
4000	0.8188
3991	0.8194
3982	0.82
3973	0.8205
3964	0.8211
3955	0.8217
3946	0.8223
3937	0.823
3928	0.8235
3919	0.8243
3910	0.8254
3901	0.8265
3892	0.8275
3883	0.8286
3874	0.8297
3865	0.8307
3856	0.8318
3847	0.833
3838	0.8341
3829	0.8352
3820	0.8362
3811	0.8368
3802	0.8377
3793	0.8384
3784	0.8391
3775	0.8398
3766	0.8405
3757	0.8412
3748	0.8418
3739	0.8425
3730	0.8433
3721	0.8439
3712	0.8445
3703	0.8451
3694	0.8458
3685	0.8463
3676	0.847
3667	0.8475
3658	0.8481
3649	0.8486
3640	0.8488
3631	0.8491
3622	0.8493
3613	0.8495
3604	0.8498
3595	0.8494
3586	0.849
3577	0.8485
3568	0.847
3559	0.845
3550	0.8411
3541	0.8368
3532	0.8325
3523	0.8278
3514	0.8217
3505	0.8156
3496	0.8094
3487	0.8025
3478	0.7948
3469	0.7868
3460	0.7791
3451	0.7724
3442	0.766
3433	0.7595
3424	0.753
3415	0.7471
3406	0.7412
3397	0.7355
3388	0.7311
3379	0.7275
3370	0.7254
3361	0.7245
3352	0.7239
3343	0.7237
3334	0.7271
3325	0.7318
3316	0.7368
3307	0.7421
3298	0.7475
3289	0.7528
3280	0.7571
3271	0.7611
3262	0.765
3253	0.769
3244	0.773
3235	0.7769
3226	0.7808
3217	0.7848
3208	0.7887
3199	0.7926
3190	0.7962
3181	0.7997
3172	0.8032
3163	0.8067
3154	0.8099
3145	0.8128
3136	0.816
3127	0.819
3118	0.8214
3109	0.8238
3100	0.8262
3091	0.8302
3082	0.8293
3073	0.8287
3064	0.8259
3055	0.8191
3046	0.8122
3037	0.8001
3028	0.7807
3019	0.7618
3010	0.7497
3001	0.7371
2992	0.7242
2983	0.7201
2974	0.7161
2965	0.6146
2956	0.5871
2947	0.5779
2938	0.5724
2929	0.5678
2920	0.5651
2911	0.5633
2902	0.5626
2893	0.5624
2884	0.5632
2875	0.5722
2866	0.5852
2857	0.5994
2848	0.6128
2839	0.6321
2830	0.656
2821	0.6787
2812	0.6986
2803	0.716
2794	0.7325
2785	0.7465
2776	0.7542
2767	0.7557
2758	0.7543
2749	0.7515
2740	0.7497
2731	0.7487
2722	0.7491
2713	0.7508
2704	0.7524
2695	0.754
2686	0.7539
2677	0.7482
2668	0.7411
2659	0.7249
2650	0.6919
2641	0.6631
2632	0.6455
2623	0.6265
2614	0.6089
2605	0.592
2596	0.576
2587	0.5595
2578	0.5423
2569	0.5228
2560	0.4998
2551	0.481
2542	0.4564
2533	0.439
2524	0.425
2515	0.4028
2506	0.4025
2497	0.3918
2488	0.3505
2479	0.3142
2470	0.3184
2461	0.335
2452	0.3658
2443	0.3687
2434	0.3866
2425	0.4166
2416	0.45
2407	0.4837
2398	0.5176
2389	0.5492
2380	0.5787
2371	0.599
2362	0.611
2353	0.6205
2344	0.6293
2335	0.6369
2326	0.6487
2317	0.6685
2308	0.6987
2299	0.7391
2290	0.766
2281	0.7818
2272	0.7914
2263	0.8006
2254	0.8086
2245	0.8168
2236	0.8246
2227	0.832
2218	0.8396
2209	0.8468
2200	0.8537
2191	0.8607
2182	0.8675
2173	0.8735
2164	0.8793
2155	0.8844
2146	0.8883
2137	0.891
2128	0.8935
2119	0.8953
2110	0.8971
2101	0.8986
2092	0.8999
2083	0.9012
2074	0.9027
2065	0.904
2056	0.9055
2047	0.9075
2038	0.91
2029	0.9124
2020	0.9147
2011	0.9166
2002	0.9185
1993	0.9203
1984	0.9211
1975	0.9203
1966	0.916
1957	0.907
1948	0.8975
1939	0.8963
1930	0.9046
1921	0.91
1912	0.9128
1903	0.9144
1894	0.9121
1885	0.9073
1876	0.9025
1867	0.9048
1858	0.9153
1849	0.9243
1840	0.9286
1831	0.9277
1822	0.9207
1813	0.9114
1804	0.9039
1795	0.9151
1786	0.9225
1777	0.9267
1768	0.9231
1759	0.9149
1750	0.9115
1741	0.9101
1732	0.9092
1723	0.9093
1714	0.9095
1705	0.9099
1696	0.91
1687	0.9094
1678	0.9081
1669	0.9003
1660	0.8937
1651	0.8903
1642	0.8896
1633	0.8916
1624	0.8921
1615	0.8897
1606	0.879
1597	0.7831
1588	0.7225
1579	0.8443
1570	0.8649
1561	0.8966
1552	0.9031
1543	0.907
1534	0.9107
1525	0.9125
1516	0.9133
1507	0.9081
1498	0.6996
1489	0.4592
1480	0.6362
1471	0.6872
1462	0.5456
1453	0.6437
1444	0.5396
1435	0.4732
1426	0.3732
1417	0.59
1408	0.7687
1399	0.6089
1390	0.5982
1381	0.5834
1372	0.7298
1363	0.7515
1354	0.7938
1345	0.8456
1336	0.848
1327	0.8221
1318	0.8285
1309	0.8347
1300	0.8768
1291	0.8915
1282	0.8818
1273	0.8874
1264	0.9016
1255	0.907
1246	0.9077
1237	0.8994
1228	0.896
1219	0.8951
1210	0.8252
1201	0.872
1192	0.8809
1183	0.8158
1174	0.6465
1165	0.7381
1156	0.8244
1147	0.8359
1138	0.8304
1129	0.5806
1120	0.7251
1111	0.6749
1102	0.823
1093	0.7549
1084	0.8217
1075	0.8818
1066	0.8724
1057	0.9002
1048	0.8146
1039	0.8747
1030	0.8275
1021	0.8691
1012	0.8668
1003	0.9044
994	0.8978
985	0.9178
976	0.8847
967	0.8368
958	0.9007
949	0.8784
940	0.8916
931	0.8789
922	0.8381
913	0.8842
904	0.9052
895	0.9278
886	0.942
877	0.9437
868	0.9443
859	0.9404
850	0.8899
841	0.8942
832	0.9332
823	0.9413
814	0.934
805	0.9037
796	0.8468
787	0.8948
778	0.8859
769	0.523
760	0.7831
751	0.5665
742	0.8292
733	0.4077
724	0.8444
715	0.8547
706	0.3046
697	0.3728
688	0.8294
679	0.8707
670	0.8935
