Infrared Spectrum: 2,6-DIMETHYL 2,7-OCTADIENE
Formula: C10 H18
CAS: 2436-90-0
Class: COBLENTZ
Instrument: Not specified, most likely a prism, grating, or hybrid spectrometer.
Sampling: TRANSMISSION
Resolution: 4
Origin: INTERNATIONAL FLAVORS & FRAGRANCES, INC.
MICROMETERS	TRANSMITTANCE
2.029	0.916
2.06153	0.917
2.09406	0.911
2.12659	0.909
2.15912	0.911
2.19166	0.911
2.22419	0.901
2.25672	0.889
2.28925	0.863
2.32178	0.855
2.35431	0.863
2.38684	0.873
2.41937	0.884
2.45191	0.885
2.48444	0.891
2.51697	0.894
2.5495	0.899
2.58203	0.903
2.61456	0.904
2.64709	0.908
2.67962	0.91
2.71216	0.913
2.74469	0.913
2.77722	0.919
2.80975	0.911
2.84228	0.905
2.87481	0.9
2.90734	0.901
2.93987	0.901
2.97241	0.901
3.00494	0.904
3.03747	0.903
3.07	0.902
3.10253	0.897
3.13506	0.889
3.16759	0.87
3.20012	0.767
3.23266	0.616
3.26519	0.681
3.29772	0.465
3.33025	0.108
3.36278	0.052
3.39531	0.044
3.42784	0.089
3.46037	0.12
3.49291	0.348
3.52544	0.693
3.55797	0.779
3.5905	0.847
3.62303	0.839
3.65556	0.817
3.68809	0.877
3.72062	0.892
3.75315	0.891
3.78569	0.9
3.81822	0.905
3.85075	0.907
3.88328	0.908
3.91581	0.909
3.94834	0.912
3.98087	0.916
4.0134	0.913
4.04594	0.918
4.07847	0.922
4.111	0.92
4.14353	0.926
4.17606	0.923
4.20859	0.919
4.24112	0.918
4.27365	0.924
4.30619	0.924
4.33872	0.931
4.37125	0.932
4.40378	0.939
4.43631	0.939
4.46884	0.941
4.50137	0.94
4.5339	0.938
4.56644	0.938
4.59897	0.938
4.6315	0.941
4.66403	0.943
4.69656	0.944
4.72909	0.943
4.76162	0.944
4.79415	0.946
4.82669	0.947
4.85922	0.947
4.89175	0.944
4.92428	0.944
4.95681	0.944
4.98934	0.939
5.02187	0.934
5.0544	0.928
5.08693	0.931
5.11947	0.935
5.152	0.939
5.18453	0.943
5.21706	0.943
5.24959	0.939
5.28212	0.94
5.31465	0.941
5.34718	0.938
5.37972	0.933
5.41225	0.919
5.44478	0.866
5.47731	0.846
5.50984	0.907
5.54237	0.923
5.5749	0.931
5.60743	0.931
5.63997	0.932
5.6725	0.93
5.70503	0.927
5.73756	0.93
5.77009	0.927
5.80262	0.92
5.83515	0.922
5.86768	0.917
5.90022	0.902
5.93275	0.86
5.96528	0.819
5.99781	0.839
6.03034	0.78
6.06287	0.543
6.0954	0.588
6.12793	0.79
6.16047	0.857
6.193	0.876
6.22553	0.884
6.25806	0.881
6.29059	0.877
6.32312	0.879
6.35565	0.891
6.38818	0.888
6.42072	0.891
6.45325	0.887
6.48578	0.883
6.51831	0.881
6.55084	0.879
6.58337	0.876
6.6159	0.863
6.64843	0.849
6.68096	0.829
6.7135	0.79
6.74603	0.698
6.77856	0.605
6.81109	0.391
6.84362	0.29
6.87615	0.223
6.90868	0.295
6.94121	0.358
6.97375	0.516
7.00628	0.571
7.03881	0.488
7.07134	0.596
7.10387	0.7
7.1364	0.74
7.16893	0.728
7.20146	0.587
7.234	0.355
7.26653	0.302
7.29906	0.549
7.33159	0.644
7.36412	0.717
7.39665	0.733
7.42918	0.743
7.46171	0.754
7.49425	0.788
7.52678	0.798
7.55931	0.799
7.59184	0.802
7.62437	0.813
7.6569	0.817
7.68943	0.81
7.72196	0.811
7.7545	0.806
7.78703	0.818
7.81956	0.833
7.85209	0.857
7.88462	0.868
7.91715	0.872
7.94968	0.873
7.98221	0.868
8.01475	0.847
8.04728	0.838
8.07981	0.845
8.11234	0.848
8.14487	0.845
8.1774	0.837
8.20993	0.837
8.24246	0.847
8.27499	0.857
8.30753	0.857
8.34006	0.856
8.37259	0.853
8.40512	0.847
8.43765	0.853
8.47018	0.86
8.50271	0.87
8.53524	0.872
8.56778	0.872
8.60031	0.868
8.63284	0.863
8.66537	0.864
8.6979	0.862
8.73043	0.849
8.76296	0.829
8.79549	0.821
8.82803	0.826
8.86056	0.832
8.89309	0.827
8.92562	0.78
8.95815	0.706
8.99068	0.678
9.02321	0.672
9.05574	0.694
9.08828	0.729
9.12081	0.745
9.15334	0.747
9.18587	0.748
9.2184	0.76
9.25093	0.78
9.28346	0.784
9.31599	0.784
9.34853	0.783
9.38106	0.793
9.41359	0.813
9.44612	0.826
9.47865	0.832
9.51118	0.841
9.54371	0.848
9.57624	0.852
9.60877	0.854
9.64131	0.853
9.67384	0.845
9.70637	0.832
9.7389	0.824
9.77143	0.813
9.80396	0.806
9.83649	0.802
9.86902	0.797
9.90156	0.772
9.93409	0.724
9.96662	0.647
9.99915	0.501
10.0317	0.371
10.0642	0.266
10.0967	0.393
10.1293	0.51
10.1618	0.572
10.1943	0.625
10.2269	0.678
10.2594	0.715
10.2919	0.754
10.3245	0.782
10.357	0.798
10.3895	0.811
10.4221	0.814
10.4546	0.819
10.4871	0.819
10.5196	0.808
10.5522	0.808
10.5847	0.809
10.6172	0.803
10.6498	0.8
10.6823	0.799
10.7148	0.79
10.7474	0.776
10.7799	0.741
10.8124	0.678
10.845	0.605
10.8775	0.514
10.91	0.36
10.9426	0.176
10.9751	0.06
11.0076	0.058
11.0401	0.142
11.0727	0.285
11.1052	0.451
11.1377	0.571
11.1703	0.651
11.2028	0.696
11.2353	0.708
11.2679	0.698
11.3004	0.69
11.3329	0.719
11.3655	0.772
11.398	0.81
11.4305	0.827
11.4631	0.837
11.4956	0.844
11.5281	0.847
11.5606	0.848
11.5932	0.848
11.6257	0.85
11.6582	0.857
11.6908	0.858
11.7233	0.856
11.7558	0.846
11.7884	0.823
11.8209	0.792
11.8534	0.748
11.886	0.717
11.9185	0.698
11.951	0.689
11.9836	0.673
12.0161	0.649
12.0486	0.638
12.0811	0.637
12.1137	0.639
12.1462	0.645
12.1787	0.657
12.2113	0.686
12.2438	0.719
12.2763	0.755
12.3089	0.782
12.3414	0.806
12.3739	0.821
12.4065	0.831
12.439	0.837
12.4715	0.84
12.5041	0.846
12.5366	0.847
12.5691	0.848
12.6016	0.852
12.6342	0.855
12.6667	0.86
12.6992	0.861
12.7318	0.86
12.7643	0.862
12.7968	0.866
12.8294	0.872
12.8619	0.879
12.8944	0.881
12.927	0.884
12.9595	0.885
12.992	0.886
13.0246	0.885
13.0571	0.883
13.0896	0.879
13.1221	0.873
13.1547	0.865
13.1872	0.853
13.2197	0.839
13.2523	0.823
13.2848	0.809
13.3173	0.802
13.3499	0.798
13.3824	0.794
13.4149	0.79
13.4475	0.784
13.48	0.775
13.5125	0.766
13.5451	0.758
13.5776	0.754
13.6101	0.76
13.6426	0.772
13.6752	0.791
13.7077	0.808
13.7402	0.819
13.7728	0.83
13.8053	0.836
13.8378	0.841
13.8704	0.845
13.9029	0.846
13.9354	0.846
13.968	0.846
14.0005	0.846
14.033	0.841
14.0656	0.842
14.0981	0.842
14.1306	0.839
14.1631	0.834
14.1957	0.831
14.2282	0.827
14.2607	0.823
14.2933	0.819
14.3258	0.814
14.3583	0.805
14.3909	0.799
14.4234	0.794
14.4559	0.78
14.4885	0.769
14.521	0.759
14.5535	0.746
14.5861	0.723
14.6186	0.697
14.6511	0.653
14.6836	0.605
14.7162	0.561
14.7487	0.536
14.7812	0.532
14.8138	0.55
14.8463	0.575
14.8788	0.606
14.9114	0.626
14.9439	0.636
14.9764	0.662
15.009	0.68
