Infrared Spectrum: MCPA-Ester
Formula: C9 H9 Cl O3
CAS: 2436-73-9
State: gas
Instrument: HP-GC/MS/IRD
Origin: NIST Mass Spectrometry Data Center
1/CM	ABSORBANCE
550	0.00253
562	0.003013
574	0.001886
586	0.00115
598	0.001058
610	0.001196
622	0.001633
634	0.005543
646	0.020539
658	0.00989
670	0.002829
682	0.00253
694	0.003381
706	0.00368
718	0.002323
730	0.001173
742	0.002392
754	0.005819
766	0.004347
778	0.006187
790	0.015594
802	0.027048
814	0.01679
826	0.009752
838	0.010051
850	0.008395
862	0.011592
874	0.02737
886	0.023644
898	0.004485
910	0.001288
922	0.000322
934	0.000138
946	0.000437
958	0.001863
970	0.005267
982	0.010695
994	0.016054
1006	0.020102
1018	0.025415
1030	0.029762
1042	0.032338
1054	0.036685
1066	0.041469
1078	0.036248
1090	0.02093
1102	0.019021
1114	0.031234
1126	0.066677
1138	0.078775
1150	0.0529
1162	0.082777
1174	0.204056
1186	0.194396
1198	0.113436
1210	0.102833
1222	0.095266
1234	0.087699
1246	0.072887
1258	0.061686
1270	0.067045
1282	0.071415
1294	0.067712
1306	0.045701
1318	0.024748
1330	0.014628
1342	0.010879
1354	0.011316
1366	0.012443
1378	0.013846
1390	0.015847
1402	0.022103
1414	0.01449
1426	0.018561
1438	0.034017
1450	0.034109
1462	0.031579
1474	0.063135
1486	0.134412
1498	0.091057
1510	0.03013
1522	0.014076
1534	0.008901
1546	0.006072
1558	0.005083
1570	0.005474
1582	0.006992
1594	0.008694
1606	0.006095
1618	0.003013
1630	0.002139
1642	0.001748
1654	0.001426
1666	0.001472
1678	0.001817
1690	0.002369
1702	0.003818
1714	0.007452
1726	0.014881
1738	0.027991
1750	0.058489
1762	0.106881
1774	0.077648
1786	0.088366
1798	0.042987
1810	0.016951
1822	0.008602
1834	0.005336
1846	0.003634
1858	0.002392
1870	0.002001
1882	0.001656
1894	0.001219
1906	0.000851
1918	0.000667
1930	0.000736
1942	0.000759
1954	0.000759
1966	0.000828
1978	0.000874
1990	0.000759
2002	0.000644
2014	0.000759
2026	0.000851
2038	0.000989
2050	0.001104
2062	0.001104
2074	0.001081
2086	0.001081
2098	0.001058
2110	0.001081
2122	0.001012
2134	0.000874
2146	0.00069
2158	0.000552
2170	0.000368
2182	0.000253
2194	0.000115
2206	9.2e-05
2218	0.000115
2230	0.000207
2242	0.000368
2254	0.000276
2266	0.00023
2278	0.000207
2290	0.000138
2302	4.6e-05
2314	2.3e-05
2326	4.6e-05
2338	4.6e-05
2350	0.000184
2362	0.000253
2374	0.000253
2386	0.000161
2398	0.000161
2410	0.000161
2422	6.9e-05
2434	0.000115
2446	0.00023
2458	0.000437
2470	0.000552
2482	0.000529
2494	0.000391
2506	0.000276
2518	0.000368
2530	0.000437
2542	0.000483
2554	0.000345
2566	0.000276
2578	0.000253
2590	0.000161
2602	0.000161
2614	0.000138
2626	0.000115
2638	0.000115
2650	0.000207
2662	0.000253
2674	0.000276
2686	0.000299
2698	0.000345
2710	0.000437
2722	0.000575
2734	0.000805
2746	0.000989
2758	0.000805
2770	0.000713
2782	0.000782
2794	0.00092
2806	0.001173
2818	0.001748
2830	0.002783
2842	0.004922
2854	0.008878
2866	0.009338
2878	0.009085
2890	0.008993
2902	0.011086
2914	0.015203
2926	0.022425
2938	0.030245
2950	0.03036
2962	0.0414
2974	0.025645
2986	0.016031
2998	0.012765
3010	0.010764
3022	0.009522
3034	0.010672
3046	0.009269
3058	0.007038
3070	0.006348
3082	0.005681
3094	0.005129
3106	0.004416
3118	0.002645
3130	0.001518
3142	0.001058
3154	0.000782
3166	0.000598
3178	0.00046
3190	0.000391
3202	0.000276
3214	0.000138
3226	0.000161
3238	9.2e-05
3250	6.9e-05
3262	2.3e-05
3274	2.3e-05
3286	4.6e-05
3298	2.3e-05
3310	2.3e-05
3322	2.3e-05
3334	0
3346	0
3358	2.3e-05
3370	2.3e-05
3382	0
3394	2.3e-05
3406	9.2e-05
3418	4.6e-05
3430	0.000115
3442	0.000138
3454	0.000138
3466	0.000276
3478	0.000391
3490	0.000713
3502	0.001127
3514	0.001012
3526	0.000874
3538	0.000897
3550	0.00092
3562	0.00069
3574	0.000575
3586	0.000345
3598	0.000253
3610	0.000184
3622	0.000184
3634	0.000184
3646	0.000184
3658	0.000138
3670	0.000184
3682	0.000115
3694	0.000161
3706	0.000161
3718	0.000161
3730	0.000207
3742	0.000184
3754	0.00023
3766	0.000161
3778	0.000184
3790	0.000253
3802	0.000207
3814	0.000207
3826	0.000299
3838	0.000322
