Infrared Spectrum: Urea, benzimidazol-2-yl-
Formula: C8 H8 N4 O
CAS: 24370-25-0
State: SOLID (SPLIT MULL), FLUOROLUBE FOR 3800-1330 CM^-^1, NUJOL FOR 1330-460 CM^-^1
Melting point: 320 C
Class: COBLENTZ III
Instrument: DOW KBr FOREPRISM-GRATING
Instrument parameters: BLAZED AT 3.5, 12.0, 20.0 MICRON AND CHANGED AT 5.0, 7.5, 14.9 MICRON
Sampling: TRANSMISSION
Resolution: 2
Origin: DOW CHEMICAL COMPANY
1/CM	TRANSMITTANCE
455	0.7528
464	0.7618
473	0.7653
482	0.7597
491	0.7245
500	0.6815
509	0.7901
518	0.7962
527	0.7988
536	0.795
545	0.7403
554	0.7801
563	0.8175
572	0.8261
581	0.8065
590	0.8184
599	0.8106
608	0.7994
617	0.7704
626	0.7885
635	0.7388
644	0.6549
653	0.5486
662	0.4021
671	0.5791
680	0.7167
689	0.7656
698	0.7762
707	0.7643
716	0.7132
725	0.4847
734	0.5901
743	0.3796
752	0.4794
761	0.3778
770	0.5223
779	0.5587
788	0.736
797	0.7471
806	0.7442
815	0.7436
824	0.7494
833	0.7525
842	0.7325
851	0.7271
860	0.6956
869	0.7042
878	0.7289
887	0.7724
896	0.6485
905	0.7598
914	0.7991
923	0.8056
932	0.834
941	0.8398
950	0.8374
959	0.8271
968	0.7935
977	0.679
986	0.7805
995	0.8468
1004	0.636
1013	0.8151
1022	0.864
1031	0.8686
1040	0.8705
1049	0.8617
1058	0.8458
1067	0.8061
1076	0.734
1085	0.8053
1094	0.6835
1103	0.5986
1112	0.764
1121	0.8388
1130	0.8457
1139	0.8351
1148	0.8125
1157	0.8135
1166	0.8085
1175	0.7958
1184	0.7464
1193	0.4988
1202	0.6774
1211	0.7604
1220	0.6988
1229	0.4783
1238	0.7674
1247	0.7558
1256	0.6976
1265	0.556
1274	0.2027
1283	0.4716
1292	0.5107
1301	0.3237
1310	0.2173
1319	0.1367
1328	0.2075
1337	0.4843
1346	0.4996
1355	0.5566
1364	0.5837
1373	0.536
1382	0.6151
1391	0.6097
1400	0.5912
1409	0.5686
1418	0.5417
1427	0.504
1436	0.4287
1445	0.4878
1454	0.5165
1463	0.4689
1472	0.6575
1481	0.6318
1490	0.6066
1499	0.5709
1508	0.5402
1517	0.5007
1526	0.4508
1535	0.3996
1544	0.3686
1553	0.3409
1562	0.2583
1571	0.1928
1580	0.1892
1589	0.3604
1598	0.5597
1607	0.6825
1616	0.6468
1625	0.4996
1634	0.403
1643	0.4269
1652	0.5006
1661	0.719
1670	0.6818
1679	0.6112
1688	0.5155
1697	0.3923
1706	0.2437
1715	0.387
1724	0.7401
1733	0.8762
1742	0.8911
1751	0.8931
1760	0.8915
1769	0.8865
1778	0.8773
1787	0.8698
1796	0.8635
1805	0.8571
1814	0.851
1823	0.8453
1832	0.8408
1841	0.8394
1850	0.8361
1859	0.8268
1868	0.8182
1877	0.8139
1886	0.8175
1895	0.8178
1904	0.8121
1913	0.8048
1922	0.8
1931	0.8025
1940	0.801
1949	0.7975
1958	0.7943
1967	0.7934
1976	0.7908
1985	0.7861
1994	0.7884
2003	0.7849
2012	0.7822
2021	0.7791
2030	0.7744
2039	0.7703
2048	0.7668
2057	0.7633
2066	0.7595
2075	0.7557
2084	0.7519
2093	0.7478
2102	0.7434
2111	0.7387
2120	0.7338
2129	0.7288
2138	0.7235
2147	0.7182
2156	0.713
2165	0.7076
2174	0.7025
2183	0.6971
2192	0.6919
2201	0.6865
2210	0.681
2219	0.6749
2228	0.6685
2237	0.6617
2246	0.6551
2255	0.6487
2264	0.6424
2273	0.6362
2282	0.6318
2291	0.6274
2300	0.6229
2309	0.6184
2318	0.6145
2327	0.612
2336	0.6119
2345	0.613
2354	0.6136
2363	0.6139
2372	0.6142
2381	0.6141
2390	0.614
2399	0.6134
2408	0.6128
2417	0.6119
2426	0.611
2435	0.61
2444	0.6082
2453	0.6062
2462	0.6041
2471	0.6018
2480	0.5995
2489	0.5969
2498	0.5943
2507	0.5917
2516	0.5893
2525	0.5868
2534	0.5843
2543	0.5814
2552	0.5786
2561	0.5758
2570	0.5729
2579	0.5699
2588	0.5669
2597	0.5639
2606	0.5609
2615	0.5578
2624	0.5548
2633	0.5516
2642	0.5482
2651	0.5447
2660	0.5412
2669	0.5377
2678	0.5334
2687	0.5288
2696	0.5241
2705	0.5194
2714	0.514
2723	0.5087
2732	0.5038
2741	0.4991
2750	0.4943
2759	0.4893
2768	0.4839
2777	0.4785
2786	0.4731
2795	0.4678
2804	0.4625
2813	0.4584
2822	0.4568
2831	0.4557
2840	0.4592
2849	0.4617
2858	0.4644
2867	0.4673
2876	0.4689
2885	0.4681
2894	0.4641
2903	0.4601
2912	0.4585
2921	0.4571
2930	0.456
2939	0.456
2948	0.4575
2957	0.4593
2966	0.4588
2975	0.4557
2984	0.4547
2993	0.4554
3002	0.4559
3011	0.4547
3020	0.4527
3029	0.4508
3038	0.4504
3047	0.4564
3056	0.4643
3065	0.4691
3074	0.4723
3083	0.4745
3092	0.4773
3101	0.4784
3110	0.4746
3119	0.4682
3128	0.4619
3137	0.4554
3146	0.4478
3155	0.4447
3164	0.4472
3173	0.4544
3182	0.4596
3191	0.458
3200	0.4529
3209	0.4497
3218	0.4523
3227	0.4521
3236	0.4479
3245	0.4421
3254	0.4343
3263	0.426
3272	0.418
3281	0.4094
3290	0.399
3299	0.3879
3308	0.376
3317	0.361
3326	0.3423
3335	0.3191
3344	0.2914
3353	0.2564
3362	0.2676
3371	0.3712
3380	0.4978
3389	0.5264
3398	0.5375
3407	0.5454
3416	0.5486
3425	0.5427
3434	0.5316
3443	0.5156
3452	0.4942
3461	0.467
3470	0.4332
3479	0.3904
3488	0.388
3497	0.571
3506	0.5905
3515	0.5833
3524	0.5736
3533	0.5637
3542	0.5546
3551	0.5465
3560	0.5404
3569	0.5358
3578	0.5318
3587	0.5282
3596	0.5248
3605	0.5212
3614	0.5177
3623	0.5141
3632	0.5107
3641	0.5073
3650	0.5035
3659	0.4996
3668	0.4957
3677	0.4917
3686	0.4877
3695	0.4837
3704	0.4798
3713	0.476
3722	0.4724
3731	0.4688
3740	0.4656
3749	0.4623
3758	0.4598
3767	0.4572
3776	0.4546
3785	0.452
3794	0.4493
