Infrared Spectrum: PHENYL P-CHLORO-BENZENE SULFONATE
Formula: C12 H9 Cl O3 S
CAS: 2437-33-4
State: SOLID (MINERAL OIL MULL)
Melting point: 90-91 C
Class: COBLENTZ
Instrument: Not specified, most likely a prism, grating, or hybrid spectrometer.
Sampling: TRANSMISSION
Resolution: 4
Origin: WYANDOTTE CHEMICALS CORP., WYANDOTTE, MICHIGAN, USA
MICROMETERS	TRANSMITTANCE
2.068	0.499
2.10888	0.514
2.14975	0.526
2.19063	0.526
2.23151	0.531
2.27238	0.535
2.31326	0.548
2.35413	0.557
2.39501	0.558
2.43589	0.574
2.47676	0.581
2.51764	0.589
2.55852	0.594
2.59939	0.606
2.64027	0.605
2.68115	0.606
2.72202	0.617
2.7629	0.623
2.80378	0.627
2.84465	0.632
2.88553	0.635
2.9264	0.634
2.96728	0.634
3.00816	0.635
3.04903	0.635
3.08991	0.637
3.13079	0.639
3.17166	0.623
3.21254	0.605
3.25342	0.483
3.29429	0.512
3.33517	0.435
3.37604	0.085
3.41692	0.049
3.4578	0.133
3.49867	0.179
3.53955	0.338
3.58043	0.764
3.6213	0.801
3.66218	0.8
3.70306	0.798
3.74393	0.798
3.78481	0.796
3.82569	0.803
3.86656	0.806
3.90744	0.801
3.94831	0.805
3.98919	0.827
4.03007	0.842
4.07094	0.847
4.11182	0.841
4.1527	0.849
4.19357	0.852
4.23445	0.849
4.27533	0.841
4.3162	0.835
4.35708	0.834
4.39795	0.849
4.43883	0.858
4.47971	0.854
4.52058	0.871
4.56146	0.876
4.60234	0.882
4.64321	0.89
4.68409	0.887
4.72497	0.897
4.76584	0.902
4.80672	0.907
4.84759	0.912
4.88847	0.912
4.92935	0.912
4.97022	0.912
5.0111	0.919
5.05198	0.912
5.09285	0.9
5.13373	0.919
5.17461	0.907
5.21548	0.875
5.25636	0.894
5.29724	0.883
5.33811	0.911
5.37899	0.885
5.41986	0.923
5.46074	0.928
5.50162	0.933
5.54249	0.933
5.58337	0.928
5.62425	0.878
5.66512	0.902
5.706	0.935
5.74688	0.9
5.78775	0.936
5.82863	0.929
5.8695	0.924
5.91038	0.929
5.95126	0.929
5.99213	0.917
6.03301	0.866
6.07389	0.87
6.11476	0.899
6.15564	0.914
6.19652	0.904
6.23739	0.702
6.27827	0.29
6.31915	0.435
6.36002	0.574
6.4009	0.729
6.44177	0.835
6.48265	0.859
6.52353	0.87
6.5644	0.852
6.60528	0.835
6.64616	0.75
6.68703	0.495
6.72791	0.4
6.76879	0.213
6.80966	0.353
6.85054	0.319
6.89141	0.435
6.93229	0.582
6.97317	0.731
7.01404	0.805
7.05492	0.791
7.0958	0.683
7.13667	0.369
7.17755	0.29
7.21843	0.121
7.2593	0.041
7.30018	0.177
7.34106	0.34
7.38193	0.461
7.42281	0.6
7.46368	0.658
7.50456	0.673
7.54544	0.658
7.58631	0.757
7.62719	0.798
7.66807	0.808
7.70894	0.822
7.74982	0.741
7.7907	0.514
7.83157	0.547
7.87245	0.735
7.91332	0.803
7.9542	0.825
7.99508	0.83
8.03595	0.8
8.07683	0.818
8.11771	0.818
8.15858	0.8
8.19946	0.765
8.24034	0.721
8.28121	0.615
8.32209	0.241
8.36296	0.08
8.40384	0.268
8.44472	0.186
8.48559	0.097
8.52647	0.097
8.56735	0.123
8.60822	0.268
8.6491	0.222
8.68998	0.092
8.73085	0.109
8.77173	0.235
8.81261	0.459
8.85348	0.576
8.89436	0.646
8.93523	0.666
8.97611	0.567
9.01699	0.547
9.05786	0.478
9.09874	0.302
9.13962	0.131
9.18049	0.056
9.22137	0.205
9.26225	0.485
9.30312	0.569
9.344	0.41
9.38487	0.629
9.42575	0.747
9.46663	0.779
9.5075	0.769
9.54838	0.779
9.58926	0.803
9.63013	0.822
9.67101	0.825
9.71189	0.818
9.75276	0.745
9.79364	0.558
9.83452	0.517
9.87539	0.511
9.91627	0.682
9.95714	0.781
9.99802	0.793
10.0389	0.823
10.0798	0.811
10.1206	0.842
10.1615	0.839
10.2024	0.817
10.2433	0.8
10.2842	0.818
10.325	0.8
10.3659	0.817
10.4068	0.834
10.4477	0.844
10.4885	0.817
10.5294	0.77
10.5703	0.832
10.6112	0.852
10.652	0.847
10.6929	0.841
10.7338	0.834
10.7747	0.82
10.8155	0.81
10.8564	0.765
10.8973	0.664
10.9382	0.444
10.9791	0.345
11.0199	0.555
11.0608	0.733
11.1017	0.784
11.1426	0.793
11.1834	0.782
11.2243	0.764
11.2652	0.75
11.3061	0.735
11.3469	0.695
11.3878	0.658
11.4287	0.606
11.4696	0.548
11.5104	0.505
11.5513	0.458
11.5922	0.355
11.6331	0.191
11.674	0.076
11.7148	0.061
11.7557	0.116
11.7966	0.241
11.8375	0.422
11.8783	0.509
11.9192	0.531
11.9601	0.673
12.001	0.644
12.0418	0.329
12.0827	0.162
12.1236	0.177
12.1645	0.08
12.2053	0.158
12.2462	0.28
12.2871	0.41
12.328	0.492
12.3689	0.536
12.4097	0.565
12.4506	0.581
12.4915	0.598
12.5324	0.591
12.5732	0.552
12.6141	0.48
12.655	0.382
12.6959	0.232
12.7367	0.095
12.7776	0.049
12.8185	0.061
12.8594	0.133
12.9002	0.225
12.9411	0.323
12.982	0.398
13.0229	0.422
13.0638	0.437
13.1046	0.4
13.1455	0.21
13.1864	0.157
13.2273	0.249
13.2681	0.464
13.309	0.593
13.3499	0.663
13.3908	0.687
13.4316	0.69
13.4725	0.726
13.5134	0.764
13.5543	0.782
13.5951	0.798
13.636	0.798
13.6769	0.793
13.7178	0.774
13.7586	0.717
13.7995	0.605
13.8404	0.379
13.8813	0.176
13.9222	0.14
13.963	0.263
14.0039	0.423
14.0448	0.555
14.0857	0.639
14.1265	0.702
14.1674	0.728
14.2083	0.733
14.2492	0.758
14.29	0.762
14.3309	0.765
14.3718	0.776
14.4127	0.786
14.4535	0.779
14.4944	0.714
14.5353	0.608
14.5762	0.451
14.6171	0.323
14.6579	0.311
14.6988	0.408
14.7397	0.558
14.7806	0.68
14.8214	0.748
14.8623	0.776
14.9032	0.801
14.9441	0.82
14.9849	0.829
15.0258	0.811
15.0667	0.791
15.1076	0.788
15.1484	0.827
15.1893	0.837
15.2302	0.835
15.2711	0.822
15.312	0.82
15.3528	0.811
15.3937	0.805
15.4346	0.806
15.4755	0.803
15.5163	0.791
15.5572	0.788
15.5981	0.779
15.639	0.774
15.6798	0.757
15.7207	0.731
15.7616	0.711
15.8025	0.683
15.8433	0.661
15.8842	0.637
15.9251	0.608
15.966	0.565
