Infrared Spectrum: 4-n-Propylbenzoic acid
Formula: C 10 H 12 O 2
CAS: 2438-05-3
State: gas
Origin: EPA-IR VAPOR PHASE LIBRARY
1/CM	ABSORBANCE
549.8	0.0059419
559.445	0.0073619
569.09	0.0094419
578.735	0.0080119
588.38	0.0071119
598.025	0.0066519
607.67	0.0061219
617.315	0.0068819
626.96	0.0026919
636.605	0.0019019
646.251	0.0013719
655.896	0.0012019
665.541	0.0013219
675.186	0.0017419
684.831	0.0039319
694.476	0.0086419
704.121	0.0095319
713.766	0.0069219
723.411	0.0066819
733.056	0.0072619
742.701	0.0071019
752.346	0.0094319
761.991	0.0104619
771.636	0.0084419
781.281	0.0059919
790.926	0.0033419
800.571	0.0019319
810.216	0.0015219
819.861	0.0013519
829.507	0.0015119
839.152	0.0020519
848.797	0.0028119
858.442	0.0026919
868.087	0.0022319
877.732	0.0012919
887.377	0.0010519
897.022	0.0007411
906.667	0.0007096
916.312	0.0006132
925.957	0.0005445
935.602	0.0004713
945.247	0.0005054
954.892	0.0005689
964.537	0.0006148
974.182	0.0007164
983.827	0.0008306
993.472	0.0011319
1003.12	0.0017319
1012.76	0.0053619
1022.41	0.0070119
1032.05	0.0035019
1041.7	0.0038819
1051.34	0.0072619
1060.99	0.0157319
1070.63	0.0289719
1080.28	0.0441319
1089.92	0.0322019
1099.57	0.0116119
1109.21	0.0061519
1118.86	0.0051519
1128.5	0.0048119
1138.15	0.0051519
1147.79	0.0067219
1157.44	0.0143219
1167.08	0.0393519
1176.73	0.0417319
1186.37	0.0215219
1196.02	0.0159219
1205.66	0.0069119
1215.31	0.0044519
1224.95	0.0040619
1234.6	0.0044919
1244.24	0.0052019
1253.89	0.0064319
1263.53	0.0078319
1273.18	0.0077019
1282.82	0.0067619
1292.47	0.0069119
1302.11	0.0078319
1311.76	0.0094519
1321.4	0.0111519
1331.05	0.0105319
1340.69	0.0100519
1350.34	0.0132719
1359.98	0.0186719
1369.63	0.0119319
1379.27	0.0052419
1388.92	0.0038019
1398.56	0.0035719
1408.21	0.0047219
1417.85	0.0055219
1427.5	0.0034319
1437.14	0.0023619
1446.79	0.0025219
1456.43	0.0029219
1466.08	0.0028219
1475.73	0.0020919
1485.37	0.0014619
1495.02	0.0013819
1504.66	0.0017619
1514.31	0.0017019
1523.95	0.0010619
1533.6	0.0008651
1543.24	0.0009113
1552.89	0.0011419
1562.53	0.0016419
1572.18	0.0022619
1581.82	0.0021319
1591.47	0.0031019
1601.11	0.0073119
1610.76	0.0111619
1620.4	0.0072019
1630.05	0.0025819
1639.69	0.0013319
1649.34	0.0010284
1658.98	0.0009733
1668.63	0.0011019
1678.27	0.0014719
1687.92	0.0021219
1697.56	0.0028519
1707.21	0.0035219
1716.85	0.0045419
1726.5	0.0058019
1736.14	0.0124319
1745.79	0.0378919
1755.43	0.0978219
1765.08	0.0794419
1774.72	0.0216819
1784.37	0.0078819
1794.01	0.0047519
1803.66	0.0038219
1813.3	0.0030819
1822.95	0.0023019
1832.59	0.0012819
1842.24	0.000721
1851.88	0.0005045
1861.53	0.0004531
1871.17	0.0004717
1880.82	0.0004512
1890.46	0.0004392
1900.11	0.0005844
1909.75	0.0007784
1919.4	0.0010086
1929.04	0.0010332
1938.69	0.0008766
1948.33	0.0005895
1957.98	0.0004042
1967.62	0.0002873
1977.27	0.0002501
1986.91	0.000227
1996.56	0.0001983
2006.2	0.00012264
2015.85	0.0001579
2025.49	0.0001459
2035.14	0.0001639
2044.78	0.00012668
2054.43	0.0001109
2064.07	7.529e-05
2073.72	7.04e-05
2083.36	0.00010247
2093.01	7.92e-05
2102.65	9.819e-05
2112.3	0.0001611
2121.94	0.0001315
2131.59	0.000152
2141.23	0.0002089
2150.88	0.0002564
2160.52	0.0002643
2170.17	0.0001761
2179.81	4.9825e-05
2189.46	6.924e-05
2199.1	4.07e-05
2208.75	8.463e-05
2218.39	2.64e-05
2228.04	4.6864e-05
2237.68	4.7078e-05
2247.33	0.00011697
2256.97	7.534e-05
2266.62	7.001e-05
2276.26	0.00012541
2285.91	0.000151
2295.55	0.00013924
2305.2	0.000225
2314.84	0.0001663
2324.49	0.0001675
2334.13	0.0001963
2343.78	0.0002335
2353.42	0.0002056
2363.07	0.0002399
2372.72	0.0001943
2382.36	0.0001751
2392.01	0.0002013
2401.65	0.0002434
2411.3	0.0002474
2420.94	0.0002146
2430.59	0.0002462
2440.23	0.0002011
2449.88	0.0001368
2459.52	0.00012664
2469.17	0.00013251
2478.81	0.00012722
2488.46	0.00011044
2498.1	9.608e-05
2507.75	0.00013799
2517.39	0.00012524
2527.04	0.0002006
2536.68	9.353e-05
2546.33	0.00011166
2555.97	0.0001541
2565.62	0.0001568
2575.26	0.0001465
2584.91	0.00012728
2594.55	0.0002024
2604.2	0.0001841
2613.84	0.00014047
2623.49	0.00010591
2633.13	0.00011883
2642.78	9.319e-05
2652.42	0.0001094
2662.07	0.00012706
2671.71	0.0002222
2681.36	0.0002502
2691	0.0002467
2700.65	0.0001186
2710.29	0.0001901
2719.94	0.0002128
2729.58	0.0002257
2739.23	0.0003196
2748.87	0.0004555
2758.52	0.0003012
2768.16	0.0004378
2777.81	0.0004681
2787.45	0.00052
2797.1	0.0005763
2806.74	0.0007544
2816.39	0.000901
2826.03	0.0011219
2835.68	0.0014519
2845.32	0.0020419
2854.97	0.0032319
2864.61	0.0047619
2874.26	0.0070919
2883.9	0.0087419
2893.55	0.0063319
2903.19	0.0053419
2912.84	0.0065219
2922.48	0.0095619
2932.13	0.0148119
2941.77	0.0177019
2951.42	0.0140219
2961.06	0.0131919
2970.71	0.0163719
2980.35	0.0124519
2990	0.0056719
2999.64	0.0037119
3009.29	0.0031219
3018.93	0.0027919
3028.58	0.0032319
3038.22	0.0043819
3047.87	0.0037519
3057.51	0.0025019
3067.16	0.0019919
3076.8	0.0018119
3086.45	0.0019119
3096.09	0.0017819
3105.74	0.0013919
3115.38	0.0009835
3125.03	0.0007317
3134.67	0.0007597
3144.32	0.0004771
3153.96	0.0004121
3163.61	0.0004103
3173.25	0.0002912
3182.9	0.0004101
3192.54	0.0003474
3202.19	0.0002994
3211.83	0.0002805
3221.48	0.0001788
3231.12	0.0002271
3240.77	0.0001628
3250.41	9.776e-05
3260.06	0.00011053
3269.7	0.0003312
3279.35	0.000198
3289	0.0003287
3298.64	0.0002126
3308.29	0.00014108
3317.93	4.7052e-05
3327.58	0.0001756
3337.22	0.0001716
3346.87	0.0001589
3356.51	0.0001711
3366.16	4.6091e-05
3375.8	0.0003956
3385.45	0.0002838
3395.09	0.0001998
3404.74	4.9e-06
3414.38	0.0002891
3424.03	0.0003434
3433.67	0.000178
3443.32	0.0002888
3452.96	0.0002846
3462.61	0.0003068
3472.25	0.000186
3481.9	0.0004918
3491.54	0.000587
3501.19	0.0010041
3510.83	0.0005513
3520.48	0.0004374
3530.12	0.0004487
3539.77	0.00053
3549.41	0.0005484
3559.06	0.0012519
3568.7	0.0050019
3578.35	0.0256219
3587.99	0.0280919
3597.64	0.0039619
3607.28	0.0012019
3616.93	0.0005047
3626.57	0.0003624
3636.22	0.0004475
3645.86	0.0005055
3655.51	0.0004526
3665.15	0.0002721
3674.8	0.0003019
3684.44	0.0003039
3694.09	0.0005033
3703.73	0.0003554
3713.38	0.000356
3723.02	0.0003354
3732.67	0.0002587
3742.31	0.0004116
3751.96	0.0003493
3761.6	0.0001951
3771.25	0.0002679
3780.89	0.0002
3790.54	0.0004485
3800.18	0.0002663
3809.83	0.0004635
3819.47	0.0001648
3829.12	0.0002763
3838.76	0.0003519
3848.41	0.0002488
3858.05	0.0001513
3867.7	0.0003046
3877.34	0.0002898
3886.99	0.0002581
3896.63	0.0002321
3906.28	0.0003139
3915.92	0.0003257
3925.57	0.000366
3935.21	0.0004077
3944.86	0.0002833
3954.5	0.0003487
3964.15	0.0004277
3973.79	0.0003315
3983.44	0.00013591
3993.08	0.0004413
