Infrared Spectrum: VALERAMIDE, N-CYCLOHEXYL-2,2,4-TRIMETHYL-3-OXO-
Formula: C14 H25 N O2
CAS: 24388-84-9
State: SOLID (KBr PELLET)
Melting point: 94.5 C
Class: COBLENTZ
Instrument: Not specified, most likely a prism, grating, or hybrid spectrometer.
Sampling: TRANSMISSION
Resolution: 4
Origin: TENNESSEE EASTMAN COMPANY, RESEARCH LABORATORIES
MICROMETERS	TRANSMITTANCE
2.02	0.843
2.06088	0.843
2.10175	0.848
2.14263	0.846
2.1835	0.85
2.22438	0.846
2.26526	0.84
2.30613	0.84
2.34701	0.848
2.38788	0.85
2.42876	0.853
2.46964	0.86
2.51051	0.865
2.55139	0.869
2.59226	0.869
2.63314	0.877
2.67402	0.882
2.71489	0.879
2.75577	0.848
2.79664	0.818
2.83752	0.787
2.8784	0.77
2.91927	0.714
2.96015	0.416
3.00102	0.168
3.0419	0.693
3.08278	0.819
3.12365	0.857
3.16453	0.877
3.2054	0.904
3.24628	0.872
3.28716	0.824
3.32803	0.481
3.36891	0.166
3.40978	0.314
3.45066	0.455
3.49154	0.641
3.53241	0.884
3.57329	0.911
3.61416	0.948
3.65504	0.959
3.69592	0.957
3.73679	0.959
3.77767	0.952
3.81855	0.967
3.85942	0.967
3.9003	0.971
3.94117	0.971
3.98205	0.969
4.02293	0.965
4.0638	0.967
4.10468	0.969
4.14555	0.969
4.18643	0.967
4.22731	0.965
4.26818	0.962
4.30906	0.96
4.34993	0.971
4.39081	0.969
4.43169	0.971
4.47256	0.969
4.51344	0.972
4.55431	0.974
4.59519	0.976
4.63607	0.976
4.67694	0.977
4.71782	0.977
4.75869	0.979
4.79957	0.981
4.84045	0.979
4.88132	0.979
4.9222	0.979
4.96307	0.981
5.00395	0.984
5.04483	0.982
5.0857	0.981
5.12658	0.979
5.16745	0.979
5.20833	0.977
5.24921	0.974
5.29008	0.976
5.33096	0.974
5.37183	0.972
5.41271	0.962
5.45359	0.96
5.49446	0.957
5.53534	0.954
5.57621	0.938
5.61709	0.926
5.65797	0.897
5.69884	0.841
5.73972	0.767
5.78059	0.443
5.82147	0.13
5.86235	0.445
5.90322	0.683
5.9441	0.644
5.98497	0.544
6.02585	0.263
6.06673	0.047
6.1076	0.025
6.14848	0.13
6.18935	0.525
6.23023	0.688
6.27111	0.755
6.31198	0.756
6.35286	0.697
6.39373	0.484
6.43461	0.117
6.47549	0.057
6.51636	0.164
6.55724	0.447
6.59811	0.6
6.63899	0.721
6.67987	0.736
6.72074	0.622
6.76162	0.36
6.80249	0.418
6.84337	0.489
6.88425	0.452
6.92512	0.595
6.966	0.748
7.00687	0.778
7.04775	0.801
7.08863	0.801
7.1295	0.77
7.17038	0.629
7.21125	0.411
7.25213	0.525
7.29301	0.649
7.33388	0.559
7.37476	0.663
7.41564	0.595
7.45651	0.646
7.49739	0.681
7.53826	0.636
7.57914	0.511
7.62002	0.576
7.66089	0.651
7.70177	0.729
7.74264	0.704
7.78352	0.619
7.8244	0.63
7.86527	0.726
7.90615	0.736
7.94702	0.576
7.9879	0.656
8.02878	0.743
8.06965	0.726
8.11053	0.799
8.1514	0.794
8.19228	0.705
8.23316	0.559
8.27403	0.603
8.31491	0.68
8.35578	0.627
8.39666	0.573
8.43754	0.539
8.47841	0.595
8.51929	0.709
8.56016	0.784
8.60104	0.807
8.64192	0.768
8.68279	0.758
8.72367	0.85
8.76454	0.874
8.80542	0.884
8.8463	0.88
8.88717	0.875
8.92805	0.874
8.96892	0.862
9.0098	0.848
9.05068	0.804
9.09155	0.69
9.13243	0.666
9.1733	0.658
9.21418	0.5
9.25506	0.632
9.29593	0.773
9.33681	0.818
9.37768	0.826
9.41856	0.819
9.45944	0.768
9.50031	0.704
9.54119	0.547
9.58206	0.25
9.62294	0.185
9.66382	0.43
9.70469	0.647
9.74557	0.751
9.78644	0.801
9.82732	0.829
9.8682	0.833
9.90907	0.782
9.94995	0.644
9.99082	0.545
10.0317	0.727
10.0726	0.835
10.1135	0.867
10.1543	0.875
10.1952	0.835
10.2361	0.704
10.277	0.654
10.3178	0.821
10.3587	0.872
10.3996	0.88
10.4405	0.869
10.4813	0.874
10.5222	0.872
10.5631	0.845
10.604	0.767
10.6448	0.738
10.6857	0.829
10.7266	0.892
10.7675	0.928
10.8083	0.947
10.8492	0.952
10.8901	0.957
10.931	0.954
10.9718	0.942
11.0127	0.942
11.0536	0.952
11.0945	0.947
11.1354	0.874
11.1762	0.671
11.2171	0.664
11.258	0.804
11.2989	0.835
11.3397	0.823
11.3806	0.744
11.4215	0.731
11.4624	0.816
11.5032	0.855
11.5441	0.869
11.585	0.874
11.6259	0.872
11.6667	0.848
11.7076	0.807
11.7485	0.811
11.7894	0.807
11.8302	0.789
11.8711	0.848
11.912	0.862
11.9529	0.869
11.9937	0.874
12.0346	0.879
12.0755	0.88
12.1164	0.88
12.1573	0.88
12.1981	0.879
12.239	0.877
12.2799	0.877
12.3208	0.874
12.3616	0.87
12.4025	0.862
12.4434	0.843
12.4843	0.811
12.5251	0.809
12.566	0.836
12.6069	0.843
12.6478	0.841
12.6886	0.828
12.7295	0.819
12.7704	0.818
12.8113	0.833
12.8521	0.841
12.893	0.848
12.9339	0.848
12.9748	0.843
13.0157	0.835
13.0565	0.806
13.0974	0.773
13.1383	0.784
13.1792	0.816
13.22	0.831
13.2609	0.833
13.3018	0.828
13.3427	0.821
13.3835	0.811
13.4244	0.801
13.4653	0.79
13.5062	0.782
13.547	0.777
13.5879	0.775
13.6288	0.775
13.6697	0.777
13.7105	0.778
13.7514	0.78
13.7923	0.784
13.8332	0.794
13.874	0.801
13.9149	0.811
13.9558	0.814
13.9967	0.814
14.0376	0.812
14.0784	0.812
14.1193	0.809
14.1602	0.809
14.2011	0.804
14.2419	0.801
14.2828	0.799
14.3237	0.792
14.3646	0.782
14.4054	0.775
14.4463	0.761
14.4872	0.75
14.5281	0.734
14.5689	0.721
14.6098	0.705
14.6507	0.688
14.6916	0.671
14.7324	0.654
14.7733	0.637
14.8142	0.615
14.8551	0.603
14.8959	0.586
14.9368	0.574
14.9777	0.564
15.0186	0.569
15.0595	0.578
15.1003	0.583
15.1412	0.585
15.1821	0.576
15.223	0.562
15.2638	0.547
15.3047	0.534
15.3456	0.517
15.3865	0.501
15.4273	0.493
15.4682	0.481
15.5091	0.476
15.55	0.469
15.5908	0.465
15.6317	0.465
15.6726	0.462
15.7135	0.46
15.7543	0.46
15.7952	0.459
15.8361	0.459
15.877	0.459
15.9178	0.46
15.9587	0.46
15.9996	0.46
