Infrared Spectrum: ACRYLIC ACID, 2-DIMETHYL AMINOETHYL ESTER
Formula: C7 H13 N O2
CAS: 2439-35-2
Class: COBLENTZ
Instrument: Not specified, most likely a prism, grating, or hybrid spectrometer.
Sampling: TRANSMISSION
Path length: SMEAR
Resolution: 4
Origin: TENNESSEE EASTMAN COMPANY, RESEARCH LABORATORIES
MICROMETERS	TRANSMITTANCE
2.048	0.991
2.08899	0.993
2.12998	0.994
2.17096	1
2.21195	0.993
2.25294	0.96
2.29393	0.94
2.33492	0.948
2.37591	0.948
2.41689	0.948
2.45788	0.948
2.49887	0.95
2.53986	0.952
2.58085	0.957
2.62183	0.958
2.66282	0.967
2.70381	0.962
2.7448	0.905
2.78579	0.88
2.82677	0.878
2.86776	0.87
2.90875	0.822
2.94974	0.835
2.99073	0.835
3.03172	0.837
3.0727	0.837
3.11369	0.825
3.15468	0.825
3.19567	0.841
3.23666	0.835
3.27764	0.829
3.31863	0.661
3.35962	0.138
3.40061	0.198
3.4416	0.203
3.48259	0.227
3.52357	0.191
3.56456	0.261
3.60555	0.17
3.64654	0.473
3.68753	0.596
3.72851	0.762
3.7695	0.837
3.81049	0.873
3.85148	0.904
3.89247	0.921
3.93345	0.929
3.97444	0.931
4.01543	0.929
4.05642	0.929
4.09741	0.945
4.1384	0.95
4.17938	0.95
4.22037	0.947
4.26136	0.936
4.30235	0.933
4.34334	0.945
4.38432	0.957
4.42531	0.957
4.4663	0.952
4.50729	0.953
4.54828	0.955
4.58926	0.953
4.63025	0.95
4.67124	0.943
4.71223	0.933
4.75322	0.931
4.79421	0.933
4.83519	0.931
4.87618	0.911
4.91717	0.919
4.95816	0.935
4.99915	0.95
5.04013	0.943
5.08112	0.929
5.12211	0.916
5.1631	0.914
5.20409	0.923
5.24508	0.929
5.28606	0.929
5.32705	0.931
5.36804	0.933
5.40903	0.931
5.45002	0.923
5.491	0.905
5.53199	0.863
5.57298	0.813
5.61397	0.757
5.65496	0.601
5.69594	0.23
5.73693	0.032
5.77792	0.041
5.81891	0.215
5.8599	0.475
5.90089	0.603
5.94187	0.663
5.98286	0.738
6.02385	0.779
6.06484	0.762
6.10583	0.661
6.14681	0.714
6.1878	0.733
6.22879	0.841
6.26978	0.864
6.31077	0.885
6.35176	0.882
6.39274	0.866
6.43373	0.871
6.47472	0.83
6.51571	0.842
6.5567	0.81
6.59768	0.794
6.63867	0.753
6.67966	0.632
6.72065	0.441
6.76164	0.271
6.80262	0.193
6.84361	0.196
6.8846	0.276
6.92559	0.382
6.96658	0.461
7.00757	0.418
7.04855	0.261
7.08954	0.223
7.13053	0.365
7.17152	0.382
7.21251	0.34
7.25349	0.305
7.29448	0.271
7.33547	0.364
7.37646	0.382
7.41745	0.382
7.45843	0.422
7.49942	0.403
7.54041	0.391
7.5814	0.369
7.62239	0.35
7.66338	0.261
7.70436	0.179
7.74535	0.218
7.78634	0.189
7.82733	0.148
7.86832	0.126
7.9093	0.129
7.95029	0.16
7.99128	0.191
8.03227	0.23
8.07326	0.254
8.11425	0.261
8.15523	0.28
8.19622	0.261
8.23721	0.176
8.2782	0.102
8.31919	0.052
8.36017	0.035
8.40116	0.03
8.44215	0.035
8.48314	0.085
8.52413	0.143
8.56511	0.179
8.6061	0.22
8.64709	0.305
8.68808	0.37
8.72907	0.348
8.77006	0.254
8.81104	0.15
8.85203	0.088
8.89302	0.068
8.93401	0.061
8.975	0.087
9.01598	0.129
9.05697	0.141
9.09796	0.174
9.13895	0.218
9.17994	0.229
9.22093	0.222
9.26191	0.201
9.3029	0.172
9.34389	0.147
9.38488	0.121
9.42587	0.126
9.46685	0.147
9.50784	0.158
9.54883	0.152
9.58982	0.15
9.63081	0.167
9.67179	0.188
9.71278	0.218
9.75377	0.259
9.79476	0.323
9.83575	0.393
9.87674	0.444
9.91772	0.47
9.95871	0.463
9.9997	0.441
10.0407	0.418
10.0817	0.4
10.1227	0.4
10.1637	0.452
10.2046	0.488
10.2456	0.494
10.2866	0.483
10.3276	0.473
10.3686	0.466
10.4096	0.464
10.4506	0.471
10.4916	0.533
10.5325	0.598
10.5735	0.646
10.6145	0.678
10.6555	0.716
10.6965	0.733
10.7375	0.752
10.7785	0.77
10.8195	0.781
10.8605	0.788
10.9014	0.796
10.9424	0.803
10.9834	0.805
11.0244	0.801
11.0654	0.788
11.1064	0.782
11.1474	0.786
11.1884	0.789
11.2293	0.791
11.2703	0.791
11.3113	0.791
11.3523	0.791
11.3933	0.786
11.4343	0.776
11.4753	0.762
11.5163	0.726
11.5572	0.683
11.5982	0.642
11.6392	0.615
11.6802	0.611
11.7212	0.622
11.7622	0.632
11.8032	0.637
11.8442	0.627
11.8852	0.617
11.9261	0.622
11.9671	0.651
12.0081	0.68
12.0491	0.702
12.0901	0.711
12.1311	0.712
12.1721	0.694
12.2131	0.63
12.254	0.545
12.295	0.48
12.336	0.505
12.377	0.591
12.418	0.659
12.459	0.692
12.5	0.707
12.541	0.7
12.582	0.678
12.6229	0.644
12.6639	0.617
12.7049	0.598
12.7459	0.591
12.7869	0.61
12.8279	0.647
12.8689	0.69
12.9099	0.729
12.9508	0.76
12.9918	0.788
13.0328	0.808
13.0738	0.82
13.1148	0.829
13.1558	0.835
13.1968	0.837
13.2378	0.839
13.2788	0.841
13.3197	0.841
13.3607	0.841
13.4017	0.839
13.4427	0.839
13.4837	0.83
13.5247	0.829
13.5657	0.818
13.6067	0.811
13.6476	0.811
13.6886	0.806
13.7296	0.801
13.7706	0.801
13.8116	0.798
13.8526	0.789
13.8936	0.788
13.9346	0.786
13.9755	0.781
14.0165	0.774
14.0575	0.772
14.0985	0.772
14.1395	0.765
14.1805	0.764
14.2215	0.762
14.2625	0.757
14.3035	0.752
14.3444	0.745
14.3854	0.74
14.4264	0.736
14.4674	0.729
14.5084	0.728
14.5494	0.721
14.5904	0.711
14.6314	0.705
14.6723	0.697
14.7133	0.687
14.7543	0.675
14.7953	0.664
14.8363	0.656
14.8773	0.641
14.9183	0.625
14.9593	0.615
15.0003	0.61
15.0412	0.611
15.0822	0.608
15.1232	0.605
15.1642	0.6
15.2052	0.593
15.2462	0.588
15.2872	0.586
15.3282	0.582
15.3691	0.577
15.4101	0.576
15.4511	0.569
15.4921	0.564
15.5331	0.557
15.5741	0.55
15.6151	0.547
15.6561	0.541
15.6971	0.536
15.738	0.529
15.779	0.523
15.82	0.521
15.861	0.519
15.902	0.516
15.943	0.512
15.984	0.511
