Infrared Spectrum: 2-Methoxybenzamide
Formula: C 8 H 9 N O 2
CAS: 2439-77-2
State: gas
Origin: EPA-IR VAPOR PHASE LIBRARY
1/CM	ABSORBANCE
549.8	0.0013655
559.445	0.001238
569.09	0.00065539
578.734	0.00075889
588.379	0.0010283
598.024	0.0013518
607.669	0.002134
617.313	0.001994
626.958	0.0013379
636.603	0.0011757
646.248	0.0011083
655.893	0.0010787
665.537	0.0011529
675.182	0.0010716
684.827	0.001744
694.472	0.001984
704.116	0.002884
713.761	0.002314
723.406	0.002094
733.051	0.002304
742.695	0.003554
752.34	0.006124
761.985	0.005834
771.63	0.003364
781.275	0.001774
790.919	0.001824
800.564	0.001944
810.209	0.002394
819.854	0.002334
829.498	0.001674
839.143	0.001774
848.788	0.001674
858.433	0.001974
868.078	0.0016257
877.722	0.001954
887.367	0.0014881
897.012	0.001734
906.657	0.001674
916.301	0.001734
925.946	0.001674
935.591	0.001774
945.236	0.001804
954.88	0.001684
964.525	0.0014993
974.17	0.0016258
983.815	0.001864
993.46	0.001934
1003.1	0.002134
1012.75	0.003084
1022.39	0.004704
1032.04	0.004624
1041.68	0.003814
1051.33	0.002834
1060.97	0.0015333
1070.62	0.0009944
1080.26	0.002114
1089.91	0.002044
1099.55	0.002344
1109.2	0.001854
1118.84	0.0011933
1128.49	0.002014
1138.13	0.001646
1147.78	0.002384
1157.42	0.002554
1167.07	0.002654
1176.71	0.002864
1186.36	0.002664
1196	0.002134
1205.64	0.002854
1215.29	0.003914
1224.93	0.007564
1234.58	0.010084
1244.22	0.008274
1253.87	0.005214
1263.51	0.003754
1273.16	0.003674
1282.8	0.003384
1292.45	0.002384
1302.09	0.002694
1311.74	0.002764
1321.38	0.003654
1331.03	0.006344
1340.67	0.011214
1350.32	0.013324
1359.96	0.009334
1369.61	0.004324
1379.25	0.002454
1388.9	0.001684
1398.54	0.0014689
1408.18	0.0013213
1417.83	0.0014985
1427.47	0.002564
1437.12	0.004354
1446.76	0.005354
1456.41	0.005644
1466.05	0.006974
1475.7	0.007574
1485.34	0.007034
1494.99	0.004554
1504.63	0.002484
1514.28	0.0014834
1523.92	0.0012795
1533.57	0.0014387
1543.21	0.001854
1552.86	0.002874
1562.5	0.005734
1572.15	0.010964
1581.79	0.013124
1591.44	0.009904
1601.08	0.006234
1610.73	0.003884
1620.37	0.002134
1630.01	0.001954
1639.66	0.00166
1649.3	0.001844
1658.95	0.002164
1668.59	0.002844
1678.24	0.003924
1687.88	0.006704
1697.53	0.016574
1707.17	0.027674
1716.82	0.023614
1726.46	0.008674
1736.11	0.005624
1745.75	0.003834
1755.4	0.002334
1765.04	0.0015279
1774.69	0.0012344
1784.33	0.0010287
1793.98	0.0008636
1803.62	0.0009074
1813.27	0.0009006
1822.91	0.0007772
1832.55	0.0006329
1842.2	0.00070003
1851.84	0.0007125
1861.49	0.0006361
1871.13	0.0006218
1880.78	0.00071599
1890.42	0.00075894
1900.07	0.00069141
1909.71	0.00076326
1919.36	0.00071216
1929	0.0009066
1938.65	0.0007483
1948.29	0.0009144
1957.94	0.00072999
1967.58	0.00073121
1977.23	0.00069921
1986.87	0.00055
1996.52	0.00065452
2006.16	0.0006099
2015.81	0.00067839
2025.45	0.00067541
2035.1	0.00070869
2044.74	0.0007831
2054.38	0.000668068
2064.03	0.00069081
2073.67	0.00069778
2083.32	0.000492
2092.96	0.0005755
2102.61	0.000534
2112.25	0.0005727
2121.9	0.000537
2131.54	0.0006462
2141.19	0.0005759
2150.83	0.000526
2160.48	0.000472
2170.12	0.0005946
2179.77	0.00056
2189.41	0.000522
2199.06	0.000609
2208.7	0.000597
2218.35	0.000524
2227.99	0.000462
2237.64	0.000546
2247.28	0.000488
2256.92	0.000495
2266.57	0.0005657
2276.21	0.000477
2285.86	0.0005709
2295.5	0.000484
2305.15	0.00051
2314.79	0.000554
2324.44	0.000558
2334.08	0.000498
2343.73	0.000427
2353.37	0.000581
2363.02	0.000547
2372.66	0.000526
2382.31	0.000478
2391.95	0.000455
2401.6	0.0005955
2411.24	0.0005853
2420.89	0.0005934
2430.53	0.000474
2440.18	0.0006185
2449.82	0.0006031
2459.47	0.000482
2469.11	0.000477
2478.75	0.000549
2488.4	0.00049
2498.04	0.000456
2507.69	0.0005786
2517.33	0.000504
2526.98	0.000544
2536.62	0.0005795
2546.27	0.0005672
2555.91	0.000523
2565.56	0.000533
2575.2	0.0006306
2584.85	0.000556
2594.49	0.000511
2604.14	0.00073881
2613.78	0.000401
2623.43	0.000498
2633.07	0.000544
2642.72	0.0006168
2652.36	0.000496
2662.01	0.0006329
2671.65	0.000455
2681.29	0.000554
2690.94	0.000469
2700.58	0.00054
2710.23	0.0006432
2719.87	0.000487
2729.52	0.00054
2739.16	0.000502
2748.81	0.000443
2758.45	0.00072444
2768.1	0.000524
2777.74	0.00070194
2787.39	0.000492
2797.03	0.0007985
2806.68	0.00075215
2816.32	0.0007844
2825.97	0.0008716
2835.61	0.001403
2845.26	0.001944
2854.9	0.001714
2864.55	0.0012525
2874.19	0.0009193
2883.84	0.0009779
2893.48	0.0012691
2903.12	0.0012583
2912.77	0.0012908
2922.41	0.0015608
2932.06	0.001764
2941.7	0.002614
2951.35	0.002934
2960.99	0.002634
2970.64	0.002204
2980.28	0.001704
2989.93	0.0014478
2999.57	0.001944
3009.22	0.002334
3018.86	0.001704
3028.51	0.0013325
3038.15	0.0014045
3047.8	0.0012255
3057.44	0.001491
3067.09	0.002064
3076.73	0.002464
3086.38	0.002304
3096.02	0.0013385
3105.67	0.0007921
3115.31	0.000671189
3124.95	0.000564
3134.6	0.000558
3144.24	0.0006219
3153.89	0.000435
3163.53	0.00067812
3173.18	0.000444
3182.82	0.0005942
3192.47	0.000382
3202.11	0.000418
3211.76	0.00053
3221.4	0.00054
3231.05	0.000479
3240.69	0.000431
3250.34	0.000388
3259.98	0.000359
3269.63	0.000516
3279.27	0.00033
3288.92	0.000362
3298.56	0.000158
3308.21	0.000394
3317.85	0.000374
3327.49	0.00051
3337.14	0.000412
3346.78	0.000369
3356.43	0.000670046
3366.07	0.000555
3375.72	0.00065541
3385.36	0.0010698
3395.01	0.0015299
3404.65	0.002284
3414.3	0.003224
3423.94	0.002654
3433.59	0.0015947
3443.23	0.0009826
3452.88	0.00076333
3462.52	0.0006316
3472.17	0.0009728
3481.81	0.00065608
3491.46	0.0009132
3501.1	0.0012754
3510.75	0.001674
3520.39	0.002814
3530.04	0.004844
3539.68	0.006004
3549.32	0.004404
3558.97	0.0015128
3568.61	0.0009091
3578.26	0.0007673
3587.9	0.000437
3597.55	0.000377
3607.19	0.000499
3616.84	0.000297
3626.48	0.0006036
3636.13	0.000253
3645.77	0.000492
3655.42	0.000487
3665.06	0.000462
3674.71	0.000669719
3684.35	0.000414
3694	0.000408
3703.64	0.000408
3713.29	0.000353
3722.93	0.000281
3732.58	0.000447
3742.22	0.000201
3751.86	0.000362
3761.51	0.000312
3771.15	0.000552
3780.8	0.000302
3790.44	0.000481
3800.09	0.000328
3809.73	0.000493
3819.38	0.000417
3829.02	0.000438
3838.67	0.000293
3848.31	0.000361
3857.96	0.000538
3867.6	0.0006364
3877.25	0.000458
3886.89	0.000205
3896.54	0.000384
3906.18	0.000425
3915.83	0.000337
3925.47	0.0006124
3935.12	0.00032
3944.76	0.000367
3954.41	0.0003
3964.05	0.000478
3973.69	0.0006544
3983.34	0.000347
3992.98	0.000438
