Infrared Spectrum: PURIN-2-OL, 6-DIMETHYLAMINO-
Formula: C7 H9 N5 O
CAS: 24391-36-4
State: SOLID (1.2 mg / 650 mg KBr DISC)
Class: COBLENTZ III
Instrument: PERKIN-ELMER 21 (GRATING)
Instrument parameters: FILTER CHANGE ABOUT 1090 CM^-^1
Sampling: TRANSMISSION
Resolution: 2
Origin: SOUTHERN RESEARCH INSTITUTE
1/CM	TRANSMITTANCE
606	0.5745
615.04	0.5833
624.08	0.5748
633.119	0.5641
642.159	0.5936
651.199	0.623
660.239	0.5965
669.278	0.578
678.318	0.5666
687.358	0.5647
696.398	0.5589
705.438	0.5467
714.477	0.5334
723.517	0.5121
732.557	0.4967
741.597	0.4477
750.636	0.5309
759.676	0.5293
768.716	0.4402
777.756	0.3376
786.796	0.5509
795.835	0.5277
804.875	0.5027
813.915	0.472
822.955	0.4385
831.994	0.4257
841.034	0.4228
850.074	0.5298
859.114	0.5243
868.154	0.5019
877.193	0.4904
886.233	0.4831
895.273	0.4663
904.313	0.5072
913.352	0.5045
922.392	0.4459
931.432	0.3388
940.472	0.4277
949.511	0.5729
958.551	0.6815
967.591	0.6688
976.631	0.6558
985.671	0.637
994.71	0.6222
1003.75	0.6066
1012.79	0.609
1021.83	0.6005
1030.87	0.5942
1039.91	0.5921
1048.95	0.5722
1057.99	0.5381
1067.03	0.5338
1076.07	0.5481
1085.11	0.5687
1094.15	0.4522
1103.19	0.432
1112.23	0.5308
1121.27	0.5467
1130.31	0.5499
1139.35	0.5616
1148.39	0.5382
1157.43	0.5124
1166.47	0.524
1175.51	0.5315
1184.55	0.4927
1193.59	0.4491
1202.63	0.4423
1211.66	0.4862
1220.7	0.4728
1229.74	0.4393
1238.78	0.4697
1247.82	0.474
1256.86	0.4144
1265.9	0.3338
1274.94	0.4452
1283.98	0.4109
1293.02	0.3751
1302.06	0.4133
1311.1	0.329
1320.14	0.357
1329.18	0.3795
1338.22	0.2829
1347.26	0.2386
1356.3	0.483
1365.34	0.4752
1374.38	0.4242
1383.42	0.3871
1392.46	0.3137
1401.5	0.1606
1410.54	0.2015
1419.58	0.286
1428.62	0.2952
1437.66	0.3008
1446.7	0.3269
1455.74	0.2999
1464.78	0.3201
1473.82	0.3733
1482.86	0.3896
1491.9	0.3899
1500.94	0.3973
1509.98	0.4005
1519.02	0.3474
1528.06	0.2607
1537.1	0.1811
1546.14	0.1012
1555.18	0.1046
1564.22	0.1278
1573.26	0.123
1582.3	0.1462
1591.34	0.2454
1600.38	0.1891
1609.42	0.1135
1618.45	0.0905
1627.49	0.0916
1636.53	0.0898
1645.57	0.0914
1654.61	0.1729
1663.65	0.2331
1672.69	0.4071
1681.73	0.4697
1690.77	0.5298
1699.81	0.5732
1708.85	0.5965
1717.89	0.6174
1726.93	0.6455
1735.97	0.6721
1745.01	0.6947
1754.05	0.7145
1763.09	0.7266
1772.13	0.7378
1781.17	0.7479
1790.21	0.7566
1799.25	0.7666
1808.29	0.7771
1817.33	0.7865
1826.37	0.7945
1835.41	0.8003
1844.45	0.8104
1853.49	0.8226
1862.53	0.8284
1871.57	0.827
1880.61	0.8232
1889.65	0.8199
1898.69	0.8193
1907.73	0.8212
1916.77	0.826
1925.81	0.8256
1934.85	0.8197
1943.89	0.8114
1952.93	0.8048
1961.97	0.8029
1971.01	0.802
1980.05	0.7988
1989.09	0.7952
1998.13	0.7914
2007.17	0.7856
2016.21	0.7811
2025.24	0.7813
2034.28	0.7811
2043.32	0.7791
2052.36	0.7757
2061.4	0.7704
2070.44	0.7624
2079.48	0.757
2088.52	0.7527
2097.56	0.751
2106.6	0.7495
2115.64	0.7476
2124.68	0.7436
2133.72	0.739
2142.76	0.7343
2151.8	0.7266
2160.84	0.7228
2169.88	0.72
2178.92	0.7167
2187.96	0.7152
2197	0.7056
2206.04	0.7006
2215.08	0.6954
2224.12	0.6924
2233.16	0.6911
2242.2	0.6858
2251.24	0.6825
2260.28	0.6809
2269.32	0.6791
2278.36	0.678
2287.4	0.6752
2296.44	0.6703
2305.48	0.6685
2314.52	0.6719
2323.56	0.6713
2332.6	0.6677
2341.64	0.6617
2350.68	0.6486
2359.72	0.638
2368.76	0.6277
2377.8	0.6173
2386.84	0.6093
2395.88	0.6015
2404.92	0.594
2413.96	0.5875
2422.99	0.5832
2432.03	0.5811
2441.07	0.5791
2450.11	0.5698
2459.15	0.5586
2468.19	0.5493
2477.23	0.5416
2486.27	0.535
2495.31	0.5296
2504.35	0.5248
2513.39	0.5203
2522.43	0.516
2531.47	0.5115
2540.51	0.5092
2549.55	0.5091
2558.59	0.5023
2567.63	0.4988
2576.67	0.4949
2585.71	0.4865
2594.75	0.4791
2603.79	0.475
2612.83	0.4717
2621.87	0.4627
2630.91	0.4469
2639.95	0.438
2648.99	0.4344
2658.03	0.4283
2667.07	0.4288
2676.11	0.429
2685.15	0.4259
2694.19	0.4221
2703.23	0.4251
2712.27	0.4223
2721.31	0.4169
2730.35	0.4095
2739.39	0.3997
2748.43	0.3918
2757.47	0.3906
2766.51	0.3889
2775.55	0.3793
2784.59	0.3708
2793.63	0.3644
2802.67	0.3618
2811.71	0.3599
2820.75	0.3568
2829.78	0.3497
2838.82	0.3427
2847.86	0.3411
2856.9	0.3429
2865.94	0.3465
2874.98	0.3522
2884.02	0.3573
2893.06	0.3609
2902.1	0.3625
2911.14	0.3627
2920.18	0.3615
2929.22	0.3619
2938.26	0.3712
2947.3	0.386
2956.34	0.404
2965.38	0.4089
2974.42	0.4134
2983.46	0.4145
2992.5	0.4134
3001.54	0.4149
3010.58	0.4102
3019.62	0.4072
3028.66	0.4163
3037.7	0.4246
3046.74	0.4234
3055.78	0.422
3064.82	0.4234
3073.86	0.4447
3082.9	0.4551
3091.94	0.4654
3100.98	0.4731
3110.02	0.4726
3119.06	0.4864
3128.1	0.5096
3137.14	0.5281
3146.18	0.5472
3155.22	0.5631
3164.26	0.5708
3173.3	0.5859
3182.34	0.6035
3191.38	0.6087
3200.42	0.6132
3209.46	0.6174
3218.5	0.6173
3227.54	0.6374
3236.57	0.6443
3245.61	0.6503
3254.65	0.6565
3263.69	0.6625
3272.73	0.6674
3281.77	0.6716
3290.81	0.6753
3299.85	0.6773
3308.89	0.6783
3317.93	0.678
3326.97	0.6767
3336.01	0.6691
3345.05	0.6576
3354.09	0.6509
3363.13	0.6425
3372.17	0.6274
3381.21	0.6164
3390.25	0.6052
3399.29	0.5994
3408.33	0.5943
3417.37	0.5872
3426.41	0.5883
3435.45	0.5912
3444.49	0.5968
3453.53	0.6052
3462.57	0.6124
3471.61	0.6143
3480.65	0.6149
3489.69	0.6218
3498.73	0.6323
3507.77	0.6454
3516.81	0.659
3525.85	0.6658
3534.89	0.6725
3543.93	0.6809
3552.97	0.6918
3562.01	0.7023
3571.05	0.7096
3580.09	0.7215
3589.13	0.75
3598.17	0.7577
3607.21	0.769
3616.25	0.7762
3625.29	0.7818
3634.32	0.7898
3643.36	0.7941
3652.4	0.796
3661.44	0.7968
3670.48	0.7984
3679.52	0.8061
3688.56	0.8054
3697.6	0.8043
3706.64	0.7999
3715.68	0.7956
3724.72	0.8042
3733.76	0.8109
3742.8	0.8153
3751.84	0.8148
3760.88	0.8106
3769.92	0.8065
3778.96	0.8028
3788	0.8007
3797.04	0.7996
3806.08	0.7973
3815.12	0.7978
3824.16	0.7989
3833.2	0.7999
3842.24	0.7995
3851.28	0.7989
3860.32	0.798
3869.36	0.797
3878.4	0.794
3887.44	0.7906
3896.48	0.7882
3905.52	0.7907
3914.56	0.793
3923.6	0.7937
3932.64	0.7916
3941.68	0.7882
3950.72	0.7837
3959.76	0.7797
3968.8	0.7767
3977.84	0.7756
3986.88	0.7762
3995.92	0.775
4004.96	0.7689
4014	0.7464
