Infrared Spectrum: N-Octylmethylamine
Formula: C 9 H 21 N
CAS: 2439-54-5
State: gas
Origin: EPA-IR VAPOR PHASE LIBRARY
1/CM	ABSORBANCE
549.8	0.00294
559.445	0.00271
569.09	0.00322
578.734	0.00343
588.379	0.00378
598.024	0.00448
607.669	0.00541
617.313	0.00639
626.958	0.00774
636.603	0.00954
646.248	0.01164
655.893	0.014
665.537	0.01648
675.182	0.01892
684.827	0.02089
694.472	0.0229
704.116	0.02486
713.761	0.02592
723.406	0.02426
733.051	0.02015
742.695	0.01574
752.34	0.01263
761.985	0.0104
771.63	0.00876
781.275	0.0072
790.919	0.00615
800.564	0.00529
810.209	0.00469
819.854	0.00441
829.498	0.00405
839.143	0.00373
848.788	0.00382
858.433	0.00395
868.078	0.0039
877.722	0.00389
887.367	0.0039
897.012	0.00386
906.657	0.00397
916.301	0.0038
925.946	0.00383
935.591	0.00411
945.236	0.00478
954.88	0.00523
964.525	0.00508
974.17	0.00445
983.815	0.00412
993.46	0.00379
1003.1	0.00413
1012.75	0.0045
1022.39	0.0053
1032.04	0.0061
1041.68	0.00692
1051.33	0.00677
1060.97	0.00678
1070.62	0.00742
1080.26	0.00862
1089.91	0.00992
1099.55	0.01216
1109.2	0.01642
1118.84	0.02325
1128.49	0.02909
1138.13	0.03074
1147.78	0.02924
1157.42	0.02273
1167.07	0.01489
1176.71	0.00967
1186.36	0.00685
1196	0.00553
1205.64	0.00467
1215.29	0.00426
1224.93	0.00427
1234.58	0.00469
1244.22	0.00476
1253.87	0.00497
1263.51	0.00512
1273.16	0.0053
1282.8	0.00579
1292.45	0.00643
1302.09	0.00701
1311.74	0.00711
1321.38	0.00696
1331.03	0.00813
1340.67	0.01112
1350.32	0.01464
1359.96	0.01691
1369.61	0.01561
1379.25	0.01365
1388.9	0.01054
1398.54	0.00768
1408.18	0.00724
1417.83	0.00871
1427.47	0.01268
1437.12	0.02076
1446.76	0.03273
1456.41	0.03936
1466.05	0.04034
1475.7	0.03421
1485.34	0.01968
1494.99	0.01048
1504.63	0.0066
1514.28	0.00474
1523.92	0.00357
1533.57	0.00286
1543.21	0.00244
1552.86	0.00209
1562.5	0.00194
1572.15	0.00177
1581.79	0.00153
1591.44	0.00154
1601.08	0.00142
1610.73	0.00138
1620.37	0.0013045
1630.01	0.0012877
1639.66	0.001211
1649.3	0.001164
1658.95	0.0011167
1668.59	0.0011096
1678.24	0.0010318
1687.88	0.0009307
1697.53	0.0009728
1707.17	0.0008856
1716.82	0.0007983
1726.46	0.000821
1736.11	0.0007259
1745.75	0.0007662
1755.4	0.0007261
1765.04	0.000729
1774.69	0.0007478
1784.33	0.0007644
1793.98	0.0008192
1803.62	0.0008641
1813.27	0.000958
1822.91	0.0009345
1832.55	0.0009887
1842.2	0.0009411
1851.84	0.0009962
1861.49	0.0008942
1871.13	0.0008
1880.78	0.0007132
1890.42	0.0006374
1900.07	0.000604
1909.71	0.0005591
1919.36	0.0005247
1929	0.0004651
1938.65	0.0004781
1948.29	0.0004815
1957.94	0.0004713
1967.58	0.0005059
1977.23	0.0005361
1986.87	0.0005149
1996.52	0.0006268
2006.16	0.0006852
2015.81	0.000829
2025.45	0.0009326
2035.1	0.0009528
2044.74	0.0009925
2054.38	0.0010568
2064.03	0.0009849
2073.67	0.00095
2083.32	0.0009112
2092.96	0.000841
2102.61	0.0007977
2112.25	0.0007924
2121.9	0.0007328
2131.54	0.0007166
2141.19	0.0007769
2150.83	0.0007552
2160.48	0.0006975
2170.12	0.0007321
2179.77	0.0007053
2189.41	0.0006931
2199.06	0.000687
2208.7	0.0007282
2218.35	0.0007582
2227.99	0.000722
2237.64	0.000703
2247.28	0.0008009
2256.92	0.0007054
2266.57	0.0007431
2276.21	0.0007927
2285.86	0.0008411
2295.5	0.0008386
2305.15	0.0008558
2314.79	0.0008522
2324.44	0.0008849
2334.08	0.0009654
2343.73	0.0008651
2353.37	0.0009633
2363.02	0.0008866
2372.66	0.0008671
2382.31	0.0009603
2391.95	0.0009727
2401.6	0.0009948
2411.24	0.001013
2420.89	0.0010467
2430.53	0.0009039
2440.18	0.0009719
2449.82	0.0009801
2459.47	0.000992
2469.11	0.0010973
2478.75	0.0012336
2488.4	0.0012795
2498.04	0.00138
2507.69	0.00148
2517.33	0.00158
2526.98	0.00174
2536.62	0.00192
2546.27	0.00199
2555.91	0.00222
2565.56	0.00236
2575.2	0.00255
2584.85	0.00273
2594.49	0.00299
2604.14	0.0033
2613.78	0.00355
2623.43	0.00383
2633.07	0.00429
2642.72	0.00477
2652.36	0.00544
2662.01	0.00622
2671.65	0.00717
2681.29	0.00824
2690.94	0.00914
2700.58	0.00957
2710.23	0.0097
2719.87	0.01
2729.52	0.01105
2739.16	0.01251
2748.81	0.01455
2758.45	0.01811
2768.1	0.02434
2777.74	0.03534
2787.39	0.05375
2797.03	0.07311
2806.68	0.07234
2816.32	0.06281
2825.97	0.05808
2835.61	0.0611
2845.26	0.08093
2854.9	0.12144
2864.55	0.14568
2874.19	0.13319
2883.84	0.11885
2893.48	0.11394
2903.12	0.13058
2912.77	0.1768
2922.41	0.26479
2932.06	0.3361
2941.7	0.29884
2951.35	0.21002
2960.99	0.1661
2970.64	0.14629
2980.28	0.09001
2989.93	0.04705
2999.57	0.02882
3009.22	0.02041
3018.86	0.01569
3028.51	0.01251
3038.15	0.01055
3047.8	0.00893
3057.44	0.0076
3067.09	0.00666
3076.73	0.00581
3086.38	0.00512
3096.02	0.00456
3105.67	0.0041
3115.31	0.00373
3124.95	0.00329
3134.6	0.00296
3144.24	0.00285
3153.89	0.00262
3163.53	0.00237
3173.18	0.00232
3182.82	0.00214
3192.47	0.0019
3202.11	0.00175
3211.76	0.0014
3221.4	0.0011987
3231.05	0.0011242
3240.69	0.0010105
3250.34	0.0007296
3259.98	0.0006717
3269.63	0.0006884
3279.27	0.0007474
3288.92	0.0006806
3298.56	0.0007577
3308.21	0.0004204
3317.85	0.0005061
3327.49	0.0007186
3337.14	0.0005346
3346.78	0.000744
3356.43	0.0007614
3366.07	0.0006845
3375.72	0.0005909
3385.36	0.000639
3395.01	0.0007088
3404.65	0.0006018
3414.3	0.0005562
3423.94	0.0006137
3433.59	0.0004564
3443.23	0.0004666
3452.88	0.000554
3462.52	0.00035302
3472.17	0.0002369
3481.81	0.0002998
3491.46	0.00031341
3501.1	0.00033352
3510.75	0.000214
3520.39	0.0002832
3530.04	0.0002327
3539.68	0.00035787
3549.32	0.00038639
3558.97	0.000144
3568.61	0.0004515
3578.26	0.0004503
3587.9	0.00034474
3597.55	0.00040206
3607.19	0.0004256
3616.84	0.0006953
3626.48	0.0007101
3636.13	0.0006875
3645.77	0.0008275
3655.42	0.0008628
3665.06	0.0008217
3674.71	0.000785
3684.35	0.000939
3694	0.0006483
3703.64	0.0005659
3713.29	0.0006387
3722.93	0.0005717
3732.58	0.0007395
3742.22	0.0004822
3751.86	0.0005727
3761.51	0.0004665
3771.15	0.0007902
3780.8	0.0005543
3790.44	0.0007765
3800.09	0.0005625
3809.73	0.0006645
3819.38	0.0007614
3829.02	0.0007844
3838.67	0.0007871
3848.31	0.0007655
3857.96	0.0008228
3867.6	0.0007559
3877.25	0.000733
3886.89	0.000811
3896.54	0.0009526
3906.18	0.0009564
3915.83	0.0009935
3925.47	0.0009225
3935.12	0.0009695
3944.76	0.0011699
3954.41	0.000882
3964.05	0.0010574
3973.69	0.0010961
3983.34	0.0012586
3992.98	0.0011173
