Infrared Spectrum: PHTHALIMIDE, 3,4,5,6-TETRABROMO-
Formula: C8 H Br4 N O2
CAS: 24407-32-7
State: SOLID (SPLIT MULL), FLUOROLUBE FOR 3800-1330 CM^-^1, NUJOL FOR 1330-460 CM^-^1
Class: COBLENTZ III
Instrument: DOW KBr FOREPRISM-GRATING
Instrument parameters: BLAZED AT 3.5, 12.0, 20.0 MICRON AND CHANGED AT 5.0, 7.5, 14.9 MICRON
Sampling: TRANSMISSION
Resolution: 2
Origin: DOW CHEMICAL COMPANY
1/CM	TRANSMITTANCE
469.147	1.01
477.9	1.01
486.653	1.009
495.405	1.009
504.158	1.005
512.911	1.001
521.664	0.991
530.416	0.952
539.169	0.905
547.922	0.957
556.675	0.98
565.427	0.98
574.18	0.998
582.933	1.002
591.686	0.995
600.438	0.993
609.191	0.979
617.944	0.983
626.697	0.997
635.449	0.984
644.202	0.898
652.955	0.659
661.708	0.781
670.46	0.989
679.213	0.989
687.966	0.838
696.719	0.95
705.471	0.957
714.224	0.916
722.977	0.83
731.73	0.845
740.482	0.874
749.235	0.909
757.988	0.71
766.741	0.887
775.493	0.942
784.246	0.972
792.999	0.979
801.752	0.983
810.505	0.987
819.257	0.993
828.01	0.993
836.763	0.984
845.516	0.974
854.268	0.959
863.021	0.957
871.774	0.93
880.527	0.8121
889.279	0.959
898.032	0.964
906.785	0.975
915.538	0.986
924.29	0.99
933.043	0.99
941.796	0.99
950.549	0.997
959.301	0.997
968.054	0.998
976.807	0.998
985.56	0.998
994.312	1
1003.07	1
1011.82	0.997
1020.57	0.99
1029.32	0.984
1038.08	0.974
1046.83	0.953
1055.58	0.903
1064.33	0.782
1073.09	0.377
1081.84	0.8151
1090.59	0.971
1099.35	0.984
1108.1	0.983
1116.85	0.976
1125.6	0.956
1134.36	0.978
1143.11	0.943
1151.86	0.7389
1160.61	0.7401
1169.37	0.983
1178.12	0.997
1186.87	0.995
1195.63	0.986
1204.38	0.975
1213.13	0.969
1221.88	0.968
1230.64	0.96
1239.39	0.945
1248.14	0.957
1256.9	0.943
1265.65	0.93
1274.4	0.894
1283.15	0.8159
1291.91	0.5679
1300.66	0.5151
1309.41	0.826
1318.16	0.816
1326.92	0.7148
1335.67	0.5459
1344.42	0.42
1353.18	0.73
1361.93	0.6529
1370.68	0.37
1379.43	0.5681
1388.19	0.878
1396.94	0.848
1405.69	0.827
1414.44	0.771
1423.2	0.799
1431.95	0.827
1440.7	0.818
1449.46	0.831
1458.21	0.856
1466.96	0.86
1475.71	0.87
1484.47	0.885
1493.22	0.883
1501.97	0.887
1510.73	0.896
1519.48	0.894
1528.23	0.89
1536.98	0.889
1545.74	0.879
1554.49	0.852
1563.24	0.81
1571.99	0.803
1580.75	0.808
1589.5	0.836
1598.25	0.838
1607.01	0.836
1615.76	0.84
1624.51	0.841
1633.26	0.84
1642.02	0.83
1650.77	0.806
1659.52	0.769
1668.27	0.722
1677.03	0.681
1685.78	0.642
1694.53	0.573
1703.29	0.504
1712.04	0.3478
1720.79	0.233
1729.54	0.0859
1738.3	0.103
1747.05	0.4043
1755.8	0.6741
1764.56	0.807
1773.31	0.6778
1782.06	0.2814
1790.81	0.7401
1799.57	0.863
1808.32	0.851
1817.07	0.893
1825.82	0.986
1834.58	1.001
1843.33	0.99
1852.08	1.002
1860.84	1.008
1869.59	1.008
1878.34	1.005
1887.09	1.002
1895.85	1.002
1904.6	0.998
1913.35	0.995
1922.1	0.994
1930.86	0.993
1939.61	0.986
1948.36	0.978
1957.12	0.979
1965.87	0.979
1974.62	0.976
1983.37	0.974
1992.13	0.971
2000.88	0.964
2009.63	0.966
2018.38	0.9624
2027.14	0.954
2035.89	0.9542
2044.64	0.9564
2053.4	0.9524
2062.15	0.9508
2070.9	0.946
2079.65	0.9437
2088.41	0.9414
2097.16	0.938
2105.91	0.9343
2114.67	0.931
2123.42	0.9273
2132.17	0.9246
2140.92	0.9205
2149.68	0.916
2158.43	0.9112
2167.18	0.908
2175.93	0.9034
2184.69	0.8984
2193.44	0.8936
2202.19	0.89
2210.95	0.8852
2219.7	0.882
2228.45	0.8753
2237.2	0.8682
2245.96	0.862
2254.71	0.8561
2263.46	0.853
2272.21	0.8452
2280.97	0.842
2289.72	0.841
2298.47	0.838
2307.23	0.834
2315.98	0.831
2324.73	0.827
2333.48	0.825
2342.24	0.8249
2350.99	0.8249
2359.74	0.825
2368.5	0.825
2377.25	0.825
2386	0.825
2394.75	0.823
2403.51	0.8247
2412.26	0.8218
2421.01	0.8175
2429.76	0.8118
2438.52	0.808
2447.27	0.812
2456.02	0.8118
2464.78	0.8118
2473.53	0.8077
2482.28	0.8055
2491.03	0.8024
2499.79	0.799
2508.54	0.795
2517.29	0.788
2526.04	0.7893
2534.8	0.79
2543.55	0.789
2552.3	0.7886
2561.06	0.786
2569.81	0.784
2578.56	0.7831
2587.31	0.7791
2596.07	0.7735
2604.82	0.769
2613.57	0.7665
2622.33	0.765
2631.08	0.7595
2639.83	0.756
2648.58	0.7529
2657.34	0.7459
2666.09	0.743
2674.84	0.7394
2683.59	0.7334
2692.35	0.7248
2701.1	0.7104
2709.85	0.7034
2718.61	0.698
2727.36	0.705
2736.11	0.7124
2744.86	0.715
2753.62	0.7143
2762.37	0.713
2771.12	0.7093
2779.87	0.707
2788.63	0.706
2797.38	0.7032
2806.13	0.699
2814.89	0.698
2823.64	0.699
2832.39	0.699
2841.14	0.699
2849.9	0.6951
2858.65	0.695
2867.4	0.6932
2876.16	0.692
2884.91	0.6892
2893.66	0.6852
2902.41	0.678
2911.17	0.673
2919.92	0.665
2928.67	0.659
2937.42	0.659
2946.18	0.658
2954.93	0.653
2963.68	0.6499
2972.44	0.646
2981.19	0.644
2989.94	0.6429
2998.69	0.6388
3007.45	0.633
3016.2	0.629
3024.95	0.628
3033.7	0.6248
3042.46	0.6197
3051.21	0.6154
3059.96	0.6068
3068.72	0.599
3077.47	0.5891
3086.22	0.5783
3094.97	0.578
3103.73	0.5873
3112.48	0.59
3121.23	0.5837
3129.99	0.5741
3138.74	0.56
3147.49	0.5467
3156.24	0.5276
3165	0.5075
3173.75	0.4871
3182.5	0.4694
3191.25	0.4519
3200.01	0.4304
3208.76	0.4092
3217.51	0.3704
3226.27	0.3347
3235.02	0.2668
3243.77	0.2195
3252.52	0.2391
3261.28	0.3008
3270.03	0.393
3278.78	0.5054
3287.53	0.5594
3296.29	0.5933
3305.04	0.619
3313.79	0.6479
3322.55	0.6672
3331.3	0.672
3340.05	0.672
3348.8	0.672
3357.56	0.67
3366.31	0.668
3375.06	0.663
3383.82	0.6548
3392.57	0.6448
3401.32	0.6375
3410.07	0.633
3418.83	0.636
3427.58	0.64
3436.33	0.639
3445.08	0.635
3453.84	0.6368
3462.59	0.6504
3471.34	0.6616
3480.1	0.6699
3488.85	0.6739
3497.6	0.676
3506.35	0.676
3515.11	0.676
3523.86	0.672
3532.61	0.668
3541.36	0.666
3550.12	0.663
3558.87	0.662
3567.62	0.665
3576.38	0.6701
3585.13	0.676
3593.88	0.678
3602.63	0.677
3611.39	0.676
3620.14	0.673
3628.89	0.67
3637.65	0.666
3646.4	0.665
3655.15	0.663
3663.9	0.662
3672.66	0.662
3681.41	0.6606
3690.16	0.658
3698.91	0.6565
3707.67	0.654
3716.42	0.6525
3725.17	0.65
3733.93	0.647
3742.68	0.644
3751.43	0.643
3760.18	0.642
