Infrared Spectrum: 4-CHLORO-6-METHYL-1,3,3a,7-TETRAZAINDENE
Formula: C6 H5 Cl N4
CAS: 24415-66-5
State: SOLID (KBr PRESSING)
Melting point: 151-152 C
Class: COBLENTZ
Instrument: Not specified, most likely a prism, grating, or hybrid spectrometer.
Sampling: TRANSMISSION
Resolution: 4
Origin: EASTMAN KODAK COMPANY, RESEARCH LABORATORIES, ROCHESTER, N.Y.
MICROMETERS	TRANSMITTANCE
2.045	0.725
2.08011	0.726
2.11522	0.73
2.15033	0.733
2.18545	0.732
2.22056	0.732
2.25567	0.739
2.29078	0.74
2.32589	0.742
2.361	0.751
2.39611	0.751
2.43122	0.753
2.46634	0.756
2.50145	0.763
2.53656	0.765
2.57167	0.77
2.60678	0.775
2.64189	0.779
2.677	0.779
2.71211	0.77
2.74723	0.726
2.78234	0.688
2.81745	0.619
2.85256	0.572
2.88767	0.549
2.92278	0.542
2.95789	0.59
2.993	0.628
3.02812	0.658
3.06323	0.672
3.09834	0.679
3.13345	0.679
3.16856	0.672
3.20367	0.642
3.23878	0.544
3.27389	0.5
3.30901	0.528
3.34412	0.527
3.37923	0.474
3.41434	0.43
3.44945	0.45
3.48456	0.485
3.51967	0.488
3.55478	0.479
3.5899	0.5
3.62501	0.52
3.66012	0.539
3.69523	0.555
3.73034	0.584
3.76545	0.581
3.80056	0.625
3.83568	0.656
3.87079	0.679
3.9059	0.69
3.94101	0.7
3.97612	0.707
4.01123	0.737
4.04634	0.744
4.08145	0.751
4.11657	0.763
4.15168	0.779
4.18679	0.779
4.2219	0.777
4.25701	0.779
4.29212	0.784
4.32723	0.8
4.36234	0.812
4.39746	0.819
4.43257	0.826
4.46768	0.83
4.50279	0.835
4.5379	0.842
4.57301	0.842
4.60812	0.844
4.64323	0.845
4.67835	0.851
4.71346	0.851
4.74857	0.851
4.78368	0.854
4.81879	0.859
4.8539	0.861
4.88901	0.865
4.92412	0.866
4.95924	0.865
4.99435	0.865
5.02946	0.868
5.06457	0.861
5.09968	0.856
5.13479	0.861
5.1699	0.863
5.20502	0.866
5.24013	0.863
5.27524	0.865
5.31035	0.865
5.34546	0.861
5.38057	0.859
5.41568	0.861
5.45079	0.856
5.48591	0.849
5.52102	0.842
5.55613	0.821
5.59124	0.831
5.62635	0.835
5.66146	0.83
5.69657	0.8
5.73168	0.756
5.7668	0.698
5.80191	0.597
5.83702	0.542
5.87213	0.257
5.90724	0.26
5.94235	0.357
5.97746	0.367
6.01257	0.364
6.04769	0.376
6.0828	0.276
6.11791	0.239
6.15302	0.196
6.18813	0.143
6.22324	0.211
6.25835	0.411
6.29346	0.276
6.32858	0.169
6.36369	0.217
6.3988	0.385
6.43391	0.527
6.46902	0.542
6.50413	0.549
6.53924	0.397
6.57435	0.302
6.60947	0.257
6.64458	0.262
6.67969	0.309
6.7148	0.451
6.74991	0.528
6.78502	0.539
6.82013	0.555
6.85525	0.56
6.89036	0.565
6.92547	0.472
6.96058	0.486
6.99569	0.516
7.0308	0.502
7.06591	0.43
7.10102	0.469
7.13614	0.572
7.17125	0.632
7.20636	0.609
7.24147	0.506
7.27658	0.528
7.31169	0.387
7.3468	0.544
7.38191	0.639
7.41703	0.684
7.45214	0.626
7.48725	0.577
7.52236	0.672
7.55747	0.712
7.59258	0.719
7.62769	0.649
7.6628	0.642
7.69792	0.586
7.73303	0.229
7.76814	0.252
7.80325	0.316
7.83836	0.546
7.87347	0.642
7.90858	0.711
7.94369	0.712
7.97881	0.616
8.01392	0.553
8.04903	0.698
8.08414	0.74
8.11925	0.76
8.15436	0.768
8.18947	0.767
8.22459	0.767
8.2597	0.756
8.29481	0.672
8.32992	0.346
8.36503	0.443
8.40014	0.22
8.43525	0.353
8.47036	0.6
8.50548	0.69
8.54059	0.726
8.5757	0.737
8.61081	0.723
8.64592	0.702
8.68103	0.676
8.71614	0.684
8.75125	0.674
8.78637	0.697
8.82148	0.705
8.85659	0.735
8.8917	0.754
8.92681	0.779
8.96192	0.781
8.99703	0.795
9.03214	0.798
9.06726	0.8
9.10237	0.8
9.13748	0.802
9.17259	0.803
9.2077	0.803
9.24281	0.8
9.27792	0.795
9.31303	0.791
9.34815	0.786
9.38326	0.76
9.41837	0.721
9.45348	0.686
9.48859	0.69
9.5237	0.73
9.55881	0.739
9.59392	0.739
9.62904	0.733
9.66415	0.735
9.69926	0.749
9.73437	0.758
9.76948	0.761
9.80459	0.754
9.8397	0.781
9.87482	0.786
9.90993	0.784
9.94504	0.791
9.98015	0.793
10.0153	0.791
10.0504	0.765
10.0855	0.742
10.1206	0.751
10.1557	0.772
10.1908	0.803
10.2259	0.816
10.261	0.833
10.2962	0.844
10.3313	0.844
10.3664	0.847
10.4015	0.845
10.4366	0.824
10.4717	0.831
10.5068	0.837
10.5419	0.807
10.577	0.819
10.6122	0.83
10.6473	0.833
10.6824	0.842
10.7175	0.844
10.7526	0.844
10.7877	0.826
10.8228	0.802
10.8579	0.739
10.893	0.712
10.9282	0.649
10.9633	0.607
10.9984	0.45
11.0335	0.453
11.0686	0.427
11.1037	0.677
11.1388	0.719
11.1739	0.733
11.209	0.702
11.2442	0.74
11.2793	0.763
11.3144	0.774
11.3495	0.756
11.3846	0.672
11.4197	0.553
11.4548	0.628
11.4899	0.707
11.525	0.728
11.5602	0.737
11.5953	0.737
11.6304	0.74
11.6655	0.733
11.7006	0.728
11.7357	0.726
11.7708	0.726
11.8059	0.728
11.841	0.73
11.8762	0.735
11.9113	0.744
11.9464	0.742
11.9815	0.746
12.0166	0.742
12.0517	0.742
12.0868	0.725
12.1219	0.7
12.157	0.698
12.1922	0.723
12.2273	0.704
12.2624	0.677
12.2975	0.654
12.3326	0.718
12.3677	0.76
12.4028	0.793
12.4379	0.802
12.473	0.807
12.5082	0.81
12.5433	0.826
12.5784	0.828
12.6135	0.828
12.6486	0.83
12.6837	0.831
12.7188	0.833
12.7539	0.837
12.7891	0.837
12.8242	0.824
12.8593	0.765
12.8944	0.523
12.9295	0.579
12.9646	0.754
12.9997	0.796
13.0348	0.805
13.0699	0.803
13.1051	0.8
13.1402	0.791
13.1753	0.777
13.2104	0.705
13.2455	0.581
13.2806	0.618
13.3157	0.712
13.3508	0.756
13.3859	0.786
13.4211	0.8
13.4562	0.812
13.4913	0.823
13.5264	0.828
13.5615	0.842
13.5966	0.844
13.6317	0.838
13.6668	0.844
13.7019	0.852
13.7371	0.847
13.7722	0.844
13.8073	0.844
13.8424	0.847
13.8775	0.847
13.9126	0.847
13.9477	0.847
13.9828	0.849
14.0179	0.847
14.0531	0.835
14.0882	0.816
14.1233	0.814
14.1584	0.81
14.1935	0.8
14.2286	0.788
14.2637	0.777
14.2988	0.772
14.3339	0.772
14.3691	0.784
14.4042	0.812
14.4393	0.835
14.4744	0.842
14.5095	0.844
14.5446	0.844
14.5797	0.845
14.6148	0.844
14.6499	0.847
14.6851	0.847
14.7202	0.847
14.7553	0.847
14.7904	0.845
14.8255	0.844
14.8606	0.838
14.8957	0.826
14.9308	0.814
14.966	0.76
15.0011	0.704
15.0362	0.681
15.0713	0.621
15.1064	0.506
15.1415	0.467
15.1766	0.49
15.2117	0.541
15.2468	0.549
15.282	0.535
15.3171	0.532
15.3522	0.567
15.3873	0.614
15.4224	0.642
15.4575	0.667
15.4926	0.691
15.5277	0.714
15.5628	0.73
15.598	0.739
15.6331	0.751
15.6682	0.758
15.7033	0.77
15.7384	0.774
15.7735	0.779
15.8086	0.777
15.8437	0.775
15.8788	0.774
15.914	0.772
15.9491	0.772
15.9842	0.77
