Infrared Spectrum: 1,3,5-CYCLOHEXANETRIOL, 2,2,4,4,6,6-HEXAMETHYL-
Formula: C12 H24 O3
CAS: 24413-59-0
State: SOLID (KBr PELLET)
Melting point: 250 C
Class: COBLENTZ
Instrument: Not specified, most likely a prism, grating, or hybrid spectrometer.
Sampling: TRANSMISSION
Resolution: 4
Origin: TENNESSEE EASTMAN COMPANY, RESEARCH LABORATORIES
MICROMETERS	TRANSMITTANCE
2.027	0.9
2.0681	0.901
2.10919	0.9
2.15029	0.901
2.19139	0.905
2.23249	0.903
2.27358	0.903
2.31468	0.903
2.35578	0.903
2.39687	0.907
2.43797	0.905
2.47907	0.905
2.52016	0.907
2.56126	0.907
2.60236	0.907
2.64346	0.905
2.68455	0.891
2.72565	0.762
2.76675	0.511
2.80784	0.297
2.84894	0.134
2.89004	0.034
2.93114	0.018
2.97223	0.02
3.01333	0.123
3.05443	0.294
3.09552	0.444
3.13662	0.593
3.17772	0.686
3.21881	0.743
3.25991	0.776
3.30101	0.502
3.34211	0.175
3.3832	0.301
3.4243	0.211
3.4654	0.425
3.50649	0.728
3.54759	0.752
3.58869	0.796
3.62979	0.822
3.67088	0.826
3.71198	0.819
3.75308	0.843
3.79417	0.857
3.83527	0.864
3.87637	0.853
3.91746	0.867
3.95856	0.898
3.99966	0.908
4.04076	0.895
4.08185	0.912
4.12295	0.927
4.16405	0.932
4.20514	0.932
4.24624	0.927
4.28734	0.925
4.32844	0.939
4.36953	0.956
4.41063	0.972
4.45173	0.977
4.49282	0.977
4.53392	0.977
4.57502	0.977
4.61611	0.977
4.65721	0.975
4.69831	0.969
4.73941	0.965
4.7805	0.967
4.8216	0.97
4.8627	0.972
4.90379	0.97
4.94489	0.974
4.98599	0.982
5.02709	0.991
5.06818	0.989
5.10928	0.993
5.15038	0.994
5.19147	0.996
5.23257	0.991
5.27367	0.991
5.31476	0.991
5.35586	0.994
5.39696	0.991
5.43806	0.991
5.47915	0.993
5.52025	0.989
5.56135	0.974
5.60244	0.974
5.64354	0.97
5.68464	0.963
5.72574	0.925
5.76683	0.907
5.80793	0.896
5.84903	0.895
5.89012	0.886
5.93122	0.869
5.97232	0.838
6.01341	0.79
6.05451	0.736
6.09561	0.688
6.13671	0.683
6.1778	0.719
6.2189	0.793
6.26	0.841
6.30109	0.872
6.34219	0.882
6.38329	0.889
6.42439	0.893
6.46548	0.886
6.50658	0.888
6.54768	0.876
6.58877	0.855
6.62987	0.803
6.67097	0.647
6.71206	0.187
6.75316	0.227
6.79426	0.359
6.83536	0.321
6.87645	0.504
6.91755	0.671
6.95865	0.705
6.99974	0.602
7.04084	0.33
7.08194	0.144
7.12304	0.098
7.16413	0.053
7.20523	0.122
7.24633	0.371
7.28742	0.504
7.32852	0.445
7.36962	0.612
7.41071	0.759
7.45181	0.81
7.49291	0.814
7.53401	0.777
7.5751	0.667
7.6162	0.526
7.6573	0.361
7.69839	0.289
7.73949	0.222
7.78059	0.314
7.82169	0.428
7.86278	0.549
7.90388	0.64
7.94498	0.662
7.98607	0.664
8.02717	0.667
8.06827	0.567
8.10936	0.442
8.15046	0.545
8.19156	0.611
8.23266	0.562
8.27375	0.251
8.31485	0.285
8.35595	0.423
8.39704	0.537
8.43814	0.655
8.47924	0.726
8.52034	0.746
8.56143	0.764
8.60253	0.781
8.64363	0.791
8.68472	0.802
8.72582	0.808
8.76692	0.815
8.80801	0.815
8.84911	0.817
8.89021	0.815
8.93131	0.812
8.9724	0.793
9.0135	0.729
9.0546	0.535
9.09569	0.5
9.13679	0.585
9.17789	0.678
9.21899	0.733
9.26008	0.746
9.30118	0.753
9.34228	0.755
9.38337	0.746
9.42447	0.728
9.46557	0.69
9.50666	0.629
9.54776	0.514
9.58886	0.325
9.62996	0.087
9.67105	0.027
9.71215	0.02
9.75325	0.018
9.79434	0.017
9.83544	0.017
9.87654	0.018
9.91764	0.048
9.95873	0.156
9.99983	0.351
10.0409	0.49
10.082	0.59
10.1231	0.645
10.1642	0.674
10.2053	0.695
10.2464	0.66
10.2875	0.562
10.3286	0.633
10.3697	0.722
10.4108	0.769
10.4519	0.802
10.493	0.815
10.5341	0.822
10.5752	0.82
10.6163	0.784
10.6574	0.757
10.6985	0.729
10.7396	0.728
10.7807	0.817
10.8218	0.865
10.8629	0.891
10.904	0.908
10.9451	0.922
10.9862	0.932
11.0273	0.938
11.0684	0.941
11.1094	0.944
11.1505	0.948
11.1916	0.95
11.2327	0.95
11.2738	0.95
11.3149	0.946
11.356	0.917
11.3971	0.824
11.4382	0.705
11.4793	0.784
11.5204	0.882
11.5615	0.924
11.6026	0.943
11.6437	0.946
11.6848	0.951
11.7259	0.955
11.767	0.956
11.8081	0.958
11.8492	0.96
11.8903	0.962
11.9314	0.963
11.9725	0.963
12.0136	0.967
12.0547	0.965
12.0958	0.965
12.1369	0.965
12.178	0.965
12.2191	0.965
12.2602	0.965
12.3013	0.965
12.3424	0.965
12.3835	0.965
12.4246	0.96
12.4657	0.955
12.5068	0.946
12.5478	0.934
12.5889	0.91
12.63	0.846
12.6711	0.728
12.7122	0.557
12.7533	0.5
12.7944	0.614
12.8355	0.683
12.8766	0.674
12.9177	0.654
12.9588	0.654
12.9999	0.695
13.041	0.776
13.0821	0.841
13.1232	0.879
13.1643	0.898
13.2054	0.907
13.2465	0.912
13.2876	0.915
13.3287	0.915
13.3698	0.915
13.4109	0.915
13.452	0.915
13.4931	0.915
13.5342	0.915
13.5753	0.912
13.6164	0.91
13.6575	0.905
13.6986	0.9
13.7397	0.891
13.7808	0.882
13.8219	0.879
13.863	0.87
13.904	0.858
13.9451	0.848
13.9862	0.836
14.0273	0.814
14.0684	0.791
14.1095	0.757
14.1506	0.721
14.1917	0.667
14.2328	0.605
14.2739	0.554
14.315	0.509
14.3561	0.475
14.3972	0.454
14.4383	0.452
14.4794	0.488
14.5205	0.547
14.5616	0.628
14.6027	0.688
14.6438	0.738
14.6849	0.769
14.726	0.795
14.7671	0.808
14.8082	0.819
14.8493	0.824
14.8904	0.824
14.9315	0.817
14.9726	0.807
15.0137	0.784
15.0548	0.776
15.0959	0.772
15.137	0.759
15.1781	0.745
15.2192	0.728
15.2603	0.717
15.3013	0.693
15.3424	0.671
15.3835	0.652
15.4246	0.631
15.4657	0.612
15.5068	0.59
15.5479	0.564
15.589	0.549
15.6301	0.528
15.6712	0.512
15.7123	0.502
15.7534	0.497
15.7945	0.492
15.8356	0.492
15.8767	0.49
15.9178	0.49
15.9589	0.487
16	0.488
