Infrared Spectrum: 5-Aminoindane
Formula: C 9 H 11 N
CAS: 24425-40-9
State: gas
Origin: EPA-IR VAPOR PHASE LIBRARY
1/CM	ABSORBANCE
549.9	0.04074
559.547	0.04015
569.193	0.03655
578.84	0.03273
588.486	0.03039
598.133	0.0305
607.779	0.0325
617.426	0.03781
627.072	0.04906
636.719	0.07109
646.365	0.09787
656.012	0.10899
665.658	0.1083
675.305	0.10277
684.951	0.08634
694.598	0.06832
704.245	0.05378
713.891	0.04435
723.538	0.03912
733.184	0.03601
742.831	0.03429
752.477	0.03555
762.124	0.03948
771.77	0.0368
781.417	0.04524
791.063	0.06961
800.71	0.10589
810.356	0.08387
820.003	0.05883
829.649	0.04775
839.296	0.05676
848.943	0.06507
858.589	0.05036
868.236	0.03295
877.882	0.02291
887.529	0.0192
897.175	0.01833
906.822	0.01761
916.468	0.01869
926.115	0.02573
935.761	0.02462
945.408	0.01709
955.054	0.0154
964.701	0.01622
974.347	0.01669
983.994	0.01631
993.64	0.01493
1003.29	0.01355
1012.93	0.01276
1022.58	0.01358
1032.23	0.01629
1041.87	0.01966
1051.52	0.02453
1061.17	0.03263
1070.81	0.03805
1080.46	0.03558
1090.11	0.02894
1099.75	0.02492
1109.4	0.02348
1119.05	0.02246
1128.69	0.02261
1138.34	0.02577
1147.99	0.02553
1157.63	0.02187
1167.28	0.01958
1176.92	0.01751
1186.57	0.02253
1196.22	0.03101
1205.86	0.03205
1215.51	0.02601
1225.16	0.02191
1234.8	0.01906
1244.45	0.02528
1254.1	0.05141
1263.74	0.09457
1273.39	0.10355
1283.04	0.07215
1292.68	0.04079
1302.33	0.05138
1311.98	0.08452
1321.62	0.09606
1331.27	0.06147
1340.92	0.02656
1350.56	0.01657
1360.21	0.01221
1369.86	0.00969
1379.5	0.00846
1389.15	0.00929
1398.79	0.01139
1408.44	0.01278
1418.09	0.0145
1427.73	0.02109
1437.38	0.03347
1447.03	0.04523
1456.67	0.04789
1466.32	0.05153
1475.97	0.08751
1485.61	0.18739
1495.26	0.23606
1504.91	0.15377
1514.55	0.0392
1524.2	0.01833
1533.85	0.01496
1543.49	0.01623
1553.14	0.02054
1562.79	0.02611
1572.43	0.03525
1582.08	0.0553
1591.73	0.08793
1601.37	0.11664
1611.02	0.15268
1620.67	0.21802
1630.31	0.23698
1639.96	0.15772
1649.6	0.05765
1659.25	0.02775
1668.9	0.0191
1678.54	0.0156
1688.19	0.01414
1697.84	0.01299
1707.48	0.01204
1717.13	0.01204
1726.78	0.01222
1736.42	0.01133
1746.07	0.00971
1755.72	0.00811
1765.36	0.00717
1775.01	0.00665
1784.66	0.00615
1794.3	0.00576
1803.95	0.00565
1813.6	0.0059
1823.24	0.00645
1832.89	0.00822
1842.54	0.01074
1852.18	0.01143
1861.83	0.00997
1871.47	0.00737
1881.12	0.00624
1890.77	0.00599
1900.41	0.00577
1910.06	0.00565
1919.71	0.00565
1929.35	0.00554
1939	0.00522
1948.65	0.0049076
1958.29	0.0047369
1967.94	0.0044473
1977.59	0.0041875
1987.23	0.0040664
1996.88	0.0042649
2006.53	0.0044406
2016.17	0.0045679
2025.82	0.0046249
2035.47	0.0047119
2045.11	0.0048771
2054.76	0.00509
2064.41	0.00517
2074.05	0.00508
2083.7	0.0047386
2093.35	0.0043363
2102.99	0.0038807
2112.64	0.003514
2122.28	0.003413
2131.93	0.003408
2141.58	0.003407
2151.22	0.003438
2160.87	0.003555
2170.52	0.0036
2180.16	0.003701
2189.81	0.0038258
2199.46	0.00387
2209.1	0.003755
2218.75	0.003569
2228.4	0.003548
2238.04	0.003735
2247.69	0.0038218
2257.34	0.003609
2266.98	0.003518
2276.63	0.003719
2286.28	0.0040152
2295.92	0.0041008
2305.57	0.00397539
2315.22	0.003735
2324.86	0.003594
2334.51	0.003657
2344.16	0.003662
2353.8	0.003538
2363.45	0.003508
2373.09	0.003622
2382.74	0.003442
2392.39	0.003108
2402.03	0.00291
2411.68	0.0029
2421.33	0.003023
2430.97	0.002989
2440.62	0.00281
2450.27	0.00257
2459.91	0.00246
2469.56	0.00227
2479.21	0.00205
2488.85	0.00202
2498.5	0.00199
2508.15	0.00219
2517.79	0.00236
2527.44	0.00265
2537.09	0.0028
2546.73	0.00274
2556.38	0.00281
2566.03	0.003005
2575.67	0.003393
2585.32	0.00361
2594.96	0.003544
2604.61	0.003251
2614.26	0.003087
2623.9	0.002983
2633.55	0.002979
2643.2	0.003104
2652.84	0.003158
2662.49	0.003198
2672.14	0.003336
2681.78	0.003401
2691.43	0.003605
2701.08	0.00400912
2710.72	0.0043982
2720.37	0.00457
2730.02	0.0047166
2739.66	0.0048999
2749.31	0.00516
2758.96	0.00553
2768.6	0.00564
2778.25	0.00581
2787.9	0.00623
2797.54	0.00723
2807.19	0.00916
2816.84	0.0123
2826.48	0.01915
2836.13	0.03978
2845.77	0.09293
2855.42	0.12837
2865.07	0.12582
2874.71	0.09683
2884.36	0.08877
2894.01	0.09271
2903.65	0.11005
2913.3	0.1251
2922.95	0.14162
2932.59	0.1668
2942.24	0.21403
2951.89	0.26945
2961.53	0.28725
2971.18	0.17663
2980.83	0.08113
2990.47	0.04532
3000.12	0.05899
3009.77	0.1029
3019.41	0.11333
3029.06	0.08452
3038.71	0.06329
3048.35	0.05667
3058	0.04465
3067.64	0.03328
3077.29	0.02682
3086.94	0.02022
3096.58	0.01427
3106.23	0.01055
3115.88	0.00869
3125.52	0.00651
3135.17	0.0042144
3144.82	0.00288
3154.46	0.0019
3164.11	0.00181
3173.76	0.0017
3183.4	0.00163
3193.05	0.00178
3202.7	0.00255
3212.34	0.003073
3221.99	0.003288
3231.64	0.003552
3241.28	0.003531
3250.93	0.00244
3260.58	0.00158
3270.22	0.00091
3279.87	0.00045
3289.52	0.0002
3299.16	0.00036
3308.81	0.00015
3318.45	0.00015
3328.1	0.00026
3337.75	0.00045
3347.39	0.00049
3357.04	0.00106
3366.69	0.00204
3376.33	0.00397418
3385.98	0.00885
3395.63	0.0171
3405.27	0.02191
3414.92	0.01613
3424.57	0.00857
3434.21	0.0048338
3443.86	0.0047094
3453.51	0.00594
3463.15	0.00939
3472.8	0.01486
3482.45	0.01849
3492.09	0.01846
3501.74	0.01299
3511.39	0.0076
3521.03	0.0042859
3530.68	0.00286
3540.33	0.00223
3549.97	0.00204
3559.62	0.0018
3569.26	0.00171
3578.91	0.00165
3588.56	0.00162
3598.2	0.00173
3607.85	0.00154
3617.5	0.00153
3627.14	0.00153
3636.79	0.00156
3646.44	0.00165
3656.08	0.00167
3665.73	0.00157
3675.38	0.00163
3685.02	0.00184
3694.67	0.00202
3704.32	0.00207
3713.96	0.00214
3723.61	0.00217
3733.26	0.00219
3742.9	0.00225
3752.55	0.00219
3762.2	0.00226
3771.84	0.00249
3781.49	0.00267
3791.13	0.0027
3800.78	0.00266
3810.43	0.00253
3820.07	0.00237
3829.72	0.00255
3839.37	0.00271
3849.01	0.003166
3858.66	0.003549
3868.31	0.003561
3877.95	0.003328
3887.6	0.003384
3897.25	0.00366
3906.89	0.003421
3916.54	0.00315
3926.19	0.00288
3935.83	0.00289
3945.48	0.003062
3955.13	0.003432
3964.77	0.003711
3974.42	0.003856
3984.07	0.003776
3993.71	0.003738
