Infrared Spectrum: 1,1-Diethyldiethylenetriamine
Formula: C8 H21 N3
CAS: 24426-16-2
State: LIQUID (NEAT)
Class: COBLENTZ III
Instrument: BECKMAN IR-9 (GRATING)
Instrument parameters: ORDER CHANGES: 670, 1200, 2000 CM^-^1
Sampling: TRANSMISSION
Path length: CAPILLARY
Resolution: 2
Origin: DOW CHEMICAL COMPANY
1/CM	TRANSMITTANCE
3798	0.8712
3789	0.8701
3780	0.8691
3771	0.8686
3762	0.8685
3753	0.8688
3744	0.8686
3735	0.8678
3726	0.8681
3717	0.8684
3708	0.8647
3699	0.8578
3690	0.8548
3681	0.8546
3672	0.8544
3663	0.8539
3654	0.8527
3645	0.85
3636	0.8455
3627	0.8406
3618	0.8362
3609	0.8316
3600	0.8266
3591	0.8192
3582	0.8117
3573	0.8028
3564	0.7935
3555	0.7838
3546	0.7775
3537	0.7711
3528	0.7644
3519	0.7574
3510	0.7501
3501	0.7426
3492	0.7358
3483	0.7291
3474	0.7218
3465	0.7144
3456	0.7068
3447	0.6987
3438	0.6904
3429	0.6826
3420	0.6761
3411	0.663
3402	0.6478
3393	0.6219
3384	0.59
3375	0.577
3366	0.577
3357	0.5804
3348	0.5839
3339	0.5788
3330	0.566
3321	0.5505
3312	0.5398
3303	0.5393
3294	0.5439
3285	0.5539
3276	0.5672
3267	0.5809
3258	0.5939
3249	0.606
3240	0.6162
3231	0.6262
3222	0.6353
3213	0.6415
3204	0.6458
3195	0.6501
3186	0.6569
3177	0.6645
3168	0.673
3159	0.6825
3150	0.6937
3141	0.7046
3132	0.7145
3123	0.7235
3114	0.731
3105	0.7374
3096	0.7415
3087	0.7421
3078	0.7431
3069	0.7435
3060	0.7422
3051	0.7392
3042	0.7341
3033	0.7268
3024	0.7121
3015	0.6818
3006	0.6106
2997	0.5316
2988	0.4222
2979	0.1154
2970	0.1703
2961	0.2466
2952	0.2217
2943	0.1771
2934	0.2034
2925	0.2433
2916	0.2732
2907	0.2772
2898	0.2782
2889	0.2749
2880	0.2726
2871	0.32
2862	0.3412
2853	0.2738
2844	0.2475
2835	0.2181
2826	0.1798
2817	0.1694
2808	0.1765
2799	0.2365
2790	0.3093
2781	0.4178
2772	0.4855
2763	0.5217
2754	0.5574
2745	0.5809
2736	0.6056
2727	0.6305
2718	0.6558
2709	0.678
2700	0.6962
2691	0.7121
2682	0.7286
2673	0.7442
2664	0.7586
2655	0.7712
2646	0.7839
2637	0.7936
2628	0.8024
2619	0.8192
2610	0.8266
2601	0.8283
2592	0.8299
2583	0.8317
2574	0.835
2565	0.8399
2556	0.8434
2547	0.8468
2538	0.8502
2529	0.8535
2520	0.8568
2511	0.86
2502	0.863
2493	0.866
2484	0.8683
2475	0.8699
2466	0.8715
2457	0.8731
2448	0.8746
2439	0.8762
2430	0.8778
2421	0.8788
2412	0.8795
2403	0.8789
2394	0.8752
2385	0.8723
2376	0.8714
2367	0.8725
2358	0.8735
2349	0.874
2340	0.8743
2331	0.8739
2322	0.8735
2313	0.8731
2304	0.8727
2295	0.8724
2286	0.8721
2277	0.8718
2268	0.8721
2259	0.8743
2250	0.8764
2241	0.8781
2232	0.8797
2223	0.8802
2214	0.8809
2205	0.882
2196	0.8831
2187	0.8842
2178	0.8852
2169	0.8862
2160	0.8871
2151	0.8882
2142	0.8887
2133	0.889
2124	0.8894
2115	0.8897
2106	0.89
2097	0.8912
2088	0.8925
2079	0.8937
2070	0.895
2061	0.8963
2052	0.8975
2043	0.8986
2034	0.899
2025	0.8994
2016	0.8997
2007	0.8975
1998	0.8957
1989	0.893
1980	0.8918
1971	0.8908
1962	0.8904
1953	0.8903
1944	0.8902
1935	0.8899
1926	0.889
1917	0.8881
1908	0.8871
1899	0.8871
1890	0.8881
1881	0.8891
1872	0.89
1863	0.8907
1854	0.8911
1845	0.8905
1836	0.89
1827	0.8904
1818	0.8908
1809	0.8914
1800	0.8918
1791	0.8915
1782	0.8908
1773	0.8899
1764	0.8891
1755	0.8885
1746	0.8875
1737	0.8852
1728	0.8797
1719	0.871
1710	0.8597
1701	0.8457
1692	0.8161
1683	0.7904
1674	0.7865
1665	0.7901
1656	0.7915
1647	0.7858
1638	0.7771
1629	0.7636
1620	0.7425
1611	0.7256
1602	0.7204
1593	0.7255
1584	0.7445
1575	0.7639
1566	0.7848
1557	0.8028
1548	0.8156
1539	0.8241
1530	0.8281
1521	0.8221
1512	0.804
1503	0.7782
1494	0.7351
1485	0.6575
1476	0.4294
1467	0.4129
1458	0.396
1449	0.4385
1440	0.5132
1431	0.7087
1422	0.7722
1413	0.779
1404	0.7558
1395	0.6066
1386	0.431
1377	0.4991
1368	0.5938
1359	0.6145
1350	0.6086
1341	0.6322
1332	0.6674
1323	0.7018
1314	0.6757
1305	0.6221
1296	0.568
1287	0.6396
1278	0.7004
1269	0.6869
1260	0.7032
1251	0.7165
1242	0.721
1233	0.734
1224	0.7304
1215	0.6815
1206	0.5117
1197	0.5875
1188	0.6907
1179	0.7012
1170	0.678
1161	0.6704
1152	0.6608
1143	0.6046
1134	0.473
1125	0.4988
1116	0.5806
1107	0.5994
1098	0.5719
1089	0.4981
1080	0.4541
1071	0.3718
1062	0.4068
1053	0.4871
1044	0.5738
1035	0.6249
1026	0.6722
1017	0.7101
1008	0.7172
999	0.7042
990	0.7203
981	0.7372
972	0.731
963	0.7228
954	0.6871
945	0.6543
936	0.6285
927	0.6056
918	0.5928
909	0.5941
900	0.5948
891	0.6071
882	0.599
873	0.5801
864	0.5689
855	0.5646
846	0.5607
837	0.5538
828	0.5439
819	0.5331
810	0.527
801	0.5264
792	0.5212
783	0.5138
774	0.5145
765	0.5302
756	0.5643
747	0.5736
738	0.5717
729	0.6029
720	0.6495
711	0.6951
702	0.7361
693	0.7638
684	0.7771
675	0.7891
666	0.7938
657	0.7961
648	0.7985
639	0.7991
630	0.7995
621	0.8
612	0.8001
603	0.7975
594	0.7911
585	0.7837
576	0.7758
567	0.7688
558	0.7638
549	0.7539
540	0.7419
531	0.7298
522	0.7184
513	0.7125
504	0.7121
495	0.7115
486	0.7107
477	0.7085
468	0.7035
459	0.6854
450	0.6595
441	0.6285
432	0.5812
423	0.5444
414	0.5185
405	0.5236
