Infrared Spectrum: 4-Ethylphenoxyacetic acid
Formula: C 10 H 12 O 3
CAS: 24431-27-4
State: gas
Origin: EPA-IR VAPOR PHASE LIBRARY
1/CM	ABSORBANCE
549.8	0.018588
559.445	0.019888
569.09	0.019398
578.735	0.018378
588.38	0.018548
598.025	0.020538
607.67	0.023318
617.315	0.024268
626.96	0.022028
636.605	0.018148
646.251	0.014378
655.896	0.012148
665.541	0.010628
675.186	0.008748
684.831	0.007498
694.476	0.007508
704.121	0.008528
713.766	0.008078
723.411	0.007318
733.056	0.006928
742.701	0.006848
752.346	0.005928
761.991	0.004388
771.636	0.003508
781.281	0.003908
790.926	0.005678
800.571	0.009438
810.216	0.014658
819.861	0.020818
829.507	0.027348
839.152	0.024138
848.797	0.015048
858.442	0.009888
868.087	0.007408
877.732	0.006198
887.377	0.005148
897.022	0.004038
906.667	0.003108
916.312	0.002568
925.957	0.002368
935.602	0.002538
945.247	0.002778
954.892	0.003468
964.537	0.004528
974.182	0.004718
983.827	0.004818
993.472	0.005488
1003.12	0.007398
1012.76	0.011338
1022.41	0.012358
1032.05	0.016488
1041.7	0.026178
1051.34	0.038228
1060.99	0.047788
1070.63	0.053868
1080.28	0.051728
1089.92	0.035068
1099.57	0.027268
1109.21	0.035348
1118.86	0.052458
1128.5	0.054138
1138.15	0.042188
1147.79	0.039758
1157.44	0.041598
1167.08	0.045988
1176.73	0.050338
1186.37	0.033988
1196.02	0.035738
1205.66	0.053028
1215.31	0.075688
1224.95	0.096128
1234.6	0.083758
1244.24	0.059948
1253.89	0.045288
1263.53	0.037818
1273.18	0.034488
1282.82	0.031148
1292.47	0.030408
1302.11	0.027598
1311.76	0.026108
1321.4	0.030898
1331.05	0.036728
1340.69	0.038648
1350.34	0.034988
1359.98	0.029428
1369.63	0.022958
1379.27	0.018128
1388.92	0.015128
1398.56	0.012918
1408.21	0.010768
1417.85	0.009798
1427.5	0.010028
1437.14	0.011668
1446.79	0.015228
1456.43	0.013428
1466.08	0.010638
1475.73	0.009998
1485.37	0.012488
1495.02	0.026388
1504.66	0.085168
1514.31	0.096398
1523.95	0.021988
1533.6	0.008158
1543.24	0.005718
1552.89	0.005728
1562.53	0.005748
1572.18	0.006098
1581.82	0.008358
1591.47	0.011698
1601.11	0.016388
1610.76	0.018128
1620.4	0.011718
1630.05	0.006038
1639.69	0.004138
1649.34	0.003248
1658.98	0.002658
1668.63	0.002318
1678.27	0.002288
1687.92	0.002518
1697.56	0.002938
1707.21	0.003658
1716.85	0.004658
1726.5	0.006498
1736.14	0.009958
1745.79	0.015718
1755.43	0.024988
1765.08	0.039448
1774.72	0.066048
1784.37	0.073868
1794.01	0.069048
1803.66	0.091548
1813.3	0.088598
1822.95	0.046378
1832.59	0.022738
1842.24	0.013708
1851.88	0.008928
1861.53	0.006278
1871.17	0.005028
1880.82	0.004008
1890.46	0.002998
1900.11	0.002338
1909.75	0.001778
1919.4	0.001448
1929.04	0.0012902
1938.69	0.0011122
1948.33	0.0010604
1957.98	0.0009215
1967.62	0.0009249
1977.27	0.0009932
1986.91	0.0010439
1996.56	0.0010231
2006.2	0.001008
2015.85	0.0010995
2025.49	0.0011506
2035.14	0.001165
2044.78	0.0011313
2054.43	0.0011234
2064.07	0.0010419
2073.72	0.0010696
2083.36	0.001042
2093.01	0.001047
2102.65	0.0008966
2112.3	0.0008913
2121.94	0.0008596
2131.59	0.0008108
2141.23	0.0007683
2150.88	0.0007724
2160.52	0.0006264
2170.17	0.0006765
2179.81	0.0005915
2189.46	0.0006025
2199.1	0.00050441
2208.75	0.0005191
2218.39	0.00043974
2228.04	0.0004991
2237.68	0.00048521
2247.33	0.0005081
2256.97	0.0005127
2266.62	0.0005419
2276.26	0.0006022
2285.91	0.0007468
2295.55	0.0009327
2305.2	0.0009841
2314.84	0.0011455
2324.49	0.0011805
2334.13	0.0011512
2343.78	0.0010604
2353.42	0.0009819
2363.07	0.0009802
2372.72	0.0008214
2382.36	0.0006016
2392.01	0.00049046
2401.65	0.00046665
2411.3	0.000537
2420.94	0.000587
2430.59	0.0006258
2440.23	0.0006636
2449.88	0.000644
2459.52	0.0005721
2469.17	0.0005475
2478.81	0.0005404
2488.46	0.0005613
2498.1	0.0005702
2507.75	0.0005113
2517.39	0.0005587
2527.04	0.00046596
2536.68	0.000414348
2546.33	0.0003425
2555.97	0.000276
2565.62	0.000273
2575.26	0.000188
2584.91	0.000219
2594.55	0.000154
2604.2	9.6e-05
2613.84	8.2e-05
2623.49	0.000179
2633.13	0.000131
2642.78	0.000138
2652.42	9.3e-05
2662.07	0.000102
2671.71	6.8e-05
2681.36	0.00011
2691	0.000174
2700.65	0.000181
2710.29	0.00023
2719.94	0.000214
2729.58	0.0003494
2739.23	0.000457
2748.87	0.00050289
2758.52	0.0005757
2768.16	0.0007959
2777.81	0.0008817
2787.45	0.0008699
2797.1	0.0008786
2806.74	0.0010432
2816.39	0.0013245
2826.03	0.001748
2835.68	0.002528
2845.32	0.003728
2854.97	0.005918
2864.61	0.009878
2874.26	0.013158
2883.9	0.014838
2893.55	0.013818
2903.19	0.013918
2912.84	0.015778
2922.48	0.018918
2932.13	0.025048
2941.77	0.030518
2951.42	0.026488
2961.06	0.026058
2970.71	0.043108
2980.35	0.032638
2990	0.015078
2999.64	0.010908
3009.29	0.008708
3018.93	0.008458
3028.58	0.012158
3038.22	0.014998
3047.87	0.008988
3057.51	0.006258
3067.16	0.005868
3076.8	0.005238
3086.45	0.003988
3096.09	0.003748
3105.74	0.003258
3115.38	0.002388
3125.03	0.001888
3134.67	0.0012834
3144.32	0.0008619
3153.96	0.0007105
3163.61	0.0006018
3173.25	0.0005339
3182.9	0.0003697
3192.54	0.0003216
3202.19	0.000221
3211.83	0.000248
3221.48	4.4e-05
3231.12	0.00012
3240.77	6e-05
3250.41	4.7e-05
3260.06	0.000176
3269.7	0.000201
3279.35	0.000209
3289	0.000171
3298.64	0.000231
3308.29	0.0003254
3317.93	0.000225
3327.58	0.000165
3337.22	0.000211
3346.87	0.000205
3356.51	0.000177
3366.16	0.000188
3375.8	0.000314
3385.45	0.000225
3395.09	0.000281
3404.74	0.000224
3414.38	0.0003199
3424.03	0.00049531
3433.67	0.0006592
3443.32	0.000727
3452.96	0.0007692
3462.61	0.0010047
3472.25	0.001518
3481.9	0.002108
3491.54	0.003608
3501.19	0.006138
3510.83	0.011018
3520.48	0.017808
3530.12	0.015518
3539.77	0.009798
3549.41	0.008338
3559.06	0.011578
3568.7	0.027718
3578.35	0.039468
3587.99	0.018138
3597.64	0.006038
3607.28	0.003158
3616.93	0.001928
3626.57	0.001478
3636.22	0.0010871
3645.86	0.0008476
3655.51	0.0007269
3665.15	0.0006632
3674.8	0.00050295
3684.44	0.0005093
3694.09	0.0005552
3703.73	0.00044124
3713.38	0.0004139
3723.02	0.0003965
3732.67	0.000416708
3742.31	0.0003312
3751.96	0.000303
3761.6	0.00049094
3771.25	0.00040286
3780.89	0.00043404
3790.54	0.00028
3800.18	0.000298
3809.83	0.0003571
3819.47	0.000267
3829.12	0.0003874
3838.76	0.0003219
3848.41	0.000411859
3858.05	0.000303
3867.7	0.0003871
3877.34	0.000411601
3886.99	0.000209
3896.63	0.000235
3906.28	0.000296
3915.92	0.0005607
3925.57	0.0003603
3935.21	0.00049201
3944.86	0.00041748
3954.5	0.00043086
3964.15	0.00042412
3973.79	0.00048885
3983.44	0.0005212
3993.08	0.0005174
