Infrared Spectrum: 2-Hydroxyfluorene
Formula: C 13 H 10 O
CAS: 2443-58-5
State: gas
Origin: EPA-IR VAPOR PHASE LIBRARY
1/CM	ABSORBANCE
551.7	0.00186
563.274	0.00251
574.848	0.0058
586.421	0.00414
597.995	0.0011487
609.569	0.0007006
621.143	0.0008443
632.717	0.0007931
644.291	0.0009605
655.864	0.0008182
667.438	0.0007972
679.012	0.0009434
690.586	0.0011608
702.16	0.0014159
713.734	0.006
725.307	0.01388
736.881	0.00836
748.455	0.0065
760.029	0.01228
771.603	0.0061
783.177	0.00213
794.75	0.00238
806.324	0.00382
817.898	0.00402
829.472	0.0044
841.046	0.00375
852.619	0.003
864.193	0.0026
875.767	0.00166
887.341	0.0012855
898.915	0.00122
910.489	0.00157
922.062	0.00432
933.636	0.00642
945.21	0.00309
956.784	0.00174
968.358	0.0010817
979.932	0.0009718
991.505	0.001272
1003.08	0.00158
1014.65	0.0016
1026.23	0.00229
1037.8	0.0010947
1049.37	0.0011683
1060.95	0.0012771
1072.52	0.00169
1084.1	0.00329
1095.67	0.00632
1107.24	0.01062
1118.82	0.01092
1130.39	0.01016
1141.97	0.00626
1153.54	0.009
1165.11	0.01969
1176.69	0.02356
1188.26	0.01472
1199.83	0.01561
1211.41	0.00756
1222.98	0.00455
1234.56	0.004
1246.13	0.00572
1257.7	0.01452
1269.28	0.01646
1280.85	0.00627
1292.42	0.00754
1304	0.01512
1315.57	0.01045
1327.15	0.00475
1338.72	0.00624
1350.29	0.00384
1361.87	0.00186
1373.44	0.0014208
1385.02	0.0013233
1396.59	0.00214
1408.16	0.00399
1419.74	0.00482
1431.31	0.00774
1442.88	0.00879
1454.46	0.01896
1466.03	0.01418
1477.61	0.0102
1489.18	0.00896
1500.75	0.00511
1512.33	0.00323
1523.9	0.00258
1535.48	0.00171
1547.05	0.001333
1558.62	0.00205
1570.2	0.00414
1581.77	0.00678
1593.34	0.00894
1604.92	0.00972
1616.49	0.0121
1628.07	0.0069
1639.64	0.00321
1651.21	0.00233
1662.79	0.00159
1674.36	0.0013728
1685.93	0.0012031
1697.51	0.0010303
1709.08	0.0010812
1720.66	0.000938
1732.23	0.0007137
1743.8	0.0007042
1755.38	0.0007501
1766.95	0.0007898
1778.53	0.0008561
1790.1	0.0008815
1801.67	0.0008667
1813.25	0.0008723
1824.82	0.0010404
1836.39	0.0009872
1847.97	0.001009
1859.54	0.0010327
1871.12	0.0010658
1882.69	0.0010763
1894.26	0.0008801
1905.84	0.000752
1917.41	0.0007527
1928.99	0.0010811
1940.56	0.0010538
1952.13	0.00058239
1963.71	0.00053142
1975.28	0.0005745
1986.85	0.00053408
1998.43	0.0004898
2010	0.000518833
2021.58	0.00057968
2033.15	0.0005971
2044.72	0.00055641
2056.3	0.0004787
2067.87	0.0004936
2079.44	0.0004589
2091.02	0.0004507
2102.59	0.0004782
2114.17	0.0004668
2125.74	0.0004566
2137.31	0.0004557
2148.89	0.0004515
2160.46	0.0004507
2172.04	0.0004737
2183.61	0.000539
2195.18	0.00056613
2206.76	0.00053035
2218.33	0.000514123
2229.9	0.0004997
2241.48	0.00051649
2253.05	0.0004929
2264.63	0.00055201
2276.2	0.000518043
2287.77	0.0004656
2299.35	0.00054474
2310.92	0.00058289
2322.5	0.00059138
2334.07	0.0006318
2345.64	0.0006112
2357.22	0.0006401
2368.79	0.0006734
2380.36	0.0006693
2391.94	0.0006535
2403.51	0.0006154
2415.09	0.00057012
2426.66	0.00060374
2438.23	0.0006277
2449.81	0.00059632
2461.38	0.00057804
2472.96	0.000514152
2484.53	0.00054217
2496.1	0.0004896
2507.68	0.0004908
2519.25	0.000496
2530.82	0.0004926
2542.4	0.0004854
2553.97	0.0004457
2565.55	0.0004347
2577.12	0.0004454
2588.69	0.00053176
2600.27	0.0006167
2611.84	0.0006208
2623.41	0.00052029
2634.99	0.000463
2646.56	0.000398
2658.14	0.000365
2669.71	0.000358
2681.28	0.000406
2692.86	0.0004313
2704.43	0.0004151
2716.01	0.0004101
2727.58	0.0004171
2739.15	0.000378
2750.73	0.00034
2762.3	0.0004212
2773.87	0.000415
2785.45	0.00050256
2797.02	0.0007687
2808.6	0.0009628
2820.17	0.0007222
2831.74	0.0004798
2843.32	0.000406
2854.89	0.000371
2866.47	0.0004813
2878.04	0.00057859
2889.61	0.0011084
2901.19	0.00284
2912.76	0.00454
2924.33	0.00378
2935.91	0.00154
2947.48	0.00060333
2959.06	0.000515869
2970.63	0.0004913
2982.2	0.0006466
2993.78	0.0012473
3005.35	0.00315
3016.92	0.00674
3028.5	0.0075
3040.07	0.0066
3051.65	0.00672
3063.22	0.00896
3074.79	0.00908
3086.37	0.00512
3097.94	0.0025
3109.52	0.0012354
3121.09	0.0006223
3132.66	0.0004435
3144.24	0.00050068
3155.81	0.00059731
3167.38	0.00057427
3178.96	0.000285
3190.53	0.000366
3202.11	0.00028
3213.68	0.000276
3225.25	0.000226
3236.83	0.000201
3248.4	0.000227
3259.98	0.000254
3271.55	0.000152
3283.12	0.000157
3294.7	0.00019
3306.27	0.000184
3317.84	0.000182
3329.42	0.000205
3340.99	0.000286
3352.57	0.000309
3364.14	0.000284
3375.71	0.000308
3387.29	0.000364
3398.86	0.000389
3410.43	0.000309
3422.01	0.000312
3433.58	0.00033
3445.16	0.000232
3456.73	0.000327
3468.3	0.000248
3479.88	0.00022
3491.45	0.00025
3503.03	0.00019
3514.6	0.000181
3526.17	0.000106
3537.75	0.000263
3549.32	0.000253
3560.89	0.00016
3572.47	0.000284
3584.04	0.000247
3595.62	0.000328
3607.19	0.000433
3618.76	0.0007867
3630.34	0.0021
3641.91	0.00962
3653.49	0.01957
3665.06	0.00467
3676.63	0.0008286
3688.21	0.000356
3699.78	0.000302
3711.35	0.000177
3722.93	0.000359
3734.5	0.000169
3746.08	0.000218
3757.65	0.000173
3769.22	0.000183
3780.8	0.000215
3792.37	0.000197
3803.94	0.000212
3815.52	0.000252
3827.09	0.000241
3838.67	0.000278
3850.24	0.000198
3861.81	0.00032
3873.39	0.00033
3884.96	0.000297
3896.54	0.000244
3908.11	0.000189
3919.68	0.000243
3931.26	0.000126
3942.83	0.000213
3954.4	0.000216
3965.98	0.000135
3977.55	0.000164
3989.13	0.000142
4000.7	6.7e-05
