Infrared Spectrum: 4-Hydroxyphenyl benzoate
Formula: C 13 H 10 O 3
CAS: 2444-19-1
State: gas
Origin: EPA-IR VAPOR PHASE LIBRARY
1/CM	ABSORBANCE
549.8	0.004444
559.445	0.002724
569.09	0.001934
578.734	0.0016904
588.379	0.002114
598.024	0.0016831
607.669	0.0015857
617.313	0.001974
626.958	0.002864
636.603	0.002384
646.248	0.004294
655.893	0.005624
665.537	0.007554
675.182	0.014134
684.827	0.016084
694.472	0.037444
704.116	0.062714
713.761	0.040494
723.406	0.015474
733.051	0.009164
742.695	0.007964
752.34	0.008074
761.985	0.018294
771.63	0.028304
781.275	0.010744
790.919	0.012584
800.564	0.014694
810.209	0.015604
819.854	0.014134
829.498	0.012114
839.143	0.011754
848.788	0.013984
858.433	0.018904
868.078	0.017614
877.722	0.011104
887.367	0.007074
897.012	0.005194
906.657	0.004804
916.301	0.004744
925.946	0.004644
935.591	0.004704
945.236	0.004284
954.88	0.004404
964.525	0.005294
974.17	0.005884
983.815	0.006794
993.46	0.007564
1003.1	0.011544
1012.75	0.023754
1022.39	0.068444
1032.04	0.030714
1041.68	0.026684
1051.33	0.086474
1060.97	0.150324
1070.62	0.110464
1080.26	0.087644
1089.91	0.035324
1099.55	0.025374
1109.2	0.015274
1118.84	0.012484
1128.49	0.013544
1138.13	0.015384
1147.78	0.025324
1157.42	0.054094
1167.07	0.166844
1176.71	0.298894
1186.36	0.248454
1196	0.289564
1205.64	0.154674
1215.29	0.095424
1224.93	0.078214
1234.58	0.104404
1244.22	0.137574
1253.87	0.233184
1263.51	0.212454
1273.16	0.096784
1282.8	0.040834
1292.45	0.030154
1302.09	0.029024
1311.74	0.031544
1321.38	0.030224
1331.03	0.021894
1340.67	0.019474
1350.32	0.013714
1359.96	0.009244
1369.61	0.006414
1379.25	0.005574
1388.9	0.005304
1398.54	0.004594
1408.18	0.004654
1417.83	0.006514
1427.47	0.016504
1437.12	0.029754
1446.76	0.020044
1456.41	0.017214
1466.05	0.009104
1475.7	0.009464
1485.34	0.017024
1494.99	0.056974
1504.63	0.208584
1514.28	0.131104
1523.92	0.023344
1533.57	0.010824
1543.21	0.008734
1552.86	0.007014
1562.5	0.005634
1572.15	0.006254
1581.79	0.007824
1591.44	0.010914
1601.08	0.016474
1610.73	0.011994
1620.37	0.007094
1630.01	0.005804
1639.66	0.005334
1649.3	0.004284
1658.95	0.003544
1668.59	0.003824
1678.24	0.003954
1687.88	0.004424
1697.53	0.005644
1707.17	0.007784
1716.82	0.011334
1726.46	0.017434
1736.11	0.031734
1745.75	0.069544
1755.4	0.130584
1765.04	0.111534
1774.69	0.042274
1784.33	0.016044
1793.98	0.010024
1803.62	0.008484
1813.27	0.007654
1822.91	0.005144
1832.55	0.003964
1842.2	0.003944
1851.84	0.003784
1861.49	0.004134
1871.13	0.003814
1880.78	0.003264
1890.42	0.003204
1900.07	0.003494
1909.71	0.003964
1919.36	0.004394
1929	0.003764
1938.65	0.003364
1948.29	0.003714
1957.94	0.004514
1967.58	0.004294
1977.23	0.002944
1986.87	0.002054
1996.52	0.002154
2006.16	0.002514
2015.81	0.002774
2025.45	0.003424
2035.1	0.003284
2044.74	0.003094
2054.38	0.002624
2064.03	0.002594
2073.67	0.002344
2083.32	0.002034
2092.96	0.001984
2102.61	0.001854
2112.25	0.002314
2121.9	0.002324
2131.54	0.001914
2141.19	0.0017174
2150.83	0.0014531
2160.48	0.0013649
2170.12	0.001398
2179.77	0.0012686
2189.41	0.0010821
2199.06	0.0009494
2208.7	0.0008742
2218.35	0.00121
2227.99	0.0011818
2237.64	0.0011642
2247.28	0.001264
2256.92	0.0015937
2266.57	0.0016448
2276.21	0.0016252
2285.86	0.0016732
2295.5	0.0015249
2305.15	0.0017286
2314.79	0.002314
2324.44	0.002444
2334.08	0.002764
2343.73	0.002834
2353.37	0.002684
2363.02	0.002424
2372.66	0.002144
2382.31	0.002334
2391.95	0.002164
2401.6	0.001854
2411.24	0.001974
2420.89	0.002284
2430.53	0.002494
2440.18	0.001884
2449.82	0.0014828
2459.47	0.0015556
2469.11	0.0016806
2478.75	0.0015684
2488.4	0.001569
2498.04	0.0015318
2507.69	0.0015775
2517.33	0.001844
2526.98	0.0012873
2536.62	0.0012983
2546.27	0.0010348
2555.91	0.0011682
2565.56	0.0012024
2575.2	0.0010839
2584.85	0.0013323
2594.49	0.0013018
2604.14	0.0014501
2613.78	0.0010804
2623.43	0.0013254
2633.07	0.0008789
2642.72	0.0011237
2652.36	0.0010429
2662.01	0.0011555
2671.65	0.0010537
2681.29	0.0010197
2690.94	0.0010549
2700.58	0.0011218
2710.23	0.0009396
2719.87	0.001117
2729.52	0.0011802
2739.16	0.0009459
2748.81	0.0008898
2758.45	0.0012959
2768.1	0.0011361
2777.74	0.0011222
2787.39	0.0013585
2797.03	0.00084364
2806.68	0.0008758
2816.32	0.0010707
2825.97	0.00081865
2835.61	0.001202
2845.26	0.0016817
2854.9	0.0014786
2864.55	0.0016271
2874.19	0.0015051
2883.84	0.0015437
2893.48	0.0013698
2903.12	0.0008899
2912.77	0.0011541
2922.41	0.0013692
2932.06	0.0009955
2941.7	0.0012892
2951.35	0.0011235
2960.99	0.000981
2970.64	0.0011329
2980.28	0.0016445
2989.93	0.001804
2999.57	0.002114
3009.22	0.004004
3018.86	0.007734
3028.51	0.012374
3038.15	0.014564
3047.8	0.015804
3057.44	0.012504
3067.09	0.016654
3076.73	0.022514
3086.38	0.012254
3096.02	0.009694
3105.67	0.007144
3115.31	0.004554
3124.95	0.003074
3134.6	0.002214
3144.24	0.0016391
3153.89	0.0013775
3163.53	0.0011657
3173.18	0.0011583
3182.82	0.0006659
3192.47	0.0006567
3202.11	0.001
3211.76	0.000575
3221.4	0.0011058
3231.05	0.00081574
3240.69	0.0008677
3250.34	0.000425
3259.98	0.000755896
3269.63	0.000604
3279.27	0.000316
3288.92	0.000397
3298.56	0.000647
3308.21	0.000481
3317.85	0.000543
3327.49	0.0008863
3337.14	0.0009907
3346.78	0.0007157
3356.43	0.0011782
3366.07	0.0012805
3375.72	0.0013447
3385.36	0.0013273
3395.01	0.0009049
3404.65	0.0011244
3414.3	0.0014721
3423.94	0.0014246
3433.59	0.00116
3443.23	0.0016441
3452.88	0.0010557
3462.52	0.0014449
3472.17	0.001794
3481.81	0.0016436
3491.46	0.001754
3501.1	0.0016687
3510.75	0.0013298
3520.39	0.0013238
3530.04	0.0011092
3539.68	0.0009772
3549.32	0.0009007
3558.97	0.000336
3568.61	0.00075038
3578.26	0.0007008
3587.9	0.0012078
3597.55	0.0011341
3607.19	0.0016234
3616.84	0.002104
3626.48	0.004304
3636.13	0.009364
3645.77	0.030924
3655.42	0.058764
3665.06	0.014854
3674.71	0.004044
3684.35	0.002494
3694	0.0017528
3703.64	0.0014134
3713.29	0.001598
3722.93	0.0007415
3732.58	0.0013208
3742.22	0.0011477
3751.86	0.0009067
3761.51	0.0011506
3771.15	0.0007365
3780.8	0.0014105
3790.44	0.0010445
3800.09	0.0006777
3809.73	0.000487
3819.38	0.001052
3829.02	0.0009242
3838.67	0.0011631
3848.31	0.0011279
3857.96	0.00081506
3867.6	0.0012357
3877.25	0.0011245
3886.89	0.0012008
3896.54	0.0007133
3906.18	0.0009172
3915.83	0.0009225
3925.47	0.0012183
3935.12	0.0010395
3944.76	0.0011795
3954.41	0.0009012
3964.05	0.000616
3973.69	0.000607
3983.34	0.000282
3992.98	0.000898
