Infrared Spectrum: 1,3-Dibromo-3-methylbutane
Formula: C 5 H 10 Br 2
CAS: 24443-15-0
State: gas
Instrument: HP-GC/MS/IRD
Origin: NIST Mass Spectrometry Data Center
1/CM	ABSORBANCE
550	0.0024616
562	0.0047192
574	0.004352
586	0.0021692
598	0.00153
610	0.0012444
622	0.0011832
634	0.0020842
646	0.0048688
658	0.00918
670	0.0069802
682	0.0019142
694	0.0007616
706	0.000374
718	8.5e-05
730	0.0001938
742	0.0010132
754	0.0021658
766	0.0016116
778	0.0010642
790	0.0012886
802	0.0019176
814	0.00221
826	0.0031076
838	0.0040392
850	0.0019414
862	0.0011764
874	0.0013362
886	0.002125
898	0.0028186
910	0.0026554
922	0.0018666
934	0.0016524
946	0.0012886
958	0.0011798
970	0.0017578
982	0.0013158
994	0.0008398
1006	0.0011084
1018	0.0012716
1030	0.0009996
1042	0.0010438
1054	0.0012036
1066	0.0015334
1078	0.0038998
1090	0.0107576
1102	0.015946
1114	0.0138992
1126	0.0092854
1138	0.0123658
1150	0.0122604
1162	0.0099824
1174	0.0152184
1186	0.0171598
1198	0.0119034
1210	0.012937
1222	0.0164152
1234	0.0159936
1246	0.0087822
1258	0.0046852
1270	0.0031858
1282	0.0038386
1294	0.0047634
1306	0.00374
1318	0.0035734
1330	0.0062832
1342	0.0070856
1354	0.004811
1366	0.008755
1378	0.0140896
1390	0.0113492
1402	0.0054332
1414	0.0030226
1426	0.0047906
1438	0.0091018
1450	0.0139842
1462	0.0123828
1474	0.0077894
1486	0.003077
1498	0.0016422
1510	0.001343
1522	0.0011594
1534	0.0010404
1546	0.0009486
1558	0.0008262
1570	0.000782
1582	0.0007582
1594	0.0007242
1606	0.0006086
1618	0.0005304
1630	0.0005678
1642	0.0007106
1654	0.0007038
1666	0.0004658
1678	0.0001462
1690	4.42e-05
1702	4.08e-05
1714	1.7e-05
1726	3.4e-06
1738	5.1e-05
1750	0.000119
1762	0.0001394
1774	0.0001496
1786	0.0002142
1798	0.0002856
1810	0.0002788
1822	0.000255
1834	0.0001904
1846	0.00017
1858	0.0001326
1870	0.0001394
1882	0.0001496
1894	0.0001224
1906	0.0001394
1918	0.0001292
1930	8.5e-05
1942	0.000119
1954	0.0001054
1966	7.82e-05
1978	8.5e-05
1990	0.000119
2002	0.000102
2014	8.84e-05
2026	8.16e-05
2038	9.86e-05
2050	8.16e-05
2062	6.8e-05
2074	4.76e-05
2086	3.74e-05
2098	6.46e-05
2110	5.44e-05
2122	8.16e-05
2134	9.18e-05
2146	8.84e-05
2158	0.0001122
2170	0.0001734
2182	0.0001972
2194	0.000221
2206	0.0001734
2218	0.0001156
2230	7.14e-05
2242	4.42e-05
2254	3.4e-06
2266	1.7e-05
2278	5.44e-05
2290	9.52e-05
2302	0.0001292
2314	0.0001598
2326	0.0001088
2338	0.000136
2350	0.0001088
2362	0.0001258
2374	0.0001666
2386	0.0001632
2398	0.0001462
2410	0.0001632
2422	0.0001156
2434	0.0001224
2446	9.52e-05
2458	0.0001088
2470	0.0001224
2482	9.52e-05
2494	7.82e-05
2506	8.84e-05
2518	7.14e-05
2530	8.84e-05
2542	8.5e-05
2554	7.48e-05
2566	8.84e-05
2578	9.52e-05
2590	0.0001564
2602	0.000136
2614	0.0001802
2626	0.0002414
2638	0.000238
2650	0.0003026
2662	0.0004114
2674	0.0004794
2686	0.000391
2698	0.0003638
2710	0.0003434
2722	0.0004828
2734	0.0007514
2746	0.0007378
2758	0.0006018
2770	0.0006868
2782	0.0007752
2794	0.0007412
2806	0.0008806
2818	0.0013294
2830	0.0018598
2842	0.0029206
2854	0.0045594
2866	0.0067354
2878	0.0087448
2890	0.0096152
2902	0.0120802
2914	0.0176018
2926	0.0228684
2938	0.0206482
2950	0.0133076
2962	0.013532
2974	0.026928
2986	0.0322592
2998	0.0282438
3010	0.0085884
3022	0.0040698
3034	0.0028798
3046	0.0015164
3058	0.0010132
3070	0.001088
3082	0.0014246
3094	0.0012104
3106	0.0007378
3118	0.0005474
3130	0.0004182
3142	0.00034
3154	0.0003196
3166	0.0003434
3178	0.0003706
3190	0.0003434
3202	0.0005066
3214	0.00051
3226	0.0005712
3238	0.0005576
3250	0.0006358
3262	0.0005032
3274	0.0003706
3286	0.0001972
3298	0.00017
3310	8.16e-05
3322	3.74e-05
3334	1.36e-05
3346	9.18e-05
3358	7.82e-05
3370	6.46e-05
3382	0.0001394
3394	0.0001496
3406	0.0001326
3418	0.0001496
3430	9.86e-05
3442	0.0001598
3454	0.0001666
3466	8.84e-05
3478	0.0001292
3490	0.0001768
3502	0.0001836
3514	0.0001122
3526	0.0001632
3538	0.0001258
3550	0.0001292
3562	0.000153
3574	0.0001598
3586	0.000119
3598	0.0002108
3610	0.0001632
3622	0.0001598
3634	0.0001666
3646	0.0001904
3658	0.0002006
3670	0.0001802
3682	0.000187
3694	0.0001802
3706	0.0002176
3718	0.0001802
3730	0.0002006
3742	0.000153
3754	0.0001734
3766	0.0002142
3778	0.00017
3790	0.0002448
3802	0.0002108
3814	0.0002244
3826	0.000221
3838	0.0002822
