Infrared Spectrum: 9-Vinylanthracene
Formula: C 16 H 12
CAS: 2444-68-0
State: gas
Instrument: HP-GC/MS/IRD
Origin: NIST Mass Spectrometry Data Center
1/CM	ABSORBANCE
550	0.00068
562	0.0007568
574	0.0004352
586	0.0004944
598	0.0008528
610	0.0005328
622	0.0005984
634	0.0011216
646	0.001856
658	0.0022384
670	0.0014912
682	0.0014656
694	0.001472
706	0.0015424
718	0.0051184
730	0.016
742	0.0057248
754	0.000944
766	0.0005776
778	0.0011424
790	0.001576
802	0.0004864
814	0.0005024
826	0.0015792
838	0.004424
850	0.0022832
862	0.0012752
874	0.0033584
886	0.0036208
898	0.0011008
910	0.000952
922	0.0031008
934	0.0040672
946	0.0013936
958	0.0010384
970	0.0009744
982	0.0026272
994	0.0039424
1006	0.0015552
1018	0.0013008
1030	0.000432
1042	0.0004448
1054	0.0003344
1066	0.0002272
1078	0.000144
1090	0.0001616
1102	0.0001168
1114	5.76e-05
1126	8.96e-05
1138	0.0001584
1150	0.0003984
1162	0.0007136
1174	0.000144
1186	9.28e-05
1198	1.6e-05
1210	3.52e-05
1222	0.000112
1234	5.76e-05
1246	0.0001392
1258	0.0002336
1270	0.0002752
1282	0.00044
1294	0.0006224
1306	0.0006016
1318	0.0004528
1330	0.001248
1342	0.0012144
1354	0.0003376
1366	0.0003072
1378	0.0007744
1390	0.0007392
1402	0.0004256
1414	0.0007216
1426	0.001552
1438	0.0014704
1450	0.0009888
1462	0.0004576
1474	0.00044
1486	0.0004336
1498	0.0003552
1510	0.000728
1522	0.0007824
1534	0.0003136
1546	0.000272
1558	0.0003936
1570	0.0007856
1582	0.0006576
1594	0.0006
1606	0.000672
1618	0.0013488
1630	0.0016592
1642	0.000744
1654	0.0002688
1666	0.0003696
1678	0.0008416
1690	0.000752
1702	0.0009088
1714	0.0006496
1726	0.0004752
1738	0.0003488
1750	0.0005216
1762	0.0005952
1774	0.0003168
1786	0.0006304
1798	0.0008272
1810	0.001024
1822	0.0004608
1834	0.0004096
1846	0.0004736
1858	0.0008144
1870	0.0006512
1882	0.0003104
1894	0.000504
1906	0.000744
1918	0.0007168
1930	0.000832
1942	0.0007664
1954	0.0002
1966	0.0001568
1978	0.0001216
1990	7.36e-05
2002	7.04e-05
2014	8.96e-05
2026	0.0001104
2038	0.0001008
2050	0.0001008
2062	8.16e-05
2074	0.0001104
2086	6.08e-05
2098	5.6e-05
2110	5.28e-05
2122	5.28e-05
2134	7.2e-05
2146	4.8e-05
2158	5.12e-05
2170	7.68e-05
2182	6.88e-05
2194	8.16e-05
2206	8.96e-05
2218	6.88e-05
2230	8.16e-05
2242	0.0001088
2254	8.32e-05
2266	0.0001536
2278	9.6e-05
2290	0.0001296
2302	0.0001248
2314	0.0001296
2326	7.36e-05
2338	5.12e-05
2350	8.48e-05
2362	2.88e-05
2374	7.68e-05
2386	8e-05
2398	8.96e-05
2410	7.04e-05
2422	6.72e-05
2434	5.12e-05
2446	7.04e-05
2458	6.56e-05
2470	0.0001056
2482	9.12e-05
2494	8.32e-05
2506	6.08e-05
2518	3.36e-05
2530	8.8e-05
2542	5.76e-05
2554	6.08e-05
2566	4.96e-05
2578	4.8e-05
2590	4.48e-05
2602	2.24e-05
2614	4.16e-05
2626	4.96e-05
2638	5.12e-05
2650	5.92e-05
2662	2.24e-05
2674	3.68e-05
2686	5.12e-05
2698	6.56e-05
2710	3.84e-05
2722	6.08e-05
2734	4.48e-05
2746	5.12e-05
2758	3.68e-05
2770	3.68e-05
2782	2.72e-05
2794	7.84e-05
2806	4.32e-05
2818	0.0001136
2830	0.0001312
2842	0.0001568
2854	0.0001088
2866	0.000128
2878	0.0001552
2890	0.0002032
2902	0.0002624
2914	0.0003456
2926	0.000368
2938	0.000368
2950	0.0004176
2962	0.0005968
2974	0.0009376
2986	0.0016512
2998	0.0028464
3010	0.003496
3022	0.002704
3034	0.0045904
3046	0.0067776
3058	0.0095936
3070	0.0081008
3082	0.0093936
3094	0.0066016
3106	0.0014256
3118	0.0005728
3130	0.000336
3142	0.0003584
3154	0.0002704
3166	0.0002032
3178	0.0002
3190	0.0002272
3202	0.0001536
3214	8.16e-05
3226	0.000136
3238	0.0002
3250	0.0002032
3262	0.0001696
3274	0.0001088
3286	4.64e-05
3298	4.96e-05
3310	4.48e-05
3322	7.36e-05
3334	0.000104
3346	0.0001408
3358	3.36e-05
3370	6.4e-05
3382	4.96e-05
3394	0.0001184
3406	5.6e-05
3418	0.0001184
3430	0.0001344
3442	7.84e-05
3454	0.0001216
3466	0.0001072
3478	4.32e-05
3490	9.12e-05
3502	6.4e-06
3514	6.72e-05
3526	4e-05
3538	1.6e-06
3550	9.92e-05
3562	0.0001024
3574	0.0001312
3586	0.000136
3598	0.000136
3610	0.0001056
3622	0.0002016
3634	0.0001232
3646	9.6e-05
3658	0.0001584
3670	0.0001584
3682	0.0001712
3694	0.0002416
3706	0.0001952
3718	0.0002688
3730	0.0001408
3742	0.0002064
3754	0.0001216
3766	0.0001488
3778	0.0002208
3790	0.000184
3802	0.0001184
3814	8.64e-05
3826	0.0001184
3838	9.12e-05
