Infrared Spectrum: Coumarin, 8-methoxy-
Formula: C10 H8 O3
CAS: 2445-81-0
State: SOLUTION (CHCl3) VS SOLVENT
Class: COBLENTZ III
Instrument: CARY 90 (GRATING)
Instrument parameters: GRATING CHANGES: 3000, 2000, 1200 CM^-^1
Sampling: TRANSMISSION
Path length: 0.01 CM
Resolution: 2
Origin: WESTERN REGIONAL RES. USDA
1/CM	TRANSMITTANCE
455	0.4863
464	0.5065
473	0.5265
482	0.5485
491	0.5709
500	0.5883
509	0.593
518	0.5065
527	0.6301
536	0.638
545	0.618
554	0.6756
563	0.7272
572	0.7544
581	0.7743
590	0.7853
599	0.7907
608	0.7937
617	0.7946
626	0.7947
635	0.7935
644	0.7916
653	0.7917
662	0.7946
671	0.7975
680	0.8004
689	0.8033
698	0.8062
707	0.8091
716	0.812
725	0.8149
734	0.8178
743	0.8207
752	0.8236
761	0.8265
770	0.8294
779	0.8323
788	0.8352
797	0.8381
806	0.841
815	0.8267
824	0.7714
833	0.2181
842	0.7151
851	0.8272
860	0.8417
869	0.8381
878	0.8358
887	0.8468
896	0.8493
905	0.8266
914	0.7735
923	0.6743
932	0.7914
941	0.8541
950	0.8642
959	0.8634
968	0.8528
977	0.8116
986	0.8507
995	0.8642
1004	0.8644
1013	0.8613
1022	0.8565
1031	0.8503
1040	0.8413
1049	0.8205
1058	0.8095
1067	0.676
1076	0.3807
1085	0.3515
1094	0.6759
1103	0.7817
1112	0.8215
1121	0.8205
1130	0.7639
1139	0.7386
1148	0.8496
1157	0.8399
1166	0.6333
1175	0.4951
1184	0.7864
1193	0.7893
1202	0.5407
1211	0.5584
1220	0.577
1229	0.5957
1238	0.6143
1247	0.7267
1256	0.5881
1265	0.6536
1274	0.2981
1283	0.682
1292	0.8057
1301	0.8352
1310	0.8489
1319	0.8503
1328	0.844
1337	0.8139
1346	0.7872
1355	0.8398
1364	0.8538
1373	0.8538
1382	0.8444
1391	0.8118
1400	0.4505
1409	0.8328
1418	0.8462
1427	0.8432
1436	0.6247
1445	0.7347
1454	0.5786
1463	0.5127
1472	0.4841
1481	0.4907
1490	0.8124
1499	0.8337
1508	0.8446
1517	0.8448
1526	0.8463
1535	0.8532
1544	0.8543
1553	0.8474
1562	0.7656
1571	0.2498
1580	0.6927
1589	0.8052
1598	0.7067
1607	0.5094
1616	0.6058
1625	0.7343
1634	0.8288
1643	0.8385
1652	0.8353
1661	0.8089
1670	0.7916
1679	0.7834
1688	0.7477
1697	0.6885
1706	0.4611
1715	0.2632
1724	0.1974
1733	0.0618
1742	0.1571
1751	0.3116
1760	0.4897
1769	0.6957
1778	0.7857
1787	0.8284
1796	0.8351
1805	0.8336
1814	0.8414
1823	0.8499
1832	0.85
1841	0.8508
1850	0.8557
1859	0.86
1868	0.8631
1877	0.8652
1886	0.8704
1895	0.8641
1904	0.8628
1913	0.8591
1922	0.862
1931	0.8662
1940	0.8686
1949	0.8702
1958	0.882
1967	0.8661
1976	0.8621
1985	0.8672
1994	0.8652
2003	0.8683
2012	0.8736
2021	0.877
2030	0.8782
2039	0.8773
2048	0.8741
2057	0.8707
2066	0.872
2075	0.8753
2084	0.8774
2093	0.8787
2102	0.8795
2111	0.8796
2120	0.8797
2129	0.8799
2138	0.88
2147	0.8801
2156	0.8802
2165	0.8804
2174	0.8805
2183	0.8806
2192	0.8806
2201	0.8806
2210	0.8805
2219	0.8802
2228	0.88
2237	0.8797
2246	0.8795
2255	0.8785
2264	0.8774
2273	0.8797
2282	0.8809
2291	0.8813
2300	0.8804
2309	0.8795
2318	0.8793
2327	0.8788
2336	0.8777
2345	0.8768
2354	0.879
2363	0.8802
2372	0.88
2381	0.8792
2390	0.8781
2399	0.8757
2408	0.8725
2417	0.869
2426	0.8653
2435	0.8631
2444	0.8638
2453	0.8663
2462	0.8704
2471	0.874
2480	0.8773
2489	0.879
2498	0.8808
2507	0.8809
2516	0.8811
2525	0.8807
2534	0.8803
2543	0.8799
2552	0.8797
2561	0.8793
2570	0.8791
2579	0.8791
2588	0.8791
2597	0.8792
2606	0.8792
2615	0.879
2624	0.8788
2633	0.8786
2642	0.8784
2651	0.8784
2660	0.8785
2669	0.8786
2678	0.8788
2687	0.8788
2696	0.8786
2705	0.8785
2714	0.8783
2723	0.8784
2732	0.8787
2741	0.8788
2750	0.8779
2759	0.877
2768	0.8767
2777	0.8763
2786	0.8759
2795	0.8752
2804	0.8743
2813	0.8703
2822	0.865
2831	0.8572
2840	0.8437
2849	0.8128
2858	0.8567
2867	0.8698
2876	0.8692
2885	0.8639
2894	0.8537
2903	0.8423
2912	0.8424
2921	0.8475
2930	0.8366
2939	0.7946
2948	0.7956
2957	0.8264
2966	0.7969
2975	0.7995
2984	0.842
2993	0.8398
3002	0.7979
3011	0.714
3020	0.5735
3029	0.6018
3038	0.7053
3047	0.781
3056	0.796
3065	0.8109
3074	0.8228
3083	0.8308
3092	0.8388
3101	0.8473
3110	0.855
3119	0.8614
3128	0.8653
3137	0.8686
3146	0.871
3155	0.8729
3164	0.8744
3173	0.8752
3182	0.8759
3191	0.8758
3200	0.8754
3209	0.8751
3218	0.8761
3227	0.8773
3236	0.8788
3245	0.8797
3254	0.8805
3263	0.8811
3272	0.8815
3281	0.8818
3290	0.8818
3299	0.8813
3308	0.8808
3317	0.8803
3326	0.8801
3335	0.8799
3344	0.8798
3353	0.8789
3362	0.8779
3371	0.8766
3380	0.8753
3389	0.8744
3398	0.8731
3407	0.8709
3416	0.8689
3425	0.867
3434	0.8652
3443	0.8639
3452	0.8631
3461	0.8623
3470	0.8624
3479	0.8626
3488	0.863
3497	0.8634
3506	0.864
3515	0.8645
3524	0.8648
3533	0.8649
3542	0.8651
3551	0.8654
3560	0.8663
3569	0.8671
3578	0.8684
3587	0.8701
3596	0.8718
3605	0.8757
3614	0.8808
3623	0.8848
3632	0.8833
3641	0.8792
3650	0.8752
3659	0.8709
3668	0.8667
3677	0.8624
3686	0.8588
3695	0.8572
3704	0.8604
3713	0.8656
3722	0.8712
3731	0.8754
3740	0.8793
3749	0.8818
3758	0.8826
3767	0.8825
3776	0.8825
3785	0.8824
3794	0.8821
3803	0.8816
3812	0.8812
3821	0.8807
3830	0.8802
3839	0.8794
3848	0.8787
3857	0.8779
3866	0.8772
3875	0.8766
3884	0.8762
3893	0.8757
3902	0.8752
3911	0.8748
3920	0.8744
3929	0.874
3938	0.8735
3947	0.8729
3956	0.8725
3965	0.8721
3974	0.8717
3983	0.8713
3992	0.871
