Infrared Spectrum: Bis(4-chlorothiophenyl)oxalate
Formula: C 14 H 8 Cl 2 O 2 S 2
CAS: 24455-25-2
State: gas
Origin: EPA-IR VAPOR PHASE LIBRARY
1/CM	ABSORBANCE
549.8	0.001771
559.445	0.0012268
569.09	0.0015017
578.734	0.0010868
588.379	0.001831
598.024	0.001991
607.669	0.001443
617.313	0.001591
626.958	0.001691
636.603	0.002411
646.248	0.001851
655.893	0.002201
665.537	0.002001
675.182	0.002301
684.827	0.002811
694.472	0.004291
704.116	0.003871
713.761	0.004111
723.406	0.005111
733.051	0.006631
742.695	0.010821
752.34	0.009581
761.985	0.021851
771.63	0.034771
781.275	0.013941
790.919	0.007601
800.564	0.004771
810.209	0.004381
819.854	0.008981
829.498	0.006601
839.143	0.003291
848.788	0.003261
858.433	0.002291
868.078	0.002061
877.722	0.001601
887.367	0.0011611
897.012	0.0009756
906.657	0.0007128
916.301	0.0007864
925.946	0.00067007
935.591	0.0012123
945.236	0.000777
954.88	0.0014925
964.525	0.0010139
974.17	0.0010259
983.815	0.000547
993.46	0.0013794
1003.1	0.002031
1012.75	0.012101
1022.39	0.002421
1032.04	0.0008267
1041.68	0.000729
1051.33	0.002211
1060.97	0.0015159
1070.62	0.002911
1080.26	0.003991
1089.91	0.010711
1099.55	0.012291
1109.2	0.005431
1118.84	0.003991
1128.49	0.002121
1138.13	0.001881
1147.78	0.001475
1157.42	0.00062075
1167.07	0.0015399
1176.71	0.0013227
1186.36	0.001811
1196	0.0014265
1205.64	0.0011165
1215.29	0.0008195
1224.93	0.002951
1234.58	0.001691
1244.22	0.002471
1253.87	0.001991
1263.51	0.002351
1273.16	0.002191
1282.8	0.0012802
1292.45	0.0013324
1302.09	0.001258
1311.74	0.0013161
1321.38	0.001251
1331.03	0.0011302
1340.67	0.0012739
1350.32	0.0011023
1359.96	0.0011431
1369.61	0.0012546
1379.25	0.001981
1388.9	0.002591
1398.54	0.001901
1408.18	0.001591
1417.83	0.001651
1427.47	0.001581
1437.12	0.001651
1446.76	0.001711
1456.41	0.001951
1466.05	0.004101
1475.7	0.016041
1485.34	0.006051
1494.99	0.001611
1504.63	0.0010698
1514.28	0.0007975
1523.92	0.0009006
1533.57	0.0010978
1543.21	0.0010617
1552.86	0.0010721
1562.5	0.0015296
1572.15	0.003071
1581.79	0.002491
1591.44	0.0012879
1601.08	0.0012202
1610.73	0.001611
1620.37	0.001771
1630.01	0.001781
1639.66	0.002091
1649.3	0.001601
1658.95	0.002471
1668.59	0.002651
1678.24	0.003601
1687.88	0.006671
1697.53	0.014221
1707.17	0.026581
1716.82	0.018941
1726.46	0.007631
1736.11	0.003911
1745.75	0.002621
1755.4	0.002361
1765.04	0.002091
1774.69	0.001801
1784.33	0.0014772
1793.98	0.0012476
1803.62	0.0012693
1813.27	0.0013098
1822.91	0.0014125
1832.55	0.0012299
1842.2	0.0014195
1851.84	0.0014192
1861.49	0.0012452
1871.13	0.0014079
1880.78	0.0013368
1890.42	0.0014473
1900.07	0.0014639
1909.71	0.0011424
1919.36	0.00081
1929	0.0009305
1938.65	0.0009057
1948.29	0.000764
1957.94	0.0009615
1967.58	0.0007451
1977.23	0.0008061
1986.87	0.00067639
1996.52	0.0008505
2006.16	0.0007185
2015.81	0.0006954
2025.45	0.0007081
2035.1	0.0006913
2044.74	0.0006987
2054.38	0.0008586
2064.03	0.0006864
2073.67	0.0009441
2083.32	0.0006942
2092.96	0.0007167
2102.61	0.00062197
2112.25	0.0006878
2121.9	0.000580475
2131.54	0.0007383
2141.19	0.000698
2150.83	0.0007158
2160.48	0.0009168
2170.12	0.0007852
2179.77	0.0007192
2189.41	0.0007021
2199.06	0.0007578
2208.7	0.0008569
2218.35	0.000884
2227.99	0.00067356
2237.64	0.0005628
2247.28	0.0007993
2256.92	0.0007812
2266.57	0.0007325
2276.21	0.0008675
2285.86	0.0007426
2295.5	0.0006914
2305.15	0.0007002
2314.79	0.0006903
2324.44	0.000684
2334.08	0.0007254
2343.73	0.0007539
2353.37	0.0008207
2363.02	0.0008205
2372.66	0.0009315
2382.31	0.0009685
2391.95	0.0008593
2401.6	0.0007912
2411.24	0.0008483
2420.89	0.0007021
2430.53	0.00060459
2440.18	0.0007424
2449.82	0.0010318
2459.47	0.00063676
2469.11	0.0007987
2478.75	0.00036
2488.4	0.0007298
2498.04	0.00063946
2507.69	0.000461
2517.33	0.0008949
2526.98	0.0007322
2536.62	0.00060206
2546.27	0.000687
2555.91	0.00060302
2565.56	0.0008177
2575.2	0.0008155
2584.85	0.0006863
2594.49	0.0006827
2604.14	0.000839
2613.78	0.0005449
2623.43	0.000985
2633.07	0.00067055
2642.72	0.0008071
2652.36	0.0008023
2662.01	0.0010469
2671.65	0.0005518
2681.29	0.0009602
2690.94	0.000707
2700.58	0.0009786
2710.23	0.000804
2719.87	0.000444
2729.52	0.0006953
2739.16	0.0009491
2748.81	0.0009093
2758.45	0.0008843
2768.1	0.0011251
2777.74	0.00060247
2787.39	0.000424
2797.03	0.0007461
2806.68	0.000856
2816.32	0.0007697
2825.97	0.0007233
2835.61	0.0007369
2845.26	0.0007115
2854.9	0.0005572
2864.55	0.0007686
2874.19	0.0005415
2883.84	0.0005436
2893.48	0.00047
2903.12	0.0006935
2912.77	0.0007194
2922.41	0.0013602
2932.06	0.0006916
2941.7	0.00039
2951.35	0.00064228
2960.99	0.00062226
2970.64	0.000576
2980.28	0.000884
2989.93	0.0007281
2999.57	0.0007887
3009.22	0.0011847
3018.86	0.0010505
3028.51	0.0007461
3038.15	0.0008349
3047.8	0.0009077
3057.44	0.0008324
3067.09	0.0007616
3076.73	0.0008981
3086.38	0.0006865
3096.02	0.0011367
3105.67	0.0010286
3115.31	0.0007265
3124.95	0.0007796
3134.6	0.0008334
3144.24	0.0008115
3153.89	0.0009471
3163.53	0.0008608
3173.18	0.000318
3182.82	0.0007505
3192.47	0.0010135
3202.11	0.0009675
3211.76	0.000431
3221.4	0.000732
3231.05	0.000461
3240.69	0.0007133
3250.34	0.0011201
3259.98	0.0007264
3269.63	0.00063259
3279.27	0.0009315
3288.92	0.000403
3298.56	0.00066024
3308.21	0.0007978
3317.85	0.0014135
3327.49	0.000252
3337.14	0.0007463
3346.78	0.000407
3356.43	0.0015007
3366.07	0.000349
3375.72	0.0010972
3385.36	0.0013829
3395.01	0.0011351
3404.65	0.0012604
3414.3	0.0012403
3423.94	0.000587036
3433.59	0.0008098
3443.23	0.0006923
3452.88	0.0010224
3462.52	0.000458
3472.17	0.0011398
3481.81	0.0010402
3491.46	0.000357
3501.1	0.0015735
3510.75	0.0014809
3520.39	0.0010631
3530.04	0.0004899
3539.68	0.0007999
3549.32	0.0010923
3558.97	0.0009451
3568.61	0.000314
3578.26	0.0009198
3587.9	0.0005029
3597.55	0.0011419
3607.19	0.0005629
3616.84	0.0006889
3626.48	0.0010659
3636.13	0.0010244
3645.77	0.0008313
3655.42	0.00059915
3665.06	0.000727
3674.71	0.0009155
3684.35	0.000499
3694	0.0009625
3703.64	0.0007036
3713.29	0.0010705
3722.93	0.0010514
3732.58	0.0010166
3742.22	0.000308
3751.86	0.0009638
3761.51	0.00060666
3771.15	0.000193
3780.8	0.0007355
3790.44	0.000466
3800.09	0.0012447
3809.73	0.0005097
3819.38	0.000308
3829.02	0.0009738
3838.67	0.0005542
3848.31	0.0008951
3857.96	0.00064787
3867.6	0.0010986
3877.25	0.0005985
3886.89	0.0007601
3896.54	0.00057717
3906.18	0.0010878
3915.83	0.0008349
3925.47	0.00067315
3935.12	0.0008083
3944.76	0.000466
3954.41	0.0007429
3964.05	0.0007016
3973.69	0.0012649
3983.34	0.0008172
3992.98	0.0005294
