Infrared Spectrum: 2,12-Dibromocyclododecanone
Formula: C 12 H 20 Br 2 O
CAS: 24459-40-3
State: gas
Origin: EPA-IR VAPOR PHASE LIBRARY
1/CM	ABSORBANCE
501.5	0.0005903
513.074	0.0006536
524.648	0.0007352
536.222	0.0006373
547.796	0.0008241
559.37	0.0008646
570.944	0.0011006
582.518	0.0010635
594.092	0.0010679
605.666	0.001258
617.24	0.001848
628.814	0.002678
640.388	0.002118
651.962	0.001608
663.536	0.001618
675.11	0.001708
686.684	0.001528
698.258	0.001618
709.832	0.001758
721.406	0.002158
732.98	0.002668
744.554	0.002048
756.128	0.001508
767.702	0.001448
779.276	0.001548
790.85	0.001628
802.423	0.001318
813.997	0.001009
825.571	0.0010491
837.145	0.001218
848.719	0.001178
860.293	0.0011215
871.867	0.0011489
883.441	0.001278
895.015	0.001198
906.589	0.001126
918.163	0.0009902
929.737	0.0009396
941.311	0.0011383
952.885	0.001428
964.459	0.002028
976.033	0.001968
987.607	0.001888
999.181	0.002098
1010.76	0.002128
1022.33	0.002298
1033.9	0.002378
1045.48	0.002188
1057.05	0.002518
1068.63	0.003228
1080.2	0.002718
1091.77	0.002378
1103.35	0.002668
1114.92	0.002368
1126.49	0.001758
1138.07	0.001898
1149.64	0.002448
1161.22	0.002718
1172.79	0.003218
1184.36	0.003128
1195.94	0.002838
1207.51	0.002688
1219.09	0.002918
1230.66	0.002938
1242.23	0.002998
1253.81	0.002828
1265.38	0.002758
1276.96	0.002808
1288.53	0.002418
1300.1	0.002318
1311.68	0.002218
1323.25	0.002418
1334.83	0.002888
1346.4	0.003568
1357.97	0.003808
1369.55	0.002368
1381.12	0.001248
1392.7	0.0009035
1404.27	0.0009071
1415.84	0.0011198
1427.42	0.001848
1438.99	0.005008
1450.57	0.006698
1462.14	0.005868
1473.71	0.004478
1485.29	0.001438
1496.86	0.0007504
1508.44	0.0005172
1520.01	0.0004187
1531.58	0.0003755
1543.16	0.0003594
1554.73	0.0003389
1566.31	0.0003305
1577.88	0.0003334
1589.45	0.0003389
1601.03	0.0003628
1612.6	0.0004443
1624.18	0.0005856
1635.75	0.000635
1647.32	0.000474
1658.9	0.0004909
1670.47	0.0005972
1682.05	0.0009375
1693.62	0.001638
1705.19	0.002978
1716.77	0.005938
1728.34	0.008078
1739.92	0.010738
1751.49	0.004118
1763.06	0.001348
1774.64	0.0007568
1786.21	0.0005248
1797.79	0.0004139
1809.36	0.0003083
1820.93	0.0002604
1832.51	0.00024622
1844.08	0.00022105
1855.66	0.00022796
1867.23	0.00019587
1878.8	0.00018284
1890.38	0.00018697
1901.95	0.00017431
1913.53	0.000164277
1925.1	0.000161168
1936.67	0.0001447
1948.25	0.0001275
1959.82	0.000165551
1971.4	0.000167639
1982.97	0.0001483
1994.54	0.00017192
2006.12	0.000157251
2017.69	0.000163749
2029.27	0.00015612
2040.84	0.00015646
2052.41	0.00015256
2063.99	0.000161591
2075.56	0.000167502
2087.14	0.000145
2098.71	0.0001867
2110.28	0.000162111
2121.86	0.00016749
2133.43	0.00016971
2145.01	0.00021339
2156.58	0.000164667
2168.15	0.00015397
2179.73	0.00017082
2191.3	0.00020929
2202.88	0.00018287
2214.45	0.00017739
2226.02	0.00017831
2237.6	0.00015837
2249.17	0.000163121
2260.74	0.00018875
2272.32	0.00016466
2283.89	0.00019613
2295.47	0.00018596
2307.04	0.00017473
2318.61	0.00017271
2330.19	0.00019273
2341.76	0.00019419
2353.34	0.00020177
2364.91	0.00019902
2376.48	0.000163755
2388.06	0.00019379
2399.63	0.0002066
2411.21	0.00019875
2422.78	0.00019995
2434.35	0.0001764
2445.93	0.0001686
2457.5	0.00018577
2469.08	0.00018027
2480.65	0.00020605
2492.22	0.00021634
2503.8	0.00020562
2515.37	0.00020125
2526.95	0.00022386
2538.52	0.00022623
2550.09	0.0002293
2561.67	0.00018899
2573.24	0.00018535
2584.82	0.00020502
2596.39	0.00022572
2607.96	0.00023396
2619.54	0.0002868
2631.11	0.0003287
2642.69	0.0003505
2654.26	0.000431
2665.83	0.0005016
2677.41	0.0005711
2688.98	0.0006044
2700.56	0.0005341
2712.13	0.0004775
2723.7	0.0004161
2735.28	0.000437
2746.85	0.0004648
2758.43	0.00051
2770	0.0005655
2781.57	0.0005817
2793.15	0.0007732
2804.72	0.00095
2816.3	0.001208
2827.87	0.001568
2839.44	0.002218
2851.02	0.005518
2862.59	0.013868
2874.17	0.012988
2885.74	0.009548
2897.31	0.007868
2908.89	0.014358
2920.46	0.025498
2932.04	0.041718
2943.61	0.044028
2955.18	0.026108
2966.76	0.015388
2978.33	0.007678
2989.91	0.004448
3001.48	0.002388
3013.05	0.001398
3024.63	0.0009752
3036.2	0.000787
3047.78	0.0006276
3059.35	0.0004876
3070.92	0.0003891
3082.5	0.0003639
3094.07	0.0003402
3105.65	0.0002858
3117.22	0.00019399
3128.79	0.00021373
3140.37	0.00017201
3151.94	0.000146
3163.52	0.00021621
3175.09	0.0001247
3186.66	0.00021094
3198.24	0.0001261
3209.81	0.000160383
3221.39	0.0001264
3232.96	0.0001325
3244.53	0.0001342
3256.11	7.67e-05
3267.68	0.0001065
3279.26	8.22e-05
3290.83	0.0001125
3302.4	0.0001056
3313.98	0.0001022
3325.55	0.0001411
3337.13	0
3348.7	0.0001073
3360.27	0.0001235
3371.85	7.11e-05
3383.42	6.9e-05
3395	0.000159216
3406.57	0.000161016
3418.14	0.00022753
3429.72	0.00024872
3441.29	0.00025723
3452.86	0.00023464
3464.44	0.00023996
3476.01	0.0001777
3487.59	0.000129
3499.16	9.86e-05
3510.73	9.49e-05
3522.31	0.0001098
3533.88	0.00018752
3545.46	0.0001018
3557.03	3.5e-05
3568.6	0.0001078
3580.18	6.67e-05
3591.75	2.6e-05
3603.33	0.0001129
3614.9	6.71e-05
3626.47	8.25e-05
3638.05	8.26e-05
3649.62	0.0001174
3661.2	0.0001088
3672.77	0.0001395
3684.34	8.8e-05
3695.92	8.54e-05
3707.49	0.0001282
3719.07	0.00018748
3730.64	0.0001546
3742.21	7.81e-05
3753.79	0.0001094
3765.36	4.9e-05
3776.94	0.0001454
3788.51	0.00015483
3800.08	0.000101
3811.66	0.00019729
3823.23	0.0001384
3834.81	0.0001069
3846.38	0.0001165
3857.95	0.00020188
3869.53	7.97e-05
3881.1	5.86e-05
3892.68	6.9e-05
3904.25	0.0001406
3915.82	0.000145
3927.4	0.0001132
3938.97	0.00017421
3950.55	0.0001024
3962.12	0.0001394
3973.69	0.0001229
3985.27	0.0001235
3996.84	0.0001862
