Infrared Spectrum: 9-Chloromethyl anthracene
Formula: C 15 H 11 Cl
CAS: 24463-19-2
State: gas
Origin: EPA-IR VAPOR PHASE LIBRARY
1/CM	ABSORBANCE
549.8	0.00355
559.445	0.00285
569.09	0.00089326
578.734	0.0017271
588.379	0.00308
598.024	0.01326
607.669	0.01783
617.313	0.00534
626.958	0.001353
636.603	0.0015732
646.248	0.0016346
655.893	0.0023
665.537	0.00189
675.182	0.0017019
684.827	0.0036
694.472	0.00886
704.116	0.00874
713.761	0.00806
723.406	0.02439
733.051	0.03476
742.695	0.01034
752.34	0.00312
761.985	0.00199
771.63	0.00287
781.275	0.00627
790.919	0.00964
800.564	0.00326
810.209	0.0015104
819.854	0.000603
829.498	0.00562
839.143	0.01069
848.788	0.00661
858.433	0.00527
868.078	0.00612
877.722	0.00824
887.367	0.01106
897.012	0.00361
906.657	0.0016922
916.301	0.0017056
925.946	0.001398
935.591	0.0013663
945.236	0.00209
954.88	0.00345
964.525	0.0016482
974.17	0.0007266
983.815	0.0013053
993.46	0.0012649
1003.1	0.0012832
1012.75	0.00214
1022.39	0.00493
1032.04	0.0012244
1041.68	0.00241
1051.33	0.00289
1060.97	0.00213
1070.62	0.000807235
1080.26	0.0011447
1089.91	0.00183
1099.55	0.000423
1109.2	0.00307
1118.84	0.00086158
1128.49	0.0013008
1138.13	0.00313
1147.78	0.00221
1157.42	0.00295
1167.07	0.00333
1176.71	0.00256
1186.36	0.00244
1196	0.00283
1205.64	0.00512
1215.29	0.00409
1224.93	0.00285
1234.58	0.00498
1244.22	0.01052
1253.87	0.01305
1263.51	0.00651
1273.16	0.00326
1282.8	0.00242
1292.45	0.0017761
1302.09	0.0013634
1311.74	0.0014914
1321.38	0.0013689
1331.03	0.0012623
1340.67	0.0012526
1350.32	0.0010819
1359.96	0.00081207
1369.61	0.0010632
1379.25	0.0011873
1388.9	0.0014717
1398.54	0.001246
1408.18	0.0011105
1417.83	0.0010755
1427.47	0.001559
1437.12	0.0035
1446.76	0.00706
1456.41	0.00726
1466.05	0.00487
1475.7	0.00259
1485.34	0.00241
1494.99	0.00238
1504.63	0.00224
1514.28	0.00286
1523.92	0.00397
1533.57	0.00277
1543.21	0.0015266
1552.86	0.0017065
1562.5	0.001734
1572.15	0.0014654
1581.79	0.0012715
1591.44	0.0014506
1601.08	0.0010392
1610.73	0.0016127
1620.37	0.00238
1630.01	0.00286
1639.66	0.0012753
1649.3	0.0014148
1658.95	0.0010323
1668.59	0.00184
1678.24	0.00268
1687.88	0.00223
1697.53	0.00245
1707.17	0.00188
1716.82	0.00184
1726.46	0.0016833
1736.11	0.001596
1745.75	0.0016792
1755.4	0.0024
1765.04	0.00208
1774.69	0.00207
1784.33	0.00258
1793.98	0.00222
1803.62	0.00277
1813.27	0.00196
1822.91	0.0013698
1832.55	0.0017148
1842.2	0.0013617
1851.84	0.001479
1861.49	0.0012945
1871.13	0.0011388
1880.78	0.0013036
1890.42	0.0022
1900.07	0.00219
1909.71	0.00197
1919.36	0.00199
1929	0.00285
1938.65	0.00283
1948.29	0.0014752
1957.94	0.0011372
1967.58	0.0013214
1977.23	0.0010709
1986.87	0.0011875
1996.52	0.00085995
2006.16	0.0009099
2015.81	0.0009686
2025.45	0.0011098
2035.1	0.0010487
2044.74	0.0009999
2054.38	0.0011
2064.03	0.0009649
2073.67	0.00099
2083.32	0.0011608
2092.96	0.0012484
2102.61	0.0011826
2112.25	0.0008638
2121.9	0.0012614
2131.54	0.0009205
2141.19	0.0009433
2150.83	0.0010778
2160.48	0.0010209
2170.12	0.0010259
2179.77	0.0011209
2189.41	0.001075
2199.06	0.0010604
2208.7	0.0013154
2218.35	0.0010353
2227.99	0.0011501
2237.64	0.000946
2247.28	0.0010462
2256.92	0.0012482
2266.57	0.0010774
2276.21	0.0011641
2285.86	0.0009559
2295.5	0.0012253
2305.15	0.0011028
2314.79	0.0011787
2324.44	0.0015995
2334.08	0.0012696
2343.73	0.0015017
2353.37	0.0014312
2363.02	0.001526
2372.66	0.0011024
2382.31	0.0011203
2391.95	0.0014496
2401.6	0.0012186
2411.24	0.00084303
2420.89	0.001364
2430.53	0.0013037
2440.18	0.0010731
2449.82	0.0010471
2459.47	0.0009989
2469.11	0.0012774
2478.75	0.0012213
2488.4	0.0009752
2498.04	0.0016051
2507.69	0.0013862
2517.33	0.0014147
2526.98	0.0013527
2536.62	0.0012218
2546.27	0.0010943
2555.91	0.0012461
2565.56	0.00084747
2575.2	0.0010121
2584.85	0.0014436
2594.49	0.0010398
2604.14	0.0009587
2613.78	0.0011993
2623.43	0.0010083
2633.07	0.0009316
2642.72	0.0009854
2652.36	0.001249
2662.01	0.0009062
2671.65	0.0010004
2681.29	0.0012843
2690.94	0.0013082
2700.58	0.0015077
2710.23	0.0013834
2719.87	0.0009279
2729.52	0.001247
2739.16	0.0013295
2748.81	0.0011161
2758.45	0.0009733
2768.1	0.0012652
2777.74	0.0010808
2787.39	0.0011306
2797.03	0.0014076
2806.68	0.0012596
2816.32	0.0013454
2825.97	0.0012769
2835.61	0.0012654
2845.26	0.0013307
2854.9	0.0011521
2864.55	0.0012405
2874.19	0.0012707
2883.84	0.000955
2893.48	0.0017139
2903.12	0.0017937
2912.77	0.0017927
2922.41	0.0016762
2932.06	0.00187
2941.7	0.00226
2951.35	0.00275
2960.99	0.00237
2970.64	0.00284
2980.28	0.00288
2989.93	0.00332
2999.57	0.00496
3009.22	0.00696
3018.86	0.00679
3028.51	0.00712
3038.15	0.00881
3047.8	0.01158
3057.44	0.01971
3067.09	0.02012
3076.73	0.01378
3086.38	0.01459
3096.02	0.01005
3105.67	0.00404
3115.31	0.00273
3124.95	0.00192
3134.6	0.0015377
3144.24	0.0012278
3153.89	0.001669
3163.53	0.0015949
3173.18	0.0013449
3182.82	0.0013145
3192.47	0.0015275
3202.11	0.00199
3211.76	0.0013746
3221.4	0.001006
3231.05	0.0016265
3240.69	0.0015125
3250.34	0.0013269
3259.98	0.0016018
3269.63	0.0013356
3279.27	0.0014643
3288.92	0.0009717
3298.56	0.0011694
3308.21	0.0011347
3317.85	0.0013939
3327.49	0.0011009
3337.14	0.001507
3346.78	0.0008839
3356.43	0.00083215
3366.07	0.0011364
3375.72	0.001449
3385.36	0.0012921
3395.01	0.0012173
3404.65	0.0012339
3414.3	0.001002
3423.94	0.000588
3433.59	0.0011154
3443.23	0.000543
3452.88	0.0016178
3462.52	0.0014946
3472.17	0.0010301
3481.81	0.00132
3491.46	0.00183
3501.1	0.001329
3510.75	0.0014674
3520.39	0.00201
3530.04	0.0015979
3539.68	0.0012724
3549.32	0.0014248
3558.97	0.00203
3568.61	0.0017515
3578.26	0.000938
3587.9	0.0009497
3597.55	0.0013792
3607.19	0.0014709
3616.84	0.00197
3626.48	0.0013357
3636.13	0.0011557
3645.77	0.0014201
3655.42	0.0012225
3665.06	0.0014779
3674.71	0.0013984
3684.35	0.0013081
3694	0.001751
3703.64	0.0012961
3713.29	0.00087552
3722.93	0.0013266
3732.58	0.0014712
3742.22	0.0011616
3751.86	0.0015791
3761.51	0.0012334
3771.15	0.0017562
3780.8	0.0016711
3790.44	0.0016331
3800.09	0.0014689
3809.73	0.0013991
3819.38	0.001704
3829.02	0.0017526
3838.67	0.0016313
3848.31	0.0009349
3857.96	0.0010309
3867.6	0.001205
3877.25	0.0015463
3886.89	0.00182
3896.54	0.0010112
3906.18	0.00208
3915.83	0.0009665
3925.47	0.002
3935.12	0.0015186
3944.76	0.0016377
3954.41	0.0010346
3964.05	0.0014522
3973.69	0.00083635
3983.34	0.0016468
3992.98	0.0010794
