Infrared Spectrum: Formic acid, azodi-, dimethyl ester
Formula: C4 H6 N2 O4
CAS: 2446-84-6
State: LIQUID (NEAT)
Class: COBLENTZ III
Instrument: DOW KBr FOREPRISM-GRATING
Instrument parameters: BLAZED AT 3.5, 12.0, 20.0 MICRON AND CHANGED AT 5.0, 7.5, 14.9 MICRON
Sampling: TRANSMISSION
Path length: CAPILLARY
Resolution: 2
Origin: DOW CHEMICAL COMPANY
1/CM	TRANSMITTANCE
3800	0.7915
3791	0.7915
3782	0.793
3773	0.8045
3764	0.8204
3755	0.8246
3746	0.8257
3737	0.8301
3728	0.8347
3719	0.8333
3710	0.834
3701	0.8367
3692	0.8301
3683	0.8287
3674	0.8228
3665	0.8281
3656	0.8215
3647	0.8258
3638	0.8246
3629	0.8237
3620	0.8247
3611	0.8255
3602	0.826
3593	0.8249
3584	0.8228
3575	0.8191
3566	0.8178
3557	0.8165
3548	0.8148
3539	0.8131
3530	0.8125
3521	0.8134
3512	0.8147
3503	0.8158
3494	0.8168
3485	0.818
3476	0.8184
3467	0.8186
3458	0.8187
3449	0.8186
3440	0.8178
3431	0.816
3422	0.8136
3413	0.8111
3404	0.8084
3395	0.8048
3386	0.8011
3377	0.7981
3368	0.7955
3359	0.7961
3350	0.7971
3341	0.7999
3332	0.8021
3323	0.804
3314	0.806
3305	0.8078
3296	0.8099
3287	0.8118
3278	0.8139
3269	0.8155
3260	0.8171
3251	0.8187
3242	0.8204
3233	0.822
3224	0.8235
3215	0.8248
3206	0.8261
3197	0.8274
3188	0.8285
3179	0.8293
3170	0.8301
3161	0.8309
3152	0.832
3143	0.8331
3134	0.8341
3125	0.8342
3116	0.8344
3107	0.8345
3098	0.8341
3089	0.8333
3080	0.8321
3071	0.829
3062	0.8244
3053	0.8188
3044	0.8134
3035	0.8093
3026	0.808
3017	0.8106
3008	0.815
2999	0.8176
2990	0.8175
2981	0.7808
2972	0.7454
2963	0.7601
2954	0.7996
2945	0.8161
2936	0.8257
2927	0.8289
2918	0.827
2909	0.8249
2900	0.825
2891	0.8278
2882	0.8305
2873	0.831
2864	0.8261
2855	0.8264
2846	0.8296
2837	0.8324
2828	0.8347
2819	0.8362
2810	0.8373
2801	0.838
2792	0.8383
2783	0.8382
2774	0.8382
2765	0.838
2756	0.8378
2747	0.8375
2738	0.8368
2729	0.8362
2720	0.8355
2711	0.8347
2702	0.834
2693	0.8332
2684	0.8328
2675	0.8331
2666	0.8334
2657	0.8337
2648	0.8341
2639	0.834
2630	0.8337
2621	0.8334
2612	0.8332
2603	0.833
2594	0.8328
2585	0.8325
2576	0.8325
2567	0.8325
2558	0.8327
2549	0.8328
2540	0.8328
2531	0.8325
2522	0.8323
2513	0.8318
2504	0.8316
2495	0.8317
2486	0.8318
2477	0.832
2468	0.8323
2459	0.8327
2450	0.833
2441	0.8331
2432	0.8332
2423	0.8328
2414	0.8327
2405	0.8325
2396	0.8325
2387	0.8314
2378	0.8275
2369	0.8233
2360	0.8217
2351	0.822
2342	0.8232
2333	0.8249
2324	0.8274
2315	0.8306
2306	0.8333
2297	0.8347
2288	0.8342
2279	0.8335
2270	0.8327
2261	0.8318
2252	0.8318
2243	0.8317
2234	0.8316
2225	0.8315
2216	0.8309
2207	0.8303
2198	0.8282
2189	0.8264
2180	0.8252
2171	0.8234
2162	0.8225
2153	0.8221
2144	0.8237
2135	0.8265
2126	0.8284
2117	0.8299
2108	0.8314
2099	0.8325
2090	0.8333
2081	0.8337
2072	0.8346
2063	0.8363
2054	0.837
2045	0.8368
2036	0.8367
2027	0.8364
2018	0.8362
2009	0.836
2000	0.836
1991	0.8373
1982	0.838
1973	0.8381
1964	0.8425
1955	0.844
1946	0.8424
1937	0.8423
1928	0.841
1919	0.8365
1910	0.834
1901	0.8321
1892	0.8305
1883	0.8267
1874	0.8218
1865	0.8128
1856	0.8075
1847	0.7956
1838	0.771
1829	0.7428
1820	0.7111
1811	0.6718
1802	0.5637
1793	0.2729
1784	0.1743
1775	0.2147
1766	0.3345
1757	0.4721
1748	0.5886
1739	0.6327
1730	0.6801
1721	0.7351
1712	0.7801
1703	0.7833
1694	0.8108
1685	0.8078
1676	0.8178
1667	0.8214
1658	0.8213
1649	0.8181
1640	0.8187
1631	0.8119
1622	0.815
1613	0.8218
1604	0.8253
1595	0.8244
1586	0.8183
1577	0.8017
1568	0.7941
1559	0.7834
1550	0.7921
1541	0.7907
1532	0.7936
1523	0.78
1514	0.7737
1505	0.7648
1496	0.7678
1487	0.7701
1478	0.7633
1469	0.7331
1460	0.6656
1451	0.6349
1442	0.5053
1433	0.7094
1424	0.765
1415	0.7649
1406	0.7414
1397	0.7057
1388	0.6724
1379	0.651
1370	0.6451
1361	0.6864
1352	0.7108
1343	0.7104
1334	0.7018
1325	0.6851
1316	0.6581
1307	0.623
1298	0.5522
1289	0.4639
1280	0.4126
1271	0.3604
1262	0.3082
1253	0.2649
1244	0.2434
1235	0.3341
1226	0.4449
1217	0.559
1208	0.6578
1199	0.6774
1190	0.6644
1181	0.7031
1172	0.768
1163	0.786
1154	0.7928
1145	0.8011
1136	0.8106
1127	0.8101
1118	0.7968
1109	0.799
1100	0.8114
1091	0.8147
1082	0.8058
1073	0.7989
1064	0.7971
1055	0.8055
1046	0.811
1037	0.8137
1028	0.8058
1019	0.7824
1010	0.7536
1001	0.7275
992	0.7561
983	0.7864
974	0.808
965	0.8183
956	0.8217
947	0.8227
938	0.8232
929	0.8211
920	0.8175
911	0.813
902	0.8072
893	0.7953
884	0.7461
875	0.6821
866	0.759
857	0.8004
848	0.8058
839	0.8039
830	0.7758
821	0.7814
812	0.7367
803	0.7621
794	0.7955
785	0.8018
776	0.7978
767	0.7834
758	0.7846
749	0.8021
740	0.8202
731	0.83
722	0.8378
713	0.8437
704	0.8489
695	0.854
686	0.86
677	0.8667
668	0.8721
659	0.8599
650	0.8584
641	0.8517
632	0.8367
623	0.8547
614	0.8611
605	0.864
596	0.8641
587	0.863
578	0.8603
569	0.8571
560	0.8532
551	0.8466
542	0.8427
533	0.8428
524	0.8491
515	0.8566
506	0.8636
497	0.8709
488	0.8784
479	0.8865
470	0.8901
461	0.8914
452	0.8809
443	0.8713
434	0.8602
425	0.8648
416	0.8718
407	0.8783
398	0.8835
389	0.8865
380	0.8874
