Infrared Spectrum: OXAMIDE, N-[3-(1-AZIRIDINYL)PROPYL]-
Formula: C7 H13 N3 O2
CAS: 24480-30-6
State: SOLID (1 mg / 500 mg KBr DISC)
Class: COBLENTZ III
Instrument: PERKIN-ELMER 221 (GRATING)
Instrument parameters: FILTER AT 980 CM ^-^1, GRATING FOR 4000-1428 CM ^-^1, NaCl PRISM FOR 1428-650 CM^-^1
Sampling: TRANSMISSION
Resolution: 4
Origin: SOUTHERN RES. INSTITUTE
1/CM	TRANSMITTANCE
599.387	0.756
608.575	0.748
617.764	0.738
626.952	0.732
636.14	0.725
645.329	0.681
654.517	0.622
663.706	0.541
672.894	0.567
682.082	0.601
691.271	0.671
700.459	0.745
709.647	0.757
718.836	0.747
728.024	0.729
737.213	0.697
746.401	0.65
755.589	0.643
764.778	0.728
773.966	0.785
783.154	0.784
792.343	0.801
801.531	0.803
810.719	0.817
819.908	0.826
829.096	0.829
838.285	0.826
847.473	0.811
856.661	0.83
865.85	0.848
875.038	0.85
884.226	0.851
893.415	0.849
902.603	0.847
911.791	0.836
920.98	0.832
930.168	0.852
939.357	0.85
948.545	0.832
957.733	0.825
966.922	0.844
976.11	0.832
985.298	0.824
994.487	0.816
1003.68	0.791
1012.86	0.764
1022.05	0.769
1031.24	0.813
1040.43	0.807
1049.62	0.799
1058.81	0.794
1067.99	0.78
1077.18	0.763
1086.37	0.763
1095.56	0.716
1104.75	0.599
1113.94	0.739
1123.12	0.813
1132.31	0.815
1141.5	0.814
1150.69	0.802
1159.88	0.775
1169.07	0.79
1178.25	0.826
1187.44	0.817
1196.63	0.801
1205.82	0.747
1215.01	0.662
1224.2	0.757
1233.38	0.747
1242.57	0.697
1251.76	0.678
1260.95	0.555
1270.14	0.696
1279.33	0.747
1288.51	0.731
1297.7	0.723
1306.89	0.702
1316.08	0.621
1325.27	0.775
1334.46	0.772
1343.64	0.755
1352.83	0.713
1362.02	0.714
1371.21	0.678
1380.4	0.692
1389.59	0.678
1398.77	0.627
1407.96	0.69
1417.15	0.696
1426.34	0.695
1435.53	0.615
1444.72	0.636
1453.91	0.649
1463.09	0.736
1472.28	0.721
1481.47	0.769
1490.66	0.772
1499.85	0.763
1509.04	0.744
1518.22	0.712
1527.41	0.64
1536.6	0.491
1545.79	0.469
1554.98	0.594
1564.17	0.681
1573.35	0.698
1582.54	0.672
1591.73	0.635
1600.92	0.59
1610.11	0.606
1619.3	0.629
1628.48	0.575
1637.67	0.485
1646.86	0.23
1656.05	0.075
1665.24	0.083
1674.43	0.21
1683.61	0.353
1692.8	0.507
1701.99	0.554
1711.18	0.675
1720.37	0.712
1729.56	0.779
1738.74	0.798
1747.93	0.82
1757.12	0.823
1766.31	0.826
1775.5	0.831
1784.69	0.84
1793.87	0.847
1803.06	0.853
1812.25	0.856
1821.44	0.857
1830.63	0.858
1839.82	0.859
1849	0.861
1858.19	0.861
1867.38	0.861
1876.57	0.861
1885.76	0.861
1894.95	0.861
1904.14	0.86
1913.32	0.859
1922.51	0.858
1931.7	0.858
1940.89	0.858
1950.08	0.858
1959.27	0.859
1968.45	0.858
1977.64	0.858
1986.83	0.858
1996.02	0.858
2005.21	0.858
2014.4	0.858
2023.58	0.858
2032.77	0.858
2041.96	0.858
2051.15	0.858
2060.34	0.859
2069.53	0.859
2078.71	0.859
2087.9	0.859
2097.09	0.859
2106.28	0.859
2115.47	0.859
2124.66	0.859
2133.84	0.859
2143.03	0.859
2152.22	0.859
2161.41	0.859
2170.6	0.859
2179.79	0.859
2188.97	0.859
2198.16	0.86
2207.35	0.861
2216.54	0.862
2225.73	0.862
2234.92	0.862
2244.1	0.862
2253.29	0.861
2262.48	0.86
2271.67	0.859
2280.86	0.859
2290.05	0.859
2299.24	0.858
2308.42	0.858
2317.61	0.858
2326.8	0.857
2335.99	0.854
2345.18	0.854
2354.37	0.855
2363.55	0.856
2372.74	0.857
2381.93	0.858
2391.12	0.859
2400.31	0.859
2409.5	0.858
2418.68	0.857
2427.87	0.856
2437.06	0.856
2446.25	0.855
2455.44	0.855
2464.63	0.854
2473.81	0.854
2483	0.854
2492.19	0.853
2501.38	0.853
2510.57	0.853
2519.76	0.853
2528.94	0.853
2538.13	0.852
2547.32	0.851
2556.51	0.851
2565.7	0.851
2574.89	0.851
2584.07	0.85
2593.26	0.848
2602.45	0.848
2611.64	0.848
2620.83	0.848
2630.02	0.847
2639.2	0.846
2648.39	0.845
2657.58	0.842
2666.77	0.839
2675.96	0.837
2685.15	0.835
2694.33	0.835
2703.52	0.834
2712.71	0.832
2721.9	0.83
2731.09	0.827
2740.28	0.825
2749.47	0.823
2758.65	0.822
2767.84	0.82
2777.03	0.817
2786.22	0.81
2795.41	0.801
2804.6	0.789
2813.78	0.779
2822.97	0.768
2832.16	0.738
2841.35	0.752
2850.54	0.759
2859.73	0.766
2868.91	0.78
2878.1	0.782
2887.29	0.766
2896.48	0.756
2905.67	0.756
2914.86	0.746
2924.04	0.705
2933.23	0.666
2942.42	0.684
2951.61	0.651
2960.8	0.72
2969.99	0.738
2979.17	0.706
2988.36	0.711
2997.55	0.772
3006.74	0.794
3015.93	0.791
3025.12	0.788
3034.3	0.782
3043.49	0.756
3052.68	0.728
3061.87	0.762
3071.06	0.767
3080.25	0.764
3089.43	0.761
3098.62	0.757
3107.81	0.747
3117	0.744
3126.19	0.73
3135.38	0.728
3144.56	0.706
3153.75	0.681
3162.94	0.658
3172.13	0.631
3181.32	0.602
3190.51	0.575
3199.7	0.558
3208.88	0.536
3218.07	0.533
3227.26	0.533
3236.45	0.547
3245.64	0.559
3254.83	0.563
3264.01	0.562
3273.2	0.558
3282.39	0.547
3291.58	0.519
3300.77	0.452
3309.96	0.299
3319.14	0.214
3328.33	0.245
3337.52	0.439
3346.71	0.503
3355.9	0.521
3365.09	0.491
3374.27	0.394
3383.46	0.249
3392.65	0.231
3401.84	0.388
3411.03	0.499
3420.22	0.566
3429.4	0.6
3438.59	0.621
3447.78	0.637
3456.97	0.652
3466.16	0.662
3475.35	0.675
3484.53	0.694
3493.72	0.699
3502.91	0.709
3512.1	0.712
3521.29	0.721
3530.48	0.732
3539.66	0.749
3548.85	0.754
3558.04	0.758
3567.23	0.762
3576.42	0.773
3585.61	0.78
3594.79	0.785
3603.98	0.8
3613.17	0.805
3622.36	0.815
3631.55	0.82
3640.74	0.824
3649.93	0.83
3659.11	0.831
3668.3	0.834
3677.49	0.831
3686.68	0.83
3695.87	0.836
3705.06	0.842
3714.24	0.843
3723.43	0.841
3732.62	0.839
3741.81	0.835
3751	0.832
3760.19	0.837
3769.37	0.844
3778.56	0.847
3787.75	0.847
3796.94	0.844
3806.13	0.84
3815.32	0.835
3824.5	0.832
3833.69	0.832
3842.88	0.834
3852.07	0.835
3861.26	0.836
3870.45	0.838
3879.63	0.839
3888.82	0.841
3898.01	0.842
3907.2	0.842
3916.39	0.843
3925.58	0.843
3934.76	0.843
3943.95	0.843
3953.14	0.844
3962.33	0.844
3971.52	0.844
3980.71	0.844
3989.89	0.844
3999.08	0.844
