Infrared Spectrum: Oxamide, N-[3-[(2-mercaptoethyl)amino] propyl]-N'-(2-pyridyl)-, dihydrochloride
Formula: C12 H20 Cl2 N4 O2 S
CAS: 24482-35-7
State: SOLID (1 mg / 650 mg KBr DISC)
Class: COBLENTZ III
Instrument: PERKIN-ELMER 521 (GRATING)
Instrument parameters: FILTERS AT 3150, 2500, 2000, 1150, 700, 410. GRATING CHANGES: 2000, 630
Sampling: TRANSMISSION
Resolution: 2
Origin: SOUTHERN RESEARCH INSTITUTE
1/CM	TRANSMITTANCE
257	0.2479
267.04	0.3134
277.08	0.3553
287.12	0.3798
297.16	0.3928
307.2	0.4938
317.24	0.5243
327.281	0.5935
337.321	0.6628
347.361	0.7113
357.401	0.7255
367.441	0.7494
377.481	0.8012
387.521	0.8
397.561	0.77
407.601	0.7118
417.641	0.8297
427.681	0.8353
437.721	0.8153
447.761	0.7556
457.801	0.7113
467.842	0.7906
477.882	0.7781
487.922	0.6963
497.962	0.4568
508.002	0.7202
518.042	0.6791
528.082	0.8121
538.122	0.764
548.162	0.6355
558.202	0.8324
568.242	0.8335
578.282	0.8191
588.322	0.7887
598.363	0.6959
608.403	0.7441
618.443	0.4973
628.483	0.7536
638.523	0.7012
648.563	0.63
658.603	0.5823
668.643	0.6108
678.683	0.6806
688.723	0.7242
698.763	0.7381
708.803	0.7363
718.843	0.7114
728.884	0.6847
738.924	0.6904
748.964	0.6726
759.004	0.6191
769.044	0.4221
779.084	0.2167
789.124	0.5817
799.164	0.699
809.204	0.8211
819.244	0.8047
829.284	0.755
839.324	0.8229
849.364	0.7552
859.404	0.7554
869.445	0.75
879.485	0.719
889.525	0.7801
899.565	0.7872
909.605	0.7739
919.645	0.7547
929.685	0.7436
939.725	0.7165
949.765	0.6212
959.805	0.6778
969.845	0.6405
979.885	0.5819
989.925	0.4668
999.966	0.6447
1010.01	0.6401
1020.05	0.5424
1030.09	0.5661
1040.13	0.6467
1050.17	0.6379
1060.21	0.6029
1070.25	0.6337
1080.29	0.6949
1090.33	0.641
1100.37	0.6566
1110.41	0.6612
1120.45	0.6029
1130.49	0.5796
1140.53	0.5154
1150.57	0.3438
1160.61	0.5459
1170.65	0.412
1180.69	0.3634
1190.73	0.5755
1200.77	0.6315
1210.81	0.6107
1220.85	0.5637
1230.89	0.4976
1240.93	0.4903
1250.97	0.4813
1261.01	0.2902
1271.05	0.3455
1281.09	0.1973
1291.13	0.1886
1301.17	0.5135
1311.21	0.6513
1321.25	0.6445
1331.29	0.6127
1341.33	0.5353
1351.37	0.5252
1361.41	0.5169
1371.45	0.4227
1381.49	0.4122
1391.53	0.4131
1401.57	0.379
1411.61	0.3232
1421.65	0.2573
1431.69	0.1082
1441.73	0.2144
1451.77	0.3944
1461.81	0.4291
1471.85	0.3468
1481.89	0.2793
1491.93	0.1396
1501.97	0.0416
1512.01	0.0492
1522.05	0.1728
1532.09	0.3145
1542.13	0.4369
1552.17	0.3841
1562.21	0.4179
1572.25	0.4678
1582.29	0.5923
1592.33	0.5602
1602.37	0.2991
1612.41	0.1553
1622.45	0.2527
1632.49	0.2905
1642.53	0.5366
1652.57	0.5612
1662.61	0.4099
1672.65	0.2338
1682.69	0.092
1692.73	0.2344
1702.77	0.4409
1712.81	0.49
1722.85	0.3618
1732.89	0.465
1742.93	0.6492
1752.97	0.7802
1763.01	0.8073
1773.05	0.8047
1783.09	0.7951
1793.13	0.7781
1803.17	0.7512
1813.21	0.7237
1823.25	0.6961
1833.29	0.6686
1843.33	0.6453
1853.37	0.6495
1863.41	0.6247
1873.45	0.5747
1883.49	0.5248
1893.53	0.4748
1903.57	0.4267
1913.61	0.4658
1923.65	0.5115
1933.69	0.4418
1943.73	0.3822
1953.77	0.3663
1963.81	0.4144
1973.85	0.5585
1983.89	0.5925
1993.93	0.5608
2003.97	0.5348
2014.01	0.5073
2024.05	0.4985
2034.09	0.5172
2044.13	0.6033
2054.17	0.6425
2064.21	0.6429
2074.25	0.6254
2084.29	0.5951
2094.33	0.5679
2104.37	0.541
2114.41	0.5148
2124.45	0.4874
2134.49	0.464
2144.53	0.4434
2154.57	0.4225
2164.61	0.4065
2174.65	0.3917
2184.69	0.3776
2194.73	0.3688
2204.77	0.3685
2214.81	0.3688
2224.85	0.3693
2234.89	0.3674
2244.93	0.3596
2254.97	0.369
2265.01	0.3761
2275.06	0.3889
2285.1	0.4005
2295.14	0.42
2305.18	0.4369
2315.22	0.451
2325.26	0.4604
2335.3	0.4633
2345.34	0.4638
2355.38	0.4625
2365.42	0.459
2375.46	0.4515
2385.5	0.4363
2395.54	0.4279
2405.58	0.4348
2415.62	0.4416
2425.66	0.4417
2435.7	0.442
2445.74	0.4432
2455.78	0.4434
2465.82	0.4416
2475.86	0.4219
2485.9	0.4026
2495.94	0.4096
2505.98	0.4481
2516.02	0.4867
2526.06	0.489
2536.1	0.4863
2546.14	0.4826
2556.18	0.4738
2566.22	0.4653
2576.26	0.4805
2586.3	0.4888
2596.34	0.4877
2606.38	0.4712
2616.42	0.4538
2626.46	0.4476
2636.5	0.4481
2646.54	0.4395
2656.58	0.4286
2666.62	0.4124
2676.66	0.3917
2686.7	0.3703
2696.74	0.3663
2706.78	0.3608
2716.82	0.3356
2726.86	0.2996
2736.9	0.2785
2746.94	0.264
2756.98	0.2512
2767.02	0.2429
2777.06	0.2556
2787.1	0.2788
2797.14	0.2905
2807.18	0.3124
2817.22	0.3181
2827.26	0.3675
2837.3	0.4134
2847.34	0.4315
2857.38	0.426
2867.42	0.4191
2877.46	0.4203
2887.5	0.4086
2897.54	0.3846
2907.58	0.351
2917.62	0.3181
2927.66	0.2815
2937.7	0.2651
2947.74	0.2749
2957.78	0.3064
2967.82	0.3135
2977.86	0.3589
2987.9	0.4101
2997.94	0.4438
3007.98	0.4674
3018.02	0.4794
3028.06	0.4821
3038.1	0.4796
3048.14	0.4782
3058.18	0.496
3068.22	0.497
3078.26	0.4849
3088.3	0.4664
3098.34	0.4542
3108.38	0.4757
3118.42	0.5323
3128.46	0.5357
3138.5	0.5329
3148.54	0.5284
3158.58	0.5216
3168.62	0.511
3178.66	0.4958
3188.7	0.476
3198.74	0.4552
3208.78	0.4283
3218.82	0.4014
3228.86	0.3758
3238.9	0.3435
3248.94	0.3091
3258.98	0.2771
3269.02	0.2645
3279.06	0.2828
3289.1	0.3405
3299.14	0.4065
3309.18	0.4725
3319.22	0.5247
3329.26	0.5757
3339.3	0.6068
3349.34	0.6214
3359.38	0.6257
3369.42	0.6276
3379.46	0.6282
3389.5	0.6267
3399.54	0.6221
3409.58	0.618
3419.62	0.6182
3429.66	0.6217
3439.7	0.6269
3449.74	0.6323
3459.78	0.6383
3469.82	0.6456
3479.86	0.6536
3489.9	0.6618
3499.94	0.6701
3509.98	0.6794
3520.02	0.6889
3530.06	0.6984
3540.1	0.7075
3550.14	0.7172
3560.18	0.7281
3570.22	0.7386
3580.26	0.7485
3590.3	0.758
3600.34	0.7663
3610.38	0.7744
3620.43	0.7826
3630.47	0.7909
3640.51	0.7973
3650.55	0.8012
3660.59	0.8032
3670.63	0.802
3680.67	0.7996
3690.71	0.8016
3700.75	0.8056
3710.79	0.808
3720.83	0.809
3730.87	0.8088
3740.91	0.8081
3750.95	0.8064
3760.99	0.8047
3771.03	0.803
3781.07	0.8013
3791.11	0.7997
3801.15	0.7981
3811.19	0.796
3821.23	0.7939
3831.27	0.7917
3841.31	0.7898
3851.35	0.7873
3861.39	0.7827
3871.43	0.7784
3881.47	0.7762
3891.51	0.7741
3901.55	0.772
3911.59	0.7697
3921.63	0.768
3931.67	0.7669
3941.71	0.7655
3951.75	0.7653
3961.79	0.7651
3971.83	0.7649
3981.87	0.7647
3991.91	0.7637
4001.95	0.763
4011.99	0.7623
