Infrared Spectrum: OXAMIDE, N,N'-BIS[3-[(2-MERCAPTOETHYL)AMINO]PROPYL]- DIHYDROCHLORIDE
Formula: C12 H28 Cl2 N4 O2 S2
CAS: 24480-28-2
State: SOLID (1 mg / 500 mg KBr DISC)
Class: COBLENTZ III
Instrument: PERKIN-ELMER 221 (GRATING)
Instrument parameters: FILTER CHANGES AT 2490, 980 CM ^-^1, GRATING FOR 4000-1428 CM ^-^1, NaCl PRISM FOR 1428-650 CM^-^1
Sampling: TRANSMISSION
Resolution: 4
Origin: SOUTHERN RES. INSTITUTE
1/CM	TRANSMITTANCE
604.074	0.937
613.24	0.935
622.406	0.933
631.572	0.931
640.739	0.924
649.905	0.912
659.071	0.908
668.237	0.906
677.403	0.905
686.569	0.893
695.735	0.88
704.902	0.85
714.068	0.8
723.234	0.72
732.4	0.684
741.566	0.653
750.732	0.601
759.898	0.621
769.065	0.694
778.231	0.674
787.397	0.669
796.563	0.866
805.729	0.902
814.895	0.904
824.061	0.905
833.228	0.904
842.394	0.88
851.56	0.878
860.726	0.893
869.892	0.874
879.058	0.893
888.224	0.914
897.391	0.915
906.557	0.912
915.723	0.908
924.889	0.899
934.055	0.899
943.221	0.906
952.387	0.91
961.553	0.908
970.72	0.891
979.886	0.854
989.052	0.792
998.218	0.817
1007.38	0.836
1016.55	0.803
1025.72	0.801
1034.88	0.8
1044.05	0.704
1053.21	0.715
1062.38	0.836
1071.55	0.855
1080.71	0.798
1089.88	0.758
1099.05	0.821
1108.21	0.856
1117.38	0.834
1126.54	0.836
1135.71	0.879
1144.88	0.877
1154.04	0.858
1163.21	0.81
1172.37	0.533
1181.54	0.787
1190.71	0.846
1199.87	0.839
1209.04	0.751
1218.21	0.553
1227.37	0.591
1236.54	0.705
1245.7	0.742
1254.87	0.72
1264.04	0.739
1273.2	0.662
1282.37	0.627
1291.53	0.719
1300.7	0.742
1309.87	0.742
1319.03	0.736
1328.2	0.669
1337.37	0.688
1346.53	0.716
1355.7	0.628
1364.86	0.578
1374.03	0.605
1383.2	0.648
1392.36	0.578
1401.53	0.58
1410.69	0.516
1419.86	0.499
1429.03	0.41
1438.19	0.292
1447.36	0.443
1456.53	0.323
1465.69	0.408
1474.86	0.453
1484.02	0.55
1493.19	0.52
1502.36	0.394
1511.52	0.214
1520.69	0.075
1529.85	0.127
1539.02	0.44
1548.19	0.641
1557.35	0.712
1566.52	0.734
1575.68	0.716
1584.85	0.69
1594.02	0.677
1603.18	0.72
1612.35	0.721
1621.52	0.643
1630.68	0.512
1639.85	0.327
1649.01	0.142
1658.18	0.028
1667.35	0.053
1676.51	0.279
1685.68	0.489
1694.84	0.62
1704.01	0.711
1713.18	0.782
1722.34	0.808
1731.51	0.817
1740.68	0.844
1749.84	0.877
1759.01	0.889
1768.17	0.907
1777.34	0.919
1786.51	0.925
1795.67	0.929
1804.84	0.932
1814	0.935
1823.17	0.937
1832.34	0.937
1841.5	0.929
1850.67	0.911
1859.84	0.908
1869	0.918
1878.17	0.927
1887.33	0.935
1896.5	0.943
1905.67	0.946
1914.83	0.946
1924	0.951
1933.16	0.955
1942.33	0.959
1951.5	0.961
1960.66	0.959
1969.83	0.959
1979	0.958
1988.16	0.958
1997.33	0.958
2006.49	0.957
2015.66	0.955
2024.83	0.954
2033.99	0.953
2043.16	0.952
2052.32	0.949
2061.49	0.949
2070.66	0.947
2079.82	0.946
2088.99	0.944
2098.15	0.94
2107.32	0.938
2116.49	0.938
2125.65	0.938
2134.82	0.938
2143.99	0.937
2153.15	0.937
2162.32	0.934
2171.48	0.932
2180.65	0.925
2189.82	0.92
2198.98	0.918
2208.15	0.916
2217.31	0.915
2226.48	0.913
2235.65	0.911
2244.81	0.909
2253.98	0.904
2263.15	0.896
2272.31	0.892
2281.48	0.883
2290.64	0.877
2299.81	0.856
2308.98	0.852
2318.14	0.822
2327.31	0.8
2336.47	0.784
2345.64	0.769
2354.81	0.735
2363.97	0.715
2373.14	0.692
2382.31	0.672
2391.47	0.602
2400.64	0.505
2409.8	0.433
2418.97	0.439
2428.14	0.443
2437.3	0.474
2446.47	0.553
2455.63	0.572
2464.8	0.562
2473.97	0.528
2483.13	0.486
2492.3	0.476
2501.47	0.482
2510.63	0.476
2519.8	0.491
2528.96	0.533
2538.13	0.559
2547.3	0.564
2556.46	0.554
2565.63	0.537
2574.79	0.524
2583.96	0.502
2593.13	0.491
2602.29	0.491
2611.46	0.455
2620.63	0.404
2629.79	0.367
2638.96	0.361
2648.12	0.364
2657.29	0.35
2666.46	0.314
2675.62	0.248
2684.79	0.208
2693.95	0.199
2703.12	0.15
2712.29	0.15
2721.45	0.152
2730.62	0.128
2739.78	0.091
2748.95	0.086
2758.12	0.084
2767.28	0.084
2776.45	0.086
2785.62	0.091
2794.78	0.1
2803.95	0.14
2813.11	0.179
2822.28	0.208
2831.45	0.26
2840.61	0.316
2849.78	0.335
2858.94	0.36
2868.11	0.377
2877.28	0.362
2886.44	0.353
2895.61	0.339
2904.78	0.292
2913.94	0.255
2923.11	0.216
2932.27	0.155
2941.44	0.148
2950.61	0.15
2959.77	0.157
2968.94	0.186
2978.1	0.25
2987.27	0.305
2996.44	0.342
3005.6	0.43
3014.77	0.484
3023.94	0.525
3033.1	0.571
3042.27	0.586
3051.43	0.601
3060.6	0.622
3069.77	0.652
3078.93	0.685
3088.1	0.712
3097.26	0.729
3106.43	0.755
3115.6	0.765
3124.76	0.774
3133.93	0.777
3143.1	0.776
3152.26	0.774
3161.43	0.773
3170.59	0.773
3179.76	0.77
3188.93	0.765
3198.09	0.747
3207.26	0.733
3216.42	0.723
3225.59	0.709
3234.76	0.688
3243.92	0.666
3253.09	0.621
3262.25	0.55
3271.42	0.456
3280.59	0.343
3289.75	0.253
3298.92	0.164
3308.09	0.107
3317.25	0.125
3326.42	0.188
3335.58	0.282
3344.75	0.4
3353.92	0.49
3363.08	0.569
3372.25	0.631
3381.41	0.66
3390.58	0.688
3399.75	0.716
3408.91	0.747
3418.08	0.76
3427.25	0.769
3436.41	0.791
3445.58	0.798
3454.74	0.81
3463.91	0.817
3473.08	0.818
3482.24	0.821
3491.41	0.824
3500.57	0.831
3509.74	0.84
3518.91	0.845
3528.07	0.85
3537.24	0.855
3546.41	0.865
3555.57	0.871
3564.74	0.874
3573.9	0.878
3583.07	0.884
3592.24	0.886
3601.4	0.889
3610.57	0.893
3619.73	0.894
3628.9	0.9
3638.07	0.902
3647.23	0.905
3656.4	0.906
3665.57	0.907
3674.73	0.908
3683.9	0.908
3693.06	0.908
3702.23	0.909
3711.4	0.909
3720.56	0.908
3729.73	0.907
3738.89	0.907
3748.06	0.907
3757.23	0.908
3766.39	0.91
3775.56	0.911
3784.72	0.911
3793.89	0.911
3803.06	0.911
3812.22	0.91
3821.39	0.91
3830.56	0.909
3839.72	0.909
3848.89	0.908
3858.05	0.908
3867.22	0.908
3876.39	0.908
3885.55	0.908
3894.72	0.907
3903.88	0.907
3913.05	0.907
3922.22	0.907
3931.38	0.907
3940.55	0.907
3949.72	0.907
3958.88	0.907
3968.05	0.907
3977.21	0.906
3986.38	0.905
3995.55	0.904
4004.71	0.902
