Infrared Spectrum: P,P'-SULFONYL DIBENZOIC ACID
Formula: C14 H10 O6 S
CAS: 2449-35-6
State: SOLID (MINERAL OIL MULL)
Class: COBLENTZ
Instrument: Not specified, most likely a prism, grating, or hybrid spectrometer.
Sampling: TRANSMISSION
Resolution: 4
Origin: DOW CHEMICAL COMPANY
MICROMETERS	TRANSMITTANCE
2.027	0.854
2.06711	0.862
2.10723	0.867
2.14734	0.871
2.18745	0.872
2.22757	0.869
2.26768	0.864
2.30779	0.861
2.3479	0.862
2.38802	0.867
2.42813	0.876
2.46824	0.887
2.50836	0.896
2.54847	0.899
2.58858	0.903
2.6287	0.909
2.66881	0.911
2.70892	0.911
2.74904	0.906
2.78915	0.897
2.82926	0.892
2.86937	0.896
2.90949	0.891
2.9496	0.889
2.98971	0.872
3.02983	0.844
3.06994	0.807
3.11005	0.762
3.15017	0.707
3.19028	0.645
3.23039	0.585
3.27051	0.558
3.31062	0.515
3.35073	0.367
3.39085	0.122
3.43096	0.147
3.47107	0.212
3.51118	0.367
3.5513	0.538
3.59141	0.596
3.63152	0.638
3.67164	0.642
3.71175	0.618
3.75186	0.588
3.79198	0.625
3.83209	0.647
3.8722	0.652
3.91232	0.603
3.95243	0.638
3.99254	0.715
4.03265	0.755
4.07277	0.792
4.11288	0.816
4.15299	0.826
4.19311	0.832
4.23322	0.841
4.27333	0.861
4.31345	0.882
4.35356	0.891
4.39367	0.896
4.43379	0.901
4.4739	0.906
4.51401	0.913
4.55412	0.913
4.59424	0.913
4.63435	0.919
4.67446	0.923
4.71458	0.923
4.75469	0.921
4.7948	0.923
4.83492	0.933
4.87503	0.943
4.91514	0.943
4.95526	0.944
4.99537	0.936
5.03548	0.936
5.07559	0.923
5.11571	0.909
5.15582	0.911
5.19593	0.911
5.23605	0.914
5.27616	0.918
5.31627	0.913
5.35639	0.909
5.3965	0.906
5.43661	0.897
5.47673	0.892
5.51684	0.886
5.55695	0.889
5.59706	0.897
5.63718	0.899
5.67729	0.889
5.7174	0.847
5.75752	0.841
5.79763	0.747
5.83774	0.461
5.87786	0.257
5.91797	0.163
5.95808	0.439
5.9982	0.725
6.03831	0.802
6.07842	0.856
6.11854	0.882
6.15865	0.886
6.19876	0.856
6.23887	0.807
6.27899	0.839
6.3191	0.76
6.35921	0.841
6.39933	0.877
6.43944	0.904
6.47955	0.916
6.51967	0.934
6.55978	0.936
6.59989	0.936
6.64001	0.894
6.68012	0.804
6.72023	0.852
6.76034	0.765
6.80046	0.586
6.84057	0.555
6.88068	0.6
6.9208	0.632
6.96091	0.456
7.00102	0.314
7.04114	0.471
7.08125	0.55
7.12136	0.591
7.16148	0.764
7.20159	0.724
7.2417	0.653
7.28181	0.732
7.32193	0.79
7.36204	0.824
7.40215	0.826
7.44227	0.698
7.48238	0.493
7.52249	0.555
7.56261	0.525
7.60272	0.376
7.64283	0.324
7.68295	0.322
7.72306	0.25
7.76317	0.247
7.80328	0.376
7.8434	0.57
7.88351	0.673
7.92362	0.757
7.96374	0.816
8.00385	0.844
8.04396	0.877
8.08408	0.887
8.12419	0.903
8.1643	0.913
8.20442	0.923
8.24453	0.923
8.28464	0.923
8.32476	0.913
8.36487	0.874
8.40498	0.819
8.44509	0.811
8.48521	0.797
8.52532	0.653
8.56543	0.436
8.60555	0.297
8.64566	0.483
8.68577	0.759
8.72589	0.867
8.766	0.903
8.80611	0.882
8.84623	0.769
8.88634	0.688
8.92645	0.732
8.96656	0.72
9.00668	0.667
9.04679	0.62
9.0869	0.581
9.12702	0.65
9.16713	0.831
9.20724	0.894
9.24736	0.901
9.28747	0.904
9.32758	0.832
9.3677	0.829
9.40781	0.924
9.44792	0.954
9.48803	0.968
9.52815	0.969
9.56826	0.969
9.60837	0.959
9.64849	0.949
9.6886	0.949
9.72871	0.943
9.76883	0.899
9.80894	0.772
9.84905	0.71
9.88917	0.754
9.92928	0.877
9.96939	0.923
10.0095	0.931
10.0496	0.936
10.0897	0.934
10.1298	0.926
10.17	0.909
10.2101	0.903
10.2502	0.896
10.2903	0.884
10.3304	0.857
10.3705	0.836
10.4106	0.787
10.4507	0.742
10.4909	0.705
10.531	0.673
10.5711	0.653
10.6112	0.642
10.6513	0.64
10.6914	0.647
10.7315	0.665
10.7717	0.693
10.8118	0.73
10.8519	0.769
10.892	0.806
10.9321	0.836
10.9722	0.866
11.0123	0.884
11.0524	0.899
11.0926	0.906
11.1327	0.913
11.1728	0.916
11.2129	0.924
11.253	0.931
11.2931	0.938
11.3332	0.948
11.3733	0.951
11.4135	0.949
11.4536	0.921
11.4937	0.836
11.5338	0.714
11.5739	0.682
11.614	0.75
11.6541	0.829
11.6943	0.869
11.7344	0.894
11.7745	0.904
11.8146	0.913
11.8547	0.921
11.8948	0.933
11.9349	0.941
11.975	0.946
12.0152	0.953
12.0553	0.951
12.0954	0.934
12.1355	0.908
12.1756	0.897
12.2157	0.894
12.2558	0.894
12.296	0.897
12.3361	0.904
12.3762	0.919
12.4163	0.924
12.4564	0.928
12.4965	0.931
12.5366	0.941
12.5767	0.946
12.6169	0.949
12.657	0.954
12.6971	0.958
12.7372	0.956
12.7773	0.953
12.8174	0.946
12.8575	0.928
12.8976	0.862
12.9378	0.754
12.9779	0.712
13.018	0.752
13.0581	0.867
13.0982	0.904
13.1383	0.911
13.1784	0.911
13.2186	0.916
13.2587	0.906
13.2988	0.897
13.3389	0.886
13.379	0.869
13.4191	0.856
13.4592	0.836
13.4993	0.799
13.5395	0.765
13.5796	0.707
13.6197	0.622
13.6598	0.51
13.6999	0.396
13.74	0.267
13.7801	0.224
13.8202	0.227
13.8604	0.28
13.9005	0.367
13.9406	0.456
13.9807	0.523
14.0208	0.55
14.0609	0.551
14.101	0.525
14.1412	0.51
14.1813	0.526
14.2214	0.561
14.2615	0.591
14.3016	0.613
14.3417	0.617
14.3818	0.593
14.4219	0.558
14.4621	0.516
14.5022	0.51
14.5423	0.525
14.5824	0.565
14.6225	0.603
14.6626	0.628
14.7027	0.65
14.7428	0.663
14.783	0.665
14.8231	0.66
14.8632	0.657
14.9033	0.65
14.9434	0.645
14.9835	0.642
15.0236	0.635
15.0638	0.625
15.1039	0.605
15.144	0.583
15.1841	0.56
15.2242	0.531
15.2643	0.516
15.3044	0.51
15.3445	0.506
15.3847	0.518
15.4248	0.525
15.4649	0.53
15.505	0.533
15.5451	0.53
15.5852	0.528
15.6253	0.525
15.6655	0.52
15.7056	0.52
15.7457	0.515
15.7858	0.506
15.8259	0.506
15.866	0.508
15.9061	0.51
