Infrared Spectrum: Tin, tetrakis(m-fluorophenyl)-
Formula: C24 H16 F4 Sn
CAS: 24521-72-0
State: SOLID (SPLIT MULL), FLUOROLUBE FOR 3800-1330 CM^-^1, NUJOL FOR 1330-400 CM^-^1
Class: COBLENTZ III
Instrument: BECKMAN IR-9 (GRATING)
Instrument parameters: ORDER CHANGES: 670, 1200, 2000 CM^-^1
Sampling: TRANSMISSION
Resolution: 2
Origin: DOW CHEMICAL COMPANY
1/CM	TRANSMITTANCE
403	0.5862
412	0.5815
421	0.4756
430	0.5133
439	0.3494
448	0.6782
457	0.7235
466	0.7461
475	0.7606
484	0.7702
493	0.791
502	0.8117
511	0.8153
520	0.3497
529	0.802
538	0.8212
547	0.8476
556	0.8546
565	0.8566
574	0.8558
583	0.8554
592	0.8553
601	0.8548
610	0.8539
619	0.8522
628	0.8504
637	0.8485
646	0.8291
655	0.5648
664	0.8038
673	0.8009
682	0.1547
691	0.5291
700	0.8004
709	0.8169
718	0.793
727	0.7404
736	0.7591
745	0.7841
754	0.8034
763	0.7917
772	0.7672
781	0.6756
790	0.0211
799	0.6904
808	0.7777
817	0.7957
826	0.7924
835	0.7733
844	0.6293
853	0.1373
862	0.6285
871	0.3395
880	0.7522
889	0.7992
898	0.8003
907	0.5656
916	0.7857
925	0.7952
934	0.7965
943	0.8011
952	0.8001
961	0.7927
970	0.7635
979	0.7698
988	0.7441
997	0.5391
1006	0.7606
1015	0.7623
1024	0.744
1033	0.7347
1042	0.7261
1051	0.6243
1060	0.6659
1069	0.6789
1078	0.6006
1087	0.543
1096	0.2901
1105	0.6164
1114	0.6353
1123	0.6281
1132	0.6333
1141	0.6637
1150	0.6364
1159	0.4002
1168	0.6313
1177	0.6481
1186	0.6331
1195	0.5589
1204	0.349
1213	0.0088
1222	0.0928
1231	0.4681
1240	0.7246
1249	0.6829
1258	0.2084
1267	0.5622
1276	0.7043
1285	0.748
1294	0.7514
1303	0.713
1312	0.7365
1321	0.7448
1330	0.7419
1339	0.7191
1348	0.7044
1357	0.6734
1366	0.6279
1375	0.6287
1384	0.5796
1393	0.4346
1402	0.143
1411	0.0309
1420	0.7065
1429	0.7697
1438	0.7494
1447	0.726
1456	0.6794
1465	0.3283
1474	0.1937
1483	0.7029
1492	0.7979
1501	0.7705
1510	0.7031
1519	0.6191
1528	0.7204
1537	0.7166
1546	0.6705
1555	0.5539
1564	0.2777
1573	0.0695
1582	0.3093
1591	0.3671
1600	0.85
1609	0.8328
1618	0.8138
1627	0.7998
1636	0.7853
1645	0.7734
1654	0.763
1663	0.7539
1672	0.7497
1681	0.7243
1690	0.6994
1699	0.7111
1708	0.7045
1717	0.6927
1726	0.7063
1735	0.71
1744	0.6909
1753	0.6913
1762	0.7082
1771	0.6817
1780	0.6522
1789	0.6947
1798	0.7019
1807	0.6841
1816	0.6908
1825	0.6958
1834	0.6896
1843	0.6796
1852	0.6753
1861	0.6761
1870	0.6505
1879	0.637
1888	0.6686
1897	0.6679
1906	0.6633
1915	0.6585
1924	0.6544
1933	0.6408
1942	0.6176
1951	0.6319
1960	0.6476
1969	0.6458
1978	0.6439
1987	0.6395
1996	0.6326
2005	0.6326
2014	0.6338
2023	0.6331
2032	0.6275
2041	0.6116
2050	0.5948
2059	0.5933
2068	0.6031
2077	0.6091
2086	0.606
2095	0.6003
2104	0.5952
2113	0.5913
2122	0.5877
2131	0.5843
2140	0.5804
2149	0.5768
2158	0.5735
2167	0.5707
2176	0.5678
2185	0.5645
2194	0.5612
2203	0.5579
2212	0.5542
2221	0.5501
2230	0.5446
2239	0.5391
2248	0.5334
2257	0.5279
2266	0.5237
2275	0.5198
2284	0.5173
2293	0.515
2302	0.513
2311	0.5109
2320	0.509
2329	0.5084
2338	0.5139
2347	0.5175
2356	0.5187
2365	0.5187
2374	0.5222
2383	0.5018
2392	0.4896
2401	0.4828
2410	0.469
2419	0.4648
2428	0.4665
2437	0.4701
2446	0.473
2455	0.4731
2464	0.4728
2473	0.4724
2482	0.4716
2491	0.4708
2500	0.4699
2509	0.4686
2518	0.4674
2527	0.4664
2536	0.4654
2545	0.4643
2554	0.4618
2563	0.459
2572	0.4563
2581	0.4535
2590	0.4506
2599	0.4476
2608	0.4446
2617	0.4421
2626	0.4398
2635	0.4374
2644	0.4351
2653	0.4331
2662	0.4314
2671	0.4297
2680	0.428
2689	0.4262
2698	0.4244
2707	0.4224
2716	0.4204
2725	0.4184
2734	0.4164
2743	0.4135
2752	0.4106
2761	0.4077
2770	0.4052
2779	0.4026
2788	0.4001
2797	0.3975
2806	0.3954
2815	0.3933
2824	0.3912
2833	0.3891
2842	0.387
2851	0.3849
2860	0.3827
2869	0.3804
2878	0.3781
2887	0.3757
2896	0.3735
2905	0.3707
2914	0.3677
2923	0.3646
2932	0.3616
2941	0.3585
2950	0.3558
2959	0.353
2968	0.3503
2977	0.3473
2986	0.3439
2995	0.3398
3004	0.3346
3013	0.3281
3022	0.3183
3031	0.313
3040	0.3084
3049	0.2641
3058	0.263
3067	0.2975
3076	0.3058
3085	0.312
3094	0.321
3103	0.3247
3112	0.3294
3121	0.3274
3130	0.3275
3139	0.3269
3148	0.3253
3157	0.3233
3166	0.321
3175	0.3173
3184	0.3136
3193	0.3101
3202	0.3074
3211	0.3052
3220	0.3031
3229	0.3008
3238	0.2985
3247	0.2962
3256	0.2939
3265	0.2917
3274	0.2896
3283	0.2874
3292	0.2853
3301	0.2835
3310	0.2818
3319	0.2801
3328	0.2784
3337	0.2765
3346	0.2744
3355	0.2723
3364	0.2702
3373	0.268
3382	0.266
3391	0.264
3400	0.2623
3409	0.2606
3418	0.2595
3427	0.2589
3436	0.2584
3445	0.2579
3454	0.2575
3463	0.257
3472	0.2565
3481	0.2558
3490	0.2552
3499	0.2545
3508	0.2535
3517	0.2521
3526	0.2508
3535	0.2497
3544	0.2488
3553	0.2479
3562	0.2462
3571	0.2433
3580	0.2384
3589	0.2351
3598	0.2384
3607	0.2391
3616	0.2392
3625	0.239
3634	0.2387
3643	0.2384
3652	0.2383
3661	0.2381
3670	0.2379
3679	0.2376
3688	0.2373
3697	0.2362
3706	0.2352
3715	0.2344
3724	0.2338
3733	0.2329
3742	0.2318
3751	0.2306
3760	0.2293
3769	0.2283
3778	0.2274
3787	0.2265
3796	0.2255
