Infrared Spectrum: PHOSPHONIC ACID, METHYL-, o,o-DIISOPENTYL ESTER
Formula: C11 H25 O3 P
CAS: 2452-70-2
State: LIQUID
Class: COBLENTZ
Instrument: Not specified, most likely a prism, grating, or hybrid spectrometer.
Sampling: TRANSMISSION
Path length: LIQUID FILM BETWEEN KBr PLATES
Resolution: 4
Origin: G. A. M. S.
1/CM	TRANSMITTANCE
617.412	0.895
626.588	0.896
635.765	0.898
644.941	0.899
654.118	0.896
663.294	0.891
672.471	0.885
681.647	0.875
690.824	0.837
700	0.785
709.177	0.677
718.353	0.621
727.53	0.608
736.706	0.626
745.883	0.62
755.059	0.598
764.236	0.486
773.412	0.484
782.589	0.45
791.765	0.375
800.942	0.25
810.118	0.25
819.295	0.324
828.471	0.475
837.648	0.459
846.824	0.501
856.001	0.6
865.177	0.652
874.354	0.555
883.53	0.3951
892.707	0.101
901.883	0.067
911.06	0.041
920.236	0.004
929.413	0.066
938.589	0.253
947.766	0.308
956.942	0.279
966.119	0.118
975.295	0.006
984.472	0
993.648	0
1002.82	0
1012	0
1021.18	0
1030.35	0
1039.53	0
1048.71	0
1057.88	0
1067.06	0
1076.24	0.069
1085.41	0.3
1094.59	0.376
1103.77	0.405
1112.94	0.41
1122.12	0.418
1131.3	0.393
1140.47	0.382
1149.65	0.433
1158.83	0.45
1168	0.444
1177.18	0.581
1186.35	0.629
1195.53	0.623
1204.71	0.58
1213.88	0.49
1223.06	0.31
1232.24	0.064
1241.41	0
1250.59	0
1259.77	0.015
1268.94	0.115
1278.12	0.316
1287.3	0.487
1296.47	0.445
1305.65	0.1209
1314.83	0.106
1324	0.574
1333.18	0.654
1342.36	0.669
1351.53	0.674
1360.71	0.537
1369.88	0.41
1379.06	0.439
1388.24	0.339
1397.41	0.572
1406.59	0.62
1415.77	0.552
1424.94	0.56
1434.12	0.594
1443.3	0.569
1452.47	0.39
1461.65	0.18
1470.83	0.195
1480	0.4579
1489.18	0.706
1498.36	0.78
1507.53	0.813
1516.71	0.827
1525.89	0.833
1535.06	0.841
1544.24	0.847
1553.41	0.851
1562.59	0.854
1571.77	0.858
1580.94	0.859
1590.12	0.861
1599.3	0.862
1608.47	0.862
1617.65	0.864
1626.83	0.864
1636	0.864
1645.18	0.864
1654.36	0.862
1663.53	0.862
1672.71	0.862
1681.89	0.861
1691.06	0.861
1700.24	0.864
1709.41	0.867
1718.59	0.868
1727.77	0.87
1736.94	0.87
1746.12	0.871
1755.3	0.875
1764.47	0.876
1773.65	0.881
1782.83	0.885
1792	0.888
1801.18	0.888
1810.36	0.887
1819.53	0.885
1828.71	0.885
1837.89	0.887
1847.06	0.89
1856.24	0.893
1865.42	0.898
1874.59	0.902
1883.77	0.907
1892.94	0.912
1902.12	0.916
1911.3	0.918
1920.47	0.922
1929.65	0.922
1938.83	0.915
1948	0.895
1957.18	0.865
1966.36	0.924
1975.53	0.927
1984.71	0.924
1993.89	0.921
2003.06	0.916
2012.24	0.915
2021.42	0.9149
2030.59	0.913
2039.77	0.9129
2048.95	0.912
2058.12	0.912
2067.3	0.9117
2076.47	0.91
2085.65	0.91
2094.83	0.91
2104	0.9096
2113.18	0.908
2122.36	0.9077
2131.53	0.9055
2140.71	0.905
2149.89	0.905
2159.06	0.904
2168.24	0.902
2177.42	0.9033
2186.59	0.9016
2195.77	0.9016
2204.95	0.899
2214.12	0.898
2223.3	0.8971
2232.48	0.8921
2241.65	0.89
2250.83	0.886
2260	0.8845
2269.18	0.8815
2278.36	0.879
2287.53	0.8762
2296.71	0.8738
2305.89	0.8717
2315.06	0.871
2324.24	0.871
2333.42	0.871
2342.59	0.871
2351.77	0.871
2360.95	0.871
2370.12	0.871
2379.3	0.871
2388.48	0.87
2397.65	0.87
2406.83	0.87
2416.01	0.87
2425.18	0.8698
2434.36	0.868
2443.53	0.867
2452.71	0.865
2461.89	0.865
2471.06	0.864
2480.24	0.862
2489.42	0.861
2498.59	0.8579
2507.77	0.854
2516.95	0.8539
2526.12	0.8509
2535.3	0.8479
2544.48	0.8449
2553.65	0.8419
2562.83	0.8387
2572.01	0.8356
2581.18	0.8338
2590.36	0.8308
2599.54	0.8278
2608.71	0.8235
2617.89	0.8214
2627.06	0.8184
2636.24	0.8154
2645.42	0.8123
2654.59	0.8076
2663.77	0.8025
2672.95	0.7954
2682.12	0.7859
2691.3	0.7757
2700.48	0.7677
2709.65	0.7586
2718.83	0.754
2728.01	0.753
2737.18	0.7519
2746.36	0.7464
2755.54	0.742
2764.71	0.7364
2773.89	0.7298
2783.06	0.7213
2792.24	0.7021
2801.42	0.6748
2810.59	0.6254
2819.77	0.5497
2828.95	0.4696
2838.12	0.3962
2847.3	0.2778
2856.48	0.1656
2865.65	0.0862
2874.83	0.084
2884.01	0.0625
2893.18	0.0404
2902.36	0.0303
2911.54	0.0242
2920.71	0.0182
2929.89	0.016
2939.07	0.0159
2948.24	0.0238
2957.42	0.0459
2966.59	0.1629
2975.77	0.2409
2984.95	0.3402
2994.12	0.4604
3003.3	0.5441
3012.48	0.6293
3021.65	0.644
3030.83	0.6933
3040.01	0.7201
3049.18	0.7332
3058.36	0.7404
3067.54	0.7457
3076.71	0.753
3085.89	0.759
3095.07	0.762
3104.24	0.7636
3113.42	0.765
3122.6	0.765
3131.77	0.766
3140.95	0.7667
3150.12	0.768
3159.3	0.77
3168.48	0.7734
3177.65	0.7779
3186.83	0.7825
3196.01	0.789
3205.18	0.7955
3214.36	0.8
3223.54	0.8031
3232.71	0.805
3241.89	0.805
3251.07	0.805
3260.24	0.805
3269.42	0.805
3278.6	0.804
3287.77	0.8007
3296.95	0.799
3306.13	0.796
3315.3	0.7933
3324.48	0.7888
3333.65	0.7855
3342.83	0.7822
3352.01	0.7792
3361.18	0.776
3370.36	0.774
3379.54	0.771
3388.71	0.77
3397.89	0.768
3407.07	0.766
3416.24	0.768
3425.42	0.771
3434.6	0.774
3443.77	0.779
3452.95	0.783
3462.13	0.7881
3471.3	0.7931
3480.48	0.7962
3489.66	0.8002
3498.83	0.8041
3508.01	0.8101
3517.18	0.8131
3526.36	0.8173
3535.54	0.82
3544.71	0.824
3553.89	0.825
3563.07	0.827
3572.24	0.828
3581.42	0.828
3590.6	0.828
3599.77	0.83
3608.95	0.828
3618.13	0.828
3627.3	0.828
3636.48	0.8276
3645.66	0.828
3654.83	0.828
3664.01	0.828
3673.19	0.828
3682.36	0.828
3691.54	0.828
3700.71	0.827
3709.89	0.825
3719.07	0.824
3728.24	0.8208
3737.42	0.8178
3746.6	0.8148
3755.77	0.813
3764.95	0.811
3774.13	0.81
3783.3	0.808
3792.48	0.807
3801.66	0.807
3810.83	0.808
3820.01	0.807
3829.19	0.804
3838.36	0.8024
3847.54	0.802
3856.71	0.802
3865.89	0.8
3875.07	0.8
3884.24	0.8
3893.42	0.8
3902.6	0.7991
3911.77	0.799
3920.95	0.799
3930.13	0.8
3939.3	0.8
3948.48	0.8
3957.66	0.8
3966.83	0.8
3976.01	0.8
3985.19	0.8
