Infrared Spectrum: 1,3-Dimethylcyclopentane
Formula: C 7 H 14
CAS: 2453-00-1
State: gas
Instrument: HP-GC/MS/IRD
Origin: NIST Mass Spectrometry Data Center
1/CM	ABSORBANCE
550	0.0001078
562	7.35e-05
574	0.0001176
586	7.35e-05
598	0.0001127
610	0.0001421
622	0.0001078
634	4.9e-05
646	5.88e-05
658	0.0002107
670	0.0001029
682	0.0001274
694	6.86e-05
706	0.0001372
718	0.0001372
730	9.31e-05
742	0.0001323
754	0.0002499
766	0.000147
778	0.0001519
790	0.0001421
802	0.0001323
814	0.0001519
826	0.0001911
838	0.0002401
850	0.0002891
862	0.0002744
874	0.0002205
886	0.0002009
898	0.0002009
910	0.0001764
922	0.0001666
934	0.0001715
946	0.0002058
958	0.0002646
970	0.0003528
982	0.0004018
994	0.0003577
1006	0.0003675
1018	0.0002695
1030	0.000245
1042	0.0002695
1054	0.000196
1066	0.0001421
1078	0.0001813
1090	0.000196
1102	0.0001862
1114	0.0002597
1126	0.0003528
1138	0.0005243
1150	0.00049
1162	0.0003675
1174	0.0002744
1186	0.0002842
1198	0.000294
1210	0.0003479
1222	0.0003185
1234	0.0003479
1246	0.0003087
1258	0.0003381
1270	0.0003626
1282	0.0003577
1294	0.0004263
1306	0.0005243
1318	0.0006223
1330	0.0008673
1342	0.0013279
1354	0.001519
1366	0.001715
1378	0.0021413
1390	0.0017787
1402	0.0009653
1414	0.0007399
1426	0.0010584
1438	0.002009
1450	0.0032242
1462	0.0037583
1474	0.0028959
1486	0.0017003
1498	0.0008624
1510	0.0004704
1522	0.000294
1534	0.0001911
1546	0.0001862
1558	0.0001911
1570	0.0001715
1582	0.0001372
1594	0.0001176
1606	0.000147
1618	0.0001813
1630	0.0001372
1642	0.0001519
1654	0.000196
1666	0.0001568
1678	0.0001813
1690	0.0001666
1702	0.0001617
1714	0.000147
1726	0.0001274
1738	0.0001225
1750	9.31e-05
1762	8.33e-05
1774	8.33e-05
1786	7.84e-05
1798	6.86e-05
1810	7.35e-05
1822	9.8e-05
1834	6.86e-05
1846	5.88e-05
1858	4.9e-05
1870	8.82e-05
1882	3.92e-05
1894	7.35e-05
1906	3.92e-05
1918	4.41e-05
1930	3.43e-05
1942	1.96e-05
1954	2.94e-05
1966	1.96e-05
1978	1.96e-05
1990	1.47e-05
2002	0
2014	4.9e-06
2026	4.9e-05
2038	2.94e-05
2050	3.43e-05
2062	1.96e-05
2074	2.45e-05
2086	3.92e-05
2098	3.92e-05
2110	2.94e-05
2122	2.45e-05
2134	2.45e-05
2146	1.96e-05
2158	2.45e-05
2170	1.47e-05
2182	2.45e-05
2194	3.92e-05
2206	2.94e-05
2218	1.96e-05
2230	4.41e-05
2242	2.45e-05
2254	3.92e-05
2266	3.92e-05
2278	4.9e-05
2290	5.39e-05
2302	4.9e-05
2314	4.41e-05
2326	7.84e-05
2338	8.82e-05
2350	7.84e-05
2362	5.88e-05
2374	5.39e-05
2386	7.35e-05
2398	5.88e-05
2410	9.31e-05
2422	0.0001078
2434	7.84e-05
2446	9.31e-05
2458	8.82e-05
2470	9.8e-05
2482	7.35e-05
2494	7.35e-05
2506	9.31e-05
2518	0.0001078
2530	8.33e-05
2542	0.0001176
2554	0.0001715
2566	0.000196
2578	0.0002156
2590	0.0002254
2602	0.0002793
2614	0.000245
2626	0.0002548
2638	0.0002744
2650	0.0002744
2662	0.0002744
2674	0.0003087
2686	0.0003185
2698	0.0003381
2710	0.0004165
2722	0.0004998
2734	0.0006713
2746	0.0006713
2758	0.0005733
2770	0.0005929
2782	0.0006566
2794	0.0008624
2806	0.0011466
2818	0.0017052
2830	0.0026068
2842	0.0044933
2854	0.0082075
2866	0.0145187
2878	0.0175959
2890	0.0164248
2902	0.0158123
2914	0.0200116
2926	0.0268471
2938	0.0366324
2950	0.0477162
2962	0.0447517
2974	0.0255045
2986	0.0089278
2998	0.0033075
3010	0.0018228
3022	0.0012054
3034	0.0009212
3046	0.0008379
3058	0.0007448
3070	0.000735
3082	0.0007007
3094	0.0006517
3106	0.0004998
3118	0.0004655
3130	0.0004165
3142	0.0004361
3154	0.0004214
3166	0.0004508
3178	0.0004606
3190	0.0003969
3202	0.0003185
3214	0.0002401
3226	0.0001715
3238	0.0001127
3250	0.0001127
3262	0.0001029
3274	9.31e-05
3286	0.0001029
3298	0.0001519
3310	0.0001421
3322	0.0001764
3334	0.0002107
3346	0.0001323
3358	0.0001568
3370	0.0001274
3382	0.0001078
3394	5.88e-05
3406	4.9e-05
3418	2.94e-05
3430	6.86e-05
3442	3.92e-05
3454	4.9e-06
3466	7.84e-05
3478	9.31e-05
3490	4.9e-05
3502	4.41e-05
3514	4.41e-05
3526	5.88e-05
3538	8.82e-05
3550	4.9e-05
3562	7.84e-05
3574	8.33e-05
3586	7.84e-05
3598	6.86e-05
3610	8.33e-05
3622	7.35e-05
3634	0.0001078
3646	6.86e-05
3658	7.35e-05
3670	9.31e-05
3682	5.88e-05
3694	0.0001078
3706	0.0001127
3718	0.0001176
3730	0.000147
3742	0.0001127
3754	0.0001715
3766	0.000147
3778	0.0001029
3790	0.0001323
3802	0.0001421
3814	0.0001862
3826	0.0001274
3838	0.0001617
