Infrared Spectrum: Decyl isothiocyanate
Formula: C 11 H 21 N S
CAS: 24540-94-1
State: gas
Origin: EPA-IR VAPOR PHASE LIBRARY
1/CM	ABSORBANCE
549.8	0.007428
559.445	0.007108
569.09	0.006058
578.734	0.005158
588.379	0.004108
598.024	0.003588
607.669	0.002708
617.313	0.002348
626.958	0.002148
636.603	0.002178
646.248	0.002378
655.893	0.002548
665.537	0.002988
675.182	0.002598
684.827	0.002758
694.472	0.004048
704.116	0.005338
713.761	0.005728
723.406	0.005738
733.051	0.005018
742.695	0.004548
752.34	0.003668
761.985	0.003378
771.63	0.003238
781.275	0.002618
790.919	0.001998
800.564	0.001918
810.209	0.001908
819.854	0.002158
829.498	0.001798
839.143	0.001818
848.788	0.001668
858.433	0.001888
868.078	0.001938
877.722	0.001928
887.367	0.002048
897.012	0.002128
906.657	0.002088
916.301	0.002438
925.946	0.002298
935.591	0.002378
945.236	0.002618
954.88	0.002408
964.525	0.002618
974.17	0.002488
983.815	0.002488
993.46	0.002518
1003.1	0.002678
1012.75	0.002408
1022.39	0.002458
1032.04	0.002548
1041.68	0.002718
1051.33	0.003268
1060.97	0.003178
1070.62	0.003328
1080.26	0.003308
1089.91	0.002598
1099.55	0.003418
1109.2	0.003058
1118.84	0.003358
1128.49	0.003028
1138.13	0.002588
1147.78	0.002358
1157.42	0.002498
1167.07	0.002728
1176.71	0.002748
1186.36	0.002458
1196	0.002648
1205.64	0.002878
1215.29	0.002898
1224.93	0.003368
1234.58	0.003288
1244.22	0.003728
1253.87	0.004238
1263.51	0.005068
1273.16	0.005518
1282.8	0.006428
1292.45	0.008038
1302.09	0.010258
1311.74	0.012328
1321.38	0.014358
1331.03	0.020338
1340.67	0.033608
1350.32	0.041538
1359.96	0.030758
1369.61	0.020638
1379.25	0.012428
1388.9	0.007788
1398.54	0.005168
1408.18	0.004288
1417.83	0.004348
1427.47	0.005598
1437.12	0.009478
1446.76	0.017568
1456.41	0.029678
1466.05	0.029798
1475.7	0.014258
1485.34	0.006428
1494.99	0.003768
1504.63	0.002698
1514.28	0.002118
1523.92	0.001758
1533.57	0.001528
1543.21	0.0013046
1552.86	0.001191
1562.5	0.0010272
1572.15	0.0010274
1581.79	0.0009504
1591.44	0.0009508
1601.08	0.0008988
1610.73	0.0009333
1620.37	0.0008508
1630.01	0.0009049
1639.66	0.0008796
1649.3	0.0009414
1658.95	0.0008299
1668.59	0.0007225
1678.24	0.0007629
1687.88	0.0008055
1697.53	0.0008151
1707.17	0.0007536
1716.82	0.0008041
1726.46	0.0007527
1736.11	0.0007584
1745.75	0.0008423
1755.4	0.0007286
1765.04	0.0007597
1774.69	0.0007651
1784.33	0.0008527
1793.98	0.0008855
1803.62	0.0008492
1813.27	0.0009717
1822.91	0.0011197
1832.55	0.0011475
1842.2	0.001388
1851.84	0.001548
1861.49	0.001898
1871.13	0.002188
1880.78	0.002728
1890.42	0.003398
1900.07	0.004248
1909.71	0.005348
1919.36	0.006648
1929	0.008278
1938.65	0.010398
1948.29	0.013058
1957.94	0.016748
1967.58	0.021598
1977.23	0.028258
1986.87	0.037818
1996.52	0.050958
2006.16	0.069158
2015.81	0.093808
2025.45	0.126978
2035.1	0.168978
2044.74	0.214618
2054.38	0.248948
2064.03	0.254788
2073.67	0.227308
2083.32	0.179458
2092.96	0.134378
2102.61	0.102398
2112.25	0.081678
2121.9	0.067698
2131.54	0.057728
2141.19	0.050288
2150.83	0.044898
2160.48	0.041388
2170.12	0.039078
2179.77	0.037678
2189.41	0.036218
2199.06	0.033008
2208.7	0.027838
2218.35	0.022288
2227.99	0.017188
2237.64	0.012978
2247.28	0.009808
2256.92	0.007618
2266.57	0.006168
2276.21	0.005078
2285.86	0.004148
2295.5	0.003618
2305.15	0.002938
2314.79	0.002498
2324.44	0.002268
2334.08	0.001908
2343.73	0.001758
2353.37	0.001608
2363.02	0.001458
2372.66	0.0012976
2382.31	0.0011783
2391.95	0.0011848
2401.6	0.0011821
2411.24	0.0010748
2420.89	0.0010805
2430.53	0.0010246
2440.18	0.0009838
2449.82	0.0010759
2459.47	0.0010676
2469.11	0.0010056
2478.75	0.0010884
2488.4	0.0010918
2498.04	0.0011755
2507.69	0.0012547
2517.33	0.0013487
2526.98	0.001518
2536.62	0.001508
2546.27	0.001578
2555.91	0.001688
2565.56	0.001738
2575.2	0.001948
2584.85	0.002008
2594.49	0.001988
2604.14	0.001908
2613.78	0.001828
2623.43	0.001798
2633.07	0.002008
2642.72	0.002088
2652.36	0.002308
2662.01	0.002618
2671.65	0.003058
2681.29	0.003508
2690.94	0.003698
2700.58	0.003908
2710.23	0.004208
2719.87	0.004948
2729.52	0.005488
2739.16	0.005698
2748.81	0.005638
2758.45	0.005218
2768.1	0.004998
2777.74	0.005048
2787.39	0.005428
2797.03	0.006068
2806.68	0.006888
2816.32	0.008198
2825.97	0.010188
2835.61	0.013718
2845.26	0.022378
2854.9	0.046668
2864.55	0.072068
2874.19	0.062858
2883.84	0.054418
2893.48	0.048148
2903.12	0.053388
2912.77	0.077378
2922.41	0.127548
2932.06	0.186218
2941.7	0.174738
2951.35	0.130468
2960.99	0.096528
2970.64	0.070848
2980.28	0.036328
2989.93	0.019728
2999.57	0.012918
3009.22	0.009378
3018.86	0.006988
3028.51	0.005678
3038.15	0.004528
3047.8	0.003608
3057.44	0.003168
3067.09	0.002408
3076.73	0.002418
3086.38	0.002188
3096.02	0.002038
3105.67	0.001608
3115.31	0.001568
3124.95	0.0013199
3134.6	0.0012771
3144.24	0.001438
3153.89	0.001353
3163.53	0.0010461
3173.18	0.0011505
3182.82	0.0010096
3192.47	0.0009806
3202.11	0.0006865
3211.76	0.0006656
3221.4	0.0005421
3231.05	0.00036194
3240.69	0.000367093
3250.34	0.0005104
3259.98	0.00040089
3269.63	0.0003185
3279.27	0.000257
3288.92	0.0003287
3298.56	0.000249
3308.21	0.000202
3317.85	0.0003029
3327.49	0.000259
3337.14	0.0003536
3346.78	0.00044847
3356.43	0.000307
3366.07	0.00044348
3375.72	0.0004929
3385.36	0.000368373
3395.01	0.00039193
3404.65	0.00041703
3414.3	0.0003192
3423.94	0.00040614
3433.59	0.0003508
3443.23	0.0005213
3452.88	0.00042366
3462.52	0.0005814
3472.17	0.0003517
3481.81	0.000208
3491.46	0.000302
3501.1	0.000137
3510.75	0.0002814
3520.39	0.000212
3530.04	0.000152
3539.68	9e-05
3549.32	0.000252
3558.97	0.000138
3568.61	0.00039546
3578.26	0.0002949
3587.9	0.000228
3597.55	0.0002966
3607.19	0.0003252
3616.84	0.0005847
3626.48	0.00044559
3636.13	0.0005002
3645.77	0.000374453
3655.42	0.000235
3665.06	0.0006364
3674.71	0.00042622
3684.35	0.0005755
3694	0.0006312
3703.64	0.00045051
3713.29	0.0005611
3722.93	0.00044853
3732.58	0.000608
3742.22	0.0007125
3751.86	0.00039826
3761.51	0.000523
3771.15	0.0008027
3780.8	0.0007833
3790.44	0.0004979
3800.09	0.0006583
3809.73	0.000636
3819.38	0.0006821
3829.02	0.0005361
3838.67	0.0008142
3848.31	0.0006641
3857.96	0.0008109
3867.6	0.0009457
3877.25	0.0007862
3886.89	0.0005071
3896.54	0.0005709
3906.18	0.0007973
3915.83	0.0010147
3925.47	0.0010038
3935.12	0.0009125
3944.76	0.0010826
3954.41	0.0010083
3964.05	0.0011036
3973.69	0.0012654
3983.34	0.001351
3992.98	0.001418
