Infrared Spectrum: 3-Amino-.alpha.-methylbenzyl alcohol
Formula: C 8 H 11 N O
CAS: 2454-37-7
State: gas
Origin: EPA-IR VAPOR PHASE LIBRARY
1/CM	ABSORBANCE
549.9	0.002074
559.547	0.002214
569.193	0.002394
578.84	0.002454
588.486	0.002474
598.133	0.002244
607.779	0.002474
617.426	0.002444
627.072	0.002574
636.719	0.003004
646.365	0.003934
656.012	0.005784
665.658	0.007114
675.305	0.006964
684.951	0.006624
694.598	0.007284
704.245	0.006304
713.891	0.004804
723.538	0.003574
733.184	0.003044
742.831	0.002624
752.477	0.002764
762.124	0.003694
771.77	0.005394
781.417	0.006114
791.063	0.004294
800.71	0.002804
810.356	0.002174
820.003	0.001974
829.649	0.001954
839.296	0.002274
848.943	0.003074
858.589	0.004534
868.236	0.005264
877.882	0.004394
887.529	0.002874
897.175	0.002224
906.822	0.002094
916.468	0.002134
926.115	0.002424
935.761	0.002414
945.408	0.002084
955.054	0.001804
964.701	0.001784
974.347	0.001914
983.994	0.002414
993.64	0.003414
1003.29	0.004054
1012.93	0.003824
1022.58	0.003254
1032.23	0.002814
1041.87	0.003184
1051.52	0.004194
1061.17	0.005464
1070.81	0.006544
1080.46	0.006854
1090.11	0.006254
1099.75	0.004934
1109.4	0.003554
1119.05	0.002684
1128.69	0.002264
1138.34	0.002224
1147.99	0.002844
1157.63	0.003484
1167.28	0.003754
1176.92	0.003454
1186.57	0.002664
1196.22	0.002564
1205.86	0.002964
1215.51	0.003054
1225.16	0.003134
1234.8	0.003424
1244.45	0.004404
1254.1	0.005084
1263.74	0.005394
1273.39	0.006044
1283.04	0.007254
1292.68	0.008084
1302.33	0.007244
1311.98	0.005854
1321.62	0.004274
1331.27	0.003674
1340.92	0.003914
1350.56	0.004494
1360.21	0.004644
1369.86	0.004314
1379.5	0.004014
1389.15	0.003244
1398.79	0.002484
1408.44	0.002094
1418.09	0.002154
1427.73	0.002214
1437.38	0.002944
1447.03	0.004564
1456.67	0.006114
1466.32	0.005784
1475.97	0.004574
1485.61	0.004574
1495.26	0.004384
1504.91	0.002994
1514.55	0.001774
1524.2	0.001644
1533.85	0.001624
1543.49	0.001674
1553.14	0.001884
1562.79	0.002244
1572.43	0.003124
1582.08	0.004714
1591.73	0.007294
1601.37	0.010404
1611.02	0.013124
1620.67	0.015314
1630.31	0.012574
1639.96	0.006014
1649.6	0.002844
1659.25	0.001844
1668.9	0.001464
1678.54	0.001314
1688.19	0.0012421
1697.84	0.0012934
1707.48	0.0012763
1717.13	0.0012635
1726.78	0.0011046
1736.42	0.0011177
1746.07	0.0010701
1755.72	0.0009316
1765.36	0.0008307
1775.01	0.00076
1784.66	0.0007341
1794.3	0.0007032
1803.95	0.0007601
1813.6	0.0008187
1823.24	0.0009096
1832.89	0.0008489
1842.54	0.0007912
1852.18	0.0006577
1861.83	0.0006928
1871.47	0.0006528
1881.12	0.0006537
1890.77	0.0006706
1900.41	0.0007983
1910.06	0.0008607
1919.71	0.0008422
1929.35	0.0007561
1939	0.0006739
1948.65	0.000627
1958.29	0.0005937
1967.94	0.0006041
1977.59	0.0005889
1987.23	0.00054089
1996.88	0.00053167
2006.53	0.000562
2016.17	0.00051968
2025.82	0.00054906
2035.47	0.00050476
2045.11	0.00050451
2054.76	0.00047395
2064.41	0.00049259
2074.05	0.00044478
2083.7	0.0004279
2093.35	0.00044
2102.99	0.0004381
2112.64	0.000463973
2122.28	0.0004263
2131.93	0.000413
2141.58	0.0004163
2151.22	0.00047412
2160.87	0.0004216
2170.52	0.00044
2180.16	0.0004407
2189.81	0.0003917
2199.46	0.0003666
2209.1	0.0003616
2218.75	0.0003901
2228.4	0.0003703
2238.04	0.000336
2247.69	0.0004
2257.34	0.0003749
2266.98	0.0003825
2276.63	0.0003918
2286.28	0.0003805
2295.92	0.000338
2305.57	0.0003584
2315.22	0.000324
2324.86	0.0003824
2334.51	0.000335
2344.16	0.0003764
2353.8	0.000304
2363.45	0.000339
2373.09	0.000341
2382.74	0.000296
2392.39	0.000331
2402.03	0.000249
2411.68	0.000291
2421.33	0.000254
2430.97	0.000265
2440.62	0.000267
2450.27	0.000282
2459.91	0.000289
2469.56	0.00036
2479.21	0.000313
2488.85	0.000284
2498.5	0.000256
2508.15	0.000238
2517.79	0.000208
2527.44	0.000227
2537.09	0.000282
2546.73	0.000229
2556.38	0.00026
2566.03	0.000284
2575.67	0.000304
2585.32	0.000223
2594.96	0.000256
2604.61	0.000273
2614.26	0.000306
2623.9	0.000234
2633.55	0.000245
2643.2	0.000197
2652.84	0.000227
2662.49	0.000253
2672.14	0.000197
2681.78	0.000225
2691.43	0.000133
2701.08	0.000132
2710.72	0.000159
2720.37	0.000171
2730.02	0.000199
2739.66	0.000199
2749.31	0.000157
2758.96	0.000216
2768.6	0.000224
2778.25	0.000151
2787.9	0.000221
2797.54	0.000234
2807.19	0.00029
2816.84	0.000321
2826.48	0.0004134
2836.13	0.00049533
2845.77	0.0006625
2855.42	0.0009414
2865.07	0.001494
2874.71	0.002234
2884.36	0.002824
2894.01	0.002884
2903.65	0.002484
2913.3	0.002124
2922.95	0.002024
2932.59	0.002344
2942.24	0.002104
2951.89	0.001594
2961.53	0.002164
2971.18	0.004284
2980.83	0.006354
2990.47	0.005014
3000.12	0.002424
3009.77	0.002174
3019.41	0.002584
3029.06	0.003234
3038.71	0.003704
3048.35	0.003804
3058	0.003114
3067.64	0.002474
3077.29	0.001944
3086.94	0.001195
3096.58	0.0009934
3106.23	0.00068
3115.88	0.00054469
3125.52	0.00033
3135.17	0.000142
3144.82	7.5e-05
3154.46	0.000136
3164.11	0.000143
3173.76	0.000349
3183.4	0.000306
3193.05	0.000166
3202.7	0.000301
3212.34	0.000317
3221.99	0.000348
3231.64	0.000336
3241.28	0.000203
3250.93	0.000246
3260.58	0.000238
3270.22	9.1e-05
3279.87	0.0003727
3289.52	0.000168
3299.16	0.000174
3308.81	0.000252
3318.45	0.000222
3328.1	7.2e-05
3337.75	0.000293
3347.39	0.000291
3357.04	0.000286
3366.69	0.0004009
3376.33	0.00049968
3385.98	0.0007005
3395.63	0.0010681
3405.27	0.001634
3414.92	0.001484
3424.57	0.0011448
3434.21	0.0006886
3443.86	0.0006628
3453.51	0.00048855
3463.15	0.0006084
3472.8	0.000966
3482.45	0.0012318
3492.09	0.0011999
3501.74	0.0013752
3511.39	0.0009886
3521.03	0.0007777
3530.68	0.0005536
3540.33	0.00031
3549.97	0.0004319
3559.62	0.000345
3569.26	0.0004321
3578.91	0.000556
3588.56	0.00053187
3598.2	0.00046976
3607.85	0.00053554
3617.5	0.000742
3627.14	0.0010273
3636.79	0.001584
3646.44	0.002344
3656.08	0.001834
3665.73	0.0011494
3675.38	0.0006463
3685.02	0.00050094
3694.67	0.000455805
3704.32	0.000453186
3713.96	0.000353
3723.61	0.0004374
3733.26	0.000458668
3742.9	0.00048808
3752.55	0.00052316
3762.2	0.00048259
3771.84	0.000286
3781.49	0.00048167
3791.13	0.0004
3800.78	0.000291
3810.43	0.000242
3820.07	0.000341
3829.72	0.000337
3839.37	0.0004173
3849.01	0.0004312
3858.66	0.000458255
3868.31	0.0004295
3877.95	0.0003906
3887.6	0.0004168
3897.25	0.0005353
3906.89	0.0003878
3916.54	0.0003637
3926.19	0.000435
3935.83	0.000341
3945.48	0.0004054
3955.13	0.0004059
3964.77	0.0003737
3974.42	0.000249
3984.07	0.000249
3993.71	0.000315
