Infrared Spectrum: BENZENE, 1,4-BIS(p-PHENOXYPHENOXY)-
Formula: C30 H22 O4
CAS: 2455-43-8
State: SOLUTION (1% CCl4 FOR 3800-1330, 1% CS2 FOR 1330-450 CM^-^1)
Class: COBLENTZ III
Instrument: DOW KBr FOREPRISM-GRATING
Instrument parameters: BLAZED AT 3.5, 12.0, 20.0 MICRON AND CHANGED AT 5.0, 7.5, 14.9 MICRON
Sampling: TRANSMISSION
Path length: 0.109 CM, 0.110 CM
Resolution: 2
Origin: DOW CHEMICAL COMPANY
1/CM	TRANSMITTANCE
447	0.6517
456	0.6628
465	0.6595
474	0.6246
483	0.5685
492	0.481
501	0.3316
510	0.6851
519	0.8431
528	0.8984
537	0.8977
546	0.9233
555	0.9218
564	0.8932
573	0.8387
582	0.8533
591	0.8233
600	0.7961
609	0.7943
618	0.7818
627	0.7265
636	0.5917
645	0.4526
654	0.4281
663	0.6147
672	0.6639
681	0.5144
690	0.2104
699	0.622
708	0.6717
717	0.6903
726	0.6798
735	0.5305
744	0.2155
753	0.3429
762	0.491
771	0.5169
780	0.4452
789	0.467
798	0.5515
807	0.578
816	0.4802
825	0.2581
834	0.0625
843	0.0076
852	0.0048
861	0.0192
870	0.0843
879	0.2566
888	0.4614
897	0.6454
906	0.7528
915	0.8289
924	0.8285
933	0.855
942	0.8541
951	0.8715
960	0.869
969	0.8604
978	0.887
987	0.8903
996	0.8803
1005	0.6622
1014	0.8143
1023	0.6886
1032	0.8693
1041	0.8736
1050	0.8784
1059	0.8534
1068	0.6264
1077	0.8428
1086	0.7275
1095	0.4769
1104	0.7938
1113	0.8564
1122	0.8471
1131	0.8465
1140	0.7894
1149	0.5855
1158	0.4395
1167	0.6238
1176	0.4037
1185	0.0675
1194	0.0005
1203	0.0014
1212	0.0024
1221	0.0055
1230	0.0008
1239	0.0683
1248	0.1042
1257	0.34
1266	0.4871
1275	0.4646
1284	0.4775
1293	0.5843
1302	0.676
1311	0.7046
1320	0.7422
1329	0.6733
1338	0.8187
1347	0.8564
1356	0.8731
1365	0.8802
1374	0.876
1383	0.8603
1392	0.8617
1401	0.8375
1410	0.7576
1419	0.7118
1428	0.6366
1437	0.6364
1446	0.6554
1455	0.5092
1464	0.3053
1473	0.11
1482	0.0002
1491	0.0001
1500	0.0005
1509	0.0221
1518	0.0162
1527	0.0082
1536	0.0015
1545	0.0004
1554	0
1563	0.0047
1572	0.0103
1581	0.0103
1590	0.0052
1599	0.0376
1608	0.207
1617	0.4671
1626	0.6555
1635	0.744
1644	0.7888
1653	0.8039
1662	0.8214
1671	0.8407
1680	0.8554
1689	0.8657
1698	0.8663
1707	0.8592
1716	0.8527
1725	0.8583
1734	0.8553
1743	0.8518
1752	0.8461
1761	0.8521
1770	0.8628
1779	0.8532
1788	0.8521
1797	0.8516
1806	0.8437
1815	0.8342
1824	0.8223
1833	0.8076
1842	0.7871
1851	0.7706
1860	0.7534
1869	0.7284
1878	0.7167
1887	0.7668
1896	0.8244
1905	0.8487
1914	0.8515
1923	0.8464
1932	0.8125
1941	0.8265
1950	0.8155
1959	0.8433
1968	0.8191
1977	0.8007
1986	0.7822
1995	0.7315
2004	0.7444
2013	0.7596
2022	0.7842
2031	0.8019
2040	0.8087
2049	0.8096
2058	0.8096
2067	0.8248
2076	0.8558
2085	0.8717
2094	0.8797
2103	0.8852
2112	0.8886
2121	0.8917
2130	0.8925
2139	0.8932
2148	0.8932
2157	0.8923
2166	0.8914
2175	0.8901
2184	0.8888
2193	0.8859
2202	0.8828
2211	0.876
2220	0.8635
2229	0.8478
2238	0.8271
2247	0.8001
2256	0.7685
2265	0.7358
2274	0.6958
2283	0.6662
2292	0.6699
2301	0.6868
2310	0.7081
2319	0.7245
2328	0.7448
2337	0.7607
2346	0.7761
2355	0.7893
2364	0.7997
2373	0.8075
2382	0.8133
2391	0.8165
2400	0.8142
2409	0.8115
2418	0.8132
2427	0.8125
2436	0.8161
2445	0.8315
2454	0.8453
2463	0.8561
2472	0.8602
2481	0.8645
2490	0.8704
2499	0.8748
2508	0.8778
2517	0.8785
2526	0.878
2535	0.8765
2544	0.8734
2553	0.87
2562	0.8675
2571	0.8704
2580	0.8756
2589	0.8785
2598	0.8796
2607	0.8806
2616	0.8813
2625	0.882
2634	0.8825
2643	0.8828
2652	0.883
2661	0.8825
2670	0.8797
2679	0.8785
2688	0.8787
2697	0.8797
2706	0.8807
2715	0.8815
2724	0.8805
2733	0.8785
2742	0.8771
2751	0.8759
2760	0.8756
2769	0.8759
2778	0.8762
2787	0.8777
2796	0.8792
2805	0.8789
2814	0.8787
2823	0.8763
2832	0.8717
2841	0.8651
2850	0.863
2859	0.8635
2868	0.8661
2877	0.8711
2886	0.875
2895	0.8768
2904	0.8784
2913	0.8795
2922	0.8803
2931	0.881
2940	0.8812
2949	0.8813
2958	0.8812
2967	0.8783
2976	0.8744
2985	0.8647
2994	0.8475
3003	0.8185
3012	0.7821
3021	0.7105
3030	0.6825
3039	0.5407
3048	0.6481
3057	0.6925
3066	0.6917
3075	0.7108
3084	0.7556
3093	0.7655
3102	0.8047
3111	0.8507
3120	0.8723
3129	0.8848
3138	0.8896
3147	0.8923
3156	0.8945
3165	0.8965
3174	0.8978
3183	0.8993
3192	0.9011
3201	0.9028
3210	0.9048
3219	0.9062
3228	0.9077
3237	0.9092
3246	0.9103
3255	0.9112
3264	0.9121
3273	0.913
3282	0.914
3291	0.9149
3300	0.9159
3309	0.9168
3318	0.917
3327	0.9164
3336	0.9159
3345	0.9168
3354	0.9177
3363	0.9194
3372	0.9216
3381	0.9238
3390	0.9251
3399	0.9249
3408	0.9214
3417	0.9178
3426	0.9147
3435	0.9121
3444	0.91
3453	0.9078
3462	0.9066
3471	0.9052
3480	0.9039
3489	0.9025
3498	0.9014
3507	0.9002
3516	0.8989
3525	0.8971
3534	0.8956
3543	0.8937
3552	0.8908
3561	0.8828
3570	0.8655
3579	0.8913
3588	0.8917
3597	0.8899
3606	0.8873
3615	0.8873
3624	0.8888
3633	0.8893
3642	0.8892
3651	0.8887
3660	0.8883
3669	0.8874
3678	0.884
3687	0.8794
3696	0.8808
3705	0.8836
3714	0.886
3723	0.8885
3732	0.8896
3741	0.8899
3750	0.8895
3759	0.8889
3768	0.8883
3777	0.8885
3786	0.889
3795	0.8894
