Infrared Spectrum: ANDROSTA-5,9(11)-DIEN-3-ONE, 17Beta-ACETOXY-4-OXA-,
Formula: C20 H26 O4
CAS: 2455-42-7
State: SOLID (KBr DISC)
Class: COBLENTZ III
Instrument: BECKMAN IR-7
Sampling: TRANSMISSION
Resolution: 4
Origin: N. L. McNIVEN- THE WORCESTER FOUNDATION FOR EXPERIMENTAL BIOLOGY
1/CM	TRANSMITTANCE
601.325	0.694
609.934	0.644
618.544	0.676
627.153	0.741
635.762	0.713
644.371	0.807
652.981	0.854
661.59	0.85
670.199	0.886
678.808	0.895
687.418	0.835
696.027	0.908
704.636	0.928
713.245	0.935
721.855	0.929
730.464	0.917
739.073	0.933
747.682	0.89
756.292	0.938
764.901	0.926
773.51	0.931
782.12	0.96
790.729	0.922
799.338	0.956
807.947	0.933
816.557	0.805
825.166	0.896
833.775	0.801
842.384	0.858
850.994	0.7791
859.603	0.693
868.212	0.698
876.821	0.8259
885.431	0.922
894.04	0.927
902.649	0.92
911.258	0.859
919.868	0.796
928.477	0.857
937.086	0.898
945.696	0.811
954.305	0.853
962.914	0.799
971.523	0.861
980.133	0.805
988.742	0.633
997.351	0.587
1005.96	0.587
1014.57	0.492
1023.18	0.525
1031.79	0.383
1040.4	0.407
1049.01	0.5229
1057.62	0.665
1066.23	0.403
1074.83	0.641
1083.44	0.5191
1092.05	0.572
1100.66	0.521
1109.27	0.432
1117.88	0.436
1126.49	0.429
1135.1	0.225
1143.71	0.4
1152.32	0.372
1160.93	0.268
1169.54	0.286
1178.15	0.487
1186.75	0.333
1195.36	0.327
1203.97	0.546
1212.58	0.554
1221.19	0.541
1229.8	0.3801
1238.41	0.217
1247.02	0.068
1255.63	0.168
1264.24	0.179
1272.85	0.433
1281.46	0.607
1290.07	0.617
1298.68	0.756
1307.28	0.804
1315.89	0.76
1324.5	0.734
1333.11	0.76
1341.72	0.6901
1350.33	0.699
1358.94	0.579
1367.55	0.5481
1376.16	0.529
1384.77	0.52
1393.38	0.723
1401.99	0.79
1410.6	0.796
1419.21	0.693
1427.81	0.761
1436.42	0.721
1445.03	0.709
1453.64	0.756
1462.25	0.678
1470.86	0.788
1479.47	0.876
1488.08	0.898
1496.69	0.906
1505.3	0.913
1513.91	0.917
1522.52	0.918
1531.13	0.917
1539.73	0.913
1548.34	0.919
1556.95	0.925
1565.56	0.929
1574.17	0.925
1582.78	0.921
1591.39	0.913
1600	0.9
1608.61	0.887
1617.22	0.875
1625.83	0.86
1634.44	0.829
1643.05	0.796
1651.66	0.786
1660.26	0.752
1668.87	0.673
1677.48	0.45
1686.09	0.372
1694.7	0.654
1703.31	0.711
1711.92	0.56
1720.53	0.238
1729.14	0.111
1737.75	0.201
1746.36	0.061
1754.97	0.114
1763.58	0.386
1772.18	0.629
1780.79	0.786
1789.4	0.82
1798.01	0.858
1806.62	0.876
1815.23	0.89
1823.84	0.898
1832.45	0.914
1841.06	0.928
1849.67	0.941
1858.28	0.949
1866.89	0.951
1875.5	0.953
1884.11	0.955
1892.71	0.956
1901.32	0.958
1909.93	0.959
1918.54	0.959
1927.15	0.958
1935.76	0.957
1944.37	0.956
1952.98	0.953
1961.59	0.954
1970.2	0.955
1978.81	0.956
1987.42	0.959
1996.03	0.96
2004.63	0.959
2013.24	0.959
2021.85	0.9586
2030.46	0.958
2039.07	0.957
2047.68	0.956
2056.29	0.9544
2064.9	0.954
2073.51	0.952
2082.12	0.9515
2090.73	0.95
2099.34	0.949
2107.95	0.949
2116.56	0.949
2125.16	0.949
2133.77	0.949
2142.38	0.949
2150.99	0.949
2159.6	0.949
2168.21	0.949
2176.82	0.949
2185.43	0.949
2194.04	0.949
2202.65	0.949
2211.26	0.949
2219.87	0.949
2228.48	0.949
2237.09	0.949
2245.69	0.949
2254.3	0.949
2262.91	0.949
2271.52	0.949
2280.13	0.949
2288.74	0.9484
2297.35	0.948
2305.96	0.947
2314.57	0.947
2323.18	0.9452
2331.79	0.9417
2340.4	0.9342
2349.01	0.931
2357.61	0.93
2366.22	0.9244
2374.83	0.922
2383.44	0.9266
2392.05	0.9364
2400.66	0.939
2409.27	0.939
2417.88	0.938
2426.49	0.937
2435.1	0.937
2443.71	0.936
2452.32	0.935
2460.93	0.933
2469.54	0.932
2478.14	0.9308
2486.75	0.926
2495.36	0.923
2503.97	0.923
2512.58	0.9244
2521.19	0.927
2529.8	0.927
2538.41	0.926
2547.02	0.925
2555.63	0.925
2564.24	0.924
2572.85	0.923
2581.46	0.9212
2590.06	0.9209
2598.67	0.9186
2607.28	0.9163
2615.89	0.9131
2624.5	0.9117
2633.11	0.911
2641.72	0.9091
2650.33	0.909
2658.94	0.9085
2667.55	0.9073
2676.16	0.907
2684.77	0.9067
2693.38	0.9044
2701.99	0.9011
2710.59	0.901
2719.2	0.9
2727.81	0.899
2736.42	0.8969
2745.03	0.8946
2753.64	0.8933
2762.25	0.891
2770.86	0.8887
2779.47	0.8851
2788.08	0.8781
2796.69	0.8703
2805.3	0.8569
2813.91	0.84
2822.51	0.8243
2831.12	0.6361
2839.73	0.558
2848.34	0.6764
2856.95	0.6902
2865.56	0.606
2874.17	0.5237
2882.78	0.492
2891.39	0.5909
2900	0.496
2908.61	0.5234
2917.22	0.578
2925.83	0.5698
2934.44	0.551
2943.04	0.5364
2951.65	0.521
2960.26	0.542
2968.87	0.456
2977.48	0.4
2986.09	0.6053
2994.7	0.7175
3003.31	0.7801
3011.92	0.803
3020.53	0.811
3029.14	0.8117
3037.75	0.8073
3046.36	0.7809
3054.97	0.7998
3063.57	0.801
3072.18	0.8081
3080.79	0.8262
3089.4	0.8337
3098.01	0.836
3106.62	0.836
3115.23	0.836
3123.84	0.8354
3132.45	0.835
3141.06	0.835
3149.67	0.834
3158.28	0.833
3166.89	0.832
3175.49	0.831
3184.1	0.8303
3192.71	0.829
3201.32	0.8277
3209.93	0.825
3218.54	0.8232
3227.15	0.8228
3235.76	0.821
3244.37	0.819
3252.98	0.817
3261.59	0.8157
3270.2	0.815
3278.81	0.813
3287.42	0.812
3296.02	0.811
3304.63	0.811
3313.24	0.8109
3321.85	0.8047
3330.46	0.7983
3339.07	0.7939
3347.68	0.7894
3356.29	0.7827
3364.9	0.7801
3373.51	0.7756
3382.12	0.7715
3390.73	0.769
3399.34	0.7618
3407.94	0.7556
3416.55	0.7506
3425.16	0.745
3433.77	0.7433
3442.38	0.749
3450.99	0.7579
3459.6	0.7602
3468.21	0.7625
3476.82	0.7648
3485.43	0.7685
3494.04	0.7808
3502.65	0.7844
3511.26	0.79
3519.87	0.7933
3528.47	0.7956
3537.08	0.7979
3545.69	0.8018
3554.3	0.81
3562.91	0.8128
3571.52	0.8132
3580.13	0.8194
3588.74	0.8237
3597.35	0.835
3605.96	0.8383
3614.57	0.841
3623.18	0.843
3631.79	0.8452
3640.39	0.8475
3649	0.85
3657.61	0.852
3666.22	0.853
3674.83	0.854
3683.44	0.854
3692.05	0.854
3700.66	0.854
3709.27	0.854
3717.88	0.854
3726.49	0.854
3735.1	0.854
3743.71	0.854
3752.32	0.854
3760.92	0.854
3769.53	0.8531
3778.14	0.852
3786.75	0.852
3795.36	0.8512
3803.97	0.85
3812.58	0.849
3821.19	0.8483
3829.8	0.847
3838.41	0.846
3847.02	0.845
3855.63	0.845
3864.24	0.844
3872.85	0.8435
3881.45	0.843
3890.06	0.842
3898.67	0.841
3907.28	0.841
3915.89	0.841
3924.5	0.841
3933.11	0.84
3941.72	0.84
3950.33	0.839
3958.94	0.8385
3967.55	0.837
3976.16	0.836
3984.77	0.835
