Infrared Spectrum: N-(6-Bromohexyl)phthalimide
Formula: C 14 H 16 Br N O 2
CAS: 24566-79-8
State: gas
Origin: EPA-IR VAPOR PHASE LIBRARY
1/CM	ABSORBANCE
549.8	0.004395
559.445	0.003495
569.09	0.003205
578.734	0.002605
588.379	0.001465
598.024	0.001885
607.669	0.002095
617.313	0.004035
626.958	0.002795
636.603	0.002275
646.248	0.003845
655.893	0.003885
665.537	0.001885
675.182	0.001595
684.827	0.002325
694.472	0.005385
704.116	0.011345
713.761	0.044825
723.406	0.030785
733.051	0.010515
742.695	0.005625
752.34	0.003735
761.985	0.003005
771.63	0.002615
781.275	0.003445
790.919	0.003735
800.564	0.002085
810.209	0.001565
819.854	0.001625
829.498	0.001855
839.143	0.001635
848.788	0.002005
858.433	0.002905
868.078	0.004245
877.722	0.005815
887.367	0.005705
897.012	0.004955
906.657	0.003855
916.301	0.003915
925.946	0.004045
935.591	0.004435
945.236	0.005625
954.88	0.006615
964.525	0.006835
974.17	0.006255
983.815	0.005285
993.46	0.004895
1003.1	0.005155
1012.75	0.005785
1022.39	0.008475
1032.04	0.014175
1041.68	0.018645
1051.33	0.014295
1060.97	0.010505
1070.62	0.008885
1080.26	0.007525
1089.91	0.007885
1099.55	0.007775
1109.2	0.007615
1118.84	0.005895
1128.49	0.004105
1138.13	0.003125
1147.78	0.003175
1157.42	0.005205
1167.07	0.005255
1176.71	0.008235
1186.36	0.010105
1196	0.006995
1205.64	0.005935
1215.29	0.006225
1224.93	0.007475
1234.58	0.009055
1244.22	0.010575
1253.87	0.011095
1263.51	0.009875
1273.16	0.010315
1282.8	0.010305
1292.45	0.011005
1302.09	0.012995
1311.74	0.015535
1321.38	0.021295
1331.03	0.026275
1340.67	0.035055
1350.32	0.056365
1359.96	0.079485
1369.61	0.075135
1379.25	0.052045
1388.9	0.070805
1398.54	0.055915
1408.18	0.027905
1417.83	0.014795
1427.47	0.012125
1437.12	0.019065
1446.76	0.023155
1456.41	0.015755
1466.05	0.014165
1475.7	0.008185
1485.34	0.003855
1494.99	0.002905
1504.63	0.002475
1514.28	0.002355
1523.92	0.002285
1533.57	0.002025
1543.21	0.001855
1552.86	0.001835
1562.5	0.002065
1572.15	0.002395
1581.79	0.002655
1591.44	0.003535
1601.08	0.003895
1610.73	0.004975
1620.37	0.003725
1630.01	0.002355
1639.66	0.002145
1649.3	0.002165
1658.95	0.002665
1668.59	0.003295
1678.24	0.004735
1687.88	0.007545
1697.53	0.014545
1707.17	0.026985
1716.82	0.061815
1726.46	0.197525
1736.11	0.228505
1745.75	0.069115
1755.4	0.026265
1765.04	0.018215
1774.69	0.023795
1784.33	0.035915
1793.98	0.014945
1803.62	0.006445
1813.27	0.004075
1822.91	0.003315
1832.55	0.003155
1842.2	0.003045
1851.84	0.002265
1861.49	0.001995
1871.13	0.002125
1880.78	0.001665
1890.42	0.001535
1900.07	0.001625
1909.71	0.001635
1919.36	0.001455
1929	0.001535
1938.65	0.001825
1948.29	0.001335
1957.94	0.0010257
1967.58	0.001475
1977.23	0.0011115
1986.87	0.0007781
1996.52	0.0007768
2006.16	0.0007052
2015.81	0.0006443
2025.45	0.0006712
2035.1	0.0006627
2044.74	0.0006213
2054.38	0.0006621
2064.03	0.0007207
2073.67	0.0006066
2083.32	0.0006517
2092.96	0.0006535
2102.61	0.0006177
2112.25	0.0005733
2121.9	0.0004568
2131.54	0.0005735
2141.19	0.0006343
2150.83	0.0005973
2160.48	0.0005906
2170.12	0.0005294
2179.77	0.0005472
2189.41	0.0005291
2199.06	0.0004966
2208.7	0.000505
2218.35	0.00038899
2227.99	0.0004502
2237.64	0.0005566
2247.28	0.0006254
2256.92	0.0007037
2266.57	0.0006451
2276.21	0.0005402
2285.86	0.0004976
2295.5	0.0005052
2305.15	0.0006606
2314.79	0.0007329
2324.44	0.0007861
2334.08	0.0007726
2343.73	0.0007607
2353.37	0.000723
2363.02	0.0006299
2372.66	0.0006422
2382.31	0.0005224
2391.95	0.0006805
2401.6	0.0006456
2411.24	0.0005523
2420.89	0.0007137
2430.53	0.0008808
2440.18	0.0007795
2449.82	0.0007382
2459.47	0.0005706
2469.11	0.0005847
2478.75	0.0005031
2488.4	0.000453
2498.04	0.0005797
2507.69	0.00040803
2517.33	0.000527
2526.98	0.00040007
2536.62	0.00039453
2546.27	0.0003599
2555.91	0.0004038
2565.56	0.0003983
2575.2	0.00042073
2584.85	0.00041953
2594.49	0.0003205
2604.14	0.0004941
2613.78	0.0005513
2623.43	0.0005185
2633.07	0.0005829
2642.72	0.0007129
2652.36	0.0006597
2662.01	0.000728
2671.65	0.0007811
2681.29	0.0008804
2690.94	0.0009116
2700.58	0.000951
2710.23	0.0006894
2719.87	0.0006223
2729.52	0.0005904
2739.16	0.0006664
2748.81	0.0006736
2758.45	0.0008243
2768.1	0.0007944
2777.74	0.0011848
2787.39	0.0011875
2797.03	0.0011906
2806.68	0.0012225
2816.32	0.001415
2825.97	0.001845
2835.61	0.002745
2845.26	0.004295
2854.9	0.006895
2864.55	0.012385
2874.19	0.012895
2883.84	0.009025
2893.48	0.008095
2903.12	0.009545
2912.77	0.012325
2922.41	0.018585
2932.06	0.028295
2941.7	0.038145
2951.35	0.034635
2960.99	0.018745
2970.64	0.014525
2980.28	0.010085
2989.93	0.005365
2999.57	0.003555
3009.22	0.004175
3018.86	0.003685
3028.51	0.002135
3038.15	0.002165
3047.8	0.002675
3057.44	0.003815
3067.09	0.004365
3076.73	0.004515
3086.38	0.006615
3096.02	0.003795
3105.67	0.001505
3115.31	0.0006531
3124.95	0.000438
3134.6	0.00036733
3144.24	0.0002755
3153.89	0.0002588
3163.53	0.000291
3173.18	0.00042658
3182.82	0.0004393
3192.47	0.0003006
3202.11	0.0005086
3211.76	0.00038609
3221.4	0.00056
3231.05	0.0004494
3240.69	0.000226
3250.34	0.0002998
3259.98	0.00038863
3269.63	0.000107
3279.27	0.000189
3288.92	0.0002853
3298.56	0.000173
3308.21	0.00033232
3317.85	0.0003166
3327.49	0.000218
3337.14	0.0003248
3346.78	0.0002495
3356.43	9e-05
3366.07	9.7e-05
3375.72	0.0002468
3385.36	0.000257
3395.01	0.0002618
3404.65	0.0003168
3414.3	0.0002771
3423.94	0.0002432
3433.59	0.0005205
3443.23	0.0008671
3452.88	0.0009211
3462.52	0.0011403
3472.17	0.0012849
3481.81	0.001625
3491.46	0.002345
3501.1	0.002725
3510.75	0.001645
3520.39	0.00096
3530.04	0.0005512
3539.68	0.0004434
3549.32	0.00041999
3558.97	0.00042987
3568.61	0.0002979
3578.26	0.0002691
3587.9	0.0003111
3597.55	9.8e-05
3607.19	0.0002366
3616.84	0.00042496
3626.48	0.0003086
3636.13	0.00038009
3645.77	0.0002824
3655.42	0.000206
3665.06	0.0002884
3674.71	0.00033131
3684.35	0.00033337
3694	0.00037381
3703.64	0.000124
3713.29	0.000209
3722.93	0.0002698
3732.58	0.0002768
3742.22	0.0003176
3751.86	0.00037153
3761.51	0.0003115
3771.15	0.0002809
3780.8	0.00033333
3790.44	0.00033115
3800.09	0.00037303
3809.73	0.00032559
3819.38	0.000152
3829.02	0.0002493
3838.67	0.000233
3848.31	0.0002463
3857.96	0.000541
3867.6	0.000175
3877.25	0.00038853
3886.89	0.00036522
3896.54	0.0003183
3906.18	0.0005481
3915.83	0.000302
3925.47	0.0002995
3935.12	0.00041941
3944.76	0.0002717
3954.41	0.0005355
3964.05	0.00041057
3973.69	0.000235
3983.34	0.000175
3992.98	0.0004533
