Infrared Spectrum: CIS 9,10-EPOXY STEARIC ACID
Formula: C18 H34 O3
CAS: 24560-98-3
State: SOLUTION (10% CS2 FOR 5000-2380 AND 1390-625, 10% C2Cl4 FOR 2380-1390 CM^-^1)
Class: COBLENTZ
Instrument: PERKIN-ELMER
Sampling: TRANSMISSION
Path length: 0.01 CM, 0.01 CM
Resolution: 4
Origin: HORMEL INSTITUTE
MICROMETERS	TRANSMITTANCE
2.027	0.961
2.06087	0.961
2.09474	0.962
2.12862	0.964
2.16249	0.966
2.19636	0.966
2.23023	0.964
2.2641	0.957
2.29797	0.923
2.33185	0.934
2.36572	0.934
2.39959	0.937
2.43346	0.939
2.46733	0.94
2.50121	0.944
2.53508	0.949
2.56895	0.952
2.60282	0.954
2.63669	0.956
2.67057	0.956
2.70444	0.957
2.73831	0.956
2.77218	0.957
2.80605	0.954
2.83992	0.944
2.8738	0.935
2.90767	0.927
2.94154	0.91
2.97541	0.874
3.00928	0.839
3.04316	0.79
3.07703	0.732
3.1109	0.673
3.14477	0.619
3.17864	0.565
3.21252	0.517
3.24639	0.478
3.28026	0.451
3.31413	0.426
3.348	0.346
3.38187	0.106
3.41575	0.023
3.44962	0.05
3.48349	0.181
3.51736	0.142
3.55123	0.468
3.58511	0.573
3.61898	0.622
3.65285	0.639
3.68672	0.646
3.72059	0.639
3.75446	0.62
3.78834	0.639
3.82221	0.663
3.85608	0.683
3.88995	0.695
3.92382	0.712
3.9577	0.742
3.99157	0.78
4.02544	0.812
4.05931	0.83
4.09318	0.849
4.12706	0.859
4.16093	0.871
4.1948	0.879
4.22867	0.879
4.26254	0.871
4.29641	0.879
4.33029	0.9
4.36416	0.906
4.39803	0.9
4.4319	0.906
4.46577	0.91
4.49965	0.912
4.53352	0.915
4.56739	0.913
4.60126	0.915
4.63513	0.917
4.66901	0.918
4.70288	0.92
4.73675	0.92
4.77062	0.922
4.80449	0.922
4.83836	0.92
4.87224	0.92
4.90611	0.918
4.93998	0.918
4.97385	0.918
5.00772	0.913
5.0416	0.912
5.07547	0.915
5.10934	0.915
5.14321	0.912
5.17708	0.91
5.21095	0.91
5.24483	0.908
5.2787	0.906
5.31257	0.903
5.34644	0.9
5.38031	0.896
5.41419	0.888
5.44806	0.879
5.48193	0.874
5.5158	0.864
5.54967	0.852
5.58355	0.84
5.61742	0.822
5.65129	0.769
5.68516	0.686
5.71903	0.56
5.7529	0.385
5.78678	0.243
5.82065	0.05
5.85452	0.033
5.88839	0.321
5.92226	0.526
5.95614	0.67
5.99001	0.749
6.02388	0.793
6.05775	0.829
6.09162	0.849
6.12549	0.864
6.15937	0.879
6.19324	0.883
6.22711	0.891
6.26098	0.898
6.29485	0.9
6.32873	0.901
6.3626	0.901
6.39647	0.901
6.43034	0.901
6.46421	0.9
6.49809	0.898
6.53196	0.893
6.56583	0.89
6.5997	0.883
6.63357	0.879
6.66744	0.862
6.70132	0.844
6.73519	0.803
6.76906	0.73
6.80293	0.341
6.8368	0.302
6.87068	0.35
6.90455	0.434
6.93842	0.465
6.97229	0.483
7.00616	0.489
7.04004	0.472
7.07391	0.428
7.10778	0.497
7.14165	0.61
7.17552	0.619
7.20939	0.575
7.24327	0.6
7.27714	0.624
7.31101	0.656
7.34488	0.68
7.37875	0.673
7.41263	0.67
7.4465	0.661
7.48037	0.654
7.51424	0.641
7.54811	0.62
7.58198	0.592
7.61586	0.56
7.64973	0.517
7.6836	0.48
7.71747	0.455
7.75134	0.421
7.78522	0.389
7.81909	0.414
7.85296	0.45
7.88683	0.468
7.9207	0.477
7.95458	0.483
7.98845	0.473
8.02232	0.465
8.05619	0.485
8.09006	0.505
8.12393	0.509
8.15781	0.509
8.19168	0.522
8.22555	0.536
8.25942	0.549
8.29329	0.58
8.32717	0.612
8.36104	0.629
8.39491	0.641
8.42878	0.651
8.46265	0.658
8.49653	0.658
8.5304	0.659
8.56427	0.664
8.59814	0.668
8.63201	0.671
8.66588	0.681
8.69976	0.698
8.73363	0.708
8.7675	0.717
8.80137	0.724
8.83524	0.73
8.86912	0.741
8.90299	0.751
8.93686	0.747
8.97073	0.73
9.0046	0.73
9.03847	0.741
9.07235	0.759
9.10622	0.768
9.14009	0.768
9.17396	0.761
9.20783	0.764
9.24171	0.771
9.27558	0.773
9.30945	0.78
9.34332	0.788
9.37719	0.793
9.41107	0.796
9.44494	0.798
9.47881	0.802
9.51268	0.802
9.54655	0.802
9.58042	0.8
9.6143	0.8
9.64817	0.798
9.68204	0.798
9.71591	0.798
9.74978	0.796
9.78366	0.793
9.81753	0.788
9.8514	0.783
9.88527	0.778
9.91914	0.774
9.95302	0.773
9.98689	0.773
10.0208	0.771
10.0546	0.769
10.0885	0.764
10.1224	0.758
10.1562	0.752
10.1901	0.739
10.224	0.73
10.2579	0.717
10.2917	0.7
10.3256	0.681
10.3595	0.661
10.3933	0.631
10.4272	0.609
10.4611	0.583
10.495	0.558
10.5288	0.539
10.5627	0.522
10.5966	0.512
10.6305	0.499
10.6643	0.489
10.6982	0.482
10.7321	0.48
10.7659	0.48
10.7998	0.489
10.8337	0.497
10.8676	0.509
10.9014	0.519
10.9353	0.538
10.9692	0.549
11.003	0.56
11.0369	0.571
11.0708	0.58
11.1047	0.59
11.1385	0.6
11.1724	0.614
11.2063	0.624
11.2401	0.632
11.274	0.646
11.3079	0.654
11.3418	0.668
11.3756	0.673
11.4095	0.676
11.4434	0.678
11.4772	0.68
11.5111	0.686
11.545	0.688
11.5789	0.69
11.6127	0.698
11.6466	0.7
11.6805	0.7
11.7144	0.707
11.7482	0.71
11.7821	0.71
11.816	0.698
11.8498	0.686
11.8837	0.678
11.9176	0.67
11.9515	0.668
11.9853	0.668
12.0192	0.668
12.0531	0.663
12.0869	0.659
12.1208	0.659
12.1547	0.659
12.1886	0.664
12.2224	0.671
12.2563	0.686
12.2902	0.695
12.324	0.703
12.3579	0.708
12.3918	0.71
12.4257	0.714
12.4595	0.714
12.4934	0.717
12.5273	0.719
12.5611	0.722
12.595	0.727
12.6289	0.732
12.6628	0.736
12.6966	0.736
12.7305	0.739
12.7644	0.741
12.7983	0.742
12.8321	0.742
12.866	0.747
12.8999	0.751
12.9337	0.754
12.9676	0.754
13.0015	0.754
13.0354	0.756
13.0692	0.756
13.1031	0.758
13.137	0.759
13.1708	0.768
13.2047	0.769
13.2386	0.771
13.2725	0.768
13.3063	0.769
13.3402	0.773
13.3741	0.774
13.4079	0.771
13.4418	0.771
13.4757	0.768
13.5096	0.768
13.5434	0.768
13.5773	0.764
13.6112	0.756
13.645	0.751
13.6789	0.744
13.7128	0.734
13.7467	0.719
13.7805	0.705
13.8144	0.685
13.8483	0.668
13.8822	0.668
13.916	0.695
13.9499	0.722
13.9838	0.746
14.0176	0.769
14.0515	0.791
14.0854	0.807
14.1193	0.818
14.1531	0.829
14.187	0.84
14.2209	0.847
14.2547	0.856
14.2886	0.857
14.3225	0.859
14.3564	0.868
14.3902	0.869
14.4241	0.873
14.458	0.874
14.4918	0.874
14.5257	0.874
14.5596	0.873
14.5935	0.874
14.6273	0.874
14.6612	0.871
14.6951	0.871
14.7289	0.869
14.7628	0.868
14.7967	0.866
14.8306	0.864
14.8644	0.864
14.8983	0.862
14.9322	0.859
14.9661	0.856
14.9999	0.856
15.0338	0.861
15.0677	0.862
15.1015	0.862
15.1354	0.864
15.1693	0.864
15.2032	0.866
15.237	0.864
15.2709	0.861
15.3048	0.852
15.3386	0.854
15.3725	0.854
15.4064	0.859
15.4403	0.861
15.4741	0.864
15.508	0.862
