Infrared Spectrum: Benzoic acid, 4-amino-2-chloro-
Formula: C7 H6 Cl N O2
CAS: 2457-76-3
State: SOLID (SPLIT MULL), FLUOROLUBE FOR 3800-1330 CM^-^1, NUJOL FOR 1330-400 CM^-^1
Melting point: 213 C
Class: COBLENTZ III
Instrument: BECKMAN IR-9 (GRATING)
Instrument parameters: ORDER CHANGES: 670, 1200, 2000 CM^-^1
Sampling: TRANSMISSION
Resolution: 2
Origin: DOW CHEMICAL COMPANY
1/CM	TRANSMITTANCE
404	0.4871
413	0.4774
422	0.4782
431	0.5948
440	0.5804
449	0.6349
458	0.7111
467	0.7515
476	0.7528
485	0.7441
494	0.7333
503	0.7351
512	0.7441
521	0.7501
530	0.7468
539	0.7342
548	0.7106
557	0.6701
566	0.4655
575	0.3582
584	0.5219
593	0.5789
602	0.5704
611	0.3712
620	0.6154
629	0.6471
638	0.5888
647	0.5531
656	0.544
665	0.554
674	0.6034
683	0.6815
692	0.695
701	0.6818
710	0.7188
719	0.7178
728	0.7171
737	0.768
746	0.803
755	0.8285
764	0.825
773	0.333
782	0.7836
791	0.6131
800	0.7496
809	0.7948
818	0.7965
827	0.7575
836	0.4835
845	0.4515
854	0.6767
863	0.6303
872	0.6419
881	0.7288
890	0.66
899	0.5841
908	0.5481
917	0.519
926	0.6997
935	0.7506
944	0.7808
953	0.8046
962	0.7871
971	0.8028
980	0.8295
989	0.8402
998	0.8443
1007	0.8431
1016	0.8306
1025	0.8011
1034	0.5968
1043	0.5631
1052	0.8513
1061	0.8678
1070	0.8645
1079	0.8514
1088	0.8447
1097	0.8403
1106	0.8347
1115	0.8267
1124	0.8131
1133	0.7758
1142	0.6285
1151	0.7484
1160	0.7632
1169	0.6168
1178	0.7904
1187	0.7956
1196	0.7865
1205	0.7661
1214	0.7365
1223	0.696
1232	0.6298
1241	0.3279
1250	0.4026
1259	0.6711
1268	0.4845
1277	0.1916
1286	0.0733
1295	0.1701
1304	0.3838
1313	0.3949
1322	0.2679
1331	0.2479
1340	0.4452
1349	0.5536
1358	0.6449
1367	0.6594
1376	0.6594
1385	0.645
1394	0.5374
1403	0.3662
1412	0.3364
1421	0.4814
1430	0.5233
1439	0.6156
1448	0.6975
1457	0.7231
1466	0.7265
1475	0.7258
1484	0.7175
1493	0.679
1502	0.4785
1511	0.6707
1520	0.6784
1529	0.6491
1538	0.6115
1547	0.5806
1556	0.486
1565	0.4338
1574	0.4333
1583	0.3021
1592	0.1865
1601	0.1377
1610	0.1411
1619	0.1753
1628	0.1274
1637	0.1221
1646	0.2961
1655	0.1713
1664	0.0467
1673	0.0229
1682	0.0246
1691	0.1594
1700	0.356
1709	0.5324
1718	0.6768
1727	0.7484
1736	0.8091
1745	0.8314
1754	0.8368
1763	0.8437
1772	0.8541
1781	0.8517
1790	0.8487
1799	0.8455
1808	0.8434
1817	0.842
1826	0.836
1835	0.8321
1844	0.8305
1853	0.8283
1862	0.8261
1871	0.8233
1880	0.8204
1889	0.8175
1898	0.8145
1907	0.8121
1916	0.8101
1925	0.8026
1934	0.8011
1943	0.8093
1952	0.8091
1961	0.8069
1970	0.8042
1979	0.8011
1988	0.7975
1997	0.7911
2006	0.7821
2015	0.7718
2024	0.7671
2033	0.7615
2042	0.7556
2051	0.7511
2060	0.7528
2069	0.7561
2078	0.7591
2087	0.7597
2096	0.7569
2105	0.7533
2114	0.7496
2123	0.7461
2132	0.7422
2141	0.7381
2150	0.7332
2159	0.7283
2168	0.7234
2177	0.7183
2186	0.7133
2195	0.7083
2204	0.7037
2213	0.699
2222	0.6946
2231	0.6903
2240	0.6858
2249	0.6801
2258	0.6744
2267	0.6688
2276	0.6643
2285	0.6598
2294	0.6553
2303	0.6508
2312	0.6461
2321	0.6414
2330	0.6367
2339	0.6319
2348	0.6272
2357	0.6218
2366	0.6157
2375	0.611
2384	0.6086
2393	0.6066
2402	0.5987
2411	0.5909
2420	0.5834
2429	0.5775
2438	0.5717
2447	0.5658
2456	0.5593
2465	0.5524
2474	0.5435
2483	0.5306
2492	0.5178
2501	0.4991
2510	0.4909
2519	0.4892
2528	0.4842
2537	0.465
2546	0.4689
2555	0.4793
2564	0.4784
2573	0.4758
2582	0.4731
2591	0.4701
2600	0.4679
2609	0.4667
2618	0.4621
2627	0.4518
2636	0.4399
2645	0.433
2654	0.4282
2663	0.427
2672	0.4371
2681	0.4554
2690	0.4546
2699	0.4501
2708	0.4493
2717	0.4581
2726	0.4644
2735	0.4641
2744	0.4581
2753	0.452
2762	0.4462
2771	0.4392
2780	0.4321
2789	0.4174
2798	0.4059
2807	0.3974
2816	0.3905
2825	0.388
2834	0.3876
2843	0.3899
2852	0.3918
2861	0.388
2870	0.383
2879	0.3775
2888	0.3732
2897	0.3712
2906	0.3699
2915	0.3693
2924	0.3674
2933	0.3618
2942	0.3562
2951	0.3537
2960	0.351
2969	0.3487
2978	0.3468
2987	0.3453
2996	0.3459
3005	0.3488
3014	0.3518
3023	0.3568
3032	0.3609
3041	0.3636
3050	0.3632
3059	0.3609
3068	0.358
3077	0.361
3086	0.3691
3095	0.3791
3104	0.3909
3113	0.4032
3122	0.4139
3131	0.4252
3140	0.4368
3149	0.4423
3158	0.4475
3167	0.4524
3176	0.456
3185	0.4591
3194	0.4606
3203	0.4557
3212	0.4388
3221	0.4383
3230	0.4495
3239	0.4714
3248	0.4897
3257	0.4971
3266	0.5025
3275	0.5025
3284	0.4994
3293	0.495
3302	0.4842
3311	0.4591
3320	0.4223
3329	0.3348
3338	0.2946
3347	0.2725
3356	0.3775
3365	0.4838
3374	0.5106
3383	0.5156
3392	0.5152
3401	0.5055
3410	0.4779
3419	0.4214
3428	0.2304
3437	0.2614
3446	0.2366
3455	0.5625
3464	0.6176
3473	0.6181
3482	0.6149
3491	0.612
3500	0.6091
3509	0.6062
3518	0.6032
3527	0.6001
3536	0.597
3545	0.5941
3554	0.5912
3563	0.5885
3572	0.5857
3581	0.5831
3590	0.5806
3599	0.5782
3608	0.5757
3617	0.5732
3626	0.5707
3635	0.5681
3644	0.5656
3653	0.563
3662	0.5606
3671	0.5581
3680	0.5557
3689	0.5533
3698	0.5509
3707	0.5484
3716	0.5464
3725	0.5443
3734	0.5423
3743	0.5402
3752	0.5376
3761	0.5344
3770	0.5314
3779	0.5284
3788	0.5264
3797	0.5242
3806	0.5222
