Infrared Spectrum: 3-Amino-4-methylbenzoic acid
Formula: C 8 H 9 N O 2
CAS: 2458-12-0
State: gas
Instrument: HP-GC/MS/IRD
Origin: NIST Mass Spectrometry Data Center
1/CM	ABSORBANCE
550	0.0009152
562	0.001639
574	0.0023166
586	0.002486
598	0.0024156
610	0.0032648
622	0.0025674
634	0.0013442
646	0.0011132
658	0.0010692
670	0.001078
682	0.0011528
694	0.0014036
706	0.002431
718	0.0030338
730	0.0013596
742	0.0017314
754	0.0037928
766	0.0036916
778	0.001661
790	0.000594
802	0.0003696
814	0.0003982
826	0.0003564
838	0.000264
850	0.0001936
862	0.0003168
874	0.0006226
886	0.000781
898	0.000561
910	0.0005302
922	0.0007876
934	0.0004928
946	0.0001298
958	1.98e-05
970	0.0001628
982	0.000528
994	0.0012474
1006	0.000748
1018	0.0003432
1030	0.00044
1042	0.0007348
1054	0.0018656
1066	0.003003
1078	0.0042284
1090	0.0046728
1102	0.003696
1114	0.0022572
1126	0.002255
1138	0.005258
1150	0.0079464
1162	0.008591
1174	0.00726
1186	0.0038544
1198	0.0023892
1210	0.0017842
1222	0.0008448
1234	0.000649
1246	0.0010494
1258	0.001837
1270	0.0023452
1282	0.002772
1294	0.0023958
1306	0.0023452
1318	0.0030712
1330	0.0040612
1342	0.0038126
1354	0.003113
1366	0.0027434
1378	0.0018348
1390	0.0009724
1402	0.0011858
1414	0.0025894
1426	0.0039512
1438	0.0026004
1450	0.0014454
1462	0.0012738
1474	0.000792
1486	0.0005852
1498	0.0009306
1510	0.001243
1522	0.000781
1534	0.0004114
1546	0.0004378
1558	0.0008008
1570	0.0017336
1582	0.002277
1594	0.0017402
1606	0.0020702
1618	0.0036476
1630	0.0042614
1642	0.0025102
1654	0.0010186
1666	0.0004576
1678	0.000429
1690	0.0006358
1702	0.0011
1714	0.0012342
1726	0.0014498
1738	0.0046706
1750	0.0172722
1762	0.020746
1774	0.005984
1786	0.0016126
1798	0.0009416
1810	0.0009526
1822	0.0005412
1834	0.000176
1846	9.02e-05
1858	0.000121
1870	0.0001474
1882	0.0001826
1894	0.0001628
1906	9.24e-05
1918	5.94e-05
1930	8.14e-05
1942	5.5e-05
1954	1.1e-05
1966	6.6e-06
1978	1.32e-05
1990	0
2002	2.2e-06
2014	1.98e-05
2026	1.54e-05
2038	1.54e-05
2050	2.64e-05
2062	4.18e-05
2074	4.18e-05
2086	5.5e-05
2098	6.38e-05
2110	3.52e-05
2122	4.84e-05
2134	3.52e-05
2146	3.3e-05
2158	5.06e-05
2170	3.52e-05
2182	4.18e-05
2194	2.2e-05
2206	2.2e-05
2218	3.74e-05
2230	1.98e-05
2242	2.2e-05
2254	1.1e-05
2266	4.18e-05
2278	1.32e-05
2290	8.8e-06
2302	3.3e-05
2314	4.84e-05
2326	4.84e-05
2338	5.06e-05
2350	3.08e-05
2362	4.84e-05
2374	4.62e-05
2386	1.76e-05
2398	2.64e-05
2410	2.86e-05
2422	4.4e-05
2434	4.18e-05
2446	5.06e-05
2458	4.18e-05
2470	3.3e-05
2482	5.06e-05
2494	2.64e-05
2506	5.72e-05
2518	4.62e-05
2530	7.04e-05
2542	2.2e-05
2554	5.72e-05
2566	4.62e-05
2578	3.96e-05
2590	3.08e-05
2602	7.04e-05
2614	0.0001034
2626	9.9e-05
2638	8.36e-05
2650	4.18e-05
2662	3.52e-05
2674	4.4e-05
2686	2.2e-05
2698	3.96e-05
2710	3.96e-05
2722	5.5e-05
2734	7.48e-05
2746	9.46e-05
2758	6.82e-05
2770	6.82e-05
2782	5.5e-05
2794	6.38e-05
2806	7.26e-05
2818	9.9e-05
2830	0.00011
2842	0.0001826
2854	0.0002948
2866	0.0006226
2878	0.0007722
2890	0.0006644
2902	0.0006732
2914	0.0008228
2926	0.0010802
2938	0.001078
2950	0.0007788
2962	0.000517
2974	0.0005874
2986	0.0006776
2998	0.0005676
3010	0.0004378
3022	0.000572
3034	0.0008008
3046	0.0008822
3058	0.0005302
3070	0.0003256
3082	0.0003542
3094	0.0002992
3106	0.0002178
3118	0.0001562
3130	0.0001122
3142	9.46e-05
3154	5.94e-05
3166	3.3e-05
3178	8.36e-05
3190	5.06e-05
3202	9.02e-05
3214	0.0001078
3226	0.000132
3238	8.36e-05
3250	0.0001034
3262	6.16e-05
3274	2.86e-05
3286	5.72e-05
3298	5.94e-05
3310	5.06e-05
3322	5.5e-05
3334	3.3e-05
3346	6.16e-05
3358	6.16e-05
3370	0.0001166
3382	0.000154
3394	0.0003168
3406	0.0005874
3418	0.0006798
3430	0.0003256
3442	0.000176
3454	0.0001452
3466	0.0002398
3478	0.0004136
3490	0.0008624
3502	0.0008558
3514	0.0004708
3526	0.0002948
3538	0.0002112
3550	0.0002134
3562	0.0005214
3574	0.0034958
3586	0.0066022
3598	0.0017006
3610	0.0002926
3622	0.0001782
3634	0.0001474
3646	0.0001298
3658	8.36e-05
3670	0.0001144
3682	0.0001474
3694	0.0001408
3706	5.28e-05
3718	6.6e-05
3730	8.58e-05
3742	9.68e-05
3754	9.46e-05
3766	9.46e-05
3778	0.0001012
3790	0.0001012
3802	0.0001056
3814	6.16e-05
3826	7.26e-05
3838	8.36e-05
