Infrared Spectrum: 4-HYDROXY-3-CYANO-7-CHLORO-QUINOLINE
Formula: C10 H5 N2 Cl O
CAS: 2458-23-3
State: SOLID (1.0% IN KBr PELLET)
Class: COBLENTZ
Instrument: Not specified, most likely a prism, grating, or hybrid spectrometer.
Sampling: TRANSMISSION
Path length: 0.0355 CM THICK
Resolution: 4
Origin: ANDERSON PHYSICAL LABORATORY
1/CM	TRANSMITTANCE
671.241	0.886
679.663	0.881
688.084	0.7402
696.506	0.377
704.928	0.8829
713.349	0.649
721.771	0.917
730.193	0.932
738.615	0.911
747.036	0.895
755.458	0.868
763.88	0.818
772.301	0.7101
780.723	0.4012
789.145	0.5765
797.566	0.661
805.988	0.68
814.41	0.641
822.832	0.763
831.253	0.832
839.675	0.637
848.097	0.6999
856.518	0.847
864.94	0.883
873.362	0.8481
881.783	0.665
890.205	0.65
898.627	0.709
907.049	0.809
915.47	0.731
923.892	0.842
932.314	0.9489
940.735	0.962
949.157	0.928
957.579	0.902
966	0.907
974.422	0.892
982.844	0.892
991.266	0.898
999.687	0.922
1008.11	0.923
1016.53	0.926
1024.95	0.926
1033.37	0.925
1041.8	0.922
1050.22	0.914
1058.64	0.905
1067.06	0.88
1075.48	0.83
1083.9	0.707
1092.33	0.569
1100.75	0.6549
1109.17	0.826
1117.59	0.844
1126.01	0.85
1134.43	0.854
1142.86	0.86
1151.28	0.854
1159.7	0.853
1168.12	0.85
1176.54	0.814
1184.96	0.7071
1193.39	0.758
1201.81	0.751
1210.23	0.5142
1218.65	0.4777
1227.07	0.748
1235.49	0.697
1243.92	0.677
1252.34	0.664
1260.76	0.476
1269.18	0.4869
1277.6	0.6349
1286.03	0.727
1294.45	0.725
1302.87	0.704
1311.29	0.601
1319.71	0.668
1328.13	0.682
1336.56	0.535
1344.98	0.389
1353.4	0.401
1361.82	0.1701
1370.24	0.3378
1378.66	0.6909
1387.09	0.77
1395.51	0.77
1403.93	0.727
1412.35	0.568
1420.77	0.409
1429.19	0.611
1437.62	0.674
1446.04	0.709
1454.46	0.686
1462.88	0.5751
1471.3	0.3314
1479.72	0.4339
1488.15	0.52
1496.57	0.542
1504.99	0.527
1513.41	0.47
1521.83	0.4211
1530.25	0.2841
1538.68	0.1641
1547.1	0.2209
1555.52	0.242
1563.94	0.197
1572.36	0.133
1580.78	0.073
1589.21	0.071
1597.63	0.052
1606.05	0.053
1614.47	0.142
1622.89	0.106
1631.31	0.067
1639.74	0.067
1648.16	0.3379
1656.58	0.479
1665	0.655
1673.42	0.737
1681.84	0.782
1690.27	0.812
1698.69	0.853
1707.11	0.863
1715.53	0.902
1723.95	0.911
1732.38	0.941
1740.8	0.946
1749.22	0.947
1757.64	0.956
1766.06	0.973
1774.48	0.938
1782.91	0.935
1791.33	0.92
1799.75	0.916
1808.17	0.916
1816.59	0.916
1825.01	0.911
1833.44	0.914
1841.86	0.919
1850.28	0.916
1858.7	0.914
1867.12	0.907
1875.54	0.907
1883.97	0.905
1892.39	0.904
1900.81	0.902
1909.23	0.898
1917.65	0.893
1926.07	0.875
1934.5	0.859
1942.92	0.853
1951.34	0.86
1959.76	0.872
1968.18	0.875
1976.6	0.875
1985.03	0.877
1993.45	0.88
2001.87	0.8775
2010.29	0.8713
2018.71	0.869
2027.13	0.8755
2035.56	0.877
2043.98	0.875
2052.4	0.872
2060.82	0.8688
2069.24	0.866
2077.66	0.865
2086.09	0.863
2094.51	0.8616
2102.93	0.8595
2111.35	0.8575
2119.77	0.856
2128.2	0.8526
2136.62	0.8491
2145.04	0.847
2153.46	0.8411
2161.88	0.8343
2170.3	0.8276
2178.73	0.8216
2187.15	0.8171
2195.57	0.8097
2203.99	0.7973
2212.41	0.7777
2220.83	0.706
2229.26	0.6029
2237.68	0.4952
2246.1	0.4667
2254.52	0.5602
2262.94	0.6663
2271.36	0.7748
2279.79	0.8014
2288.21	0.8079
2296.63	0.8076
2305.05	0.805
2313.47	0.7999
2321.89	0.7971
2330.32	0.7956
2338.74	0.7936
2347.16	0.7916
2355.58	0.7852
2364	0.7845
2372.42	0.7816
2380.85	0.781
2389.27	0.7791
2397.69	0.7788
2406.11	0.776
2414.53	0.7736
2422.95	0.7692
2431.38	0.7627
2439.8	0.758
2448.22	0.7543
2456.64	0.752
2465.06	0.7488
2473.48	0.7442
2481.91	0.7393
2490.33	0.7372
2498.75	0.7338
2507.17	0.731
2515.59	0.7274
2524.01	0.7223
2532.44	0.7158
2540.86	0.7142
2549.28	0.712
2557.7	0.71
2566.12	0.709
2574.55	0.706
2582.97	0.7011
2591.39	0.6953
2599.81	0.6856
2608.23	0.6723
2616.65	0.662
2625.08	0.6564
2633.5	0.6559
2641.92	0.652
2650.34	0.6481
2658.76	0.6344
2667.18	0.6286
2675.61	0.6215
2684.03	0.6164
2692.45	0.6142
2700.87	0.6124
2709.29	0.604
2717.71	0.5949
2726.14	0.5805
2734.56	0.5745
2742.98	0.5679
2751.4	0.5631
2759.82	0.5509
2768.24	0.5253
2776.67	0.5054
2785.09	0.4892
2793.51	0.4789
2801.93	0.4653
2810.35	0.4458
2818.77	0.4342
2827.2	0.4188
2835.62	0.4037
2844.04	0.3929
2852.46	0.3797
2860.88	0.3646
2869.3	0.3425
2877.73	0.3239
2886.15	0.3065
2894.57	0.2965
2902.99	0.29
2911.41	0.2837
2919.83	0.2735
2928.26	0.2608
2936.68	0.2558
2945.1	0.254
2953.52	0.2534
2961.94	0.2513
2970.36	0.2406
2978.79	0.235
2987.21	0.2473
2995.63	0.2764
3004.05	0.2799
3012.47	0.272
3020.9	0.2639
3029.32	0.263
3037.74	0.2629
3046.16	0.2597
3054.58	0.2487
3063	0.2333
3071.43	0.2197
3079.85	0.2042
3088.27	0.1898
3096.69	0.1824
3105.11	0.1822
3113.53	0.2059
3121.96	0.2622
3130.38	0.2881
3138.8	0.3089
3147.22	0.328
3155.64	0.3269
3164.06	0.3144
3172.49	0.3142
3180.91	0.3275
3189.33	0.341
3197.75	0.3522
3206.17	0.355
3214.59	0.355
3223.02	0.353
3231.44	0.3553
3239.86	0.3656
3248.28	0.3903
3256.7	0.413
3265.12	0.4576
3273.55	0.4996
3281.97	0.5301
3290.39	0.5553
3298.81	0.5798
3307.23	0.593
3315.65	0.5991
3324.08	0.6087
3332.5	0.6239
3340.92	0.634
3349.34	0.638
3357.76	0.638
3366.18	0.6347
3374.61	0.631
3383.03	0.631
3391.45	0.629
3399.87	0.6257
3408.29	0.617
3416.72	0.6155
3425.14	0.6115
3433.56	0.6072
3441.98	0.602
3450.4	0.5935
3458.82	0.5855
3467.25	0.583
3475.67	0.583
3484.09	0.5825
3492.51	0.5791
3500.93	0.574
3509.35	0.581
3517.78	0.581
3526.2	0.5878
3534.62	0.595
3543.04	0.596
3551.46	0.596
3559.88	0.596
3568.31	0.5987
3576.73	0.601
3585.15	0.602
3593.57	0.6029
3601.99	0.6047
3610.41	0.607
3618.84	0.6102
3627.26	0.6134
3635.68	0.6184
3644.1	0.6219
3652.52	0.626
3660.94	0.628
3669.37	0.6304
3677.79	0.632
3686.21	0.634
3694.63	0.634
3703.05	0.635
3711.47	0.635
3719.9	0.635
3728.32	0.6345
3736.74	0.634
3745.16	0.6311
3753.58	0.631
3762	0.631
3770.43	0.629
3778.85	0.629
3787.27	0.629
3795.69	0.629
3804.11	0.629
3812.53	0.6281
3820.96	0.6276
3829.38	0.626
3837.8	0.625
3846.22	0.623
3854.64	0.622
3863.07	0.62
3871.49	0.6193
3879.91	0.619
3888.33	0.6168
3896.75	0.6152
3905.17	0.613
3913.6	0.6101
3922.02	0.607
3930.44	0.6046
3938.86	0.6027
3947.28	0.6011
3955.7	0.6007
3964.13	0.598
