Infrared Spectrum: Monoethyl fumarate
Formula: C 6 H 8 O 4
CAS: 2459-05-4
State: gas
Origin: EPA-IR VAPOR PHASE LIBRARY
1/CM	ABSORBANCE
549.8	0.037567
559.445	0.036187
569.09	0.033407
578.734	0.028687
588.379	0.027667
598.024	0.041397
607.669	0.060577
617.313	0.055427
626.958	0.022877
636.603	0.010597
646.248	0.009057
655.893	0.008957
665.537	0.007587
675.182	0.005727
684.827	0.004217
694.472	0.003417
704.116	0.002947
713.761	0.002637
723.406	0.002747
733.051	0.003307
742.695	0.004577
752.34	0.007417
761.985	0.012997
771.63	0.018537
781.275	0.017767
790.919	0.012307
800.564	0.007637
810.209	0.005697
819.854	0.005017
829.498	0.005117
839.143	0.006047
848.788	0.008327
858.433	0.010247
868.078	0.007977
877.722	0.005817
887.367	0.006667
897.012	0.008537
906.657	0.009107
916.301	0.008637
925.946	0.009327
935.591	0.010647
945.236	0.013337
954.88	0.018347
964.525	0.028497
974.17	0.038427
983.815	0.037097
993.46	0.025977
1003.1	0.019487
1012.75	0.024167
1022.39	0.041167
1032.04	0.061707
1041.68	0.063667
1051.33	0.043727
1060.97	0.025557
1070.62	0.021277
1080.26	0.025367
1089.91	0.039867
1099.55	0.063827
1109.2	0.108417
1118.84	0.189907
1128.49	0.180657
1138.13	0.111217
1147.78	0.110877
1157.42	0.117957
1167.07	0.130997
1176.71	0.149557
1186.36	0.121217
1196	0.077347
1205.64	0.055517
1215.29	0.048647
1224.93	0.054407
1234.58	0.071677
1244.22	0.112507
1253.87	0.184007
1263.51	0.213627
1273.16	0.141937
1282.8	0.087727
1292.45	0.111517
1302.09	0.155067
1311.74	0.116107
1321.38	0.064027
1331.03	0.046897
1340.67	0.041987
1350.32	0.045727
1359.96	0.059477
1369.61	0.070657
1379.25	0.048807
1388.9	0.025347
1398.54	0.017837
1408.18	0.012777
1417.83	0.010097
1427.47	0.009517
1437.12	0.009927
1446.76	0.010407
1456.41	0.010927
1466.05	0.012427
1475.7	0.012107
1485.34	0.008077
1494.99	0.005357
1504.63	0.004047
1514.28	0.003577
1523.92	0.003417
1533.57	0.003577
1543.21	0.003897
1552.86	0.003927
1562.5	0.003767
1572.15	0.003437
1581.79	0.003227
1591.44	0.003127
1601.08	0.003287
1610.73	0.003987
1620.37	0.005557
1630.01	0.009437
1639.66	0.016147
1649.3	0.018447
1658.95	0.012787
1668.59	0.009867
1678.24	0.009347
1687.88	0.010827
1697.53	0.014887
1707.17	0.022547
1716.82	0.040867
1726.46	0.090417
1736.11	0.193307
1745.75	0.266077
1755.4	0.272157
1765.04	0.233787
1774.69	0.152927
1784.33	0.071217
1793.98	0.044277
1803.62	0.030737
1813.27	0.018757
1822.91	0.011277
1832.55	0.008067
1842.2	0.006647
1851.84	0.005877
1861.49	0.005257
1871.13	0.004567
1880.78	0.003957
1890.42	0.003377
1900.07	0.002767
1909.71	0.002147
1919.36	0.001767
1929	0.001527
1938.65	0.001467
1948.29	0.001387
1957.94	0.001467
1967.58	0.001437
1977.23	0.001307
1986.87	0.001287
1996.52	0.001357
2006.16	0.001437
2015.81	0.001737
2025.45	0.002037
2035.1	0.002357
2044.74	0.002447
2054.38	0.002127
2064.03	0.001627
2073.67	0.001417
2083.32	0.001407
2092.96	0.001557
2102.61	0.001557
2112.25	0.001517
2121.9	0.001337
2131.54	0.001217
2141.19	0.0010291
2150.83	0.0009666
2160.48	0.0009737
2170.12	0.000954
2179.77	0.0009381
2189.41	0.000937
2199.06	0.0010345
2208.7	0.0011633
2218.35	0.001337
2227.99	0.001397
2237.64	0.001277
2247.28	0.001217
2256.92	0.0010952
2266.57	0.0010713
2276.21	0.0010501
2285.86	0.0008686
2295.5	0.0008646
2305.15	0.0009091
2314.79	0.0008916
2324.44	0.0009763
2334.08	0.0009957
2343.73	0.0010293
2353.37	0.0010718
2363.02	0.001021
2372.66	0.000814
2382.31	0.0006545
2391.95	0.0006214
2401.6	0.0005765
2411.24	0.0006947
2420.89	0.0007973
2430.53	0.000792
2440.18	0.0009193
2449.82	0.0010315
2459.47	0.0010773
2469.11	0.001227
2478.75	0.0011584
2488.4	0.0010541
2498.04	0.0009601
2507.69	0.0008542
2517.33	0.0008076
2526.98	0.0005982
2536.62	0.0004885
2546.27	0.0004953
2555.91	0.0004491
2565.56	0.0004835
2575.2	0.0004675
2584.85	0.0004559
2594.49	0.0003897
2604.14	0.000325
2613.78	0.00026775
2623.43	0.0001619
2633.07	0.0001931
2642.72	0.0001848
2652.36	0.00026674
2662.01	0.00020441
2671.65	0.00028099
2681.29	0.0003328
2690.94	0.0003781
2700.58	0.0004994
2710.23	0.0003811
2719.87	0.0004153
2729.52	0.0004979
2739.16	0.0005278
2748.81	0.0005443
2758.45	0.0005418
2768.1	0.0007652
2777.74	0.0009468
2787.39	0.0009451
2797.03	0.0008321
2806.68	0.000968
2816.32	0.0011327
2825.97	0.001347
2835.61	0.001527
2845.26	0.001617
2854.9	0.001957
2864.55	0.002587
2874.19	0.003877
2883.84	0.005977
2893.48	0.006977
2903.12	0.007507
2912.77	0.008877
2922.41	0.009007
2932.06	0.010407
2941.7	0.015737
2951.35	0.016897
2960.99	0.014637
2970.64	0.018717
2980.28	0.029997
2989.93	0.036027
2999.57	0.025677
3009.22	0.016967
3018.86	0.010757
3028.51	0.006477
3038.15	0.004087
3047.8	0.002897
3057.44	0.002237
3067.09	0.002087
3076.73	0.002167
3086.38	0.001847
3096.02	0.001247
3105.67	0.0010621
3115.31	0.0009133
3124.95	0.0007763
3134.6	0.0007482
3144.24	0.0007267
3153.89	0.0005438
3163.53	0.0007693
3173.18	0.0006443
3182.82	0.0006245
3192.47	0.0005714
3202.11	0.0004156
3211.76	0.0003514
3221.4	0.0002199
3231.05	0.00028434
3240.69	0.0001323
3250.34	0.0001901
3259.98	7e-06
3269.63	0.0001502
3279.27	0.0001683
3288.92	8.3e-05
3298.56	0
3308.21	0.0001453
3317.85	0.0001081
3327.49	0.00020434
3337.14	0.0001511
3346.78	0.00029829
3356.43	0.000102
3366.07	0.00029668
3375.72	0.0004701
3385.36	0.0003757
3395.01	0.000412
3404.65	0.0005439
3414.3	0.0006675
3423.94	0.0006852
3433.59	0.0006364
3443.23	0.000858
3452.88	0.001557
3462.52	0.002117
3472.17	0.003057
3481.81	0.002897
3491.46	0.002637
3501.1	0.002767
3510.75	0.002837
3520.39	0.002417
3530.04	0.001977
3539.68	0.001847
3549.32	0.002477
3558.97	0.005407
3568.61	0.028437
3578.26	0.097597
3587.9	0.073267
3597.55	0.011867
3607.19	0.003407
3616.84	0.001927
3626.48	0.001367
3636.13	0.001022
3645.77	0.0007875
3655.42	0.0006784
3665.06	0.0005439
3674.71	0.0005169
3684.35	0.000577
3694	0.0006456
3703.64	0.0005349
3713.29	0.0004996
3722.93	0.0004684
3732.58	0.00020499
3742.22	0.00028378
3751.86	0.0003451
3761.51	0.00021385
3771.15	0.0003457
3780.8	0.00024817
3790.44	0.000210868
3800.09	0.00020328
3809.73	0.0001533
3819.38	0.0001521
3829.02	0.000335
3838.67	0.00025407
3848.31	0.0001475
3857.96	0.0001534
3867.6	0.0001723
3877.25	5.3e-05
3886.89	0.000101
3896.54	0.0003229
3906.18	0.000171
3915.83	6.6e-05
3925.47	0.0001176
3935.12	0.00026815
3944.76	0.000191
3954.41	0.0003802
3964.05	0.0001208
3973.69	0.00024682
3983.34	0.0003072
3992.98	0.00027431
