Infrared Spectrum: Methyl picolinate
Formula: C 7 H 7 N O 2
CAS: 2459-07-6
State: gas
Origin: EPA-IR VAPOR PHASE LIBRARY
1/CM	ABSORBANCE
549.8	0.0006971
559.445	0.0007076
569.09	0.0006794
578.734	0.0007506
588.379	0.0008838
598.024	0.0007986
607.669	0.002444
617.313	0.003194
626.958	0.002584
636.603	0.0011573
646.248	0.0009145
655.893	0.0009778
665.537	0.0009984
675.182	0.0012675
684.827	0.003184
694.472	0.011084
704.116	0.016964
713.761	0.010754
723.406	0.009514
733.051	0.011564
742.695	0.020224
752.34	0.011394
761.985	0.005774
771.63	0.002924
781.275	0.002074
790.919	0.001964
800.564	0.002174
810.209	0.003164
819.854	0.004464
829.498	0.004694
839.143	0.003664
848.788	0.001724
858.433	0.0014627
868.078	0.0009252
877.722	0.0007578
887.367	0.0010798
897.012	0.0008866
906.657	0.0011394
916.301	0.0012453
925.946	0.0010744
935.591	0.001145
945.236	0.0012049
954.88	0.002114
964.525	0.003684
974.17	0.004394
983.815	0.003974
993.46	0.002914
1003.1	0.002414
1012.75	0.0013524
1022.39	0.002224
1032.04	0.004394
1041.68	0.007354
1051.33	0.006624
1060.97	0.003064
1070.62	0.004614
1080.26	0.007924
1089.91	0.010324
1099.55	0.012854
1109.2	0.022084
1118.84	0.044854
1128.49	0.065764
1138.13	0.057484
1147.78	0.030294
1157.42	0.015694
1167.07	0.010234
1176.71	0.009574
1186.36	0.011834
1196	0.013674
1205.64	0.011134
1215.29	0.009004
1224.93	0.012484
1234.58	0.021984
1244.22	0.023754
1253.87	0.015954
1263.51	0.017464
1273.16	0.025414
1282.8	0.033404
1292.45	0.049174
1302.09	0.076914
1311.74	0.077664
1321.38	0.043174
1331.03	0.017564
1340.67	0.009974
1350.32	0.005824
1359.96	0.003954
1369.61	0.003094
1379.25	0.002954
1388.9	0.002934
1398.54	0.003004
1408.18	0.003764
1417.83	0.006234
1427.47	0.012324
1437.12	0.019024
1446.76	0.015904
1456.41	0.008324
1466.05	0.005954
1475.7	0.004984
1485.34	0.003294
1494.99	0.002334
1504.63	0.002084
1514.28	0.002134
1523.92	0.002364
1533.57	0.002624
1543.21	0.002814
1552.86	0.003964
1562.5	0.006054
1572.15	0.008524
1581.79	0.009404
1591.44	0.006334
1601.08	0.003894
1610.73	0.003014
1620.37	0.002844
1630.01	0.003064
1639.66	0.002874
1649.3	0.002814
1658.95	0.002874
1668.59	0.003454
1678.24	0.004564
1687.88	0.006254
1697.53	0.007684
1707.17	0.008414
1716.82	0.011464
1726.46	0.025734
1736.11	0.048974
1745.75	0.053664
1755.4	0.034034
1765.04	0.026324
1774.69	0.023494
1784.33	0.018934
1793.98	0.008564
1803.62	0.004184
1813.27	0.002544
1822.91	0.001874
1832.55	0.0013949
1842.2	0.0013906
1851.84	0.0013921
1861.49	0.0013373
1871.13	0.0012591
1880.78	0.0014351
1890.42	0.0013737
1900.07	0.0010466
1909.71	0.0010804
1919.36	0.0013672
1929	0.001554
1938.65	0.001844
1948.29	0.002064
1957.94	0.001864
1967.58	0.0014788
1977.23	0.0013411
1986.87	0.0010958
1996.52	0.0008632
2006.16	0.0007592
2015.81	0.0007974
2025.45	0.0007975
2035.1	0.0006954
2044.74	0.0007979
2054.38	0.0007604
2064.03	0.0008179
2073.67	0.0008388
2083.32	0.0009442
2092.96	0.0010344
2102.61	0.0011177
2112.25	0.0011525
2121.9	0.0009732
2131.54	0.0009127
2141.19	0.0008988
2150.83	0.0007194
2160.48	0.0006499
2170.12	0.0006903
2179.77	0.0006805
2189.41	0.000543779
2199.06	0.00063922
2208.7	0.00061666
2218.35	0.00059553
2227.99	0.00058354
2237.64	0.00056374
2247.28	0.00062164
2256.92	0.00064325
2266.57	0.0006602
2276.21	0.0007549
2285.86	0.0007901
2295.5	0.0009037
2305.15	0.0006721
2314.79	0.00053855
2324.44	0.00061085
2334.08	0.00061444
2343.73	0.0005847
2353.37	0.0005607
2363.02	0.0004986
2372.66	0.0005231
2382.31	0.0004658
2391.95	0.00053841
2401.6	0.00056921
2411.24	0.00055983
2420.89	0.00055606
2430.53	0.00061363
2440.18	0.0006622
2449.82	0.0006678
2459.47	0.00061385
2469.11	0.0005179
2478.75	0.0005267
2488.4	0.000550839
2498.04	0.00056682
2507.69	0.00058479
2517.33	0.0005066
2526.98	0.0005281
2536.62	0.00058311
2546.27	0.00061894
2555.91	0.00053498
2565.56	0.00063979
2575.2	0.00056979
2584.85	0.0006974
2594.49	0.0006755
2604.14	0.0007025
2613.78	0.0006939
2623.43	0.0005318
2633.07	0.0004836
2642.72	0.00054251
2652.36	0.000547474
2662.01	0.0004828
2671.65	0.0004
2681.29	0.0005098
2690.94	0.0004463
2700.58	0.0005099
2710.23	0.0006578
2719.87	0.00057289
2729.52	0.0005035
2739.16	0.0004663
2748.81	0.0004693
2758.45	0.00055852
2768.1	0.0004752
2777.74	0.0005048
2787.39	0.0005061
2797.03	0.00055498
2806.68	0.0006476
2816.32	0.0004881
2825.97	0.0008918
2835.61	0.0014885
2845.26	0.002474
2854.9	0.003014
2864.55	0.002014
2874.19	0.001774
2883.84	0.001844
2893.48	0.002224
2903.12	0.002794
2912.77	0.002974
2922.41	0.003034
2932.06	0.003054
2941.7	0.004184
2951.35	0.010274
2960.99	0.014814
2970.64	0.010384
2980.28	0.004284
2989.93	0.004284
2999.57	0.005154
3009.22	0.005524
3018.86	0.005944
3028.51	0.005594
3038.15	0.005134
3047.8	0.005784
3057.44	0.007714
3067.09	0.010214
3076.73	0.009414
3086.38	0.005934
3096.02	0.003364
3105.67	0.002504
3115.31	0.0014564
3124.95	0.0013433
3134.6	0.001098
3144.24	0.0012373
3153.89	0.0009203
3163.53	0.0007699
3173.18	0.0007272
3182.82	0.0008177
3192.47	0.00063436
3202.11	0.00060134
3211.76	0.00059801
3221.4	0.0005239
3231.05	0.000411
3240.69	0.000212
3250.34	0.000382
3259.98	0.000304
3269.63	0.0004509
3279.27	0.0004893
3288.92	0.0004671
3298.56	0.000431
3308.21	0.0004554
3317.85	0.0006766
3327.49	0.000318
3337.14	0.000322
3346.78	0.0004801
3356.43	0.000255
3366.07	0.0004778
3375.72	0.00063164
3385.36	0.0006617
3395.01	0.000423
3404.65	0.0005054
3414.3	0.00055844
3423.94	0.000388
3433.59	0.00059599
3443.23	0.000871
3452.88	0.0009734
3462.52	0.0008407
3472.17	0.0011611
3481.81	0.0007788
3491.46	0.0007384
3501.1	0.00061223
3510.75	0.0004756
3520.39	0.00060108
3530.04	0.0006954
3539.68	0.0006695
3549.32	0.0006703
3558.97	0.000546692
3568.61	0.0005131
3578.26	0.000202
3587.9	0.0005103
3597.55	0.0004783
3607.19	0.00029
3616.84	0.0005187
3626.48	0.000433
3636.13	0.000376
3645.77	0.0004667
3655.42	0.00057532
3665.06	0.0004892
3674.71	0.00057091
3684.35	0.0006785
3694	0.0004872
3703.64	0.000279
3713.29	0.0005141
3722.93	0.000339
3732.58	0.000403
3742.22	0.0006572
3751.86	0.00025
3761.51	0.00053546
3771.15	0.0004682
3780.8	0.00059337
3790.44	0.0004856
3800.09	0.0006456
3809.73	0.00057788
3819.38	0.00053814
3829.02	0.000544737
3838.67	0.000213
3848.31	0.00036
3857.96	0.0005294
3867.6	0.000395
3877.25	0.000478
3886.89	0.000396
3896.54	0.000229
3906.18	0.0006454
3915.83	0.0004767
3925.47	0.0004916
3935.12	0.000426
3944.76	0.00058633
3954.41	0.00060709
3964.05	0.0004638
3973.69	0.000385
3983.34	0.000433
3992.98	0.000392
