Infrared Spectrum: Methyl isonicotinate
Formula: C 7 H 7 N O 2
CAS: 2459-09-8
State: gas
Origin: EPA-IR VAPOR PHASE LIBRARY
1/CM	ABSORBANCE
549.8	0.0007144
559.445	0.0003642
569.09	0.0009339
578.734	0.000646
588.379	0.0003448
598.024	0.0001454
607.669	0.0004877
617.313	0.0004046
626.958	0.0003205
636.603	0.0003311
646.248	0.0015801
655.893	0.0046201
665.537	0.0175401
675.182	0.0343701
684.827	0.0271201
694.472	0.0157301
704.116	0.0237801
713.761	0.0192501
723.406	0.0124801
733.051	0.0082001
742.695	0.0140501
752.34	0.0231101
761.985	0.0254601
771.63	0.0177701
781.275	0.0066901
790.919	0.0032401
800.564	0.0036701
810.209	0.0061201
819.854	0.0093201
829.498	0.0113501
839.143	0.0109501
848.788	0.0114101
858.433	0.0063901
868.078	0.0029001
877.722	0.0015501
887.367	0.0014101
897.012	0.0014001
906.657	0.0015101
916.301	0.0014701
925.946	0.0017801
935.591	0.0027701
945.236	0.0058101
954.88	0.0103301
964.525	0.0173001
974.17	0.0198001
983.815	0.0164201
993.46	0.0084801
1003.1	0.0032201
1012.75	0.0016301
1022.39	0.0019601
1032.04	0.0026201
1041.68	0.0034401
1051.33	0.0071101
1060.97	0.0220501
1070.62	0.0271201
1080.26	0.0198201
1089.91	0.0270901
1099.55	0.0517701
1109.2	0.0973901
1118.84	0.11713
1128.49	0.0801001
1138.13	0.0416501
1147.78	0.0256501
1157.42	0.0177401
1167.07	0.0155001
1176.71	0.0165901
1186.36	0.0225201
1196	0.0271201
1205.64	0.0285001
1215.29	0.0240801
1224.93	0.0219301
1234.58	0.0362301
1244.22	0.0529901
1253.87	0.0693301
1263.51	0.14712
1273.16	0.31774
1282.8	0.36802
1292.45	0.20287
1302.09	0.0745301
1311.74	0.0378001
1321.38	0.0431301
1331.03	0.0390001
1340.67	0.0159901
1350.32	0.0087501
1359.96	0.0056801
1369.61	0.0052401
1379.25	0.0072101
1388.9	0.0141401
1398.54	0.0274001
1408.18	0.0314901
1417.83	0.0263601
1427.47	0.0252601
1437.12	0.0434501
1446.76	0.0404001
1456.41	0.0142101
1466.05	0.0099501
1475.7	0.0088401
1485.34	0.0090401
1494.99	0.0077501
1504.63	0.0049101
1514.28	0.0038401
1523.92	0.0043301
1533.57	0.0063201
1543.21	0.0111701
1552.86	0.0182401
1562.5	0.0212201
1572.15	0.0183301
1581.79	0.0156601
1591.44	0.0176001
1601.08	0.0126101
1610.73	0.0060901
1620.37	0.0051601
1630.01	0.0051301
1639.66	0.0048501
1649.3	0.0039901
1658.95	0.0031601
1668.59	0.0028801
1678.24	0.0035301
1687.88	0.0057801
1697.53	0.0094501
1707.17	0.0133001
1716.82	0.0171001
1726.46	0.0320401
1736.11	0.0866301
1745.75	0.19578
1755.4	0.2048
1765.04	0.10863
1774.69	0.0331701
1784.33	0.0137001
1793.98	0.0119501
1803.62	0.0110601
1813.27	0.0064401
1822.91	0.0029801
1832.55	0.0019901
1842.2	0.0023801
1851.84	0.0026201
1861.49	0.0020301
1871.13	0.0012601
1880.78	0.0013501
1890.42	0.0016601
1900.07	0.0020601
1909.71	0.0024201
1919.36	0.0032201
1929	0.0047601
1938.65	0.0058401
1948.29	0.0050101
1957.94	0.0028201
1967.58	0.0013601
1977.23	0.0009003
1986.87	0.0006882
1996.52	0.0006903
2006.16	0.0007975
2015.81	0.0011501
2025.45	0.0011601
2035.1	0.0010901
2044.74	0.0011501
2054.38	0.0013201
2064.03	0.0015701
2073.67	0.0020501
2083.32	0.0024701
2092.96	0.0028601
2102.61	0.0026801
2112.25	0.0018801
2121.9	0.0010601
2131.54	0.0007442
2141.19	0.00064
2150.83	0.0006343
2160.48	0.0005313
2170.12	0.0004585
2179.77	0.0004651
2189.41	0.0003741
2199.06	0.0003775
2208.7	0.0004318
2218.35	0.0004678
2227.99	0.0005405
2237.64	0.000546
2247.28	0.0007065
2256.92	0.0008661
2266.57	0.0009412
2276.21	0.0007019
2285.86	0.0006593
2295.5	0.000637
2305.15	0.0005855
2314.79	0.0005532
2324.44	0.000278
2334.08	0.0003148
2343.73	0.0002533
2353.37	0.0002363
2363.02	0.0004878
2372.66	0.0006256
2382.31	0.0008016
2391.95	0.0009742
2401.6	0.0009665
2411.24	0.0008708
2420.89	0.0006174
2430.53	0.0005262
2440.18	0.0004374
2449.82	0.0003733
2459.47	0.0003448
2469.11	0.0003058
2478.75	0.0003415
2488.4	0.000353
2498.04	0.0003221
2507.69	0.0003406
2517.33	0.0002489
2526.98	0.0003918
2536.62	0.0004921
2546.27	0.0005745
2555.91	0.0007165
2565.56	0.0007804
2575.2	0.0006719
2584.85	0.0005582
2594.49	0.0004784
2604.14	0.0006268
2613.78	0.0005823
2623.43	0.0003942
2633.07	0.0002631
2642.72	0.0004152
2652.36	0.000364
2662.01	0.0004092
2671.65	0.0003001
2681.29	0.0001375
2690.94	0.0002945
2700.58	0.0004365
2710.23	0.0003304
2719.87	0.000377
2729.52	0.0004485
2739.16	0.0002148
2748.81	0.0003824
2758.45	0.0004071
2768.1	0.0004447
2777.74	0.0005387
2787.39	0.0003253
2797.03	0.0004871
2806.68	0.0005311
2816.32	0.0008336
2825.97	0.0012601
2835.61	0.0024501
2845.26	0.0054701
2854.9	0.0073101
2864.55	0.0051701
2874.19	0.0036301
2883.84	0.0037901
2893.48	0.0047501
2903.12	0.0057701
2912.77	0.0064101
2922.41	0.0064501
2932.06	0.0063101
2941.7	0.0082901
2951.35	0.0204201
2960.99	0.0382101
2970.64	0.0328901
2980.28	0.0127001
2989.93	0.0106001
2999.57	0.0118501
3009.22	0.0128001
3018.86	0.0145001
3028.51	0.0202001
3038.15	0.0255901
3047.8	0.0254001
3057.44	0.0188101
3067.09	0.0151301
3076.73	0.0143901
3086.38	0.0134301
3096.02	0.0113701
3105.67	0.0062201
3115.31	0.0034601
3124.95	0.0021501
3134.6	0.0015701
3144.24	0.0012601
3153.89	0.0009308
3163.53	0.0007739
3173.18	0.0005784
3182.82	0.0004903
3192.47	0.000483
3202.11	0.0005969
3211.76	0.0004088
3221.4	0.0002054
3231.05	0.0002622
3240.69	0.0002335
3250.34	0.0001522
3259.98	0.0002121
3269.63	0.0001842
3279.27	0.0002669
3288.92	0.0003189
3298.56	0.0002264
3308.21	0.0001886
3317.85	0.0002576
3327.49	0.0002746
3337.14	0.0002162
3346.78	0.0001873
3356.43	0.000202
3366.07	5.1e-06
3375.72	0.000161
3385.36	8.672e-05
3395.01	0.0001791
3404.65	0.000147
3414.3	0.0002882
3423.94	0.00043
3433.59	0.0001981
3443.23	0.0003562
3452.88	0.000477
3462.52	0.0008562
3472.17	0.0016201
3481.81	0.0025101
3491.46	0.0025601
3501.1	0.0015501
3510.75	0.0008654
3520.39	0.0005705
3530.04	0.0004415
3539.68	0.0004131
3549.32	0.0003764
3558.97	0.0002224
3568.61	0.0001943
3578.26	0.0002041
3587.9	3.713e-05
3597.55	0.0002235
3607.19	5.678e-05
3616.84	0.00010235
3626.48	0.0001991
3636.13	0.0001825
3645.77	6.897e-05
3655.42	0.0002184
3665.06	0.0001675
3674.71	0.0001572
3684.35	0.0001313
3694	0.0004263
3703.64	0.0004581
3713.29	0.0003751
3722.93	0.0004413
3732.58	0.0002584
3742.22	0.0004609
3751.86	0.0004745
3761.51	0.0006665
3771.15	0.000375
3780.8	0.0001863
3790.44	0.000123
3800.09	0.0001594
3809.73	1.9919e-05
3819.38	0.0002261
3829.02	0.00010274
3838.67	0.000179
3848.31	0.0003663
3857.96	0.0003172
3867.6	0.0003194
3877.25	0.0003382
3886.89	0.0002641
3896.54	0.0003685
3906.18	0.0001925
3915.83	0.0001948
3925.47	0.0002951
3935.12	0.0004949
3944.76	0.0002313
3954.41	0.0004824
3964.05	0.0003335
3973.69	0.0003137
3983.34	0.000124
3992.98	0.0002918
