Infrared Spectrum: 4-Bromo-2,6-dimethylaniline
Formula: C 8 H 10 Br N
CAS: 24596-19-8
State: gas
Origin: EPA-IR VAPOR PHASE LIBRARY
1/CM	ABSORBANCE
549.8	0.005611
559.445	0.005161
569.09	0.004351
578.734	0.004351
588.379	0.003511
598.024	0.004271
607.669	0.004631
617.313	0.005561
626.958	0.005811
636.603	0.005601
646.248	0.006381
655.893	0.007451
665.537	0.007881
675.182	0.008001
684.827	0.007691
694.472	0.008641
704.116	0.009201
713.761	0.010291
723.406	0.008871
733.051	0.005581
742.695	0.004051
752.34	0.003371
761.985	0.003361
771.63	0.003091
781.275	0.002751
790.919	0.002351
800.564	0.002411
810.209	0.002221
819.854	0.002241
829.498	0.002201
839.143	0.002681
848.788	0.008921
858.433	0.025321
868.078	0.023201
877.722	0.006701
887.367	0.003251
897.012	0.002701
906.657	0.002031
916.301	0.002301
925.946	0.001541
935.591	0.001851
945.236	0.001741
954.88	0.002051
964.525	0.002211
974.17	0.002371
983.815	0.003641
993.46	0.004461
1003.1	0.005001
1012.75	0.003481
1022.39	0.002181
1032.04	0.002001
1041.68	0.001411
1051.33	0.001461
1060.97	0.001471
1070.62	0.001901
1080.26	0.001331
1089.91	0.001471
1099.55	0.001531
1109.2	0.001461
1118.84	0.001591
1128.49	0.002041
1138.13	0.002711
1147.78	0.002471
1157.42	0.001861
1167.07	0.001181
1176.71	0.002021
1186.36	0.002241
1196	0.003101
1205.64	0.005791
1215.29	0.016321
1224.93	0.025681
1234.58	0.014451
1244.22	0.006201
1253.87	0.004951
1263.51	0.004841
1273.16	0.006691
1282.8	0.005321
1292.45	0.002391
1302.09	0.001861
1311.74	0.001361
1321.38	0.0011591
1331.03	0.0010627
1340.67	0.001181
1350.32	0.001271
1359.96	0.001951
1369.61	0.002251
1379.25	0.002411
1388.9	0.002651
1398.54	0.003661
1408.18	0.006211
1417.83	0.007091
1427.47	0.009991
1437.12	0.017391
1446.76	0.019281
1456.41	0.020501
1466.05	0.029811
1475.7	0.043361
1485.34	0.032521
1494.99	0.011551
1504.63	0.005881
1514.28	0.004001
1523.92	0.003201
1533.57	0.002901
1543.21	0.002681
1552.86	0.002681
1562.5	0.003101
1572.15	0.003901
1581.79	0.005171
1591.44	0.005791
1601.08	0.005991
1610.73	0.009041
1620.37	0.015201
1630.01	0.015741
1639.66	0.010141
1649.3	0.005711
1658.95	0.003281
1668.59	0.002241
1678.24	0.001861
1687.88	0.001631
1697.53	0.001571
1707.17	0.002091
1716.82	0.002891
1726.46	0.002891
1736.11	0.001921
1745.75	0.001231
1755.4	0.0009018
1765.04	0.0009045
1774.69	0.0009104
1784.33	0.0007913
1793.98	0.000732
1803.62	0.0007022
1813.27	0.0005866
1822.91	0.0007162
1832.55	0.0007404
1842.2	0.000709
1851.84	0.0007749
1861.49	0.0006854
1871.13	0.0007426
1880.78	0.0007989
1890.42	0.0008055
1900.07	0.0009708
1909.71	0.0008569
1919.36	0.0007667
1929	0.000749
1938.65	0.000708
1948.29	0.0005973
1957.94	0.0006052
1967.58	0.0006011
1977.23	0.0006739
1986.87	0.0007757
1996.52	0.0006429
2006.16	0.0005606
2015.81	0.0005959
2025.45	0.0005128
2035.1	0.0005825
2044.74	0.0004743
2054.38	0.0004881
2064.03	0.0006337
2073.67	0.0005921
2083.32	0.0006182
2092.96	0.0005086
2102.61	0.0005551
2112.25	0.0005399
2121.9	0.0006007
2131.54	0.0005663
2141.19	0.0006324
2150.83	0.0006107
2160.48	0.0005936
2170.12	0.000407
2179.77	0.0004907
2189.41	0.0005862
2199.06	0.0005168
2208.7	0.0004886
2218.35	0.0004218
2227.99	0.0003696
2237.64	0.0003154
2247.28	0.0004013
2256.92	0.0004557
2266.57	0.0003568
2276.21	0.000426
2285.86	0.0003951
2295.5	0.0005879
2305.15	0.0004815
2314.79	0.0004899
2324.44	0.0002952
2334.08	0.0004269
2343.73	0.0004589
2353.37	0.0004649
2363.02	0.0003849
2372.66	0.0004713
2382.31	0.0003398
2391.95	0.0004486
2401.6	0.0004437
2411.24	0.0003996
2420.89	0.0004721
2430.53	0.0005021
2440.18	0.0004481
2449.82	0.0004814
2459.47	0.0004909
2469.11	0.0005268
2478.75	0.0003975
2488.4	0.0004033
2498.04	0.0002823
2507.69	0.0004466
2517.33	0.0005478
2526.98	0.0003368
2536.62	0.0004876
2546.27	0.0005268
2555.91	0.0004375
2565.56	0.0004881
2575.2	0.0004567
2584.85	0.0004014
2594.49	0.0005489
2604.14	0.0003027
2613.78	0.0003027
2623.43	0.0002817
2633.07	0.0004011
2642.72	0.00022956
2652.36	0.0004076
2662.01	0.0004235
2671.65	0.0004883
2681.29	0.0005204
2690.94	0.0005524
2700.58	0.0004449
2710.23	0.0006186
2719.87	0.0006819
2729.52	0.0008174
2739.16	0.001311
2748.81	0.001331
2758.45	0.0008761
2768.1	0.000554
2777.74	0.0004429
2787.39	0.0007312
2797.03	0.0007623
2806.68	0.0010564
2816.32	0.0011712
2825.97	0.001471
2835.61	0.002111
2845.26	0.002791
2854.9	0.004801
2864.55	0.008231
2874.19	0.009741
2883.84	0.008551
2893.48	0.007071
2903.12	0.008331
2912.77	0.011831
2922.41	0.014201
2932.06	0.014061
2941.7	0.012131
2951.35	0.008201
2960.99	0.005931
2970.64	0.006131
2980.28	0.008361
2989.93	0.007571
2999.57	0.004091
3009.22	0.002481
3018.86	0.001981
3028.51	0.001841
3038.15	0.002321
3047.8	0.002761
3057.44	0.003301
3067.09	0.002991
3076.73	0.002061
3086.38	0.001591
3096.02	0.0010457
3105.67	0.0009426
3115.31	0.0008774
3124.95	0.0008223
3134.6	0.0006774
3144.24	0.0006039
3153.89	0.0006396
3163.53	0.000511
3173.18	0.0004466
3182.82	0.0004521
3192.47	0.0006458
3202.11	0.0006651
3211.76	0.0003259
3221.4	0.0005087
3231.05	0.0004746
3240.69	0.0004196
3250.34	0.0003967
3259.98	0.000512
3269.63	0.0004715
3279.27	0.00024842
3288.92	0.0004538
3298.56	0.0003601
3308.21	0.0005527
3317.85	0.00026717
3327.49	0.00025736
3337.14	0.000343
3346.78	0.0003313
3356.43	0.0004527
3366.07	0.0004967
3375.72	0.0004918
3385.36	0.0007064
3395.01	0.0007905
3404.65	0.001691
3414.3	0.003421
3423.94	0.003241
3433.59	0.001741
3443.23	0.0010655
3452.88	0.0008433
3462.52	0.0009924
3472.17	0.001421
3481.81	0.002161
3491.46	0.003991
3501.1	0.004691
3510.75	0.003281
3520.39	0.001981
3530.04	0.0011733
3539.68	0.0006951
3549.32	0.0006246
3558.97	0.0007526
3568.61	0.0006167
3578.26	0.0003909
3587.9	0.0004394
3597.55	0.0003081
3607.19	0.00022538
3616.84	0.0002847
3626.48	0.0005272
3636.13	0.00022672
3645.77	0.00027168
3655.42	0.000654
3665.06	0.0003468
3674.71	0.0004518
3684.35	0.0003634
3694	0.0005492
3703.64	0.0004752
3713.29	0.0005122
3722.93	0.0003879
3732.58	0.0001326
3742.22	0.0004325
3751.86	0.00025017
3761.51	0.0006275
3771.15	0.0003877
3780.8	0.0004136
3790.44	0.00022999
3800.09	0.0004523
3809.73	0.000449
3819.38	0.0003591
3829.02	0.0002894
3838.67	0.0004761
3848.31	0.0003521
3857.96	0.0005047
3867.6	0.0006808
3877.25	0.0004976
3886.89	0.0004847
3896.54	0.0005475
3906.18	0.0005378
3915.83	0.000895
3925.47	0.0008647
3935.12	0.0004925
3944.76	0.000737
3954.41	0.0006058
3964.05	0.0006054
3973.69	0.0006452
3983.34	0.0004083
3992.98	0.0004325
