Infrared Spectrum: 3,5-Dinitro-2-hydroxybenzaldehyde
Formula: C 7 H 4 N 2 O 6
CAS: 2460-59-5
State: gas
Origin: EPA-IR VAPOR PHASE LIBRARY
1/CM	ABSORBANCE
549.8	0.002018
559.445	0.002168
569.09	0.005668
578.734	0.008568
588.379	0.006398
598.024	0.004788
607.669	0.003688
617.313	0.002468
626.958	0.002038
636.603	0.002208
646.248	0.002848
655.893	0.002478
665.537	0.003858
675.182	0.006018
684.827	0.007388
694.472	0.007848
704.116	0.011398
713.761	0.019688
723.406	0.018838
733.051	0.013048
742.695	0.010708
752.34	0.006318
761.985	0.004468
771.63	0.005368
781.275	0.003598
790.919	0.002258
800.564	0.002618
810.209	0.002098
819.854	0.002608
829.498	0.002058
839.143	0.0015406
848.788	0.0012609
858.433	0.0009213
868.078	0.0014257
877.722	0.001958
887.367	0.001738
897.012	0.002508
906.657	0.005608
916.301	0.011958
925.946	0.014378
935.591	0.009778
945.236	0.011298
954.88	0.010018
964.525	0.005158
974.17	0.002238
983.815	0.001658
993.46	0.001658
1003.1	0.001497
1012.75	0.0014703
1022.39	0.0013312
1032.04	0.0012563
1041.68	0.0015192
1051.33	0.003008
1060.97	0.004678
1070.62	0.005678
1080.26	0.009678
1089.91	0.011718
1099.55	0.006248
1109.2	0.002258
1118.84	0.001658
1128.49	0.002628
1138.13	0.002378
1147.78	0.003048
1157.42	0.004528
1167.07	0.005458
1176.71	0.004388
1186.36	0.002788
1196	0.004538
1205.64	0.007348
1215.29	0.009488
1224.93	0.008048
1234.58	0.007188
1244.22	0.009328
1253.87	0.013718
1263.51	0.020968
1273.16	0.022648
1282.8	0.015368
1292.45	0.014838
1302.09	0.019588
1311.74	0.018558
1321.38	0.015978
1331.03	0.025198
1340.67	0.061488
1350.32	0.080208
1359.96	0.034268
1369.61	0.014078
1379.25	0.010478
1388.9	0.011048
1398.54	0.012208
1408.18	0.011548
1417.83	0.013898
1427.47	0.021418
1437.12	0.030918
1446.76	0.033658
1456.41	0.026928
1466.05	0.016578
1475.7	0.009938
1485.34	0.007558
1494.99	0.007528
1504.63	0.008198
1514.28	0.008118
1523.92	0.007808
1533.57	0.009638
1543.21	0.018108
1552.86	0.030798
1562.5	0.040058
1572.15	0.024368
1581.79	0.016738
1591.44	0.025128
1601.08	0.038318
1610.73	0.048378
1620.37	0.042158
1630.01	0.023158
1639.66	0.011278
1649.3	0.007268
1658.95	0.006198
1668.59	0.006508
1678.24	0.013578
1687.88	0.023558
1697.53	0.013678
1707.17	0.020968
1716.82	0.035998
1726.46	0.012898
1736.11	0.006068
1745.75	0.004598
1755.4	0.002648
1765.04	0.002218
1774.69	0.001888
1784.33	0.0015435
1793.98	0.0013583
1803.62	0.0012576
1813.27	0.0010901
1822.91	0.0011815
1832.55	0.001235
1842.2	0.001598
1851.84	0.0014305
1861.49	0.0012871
1871.13	0.0011423
1880.78	0.001069
1890.42	0.0011147
1900.07	0.0009131
1909.71	0.0007897
1919.36	0.0009826
1929	0.0009354
1938.65	0.000888
1948.29	0.0007252
1957.94	0.0007337
1967.58	0.0007092
1977.23	0.0007236
1986.87	0.00068384
1996.52	0.0007321
2006.16	0.0007259
2015.81	0.000589856
2025.45	0.0006672
2035.1	0.00058466
2044.74	0.0005382
2054.38	0.000382
2064.03	0.000567
2073.67	0.0007284
2083.32	0.0007178
2092.96	0.0007305
2102.61	0.0007333
2112.25	0.00067188
2121.9	0.00066745
2131.54	0.0008173
2141.19	0.0006958
2150.83	0.000596676
2160.48	0.00068107
2170.12	0.0009842
2179.77	0.000928
2189.41	0.0008552
2199.06	0.000484
2208.7	0.00066163
2218.35	0.0007829
2227.99	0.0007152
2237.64	0.0007473
2247.28	0.0007365
2256.92	0.0006875
2266.57	0.0008193
2276.21	0.00063468
2285.86	0.00065698
2295.5	0.00061724
2305.15	0.0007646
2314.79	0.0008055
2324.44	0.0007281
2334.08	0.0009112
2343.73	0.0007864
2353.37	0.0008
2363.02	0.0007517
2372.66	0.000597768
2382.31	0.0006895
2391.95	0.0007535
2401.6	0.00064397
2411.24	0.0007598
2420.89	0.0009246
2430.53	0.0008422
2440.18	0.0007087
2449.82	0.000889
2459.47	0.0009585
2469.11	0.0008823
2478.75	0.0009528
2488.4	0.0007476
2498.04	0.0007648
2507.69	0.0010146
2517.33	0.0011444
2526.98	0.0011251
2536.62	0.0011543
2546.27	0.0012267
2555.91	0.0013233
2565.56	0.0010702
2575.2	0.0011191
2584.85	0.0009661
2594.49	0.0009192
2604.14	0.0011366
2613.78	0.0011297
2623.43	0.0012004
2633.07	0.0011565
2642.72	0.0013359
2652.36	0.0013295
2662.01	0.0012124
2671.65	0.0015284
2681.29	0.0014163
2690.94	0.001828
2700.58	0.001668
2710.23	0.001708
2719.87	0.001808
2729.52	0.002298
2739.16	0.002158
2748.81	0.002078
2758.45	0.002448
2768.1	0.002548
2777.74	0.002198
2787.39	0.001988
2797.03	0.002308
2806.68	0.002638
2816.32	0.002538
2825.97	0.002508
2835.61	0.003078
2845.26	0.004038
2854.9	0.006018
2864.55	0.005368
2874.19	0.006618
2883.84	0.008058
2893.48	0.005038
2903.12	0.003298
2912.77	0.002768
2922.41	0.002658
2932.06	0.002248
2941.7	0.002178
2951.35	0.002248
2960.99	0.002128
2970.64	0.001968
2980.28	0.002068
2989.93	0.002138
2999.57	0.001888
3009.22	0.002028
3018.86	0.002538
3028.51	0.002158
3038.15	0.001948
3047.8	0.002118
3057.44	0.002528
3067.09	0.003248
3076.73	0.003808
3086.38	0.005218
3096.02	0.006688
3105.67	0.007888
3115.31	0.006408
3124.95	0.004598
3134.6	0.004948
3144.24	0.005388
3153.89	0.006448
3163.53	0.006738
3173.18	0.007098
3182.82	0.007338
3192.47	0.007328
3202.11	0.007148
3211.76	0.007398
3221.4	0.006818
3231.05	0.006898
3240.69	0.006388
3250.34	0.005918
3259.98	0.005678
3269.63	0.005198
3279.27	0.005328
3288.92	0.005208
3298.56	0.004998
3308.21	0.004428
3317.85	0.004178
3327.49	0.004128
3337.14	0.004288
3346.78	0.003948
3356.43	0.003718
3366.07	0.003538
3375.72	0.003148
3385.36	0.002558
3395.01	0.002878
3404.65	0.003168
3414.3	0.003498
3423.94	0.002628
3433.59	0.002418
3443.23	0.002588
3452.88	0.002268
3462.52	0.001768
3472.17	0.002608
3481.81	0.001858
3491.46	0.002318
3501.1	0.001968
3510.75	0.002188
3520.39	0.0013938
3530.04	0.0012017
3539.68	0.0013981
3549.32	0.0011407
3558.97	0.0009255
3568.61	0.0009593
3578.26	0.0013901
3587.9	0.0009302
3597.55	0.0012346
3607.19	0.00063729
3616.84	0.0007988
3626.48	0.0009066
3636.13	0.0008262
3645.77	0.000573
3655.42	0.0005303
3665.06	0.0007946
3674.71	0.0007059
3684.35	0.0008828
3694	0.0008086
3703.64	0.0005166
3713.29	0.00037
3722.93	0.00061241
3732.58	0.000874
3742.22	0.0008821
3751.86	0.0005627
3761.51	0.000304
3771.15	0.0011946
3780.8	0.0007888
3790.44	0.00062008
3800.09	0.0009754
3809.73	0.000442
3819.38	0.0009225
3829.02	0.000527
3838.67	0.0011657
3848.31	0.0008768
3857.96	0.0005627
3867.6	0.00042
3877.25	0.000531
3886.89	0.000886
3896.54	0.000322
3906.18	0.0009241
3915.83	0.0005428
3925.47	0.0005473
3935.12	0.000369
3944.76	0.0008992
3954.41	0.0008389
3964.05	0.0008572
3973.69	0.0008908
3983.34	0.0009423
3992.98	0.0007984
