Infrared Spectrum: 1-Octen-4-yne
Formula: C 8 H 12
CAS: 24612-83-7
State: gas
Instrument: HP-GC/MS/IRD
Origin: NIST Mass Spectrometry Data Center
1/CM	ABSORBANCE
550	0.000768
562	0.0008608
574	0.0007472
586	0.0006176
598	0.0006336
610	0.000648
622	0.000456
634	0.0002816
646	0.0002864
658	0.0001824
670	0.0001616
682	0.0001456
694	0.0001024
706	0.0001824
718	0.0002368
730	0.0003424
742	0.0004304
754	0.000248
766	0.0001936
778	0.0001488
790	0.0002016
802	0.0003312
814	0.0003136
826	0.000376
838	0.0003392
850	0.00048
862	0.0007504
874	0.0010864
886	0.0019136
898	0.0034048
910	0.0052096
922	0.0054352
934	0.0035392
946	0.0023056
958	0.0018064
970	0.002056
982	0.0028976
994	0.002968
1006	0.0019968
1018	0.0013968
1030	0.0011232
1042	0.000816
1054	0.0006928
1066	0.0007248
1078	0.0006288
1090	0.0006336
1102	0.0008096
1114	0.0006256
1126	0.000328
1138	0.0002032
1150	0.0002128
1162	8.8e-05
1174	8e-06
1186	4.32e-05
1198	6.24e-05
1210	0.0001344
1222	0.000264
1234	0.0003056
1246	0.0003312
1258	0.000536
1270	0.001472
1282	0.0031616
1294	0.002968
1306	0.0018128
1318	0.0020432
1330	0.0032352
1342	0.002736
1354	0.0011472
1366	0.0008512
1378	0.0012048
1390	0.0015472
1402	0.001624
1414	0.0020208
1426	0.0023936
1438	0.0026224
1450	0.0025024
1462	0.002208
1474	0.001616
1486	0.0009568
1498	0.000568
1510	0.0003952
1522	0.0003008
1534	0.0002832
1546	0.0002512
1558	0.0002144
1570	0.0002
1582	0.0002
1594	0.000264
1606	0.0004112
1618	0.0007888
1630	0.001664
1642	0.0025728
1654	0.0015376
1666	0.0006032
1678	0.0002608
1690	0.0001104
1702	8.48e-05
1714	7.68e-05
1726	4.96e-05
1738	4.96e-05
1750	1.12e-05
1762	4.8e-06
1774	4.8e-06
1786	4e-05
1798	9.76e-05
1810	0.0002048
1822	0.0003312
1834	0.0004832
1846	0.0004208
1858	0.0002016
1870	0.0001264
1882	7.2e-05
1894	4.32e-05
1906	3.84e-05
1918	3.84e-05
1930	4.32e-05
1942	4.64e-05
1954	9.92e-05
1966	0.0001232
1978	0.0001264
1990	5.92e-05
2002	3.68e-05
2014	4.16e-05
2026	4.8e-05
2038	4.16e-05
2050	1.92e-05
2062	9.6e-06
2074	3.04e-05
2086	3.04e-05
2098	2.24e-05
2110	5.28e-05
2122	4.16e-05
2134	6.56e-05
2146	4.48e-05
2158	6.24e-05
2170	5.6e-05
2182	7.04e-05
2194	9.6e-05
2206	6.24e-05
2218	8.8e-05
2230	9.6e-05
2242	5.6e-05
2254	5.44e-05
2266	5.28e-05
2278	7.68e-05
2290	5.92e-05
2302	6.72e-05
2314	7.2e-05
2326	5.92e-05
2338	7.04e-05
2350	4.48e-05
2362	4e-05
2374	4.16e-05
2386	5.6e-05
2398	4.64e-05
2410	6.88e-05
2422	5.92e-05
2434	8.32e-05
2446	5.92e-05
2458	3.52e-05
2470	2.24e-05
2482	2.56e-05
2494	6.88e-05
2506	6.56e-05
2518	6.24e-05
2530	7.04e-05
2542	0.0001088
2554	0.000144
2566	0.0001344
2578	0.0001792
2590	0.0001584
2602	0.0001152
2614	0.00016
2626	0.0001312
2638	0.000184
2650	0.000232
2662	0.0002336
2674	0.0002352
2686	0.0002208
2698	0.0002528
2710	0.0003424
2722	0.000352
2734	0.0003568
2746	0.0004096
2758	0.0004112
2770	0.0004624
2782	0.0005648
2794	0.0006528
2806	0.0009056
2818	0.0013328
2830	0.0020128
2842	0.0029424
2854	0.0037088
2866	0.0046064
2878	0.00712
2890	0.0083824
2902	0.0094688
2914	0.0113424
2926	0.0126816
2938	0.015664
2950	0.0147776
2962	0.0128304
2974	0.0143696
2986	0.010784
2998	0.0054864
3010	0.003832
3022	0.0036512
3034	0.0024
3046	0.0017744
3058	0.00188
3070	0.002176
3082	0.0027312
3094	0.0032288
3106	0.0021328
3118	0.0010672
3130	0.0006688
3142	0.0005072
3154	0.000408
3166	0.0003616
3178	0.0003664
3190	0.0002912
3202	0.0002416
3214	0.0002272
3226	0.0001728
3238	0.0001632
3250	0.000128
3262	0.0001296
3274	0.0001728
3286	0.0001312
3298	0.0001344
3310	0.000152
3322	0.000136
3334	9.76e-05
3346	0.0001872
3358	0.0001184
3370	0.000136
3382	8.48e-05
3394	9.92e-05
3406	5.76e-05
3418	8.16e-05
3430	0.0002288
3442	0.0002224
3454	0.0001472
3466	0.0001136
3478	4e-05
3490	0.0001312
3502	0.0001376
3514	0.0001024
3526	0.0001072
3538	6.24e-05
3550	0.0001376
3562	8.32e-05
3574	9.28e-05
3586	3.2e-05
3598	9.28e-05
3610	0.0001376
3622	7.36e-05
3634	9.28e-05
3646	9.92e-05
3658	0.0001072
3670	5.92e-05
3682	0.0001168
3694	0.0001296
3706	0.0001072
3718	0.0001776
3730	0.0001328
3742	0.0001728
3754	0.0001808
3766	0.000152
3778	0.000192
3790	0.000144
3802	0.000176
3814	0.0001792
3826	0.0001696
3838	0.0001472
