Infrared Spectrum: 9-OCTADECENOIC ACID, METHYL ESTER
Formula: C19 H36 O2
CAS: 2462-84-2
State: SOLUTION (10% IN CCl4 FOR 3800-1300, 10% IN CS2 FOR 1300-650, AND 10% CCl4 FOR 650-250 CM^-^1) VERSUS SOLVENT
Class: COBLENTZ III
Instrument: PERKIN-ELMER 521 (GRATING)
Instrument parameters: FILTERS AT 3150, 2500, 2000, 1150, 700, 410; GRATING CHANGES AT 2000, 630 CM^-^1
Sampling: TRANSMISSION
Path length: 0.011, 0.010, AND 0.010 CM (CsBr CELL)
Resolution: 4
Origin: DOW CORNING CORP.
1/CM	TRANSMITTANCE
248.197	0.823
258.033	0.83
267.869	0.843
277.705	0.85
287.541	0.853
297.377	0.86
307.213	0.872
317.049	0.877
326.885	0.881
336.722	0.893
346.558	0.899
356.394	0.907
366.23	0.912
376.066	0.923
385.902	0.931
395.738	0.938
405.574	0.94
415.41	0.942
425.246	0.936
435.082	0.925
444.918	0.936
454.754	0.947
464.59	0.954
474.426	0.96
484.262	0.958
494.099	0.959
503.935	0.966
513.771	0.975
523.607	0.979
533.443	0.979
543.279	0.974
553.115	0.974
562.951	0.969
572.787	0.954
582.623	0.95
592.459	0.952
602.295	0.952
612.131	0.96
621.967	0.963
631.803	0.96
641.639	0.958
651.476	0.955
661.312	0.948
671.148	0.944
680.984	0.923
690.82	0.884
700.656	0.87
710.492	0.839
720.328	0.768
730.164	0.728
740	0.842
749.836	0.913
759.672	0.939
769.508	0.958
779.344	0.977
789.18	0.99
799.016	0.994
808.853	0.985
818.689	0.974
828.525	0.958
838.361	0.931
848.197	0.921
858.033	0.916
867.869	0.913
877.705	0.909
887.541	0.924
897.377	0.96
907.213	0.97
917.049	0.97
926.885	0.974
936.721	0.971
946.557	0.981
956.393	0.993
966.229	0.958
976.066	0.982
985.902	0.965
995.738	0.965
1005.57	0.936
1015.41	0.888
1025.25	0.9
1035.08	0.959
1044.92	0.974
1054.75	0.963
1064.59	0.956
1074.43	0.938
1084.26	0.874
1094.1	0.85
1103.93	0.861
1113.77	0.794
1123.61	0.792
1133.44	0.803
1143.28	0.683
1153.11	0.566
1162.95	0.382
1172.79	0.308
1182.62	0.44
1192.46	0.378
1202.29	0.399
1212.13	0.514
1221.97	0.554
1231.8	0.538
1241.64	0.476
1251.48	0.506
1261.31	0.597
1271.15	0.672
1280.98	0.695
1290.82	0.734
1300.66	0.737
1310.49	0.734
1320.33	0.717
1330.16	0.67
1340	0.619
1349.84	0.563
1359.67	0.496
1369.51	0.551
1379.34	0.566
1389.18	0.759
1399.02	0.764
1408.85	0.736
1418.69	0.644
1428.52	0.616
1438.36	0.254
1448.2	0.409
1458.03	0.308
1467.87	0.3
1477.7	0.71
1487.54	0.815
1497.38	0.838
1507.21	0.858
1517.05	0.876
1526.89	0.885
1536.72	0.89
1546.56	0.892
1556.39	0.886
1566.23	0.882
1576.07	0.878
1585.9	0.876
1595.74	0.872
1605.57	0.872
1615.41	0.869
1625.25	0.865
1635.08	0.86
1644.92	0.839
1654.75	0.822
1664.59	0.833
1674.43	0.823
1684.26	0.794
1694.1	0.737
1703.93	0.636
1713.77	0.524
1723.61	0.454
1733.44	0.172
1743.28	0
1753.11	0.095
1762.95	0.437
1772.79	0.686
1782.62	0.771
1792.46	0.822
1802.29	0.851
1812.13	0.868
1821.97	0.882
1831.8	0.892
1841.64	0.895
1851.48	0.897
1861.31	0.899
1871.15	0.9
1880.98	0.903
1890.82	0.904
1900.66	0.904
1910.49	0.905
1920.33	0.907
1930.16	0.907
1940	0.908
1949.84	0.909
1959.67	0.912
1969.51	0.913
1979.34	0.915
1989.18	0.916
1999.02	0.917
2008.85	0.916
2018.69	0.917
2028.52	0.917
2038.36	0.919
2048.2	0.9195
2058.03	0.9205
2067.87	0.921
2077.7	0.923
2087.54	0.924
2097.38	0.925
2107.21	0.927
2117.05	0.928
2126.88	0.93
2136.72	0.93
2146.56	0.928
2156.39	0.927
2166.23	0.927
2176.07	0.927
2185.9	0.927
2195.74	0.927
2205.57	0.9258
2215.41	0.925
2225.25	0.925
2235.08	0.925
2244.92	0.923
2254.75	0.923
2264.59	0.923
2274.43	0.9217
2284.26	0.924
2294.1	0.92
2303.93	0.923
2313.77	0.9203
2323.61	0.919
2333.44	0.917
2343.28	0.917
2353.11	0.919
2362.95	0.919
2372.79	0.919
2382.62	0.919
2392.46	0.92
2402.29	0.92
2412.13	0.92
2421.97	0.92
2431.8	0.92
2441.64	0.92
2451.47	0.92
2461.31	0.919
2471.15	0.919
2480.98	0.917
2490.82	0.916
2500.66	0.916
2510.49	0.915
2520.33	0.913
2530.16	0.9112
2540	0.908
2549.84	0.9042
2559.67	0.901
2569.51	0.8974
2579.34	0.896
2589.18	0.895
2599.02	0.8922
2608.85	0.889
2618.69	0.8812
2628.52	0.8762
2638.36	0.876
2648.2	0.874
2658.03	0.873
2667.87	0.869
2677.7	0.8677
2687.54	0.8699
2697.38	0.8729
2707.21	0.874
2717.05	0.87
2726.88	0.868
2736.72	0.866
2746.56	0.866
2756.39	0.8651
2766.23	0.8621
2776.06	0.8541
2785.9	0.8343
2795.74	0.8123
2805.57	0.7844
2815.41	0.7496
2825.25	0.6376
2835.08	0.5242
2844.92	0.2424
2854.75	0.0247
2864.59	0.1027
2874.43	0.2086
2884.26	0.282
2894.1	0.2053
2903.93	0.067
2913.77	0.013
2923.61	0.001
2933.44	0.008
2943.28	0.0371
2953.11	0.0471
2962.95	0.0994
2972.79	0.269
2982.62	0.4595
2992.46	0.5175
3002.29	0.4454
3012.13	0.4819
3021.97	0.6056
3031.8	0.7254
3041.64	0.8039
3051.47	0.8374
3061.31	0.8531
3071.15	0.8662
3080.98	0.8823
3090.82	0.888
3100.65	0.8952
3110.49	0.905
3120.33	0.907
3130.16	0.908
3140	0.9081
3149.84	0.912
3159.67	0.912
3169.51	0.913
3179.34	0.915
3189.18	0.916
3199.02	0.9173
3208.85	0.92
3218.69	0.9232
3228.52	0.924
3238.36	0.924
3248.2	0.9202
3258.03	0.921
3267.87	0.921
3277.7	0.92
3287.54	0.919
3297.38	0.917
3307.21	0.917
3317.05	0.917
3326.88	0.917
3336.72	0.917
3346.56	0.917
3356.39	0.917
3366.23	0.916
3376.06	0.916
3385.9	0.916
3395.74	0.9182
3405.57	0.916
3415.41	0.917
3425.24	0.913
3435.08	0.9124
3444.92	0.9064
3454.75	0.903
3464.59	0.9073
3474.43	0.9123
3484.26	0.919
3494.1	0.9217
3503.93	0.921
3513.77	0.919
3523.61	0.921
3533.44	0.9234
3543.28	0.927
3553.11	0.9304
3562.95	0.932
3572.79	0.934
3582.62	0.935
3592.46	0.935
3602.29	0.9344
3612.13	0.9354
3621.97	0.9384
3631.8	0.9376
3641.64	0.9466
3651.47	0.943
3661.31	0.951
3671.15	0.9443
3680.98	0.9411
3690.82	0.9464
3700.65	0.948
3710.49	0.9489
3720.33	0.9466
3730.16	0.948
3740	0.95
3749.83	0.95
3759.67	0.9491
3769.51	0.948
3779.34	0.948
3789.18	0.9475
