Infrared Spectrum: Dicaptan
Formula: C 8 H 9 Cl N O 5 P S
CAS: 2463-84-5
State: gas
Instrument: HP-GC/MS/IRD
Origin: NIST Mass Spectrometry Data Center
1/CM	ABSORBANCE
550	0.0006039
562	0.0002196
574	7.93e-05
586	0.0002074
598	0.0005856
610	0.0008357
622	0.0005917
634	0.0008784
646	0.0018788
658	0.0010431
670	0.0008113
682	0.0022631
694	0.0062037
706	0.0051789
718	0.0029646
730	0.0023485
742	0.0045018
754	0.0040504
766	0.008662
778	0.0260104
790	0.00793
802	0.0052704
814	0.0093269
826	0.0164944
838	0.0223748
850	0.0280905
862	0.0148108
874	0.0090768
886	0.0104493
898	0.011102
910	0.0150243
922	0.03477
934	0.0349042
946	0.0129747
958	0.0065331
970	0.0038369
982	0.0027389
994	0.0027694
1006	0.0040809
1018	0.0076677
1030	0.0175558
1042	0.0426085
1054	0.0596763
1066	0.0369843
1078	0.025071
1090	0.0137677
1102	0.0095099
1114	0.009028
1126	0.0076799
1138	0.0077287
1150	0.0049715
1162	0.0043981
1174	0.0056059
1186	0.0066185
1198	0.0053314
1210	0.0050996
1222	0.0072529
1234	0.0152439
1246	0.0174094
1258	0.0283711
1270	0.0151646
1282	0.0082289
1294	0.004758
1306	0.0030744
1318	0.0032818
1330	0.0066063
1342	0.0204594
1354	0.0265777
1366	0.0096807
1378	0.0048007
1390	0.0031476
1402	0.002562
1414	0.0020313
1426	0.0023241
1438	0.0033001
1450	0.0050752
1462	0.0076738
1474	0.0192638
1486	0.0214354
1498	0.0094672
1510	0.0070516
1522	0.0087657
1534	0.0153476
1546	0.0259921
1558	0.0138958
1570	0.0073749
1582	0.0096807
1594	0.0076494
1606	0.0041358
1618	0.0016958
1630	0.001098
1642	0.0011651
1654	0.0009821
1666	0.0006527
1678	0.0005246
1690	0.000488
1702	0.0004819
1714	0.0004392
1726	0.0003538
1738	0.0002562
1750	0.0002379
1762	0.0002928
1774	0.0004392
1786	0.0005124
1798	0.0004392
1810	0.0002745
1822	0.0003172
1834	0.0003904
1846	0.0004331
1858	0.0005429
1870	0.0006283
1882	0.000793
1894	0.0008601
1906	0.0007015
1918	0.0004392
1930	0.0003172
1942	0.0002501
1954	0.0002379
1966	0.0001891
1978	0.0001464
1990	0.0001342
2002	0.0001403
2014	0.000122
2026	0.0001403
2038	0.0001769
2050	0.0001159
2062	9.15e-05
2074	0.000122
2086	0.0001281
2098	0.0001037
2110	7.32e-05
2122	6.71e-05
2134	8.54e-05
2146	6.71e-05
2158	8.54e-05
2170	0.0001159
2182	0.0001342
2194	0.0001159
2206	9.15e-05
2218	2.44e-05
2230	6.1e-05
2242	7.93e-05
2254	4.27e-05
2266	0.0001098
2278	0.000122
2290	0.0001403
2302	9.15e-05
2314	0.0001281
2326	6.71e-05
2338	3.05e-05
2350	6.1e-05
2362	6.1e-06
2374	2.44e-05
2386	3.66e-05
2398	0
2410	6.1e-06
2422	5.49e-05
2434	6.1e-05
2446	8.54e-05
2458	0.0001647
2470	0.0002379
2482	0.0002562
2494	0.0002684
2506	0.0003111
2518	0.0002806
2530	0.0002257
2542	0.0001708
2554	0.0001586
2566	0.000244
2578	0.0003111
2590	0.0002501
2602	0.0001708
2614	0.0001342
2626	0.0001281
2638	8.54e-05
2650	7.32e-05
2662	9.15e-05
2674	0.0001525
2686	0.0001952
2698	0.0001708
2710	0.0001403
2722	0.000183
2734	0.0001403
2746	0.0001037
2758	7.93e-05
2770	4.27e-05
2782	8.54e-05
2794	0.0001708
2806	0.0002501
2818	0.0003416
2830	0.0005551
2842	0.0009272
2854	0.0023302
2866	0.0022875
2878	0.0012078
2890	0.0011163
2902	0.0011529
2914	0.0013542
2926	0.0014152
2938	0.001769
2950	0.0038735
2962	0.0083936
2974	0.0038308
2986	0.0020069
2998	0.0019764
3010	0.0019825
3022	0.0019215
3034	0.001708
3046	0.0012871
3058	0.0010431
3070	0.0010065
3082	0.0011529
3094	0.0014396
3106	0.0014701
3118	0.0008723
3130	0.0004453
3142	0.0003965
3154	0.0002501
3166	0.0002745
3178	0.0002379
3190	0.0001647
3202	0.0002257
3214	0.0001464
3226	7.93e-05
3238	4.88e-05
3250	0.0001281
3262	9.76e-05
3274	0.0002135
3286	0.0001342
3298	0.0001647
3310	0.0001586
3322	0.0001037
3334	0.0001769
3346	9.76e-05
3358	0.0002135
3370	0.0001098
3382	0.0001037
3394	0.0001952
3406	0.0002074
3418	0.0001403
3430	0.0001159
3442	5.49e-05
3454	0.0002318
3466	0.000183
3478	0.0002074
3490	0.0001647
3502	0.0002074
3514	0.0001952
3526	0.0001708
3538	0.000183
3550	0.000183
3562	0.0002623
3574	0.000244
3586	0.0002196
3598	0.0001464
3610	0.0001769
3622	0.0002318
3634	0.0002501
3646	0.0002074
3658	0.0001769
3670	0.000244
3682	0.0002074
3694	0.0002074
3706	0.0001891
3718	0.0003111
3730	0.0001769
3742	0.0002318
3754	0.0002379
3766	0.0002318
3778	0.000183
3790	0.0002318
3802	0.0001769
3814	0.0002074
3826	0.0001708
3838	0.0002196
