Infrared Spectrum: Aniline, 4,4'-(imidocarbonyl)bis-(N,N-dimethyl)-, hydrochloride
Formula: C17 H22 Cl N3
CAS: 2465-27-2
State: SOLID (1.2 mg / 300 mg KBr DISC)
Melting point: 150 C
Class: COBLENTZ III
Instrument: PERKIN-ELMER 180 (GRATING)
Instrument parameters: GRATINGS: 2000, 1000, 500, 250 CM^-^1; FILTER CHANGE: 2970, 2000, 1485, 1000, 743, 500, 372, 250, 186 CM^-^1.
Sampling: TRANSMISSION
Path length: SCALE ATTENUATION INCREASED 25%
Resolution: 2
Origin: K. K. DEB-NCI FREDERICK CANCER RESEARCH CENTER
1/CM	TRANSMITTANCE
398	0.7829
407	0.7755
416	0.765
425	0.8019
434	0.8063
443	0.805
452	0.8055
461	0.8101
470	0.8035
479	0.8054
488	0.8221
497	0.7817
506	0.7821
515	0.8064
524	0.806
533	0.7975
542	0.7584
551	0.7352
560	0.7721
569	0.7813
578	0.7735
587	0.7588
596	0.7399
605	0.6987
614	0.6703
623	0.6937
632	0.7177
641	0.7473
650	0.7756
659	0.786
668	0.7628
677	0.8071
686	0.8329
695	0.8399
704	0.8421
713	0.8379
722	0.8097
731	0.8246
740	0.8382
749	0.7781
758	0.8275
767	0.8147
776	0.8053
785	0.794
794	0.7742
803	0.7361
812	0.6704
821	0.4465
830	0.7052
839	0.7544
848	0.7876
857	0.819
866	0.8399
875	0.8427
884	0.8455
893	0.8462
902	0.8432
911	0.837
920	0.8271
929	0.8039
938	0.747
947	0.7405
956	0.7551
965	0.794
974	0.7909
983	0.7748
992	0.7479
1001	0.7425
1010	0.7475
1019	0.7358
1028	0.7217
1037	0.7037
1046	0.677
1055	0.6461
1064	0.6315
1073	0.652
1082	0.6407
1091	0.6087
1100	0.5589
1109	0.4832
1118	0.439
1127	0.4282
1136	0.4827
1145	0.4795
1154	0.3904
1163	0.4543
1172	0.5392
1181	0.5275
1190	0.4968
1199	0.4296
1208	0.6399
1217	0.6495
1226	0.6072
1235	0.6841
1244	0.7199
1253	0.7246
1262	0.7226
1271	0.7161
1280	0.7053
1289	0.693
1298	0.6737
1307	0.6421
1316	0.6415
1325	0.646
1334	0.6238
1343	0.6002
1352	0.5393
1361	0.4379
1370	0.2843
1379	0.2428
1388	0.3431
1397	0.3442
1406	0.3993
1415	0.5518
1424	0.5841
1433	0.5067
1442	0.5339
1451	0.582
1460	0.5665
1469	0.5556
1478	0.5006
1487	0.5145
1496	0.6029
1505	0.6316
1514	0.6416
1523	0.6164
1532	0.5326
1541	0.4891
1550	0.4792
1559	0.4886
1568	0.47
1577	0.4141
1586	0.2746
1595	0.0908
1604	0.106
1613	0.2808
1622	0.5283
1631	0.6112
1640	0.6508
1649	0.6617
1658	0.6765
1667	0.6769
1676	0.6502
1685	0.6378
1694	0.6446
1703	0.6678
1712	0.7103
1721	0.7573
1730	0.7822
1739	0.8
1748	0.8151
1757	0.8241
1766	0.835
1775	0.8445
1784	0.8508
1793	0.8546
1802	0.8575
1811	0.8599
1820	0.861
1829	0.8611
1838	0.8606
1847	0.8597
1856	0.858
1865	0.8561
1874	0.853
1883	0.8505
1892	0.8474
1901	0.8441
1910	0.8466
1919	0.852
1928	0.8543
1937	0.8549
1946	0.855
1955	0.8547
1964	0.8543
1973	0.8529
1982	0.8506
1991	0.8464
2000	0.8429
2009	0.8438
2018	0.8423
2027	0.8371
2036	0.8281
2045	0.81
2054	0.7967
2063	0.8212
2072	0.8378
2081	0.8437
2090	0.8437
2099	0.8423
2108	0.8406
2117	0.8394
2126	0.8399
2135	0.8402
2144	0.8406
2153	0.8408
2162	0.8407
2171	0.8407
2180	0.8407
2189	0.8408
2198	0.8408
2207	0.8411
2216	0.8416
2225	0.8417
2234	0.8411
2243	0.8404
2252	0.8397
2261	0.839
2270	0.8385
2279	0.8379
2288	0.8375
2297	0.8371
2306	0.8368
2315	0.8362
2324	0.8351
2333	0.8338
2342	0.8327
2351	0.8314
2360	0.8303
2369	0.8291
2378	0.8279
2387	0.8267
2396	0.8255
2405	0.8243
2414	0.8231
2423	0.8218
2432	0.8206
2441	0.8194
2450	0.8182
2459	0.8171
2468	0.816
2477	0.8149
2486	0.8139
2495	0.8129
2504	0.8119
2513	0.8109
2522	0.8095
2531	0.8081
2540	0.8068
2549	0.806
2558	0.8053
2567	0.8045
2576	0.803
2585	0.7998
2594	0.7963
2603	0.7926
2612	0.789
2621	0.7851
2630	0.7813
2639	0.7788
2648	0.777
2657	0.7751
2666	0.7739
2675	0.7734
2684	0.7728
2693	0.7713
2702	0.7684
2711	0.7642
2720	0.7602
2729	0.7559
2738	0.7517
2747	0.7474
2756	0.7421
2765	0.7367
2774	0.731
2783	0.725
2792	0.7191
2801	0.7041
2810	0.6911
2819	0.6804
2828	0.675
2837	0.6721
2846	0.6682
2855	0.6572
2864	0.6407
2873	0.6227
2882	0.6063
2891	0.5914
2900	0.5764
2909	0.5543
2918	0.5359
2927	0.5213
2936	0.5082
2945	0.4949
2954	0.4805
2963	0.4651
2972	0.4518
2981	0.4335
2990	0.4273
2999	0.4313
3008	0.4392
3017	0.4523
3026	0.4695
3035	0.4954
3044	0.521
3053	0.5413
3062	0.5594
3071	0.5766
3080	0.5955
3089	0.6076
3098	0.6161
3107	0.6235
3116	0.6286
3125	0.6337
3134	0.6375
3143	0.6402
3152	0.6423
3161	0.6427
3170	0.6432
3179	0.6421
3188	0.641
3197	0.6401
3206	0.6417
3215	0.6445
3224	0.6481
3233	0.6491
3242	0.6501
3251	0.6505
3260	0.6511
3269	0.6522
3278	0.6535
3287	0.6547
3296	0.6558
3305	0.6569
3314	0.6574
3323	0.6561
3332	0.655
3341	0.652
3350	0.6474
3359	0.6415
3368	0.6336
3377	0.6266
3386	0.6205
3395	0.6173
3404	0.6146
3413	0.6127
3422	0.6133
3431	0.6159
3440	0.6215
3449	0.6276
3458	0.6341
3467	0.6413
3476	0.6476
3485	0.6539
3494	0.6606
3503	0.6672
3512	0.6736
3521	0.68
3530	0.6863
3539	0.6926
3548	0.6988
3557	0.7051
3566	0.7115
3575	0.7181
3584	0.7249
3593	0.7316
3602	0.738
3611	0.7445
3620	0.7505
3629	0.7557
3638	0.7607
3647	0.7621
3656	0.7626
3665	0.7619
3674	0.7613
3683	0.7615
3692	0.7662
3701	0.769
3710	0.7696
3719	0.7697
3728	0.7692
3737	0.7685
3746	0.7673
3755	0.766
3764	0.7649
3773	0.7638
3782	0.7628
3791	0.7619
3800	0.7611
