Infrared Spectrum: IMIDAZOLE, 1-ACETYL-
Formula: C5 H6 N2 O
CAS: 2466-76-4
State: SOLID (SPLIT MULL), FLUOROLUBE FOR 3800-1330 CM^-^1, NUJOL FOR 1330-450 CM^-^1
Class: COBLENTZ III
Instrument: DOW KBr FOREPRISM-GRATING
Instrument parameters: BLAZED AT 3.5, 12.0, 20.0 MICRON AND CHANGED AT 5.0, 7.5, 14.9 MICRON
Sampling: TRANSMISSION
Resolution: 2
Origin: DOW CHEMICAL COMPANY
1/CM	TRANSMITTANCE
454	0.8271
463	0.8416
472	0.8535
481	0.8652
490	0.8713
499	0.874
508	0.8684
517	0.8625
526	0.8755
535	0.8747
544	0.8786
553	0.8793
562	0.8768
571	0.8837
580	0.8862
589	0.8775
598	0.8657
607	0.8518
616	0.8203
625	0.7369
634	0.6008
643	0.2972
652	0.8018
661	0.8246
670	0.8717
679	0.9035
688	0.8978
697	0.883
706	0.8594
715	0.8271
724	0.8086
733	0.8202
742	0.8065
751	0.795
760	0.8011
769	0.8
778	0.758
787	0.5716
796	0.6557
805	0.8087
814	0.8086
823	0.7878
832	0.7475
841	0.53
850	0.7068
859	0.7985
868	0.8051
877	0.8003
886	0.7724
895	0.5225
904	0.8551
913	0.8382
922	0.8199
931	0.7985
940	0.7628
949	0.6707
958	0.2036
967	0.7881
976	0.8336
985	0.8335
994	0.8086
1003	0.7737
1012	0.7997
1021	0.7875
1030	0.75
1039	0.6069
1048	0.6536
1057	0.5351
1066	0.4417
1075	0.7321
1084	0.7904
1093	0.7251
1102	0.7943
1111	0.8085
1120	0.7203
1129	0.7525
1138	0.7937
1147	0.7778
1156	0.7501
1165	0.7408
1174	0.7571
1183	0.7392
1192	0.7134
1201	0.683
1210	0.643
1219	0.596
1228	0.5498
1237	0.4686
1246	0.2607
1255	0.0819
1264	0.0966
1273	0.5289
1282	0.5379
1291	0.2245
1300	0.2594
1309	0.6476
1318	0.3888
1327	0.736
1336	0.7484
1345	0.74
1354	0.7168
1363	0.6126
1372	0.6324
1381	0.4608
1390	0.2653
1399	0.5952
1408	0.7162
1417	0.7218
1426	0.6967
1435	0.6737
1444	0.7284
1453	0.7491
1462	0.7168
1471	0.5466
1480	0.4617
1489	0.4305
1498	0.6196
1507	0.7917
1516	0.7592
1525	0.6832
1534	0.7611
1543	0.7749
1552	0.7705
1561	0.7568
1570	0.7417
1579	0.7248
1588	0.7261
1597	0.7454
1606	0.7751
1615	0.7865
1624	0.7858
1633	0.7828
1642	0.788
1651	0.7968
1660	0.784
1669	0.7598
1678	0.7187
1687	0.7045
1696	0.7322
1705	0.7175
1714	0.6644
1723	0.5206
1732	0.0629
1741	0.1979
1750	0.7167
1759	0.7951
1768	0.8101
1777	0.8046
1786	0.8187
1795	0.8337
1804	0.845
1813	0.8438
1822	0.8457
1831	0.8468
1840	0.8468
1849	0.8468
1858	0.8466
1867	0.8446
1876	0.8397
1885	0.8328
1894	0.8258
1903	0.826
1912	0.8275
1921	0.8307
1930	0.8295
1939	0.8306
1948	0.8328
1957	0.8295
1966	0.8299
1975	0.8316
1984	0.8294
1993	0.8262
2002	0.8228
2011	0.8286
2020	0.8284
2029	0.8264
2038	0.8285
2047	0.8342
2056	0.8358
2065	0.836
2074	0.8363
2083	0.8368
2092	0.8368
2101	0.837
2110	0.8368
2119	0.8367
2128	0.8365
2137	0.8362
2146	0.8361
2155	0.8368
2164	0.8377
2173	0.8374
2182	0.8362
2191	0.8349
2200	0.8336
2209	0.8324
2218	0.8311
2227	0.8292
2236	0.8273
2245	0.8254
2254	0.8234
2263	0.8203
2272	0.8172
2281	0.8141
2290	0.8103
2299	0.8061
2308	0.8033
2317	0.8035
2326	0.806
2335	0.8008
2344	0.7903
2353	0.79
2362	0.7901
2371	0.7901
2380	0.7899
2389	0.7893
2398	0.7888
2407	0.7884
2416	0.7884
2425	0.7884
2434	0.7885
2443	0.7881
2452	0.7875
2461	0.7868
2470	0.7861
2479	0.7855
2488	0.7845
2497	0.7832
2506	0.7819
2515	0.7818
2524	0.7818
2533	0.7808
2542	0.779
2551	0.775
2560	0.7711
2569	0.7699
2578	0.771
2587	0.7721
2596	0.7728
2605	0.7731
2614	0.7678
2623	0.7688
2632	0.7707
2641	0.7735
2650	0.7761
2659	0.7765
2668	0.7764
2677	0.7758
2686	0.7749
2695	0.7735
2704	0.7719
2713	0.7695
2722	0.7671
2731	0.7664
2740	0.7665
2749	0.7669
2758	0.7667
2767	0.7661
2776	0.7648
2785	0.7628
2794	0.7608
2803	0.7584
2812	0.7555
2821	0.7532
2830	0.7534
2839	0.7535
2848	0.7541
2857	0.7557
2866	0.7578
2875	0.7603
2884	0.7619
2893	0.7593
2902	0.7532
2911	0.7462
2920	0.7405
2929	0.7358
2938	0.7384
2947	0.7399
2956	0.7378
2965	0.7337
2974	0.7265
2983	0.7214
2992	0.7183
3001	0.7218
3010	0.7233
3019	0.7215
3028	0.7201
3037	0.7195
3046	0.7172
3055	0.7142
3064	0.7101
3073	0.7042
3082	0.694
3091	0.674
3100	0.6239
3109	0.4066
3118	0.3599
3127	0.6746
3136	0.7208
3145	0.7433
3154	0.7465
3163	0.7468
3172	0.7476
3181	0.7492
3190	0.7504
3199	0.7511
3208	0.7532
3217	0.7558
3226	0.7586
3235	0.7611
3244	0.7632
3253	0.7653
3262	0.7658
3271	0.766
3280	0.7667
3289	0.7671
3298	0.768
3307	0.7688
3316	0.7694
3325	0.7699
3334	0.7705
3343	0.7707
3352	0.7704
3361	0.77
3370	0.7696
3379	0.7691
3388	0.7685
3397	0.7678
3406	0.766
3415	0.7631
3424	0.7546
3433	0.7365
3442	0.7465
3451	0.7639
3460	0.7665
3469	0.7671
3478	0.7675
3487	0.7671
3496	0.7661
3505	0.7657
3514	0.7668
3523	0.7655
3532	0.7658
3541	0.7678
3550	0.7672
3559	0.7657
3568	0.7656
3577	0.7682
3586	0.7687
3595	0.769
3604	0.7668
3613	0.7649
3622	0.7668
3631	0.7688
3640	0.7635
3649	0.7648
3658	0.7661
3667	0.7656
3676	0.7653
3685	0.7648
3694	0.7645
3703	0.764
3712	0.7635
3721	0.7619
3730	0.7606
3739	0.7595
3748	0.7589
3757	0.7589
3766	0.758
3775	0.756
3784	0.7562
3793	0.7565
