Infrared Spectrum: 3-PIPERIDINECARBAMIC ACID, 2,6-DIOXO-, BENZYL ESTER, (dl)
Formula: C13 H14 N2 O4
CAS: 24666-55-5
State: SOLID (1 mg / 650 mg KBr DISC)
Class: COBLENTZ III
Instrument: PERKIN-ELMER 521 (GRATING)
Instrument parameters: FILTERS AT 3150, 2500, 2000, 1150, 700, 410 CM ^-^1, GRATING CHANGES AT 2000, 630 CM ^-^1
Sampling: TRANSMISSION
Resolution: 4
Origin: SOUTHERN RES. INSTITUTE
1/CM	TRANSMITTANCE
241.432	0.166
250.585	0.1887
259.737	0.219
268.89	0.2731
278.042	0.3453
287.195	0.4069
296.347	0.463
305.5	0.5064
314.652	0.5275
323.805	0.5692
332.957	0.5911
342.11	0.6103
351.262	0.6297
360.415	0.6225
369.568	0.6686
378.72	0.6978
387.873	0.6359
397.025	0.2529
406.178	0.682
415.33	0.6655
424.483	0.7011
433.635	0.7505
442.788	0.7548
451.94	0.6547
461.093	0.5141
470.245	0.7019
479.398	0.7579
488.551	0.778
497.703	0.775
506.856	0.7654
516.008	0.7507
525.161	0.7388
534.313	0.7199
543.466	0.6942
552.618	0.6752
561.771	0.6793
570.923	0.7033
580.076	0.7016
589.229	0.6603
598.381	0.6556
607.534	0.717
616.686	0.7414
625.839	0.7608
634.991	0.7693
644.144	0.778
653.296	0.7713
662.449	0.7328
671.601	0.776
680.754	0.7668
689.906	0.6069
699.059	0.438
708.212	0.7391
717.364	0.6929
726.517	0.572
735.669	0.7045
744.822	0.6487
753.974	0.679
763.127	0.6139
772.279	0.7191
781.432	0.7477
790.584	0.7302
799.737	0.6908
808.889	0.6929
818.042	0.7267
827.195	0.7627
836.347	0.8049
845.5	0.8298
854.652	0.839
863.805	0.8404
872.957	0.834
882.11	0.8557
891.262	0.8574
900.415	0.855
909.567	0.8185
918.72	0.7764
927.872	0.8413
937.025	0.817
946.178	0.849
955.33	0.8464
964.483	0.8316
973.635	0.8035
982.788	0.7099
991.94	0.6951
1001.09	0.7179
1010.25	0.7595
1019.4	0.7216
1028.55	0.5507
1037.7	0.5403
1046.86	0.5771
1056.01	0.6181
1065.16	0.548
1074.31	0.7187
1083.47	0.7171
1092.62	0.7313
1101.77	0.7662
1110.92	0.7989
1120.08	0.7959
1129.23	0.791
1138.38	0.782
1147.53	0.7685
1156.69	0.7192
1165.84	0.623
1174.99	0.4687
1184.14	0.4521
1193.3	0.5475
1202.45	0.4366
1211.6	0.325
1220.75	0.3136
1229.91	0.609
1239.06	0.5414
1248.21	0.3495
1257.36	0.2002
1266.52	0.292
1275.67	0.3099
1284.82	0.6004
1293.97	0.6734
1303.13	0.4973
1312.28	0.5514
1321.43	0.6063
1330.58	0.6933
1339.74	0.5441
1348.89	0.421
1358.04	0.6284
1367.19	0.4602
1376.35	0.5977
1385.5	0.5711
1394.65	0.5179
1403.8	0.6531
1412.96	0.7162
1422.11	0.6541
1431.26	0.7437
1440.41	0.6904
1449.57	0.7252
1458.72	0.6687
1467.87	0.5207
1477.02	0.751
1486.18	0.7989
1495.33	0.7833
1504.48	0.6692
1513.64	0.7216
1522.79	0.6734
1531.94	0.6189
1541.09	0.5448
1550.25	0.4145
1559.4	0.2729
1568.55	0.4254
1577.7	0.684
1586.86	0.7586
1596.01	0.7594
1605.16	0.7738
1614.31	0.7537
1623.47	0.7333
1632.62	0.7129
1641.77	0.679
1650.92	0.6345
1660.08	0.588
1669.23	0.534
1678.38	0.4395
1687.53	0.3154
1696.69	0.1312
1705.84	0.1307
1714.99	0.2311
1724.14	0.2409
1733.3	0.1934
1742.45	0.1439
1751.6	0.1178
1760.75	0.2303
1769.91	0.4798
1779.06	0.6283
1788.21	0.6973
1797.36	0.7336
1806.52	0.7558
1815.67	0.7792
1824.82	0.801
1833.97	0.8148
1843.13	0.8326
1852.28	0.8432
1861.43	0.846
1870.58	0.847
1879.74	0.8579
1888.89	0.8629
1898.04	0.864
1907.19	0.866
1916.35	0.8697
1925.5	0.871
1934.65	0.872
1943.8	0.872
1952.96	0.8725
1962.11	0.871
1971.26	0.8714
1980.41	0.8773
1989.57	0.881
1998.72	0.882
2007.87	0.883
2017.02	0.884
2026.18	0.884
2035.33	0.884
2044.48	0.884
2053.63	0.884
2062.79	0.884
2071.94	0.884
2081.09	0.884
2090.25	0.884
2099.4	0.883
2108.55	0.883
2117.7	0.882
2126.86	0.881
2136.01	0.881
2145.16	0.881
2154.31	0.881
2163.47	0.881
2172.62	0.881
2181.77	0.881
2190.92	0.881
2200.08	0.881
2209.23	0.881
2218.38	0.881
2227.53	0.881
2236.69	0.881
2245.84	0.8808
2254.99	0.879
2264.14	0.878
2273.3	0.877
2282.45	0.875
2291.6	0.8748
2300.75	0.873
2309.91	0.873
2319.06	0.873
2328.21	0.874
2337.36	0.875
2346.52	0.877
2355.67	0.878
2364.82	0.88
2373.97	0.88
2383.13	0.88
2392.28	0.88
2401.43	0.879
2410.58	0.878
2419.74	0.878
2428.89	0.876
2438.04	0.875
2447.19	0.875
2456.35	0.873
2465.5	0.872
2474.65	0.871
2483.8	0.871
2492.96	0.8698
2502.11	0.868
2511.26	0.868
2520.41	0.868
2529.57	0.868
2538.72	0.868
2547.87	0.868
2557.02	0.8678
2566.18	0.866
2575.33	0.865
2584.48	0.865
2593.63	0.865
2602.79	0.865
2611.94	0.865
2621.09	0.864
2630.24	0.864
2639.4	0.864
2648.55	0.865
2657.7	0.865
2666.86	0.865
2676.01	0.864
2685.16	0.862
2694.31	0.8608
2703.47	0.859
2712.62	0.858
2721.77	0.856
2730.92	0.855
2740.08	0.853
2749.23	0.852
2758.38	0.8498
2767.53	0.8447
2776.69	0.836
2785.84	0.836
2794.99	0.8328
2804.14	0.8257
2813.3	0.8188
2822.45	0.8118
2831.6	0.8018
2840.75	0.7895
2849.91	0.7822
2859.06	0.7932
2868.21	0.7885
2877.36	0.7737
2886.52	0.775
2895.67	0.7758
2904.82	0.7627
2913.97	0.733
2923.13	0.7433
2932.28	0.7472
2941.43	0.7457
2950.58	0.6802
2959.74	0.7272
2968.89	0.7126
2978.04	0.7704
2987.19	0.7893
2996.35	0.7867
3005.5	0.7701
3014.65	0.7797
3023.8	0.7559
3032.96	0.7115
3042.11	0.746
3051.26	0.7374
3060.41	0.7085
3069.57	0.7082
3078.72	0.7044
3087.87	0.6853
3097.02	0.6952
3106.18	0.6825
3115.33	0.7055
3124.48	0.714
3133.63	0.7005
3142.79	0.6867
3151.94	0.6798
3161.09	0.6768
3170.24	0.6698
3179.4	0.6564
3188.55	0.6364
3197.7	0.6114
3206.85	0.5834
3216.01	0.5535
3225.16	0.527
3234.31	0.4951
3243.47	0.469
3252.62	0.4765
3261.77	0.5028
3270.92	0.536
3280.08	0.5653
3289.23	0.5735
3298.38	0.5782
3307.53	0.5738
3316.69	0.5605
3325.84	0.5412
3334.99	0.5049
3344.14	0.4522
3353.3	0.4473
3362.45	0.4884
3371.6	0.5382
3380.75	0.5778
3389.91	0.6003
3399.06	0.6142
3408.21	0.6215
3417.36	0.6345
3426.52	0.644
3435.67	0.6522
3444.82	0.6632
3453.97	0.6712
3463.13	0.6792
3472.28	0.6872
3481.43	0.6933
3490.58	0.6983
3499.74	0.7063
3508.89	0.7132
3518.04	0.7192
3527.19	0.7293
3536.35	0.7402
3545.5	0.7492
3554.65	0.7573
3563.8	0.7662
3572.96	0.7753
3582.11	0.7833
3591.26	0.7913
3600.41	0.7982
3609.57	0.8073
3618.72	0.8205
3627.87	0.8292
3637.02	0.833
3646.18	0.8352
3655.33	0.8382
3664.48	0.8408
3673.63	0.839
3682.79	0.8443
3691.94	0.8492
3701.09	0.852
3710.24	0.8532
3719.4	0.8548
3728.55	0.854
3737.7	0.854
3746.85	0.855
3756.01	0.855
3765.16	0.855
3774.31	0.855
3783.46	0.8548
3792.62	0.854
3801.77	0.855
