Infrared Spectrum: PENTANE, 1,1,1,5-TETRACHLORO-
Formula: C5 H8 Cl4
CAS: 2467-10-9
State: SOLUTION (10% IN CCl4 FOR 3800-1340, AND 10% IN CS2 FOR 1340-450 CM^-^1)
Class: COBLENTZ III
Instrument: DOW KBr FOREPRISM-GRATING
Instrument parameters: BLAZED AT 3.5, 12.0, 20.0 MICRON, CHANGED AT 5.0, 7.5, 14.9 MICRON
Sampling: TRANSMISSION
Path length: 0.011, 0.011 CM
Resolution: 4
Origin: DOW CHEMICAL COMPANY
1/CM	TRANSMITTANCE
453.913	1.033
462.609	1.039
471.304	1.036
480	1.043
488.696	1.066
497.391	1.074
506.087	1.074
514.783	1.076
523.478	1.085
532.174	1.088
540.87	1.086
549.566	1.097
558.261	1.092
566.957	1.088
575.653	1.02
584.348	0.737
593.044	0.98
601.74	1.073
610.435	1.078
619.131	1.074
627.827	1.057
636.522	1.029
645.218	0.97
653.914	0.839
662.609	0.588
671.305	0.855
680.001	0.796
688.696	0.524
697.392	0.08
706.088	0.631
714.783	0.873
723.479	0.836
732.175	0.697
740.871	0.595
749.566	0.547
758.262	0.11
766.958	0.203
775.653	0.13
784.349	0.24
793.045	0.468
801.74	0.722
810.436	0.876
819.132	0.933
827.827	0.933
836.523	0.864
845.219	0.759
853.914	0.775
862.61	0.816
871.306	0.854
880.001	0.839
888.697	0.864
897.393	0.933
906.089	0.934
914.784	0.854
923.48	0.956
932.176	0.932
940.871	0.926
949.567	0.941
958.263	0.941
966.958	0.918
975.654	0.855
984.35	0.898
993.045	0.967
1001.74	0.933
1010.44	1.027
1019.13	1.009
1027.83	0.927
1036.52	0.692
1045.22	0.751
1053.92	0.743
1062.61	0.798
1071.31	0.641
1080	0.894
1088.7	1.001
1097.39	1.073
1106.09	1.093
1114.78	1.091
1123.48	1.073
1132.18	1.04
1140.87	0.989
1149.57	0.828
1158.26	0.758
1166.96	0.952
1175.65	0.941
1184.35	0.951
1193.05	0.956
1201.74	0.914
1210.44	0.942
1219.13	0.978
1227.83	0.947
1236.52	0.956
1245.22	0.908
1253.92	0.872
1262.61	0.801
1271.31	0.845
1280	0.824
1288.7	0.737
1297.39	0.7239
1306.09	0.707
1314.79	0.771
1323.48	0.845
1332.18	0.925
1340.87	0.898
1349.57	0.861
1358.26	0.936
1366.96	0.951
1375.66	0.932
1384.35	0.93
1393.05	0.94
1401.74	0.944
1410.44	0.934
1419.13	0.917
1427.83	0.836
1436.53	0.7629
1445.22	0.774
1453.92	0.661
1462.61	0.68
1471.31	0.7793
1480	0.894
1488.7	0.888
1497.39	0.855
1506.09	0.809
1514.79	0.744
1523.48	0.702
1532.18	0.649
1540.87	0.566
1549.57	0.48
1558.26	0.493
1566.96	0.58
1575.66	0.649
1584.35	0.668
1593.05	0.725
1601.74	0.82
1610.44	0.879
1619.13	0.919
1627.83	0.938
1636.53	0.951
1645.22	0.955
1653.92	0.957
1662.61	0.957
1671.31	0.96
1680	0.957
1688.7	0.957
1697.4	0.957
1706.09	0.956
1714.79	0.961
1723.48	0.96
1732.18	0.959
1740.87	0.953
1749.57	0.956
1758.27	0.963
1766.96	0.957
1775.66	0.96
1784.35	0.963
1793.05	0.96
1801.74	0.96
1810.44	0.963
1819.14	0.961
1827.83	0.956
1836.53	0.956
1845.22	0.956
1853.92	0.955
1862.61	0.955
1871.31	0.955
1880	0.961
1888.7	0.961
1897.4	0.956
1906.09	0.959
1914.79	0.963
1923.48	0.961
1932.18	0.961
1940.87	0.96
1949.57	0.957
1958.27	0.961
1966.96	0.96
1975.66	0.957
1984.35	0.96
1993.05	0.963
2001.74	0.959
2010.44	0.957
2019.14	0.974
2027.83	0.975
2036.53	0.975
2045.22	0.974
2053.92	0.975
2062.61	0.9779
2071.31	0.974
2080.01	0.974
2088.7	0.978
2097.4	0.975
2106.09	0.9741
2114.79	0.971
2123.48	0.974
2132.18	0.974
2140.88	0.972
2149.57	0.9738
2158.27	0.978
2166.96	0.978
2175.66	0.98
2184.35	0.9781
2193.05	0.978
2201.75	0.978
2210.44	0.978
2219.14	0.979
2227.83	0.979
2236.53	0.979
2245.22	0.9755
2253.92	0.9711
2262.62	0.9697
2271.31	0.9712
2280.01	0.9643
2288.7	0.9573
2297.4	0.9512
2306.09	0.957
2314.79	0.9608
2323.48	0.9595
2332.18	0.9644
2340.88	0.9589
2349.57	0.974
2358.27	0.9768
2366.96	0.98
2375.66	0.979
2384.35	0.9788
2393.05	0.978
2401.75	0.9788
2410.44	0.9782
2419.14	0.9782
2427.83	0.979
2436.53	0.978
2445.22	0.978
2453.92	0.9788
2462.62	0.9827
2471.31	0.979
2480.01	0.979
2488.7	0.979
2497.4	0.9853
2506.09	0.9766
2514.79	0.9806
2523.49	0.9794
2532.18	0.983
2540.88	0.983
2549.57	0.983
2558.27	0.98
2566.96	0.978
2575.66	0.982
2584.36	0.98
2593.05	0.979
2601.75	0.98
2610.44	0.98
2619.14	0.979
2627.83	0.979
2636.53	0.979
2645.23	0.9794
2653.92	0.978
2662.62	0.978
2671.31	0.9754
2680.01	0.974
2688.7	0.974
2697.4	0.972
2706.09	0.971
2714.79	0.968
2723.49	0.974
2732.18	0.9722
2740.88	0.967
2749.57	0.9716
2758.27	0.972
2766.96	0.971
2775.66	0.9706
2784.36	0.97
2793.05	0.97
2801.75	0.97
2810.44	0.9649
2819.14	0.9635
2827.83	0.956
2836.53	0.9378
2845.23	0.8643
2853.92	0.8713
2862.62	0.893
2871.31	0.8506
2880.01	0.765
2888.7	0.8401
2897.4	0.8515
2906.1	0.801
2914.79	0.768
2923.49	0.7298
2932.18	0.709
2940.88	0.6837
2949.57	0.6082
2958.27	0.5097
2966.97	0.448
2975.66	0.6003
2984.36	0.8047
2993.05	0.8026
3001.75	0.815
3010.44	0.8796
3019.14	0.9329
3027.84	0.9479
3036.53	0.9538
3045.23	0.956
3053.92	0.959
3062.62	0.96
3071.31	0.9566
3080.01	0.957
3088.7	0.961
3097.4	0.963
3106.1	0.963
3114.79	0.964
3123.49	0.966
3132.18	0.964
3140.88	0.9653
3149.57	0.966
3158.27	0.968
3166.97	0.97
3175.66	0.97
3184.36	0.97
3193.05	0.967
3201.75	0.9647
3210.44	0.968
3219.14	0.971
3227.84	0.9667
3236.53	0.967
3245.23	0.968
3253.92	0.9677
3262.62	0.967
3271.31	0.967
3280.01	0.968
3288.71	0.97
3297.4	0.97
3306.1	0.9677
3314.79	0.966
3323.49	0.967
3332.18	0.97
3340.88	0.9677
3349.58	0.964
3358.27	0.966
3366.97	0.968
3375.66	0.964
3384.36	0.964
3393.05	0.964
3401.75	0.9638
3410.45	0.961
3419.14	0.961
3427.84	0.9632
3436.53	0.9656
3445.23	0.961
3453.92	0.964
3462.62	0.964
3471.31	0.9632
3480.01	0.9644
3488.71	0.9668
3497.4	0.964
3506.1	0.9683
3514.79	0.968
3523.49	0.9742
3532.18	0.976
3540.88	0.976
3549.58	0.974
3558.27	0.975
3566.97	0.976
3575.66	0.9621
3584.36	0.9687
3593.05	0.976
3601.75	0.9671
3610.45	0.971
3619.14	0.9714
3627.84	0.978
3636.53	0.982
3645.23	0.9759
3653.92	0.974
3662.62	0.9792
3671.32	0.9829
3680.01	0.9789
3688.71	0.9711
3697.4	0.976
3706.1	0.9779
3714.79	0.978
3723.49	0.983
3732.19	0.986
3740.88	0.9889
3749.58	0.985
3758.27	0.986
3766.97	0.982
3775.66	0.983
3784.36	0.987
3793.06	0.985
3801.75	0.986
