Infrared Spectrum: 2,3-Dihydroxybenzaldehyde
Formula: C 7 H 6 O 3
CAS: 24677-78-9
State: gas
Origin: EPA-IR VAPOR PHASE LIBRARY
1/CM	ABSORBANCE
549.8	0.004725
559.445	0.003105
569.09	0.002825
578.735	0.002835
588.38	0.003235
598.025	0.003285
607.67	0.003735
617.315	0.003125
626.96	0.003385
636.605	0.005905
646.251	0.006975
655.896	0.006455
665.541	0.006535
675.186	0.009705
684.831	0.013445
694.476	0.020425
704.121	0.043325
713.766	0.047995
723.411	0.034305
733.056	0.026705
742.701	0.013115
752.346	0.006975
761.991	0.008405
771.636	0.011085
781.281	0.009055
790.926	0.005455
800.571	0.002375
810.216	0.002015
819.861	0.002175
829.507	0.003865
839.152	0.007815
848.797	0.011195
858.442	0.011835
868.087	0.007715
877.732	0.003645
887.377	0.002155
897.022	0.002025
906.667	0.001845
916.312	0.0013975
925.957	0.0014843
935.602	0.001885
945.247	0.001805
954.892	0.001685
964.537	0.0014231
974.182	0.0016635
983.827	0.002255
993.472	0.004265
1003.12	0.008865
1012.76	0.010275
1022.41	0.007245
1032.05	0.002305
1041.7	0.0016439
1051.34	0.002505
1060.99	0.003865
1070.63	0.005035
1080.28	0.004105
1089.92	0.002465
1099.57	0.0013496
1109.21	0.0013227
1118.86	0.0016215
1128.5	0.001995
1138.15	0.002675
1147.79	0.004275
1157.44	0.005555
1167.08	0.006655
1176.73	0.007465
1186.37	0.012585
1196.02	0.017915
1205.66	0.023825
1215.31	0.032025
1224.95	0.037195
1234.6	0.036505
1244.24	0.041545
1253.89	0.070345
1263.53	0.110485
1273.18	0.131685
1282.82	0.101555
1292.47	0.044965
1302.11	0.015585
1311.76	0.008305
1321.4	0.006665
1331.05	0.007195
1340.69	0.009255
1350.34	0.012695
1359.98	0.017935
1369.63	0.026765
1379.27	0.036545
1388.92	0.032075
1398.56	0.020335
1408.21	0.010975
1417.85	0.008695
1427.5	0.009245
1437.14	0.014075
1446.79	0.026475
1456.43	0.052475
1466.08	0.073305
1475.73	0.065395
1485.37	0.031845
1495.02	0.018365
1504.66	0.011595
1514.31	0.006365
1523.95	0.004625
1533.6	0.004135
1543.24	0.004515
1552.89	0.004585
1562.53	0.003915
1572.18	0.003365
1581.82	0.004685
1591.47	0.006145
1601.11	0.006645
1610.76	0.007565
1620.4	0.009685
1630.05	0.010735
1639.69	0.011075
1649.34	0.019565
1658.98	0.058395
1668.63	0.097605
1678.27	0.094705
1687.92	0.043095
1697.56	0.021225
1707.21	0.012185
1716.85	0.008435
1726.5	0.005845
1736.14	0.003465
1745.79	0.002135
1755.43	0.001745
1765.08	0.001755
1774.72	0.001695
1784.37	0.0016539
1794.01	0.0013626
1803.66	0.0011935
1813.3	0.0011128
1822.95	0.0013512
1832.59	0.001795
1842.24	0.002035
1851.88	0.001665
1861.53	0.0012878
1871.17	0.0011252
1880.82	0.0012477
1890.46	0.0015546
1900.11	0.001905
1909.75	0.001675
1919.4	0.00116
1929.04	0.0009632
1938.69	0.0009141
1948.33	0.000867
1957.98	0.0008014
1967.62	0.0009474
1977.27	0.0009685
1986.91	0.0009949
1996.56	0.0009776
2006.2	0.0008486
2015.85	0.0008248
2025.49	0.0008261
2035.14	0.00068809
2044.78	0.000559
2054.43	0.0005783
2064.07	0.000527
2073.72	0.000596
2083.36	0.00073283
2093.01	0.00075587
2102.65	0.0008616
2112.3	0.00075082
2121.94	0.00072569
2131.59	0.0008059
2141.23	0.00075091
2150.88	0.00071421
2160.52	0.0006366
2170.17	0.0008115
2179.81	0.0008491
2189.46	0.0008067
2199.1	0.0007762
2208.75	0.00084
2218.39	0.0008046
2228.04	0.000669563
2237.68	0.00065693
2247.33	0.0006015
2256.97	0.0006012
2266.62	0.0007918
2276.26	0.0008344
2285.91	0.00074512
2295.55	0.00069797
2305.2	0.0006479
2314.84	0.00074988
2324.49	0.00068209
2334.13	0.00070203
2343.78	0.0006222
2353.42	0.000665431
2363.07	0.000561
2372.72	0.0007729
2382.36	0.0008434
2392.01	0.0009521
2401.65	0.0008097
2411.3	0.000843
2420.94	0.00075077
2430.59	0.00076263
2440.23	0.0009193
2449.88	0.0011624
2459.52	0.0013255
2469.17	0.0015131
2478.81	0.0016642
2488.46	0.001765
2498.1	0.0015361
2507.75	0.0012158
2517.39	0.0011877
2527.04	0.0010984
2536.68	0.0011663
2546.33	0.0013719
2555.97	0.0012571
2565.62	0.0012626
2575.26	0.0010897
2584.91	0.0012349
2594.55	0.0012974
2604.2	0.001458
2613.84	0.0015148
2623.49	0.0015664
2633.13	0.001665
2642.78	0.001725
2652.42	0.002005
2662.07	0.002015
2671.71	0.002185
2681.36	0.001915
2691	0.001945
2700.65	0.001985
2710.29	0.002065
2719.94	0.002715
2729.58	0.004115
2739.23	0.006885
2748.87	0.007915
2758.52	0.006055
2768.16	0.003165
2777.81	0.002365
2787.45	0.002445
2797.1	0.002935
2806.74	0.004155
2816.39	0.006975
2826.03	0.014485
2835.68	0.025225
2845.32	0.023665
2854.97	0.010905
2864.61	0.004385
2874.26	0.002985
2883.9	0.002725
2893.55	0.002175
2903.19	0.002065
2912.84	0.002085
2922.48	0.002005
2932.13	0.002205
2941.77	0.002105
2951.42	0.002165
2961.06	0.002225
2970.71	0.002075
2980.35	0.002105
2990	0.002165
2999.64	0.002135
3009.29	0.002355
3018.93	0.002395
3028.58	0.002945
3038.22	0.003845
3047.87	0.005595
3057.51	0.007065
3067.16	0.008715
3076.8	0.008845
3086.45	0.007605
3096.09	0.005525
3105.74	0.004845
3115.38	0.005045
3125.03	0.005625
3134.67	0.006315
3144.32	0.007215
3153.96	0.007825
3163.61	0.007815
3173.25	0.007995
3182.9	0.008055
3192.54	0.008155
3202.19	0.007665
3211.83	0.007265
3221.48	0.006635
3231.12	0.006175
3240.77	0.005815
3250.41	0.005705
3260.06	0.005465
3269.7	0.005315
3279.35	0.005145
3289	0.005325
3298.64	0.005165
3308.29	0.005125
3317.93	0.005285
3327.58	0.005555
3337.22	0.005235
3346.87	0.004875
3356.51	0.004705
3366.16	0.004515
3375.8	0.004255
3385.45	0.004015
3395.09	0.003815
3404.74	0.003515
3414.38	0.003465
3424.03	0.003355
3433.67	0.002955
3443.32	0.002835
3452.96	0.002685
3462.61	0.002365
3472.25	0.002225
3481.9	0.002095
3491.54	0.001945
3501.19	0.001715
3510.83	0.001765
3520.48	0.001695
3530.12	0.0014025
3539.77	0.0014871
3549.41	0.001725
3559.06	0.002605
3568.7	0.007605
3578.35	0.026545
3587.99	0.033785
3597.64	0.029045
3607.28	0.007415
3616.93	0.001725
3626.57	0.0008307
3636.22	0.00073118
3645.86	0.0011166
3655.51	0.0008348
3665.15	0.00062
3674.8	0.0006363
3684.44	0.00034
3694.09	0.000408
3703.73	0.000278
3713.38	0.000393
3723.02	0.00046
3732.67	0.000309
3742.31	0.000137
3751.96	0.00027
3761.6	7.8e-05
3771.25	0.00013
3780.89	0.000199
3790.54	0.000135
3800.18	0.000159
3809.83	0.00029
3819.47	0.00019
3829.12	0.0002
3838.76	6.5e-05
3848.41	0.000139
3858.05	0.000227
3867.7	0.000103
3877.34	0.000183
3886.99	0.000315
3896.63	0.000491
3906.28	0.0005775
3915.92	0.00072243
3925.57	0.000247
3935.21	0.000361
3944.86	0.000173
3954.5	0.000183
3964.15	0.00015
3973.79	0.00039
3983.44	0.000297
3993.08	0.000199
