Infrared Spectrum: N-METHYL-N-PROPARGYL-o-METHOXYBENZYLAMINE
Formula: C12 H15 N O
CAS: 2470-10-2
Class: COBLENTZ
Instrument: PERKIN-ELMER
Sampling: TRANSMISSION
Path length: CAPILLARY
Resolution: 4
Origin: ABBOTT LABORATORIES - WASHBURN
MICROMETERS	TRANSMITTANCE
2.045	0.892
2.07798	0.894
2.11096	0.894
2.14394	0.894
2.17692	0.897
2.2099	0.8969
2.24288	0.892
2.27586	0.897
2.30884	0.8911
2.34182	0.8821
2.3748	0.882
2.40778	0.8821
2.44076	0.882
2.47374	0.886
2.50672	0.8841
2.5397	0.882
2.57268	0.886
2.60566	0.8861
2.63864	0.882
2.67162	0.8889
2.7046	0.8922
2.73758	0.8922
2.77056	0.894
2.80354	0.8869
2.83652	0.874
2.8695	0.874
2.90248	0.8719
2.93546	0.8669
2.96844	0.861
3.00142	0.8518
3.0344	0.8264
3.06738	0.63
3.10036	0.6442
3.13334	0.7721
3.16632	0.7751
3.1993	0.794
3.23228	0.8072
3.26526	0.8168
3.29824	0.7668
3.33122	0.759
3.3642	0.7039
3.39717	0.6565
3.43015	0.5075
3.46313	0.4932
3.49611	0.5563
3.52909	0.596
3.56207	0.5248
3.59505	0.581
3.62803	0.576
3.66101	0.6678
3.69399	0.79
3.72697	0.831
3.75995	0.844
3.79293	0.8569
3.82591	0.862
3.85889	0.862
3.89187	0.866
3.92485	0.866
3.95783	0.8661
3.99081	0.867
4.02379	0.869
4.05677	0.871
4.08975	0.8739
4.12273	0.876
4.15571	0.879
4.18869	0.881
4.22167	0.8771
4.25465	0.877
4.28763	0.877
4.32061	0.879
4.35359	0.879
4.38657	0.881
4.41955	0.881
4.45253	0.876
4.48551	0.876
4.51849	0.877
4.55147	0.8791
4.58445	0.879
4.61743	0.8771
4.65041	0.877
4.68339	0.876
4.71637	0.8759
4.74935	0.8718
4.78233	0.8658
4.81531	0.866
4.84829	0.861
4.88127	0.851
4.91425	0.856
4.94723	0.8659
4.98021	0.857
5.01319	0.867
5.04617	0.8687
5.07915	0.872
5.11213	0.871
5.14511	0.866
5.17809	0.861
5.21107	0.862
5.24405	0.862
5.27703	0.8556
5.31001	0.8572
5.34299	0.864
5.37597	0.866
5.40895	0.867
5.44193	0.8706
5.47491	0.8698
5.50789	0.8665
5.54087	0.8681
5.57385	0.8633
5.60683	0.8635
5.63981	0.8644
5.67279	0.8661
5.70577	0.864
5.73875	0.866
5.77173	0.861
5.80471	0.8627
5.83769	0.8599
5.87067	0.854
5.90365	0.8482
5.93663	0.8367
5.96961	0.8335
6.00259	0.834
6.03557	0.8333
6.06855	0.826
6.10152	0.829
6.1345	0.8263
6.16748	0.8084
6.20046	0.7695
6.23344	0.5768
6.26642	0.5104
6.2994	0.5137
6.33238	0.6895
6.36536	0.7921
6.39834	0.8159
6.43132	0.8169
6.4643	0.827
6.49728	0.8263
6.53026	0.819
6.56324	0.8025
6.59622	0.7813
6.6292	0.7366
6.66218	0.6044
6.69516	0.3957
6.72814	0.1951
6.76112	0.5139
6.7941	0.5583
6.82708	0.3617
6.86006	0.2649
6.89304	0.3219
6.92602	0.4126
6.959	0.4026
6.99198	0.4002
7.02496	0.6187
7.05794	0.682
7.09092	0.6992
7.1239	0.7648
7.15688	0.7849
7.18986	0.7824
7.22284	0.7794
7.25582	0.7433
7.2888	0.6928
7.32178	0.5762
7.35476	0.5842
7.38774	0.6275
7.42072	0.6875
7.4537	0.7
7.48668	0.6659
7.51966	0.5744
7.55264	0.5054
7.58562	0.5585
7.6186	0.6325
7.65158	0.6418
7.68456	0.6248
7.71754	0.603
7.75052	0.5217
7.7835	0.461
7.81648	0.5286
7.84946	0.5508
7.88244	0.5457
7.91542	0.5354
7.9484	0.478
7.98138	0.3754
8.01436	0.1676
8.04734	0.1321
8.08032	0.108
8.1133	0.2099
8.14628	0.477
8.17926	0.6156
8.21224	0.6881
8.24522	0.7306
8.2782	0.737
8.31118	0.7133
8.34416	0.6936
8.37714	0.6732
8.41012	0.657
8.4431	0.6577
8.47608	0.648
8.50906	0.5969
8.54204	0.6039
8.57502	0.6745
8.608	0.6761
8.64098	0.622
8.67396	0.6743
8.70694	0.6887
8.73992	0.6922
8.7729	0.6928
8.80587	0.632
8.83885	0.5748
8.87183	0.5513
8.90481	0.5602
8.93779	0.6192
8.97077	0.6324
9.00375	0.524
9.03673	0.4065
9.06971	0.3979
9.10269	0.5291
9.13567	0.5799
9.16865	0.6428
9.20163	0.6981
9.23461	0.7505
9.26759	0.7675
9.30057	0.7796
9.33355	0.7831
9.36653	0.777
9.39951	0.7738
9.43249	0.7433
9.46547	0.6746
9.49845	0.4671
9.53143	0.3869
9.56441	0.4756
9.59739	0.5226
9.63037	0.4567
9.66335	0.3339
9.69633	0.2415
9.72931	0.2243
9.76229	0.2913
9.79527	0.4046
9.82825	0.5294
9.86123	0.6151
9.89421	0.679
9.92719	0.7293
9.96017	0.7578
9.99315	0.7714
10.0261	0.7812
10.0591	0.78
10.0921	0.7637
10.1251	0.7535
10.158	0.7503
10.191	0.7499
10.224	0.737
10.257	0.727
10.29	0.7287
10.3229	0.7409
10.3559	0.7497
10.3889	0.763
10.4219	0.7701
10.4549	0.7756
10.4878	0.7792
10.5208	0.779
10.5538	0.785
10.5868	0.785
10.6198	0.7772
10.6527	0.7576
10.6857	0.7482
10.7187	0.74
10.7517	0.7552
10.7847	0.774
10.8176	0.7956
10.8506	0.808
10.8836	0.8143
10.9166	0.8108
10.9496	0.807
10.9825	0.8024
11.0155	0.7779
11.0485	0.7519
11.0815	0.7342
11.1145	0.7179
11.1474	0.7278
11.1804	0.7399
11.2134	0.7581
11.2464	0.7805
11.2794	0.7916
11.3123	0.806
11.3453	0.8218
11.3783	0.817
11.4113	0.819
11.4443	0.813
11.4772	0.8047
11.5102	0.795
11.5432	0.7759
11.5762	0.7548
11.6092	0.725
11.6421	0.7172
11.6751	0.719
11.7081	0.722
11.7411	0.725
11.7741	0.727
11.807	0.7294
11.84	0.742
11.873	0.7442
11.906	0.7437
11.939	0.7248
11.9719	0.7121
12.0049	0.705
12.0379	0.7083
12.0709	0.7005
12.1039	0.7033
12.1368	0.7095
12.1698	0.7177
12.2028	0.7243
12.2358	0.7292
12.2688	0.734
12.3017	0.7351
12.3347	0.745
12.3677	0.7547
12.4007	0.7664
12.4337	0.7658
12.4666	0.7661
12.4996	0.7687
12.5326	0.7582
12.5656	0.757
12.5986	0.752
12.6315	0.7466
12.6645	0.7371
12.6975	0.7292
12.7305	0.7205
12.7635	0.7056
12.7964	0.6815
12.8294	0.6464
12.8624	0.6057
12.8954	0.5788
12.9284	0.5644
12.9613	0.5546
12.9943	0.5345
13.0273	0.5186
13.0603	0.4634
13.0933	0.3977
13.1262	0.3321
13.1592	0.2549
13.1922	0.2049
13.2252	0.1661
13.2582	0.1637
13.2911	0.1769
13.3241	0.2309
13.3571	0.3308
13.3901	0.4427
13.4231	0.5284
13.456	0.5769
13.489	0.6027
13.522	0.6212
13.555	0.6338
13.588	0.633
13.6209	0.6365
13.6539	0.63
13.6869	0.6149
13.7199	0.5981
13.7529	0.59
13.7858	0.585
13.8188	0.581
13.8518	0.592
13.8848	0.5978
13.9178	0.6057
13.9507	0.613
13.9837	0.613
14.0167	0.617
14.0497	0.6172
14.0827	0.638
14.1156	0.6525
14.1486	0.667
14.1816	0.665
14.2146	0.675
14.2476	0.6741
14.2805	0.673
14.3135	0.672
14.3465	0.672
14.3795	0.67
14.4125	0.6701
14.4454	0.6655
14.4784	0.659
14.5114	0.655
14.5444	0.6474
14.5774	0.642
14.6103	0.6326
14.6433	0.6263
14.6763	0.6193
14.7093	0.6029
14.7423	0.6
14.7752	0.5882
14.8082	0.578
14.8412	0.5702
14.8742	0.5587
14.9072	0.5504
14.9401	0.5455
14.9731	0.5421
