Infrared Spectrum: N-CYCLOHEXYLMETHYL-N-METHYLPROPARGYLAMINE
Formula: C11 H19 N
CAS: 2470-11-3
Class: COBLENTZ
Instrument: PERKIN-ELMER
Sampling: TRANSMISSION
Path length: CAPILLARY
Resolution: 4
Origin: ABBOTT LABORATORIES - WASHBURN
MICROMETERS	TRANSMITTANCE
2.026	0.877
2.0589	0.872
2.09179	0.875
2.12469	0.875
2.15758	0.8739
2.19048	0.875
2.22337	0.877
2.25627	0.877
2.28916	0.8719
2.32206	0.854
2.35495	0.852
2.38785	0.85
2.42074	0.854
2.45364	0.855
2.48653	0.857
2.51943	0.857
2.55232	0.8504
2.58522	0.8547
2.61811	0.869
2.65101	0.86
2.6839	0.864
2.7168	0.8719
2.74969	0.8719
2.78259	0.87
2.81548	0.867
2.84838	0.8641
2.88127	0.8541
2.91417	0.8505
2.94706	0.834
2.97996	0.812
3.01285	0.4608
3.04575	0.613
3.07864	0.7354
3.11154	0.7525
3.14443	0.7831
3.17733	0.815
3.21022	0.8266
3.24312	0.8337
3.27601	0.831
3.30891	0.7981
3.3418	0.566
3.3747	0.2537
3.40759	0.0976
3.44049	0.1685
3.47338	0.311
3.50628	0.1948
3.53917	0.428
3.57207	0.3651
3.60496	0.4778
3.63786	0.6466
3.67075	0.7024
3.70365	0.7686
3.73654	0.779
3.76944	0.7688
3.80233	0.8056
3.83523	0.822
3.86812	0.8341
3.90102	0.85
3.93391	0.854
3.96681	0.855
3.9997	0.86
4.0326	0.8649
4.06549	0.864
4.09839	0.8668
4.13128	0.867
4.16418	0.865
4.19707	0.867
4.22997	0.862
4.26286	0.865
4.29576	0.8689
4.32865	0.869
4.36155	0.867
4.39445	0.8672
4.42734	0.8622
4.46024	0.864
4.49313	0.8649
4.52603	0.865
4.55892	0.864
4.59182	0.865
4.62471	0.8621
4.65761	0.8648
4.6905	0.864
4.7234	0.8572
4.75629	0.852
4.78919	0.864
4.82208	0.865
4.85498	0.872
4.88787	0.869
4.92077	0.87
4.95366	0.8669
4.98656	0.8699
5.01945	0.872
5.05235	0.87
5.08524	0.872
5.11814	0.8644
5.15103	0.8661
5.18393	0.869
5.21682	0.869
5.24972	0.869
5.28261	0.8654
5.31551	0.8691
5.3484	0.87
5.3813	0.867
5.41419	0.8686
5.44709	0.872
5.47998	0.87
5.51288	0.8695
5.54577	0.869
5.57867	0.869
5.61156	0.865
5.64446	0.869
5.67735	0.865
5.71025	0.8653
5.74314	0.8597
5.77604	0.851
5.80893	0.8364
5.84183	0.8415
5.87472	0.842
5.90762	0.8361
5.94051	0.824
5.97341	0.8193
6.0063	0.8291
6.0392	0.8359
6.07209	0.844
6.10499	0.842
6.13788	0.8404
6.17078	0.8448
6.20367	0.85
6.23657	0.85
6.26946	0.849
6.30236	0.8456
6.33525	0.8461
6.36815	0.847
6.40104	0.8489
6.43394	0.85
6.46683	0.847
6.49973	0.849
6.53262	0.8428
6.56552	0.836
6.59841	0.8394
6.63131	0.831
6.66421	0.8238
6.6971	0.814
6.73	0.7965
6.76289	0.7404
6.79579	0.5675
6.82868	0.4629
6.86158	0.4011
6.89447	0.2979
6.92737	0.387
6.96026	0.5515
6.99316	0.6188
7.02605	0.683
7.05895	0.6929
7.09184	0.7676
7.12474	0.7804
7.15763	0.793
7.19053	0.7828
7.22342	0.7306
7.25632	0.6807
7.28921	0.7119
7.32211	0.6978
7.355	0.671
7.3879	0.6659
7.42079	0.663
7.45369	0.6727
7.48658	0.692
7.51948	0.5934
7.55237	0.5334
7.58527	0.6211
7.61816	0.6245
7.65106	0.6419
7.68395	0.6664
7.71685	0.6749
7.74974	0.6582
7.78264	0.6323
7.81553	0.6459
7.84843	0.672
7.88132	0.683
7.91422	0.615
7.94711	0.591
7.98001	0.6193
8.0129	0.5879
8.0458	0.5759
8.07869	0.6784
8.11159	0.7227
8.14448	0.7502
8.17738	0.7638
8.21027	0.7754
8.24317	0.783
8.27606	0.772
8.30896	0.7183
8.34185	0.701
8.37475	0.7008
8.40764	0.6951
8.44054	0.7211
8.47343	0.708
8.50633	0.7364
8.53922	0.761
8.57212	0.744
8.60501	0.6952
8.63791	0.6704
8.6708	0.5777
8.7037	0.6576
8.73659	0.7186
8.76949	0.746
8.80238	0.7335
8.83528	0.6717
8.86817	0.6083
8.90107	0.571
8.93396	0.5892
8.96686	0.5455
8.99976	0.5335
9.03265	0.6207
9.06555	0.6899
9.09844	0.7153
9.13134	0.708
9.16423	0.69
9.19713	0.6922
9.23002	0.6735
9.26292	0.6726
9.29581	0.7047
9.32871	0.7202
9.3616	0.7579
9.3945	0.7746
9.42739	0.7788
9.46029	0.7655
9.49318	0.7409
9.52608	0.733
9.55897	0.7129
9.59187	0.654
9.62476	0.5262
9.65766	0.3712
9.69055	0.32
9.72345	0.3582
9.75634	0.4476
9.78924	0.5631
9.82213	0.6639
9.85503	0.7189
9.88792	0.7564
9.92082	0.7818
9.95371	0.7996
9.98661	0.813
10.0195	0.8214
10.0524	0.8247
10.0853	0.827
10.1182	0.8237
10.1511	0.8117
10.184	0.7911
10.2169	0.7831
10.2498	0.775
10.2827	0.7516
10.3156	0.7522
10.3485	0.758
10.3813	0.7619
10.4142	0.7717
10.4471	0.7818
10.48	0.7932
10.5129	0.798
10.5458	0.798
10.5787	0.7958
10.6116	0.8006
10.6445	0.8153
10.6774	0.829
10.7103	0.831
10.7432	0.8349
10.7761	0.832
10.809	0.8287
10.8419	0.8139
10.8748	0.7964
10.9077	0.7704
10.9406	0.768
10.9735	0.764
11.0064	0.7593
11.0392	0.7376
11.0721	0.7053
11.105	0.6606
11.1379	0.624
11.1708	0.6008
11.2037	0.5568
11.2366	0.5604
11.2695	0.6476
11.3024	0.721
11.3353	0.7563
11.3682	0.7851
11.4011	0.7989
11.434	0.8148
11.4669	0.814
11.4998	0.809
11.5327	0.8058
11.5656	0.804
11.5985	0.7816
11.6314	0.7276
11.6643	0.6774
11.6972	0.6693
11.73	0.6876
11.7629	0.6543
11.7958	0.5794
11.8287	0.6309
11.8616	0.7254
11.8945	0.7409
11.9274	0.75
11.9603	0.748
11.9932	0.7266
12.0261	0.7188
12.059	0.7008
12.0919	0.6603
12.1248	0.6474
12.1577	0.681
12.1906	0.7242
12.2235	0.7541
12.2564	0.7729
12.2893	0.7908
12.3222	0.798
12.3551	0.801
12.3879	0.804
12.4208	0.8115
12.4537	0.809
12.4866	0.806
12.5195	0.807
12.5524	0.816
12.5853	0.809
12.6182	0.807
12.6511	0.8042
12.684	0.8012
12.7169	0.8013
12.7498	0.7961
12.7827	0.788
12.8156	0.7788
12.8485	0.7897
12.8814	0.794
12.9143	0.7978
12.9472	0.793
12.9801	0.794
13.013	0.794
13.0458	0.794
13.0787	0.791
13.1116	0.782
13.1445	0.783
13.1774	0.7804
13.2103	0.776
13.2432	0.7725
13.2761	0.7679
13.309	0.7632
13.3419	0.7613
13.3748	0.758
13.4077	0.7566
13.4406	0.751
13.4735	0.7455
13.5064	0.745
13.5393	0.743
13.5722	0.738
13.6051	0.738
13.638	0.74
13.6709	0.738
13.7038	0.74
13.7366	0.74
13.7695	0.7366
13.8024	0.7354
13.8353	0.734
13.8682	0.73
13.9011	0.7257
13.934	0.7277
13.9669	0.723
13.9998	0.7251
14.0327	0.716
14.0656	0.7116
14.0985	0.708
14.1314	0.711
14.1643	0.7021
14.1972	0.692
14.2301	0.6872
14.263	0.68
14.2959	0.6777
14.3288	0.67
14.3617	0.6652
14.3945	0.663
14.4274	0.66
14.4603	0.6537
14.4932	0.653
14.5261	0.6495
14.559	0.6332
14.5919	0.6264
14.6248	0.622
14.6577	0.6118
14.6906	0.607
14.7235	0.5922
14.7564	0.581
14.7893	0.5698
14.8222	0.559
14.8551	0.5493
14.888	0.5346
14.9209	0.5273
14.9538	0.5224
