Infrared Spectrum: ADENOSINE, 2-METHOXY-
Formula: C11 H15 N5 O5
CAS: 24723-77-1
State: SOLID (0.8 mg / 650 mg, KBr DISC)
Class: COBLENTZ III
Instrument: PERKIN-ELMER 21 (GRATING)
Instrument parameters: FILTER CHANGE AT ABOUT 1090 CM^-^1
Sampling: TRANSMISSION
Resolution: 2
Origin: SOUTHERN RESEARCH INSTITUTE
1/CM	TRANSMITTANCE
611.013	0.597
620.178	0.5951
629.344	0.5823
638.509	0.5496
647.674	0.4847
656.84	0.5
666.005	0.5015
675.17	0.47
684.336	0.4844
693.501	0.5042
702.666	0.5037
711.831	0.562
720.997	0.58
730.162	0.5751
739.327	0.3479
748.493	0.3644
757.658	0.5474
766.823	0.5947
775.989	0.6042
785.154	0.5915
794.319	0.2885
803.485	0.5772
812.65	0.625
821.815	0.622
830.981	0.626
840.146	0.6117
849.311	0.4919
858.477	0.296
867.642	0.4706
876.807	0.5871
885.972	0.6139
895.138	0.64
904.303	0.5234
913.468	0.5779
922.634	0.6965
931.799	0.7325
940.964	0.733
950.13	0.7224
959.295	0.7114
968.46	0.6682
977.626	0.335
986.791	0.5013
995.956	0.475
1005.12	0.2626
1014.29	0.2408
1023.45	0.2166
1032.62	0.201
1041.78	0.4119
1050.95	0.2172
1060.11	0.0983
1069.28	0.3262
1078.44	0.3056
1087.61	0.3623
1096.77	0.4014
1105.94	0.5227
1115.11	0.5039
1124.27	0.4901
1133.44	0.4431
1142.6	0.2835
1151.77	0.4188
1160.93	0.5033
1170.1	0.6525
1179.26	0.692
1188.43	0.6744
1197.59	0.569
1206.76	0.4239
1215.92	0.4414
1225.09	0.5265
1234.25	0.4318
1243.42	0.5746
1252.59	0.5825
1261.75	0.5438
1270.92	0.3832
1280.08	0.3016
1289.25	0.2709
1298.41	0.4343
1307.58	0.4431
1316.74	0.386
1325.91	0.3557
1335.07	0.421
1344.24	0.3526
1353.4	0.2616
1362.57	0.167
1371.73	0.1904
1380.9	0.1176
1390.06	0.1462
1399.23	0.1544
1408.4	0.1796
1417.56	0.341
1426.73	0.4722
1435.89	0.4505
1445.06	0.3483
1454.22	0.4493
1463.39	0.5012
1472.55	0.3695
1481.72	0.2461
1490.88	0.1365
1500.05	0.2423
1509.21	0.41
1518.38	0.2502
1527.54	0.3266
1536.71	0.5887
1545.88	0.6796
1555.04	0.6991
1564.21	0.661
1573.37	0.6285
1582.54	0.5315
1591.7	0.3193
1600.87	0.1439
1610.03	0.0677
1619.2	0.1527
1628.36	0.2356
1637.53	0.0872
1646.69	0.0166
1655.86	0.1224
1665.02	0.2012
1674.19	0.4191
1683.36	0.5631
1692.52	0.626
1701.69	0.6626
1710.85	0.7154
1720.02	0.7643
1729.18	0.7702
1738.35	0.787
1747.51	0.7998
1756.68	0.812
1765.84	0.8253
1775.01	0.846
1784.17	0.8587
1793.34	0.8636
1802.5	0.8732
1811.67	0.881
1820.83	0.884
1830	0.884
1839.17	0.884
1848.33	0.888
1857.5	0.889
1866.66	0.891
1875.83	0.891
1884.99	0.889
1894.16	0.8928
1903.32	0.8948
1912.49	0.8942
1921.65	0.893
1930.82	0.899
1939.98	0.8938
1949.15	0.896
1958.31	0.899
1967.48	0.901
1976.65	0.8964
1985.81	0.889
1994.98	0.8914
2004.14	0.8982
2013.31	0.902
2022.47	0.898
2031.64	0.8967
2040.8	0.8967
2049.97	0.8948
2059.13	0.893
2068.3	0.8908
2077.46	0.89
2086.63	0.89
2095.79	0.889
2104.96	0.8882
2114.12	0.888
2123.29	0.886
2132.46	0.886
2141.62	0.886
2150.79	0.886
2159.95	0.886
2169.12	0.886
2178.28	0.8883
2187.45	0.895
2196.61	0.893
2205.78	0.889
2214.94	0.8858
2224.11	0.885
2233.27	0.8852
2242.44	0.8863
2251.6	0.89
2260.77	0.891
2269.94	0.8888
2279.1	0.885
2288.27	0.88
2297.43	0.8728
2306.6	0.8648
2315.76	0.858
2324.93	0.859
2334.09	0.859
2343.26	0.863
2352.42	0.864
2361.59	0.8608
2370.75	0.855
2379.92	0.8602
2389.08	0.861
2398.25	0.8508
2407.41	0.8458
2416.58	0.8415
2425.75	0.825
2434.91	0.816
2444.08	0.8105
2453.24	0.7937
2462.41	0.7847
2471.57	0.7738
2480.74	0.7728
2489.9	0.77
2499.07	0.768
2508.23	0.7722
2517.4	0.773
2526.56	0.7717
2535.73	0.769
2544.89	0.7688
2554.06	0.76
2563.23	0.7598
2572.39	0.7518
2581.56	0.739
2590.72	0.728
2599.89	0.7097
2609.05	0.6967
2618.22	0.6864
2627.38	0.6654
2636.55	0.6557
2645.71	0.6398
2654.88	0.6382
2664.04	0.639
2673.21	0.6442
2682.37	0.6478
2691.54	0.6388
2700.71	0.6297
2709.87	0.6187
2719.04	0.6057
2728.2	0.5745
2737.37	0.5612
2746.53	0.532
2755.7	0.5104
2764.86	0.4897
2774.03	0.481
2783.19	0.4813
2792.36	0.4892
2801.52	0.496
2810.69	0.5062
2819.85	0.5205
2829.02	0.51
2838.18	0.498
2847.35	0.4968
2856.52	0.4938
2865.68	0.49
2874.85	0.486
2884.01	0.4838
2893.18	0.4695
2902.34	0.4444
2911.51	0.4052
2920.67	0.3577
2929.84	0.352
2939	0.3542
2948.17	0.3632
2957.33	0.3831
2966.5	0.414
2975.66	0.4097
2984.83	0.3975
2994	0.393
3003.16	0.39
3012.33	0.3837
3021.49	0.3755
3030.66	0.368
3039.82	0.3627
3048.99	0.3548
3058.15	0.3497
3067.32	0.3367
3076.48	0.3162
3085.65	0.2952
3094.81	0.2815
3103.98	0.274
3113.14	0.2592
3122.31	0.25
3131.47	0.2287
3140.64	0.2115
3149.81	0.196
3158.97	0.1817
3168.14	0.1634
3177.3	0.1515
3186.47	0.1408
3195.63	0.1337
3204.8	0.128
3213.96	0.1323
3223.13	0.1402
3232.29	0.1472
3241.46	0.1543
3250.62	0.16
3259.79	0.1692
3268.95	0.1863
3278.12	0.1973
3287.29	0.204
3296.45	0.2082
3305.62	0.209
3314.78	0.2008
3323.95	0.1878
3333.11	0.1614
3342.28	0.1435
3351.44	0.1134
3360.61	0.091
3369.77	0.1115
3378.94	0.1331
3388.1	0.1899
3397.27	0.2263
3406.43	0.2618
3415.6	0.274
3424.77	0.2793
3433.93	0.29
3443.1	0.2867
3452.26	0.274
3461.43	0.2906
3470.59	0.3271
3479.76	0.349
3488.92	0.3592
3498.09	0.3879
3507.25	0.4418
3516.42	0.4666
3525.58	0.5035
3534.75	0.5313
3543.91	0.5595
3553.08	0.5899
3562.24	0.6185
3571.41	0.6323
3580.58	0.6703
3589.74	0.7093
3598.91	0.7468
3608.07	0.7816
3617.24	0.8033
3626.4	0.8252
3635.57	0.8372
3644.73	0.8593
3653.9	0.8772
3663.06	0.8863
3672.23	0.8908
3681.39	0.894
3690.56	0.898
3699.72	0.901
3708.89	0.902
3718.06	0.9032
3727.22	0.908
3736.39	0.916
3745.55	0.919
3754.72	0.9187
3763.88	0.916
3773.05	0.915
3782.21	0.915
3791.38	0.915
3800.54	0.9193
3809.71	0.924
3818.87	0.9208
3828.04	0.9168
3837.2	0.914
3846.37	0.915
3855.53	0.917
3864.7	0.917
3873.87	0.919
3883.03	0.919
3892.2	0.92
3901.36	0.92
3910.53	0.919
3919.69	0.916
3928.86	0.915
3938.02	0.914
3947.19	0.912
3956.35	0.9065
3965.52	0.9043
3974.68	0.903
3983.85	0.903
3993.01	0.9007
4002.18	0.8967
4011.35	0.881
4020.51	0.8797
