Infrared Spectrum: 6-Methoxy-2-tetralone
Formula: C 11 H 12 O 2
CAS: 2472-22-2
State: gas
Origin: EPA-IR VAPOR PHASE LIBRARY
1/CM	ABSORBANCE
549.8	0.001954
559.445	0.002114
569.09	0.002564
578.735	0.002554
588.38	0.001874
598.025	0.001614
607.67	0.0014619
617.315	0.0013899
626.96	0.0013735
636.605	0.00125
646.251	0.0012436
655.896	0.0008591
665.541	0.0008917
675.186	0.0010739
684.831	0.0012987
694.476	0.0012282
704.121	0.0008323
713.766	0.0009089
723.411	0.0012972
733.056	0.001784
742.701	0.001534
752.346	0.0011506
761.991	0.0010046
771.636	0.0011195
781.281	0.001754
790.926	0.003684
800.571	0.005814
810.216	0.005914
819.861	0.004094
829.507	0.002544
839.152	0.002454
848.797	0.002684
858.442	0.003024
868.087	0.004634
877.732	0.005784
887.377	0.005274
897.022	0.002914
906.667	0.001784
916.312	0.001964
925.957	0.002934
935.602	0.002394
945.247	0.00141
954.892	0.0011697
964.537	0.0013751
974.182	0.002084
983.827	0.002864
993.472	0.002544
1003.12	0.002594
1012.76	0.003454
1022.41	0.005724
1032.05	0.010904
1041.7	0.014734
1051.34	0.009804
1060.99	0.004284
1070.63	0.002944
1080.28	0.002964
1089.92	0.003674
1099.57	0.006654
1109.21	0.010294
1118.86	0.011164
1128.5	0.010184
1138.15	0.010374
1147.79	0.015724
1157.44	0.019054
1167.08	0.013044
1176.73	0.010764
1186.37	0.012584
1196.02	0.012464
1205.66	0.009564
1215.31	0.008644
1224.95	0.013274
1234.6	0.017934
1244.24	0.016454
1253.89	0.018484
1263.53	0.031784
1273.18	0.031054
1282.82	0.020194
1292.47	0.016474
1302.11	0.011094
1311.76	0.008844
1321.4	0.009754
1331.05	0.011164
1340.69	0.006984
1350.34	0.003274
1359.98	0.002494
1369.63	0.002364
1379.27	0.002604
1388.92	0.002864
1398.56	0.003954
1408.21	0.006274
1417.85	0.009284
1427.5	0.011224
1437.14	0.009564
1446.79	0.008044
1456.43	0.008434
1466.08	0.010284
1475.73	0.010734
1485.37	0.015854
1495.02	0.035634
1504.66	0.034684
1514.31	0.011964
1523.95	0.004954
1533.6	0.003304
1543.24	0.002544
1552.89	0.002464
1562.53	0.003264
1572.18	0.005684
1581.82	0.008314
1591.47	0.008324
1601.11	0.011894
1610.76	0.016514
1620.4	0.012624
1630.05	0.006214
1639.69	0.003414
1649.34	0.002524
1658.98	0.002254
1668.63	0.002494
1678.27	0.003144
1687.92	0.004234
1697.56	0.006134
1707.21	0.008824
1716.85	0.014374
1726.5	0.028504
1736.14	0.054214
1745.79	0.049244
1755.43	0.018694
1765.08	0.008414
1774.72	0.005464
1784.37	0.003374
1794.01	0.002174
1803.66	0.001704
1813.3	0.0014374
1822.95	0.0012989
1832.59	0.0010896
1842.24	0.0011702
1851.88	0.001121
1861.53	0.0011716
1871.17	0.0011661
1880.82	0.0012067
1890.46	0.0010614
1900.11	0.0008856
1909.75	0.0008452
1919.4	0.0007954
1929.04	0.0007587
1938.69	0.0007019
1948.33	0.0006906
1957.98	0.0006936
1967.62	0.0007983
1977.27	0.0007615
1986.91	0.0008973
1996.56	0.0008667
2006.2	0.0007958
2015.85	0.0007989
2025.49	0.0008388
2035.14	0.0008465
2044.78	0.0008644
2054.43	0.0009541
2064.07	0.0009798
2073.72	0.0010468
2083.36	0.0010401
2093.01	0.0009263
2102.65	0.0006884
2112.3	0.0006561
2121.94	0.0007072
2131.59	0.0007144
2141.23	0.0006816
2150.88	0.0007693
2160.52	0.0007329
2170.17	0.000773
2179.81	0.0007205
2189.46	0.0008019
2199.1	0.0007026
2208.75	0.0007108
2218.39	0.0006516
2228.04	0.0006076
2237.68	0.0006299
2247.33	0.0006162
2256.97	0.00053284
2266.62	0.0006144
2276.26	0.00052537
2285.91	0.000659
2295.55	0.0006579
2305.2	0.0006861
2314.84	0.0006474
2324.49	0.0006707
2334.13	0.00059718
2343.78	0.00058825
2353.42	0.00055152
2363.07	0.0006929
2372.72	0.00055069
2382.36	0.00058003
2392.01	0.0006451
2401.65	0.00058046
2411.3	0.00055268
2420.94	0.000679
2430.59	0.0006222
2440.23	0.0004826
2449.88	0.00058616
2459.52	0.00054035
2469.17	0.00053638
2478.81	0.0006632
2488.46	0.000684
2498.1	0.0006898
2507.75	0.0006348
2517.39	0.0006427
2527.04	0.0006731
2536.68	0.000703
2546.33	0.0006288
2555.97	0.0007457
2565.62	0.0006997
2575.26	0.0006677
2584.91	0.00059904
2594.55	0.0006367
2604.2	0.0006471
2613.84	0.00055963
2623.49	0.0006427
2633.13	0.000683
2642.78	0.0006268
2652.42	0.0006535
2662.07	0.00054142
2671.71	0.000523926
2681.36	0.0004639
2691	0.0004793
2700.65	0.0005719
2710.29	0.00061058
2719.94	0.0006872
2729.58	0.000818
2739.23	0.0007444
2748.87	0.0007374
2758.52	0.0007901
2768.16	0.0008444
2777.81	0.0009766
2787.45	0.0012312
2797.1	0.001704
2806.74	0.002014
2816.39	0.002534
2826.03	0.003374
2835.68	0.005794
2845.32	0.008654
2854.97	0.008504
2864.61	0.007794
2874.26	0.006674
2883.9	0.005924
2893.55	0.006074
2903.19	0.008174
2912.84	0.010934
2922.48	0.010694
2932.13	0.010364
2941.77	0.014224
2951.42	0.017284
2961.06	0.015834
2970.71	0.010854
2980.35	0.006364
2990	0.005854
2999.64	0.008224
3009.29	0.009864
3018.93	0.006704
3028.58	0.006104
3038.22	0.004654
3047.87	0.002944
3057.51	0.002704
3067.16	0.002874
3076.8	0.002864
3086.45	0.002464
3096.09	0.001904
3105.74	0.0013009
3115.38	0.001183
3125.03	0.000992
3134.67	0.0004647
3144.32	0.0004753
3153.96	0.00050844
3163.61	0.000387
3173.25	0.0004881
3182.9	0.000392
3192.54	0.000363
3202.19	0.000228
3211.83	0.00017
3221.48	0.000258
3231.12	0.000285
3240.77	0.00012
3250.41	0.000273
3260.06	0.000177
3269.7	0.0003
3279.35	0.000159
3289	0.000191
3298.64	4e-06
3308.29	0.000252
3317.93	0.000102
3327.58	0.000242
3337.22	0.000155
3346.87	0.000349
3356.51	0.00014
3366.16	0.00011
3375.8	0.000326
3385.45	0.000346
3395.09	0.00029
3404.74	0.000361
3414.38	0.000247
3424.03	0.00055124
3433.67	0.00050865
3443.32	0.0007978
3452.96	0.0011537
3462.61	0.0010691
3472.25	0.0006883
3481.9	0.00059856
3491.54	0.000441
3501.19	0.000374
3510.83	0.000351
3520.48	0.000294
3530.12	0.000231
3539.77	0.000326
3549.41	0.000149
3559.06	0.000107
3568.7	0.000163
3578.35	0.000169
3587.99	0.000354
3597.64	0.000241
3607.28	0.000251
3616.93	5.6e-05
3626.57	0.000306
3636.22	0.000145
3645.86	0.000248
3655.51	0.0004426
3665.15	0.000312
3674.8	0.000254
3684.44	0.000181
3694.09	0.000165
3703.73	8.3e-05
3713.38	9.1e-05
3723.02	0.000196
3732.67	0.000292
3742.31	0.000167
3751.96	0.000298
3761.6	0.000237
3771.25	0.000144
3780.89	0.00035
3790.54	0.000263
3800.18	0.0002
3809.83	0.000262
3819.47	0.000222
3829.12	0.000305
3838.76	0.0004733
3848.41	0.000125
3858.05	0.000275
3867.7	0.000188
3877.34	0.00038
3886.99	0.000214
3896.63	0.000249
3906.28	0.0004512
3915.92	0.000166
3925.57	0.000229
3935.21	0.000311
3944.86	0.000299
3954.5	0.000251
3964.15	0.000239
3973.79	0.000239
3983.44	0.00036
3993.08	0.00050427
