Infrared Spectrum: p-Ethoxybenzylidene p-cyanoaniline
Formula: C 16 H 14 N 2 O
CAS: 24742-30-1
State: gas
Origin: EPA-IR VAPOR PHASE LIBRARY
1/CM	ABSORBANCE
549.8	0.018623
559.445	0.018503
569.09	0.012983
578.734	0.010053
588.379	0.010513
598.024	0.010183
607.669	0.004483
617.313	0.002743
626.958	0.002473
636.603	0.003503
646.248	0.002163
655.893	0.001803
665.537	0.001443
675.182	0.002093
684.827	0.002513
694.472	0.003703
704.116	0.005003
713.761	0.006033
723.406	0.004913
733.051	0.003163
742.695	0.002733
752.34	0.002653
761.985	0.002723
771.63	0.002853
781.275	0.003273
790.919	0.005393
800.564	0.008563
810.209	0.012693
819.854	0.022873
829.498	0.040313
839.143	0.051343
848.788	0.032813
858.433	0.019313
868.078	0.015483
877.722	0.020383
887.367	0.035453
897.012	0.021293
906.657	0.014813
916.301	0.012933
925.946	0.011123
935.591	0.006893
945.236	0.005383
954.88	0.005033
964.525	0.005893
974.17	0.008123
983.815	0.007063
993.46	0.006083
1003.1	0.008243
1012.75	0.014693
1022.39	0.017413
1032.04	0.030023
1041.68	0.043013
1051.33	0.033683
1060.97	0.018573
1070.62	0.012573
1080.26	0.012653
1089.91	0.019033
1099.55	0.021523
1109.2	0.024563
1118.84	0.019753
1128.49	0.014433
1138.13	0.016323
1147.78	0.028623
1157.42	0.137803
1167.07	0.200533
1176.71	0.037653
1186.36	0.036653
1196	0.056613
1205.64	0.032173
1215.29	0.043423
1224.93	0.065363
1234.58	0.132033
1244.22	0.175413
1253.87	0.154773
1263.51	0.077383
1273.16	0.039413
1282.8	0.034293
1292.45	0.044583
1302.09	0.068393
1311.74	0.048803
1321.38	0.020223
1331.03	0.013213
1340.67	0.011303
1350.32	0.010433
1359.96	0.010723
1369.61	0.012653
1379.25	0.012923
1388.9	0.018333
1398.54	0.021893
1408.18	0.019263
1417.83	0.026763
1427.47	0.019153
1437.12	0.009433
1446.76	0.008723
1456.41	0.009543
1466.05	0.011643
1475.7	0.021683
1485.34	0.039293
1494.99	0.053413
1504.63	0.103293
1514.28	0.145253
1523.92	0.038153
1533.57	0.018493
1543.21	0.016073
1552.86	0.020163
1562.5	0.034863
1572.15	0.084603
1581.79	0.108213
1591.44	0.219083
1601.08	0.223743
1610.73	0.094143
1620.37	0.056673
1630.01	0.105983
1639.66	0.102293
1649.3	0.038423
1658.95	0.022773
1668.59	0.015963
1678.24	0.011443
1687.88	0.007853
1697.53	0.005893
1707.17	0.005023
1716.82	0.004863
1726.46	0.004733
1736.11	0.004183
1745.75	0.003813
1755.4	0.004103
1765.04	0.004733
1774.69	0.004753
1784.33	0.003733
1793.98	0.002833
1803.62	0.002433
1813.27	0.002153
1822.91	0.001983
1832.55	0.002113
1842.2	0.002243
1851.84	0.002423
1861.49	0.002583
1871.13	0.002893
1880.78	0.003683
1890.42	0.004393
1900.07	0.004483
1909.71	0.003873
1919.36	0.003293
1929	0.003443
1938.65	0.003763
1948.29	0.003723
1957.94	0.003113
1967.58	0.002693
1977.23	0.002273
1986.87	0.002273
1996.52	0.002803
2006.16	0.003323
2015.81	0.003293
2025.45	0.002893
2035.1	0.003163
2044.74	0.003363
2054.38	0.003293
2064.03	0.002773
2073.67	0.003013
2083.32	0.003163
2092.96	0.002513
2102.61	0.001853
2112.25	0.001483
2121.9	0.001403
2131.54	0.001393
2141.19	0.001283
2150.83	0.001173
2160.48	0.0009903
2170.12	0.001131
2179.77	0.001283
2189.41	0.0011417
2199.06	0.001493
2208.7	0.002253
2218.35	0.005573
2227.99	0.025603
2237.64	0.014223
2247.28	0.002313
2256.92	0.001503
2266.57	0.001563
2276.21	0.001563
2285.86	0.001393
2295.5	0.001393
2305.15	0.001343
2314.79	0.001393
2324.44	0.001793
2334.08	0.001693
2343.73	0.001263
2353.37	0.001453
2363.02	0.001503
2372.66	0.001673
2382.31	0.002033
2391.95	0.002233
2401.6	0.002173
2411.24	0.002173
2420.89	0.002023
2430.53	0.002093
2440.18	0.002263
2449.82	0.002563
2459.47	0.002693
2469.11	0.002953
2478.75	0.003053
2488.4	0.003003
2498.04	0.003023
2507.69	0.003093
2517.33	0.003343
2526.98	0.003593
2536.62	0.004033
2546.27	0.004173
2555.91	0.003893
2565.56	0.003093
2575.2	0.002583
2584.85	0.002493
2594.49	0.001973
2604.14	0.001923
2613.78	0.001673
2623.43	0.001343
2633.07	0.0010295
2642.72	0.0011145
2652.36	0.0010693
2662.01	0.0010539
2671.65	0.0011685
2681.29	0.0011079
2690.94	0.0010645
2700.58	0.001313
2710.23	0.001443
2719.87	0.001713
2729.52	0.002233
2739.16	0.002593
2748.81	0.002843
2758.45	0.002993
2768.1	0.003003
2777.74	0.002893
2787.39	0.002943
2797.03	0.003143
2806.68	0.003323
2816.32	0.003553
2825.97	0.004283
2835.61	0.005283
2845.26	0.007313
2854.9	0.011313
2864.55	0.013683
2874.19	0.016123
2883.84	0.018973
2893.48	0.017213
2903.12	0.015333
2912.77	0.014883
2922.41	0.014353
2932.06	0.014943
2941.7	0.019543
2951.35	0.016743
2960.99	0.012283
2970.64	0.014813
2980.28	0.022353
2989.93	0.029203
2999.57	0.021373
3009.22	0.012693
3018.86	0.009033
3028.51	0.009153
3038.15	0.013353
3047.8	0.010723
3057.44	0.006623
3067.09	0.007523
3076.73	0.011983
3086.38	0.009233
3096.02	0.008313
3105.67	0.006373
3115.31	0.004453
3124.95	0.002713
3134.6	0.001903
3144.24	0.001763
3153.89	0.001563
3163.53	0.001313
3173.18	0.001323
3182.82	0.001733
3192.47	0.001583
3202.11	0.001453
3211.76	0.001403
3221.4	0.0010026
3231.05	0.001223
3240.69	0.001303
3250.34	0.001503
3259.98	0.001483
3269.63	0.001027
3279.27	0.0007637
3288.92	0.0004722
3298.56	0.0005118
3308.21	0.0003735
3317.85	0.0003674
3327.49	0.0004351
3337.14	0.0003317
3346.78	0.00020203
3356.43	0.00022952
3366.07	0.000406
3375.72	0.0005184
3385.36	0.0004718
3395.01	0.0008765
3404.65	0.0006557
3414.3	0.0007486
3423.94	0.0008284
3433.59	0.0005078
3443.23	0.0003662
3452.88	0.0003105
3462.52	0.00024316
3472.17	0.0004204
3481.81	0.0001184
3491.46	8.74e-05
3501.1	0.00023475
3510.75	0.00024164
3520.39	0.0003961
3530.04	0.0001328
3539.68	0.00023306
3549.32	0.00017739
3558.97	2.1e-05
3568.61	0.00025417
3578.26	0.0001379
3587.9	0.0002751
3597.55	3.8e-05
3607.19	0.00021157
3616.84	0.0003178
3626.48	0.00020465
3636.13	0.00025042
3645.77	0.0002981
3655.42	0.00019939
3665.06	0.000472
3674.71	0.0003952
3684.35	0.0002398
3694	0.0004304
3703.64	0.0003446
3713.29	0.0002335
3722.93	0.0004508
3732.58	0.000408
3742.22	0.0004859
3751.86	0.00022832
3761.51	0.0003767
3771.15	0.0002289
3780.8	0.0003151
3790.44	0.0004146
3800.09	0.000302
3809.73	0.0003553
3819.38	0.0006715
3829.02	0.0006526
3838.67	0.00024526
3848.31	0.000473
3857.96	0.00020616
3867.6	0.0001246
3877.25	0.00019049
3886.89	0.0003283
3896.54	0.00026242
3906.18	0.00023875
3915.83	0.0003143
3925.47	0.00024721
3935.12	0.0003181
3944.76	0.0002916
3954.41	0.0001314
3964.05	0.0004732
3973.69	0.000358
3983.34	0.0003664
3992.98	0.0003069
