Infrared Spectrum: 1-tert-Butylpyrrole
Formula: C 8 H 13 N
CAS: 24764-40-7
State: gas
Origin: EPA-IR VAPOR PHASE LIBRARY
1/CM	ABSORBANCE
549.8	0.001429
559.445	0.0009455
569.09	0.004079
578.734	0.008359
588.379	0.011859
598.024	0.012309
607.669	0.014119
617.313	0.022059
626.958	0.032359
636.603	0.037919
646.248	0.030449
655.893	0.021749
665.537	0.014679
675.182	0.018089
684.827	0.041669
694.472	0.090649
704.116	0.143709
713.761	0.232569
723.406	0.161629
733.051	0.110059
742.695	0.050309
752.34	0.018039
761.985	0.007229
771.63	0.004499
781.275	0.003299
790.919	0.002959
800.564	0.004379
810.209	0.005259
819.854	0.006329
829.498	0.008499
839.143	0.008429
848.788	0.005509
858.433	0.003239
868.078	0.002669
877.722	0.002749
887.367	0.002869
897.012	0.002579
906.657	0.002299
916.301	0.002319
925.946	0.003879
935.591	0.013559
945.236	0.032949
954.88	0.033429
964.525	0.015259
974.17	0.004219
983.815	0.002409
993.46	0.002059
1003.1	0.002469
1012.75	0.004149
1022.39	0.006279
1032.04	0.008989
1041.68	0.017239
1051.33	0.022319
1060.97	0.025919
1070.62	0.036649
1080.26	0.087329
1089.91	0.145159
1099.55	0.143419
1109.2	0.046009
1118.84	0.011729
1128.49	0.006269
1138.13	0.004749
1147.78	0.005719
1157.42	0.010189
1167.07	0.017489
1176.71	0.020019
1186.36	0.014809
1196	0.012169
1205.64	0.022109
1215.29	0.037799
1224.93	0.036399
1234.58	0.034249
1244.22	0.065369
1253.87	0.161469
1263.51	0.271349
1273.16	0.255689
1282.8	0.116429
1292.45	0.037559
1302.09	0.018549
1311.74	0.013019
1321.38	0.011029
1331.03	0.010199
1340.67	0.011329
1350.32	0.021189
1359.96	0.048999
1369.61	0.084819
1379.25	0.090259
1388.9	0.066589
1398.54	0.050969
1408.18	0.037509
1417.83	0.018129
1427.47	0.010579
1437.12	0.014349
1446.76	0.025269
1456.41	0.041459
1466.05	0.062929
1475.7	0.094289
1485.34	0.093519
1494.99	0.056809
1504.63	0.025409
1514.28	0.026879
1523.92	0.048259
1533.57	0.057199
1543.21	0.038019
1552.86	0.014579
1562.5	0.005209
1572.15	0.003339
1581.79	0.002839
1591.44	0.002259
1601.08	0.001969
1610.73	0.001919
1620.37	0.001939
1630.01	0.002399
1639.66	0.002899
1649.3	0.003929
1658.95	0.005959
1668.59	0.006889
1678.24	0.007379
1687.88	0.005769
1697.53	0.005989
1707.17	0.009359
1716.82	0.008489
1726.46	0.004239
1736.11	0.001599
1745.75	0.001329
1755.4	0.0011389
1765.04	0.001179
1774.69	0.0008997
1784.33	0.0008498
1793.98	0.000829
1803.62	0.0009975
1813.27	0.0011697
1822.91	0.0011088
1832.55	0.0011765
1842.2	0.001249
1851.84	0.001399
1861.49	0.0011598
1871.13	0.0009845
1880.78	0.0007713
1890.42	0.0010163
1900.07	0.0010971
1909.71	0.0008103
1919.36	0.0005458
1929	0.0004346
1938.65	0.0006003
1948.29	0.0008289
1957.94	0.00075
1967.58	0.0006116
1977.23	0.0006357
1986.87	0.0007905
1996.52	0.001239
2006.16	0.001219
2015.81	0.0007608
2025.45	0.000665
2035.1	0.0007909
2044.74	0.0006565
2054.38	0.0006886
2064.03	0.0005653
2073.67	0.000664
2083.32	0.0006359
2092.96	0.0005755
2102.61	0.000599
2112.25	0.0007654
2121.9	0.0009588
2131.54	0.0010327
2141.19	0.0010104
2150.83	0.0009468
2160.48	0.001469
2170.12	0.001699
2179.77	0.001909
2189.41	0.002089
2199.06	0.002189
2208.7	0.001989
2218.35	0.001909
2227.99	0.001519
2237.64	0.0010055
2247.28	0.0010273
2256.92	0.0009351
2266.57	0.0010835
2276.21	0.001219
2285.86	0.001329
2295.5	0.001469
2305.15	0.001439
2314.79	0.001259
2324.44	0.0011614
2334.08	0.0010404
2343.73	0.0010209
2353.37	0.0009506
2363.02	0.0011938
2372.66	0.001389
2382.31	0.001609
2391.95	0.001649
2401.6	0.001669
2411.24	0.001369
2420.89	0.001509
2430.53	0.001639
2440.18	0.001599
2449.82	0.001359
2459.47	0.0011448
2469.11	0.0010607
2478.75	0.001639
2488.4	0.001989
2498.04	0.002049
2507.69	0.001319
2517.33	0.001349
2526.98	0.001659
2536.62	0.002179
2546.27	0.002469
2555.91	0.002529
2565.56	0.002409
2575.2	0.002369
2584.85	0.002429
2594.49	0.002529
2604.14	0.002269
2613.78	0.002249
2623.43	0.002209
2633.07	0.002159
2642.72	0.002509
2652.36	0.002999
2662.01	0.003819
2671.65	0.004539
2681.29	0.004709
2690.94	0.003899
2700.58	0.003159
2710.23	0.002979
2719.87	0.003429
2729.52	0.004259
2739.16	0.004549
2748.81	0.004159
2758.45	0.004039
2768.1	0.003819
2777.74	0.003789
2787.39	0.003949
2797.03	0.004419
2806.68	0.004939
2816.32	0.005409
2825.97	0.006279
2835.61	0.007249
2845.26	0.009129
2854.9	0.012519
2864.55	0.020139
2874.19	0.030789
2883.84	0.037809
2893.48	0.039259
2903.12	0.044749
2912.77	0.055499
2922.41	0.062389
2932.06	0.066129
2941.7	0.071639
2951.35	0.077839
2960.99	0.100039
2970.64	0.181889
2980.28	0.279489
2989.93	0.253279
2999.57	0.115039
3009.22	0.037289
3018.86	0.013769
3028.51	0.007059
3038.15	0.004859
3047.8	0.003919
3057.44	0.003259
3067.09	0.003639
3076.73	0.004549
3086.38	0.007019
3096.02	0.011549
3105.67	0.019579
3115.31	0.030429
3124.95	0.030849
3134.6	0.019579
3144.24	0.011349
3153.89	0.009329
3163.53	0.006769
3173.18	0.004519
3182.82	0.003409
3192.47	0.003049
3202.11	0.002939
3211.76	0.002689
3221.4	0.002559
3231.05	0.002629
3240.69	0.002479
3250.34	0.002469
3259.98	0.001959
3269.63	0.001679
3279.27	0.001569
3288.92	0.001399
3298.56	0.001699
3308.21	0.001879
3317.85	0.001929
3327.49	0.001949
3337.14	0.001389
3346.78	0.00112
3356.43	0.0011424
3366.07	0.0009117
3375.72	0.0005056
3385.36	0.0006087
3395.01	0.0005733
3404.65	0.0006821
3414.3	0.0009199
3423.94	0.000816
3433.59	0.0010153
3443.23	0.0009409
3452.88	0.0008194
3462.52	0.0005303
3472.17	0.0003251
3481.81	0.0004687
3491.46	0.00028356
3501.1	0.0004112
3510.75	0.00026305
3520.39	0.0003695
3530.04	0.00020462
3539.68	0.0005033
3549.32	0.0003992
3558.97	0.0005481
3568.61	0.0004217
3578.26	0.0005925
3587.9	0.0003542
3597.55	0.0004333
3607.19	3.2e-05
3616.84	0.0003538
3626.48	0.0003998
3636.13	0.0003448
3645.77	0.0004115
3655.42	0.0003903
3665.06	0.00025449
3674.71	5e-06
3684.35	0.0003097
3694	0.000147
3703.64	0.0001604
3713.29	0.00028751
3722.93	0.0005142
3732.58	0.0005071
3742.22	0.0004481
3751.86	0.0004823
3761.51	0.0005179
3771.15	0.0005406
3780.8	0.0006298
3790.44	0.0005356
3800.09	0.000607
3809.73	0.0005663
3819.38	0.0006792
3829.02	0.0006604
3838.67	0.0006806
3848.31	0.0009115
3857.96	0.0006194
3867.6	0.000648
3877.25	0.0007386
3886.89	0.0009115
3896.54	0.0009466
3906.18	0.0010878
3915.83	0.001035
3925.47	0.0011262
3935.12	0.0011172
3944.76	0.0011244
3954.41	0.001499
3964.05	0.002229
3973.69	0.003909
3983.34	0.004459
3992.98	0.003689
