Infrared Spectrum: Pyridine, 2-vinyl-, hydrochloride
Formula: C7 H8 Cl N
CAS: 2479-59-6
State: SEMI-SOLID (NEAT)
Class: COBLENTZ III
Instrument: PERKIN-ELMER 157
Resolution: 2
Origin: BRITISH PETROLEUM CO. LTD.
1/CM	TRANSMITTANCE
667	0.4156
676	0.4236
685	0.4303
694	0.4245
703	0.443
712	0.4593
721	0.466
730	0.4453
739	0.3595
748	0.2343
757	0.1862
766	0.1301
775	0.0663
784	0.0706
793	0.1083
802	0.2253
811	0.3808
820	0.4789
829	0.5209
838	0.5306
847	0.5624
856	0.5657
865	0.5479
874	0.5395
883	0.5357
892	0.515
901	0.5043
910	0.4995
919	0.4958
928	0.4714
937	0.4281
946	0.3561
955	0.3076
964	0.3071
973	0.3567
982	0.3751
991	0.3058
1000	0.2162
1009	0.2739
1018	0.3411
1027	0.3262
1036	0.3254
1045	0.3276
1054	0.3826
1063	0.4172
1072	0.4533
1081	0.4574
1090	0.4611
1099	0.463
1108	0.4868
1117	0.509
1126	0.5319
1135	0.5301
1144	0.4934
1153	0.4114
1162	0.3296
1171	0.3017
1180	0.3549
1189	0.4392
1198	0.4416
1207	0.3925
1216	0.3381
1225	0.3835
1234	0.3616
1243	0.2858
1252	0.3401
1261	0.4069
1270	0.4046
1279	0.3644
1288	0.355
1297	0.3552
1306	0.3553
1315	0.3711
1324	0.3877
1333	0.3839
1342	0.3902
1351	0.4053
1360	0.3958
1369	0.3861
1378	0.3553
1387	0.3363
1396	0.3359
1405	0.3497
1414	0.3899
1423	0.4449
1432	0.4145
1441	0.3641
1450	0.2673
1459	0.154
1468	0.0901
1477	0.164
1486	0.4358
1495	0.5068
1504	0.475
1513	0.4414
1522	0.3356
1531	0.2312
1540	0.2047
1549	0.2941
1558	0.4891
1567	0.4873
1576	0.4686
1585	0.4222
1594	0.3136
1603	0.2134
1612	0.0796
1621	0.0467
1630	0.0542
1639	0.1604
1648	0.3221
1657	0.3647
1666	0.4271
1675	0.5028
1684	0.5516
1693	0.5631
1702	0.5827
1711	0.5911
1720	0.5959
1729	0.5974
1738	0.5965
1747	0.5941
1756	0.5924
1765	0.5903
1774	0.5879
1783	0.5846
1792	0.5782
1801	0.5704
1810	0.5615
1819	0.5511
1828	0.5385
1837	0.5259
1846	0.5093
1855	0.4894
1864	0.4769
1873	0.4649
1882	0.4509
1891	0.4325
1900	0.4133
1909	0.3855
1918	0.3579
1927	0.3306
1936	0.294
1945	0.2747
1954	0.2559
1963	0.236
1972	0.2118
1981	0.1908
1990	0.172
1999	0.1681
2008	0.1707
2017	0.1743
2026	0.1731
2035	0.1647
2044	0.1534
2053	0.1444
2062	0.1442
2071	0.1473
2080	0.1803
2089	0.2217
2098	0.268
2107	0.2898
2116	0.3001
2125	0.3047
2134	0.3064
2143	0.3066
2152	0.3066
2161	0.3061
2170	0.3021
2179	0.2908
2188	0.2795
2197	0.2682
2206	0.257
2215	0.2466
2224	0.2349
2233	0.221
2242	0.2106
2251	0.2023
2260	0.1932
2269	0.1815
2278	0.1688
2287	0.1545
2296	0.1379
2305	0.122
2314	0.109
2323	0.0985
2332	0.0896
2341	0.0824
2350	0.0773
2359	0.0732
2368	0.0706
2377	0.067
2386	0.0586
2395	0.052
2404	0.0501
2413	0.049
2422	0.0479
2431	0.0469
2440	0.0458
2449	0.0452
2458	0.0447
2467	0.0442
2476	0.0438
2485	0.0435
2494	0.0431
2503	0.0426
2512	0.0424
2521	0.0424
2530	0.0424
2539	0.0424
2548	0.0424
2557	0.0424
2566	0.0427
2575	0.0431
2584	0.0434
2593	0.044
2602	0.0447
2611	0.0454
2620	0.0461
2629	0.0468
2638	0.0484
2647	0.0515
2656	0.056
2665	0.0589
2674	0.0602
2683	0.0612
2692	0.0639
2701	0.0691
2710	0.074
2719	0.079
2728	0.084
2737	0.0887
2746	0.0931
2755	0.0975
2764	0.1018
2773	0.1061
2782	0.1115
2791	0.1179
2800	0.1248
2809	0.133
2818	0.1429
2827	0.1501
2836	0.1552
2845	0.1606
2854	0.1671
2863	0.1744
2872	0.1822
2881	0.1875
2890	0.19
2899	0.1917
2908	0.1928
2917	0.1938
2926	0.1999
2935	0.2092
2944	0.2109
2953	0.2082
2962	0.1958
2971	0.1827
2980	0.1699
2989	0.157
2998	0.1442
3007	0.1325
3016	0.1317
3025	0.1339
3034	0.1463
3043	0.1594
3052	0.1723
3061	0.1763
3070	0.1794
3079	0.1866
3088	0.2221
3097	0.2524
3106	0.2664
3115	0.2678
3124	0.2634
3133	0.2562
3142	0.2492
3151	0.2421
3160	0.2367
3169	0.226
3178	0.2152
3187	0.2043
3196	0.1936
3205	0.1829
3214	0.1727
3223	0.1653
3232	0.1598
3241	0.1547
3250	0.1498
3259	0.1449
3268	0.1393
3277	0.1335
3286	0.127
3295	0.1192
3304	0.1124
3313	0.1062
3322	0.1005
3331	0.0947
3340	0.0895
3349	0.0859
3358	0.0827
3367	0.0809
3376	0.0799
3385	0.0795
3394	0.0794
3403	0.0795
3412	0.0798
3421	0.0802
3430	0.0812
3439	0.0824
3448	0.0846
3457	0.0884
3466	0.097
3475	0.1093
3484	0.1167
3493	0.1371
3502	0.1616
3511	0.186
3520	0.2102
3529	0.2409
3538	0.3136
3547	0.3677
3556	0.4186
3565	0.4691
3574	0.5194
3583	0.5694
3592	0.6644
3601	0.6889
3610	0.7173
3619	0.7265
3628	0.7313
3637	0.7352
3646	0.7369
3655	0.7385
3664	0.739
3673	0.7395
3682	0.7399
3691	0.74
3700	0.7402
3709	0.7403
3718	0.7405
3727	0.7403
3736	0.7403
3745	0.7401
3754	0.7399
3763	0.7397
3772	0.7394
3781	0.7391
3790	0.738
3799	0.7359
3808	0.732
3817	0.7282
3826	0.7275
3835	0.7273
3844	0.7273
3853	0.7274
3862	0.7271
3871	0.7271
3880	0.727
3889	0.7269
3898	0.7269
3907	0.7268
3916	0.7268
3925	0.7267
3934	0.7267
3943	0.7266
3952	0.7265
3961	0.7265
3970	0.7264
3979	0.7264
3988	0.7263
3997	0.7263
