Infrared Spectrum: 2,3-DIHYDRO-2-PHENYL-1H-1,3,2-BENZODIAZABOROLE
Formula: C12 H11 B N2
CAS: 2479-64-3
State: SOLID (SPLIT MULL)
Melting point: 209 C
Class: COBLENTZ III
Instrument: DOW KBr FOREPRISM-GRATING
Instrument parameters: BLAZED AT 3.5, 12.0, 20.0 MICRON AND CHANGED AT 5.0, 7.5, 14.9 MICRON
Sampling: TRANSMISSION
Resolution: 2
Origin: DOW CHEMICAL COMPANY
1/CM	TRANSMITTANCE
467	0.8115
476	0.8128
485	0.824
494	0.8306
503	0.8262
512	0.8207
521	0.8157
530	0.81
539	0.8035
548	0.7974
557	0.7533
566	0.7257
575	0.7626
584	0.6886
593	0.4791
602	0.3163
611	0.2221
620	0.3143
629	0.6661
638	0.5381
647	0.8412
656	0.769
665	0.8457
674	0.8347
683	0.8162
692	0.6531
701	0.2332
710	0.5481
719	0.8184
728	0.8435
737	0.8028
746	0.1696
755	0.4952
764	0.7826
773	0.8647
782	0.8796
791	0.8858
800	0.8961
809	0.9092
818	0.9093
827	0.9005
836	0.8896
845	0.8554
854	0.8848
863	0.8925
872	0.8664
881	0.8638
890	0.8824
899	0.8801
908	0.8573
917	0.8371
926	0.8595
935	0.8651
944	0.8602
953	0.8527
962	0.8385
971	0.8327
980	0.8675
989	0.8512
998	0.8356
1007	0.8112
1016	0.5593
1025	0.8681
1034	0.8515
1043	0.8501
1052	0.8568
1061	0.7988
1070	0.8014
1079	0.8508
1088	0.8448
1097	0.8238
1106	0.8237
1115	0.8068
1124	0.7878
1133	0.7685
1142	0.7342
1151	0.6948
1160	0.6722
1169	0.5918
1178	0.5881
1187	0.6991
1196	0.7464
1205	0.7749
1214	0.7706
1223	0.7705
1232	0.75
1241	0.7171
1250	0.6639
1259	0.5288
1268	0.2346
1277	0.54
1286	0.7505
1295	0.7503
1304	0.7539
1313	0.704
1322	0.7294
1331	0.6801
1340	0.6307
1349	0.597
1358	0.3432
1367	0.3866
1376	0.7328
1385	0.7174
1394	0.6708
1403	0.6451
1412	0.5358
1421	0.115
1430	0.1668
1439	0.2584
1448	0.6786
1457	0.8087
1466	0.7668
1475	0.7232
1484	0.4414
1493	0.8578
1502	0.8641
1511	0.7028
1520	0.7118
1529	0.8771
1538	0.8752
1547	0.8685
1556	0.859
1565	0.8497
1574	0.8448
1583	0.829
1592	0.7955
1601	0.588
1610	0.7317
1619	0.8468
1628	0.8316
1637	0.8303
1646	0.8381
1655	0.8392
1664	0.8289
1673	0.828
1682	0.829
1691	0.8201
1700	0.8218
1709	0.828
1718	0.8303
1727	0.8286
1736	0.8257
1745	0.8203
1754	0.8062
1763	0.7997
1772	0.8107
1781	0.8136
1790	0.816
1799	0.8169
1808	0.8151
1817	0.8137
1826	0.8053
1835	0.803
1844	0.8115
1853	0.811
1862	0.8074
1871	0.8012
1880	0.7975
1889	0.8075
1898	0.8028
1907	0.7992
1916	0.7955
1925	0.7939
1934	0.8106
1943	0.811
1952	0.808
1961	0.8149
1970	0.7885
1979	0.789
1988	0.7899
1997	0.7808
2006	0.7758
2015	0.7758
2024	0.7751
2033	0.7732
2042	0.7706
2051	0.7675
2060	0.7645
2069	0.7611
2078	0.7588
2087	0.7565
2096	0.7542
2105	0.7517
2114	0.7493
2123	0.7465
2132	0.7435
2141	0.7404
2150	0.738
2159	0.7361
2168	0.7342
2177	0.7315
2186	0.7291
2195	0.7265
2204	0.7241
2213	0.7218
2222	0.7196
2231	0.7171
2240	0.7141
2249	0.7111
2258	0.7081
2267	0.705
2276	0.7026
2285	0.701
2294	0.6993
2303	0.6981
2312	0.6984
2321	0.7008
2330	0.7018
2339	0.7001
2348	0.6975
2357	0.6938
2366	0.6925
2375	0.6914
2384	0.6906
2393	0.6897
2402	0.6888
2411	0.6871
2420	0.6857
2429	0.6842
2438	0.6833
2447	0.6825
2456	0.6818
2465	0.6815
2474	0.6814
2483	0.6797
2492	0.6851
2501	0.6885
2510	0.6871
2519	0.6854
2528	0.6836
2537	0.6804
2546	0.6769
2555	0.6732
2564	0.6693
2573	0.6615
2582	0.6564
2591	0.6555
2600	0.6555
2609	0.6554
2618	0.655
2627	0.6541
2636	0.6531
2645	0.6521
2654	0.6505
2663	0.6487
2672	0.6469
2681	0.6451
2690	0.6432
2699	0.6418
2708	0.6408
2717	0.6401
2726	0.6387
2735	0.6369
2744	0.6351
2753	0.633
2762	0.6297
2771	0.6267
2780	0.6247
2789	0.6229
2798	0.623
2807	0.6207
2816	0.618
2825	0.6149
2834	0.6112
2843	0.6042
2852	0.6
2861	0.5988
2870	0.5987
2879	0.5979
2888	0.5936
2897	0.5881
2906	0.5829
2915	0.5781
2924	0.5734
2933	0.5729
2942	0.5731
2951	0.5712
2960	0.5685
2969	0.5662
2978	0.5644
2987	0.5627
2996	0.5574
3005	0.5484
3014	0.5387
3023	0.5312
3032	0.5233
3041	0.5207
3050	0.5199
3059	0.5219
3068	0.5625
3077	0.5603
3086	0.5589
3095	0.5582
3104	0.5578
3113	0.5567
3122	0.5552
3131	0.5537
3140	0.5522
3149	0.5503
3158	0.5478
3167	0.5452
3176	0.5425
3185	0.539
3194	0.5353
3203	0.531
3212	0.5273
3221	0.524
3230	0.5208
3239	0.5176
3248	0.5145
3257	0.5112
3266	0.5082
3275	0.5042
3284	0.5001
3293	0.4959
3302	0.4918
3311	0.4876
3320	0.4835
3329	0.4783
3338	0.4726
3347	0.4667
3356	0.4606
3365	0.4531
3374	0.4428
3383	0.4234
3392	0.3928
3401	0.341
3410	0.2248
3419	0.0608
3428	0.314
3437	0.2241
3446	0.138
3455	0.4659
3464	0.5552
3473	0.5492
3482	0.5396
3491	0.531
3500	0.5236
3509	0.5181
3518	0.5131
3527	0.5091
3536	0.506
3545	0.5035
3554	0.501
3563	0.4983
3572	0.4956
3581	0.493
3590	0.4908
3599	0.4885
3608	0.4866
3617	0.4851
3626	0.4836
3635	0.4821
3644	0.4807
3653	0.4791
3662	0.4774
3671	0.4758
3680	0.4742
3689	0.4733
3698	0.4724
3707	0.4714
3716	0.4703
3725	0.469
3734	0.4678
3743	0.4639
3752	0.4593
3761	0.4548
3770	0.4528
3779	0.4528
3788	0.4506
3797	0.4478
