Infrared Spectrum: N,N-Bis(2-hydroxyethyl)-m-nitroaniline
Formula: C 10 H 14 N 2 O 4
CAS: 24812-82-6
State: gas
Origin: EPA-IR VAPOR PHASE LIBRARY
1/CM	ABSORBANCE
549.8	0.001047
559.445	0.0011033
569.09	0.0012133
578.734	0.0012433
588.379	0.0011533
598.024	0.0006838
607.669	0.0008372
617.313	0.0005326
626.958	0.0005013
636.603	0.0005816
646.248	0.0007552
655.893	0.0014733
665.537	0.0024133
675.182	0.0033933
684.827	0.0032533
694.472	0.0023633
704.116	0.0015033
713.761	0.0016433
723.406	0.0034333
733.051	0.0088433
742.695	0.0058833
752.34	0.0031933
761.985	0.0029233
771.63	0.0036633
781.275	0.0048833
790.919	0.0035133
800.564	0.0021433
810.209	0.0017733
819.854	0.0022233
829.498	0.0042433
839.143	0.0044833
848.788	0.0051133
858.433	0.0059833
868.078	0.0058133
877.722	0.0043933
887.367	0.0035033
897.012	0.0022733
906.657	0.0016933
916.301	0.0019733
925.946	0.0021833
935.591	0.0025933
945.236	0.0026033
954.88	0.0025933
964.525	0.0030933
974.17	0.0038733
983.815	0.0048133
993.46	0.0079633
1003.1	0.0117233
1012.75	0.0111333
1022.39	0.0105133
1032.04	0.0128033
1041.68	0.0163633
1051.33	0.0147133
1060.97	0.0144133
1070.62	0.0129533
1080.26	0.0085733
1089.91	0.0062533
1099.55	0.0043333
1109.2	0.0042633
1118.84	0.0035933
1128.49	0.0033233
1138.13	0.0044433
1147.78	0.0048733
1157.42	0.0062833
1167.07	0.0067233
1176.71	0.0067733
1186.36	0.0069633
1196	0.0084133
1205.64	0.0093133
1215.29	0.0090033
1224.93	0.0081533
1234.58	0.0076733
1244.22	0.0074533
1253.87	0.0072633
1263.51	0.0072133
1273.16	0.0071833
1282.8	0.0073833
1292.45	0.0073333
1302.09	0.0075133
1311.74	0.0084733
1321.38	0.0103133
1331.03	0.0138233
1340.67	0.0238733
1350.32	0.0421233
1359.96	0.0337033
1369.61	0.0176333
1379.25	0.0124033
1388.9	0.0098133
1398.54	0.0070833
1408.18	0.0048333
1417.83	0.0034433
1427.47	0.0032333
1437.12	0.0038333
1446.76	0.0051333
1456.41	0.0056033
1466.05	0.0066433
1475.7	0.0089333
1485.34	0.0152733
1494.99	0.0189433
1504.63	0.0130733
1514.28	0.0104533
1523.92	0.0138833
1533.57	0.0313033
1543.21	0.0655533
1552.86	0.0425233
1562.5	0.0164133
1572.15	0.0156933
1581.79	0.0113233
1591.44	0.0062933
1601.08	0.0061033
1610.73	0.0098033
1620.37	0.0110433
1630.01	0.0062633
1639.66	0.0033733
1649.3	0.0023133
1658.95	0.0018233
1668.59	0.0013233
1678.24	0.0010328
1687.88	0.0007959
1697.53	0.0006705
1707.17	0.0006658
1716.82	0.000451
1726.46	0.0006756
1736.11	0.0006111
1745.75	0.0006407
1755.4	0.0005769
1765.04	0.000572
1774.69	0.0004508
1784.33	0.000312
1793.98	0.0003567
1803.62	0.0002583
1813.27	0.0004094
1822.91	0.0003917
1832.55	0.0004777
1842.2	0.0004101
1851.84	0.0004157
1861.49	0.0003827
1871.13	0.0003335
1880.78	0.0003414
1890.42	0.0003598
1900.07	0.0004065
1909.71	0.0004988
1919.36	0.0006224
1929	0.0005568
1938.65	0.0004591
1948.29	0.0003698
1957.94	0.0003162
1967.58	0.0003565
1977.23	0.0003563
1986.87	0.0002816
1996.52	0.0002886
2006.16	0.0002835
2015.81	0.0003686
2025.45	0.000296
2035.1	0.0003056
2044.74	0.0003125
2054.38	0.000312
2064.03	0.00035
2073.67	0.0004499
2083.32	0.0003096
2092.96	0.0003364
2102.61	0.0003125
2112.25	0.0003611
2121.9	0.0003349
2131.54	0.0002693
2141.19	0.0003499
2150.83	0.0003542
2160.48	0.0002475
2170.12	0.0003546
2179.77	0.0002557
2189.41	0.0002461
2199.06	0.0002997
2208.7	0.0002094
2218.35	0.0002655
2227.99	0.0003136
2237.64	0.0002074
2247.28	0.0002302
2256.92	0.0003071
2266.57	0.0003159
2276.21	0.0003001
2285.86	0.0003302
2295.5	0.0003603
2305.15	0.0003756
2314.79	0.000207
2324.44	0.00015746
2334.08	0.0002264
2343.73	0.0003242
2353.37	0.0002393
2363.02	0.0002498
2372.66	0.0002696
2382.31	0.0003709
2391.95	0.0004303
2401.6	0.0004767
2411.24	0.0004083
2420.89	0.0003603
2430.53	0.0004592
2440.18	0.0004519
2449.82	0.0004868
2459.47	0.000491
2469.11	0.0004101
2478.75	0.0003875
2488.4	0.0004166
2498.04	0.0003495
2507.69	0.0003555
2517.33	0.0003773
2526.98	0.0004644
2536.62	0.0003862
2546.27	0.0004069
2555.91	0.0004751
2565.56	0.0005845
2575.2	0.0005775
2584.85	0.0006354
2594.49	0.0006354
2604.14	0.0005854
2613.78	0.0006582
2623.43	0.0006291
2633.07	0.0005906
2642.72	0.000592
2652.36	0.0005195
2662.01	0.0006635
2671.65	0.0007525
2681.29	0.0007283
2690.94	0.0008618
2700.58	0.0008709
2710.23	0.0009134
2719.87	0.0009017
2729.52	0.0009381
2739.16	0.0008666
2748.81	0.0010745
2758.45	0.0010434
2768.1	0.0010696
2777.74	0.0012833
2787.39	0.0014133
2797.03	0.0015233
2806.68	0.0017333
2816.32	0.0021233
2825.97	0.0027333
2835.61	0.0036333
2845.26	0.0044833
2854.9	0.0053433
2864.55	0.0063933
2874.19	0.0083433
2883.84	0.0104433
2893.48	0.0105133
2903.12	0.0089633
2912.77	0.0083933
2922.41	0.0093533
2932.06	0.0105533
2941.7	0.0108433
2951.35	0.0102033
2960.99	0.0093933
2970.64	0.0080233
2980.28	0.0060033
2989.93	0.0037433
2999.57	0.0024033
3009.22	0.0017233
3018.86	0.0014133
3028.51	0.0011033
3038.15	0.0012033
3047.8	0.0012633
3057.44	0.0016033
3067.09	0.0014533
3076.73	0.0015533
3086.38	0.0017933
3096.02	0.0017233
3105.67	0.0010148
3115.31	0.0006972
3124.95	0.0005838
3134.6	0.0004793
3144.24	0.0002935
3153.89	0.0003255
3163.53	0.000187
3173.18	0.0002913
3182.82	0.0004056
3192.47	0.0002287
3202.11	0.0004103
3211.76	0.0002745
3221.4	0.00010805
3231.05	9.369e-05
3240.69	0.0003495
3250.34	0.0002465
3259.98	0.0001889
3269.63	0.0002084
3279.27	0.0002173
3288.92	8.217e-05
3298.56	0.00012371
3308.21	0.000204
3317.85	0.00016296
3327.49	0
3337.14	0.000256
3346.78	0.00017418
3356.43	0.00018016
3366.07	0.0003053
3375.72	0.0004542
3385.36	0.0003338
3395.01	0.0003138
3404.65	0.0002553
3414.3	0.0002992
3423.94	0.000417
3433.59	0.00043
3443.23	0.0003971
3452.88	0.0003042
3462.52	0.000488
3472.17	0.0004609
3481.81	0.0004095
3491.46	0.0006802
3501.1	0.000482
3510.75	0.0008481
3520.39	0.0007938
3530.04	0.001008
3539.68	0.0014233
3549.32	0.0015333
3558.97	0.0017533
3568.61	0.0016333
3578.26	0.0017133
3587.9	0.0015133
3597.55	0.0013433
3607.19	0.0014133
3616.84	0.0014933
3626.48	0.0013033
3636.13	0.0017333
3645.77	0.0019333
3655.42	0.0033033
3665.06	0.0050733
3674.71	0.0046133
3684.35	0.0026333
3694	0.0014933
3703.64	0.001067
3713.29	0.0007876
3722.93	0.0006171
3732.58	0.0003165
3742.22	0.0003639
3751.86	0.00017189
3761.51	0.0003313
3771.15	0.0002643
3780.8	0.0002982
3790.44	0.0003944
3800.09	0.0002309
3809.73	0.0002814
3819.38	0.0002528
3829.02	0.00015757
3838.67	0.0004031
3848.31	0.0003302
3857.96	0.0003506
3867.6	0.0001936
3877.25	0.000162
3886.89	0.0003051
3896.54	0.0002395
3906.18	0.0001897
3915.83	0.00017147
3925.47	0.0002688
3935.12	0.0002129
3944.76	0.0003157
3954.41	0.0002111
3964.05	0.0004566
3973.69	0.00015224
3983.34	0.0003305
3992.98	0.000242
