Infrared Spectrum: RESCINNAMINE
Formula: C35 H42 N2 O9
CAS: 24815-24-5
State: SOLID (KBr DISC)
Class: COBLENTZ III
Instrument: PERKIN-ELMER 21 (GRATING)
Instrument parameters: FILTER AT ABOUT 10 MICRONS
Sampling: TRANSMISSION
Resolution: 2
1/CM	TRANSMITTANCE
4000	0.8631
3991	0.8628
3982	0.8627
3973	0.8625
3964	0.8621
3955	0.8617
3946	0.8613
3937	0.8609
3928	0.8606
3919	0.8602
3910	0.8598
3901	0.8595
3892	0.8595
3883	0.8596
3874	0.8597
3865	0.8598
3856	0.8599
3847	0.86
3838	0.8601
3829	0.8603
3820	0.8608
3811	0.8612
3802	0.8617
3793	0.8621
3784	0.8627
3775	0.8632
3766	0.8641
3757	0.8651
3748	0.8661
3739	0.8668
3730	0.8671
3721	0.8675
3712	0.8678
3703	0.8681
3694	0.868
3685	0.8678
3676	0.8675
3667	0.865
3658	0.8625
3649	0.8595
3640	0.8541
3631	0.8488
3622	0.8427
3613	0.8359
3604	0.829
3595	0.8209
3586	0.8111
3577	0.8015
3568	0.7915
3559	0.7815
3550	0.7711
3541	0.7587
3532	0.7435
3523	0.6991
3514	0.6685
3505	0.6586
3496	0.6519
3487	0.6471
3478	0.6425
3469	0.6379
3460	0.6332
3451	0.6282
3442	0.6229
3433	0.6149
3424	0.601
3415	0.5804
3406	0.5677
3397	0.5549
3388	0.542
3379	0.529
3370	0.516
3361	0.5131
3352	0.512
3343	0.5209
3334	0.5423
3325	0.5628
3316	0.5835
3307	0.605
3298	0.6259
3289	0.6365
3280	0.6471
3271	0.6574
3262	0.6672
3253	0.6768
3244	0.6854
3235	0.6939
3226	0.7022
3217	0.7101
3208	0.7181
3199	0.7247
3190	0.7306
3181	0.7367
3172	0.743
3163	0.7493
3154	0.7554
3145	0.7611
3136	0.7661
3127	0.7708
3118	0.7754
3109	0.7785
3100	0.7799
3091	0.78
3082	0.7794
3073	0.7758
3064	0.7698
3055	0.7674
3046	0.7662
3037	0.7642
3028	0.761
3019	0.7551
3010	0.7456
3001	0.7331
2992	0.7083
2983	0.6425
2974	0.6257
2965	0.6093
2956	0.5884
2947	0.5377
2938	0.4734
2929	0.4088
2920	0.3734
2911	0.3729
2902	0.3776
2893	0.4042
2884	0.4325
2875	0.461
2866	0.4896
2857	0.5184
2848	0.5474
2839	0.5551
2830	0.5452
2821	0.5351
2812	0.5595
2803	0.6147
2794	0.6701
2785	0.726
2776	0.7756
2767	0.7886
2758	0.7961
2749	0.8008
2740	0.8053
2731	0.8078
2722	0.8103
2713	0.8125
2704	0.8144
2695	0.8161
2686	0.8181
2677	0.8201
2668	0.8218
2659	0.8238
2650	0.8256
2641	0.8275
2632	0.829
2623	0.8305
2614	0.832
2605	0.8335
2596	0.8347
2587	0.8357
2578	0.8365
2569	0.8371
2560	0.8377
2551	0.839
2542	0.8404
2533	0.842
2524	0.8438
2515	0.8456
2506	0.8473
2497	0.8484
2488	0.8494
2479	0.8504
2470	0.8514
2461	0.8525
2452	0.8539
2443	0.8553
2434	0.8567
2425	0.8583
2416	0.86
2407	0.8615
2398	0.8625
2389	0.8636
2380	0.865
2371	0.8665
2362	0.8677
2353	0.8682
2344	0.8687
2335	0.8689
2326	0.8684
2317	0.8678
2308	0.8674
2299	0.8668
2290	0.8664
2281	0.8658
2272	0.8655
2263	0.8654
2254	0.8653
2245	0.8656
2236	0.8661
2227	0.8665
2218	0.8668
2209	0.8673
2200	0.8668
2191	0.8658
2182	0.8649
2173	0.8639
2164	0.8631
2155	0.8624
2146	0.8618
2137	0.8612
2128	0.8608
2119	0.8604
2110	0.8607
2101	0.8611
2092	0.8621
2083	0.8624
2074	0.8605
2065	0.8578
2056	0.8564
2047	0.8571
2038	0.8592
2029	0.8595
2020	0.8593
2011	0.8591
2002	0.8588
1993	0.8586
1984	0.859
1975	0.8592
1966	0.8602
1957	0.8613
1948	0.8625
1939	0.8637
1930	0.8649
1921	0.8661
1912	0.8673
1903	0.8671
1894	0.8655
1885	0.8628
1876	0.8607
1867	0.8595
1858	0.8596
1849	0.8592
1840	0.8589
1831	0.8587
1822	0.8578
1813	0.8554
1804	0.8493
1795	0.8442
1786	0.8382
1777	0.8302
1768	0.8165
1759	0.786
1750	0.6407
1741	0.3952
1732	0.3169
1723	0.3085
1714	0.2601
1705	0.2675
1696	0.4109
1687	0.5327
1678	0.6558
1669	0.6919
1660	0.6972
1651	0.661
1642	0.458
1633	0.3099
1624	0.3782
1615	0.5204
1606	0.6374
1597	0.5944
1588	0.3909
1579	0.3784
1570	0.5319
1561	0.6556
1552	0.7321
1543	0.7595
1534	0.7638
1525	0.7534
1516	0.6721
1507	0.3324
1498	0.405
1489	0.5725
1480	0.593
1471	0.4859
1462	0.2804
1453	0.3282
1444	0.3846
1435	0.408
1426	0.4776
1417	0.4064
1408	0.6191
1399	0.7091
1390	0.6661
1381	0.631
1372	0.6194
1363	0.5709
1354	0.5279
1345	0.4554
1336	0.4202
1327	0.408
1318	0.3799
1309	0.3191
1300	0.3243
1291	0.276
1282	0.1863
1273	0.0904
1264	0.1804
1255	0.2363
1246	0.1921
1237	0.2374
1228	0.3353
1219	0.3432
1210	0.3766
1201	0.3773
1192	0.316
1183	0.2515
1174	0.1894
1165	0.2173
1156	0.1374
1147	0.1044
1138	0.1398
1129	0.1252
1120	0.1378
1111	0.2754
1102	0.3327
1093	0.348
1084	0.534
1075	0.6446
1066	0.6587
1057	0.6076
1048	0.6315
1039	0.5491
1030	0.4743
1021	0.5575
1012	0.5384
1003	0.422
994	0.3993
985	0.4658
976	0.5074
967	0.6665
958	0.7065
949	0.7072
940	0.7372
931	0.7484
922	0.7271
913	0.7215
904	0.7389
895	0.7448
886	0.7851
877	0.7226
868	0.7094
859	0.7417
850	0.7018
841	0.6628
832	0.6031
823	0.5869
814	0.6711
805	0.698
796	0.7135
787	0.7525
778	0.7971
769	0.7544
760	0.7501
751	0.7695
742	0.7733
733	0.7691
724	0.7349
715	0.7576
706	0.769
697	0.7924
688	0.7941
679	0.7822
670	0.7682
661	0.7517
