Infrared Spectrum: 1,2,4-TRIAZOLE, 3-(Sigma-HYDROXYBENZYLIDENE)AMINO-
Formula: C9 H8 N4 O
CAS: 24829-12-7
State: SOLID (NUJOL)
Class: COBLENTZ
Instrument: Not specified, most likely a prism, grating, or hybrid spectrometer.
Sampling: TRANSMISSION
Resolution: 4
Origin: TENNESSEE EASTMAN COMPANY, RESEARCH LABORATORIES
MICROMETERS	TRANSMITTANCE
2.021	0.447
2.06096	0.452
2.10092	0.462
2.14088	0.465
2.18084	0.475
2.22079	0.477
2.26075	0.46
2.30071	0.447
2.34067	0.454
2.38063	0.464
2.42059	0.469
2.46055	0.484
2.50051	0.5
2.54046	0.519
2.58042	0.52
2.62038	0.524
2.66034	0.535
2.7003	0.545
2.74026	0.549
2.78022	0.55
2.82018	0.552
2.86013	0.547
2.90009	0.534
2.94005	0.52
2.98001	0.514
3.01997	0.49
3.05993	0.437
3.09989	0.404
3.13985	0.393
3.17981	0.353
3.21976	0.298
3.25972	0.317
3.29968	0.303
3.33964	0.163
3.3796	0.023
3.41956	0.001
3.45952	0
3.49948	0
3.53943	0.196
3.57939	0.325
3.61935	0.373
3.65931	0.378
3.69927	0.378
3.73923	0.4
3.77919	0.41
3.81915	0.427
3.8591	0.455
3.89906	0.487
3.93902	0.519
3.97898	0.529
4.01894	0.54
4.0589	0.549
4.09886	0.565
4.13882	0.577
4.17878	0.589
4.21873	0.595
4.25869	0.599
4.29865	0.602
4.33861	0.602
4.37857	0.621
4.41853	0.629
4.45849	0.636
4.49845	0.642
4.5384	0.649
4.57836	0.652
4.61832	0.661
4.65828	0.669
4.69824	0.672
4.7382	0.677
4.77816	0.682
4.81812	0.686
4.85807	0.684
4.89803	0.686
4.93799	0.691
4.97795	0.699
5.01791	0.706
5.05787	0.707
5.09783	0.707
5.13779	0.709
5.17775	0.709
5.2177	0.711
5.25766	0.717
5.29762	0.719
5.33758	0.724
5.37754	0.726
5.4175	0.726
5.45746	0.729
5.49742	0.731
5.53737	0.731
5.57733	0.732
5.61729	0.742
5.65725	0.747
5.69721	0.744
5.73717	0.734
5.77713	0.732
5.81709	0.732
5.85704	0.736
5.897	0.741
5.93696	0.747
5.97692	0.724
6.01688	0.721
6.05684	0.702
6.0968	0.662
6.13676	0.555
6.17672	0.312
6.21667	0.163
6.25663	0.469
6.29659	0.522
6.33655	0.368
6.37651	0.477
6.41647	0.514
6.45643	0.54
6.49639	0.515
6.53634	0.519
6.5763	0.398
6.61626	0.445
6.65622	0.472
6.69618	0.427
6.73614	0.325
6.7761	0.116
6.81606	0.04
6.85601	0.041
6.89597	0.088
6.93593	0.225
6.97589	0.32
7.01585	0.435
7.05581	0.49
7.09577	0.504
7.13573	0.51
7.17568	0.435
7.21564	0.268
7.2556	0.148
7.29556	0.228
7.33552	0.293
7.37548	0.388
7.41544	0.322
7.4554	0.427
7.49536	0.45
7.53531	0.412
7.57527	0.43
7.61523	0.308
7.65519	0.47
7.69515	0.53
7.73511	0.547
7.77507	0.55
7.81503	0.273
7.85498	0.257
7.89494	0.348
7.9349	0.459
7.97486	0.439
8.01482	0.475
8.05478	0.532
8.09474	0.545
8.1347	0.549
8.17465	0.585
8.21461	0.507
8.25457	0.373
8.29453	0.378
8.33449	0.427
8.37445	0.5
8.41441	0.539
8.45437	0.564
8.49433	0.577
8.53428	0.575
8.57424	0.559
8.6142	0.435
8.65416	0.447
8.69412	0.515
8.73408	0.582
8.77404	0.614
8.814	0.649
8.85395	0.661
8.89391	0.575
8.93387	0.529
8.97383	0.48
9.01379	0.482
9.05375	0.549
9.09371	0.601
9.13367	0.624
9.17362	0.639
9.21358	0.647
9.25354	0.654
9.2935	0.661
9.33346	0.671
9.37342	0.676
9.41338	0.686
9.45334	0.686
9.4933	0.686
9.53325	0.682
9.57321	0.681
9.61317	0.677
9.65313	0.657
9.69309	0.659
9.73305	0.677
9.77301	0.679
9.81297	0.679
9.85292	0.681
9.89288	0.681
9.93284	0.681
9.9728	0.684
10.0128	0.661
10.0527	0.669
10.0927	0.652
10.1326	0.547
10.1726	0.459
10.2126	0.494
10.2525	0.544
10.2925	0.589
10.3324	0.602
10.3724	0.614
10.4123	0.629
10.4523	0.642
10.4923	0.644
10.5322	0.651
10.5722	0.659
10.6121	0.671
10.6521	0.677
10.6921	0.684
10.732	0.692
10.772	0.699
10.8119	0.717
10.8519	0.727
10.8919	0.729
10.9318	0.732
10.9718	0.699
11.0117	0.564
11.0517	0.567
11.0916	0.654
11.1316	0.696
11.1716	0.712
11.2115	0.719
11.2515	0.722
11.2914	0.724
11.3314	0.721
11.3714	0.689
11.4113	0.664
11.4513	0.671
11.4912	0.677
11.5312	0.662
11.5712	0.632
11.6111	0.631
11.6511	0.651
11.691	0.657
11.731	0.659
11.7709	0.659
11.8109	0.662
11.8509	0.662
11.8908	0.664
11.9308	0.666
11.9707	0.666
12.0107	0.659
12.0507	0.632
12.0906	0.602
12.1306	0.599
12.1705	0.604
12.2105	0.606
12.2505	0.602
12.2904	0.577
12.3304	0.547
12.3703	0.532
12.4103	0.532
12.4502	0.532
12.4902	0.532
12.5302	0.532
12.5701	0.532
12.6101	0.532
12.65	0.535
12.69	0.539
12.73	0.559
12.7699	0.592
12.8099	0.602
12.8498	0.601
12.8898	0.559
12.9298	0.477
12.9697	0.373
13.0097	0.263
13.0496	0.207
13.0896	0.186
13.1295	0.19
13.1695	0.191
13.2095	0.188
13.2494	0.337
13.2894	0.402
13.3293	0.45
13.3693	0.479
13.4093	0.494
13.4492	0.497
13.4892	0.5
13.5291	0.502
13.5691	0.505
13.6091	0.519
13.649	0.524
13.689	0.525
13.7289	0.524
13.7689	0.524
13.8088	0.524
13.8488	0.527
13.8888	0.534
13.9287	0.544
13.9687	0.569
14.0086	0.59
14.0486	0.601
14.0886	0.604
14.1285	0.611
14.1685	0.617
14.2084	0.621
14.2484	0.624
14.2884	0.626
14.3283	0.626
14.3683	0.624
14.4082	0.624
14.4482	0.627
14.4881	0.629
14.5281	0.627
14.5681	0.627
14.608	0.629
14.648	0.629
14.6879	0.631
14.7279	0.627
14.7679	0.627
14.8078	0.629
14.8478	0.627
14.8877	0.626
14.9277	0.626
14.9677	0.626
15.0076	0.624
15.0476	0.622
15.0875	0.621
15.1275	0.619
15.1674	0.619
15.2074	0.621
15.2474	0.619
15.2873	0.619
15.3273	0.617
15.3672	0.617
15.4072	0.617
15.4472	0.617
15.4871	0.617
15.5271	0.616
15.567	0.614
15.607	0.614
15.647	0.607
15.6869	0.604
15.7269	0.587
15.7668	0.57
15.8068	0.544
15.8467	0.532
15.8867	0.53
15.9267	0.53
15.9666	0.53
