Infrared Spectrum: 2,6-Bis(trifluoromethyl)benzoic acid
Formula: C 9 H 4 F 6 O 2
CAS: 24821-22-5
State: gas
Origin: EPA-IR VAPOR PHASE LIBRARY
1/CM	ABSORBANCE
549.8	0.044129
559.445	0.030269
569.09	0.018949
578.734	0.014909
588.379	0.014559
598.024	0.022169
607.669	0.022909
617.313	0.011079
626.958	0.009649
636.603	0.033809
646.248	0.045259
655.893	0.011649
665.537	0.010069
675.182	0.089809
684.827	0.103969
694.472	0.010759
704.116	0.006279
713.761	0.006269
723.406	0.008789
733.051	0.026149
742.695	0.033949
752.34	0.040369
761.985	0.055059
771.63	0.035399
781.275	0.016549
790.919	0.011929
800.564	0.007919
810.209	0.017489
819.854	0.029839
829.498	0.014219
839.143	0.010069
848.788	0.011599
858.433	0.003219
868.078	0.002199
877.722	0.002639
887.367	0.002729
897.012	0.002249
906.657	0.002399
916.301	0.002529
925.946	0.002739
935.591	0.002879
945.236	0.003559
954.88	0.004449
964.525	0.005399
974.17	0.005669
983.815	0.007189
993.46	0.005409
1003.1	0.005249
1012.75	0.006089
1022.39	0.006339
1032.04	0.009769
1041.68	0.018399
1051.33	0.043389
1060.97	0.058519
1070.62	0.074899
1080.26	0.060179
1089.91	0.029279
1099.55	0.039879
1109.2	0.074629
1118.84	0.076229
1128.49	0.075869
1138.13	0.144339
1147.78	0.291509
1157.42	0.526689
1167.07	0.643229
1176.71	0.631679
1186.36	0.470049
1196	0.376179
1205.64	0.535989
1215.29	0.212369
1224.93	0.062519
1234.58	0.034379
1244.22	0.027939
1253.87	0.030499
1263.51	0.039509
1273.16	0.070899
1282.8	0.172109
1292.45	0.434979
1302.09	0.418029
1311.74	0.086809
1321.38	0.067809
1331.03	0.140829
1340.67	0.231879
1350.32	0.149979
1359.96	0.073759
1369.61	0.040059
1379.25	0.023589
1388.9	0.013939
1398.54	0.008839
1408.18	0.006729
1417.83	0.006689
1427.47	0.005929
1437.12	0.005469
1446.76	0.005669
1456.41	0.007459
1466.05	0.012409
1475.7	0.010659
1485.34	0.005179
1494.99	0.004569
1504.63	0.004209
1514.28	0.004109
1523.92	0.003629
1533.57	0.003369
1543.21	0.003659
1552.86	0.003599
1562.5	0.003979
1572.15	0.007549
1581.79	0.018159
1591.44	0.026319
1601.08	0.015269
1610.73	0.009809
1620.37	0.007379
1630.01	0.005369
1639.66	0.004599
1649.3	0.003639
1658.95	0.002969
1668.59	0.002759
1678.24	0.003599
1687.88	0.005519
1697.53	0.006429
1707.17	0.005389
1716.82	0.005809
1726.46	0.008259
1736.11	0.012559
1745.75	0.015759
1755.4	0.019239
1765.04	0.040879
1774.69	0.166039
1784.33	0.369869
1793.98	0.165749
1803.62	0.037479
1813.27	0.020559
1822.91	0.012899
1832.55	0.011369
1842.2	0.008969
1851.84	0.006569
1861.49	0.005679
1871.13	0.004829
1880.78	0.004099
1890.42	0.003759
1900.07	0.004499
1909.71	0.005779
1919.36	0.005039
1929	0.003819
1938.65	0.002739
1948.29	0.002339
1957.94	0.003029
1967.58	0.003799
1977.23	0.002439
1986.87	0.001799
1996.52	0.001759
2006.16	0.001509
2015.81	0.001619
2025.45	0.001549
2035.1	0.001509
2044.74	0.0011758
2054.38	0.0010308
2064.03	0.0012666
2073.67	0.0011184
2083.32	0.0011614
2092.96	0.0009809
2102.61	0.00102
2112.25	0.0011162
2121.9	0.0009938
2131.54	0.0009668
2141.19	0.0010098
2150.83	0.0013038
2160.48	0.001779
2170.12	0.002179
2179.77	0.002279
2189.41	0.002029
2199.06	0.0013011
2208.7	0.001569
2218.35	0.002049
2227.99	0.002339
2237.64	0.001929
2247.28	0.001869
2256.92	0.002069
2266.57	0.002339
2276.21	0.002739
2285.86	0.003349
2295.5	0.003239
2305.15	0.003129
2314.79	0.003009
2324.44	0.002819
2334.08	0.002769
2343.73	0.002629
2353.37	0.002719
2363.02	0.002929
2372.66	0.002379
2382.31	0.002159
2391.95	0.002089
2401.6	0.001929
2411.24	0.001769
2420.89	0.001519
2430.53	0.0011689
2440.18	0.0013015
2449.82	0.001529
2459.47	0.001519
2469.11	0.0014069
2478.75	0.0012339
2488.4	0.0011499
2498.04	0.0013843
2507.69	0.0014083
2517.33	0.0014069
2526.98	0.0013346
2536.62	0.0011721
2546.27	0.0011877
2555.91	0.0009672
2565.56	0.0008856
2575.2	0.0007909
2584.85	0.0006263
2594.49	0.0007243
2604.14	0.000629
2613.78	0.0010849
2623.43	0.0013662
2633.07	0.0014012
2642.72	0.0012278
2652.36	0.0008685
2662.01	0.0007379
2671.65	0.0007982
2681.29	0.0005445
2690.94	0.00051325
2700.58	0.00049092
2710.23	0.0005549
2719.87	0.00045778
2729.52	0.00053754
2739.16	0.0005674
2748.81	0.0006931
2758.45	0.0007672
2768.1	0.0006312
2777.74	0.000888
2787.39	0.0006797
2797.03	0.0005688
2806.68	0.0006526
2816.32	0.0009652
2825.97	0.0007287
2835.61	0.0008792
2845.26	0.0005859
2854.9	0.000754
2864.55	0.0006694
2874.19	0.0007283
2883.84	0.0007694
2893.48	0.0012536
2903.12	0.0011923
2912.77	0.0011158
2922.41	0.001108
2932.06	0.001449
2941.7	0.0012441
2951.35	0.0011596
2960.99	0.0010255
2970.64	0.0009923
2980.28	0.0007363
2989.93	0.0008725
2999.57	0.0008011
3009.22	0.0009742
3018.86	0.0011709
3028.51	0.0013837
3038.15	0.0013433
3047.8	0.0010396
3057.44	0.0012264
3067.09	0.0014318
3076.73	0.002069
3086.38	0.003709
3096.02	0.004529
3105.67	0.002149
3115.31	0.0009976
3124.95	0.0006198
3134.6	0.0008059
3144.24	0.00046798
3153.89	0.0006424
3163.53	0.0005678
3173.18	0.0007099
3182.82	0.0007822
3192.47	0.0007755
3202.11	0.0006609
3211.76	0.0006249
3221.4	0.00054
3231.05	0.000312
3240.69	0.0005425
3250.34	0.00048643
3259.98	0.000271
3269.63	0.000265
3279.27	0.00043577
3288.92	0.000213
3298.56	0.00026
3308.21	0.0003997
3317.85	0.0003455
3327.49	0.00049045
3337.14	0.000288
3346.78	0.0003938
3356.43	0.00051433
3366.07	0.0003855
3375.72	0.0004176
3385.36	0.0005396
3395.01	0.0007951
3404.65	0.0008012
3414.3	0.0006428
3423.94	0.0005486
3433.59	0.00046902
3443.23	0.00052427
3452.88	0.0007062
3462.52	0.0003922
3472.17	0.0006001
3481.81	0.0008904
3491.46	0.0008231
3501.1	0.0009461
3510.75	0.0012449
3520.39	0.001509
3530.04	0.001969
3539.68	0.005349
3549.32	0.020029
3558.97	0.101289
3568.61	0.121969
3578.26	0.022539
3587.9	0.004449
3597.55	0.002499
3607.19	0.002429
3616.84	0.002859
3626.48	0.002459
3636.13	0.0013602
3645.77	0.0006358
3655.42	0.0006488
3665.06	0.0006725
3674.71	0.00045576
3684.35	0.0005582
3694	0.00046571
3703.64	0.0008398
3713.29	0.000827
3722.93	0.0008727
3732.58	0.0007717
3742.22	0.0006545
3751.86	0.0007321
3761.51	0.0004226
3771.15	0.00017
3780.8	0.000313
3790.44	0.0003803
3800.09	0.000508
3809.73	0.0005736
3819.38	0.000266
3829.02	0.00053549
3838.67	0.0003853
3848.31	0.0006609
3857.96	0.00027
3867.6	0.0005779
3877.25	0.0006089
3886.89	0.00050766
3896.54	0.0007133
3906.18	0.000297
3915.83	0.0004147
3925.47	0.00042988
3935.12	0.000175
3944.76	0.00047175
3954.41	0.000573
3964.05	0.0004032
3973.69	0.00047275
3983.34	0.000113
3992.98	0.0006932
