Infrared Spectrum: P-PHENYLAZOBENZENE SULFONIC ACID
Formula: C12 H10 N2 O3 S
CAS: 2484-88-0
State: SOLID (MULL, KEL-F OIL FOR 2-7.4 AND MINERAL OIL FOR 7.4-16 MICRONS))
Class: COBLENTZ
Instrument: Not specified, most likely a prism, grating, or hybrid spectrometer.
Sampling: TRANSMISSION
Resolution: 4
Origin: WYANDOTTE CHEMICALS CORP., WYANDOTTE, MICHIGAN, USA
MICROMETERS	TRANSMITTANCE
2.034	0.582
2.07397	0.592
2.11395	0.599
2.15392	0.613
2.19389	0.625
2.23387	0.632
2.27384	0.653
2.31381	0.662
2.35379	0.673
2.39376	0.682
2.43373	0.703
2.47371	0.718
2.51368	0.732
2.55365	0.747
2.59363	0.777
2.6336	0.801
2.67357	0.833
2.71355	0.848
2.75352	0.81
2.79349	0.647
2.83347	0.43
2.87344	0.339
2.91341	0.281
2.95339	0.242
2.99336	0.229
3.03333	0.227
3.07331	0.226
3.11328	0.231
3.15325	0.231
3.19323	0.231
3.2332	0.236
3.27318	0.241
3.31315	0.252
3.35312	0.264
3.3931	0.281
3.43307	0.292
3.47304	0.311
3.51302	0.332
3.55299	0.351
3.59296	0.362
3.63294	0.372
3.67291	0.399
3.71288	0.42
3.75286	0.44
3.79283	0.452
3.8328	0.472
3.87278	0.484
3.91275	0.5
3.95272	0.514
3.9927	0.527
4.03267	0.534
4.07264	0.549
4.11262	0.562
4.15259	0.567
4.19256	0.577
4.23254	0.584
4.27251	0.582
4.31248	0.585
4.35246	0.585
4.39243	0.589
4.4324	0.597
4.47238	0.602
4.51235	0.603
4.55232	0.613
4.5923	0.622
4.63227	0.628
4.67224	0.64
4.71222	0.648
4.75219	0.653
4.79216	0.67
4.83214	0.675
4.87211	0.682
4.91208	0.685
4.95206	0.692
4.99203	0.698
5.032	0.71
5.07198	0.718
5.11195	0.72
5.15192	0.713
5.1919	0.707
5.23187	0.688
5.27184	0.672
5.31182	0.665
5.35179	0.655
5.39176	0.647
5.43174	0.618
5.47171	0.599
5.51168	0.574
5.55166	0.532
5.59163	0.504
5.63161	0.467
5.67158	0.45
5.71155	0.425
5.75153	0.399
5.7915	0.382
5.83147	0.369
5.87145	0.359
5.91142	0.354
5.95139	0.359
5.99137	0.386
6.03134	0.397
6.07131	0.4
6.11129	0.424
6.15126	0.467
6.19123	0.537
6.23121	0.557
6.27118	0.559
6.31115	0.597
6.35113	0.635
6.3911	0.657
6.43107	0.672
6.47105	0.69
6.51102	0.702
6.55099	0.715
6.59097	0.732
6.63094	0.742
6.67091	0.727
6.71089	0.653
6.75086	0.652
6.79083	0.653
6.83081	0.678
6.87078	0.65
6.91075	0.589
6.95073	0.643
6.9907	0.672
7.03067	0.678
7.07065	0.637
7.11062	0.49
7.15059	0.5
7.19057	0.55
7.23054	0.565
7.27051	0.574
7.31049	0.59
7.35046	0.599
7.39043	0.603
7.43041	0.612
7.47038	0.628
7.51035	0.645
7.55033	0.648
7.5903	0.627
7.63027	0.535
7.67025	0.464
7.71022	0.497
7.75019	0.532
7.79017	0.562
7.83014	0.569
7.87012	0.565
7.91009	0.557
7.95006	0.535
7.99004	0.504
8.03001	0.459
8.06998	0.379
8.10996	0.331
8.14993	0.269
8.1899	0.214
8.22988	0.174
8.26985	0.138
8.30982	0.113
8.3498	0.098
8.38977	0.078
8.42974	0.069
8.46972	0.063
8.50969	0.063
8.54966	0.061
8.58964	0.061
8.62961	0.053
8.66958	0.053
8.70956	0.056
8.74953	0.058
8.7895	0.064
8.82948	0.058
8.86945	0.038
8.90942	0.041
8.9494	0.041
8.98937	0.056
9.02934	0.059
9.06932	0.058
9.10929	0.071
9.14926	0.089
9.18924	0.111
9.22921	0.131
9.26918	0.134
9.30916	0.131
9.34913	0.133
9.3891	0.146
9.42908	0.163
9.46905	0.174
9.50902	0.184
9.549	0.188
9.58897	0.171
9.62894	0.126
9.66892	0.079
9.70889	0.069
9.74886	0.098
9.78884	0.121
9.82881	0.159
9.86878	0.159
9.90876	0.136
9.94873	0.094
9.9887	0.103
10.0287	0.141
10.0687	0.181
10.1086	0.224
10.1486	0.261
10.1886	0.286
10.2285	0.311
10.2685	0.329
10.3085	0.339
10.3485	0.351
10.3884	0.366
10.4284	0.387
10.4684	0.419
10.5084	0.442
10.5483	0.462
10.5883	0.477
10.6283	0.505
10.6683	0.517
10.7082	0.512
10.7482	0.502
10.7882	0.505
10.8281	0.539
10.8681	0.572
10.9081	0.608
10.9481	0.64
10.988	0.683
11.028	0.705
11.068	0.732
11.108	0.752
11.1479	0.77
11.1879	0.775
11.2279	0.785
11.2679	0.811
11.3078	0.835
11.3478	0.861
11.3878	0.89
11.4277	0.903
11.4677	0.921
11.5077	0.935
11.5477	0.946
11.5876	0.948
11.6276	0.946
11.6676	0.878
11.7076	0.647
11.7475	0.474
11.7875	0.48
11.8275	0.412
11.8675	0.364
11.9074	0.459
11.9474	0.549
11.9874	0.665
12.0273	0.76
12.0673	0.811
12.1073	0.846
12.1473	0.885
12.1872	0.901
12.2272	0.926
12.2672	0.943
12.3072	0.958
12.3471	0.965
12.3871	0.976
12.4271	0.988
12.4671	0.993
12.507	1.003
12.547	1.004
12.587	1.009
12.6269	1.009
12.6669	1.006
12.7069	0.998
12.7469	0.975
12.7868	0.928
12.8268	0.8
12.8668	0.663
12.9068	0.519
12.9467	0.447
12.9867	0.417
13.0267	0.467
13.0667	0.597
13.1066	0.742
13.1466	0.815
13.1866	0.885
13.2265	0.913
13.2665	0.945
13.3065	0.951
13.3465	0.956
13.3864	0.95
13.4264	0.935
13.4664	0.906
13.5064	0.875
13.5463	0.841
13.5863	0.8
13.6263	0.74
13.6663	0.667
13.7062	0.603
13.7462	0.527
13.7862	0.474
13.8262	0.424
13.8661	0.402
13.9061	0.402
13.9461	0.459
13.986	0.557
14.026	0.655
14.066	0.755
14.106	0.82
14.1459	0.873
14.1859	0.913
14.2259	0.948
14.2659	0.963
14.3058	0.965
14.3458	0.966
14.3858	0.963
14.4258	0.933
14.4657	0.871
14.5057	0.752
14.5457	0.628
14.5856	0.5
14.6256	0.419
14.6656	0.389
14.7056	0.397
14.7455	0.479
14.7855	0.58
14.8255	0.678
14.8655	0.74
14.9054	0.762
14.9454	0.783
14.9854	0.797
15.0254	0.792
15.0653	0.768
15.1053	0.748
15.1453	0.73
15.1852	0.727
15.2252	0.723
15.2652	0.708
15.3052	0.697
15.3451	0.673
15.3851	0.643
15.4251	0.618
15.4651	0.587
15.505	0.562
15.545	0.55
15.585	0.535
15.625	0.534
15.6649	0.54
15.7049	0.544
15.7449	0.55
15.7848	0.557
15.8248	0.564
15.8648	0.572
15.9048	0.575
15.9447	0.579
15.9847	0.574
