Infrared Spectrum: 4-Amino-3-methylbenzoic acid
Formula: C 8 H 9 N O 2
CAS: 2486-70-6
State: gas
Instrument: HP-GC/MS/IRD
Origin: NIST Mass Spectrometry Data Center
1/CM	ABSORBANCE
550	0.0005814
562	0.0009576
574	0.0015048
586	0.0015228
598	0.0011862
610	0.0025758
622	0.0023436
634	0.0004266
646	0.0001656
658	0.0002448
670	0.00036
682	0.0004878
694	0.0006426
706	0.0013302
718	0.0021168
730	0.0011772
742	0.0008172
754	0.0014274
766	0.0022986
778	0.0016758
790	0.0007884
802	0.000342
814	0.0004068
826	0.0005526
838	0.0003222
850	8.1e-05
862	9e-06
874	1.26e-05
886	9.18e-05
898	0.0002808
910	0.0004932
922	0.0002646
934	7.2e-05
946	1.8e-05
958	9.18e-05
970	0.0001494
982	0.0003636
994	0.0005958
1006	0.0003744
1018	0.0002484
1030	0.0003312
1042	0.0006408
1054	0.0015102
1066	0.0024372
1078	0.0038484
1090	0.0047772
1102	0.0028458
1114	0.0016866
1126	0.0029358
1138	0.006363
1150	0.0080712
1162	0.0060984
1174	0.0030798
1186	0.0005976
1198	0.0005022
1210	0.0012024
1222	0.0010836
1234	0.000576
1246	0.0003474
1258	0.0007308
1270	0.0017496
1282	0.0045054
1294	0.005256
1306	0.0021204
1318	0.0019242
1330	0.002925
1342	0.0028026
1354	0.0029304
1366	0.003132
1378	0.0011592
1390	0.0003978
1402	0.0003024
1414	0.0005652
1426	0.0007236
1438	0.0004338
1450	0.0004032
1462	0.0005724
1474	0.0005454
1486	0.0006624
1498	0.0017334
1510	0.002394
1522	0.0009036
1534	0.0003384
1546	0.000252
1558	0.0003456
1570	0.0008892
1582	0.0016074
1594	0.0017406
1606	0.0028944
1618	0.0052974
1630	0.00648
1642	0.0031014
1654	0.0009792
1666	0.000486
1678	0.0004374
1690	0.0005976
1702	0.0007344
1714	0.0009396
1726	0.0018162
1738	0.0072864
1750	0.017694
1762	0.0109674
1774	0.0020646
1786	0.0006588
1798	0.0004914
1810	0.0006012
1822	0.0003618
1834	0.0001224
1846	2.7e-05
1858	3.78e-05
1870	4.86e-05
1882	7.74e-05
1894	0.0001008
1906	0.0001026
1918	8.1e-05
1930	8.1e-05
1942	4.68e-05
1954	2.7e-05
1966	0
1978	5.4e-06
1990	4.86e-05
2002	4.32e-05
2014	3.6e-05
2026	3.06e-05
2038	3.96e-05
2050	5.58e-05
2062	6.3e-05
2074	4.5e-05
2086	1.98e-05
2098	2.52e-05
2110	1.62e-05
2122	2.52e-05
2134	1.62e-05
2146	1.08e-05
2158	1.98e-05
2170	2.16e-05
2182	2.88e-05
2194	1.98e-05
2206	4.14e-05
2218	2.16e-05
2230	2.34e-05
2242	3.24e-05
2254	2.52e-05
2266	2.16e-05
2278	2.52e-05
2290	2.7e-05
2302	4.14e-05
2314	2.52e-05
2326	3.6e-05
2338	3.24e-05
2350	6.3e-05
2362	5.04e-05
2374	6.66e-05
2386	5.94e-05
2398	3.24e-05
2410	4.14e-05
2422	5.76e-05
2434	3.42e-05
2446	3.06e-05
2458	2.7e-05
2470	1.8e-06
2482	2.34e-05
2494	2.52e-05
2506	4.5e-05
2518	3.24e-05
2530	5.76e-05
2542	5.04e-05
2554	4.14e-05
2566	4.86e-05
2578	7.02e-05
2590	5.76e-05
2602	9.54e-05
2614	9.18e-05
2626	0.0001188
2638	0.000153
2650	0.0001584
2662	0.0001314
2674	8.64e-05
2686	6.3e-05
2698	9.18e-05
2710	0.0001206
2722	0.0001098
2734	0.0001278
2746	0.0001404
2758	0.000135
2770	0.0001152
2782	8.46e-05
2794	0.0001332
2806	0.000153
2818	0.0001548
2830	0.0002124
2842	0.0002502
2854	0.0002952
2866	0.000477
2878	0.0006192
2890	0.0005922
2902	0.0006264
2914	0.0007506
2926	0.000909
2938	0.0008604
2950	0.0006696
2962	0.000459
2974	0.000441
2986	0.000549
2998	0.0004716
3010	0.000405
3022	0.0004518
3034	0.000621
3046	0.0005436
3058	0.0004032
3070	0.0003708
3082	0.000333
3094	0.0002466
3106	0.000225
3118	0.0001584
3130	0.000162
3142	9.54e-05
3154	0.0001134
3166	9.36e-05
3178	0.0001368
3190	0.0001044
3202	0.0001206
3214	0.0001188
3226	0.000189
3238	0.0001188
3250	0.0001134
3262	9.36e-05
3274	0.0001044
3286	4.86e-05
3298	7.02e-05
3310	2.88e-05
3322	2.88e-05
3334	7.38e-05
3346	7.02e-05
3358	7.56e-05
3370	8.28e-05
3382	9.36e-05
3394	0.0001512
3406	0.000459
3418	0.0008478
3430	0.0007596
3442	0.0004086
3454	0.0001818
3466	0.000135
3478	0.000216
3490	0.0004392
3502	0.0005382
3514	0.0005112
3526	0.000378
3538	0.0001926
3550	0.0001926
3562	0.0002844
3574	0.0017964
3586	0.0048078
3598	0.0017532
3610	0.0001746
3622	4.14e-05
3634	8.82e-05
3646	5.4e-05
3658	4.5e-05
3670	1.44e-05
3682	4.32e-05
3694	6.84e-05
3706	2.7e-05
3718	2.7e-05
3730	7.02e-05
3742	1.98e-05
3754	0.000117
3766	8.28e-05
3778	0.000117
3790	7.74e-05
3802	6.48e-05
3814	0.0001224
3826	4.14e-05
3838	0.000126
