Infrared Spectrum: Didecylamine, hydrochloride
Formula: C20 H44 Cl N
CAS: 2486-84-2
State: SOLID (KBr DISC, 0.8% WT.)
Class: COBLENTZ III
Instrument: PERKIN-ELMER 157
Sampling: TRANSMISSION
Resolution: 2
Origin: BRITISH PETROLEUM CO. LTD., ENGLAND
1/CM	TRANSMITTANCE
667	0.9044
676	0.8823
685	0.8458
694	0.8331
703	0.7844
712	0.656
721	0.2193
730	0.5348
739	0.7112
748	0.745
757	0.7587
766	0.7426
775	0.619
784	0.5902
793	0.5384
802	0.7275
811	0.7664
820	0.7664
829	0.7598
838	0.7273
847	0.7478
856	0.7493
865	0.7277
874	0.6666
883	0.5275
892	0.6105
901	0.6797
910	0.7252
919	0.7228
928	0.7374
937	0.7299
946	0.6998
955	0.7239
964	0.7084
973	0.7266
982	0.7055
991	0.677
1000	0.6805
1009	0.6395
1018	0.6404
1027	0.4939
1036	0.5209
1045	0.3849
1054	0.5951
1063	0.6425
1072	0.6602
1081	0.6592
1090	0.6972
1099	0.682
1108	0.6236
1117	0.6347
1126	0.6753
1135	0.6616
1144	0.7008
1153	0.7028
1162	0.6982
1171	0.6972
1180	0.6666
1189	0.7049
1198	0.7068
1207	0.6863
1216	0.7043
1225	0.7056
1234	0.704
1243	0.6843
1252	0.6957
1261	0.6867
1270	0.6244
1279	0.6639
1288	0.6427
1297	0.6381
1306	0.6432
1315	0.6511
1324	0.648
1333	0.624
1342	0.5916
1351	0.5346
1360	0.5808
1369	0.4953
1378	0.4728
1387	0.5714
1396	0.5561
1405	0.4864
1414	0.4606
1423	0.534
1432	0.4573
1441	0.3478
1450	0.238
1459	0.0774
1468	0.0401
1477	0.1972
1486	0.252
1495	0.4637
1504	0.5172
1513	0.5609
1522	0.5832
1531	0.5879
1540	0.5891
1549	0.5888
1558	0.5881
1567	0.5797
1576	0.5641
1585	0.5415
1594	0.5097
1603	0.5329
1612	0.5756
1621	0.5869
1630	0.5893
1639	0.5911
1648	0.5907
1657	0.5884
1666	0.5882
1675	0.578
1684	0.5768
1693	0.5812
1702	0.5962
1711	0.6116
1720	0.6194
1729	0.6303
1738	0.6327
1747	0.6372
1756	0.6377
1765	0.6386
1774	0.6394
1783	0.6399
1792	0.6392
1801	0.6371
1810	0.6335
1819	0.6263
1828	0.616
1837	0.6055
1846	0.6042
1855	0.6047
1864	0.6041
1873	0.6065
1882	0.6179
1891	0.6301
1900	0.634
1909	0.639
1918	0.6398
1927	0.6405
1936	0.6412
1945	0.6416
1954	0.6412
1963	0.6396
1972	0.6371
1981	0.6347
1990	0.6324
1999	0.6312
2008	0.6305
2017	0.6304
2026	0.6302
2035	0.6303
2044	0.6304
2053	0.6304
2062	0.6296
2071	0.6274
2080	0.6236
2089	0.6223
2098	0.6218
2107	0.6199
2116	0.6177
2125	0.6153
2134	0.6134
2143	0.6124
2152	0.6112
2161	0.61
2170	0.6089
2179	0.6066
2188	0.6024
2197	0.5961
2206	0.5913
2215	0.5877
2224	0.5851
2233	0.5855
2242	0.5862
2251	0.5876
2260	0.5858
2269	0.5812
2278	0.5751
2287	0.5678
2296	0.5605
2305	0.5535
2314	0.5366
2323	0.5021
2332	0.4678
2341	0.4422
2350	0.4287
2359	0.4206
2368	0.4193
2377	0.4198
2386	0.4227
2395	0.4222
2404	0.378
2413	0.356
2422	0.2792
2431	0.224
2440	0.1692
2449	0.1595
2458	0.2639
2467	0.3533
2476	0.3545
2485	0.3355
2494	0.3028
2503	0.2704
2512	0.2402
2521	0.2304
2530	0.2287
2539	0.2439
2548	0.2694
2557	0.2847
2566	0.2821
2575	0.2797
2584	0.2742
2593	0.245
2602	0.2156
2611	0.1986
2620	0.1936
2629	0.1894
2638	0.1799
2647	0.1644
2656	0.1221
2665	0.0999
2674	0.0817
2683	0.0682
2692	0.0567
2701	0.0473
2710	0.0431
2719	0.0413
2728	0.0388
2737	0.0354
2746	0.0329
2755	0.0309
2764	0.0307
2773	0.0312
2782	0.0326
2791	0.0357
2800	0.0372
2809	0.0364
2818	0.034
2827	0.0316
2836	0.0313
2845	0.0313
2854	0.0308
2863	0.0296
2872	0.0266
2881	0.0211
2890	0.0194
2899	0.0195
2908	0.02
2917	0.0208
2926	0.023
2935	0.0312
2944	0.0366
2953	0.0391
2962	0.0536
2971	0.0555
2980	0.0653
2989	0.0884
2998	0.1001
3007	0.1054
3016	0.1136
3025	0.1214
3034	0.1279
3043	0.1366
3052	0.1485
3061	0.1597
3070	0.1704
3079	0.1918
3088	0.2055
3097	0.2143
3106	0.2198
3115	0.2225
3124	0.2235
3133	0.2245
3142	0.2268
3151	0.2349
3160	0.245
3169	0.2495
3178	0.2528
3187	0.2555
3196	0.2583
3205	0.2607
3214	0.2627
3223	0.2635
3232	0.2638
3241	0.264
3250	0.2641
3259	0.2641
3268	0.2641
3277	0.2637
3286	0.2632
3295	0.2628
3304	0.2625
3313	0.2622
3322	0.2619
3331	0.2616
3340	0.2615
3349	0.2614
3358	0.2613
3367	0.2612
3376	0.2612
3385	0.2614
3394	0.2618
3403	0.2621
3412	0.2625
3421	0.2629
3430	0.2636
3439	0.2643
3448	0.2649
3457	0.2656
3466	0.2662
3475	0.2668
3484	0.2673
3493	0.2676
3502	0.2678
3511	0.2679
3520	0.2682
3529	0.2683
3538	0.2683
3547	0.2683
3556	0.2683
3565	0.2683
3574	0.2683
3583	0.2683
3592	0.2682
3601	0.2682
3610	0.2681
3619	0.2681
3628	0.268
3637	0.268
3646	0.2679
3655	0.2679
3664	0.2679
3673	0.2677
3682	0.2674
3691	0.2671
3700	0.2668
3709	0.2666
3718	0.2659
3727	0.2647
3736	0.2633
3745	0.262
3754	0.2607
3763	0.2594
3772	0.2583
3781	0.2573
3790	0.2562
3799	0.2551
3808	0.254
3817	0.2535
3826	0.2534
3835	0.2532
3844	0.253
3853	0.2528
3862	0.2526
3871	0.2524
3880	0.2522
3889	0.251
3898	0.249
3907	0.2464
3916	0.2441
3925	0.2424
3934	0.2421
3943	0.242
3952	0.2417
3961	0.2414
3970	0.2412
3979	0.2409
3988	0.2407
3997	0.2404
