Infrared Spectrum: Di-dodecylamine hydrochloride
Formula: C24 H52 Cl N
CAS: 2486-85-3
State: SOLID (KBr DISC, 0.9% WT.)
Class: COBLENTZ III
Instrument: PERKIN-ELMER 157
Sampling: TRANSMISSION
Resolution: 2
Origin: BRITISH PETROLEUM CO. LTD., ENGLAND
1/CM	TRANSMITTANCE
667	1.0073
676	0.9831
685	0.9451
694	0.9209
703	0.8656
712	0.742
721	0.4657
730	0.6326
739	0.694
748	0.7122
757	0.7297
766	0.7237
775	0.7306
784	0.7491
793	0.7555
802	0.763
811	0.7688
820	0.7546
829	0.7468
838	0.7463
847	0.7484
856	0.7473
865	0.742
874	0.7372
883	0.7309
892	0.7276
901	0.7338
910	0.7341
919	0.7348
928	0.7386
937	0.7365
946	0.7313
955	0.7196
964	0.7155
973	0.7035
982	0.6946
991	0.6844
1000	0.6717
1009	0.656
1018	0.6376
1027	0.6193
1036	0.6003
1045	0.5741
1054	0.5982
1063	0.6256
1072	0.6434
1081	0.6563
1090	0.6617
1099	0.6626
1108	0.6559
1117	0.6456
1126	0.6516
1135	0.6554
1144	0.6558
1153	0.6558
1162	0.6553
1171	0.6543
1180	0.6534
1189	0.6533
1198	0.6519
1207	0.6498
1216	0.6464
1225	0.6381
1234	0.6355
1243	0.6277
1252	0.616
1261	0.6138
1270	0.6133
1279	0.6005
1288	0.5887
1297	0.5717
1306	0.5702
1315	0.5702
1324	0.5706
1333	0.5558
1342	0.5356
1351	0.5346
1360	0.5138
1369	0.4687
1378	0.421
1387	0.5077
1396	0.4922
1405	0.4477
1414	0.4468
1423	0.4368
1432	0.3659
1441	0.2612
1450	0.1852
1459	0.1303
1468	0.1719
1477	0.2469
1486	0.3644
1495	0.4345
1504	0.4703
1513	0.4715
1522	0.4719
1531	0.4737
1540	0.4722
1549	0.4713
1558	0.4605
1567	0.4521
1576	0.4176
1585	0.4
1594	0.3981
1603	0.4233
1612	0.4658
1621	0.4843
1630	0.4872
1639	0.49
1648	0.4981
1657	0.4987
1666	0.4987
1675	0.4984
1684	0.4964
1693	0.4947
1702	0.4943
1711	0.4955
1720	0.4979
1729	0.5044
1738	0.5059
1747	0.5063
1756	0.5066
1765	0.5068
1774	0.5069
1783	0.5048
1792	0.4999
1801	0.4985
1810	0.4963
1819	0.4934
1828	0.4918
1837	0.4907
1846	0.4897
1855	0.4887
1864	0.4879
1873	0.4874
1882	0.4869
1891	0.487
1900	0.4873
1909	0.4875
1918	0.4871
1927	0.4867
1936	0.4862
1945	0.4854
1954	0.4847
1963	0.4841
1972	0.4836
1981	0.4806
1990	0.4774
1999	0.4759
2008	0.4747
2017	0.4735
2026	0.4724
2035	0.4714
2044	0.4703
2053	0.4693
2062	0.4683
2071	0.4674
2080	0.4663
2089	0.4654
2098	0.4645
2107	0.4635
2116	0.4622
2125	0.4611
2134	0.4599
2143	0.4582
2152	0.4567
2161	0.4557
2170	0.4537
2179	0.4505
2188	0.4489
2197	0.4487
2206	0.4489
2215	0.4487
2224	0.4484
2233	0.4475
2242	0.4452
2251	0.4402
2260	0.4375
2269	0.4363
2278	0.4351
2287	0.4334
2296	0.4299
2305	0.4265
2314	0.4224
2323	0.4142
2332	0.4039
2341	0.3911
2350	0.377
2359	0.3617
2368	0.3518
2377	0.3441
2386	0.3355
2395	0.3189
2404	0.3021
2413	0.2937
2422	0.2897
2431	0.289
2440	0.2889
2449	0.2891
2458	0.2892
2467	0.2893
2476	0.289
2485	0.2878
2494	0.2843
2503	0.2801
2512	0.2757
2521	0.2731
2530	0.2706
2539	0.2692
2548	0.268
2557	0.2671
2566	0.2658
2575	0.2614
2584	0.2558
2593	0.2487
2602	0.2393
2611	0.2327
2620	0.2246
2629	0.2164
2638	0.203
2647	0.1795
2656	0.1652
2665	0.156
2674	0.148
2683	0.1447
2692	0.1189
2701	0.1016
2710	0.0901
2719	0.0805
2728	0.0732
2737	0.0675
2746	0.0627
2755	0.0591
2764	0.057
2773	0.0557
2782	0.0549
2791	0.0543
2800	0.0535
2809	0.0528
2818	0.0505
2827	0.0466
2836	0.0427
2845	0.0406
2854	0.0415
2863	0.0422
2872	0.0402
2881	0.0347
2890	0.0317
2899	0.0305
2908	0.0303
2917	0.0303
2926	0.0308
2935	0.0313
2944	0.0321
2953	0.0343
2962	0.0376
2971	0.0445
2980	0.0587
2989	0.066
2998	0.0685
3007	0.0723
3016	0.087
3025	0.0925
3034	0.1035
3043	0.1187
3052	0.1226
3061	0.1249
3070	0.1427
3079	0.1451
3088	0.1467
3097	0.1511
3106	0.1551
3115	0.1581
3124	0.1589
3133	0.1592
3142	0.1596
3151	0.1618
3160	0.165
3169	0.1687
3178	0.1719
3187	0.1736
3196	0.1744
3205	0.1745
3214	0.1745
3223	0.1744
3232	0.1743
3241	0.1741
3250	0.1737
3259	0.1732
3268	0.1725
3277	0.1717
3286	0.171
3295	0.1701
3304	0.1693
3313	0.1685
3322	0.1677
3331	0.1673
3340	0.167
3349	0.1667
3358	0.1663
3367	0.166
3376	0.1657
3385	0.1651
3394	0.1643
3403	0.1638
3412	0.1637
3421	0.1644
3430	0.1652
3439	0.1665
3448	0.168
3457	0.17
3466	0.1722
3475	0.1737
3484	0.1746
3493	0.1749
3502	0.1752
3511	0.1753
3520	0.1753
3529	0.1754
3538	0.1754
3547	0.1754
3556	0.1754
3565	0.1753
3574	0.1753
3583	0.1752
3592	0.1752
3601	0.1751
3610	0.1748
3619	0.1745
3628	0.1743
3637	0.1739
3646	0.1732
3655	0.1725
3664	0.1712
3673	0.1699
3682	0.1684
3691	0.167
3700	0.1656
3709	0.1646
3718	0.1635
3727	0.1626
3736	0.1619
3745	0.1614
3754	0.1608
3763	0.1603
3772	0.16
3781	0.1597
3790	0.1594
3799	0.1591
3808	0.1589
3817	0.1585
3826	0.1584
3835	0.1582
3844	0.1581
3853	0.1579
3862	0.1578
3871	0.1576
3880	0.1575
3889	0.1574
3898	0.1574
3907	0.1573
3916	0.1573
3925	0.1572
3934	0.1572
3943	0.1571
3952	0.1572
3961	0.1573
3970	0.1574
3979	0.1575
3988	0.1576
3997	0.1577
