Infrared Spectrum: o-Nitrophenyl benzoate
Formula: C 10 H 11 N O 4
CAS: 2487-26-5
State: gas
Origin: EPA-IR VAPOR PHASE LIBRARY
1/CM	ABSORBANCE
549.8	0.002879
559.445	0.002049
569.09	0.001879
578.734	0.001809
588.379	0.001429
598.024	0.001619
607.669	0.002049
617.313	0.002399
626.958	0.002899
636.603	0.003639
646.248	0.004639
655.893	0.008229
665.537	0.011619
675.182	0.008969
684.827	0.007659
694.472	0.010179
704.116	0.011569
713.761	0.012359
723.406	0.014479
733.051	0.019299
742.695	0.016279
752.34	0.012709
761.985	0.016239
771.63	0.021869
781.275	0.014029
790.919	0.010819
800.564	0.013669
810.209	0.015709
819.854	0.013579
829.498	0.011819
839.143	0.019469
848.788	0.029009
858.433	0.020629
868.078	0.014539
877.722	0.012169
887.367	0.016629
897.012	0.022459
906.657	0.028699
916.301	0.036849
925.946	0.023789
935.591	0.011479
945.236	0.010339
954.88	0.007229
964.525	0.004459
974.17	0.003779
983.815	0.004089
993.46	0.004949
1003.1	0.006439
1012.75	0.010199
1022.39	0.018469
1032.04	0.024909
1041.68	0.027189
1051.33	0.030669
1060.97	0.045779
1070.62	0.078109
1080.26	0.120409
1089.91	0.135919
1099.55	0.099729
1109.2	0.074549
1118.84	0.085069
1128.49	0.102749
1138.13	0.091059
1147.78	0.083609
1157.42	0.089959
1167.07	0.088099
1176.71	0.071659
1186.36	0.044869
1196	0.034599
1205.64	0.043439
1215.29	0.079009
1224.93	0.100749
1234.58	0.051639
1244.22	0.028959
1253.87	0.024629
1263.51	0.028789
1273.16	0.022289
1282.8	0.017729
1292.45	0.021029
1302.09	0.022469
1311.74	0.019879
1321.38	0.020049
1331.03	0.028229
1340.67	0.056789
1350.32	0.112269
1359.96	0.108779
1369.61	0.049589
1379.25	0.025869
1388.9	0.017859
1398.54	0.013639
1408.18	0.011799
1417.83	0.012949
1427.47	0.014559
1437.12	0.013889
1446.76	0.014629
1456.41	0.017979
1466.05	0.023979
1475.7	0.036529
1485.34	0.039689
1494.99	0.029009
1504.63	0.026219
1514.28	0.033759
1523.92	0.050949
1533.57	0.091219
1543.21	0.155309
1552.86	0.119189
1562.5	0.059859
1572.15	0.041059
1581.79	0.034849
1591.44	0.045199
1601.08	0.068709
1610.73	0.051729
1620.37	0.018439
1630.01	0.009889
1639.66	0.007249
1649.3	0.005799
1658.95	0.004719
1668.59	0.004179
1678.24	0.004069
1687.88	0.004069
1697.53	0.004289
1707.17	0.004869
1716.82	0.005419
1726.46	0.005979
1736.11	0.007299
1745.75	0.010299
1755.4	0.014729
1765.04	0.023719
1774.69	0.046199
1784.33	0.096969
1793.98	0.113629
1803.62	0.055559
1813.27	0.024139
1822.91	0.013679
1832.55	0.008599
1842.2	0.005979
1851.84	0.004469
1861.49	0.003649
1871.13	0.003189
1880.78	0.003109
1890.42	0.003119
1900.07	0.002949
1909.71	0.003039
1919.36	0.003679
1929	0.003279
1938.65	0.002749
1948.29	0.003429
1957.94	0.003089
1967.58	0.002049
1977.23	0.001919
1986.87	0.001809
1996.52	0.001819
2006.16	0.001759
2015.81	0.001909
2025.45	0.002059
2035.1	0.002049
2044.74	0.001769
2054.38	0.001489
2064.03	0.001389
2073.67	0.001349
2083.32	0.001329
2092.96	0.001339
2102.61	0.0012962
2112.25	0.001284
2121.9	0.0011846
2131.54	0.001223
2141.19	0.0011559
2150.83	0.0010088
2160.48	0.0009812
2170.12	0.0009309
2179.77	0.0010032
2189.41	0.0008753
2199.06	0.0008804
2208.7	0.0008581
2218.35	0.0008416
2227.99	0.0008944
2237.64	0.0009585
2247.28	0.000834
2256.92	0.0008988
2266.57	0.0008106
2276.21	0.0009037
2285.86	0.0010711
2295.5	0.0012777
2305.15	0.0012835
2314.79	0.001277
2324.44	0.0012939
2334.08	0.0009972
2343.73	0.0011123
2353.37	0.0011939
2363.02	0.0011334
2372.66	0.0011369
2382.31	0.0012904
2391.95	0.001429
2401.6	0.001309
2411.24	0.001439
2420.89	0.001499
2430.53	0.001799
2440.18	0.001929
2449.82	0.001599
2459.47	0.0012256
2469.11	0.0010124
2478.75	0.000953
2488.4	0.0010365
2498.04	0.0010333
2507.69	0.0009172
2517.33	0.0007726
2526.98	0.0007719
2536.62	0.0007177
2546.27	0.0007673
2555.91	0.000855
2565.56	0.000992
2575.2	0.0010105
2584.85	0.0009696
2594.49	0.0009614
2604.14	0.0008714
2613.78	0.0008493
2623.43	0.0009016
2633.07	0.0007905
2642.72	0.000923
2652.36	0.0008396
2662.01	0.0008544
2671.65	0.0012481
2681.29	0.001459
2690.94	0.001629
2700.58	0.001529
2710.23	0.001389
2719.87	0.001124
2729.52	0.0011623
2739.16	0.001459
2748.81	0.001669
2758.45	0.001469
2768.1	0.001339
2777.74	0.001379
2787.39	0.001479
2797.03	0.001829
2806.68	0.001949
2816.32	0.002309
2825.97	0.002579
2835.61	0.003159
2845.26	0.003799
2854.9	0.004659
2864.55	0.006359
2874.19	0.010589
2883.84	0.017779
2893.48	0.017759
2903.12	0.013329
2912.77	0.012979
2922.41	0.014749
2932.06	0.018459
2941.7	0.026569
2951.35	0.029399
2960.99	0.027919
2970.64	0.035049
2980.28	0.037639
2989.93	0.025999
2999.57	0.014509
3009.22	0.008179
3018.86	0.005839
3028.51	0.004719
3038.15	0.004259
3047.8	0.004119
3057.44	0.004279
3067.09	0.005639
3076.73	0.008829
3086.38	0.011429
3096.02	0.006439
3105.67	0.002549
3115.31	0.001609
3124.95	0.001409
3134.6	0.0012918
3144.24	0.0012823
3153.89	0.0011631
3163.53	0.0009036
3173.18	0.0007349
3182.82	0.0009517
3192.47	0.0010248
3202.11	0.0007671
3211.76	0.0007741
3221.4	0.0007567
3231.05	0.0005399
3240.69	0.0004237
3250.34	0.0005996
3259.98	0.00032104
3269.63	0.0004323
3279.27	0.00033475
3288.92	0.00035407
3298.56	0.000304485
3308.21	0.00026
3317.85	0.0002519
3327.49	0.00035846
3337.14	0.00031754
3346.78	0.0004004
3356.43	0.0004168
3366.07	0.0002659
3375.72	0.000179
3385.36	0.0002562
3395.01	0.000335
3404.65	0.0002139
3414.3	0.000178
3423.94	0.0002051
3433.59	0.000194
3443.23	0.0003364
3452.88	0.000406
3462.52	0.0003798
3472.17	0.00036628
3481.81	0.00038917
3491.46	0.0002373
3501.1	0.00039701
3510.75	0.00034131
3520.39	0.0003953
3530.04	0.0007068
3539.68	0.0009631
3549.32	0.001299
3558.97	0.001509
3568.61	0.001299
3578.26	0.0009915
3587.9	0.0006128
3597.55	0.0006177
3607.19	0.0004718
3616.84	0.000474
3626.48	0.00032913
3636.13	0.0004463
3645.77	0.0004436
3655.42	0.0004662
3665.06	0.00030326
3674.71	0.0004505
3684.35	0.0002655
3694	0.0003976
3703.64	0.000299991
3713.29	0.00031752
3722.93	0.0004503
3732.58	0.0004245
3742.22	0.00036946
3751.86	0.0004611
3761.51	0.0004976
3771.15	0.0005077
3780.8	0.0004506
3790.44	0.0004305
3800.09	0.0004334
3809.73	0.00035668
3819.38	0.0004181
3829.02	0.0002561
3838.67	0.0004291
3848.31	0.00037089
3857.96	0.0002489
3867.6	0.00033868
3877.25	0.0002447
3886.89	0.000237
3896.54	0.0004967
3906.18	0.0002429
3915.83	0.0004094
3925.47	0.0004103
3935.12	0.0004374
3944.76	0.00034244
3954.41	0.0004212
3964.05	0.000533
3973.69	0.0005852
3983.34	0.0005804
3992.98	0.0004575
