Infrared Spectrum: HYPOXANTHINE, 2-MERCAPTO-
Formula: C5 H4 N4 O S
CAS: 2487-40-3
State: SOLID (0.6 mg / 650 mg KBr DISC)
Class: COBLENTZ III
Instrument: PERKIN-ELMER 21 (GRATING)
Instrument parameters: FILTER CHANGE ABOUT 1020 CM^-^1
Sampling: TRANSMISSION
Resolution: 4
Origin: SOUTHERN RESEARCH INSTITUTE
1/CM	TRANSMITTANCE
602.441	0.422
610.903	0.4254
619.365	0.4486
627.827	0.45
636.289	0.4728
644.751	0.6466
653.213	0.6542
661.675	0.6329
670.138	0.6116
678.6	0.564
687.062	0.6586
695.524	0.67
703.986	0.668
712.448	0.6667
720.91	0.6649
729.372	0.661
737.834	0.6561
746.296	0.6139
754.758	0.4595
763.22	0.667
771.682	0.6488
780.144	0.6251
788.606	0.5828
797.069	0.5234
805.531	0.3904
813.993	0.322
822.455	0.3443
830.917	0.3532
839.379	0.3601
847.841	0.37
856.303	0.455
864.765	0.6386
873.227	0.7258
881.689	0.7526
890.151	0.754
898.613	0.7388
907.075	0.7392
915.537	0.749
923.999	0.742
932.462	0.7408
940.924	0.7699
949.386	0.7728
957.848	0.7658
966.31	0.7414
974.772	0.6939
983.234	0.6562
991.696	0.7548
1000.16	0.7625
1008.62	0.7401
1017.08	0.7058
1025.54	0.6708
1034.01	0.5863
1042.47	0.3966
1050.93	0.3326
1059.39	0.7473
1067.85	0.7903
1076.32	0.7898
1084.78	0.7828
1093.24	0.7779
1101.7	0.7649
1110.16	0.745
1118.63	0.738
1127.09	0.723
1135.55	0.7235
1144.01	0.7136
1152.48	0.6826
1160.94	0.6146
1169.4	0.6325
1177.86	0.6571
1186.32	0.5961
1194.79	0.4954
1203.25	0.3253
1211.71	0.2497
1220.17	0.2536
1228.63	0.2231
1237.1	0.4586
1245.56	0.7439
1254.02	0.7206
1262.48	0.5363
1270.94	0.5597
1279.41	0.7371
1287.87	0.7884
1296.33	0.7645
1304.79	0.7289
1313.25	0.6906
1321.72	0.6539
1330.18	0.5554
1338.64	0.2948
1347.1	0.367
1355.56	0.7033
1364.03	0.739
1372.49	0.7381
1380.95	0.7269
1389.41	0.695
1397.88	0.6686
1406.34	0.607
1414.8	0.49
1423.26	0.3513
1431.72	0.3508
1440.19	0.5866
1448.65	0.5947
1457.11	0.4952
1465.57	0.4136
1474.03	0.3378
1482.5	0.3493
1490.96	0.5706
1499.42	0.5521
1507.88	0.5733
1516.34	0.584
1524.81	0.559
1533.27	0.5447
1541.73	0.5054
1550.19	0.4936
1558.65	0.3743
1567.12	0.3343
1575.58	0.2711
1584.04	0.215
1592.5	0.1442
1600.96	0.0568
1609.43	0.082
1617.89	0.1808
1626.35	0.4012
1634.81	0.4688
1643.28	0.4376
1651.74	0.3993
1660.2	0.3602
1668.66	0.2486
1677.12	0.1275
1685.59	0.0362
1694.05	0.045
1702.51	0.0731
1710.97	0.1002
1719.43	0.1821
1727.9	0.3237
1736.36	0.4699
1744.82	0.6007
1753.28	0.6821
1761.74	0.7504
1770.21	0.78
1778.67	0.788
1787.13	0.7994
1795.59	0.8216
1804.05	0.8345
1812.52	0.832
1820.98	0.834
1829.44	0.835
1837.9	0.8522
1846.36	0.852
1854.83	0.849
1863.29	0.861
1871.75	0.8659
1880.21	0.865
1888.67	0.865
1897.14	0.866
1905.6	0.866
1914.06	0.864
1922.52	0.8635
1930.99	0.859
1939.45	0.8502
1947.91	0.846
1956.37	0.8408
1964.83	0.842
1973.3	0.8471
1981.76	0.8521
1990.22	0.854
1998.68	0.855
2007.14	0.845
2015.61	0.8371
2024.07	0.826
2032.53	0.826
2040.99	0.828
2049.45	0.8262
2057.92	0.8231
2066.38	0.823
2074.84	0.8191
2083.3	0.8131
2091.76	0.8071
2100.23	0.806
2108.69	0.807
2117.15	0.807
2125.61	0.806
2134.07	0.803
2142.54	0.801
2151	0.8
2159.46	0.795
2167.92	0.791
2176.39	0.7899
2184.85	0.788
2193.31	0.7832
2201.77	0.78
2210.23	0.7771
2218.7	0.7761
2227.16	0.769
2235.62	0.761
2244.08	0.757
2252.54	0.753
2261.01	0.7482
2269.47	0.746
2277.93	0.739
2286.39	0.7304
2294.85	0.7131
2303.32	0.6902
2311.78	0.6773
2320.24	0.669
2328.7	0.667
2337.16	0.667
2345.63	0.668
2354.09	0.6699
2362.55	0.669
2371.01	0.6681
2379.47	0.662
2387.94	0.656
2396.4	0.6423
2404.86	0.6271
2413.32	0.617
2421.79	0.6111
2430.25	0.6014
2438.71	0.5951
2447.17	0.588
2455.63	0.5751
2464.1	0.572
2472.56	0.5642
2481.02	0.5531
2489.48	0.5442
2497.94	0.5351
2506.41	0.5252
2514.87	0.5142
2523.33	0.5022
2531.79	0.4873
2540.25	0.4741
2548.72	0.4642
2557.18	0.4463
2565.64	0.4302
2574.1	0.4057
2582.56	0.3783
2591.03	0.3711
2599.49	0.37
2607.95	0.3662
2616.41	0.3571
2624.87	0.3421
2633.34	0.3262
2641.8	0.3141
2650.26	0.314
2658.72	0.3189
2667.19	0.322
2675.65	0.32
2684.11	0.3121
2692.57	0.2923
2701.03	0.2652
2709.5	0.2463
2717.96	0.2273
2726.42	0.2101
2734.88	0.1915
2743.34	0.1742
2751.81	0.1583
2760.27	0.1501
2768.73	0.148
2777.19	0.148
2785.65	0.148
2794.12	0.148
2802.58	0.147
2811.04	0.1411
2819.5	0.1341
2827.96	0.1281
2836.43	0.124
2844.89	0.125
2853.35	0.1387
2861.81	0.1617
2870.27	0.1699
2878.74	0.1768
2887.2	0.1849
2895.66	0.19
2904.12	0.1969
2912.58	0.199
2921.05	0.2
2929.51	0.1981
2937.97	0.1931
2946.43	0.1861
2954.9	0.1732
2963.36	0.1544
2971.82	0.1422
2980.28	0.136
2988.74	0.135
2997.21	0.136
3005.67	0.138
3014.13	0.141
3022.59	0.1459
3031.05	0.1558
3039.52	0.1679
3047.98	0.1788
3056.44	0.185
3064.9	0.187
3073.36	0.1898
3081.83	0.1958
3090.29	0.1999
3098.75	0.2245
3107.21	0.2498
3115.67	0.2875
3124.14	0.3185
3132.6	0.3457
3141.06	0.3686
3149.52	0.4037
3157.98	0.4384
3166.45	0.4774
3174.91	0.5083
3183.37	0.5467
3191.83	0.5811
3200.3	0.6018
3208.76	0.6234
3217.22	0.64
3225.68	0.6539
3234.14	0.6628
3242.61	0.6709
3251.07	0.6819
3259.53	0.6919
3267.99	0.697
3276.45	0.6999
3284.92	0.702
3293.38	0.702
3301.84	0.6971
3310.3	0.6902
3318.76	0.6811
3327.23	0.6751
3335.69	0.6701
3344.15	0.667
3352.61	0.6592
3361.07	0.6542
3369.54	0.6471
3378	0.6411
3386.46	0.639
3394.92	0.633
3403.38	0.634
3411.85	0.635
3420.31	0.6378
3428.77	0.642
3437.23	0.646
3445.7	0.647
3454.16	0.648
3462.62	0.6519
3471.08	0.6569
3479.54	0.6608
3488.01	0.6639
3496.47	0.6699
3504.93	0.6758
3513.39	0.6838
3521.85	0.6929
3530.32	0.699
3538.78	0.7077
3547.24	0.7186
3555.7	0.7259
3564.16	0.7329
3572.63	0.7379
3581.09	0.7478
3589.55	0.7559
3598.01	0.7669
3606.47	0.7769
3614.94	0.779
3623.4	0.7799
3631.86	0.78
3640.32	0.78
3648.78	0.78
3657.25	0.782
3665.71	0.782
3674.17	0.78
3682.63	0.78
3691.09	0.7799
3699.56	0.7789
3708.02	0.778
3716.48	0.777
3724.94	0.7789
3733.41	0.7799
3741.87	0.783
3750.33	0.785
3758.79	0.784
3767.25	0.783
3775.72	0.7782
3784.18	0.7721
3792.64	0.769
3801.1	0.7661
3809.56	0.768
3818.03	0.769
3826.49	0.768
3834.95	0.767
3843.41	0.7651
3851.87	0.765
3860.34	0.766
3868.8	0.766
3877.26	0.762
3885.72	0.76
3894.18	0.76
