Infrared Spectrum: 1,4-Bis(dimethylsilyl)benzene
Formula: C 10 H 18 Si 2
CAS: 2488-01-9
State: gas
Origin: EPA-IR VAPOR PHASE LIBRARY
1/CM	ABSORBANCE
549.9	0.0029841
559.547	0.0029258
569.193	0.0029451
578.84	0.0033276
588.486	0.00351
598.133	0.00464
607.779	0.00678
617.426	0.01054
627.072	0.01399
636.719	0.01555
646.365	0.01878
656.012	0.04142
665.658	0.03004
675.305	0.01488
684.951	0.01682
694.598	0.02288
704.245	0.0307
713.891	0.03978
723.538	0.05375
733.184	0.06853
742.831	0.07468
752.477	0.07374
762.124	0.06368
771.77	0.04709
781.417	0.03421
791.063	0.02865
800.71	0.0294
810.356	0.03436
820.003	0.04572
829.649	0.08121
839.296	0.12747
848.943	0.11319
858.589	0.11501
868.236	0.23731
877.882	0.56937
887.529	0.36537
897.175	0.19634
906.822	0.12243
916.468	0.06792
926.115	0.03703
935.761	0.02213
945.408	0.01442
955.054	0.00997
964.701	0.00746
974.347	0.00594
983.994	0.00504
993.64	0.0047
1003.29	0.00435
1012.93	0.00393
1022.58	0.00396
1032.23	0.0031825
1041.87	0.0029112
1051.52	0.0027294
1061.17	0.0028469
1070.81	0.0031717
1080.46	0.00346
1090.11	0.00394
1099.75	0.00567
1109.4	0.01163
1119.05	0.0245
1128.69	0.08154
1138.34	0.09932
1147.99	0.01354
1157.63	0.00477
1167.28	0.0031036
1176.92	0.0028293
1186.57	0.0032731
1196.22	0.00498
1205.86	0.00718
1215.51	0.0076
1225.16	0.0119
1234.8	0.02268
1244.45	0.04168
1254.1	0.06766
1263.74	0.06751
1273.39	0.02803
1283.04	0.01143
1292.68	0.00756
1302.33	0.00776
1311.98	0.00776
1321.62	0.0078
1331.27	0.00796
1340.92	0.00749
1350.56	0.00744
1360.21	0.00954
1369.86	0.01363
1379.5	0.01511
1389.15	0.01203
1398.79	0.00874
1408.44	0.00782
1418.09	0.00856
1427.73	0.00835
1437.38	0.00658
1447.03	0.0049
1456.67	0.00364
1466.32	0.0032139
1475.97	0.0028643
1485.61	0.0029334
1495.26	0.0029412
1504.91	0.002247
1514.55	0.0023153
1524.2	0.00241057
1533.85	0.00241048
1543.49	0.0025787
1553.14	0.0029322
1562.79	0.0029343
1572.43	0.002357
1582.08	0.002088
1591.73	0.002003
1601.37	0.001962
1611.02	0.001928
1620.67	0.001923
1630.31	0.002037
1639.96	0.0023233
1649.6	0.0026443
1659.25	0.0025427
1668.9	0.001984
1678.54	0.001525
1688.19	0.00132
1697.84	0.00128
1707.48	0.0013
1717.13	0.00126
1726.78	0.0014
1736.42	0.001557
1746.07	0.002111
1755.72	0.0026637
1765.36	0.0023801
1775.01	0.00243406
1784.66	0.0024161
1794.3	0.0023174
1803.95	0.0031604
1813.6	0.00364
1823.24	0.001772
1832.89	0.00131
1842.54	0.00129
1852.18	0.001539
1861.83	0.001995
1871.47	0.002243
1881.12	0.002186
1890.77	0.0027794
1900.41	0.0038
1910.06	0.00429
1919.71	0.00373
1929.35	0.0025857
1939	0.002003
1948.65	0.002059
1958.29	0.00226
1967.94	0.002151
1977.59	0.002071
1987.23	0.002029
1996.88	0.001993
2006.53	0.002088
2016.17	0.002146
2025.82	0.002303
2035.47	0.002598
2045.11	0.0032039
2054.76	0.00411
2064.41	0.00466
2074.05	0.00477
2083.7	0.00574
2093.35	0.01151
2102.99	0.03432
2112.64	0.0923
2122.28	0.19142
2131.93	0.21406
2141.58	0.10481
2151.22	0.03598
2160.87	0.01048
2170.52	0.00458
2180.16	0.003268
2189.81	0.0027482
2199.46	0.002244
2209.1	0.002146
2218.75	0.002215
2228.4	0.001916
2238.04	0.001649
2247.69	0.001562
2257.34	0.001442
2266.98	0.001416
2276.63	0.00135
2286.28	0.00136
2295.92	0.00137
2305.57	0.00132
2315.22	0.00131
2324.86	0.00125
2334.51	0.00118
2344.16	0.00106
2353.8	0.00099
2363.45	0.00098
2373.09	0.00095
2382.74	0.00095
2392.39	0.00098
2402.03	0.00098
2411.68	0.00102
2421.33	0.00098
2430.97	0.00097
2440.62	0.00101
2450.27	0.00097
2459.91	0.00101
2469.56	0.00098
2479.21	0.00107
2488.85	0.00114
2498.5	0.00124
2508.15	0.00106
2517.79	0.00094
2527.44	0.0009
2537.09	0.00092
2546.73	0.00091
2556.38	0.00083
2566.03	0.00095
2575.67	0.00095
2585.32	0.00097
2594.96	0.00108
2604.61	0.00128
2614.26	0.00105
2623.9	0.00098
2633.55	0.00095
2643.2	0.00093
2652.84	0.00097
2662.49	0.001
2672.14	0.00108
2681.78	0.00115
2691.43	0.0011
2701.08	0.00126
2710.72	0.001493
2720.37	0.0014
2730.02	0.00121
2739.66	0.00132
2749.31	0.001532
2758.96	0.001472
2768.6	0.0014
2778.25	0.001693
2787.9	0.0023175
2797.54	0.0030613
2807.19	0.00366
2816.84	0.00419
2826.48	0.00441
2836.13	0.00441
2845.77	0.00456
2855.42	0.00487
2865.07	0.00536
2874.71	0.00607
2884.36	0.00779
2894.01	0.01126
2903.65	0.01703
2913.3	0.01838
2922.95	0.01244
2932.59	0.01096
2942.24	0.01493
2951.89	0.02837
2961.53	0.06098
2971.18	0.05962
2980.83	0.02901
2990.47	0.02133
3000.12	0.02382
3009.77	0.01563
3019.41	0.01138
3029.06	0.01342
3038.71	0.02157
3048.35	0.02945
3058	0.02709
3067.64	0.01778
3077.29	0.0114
3086.94	0.00802
3096.58	0.00543
3106.23	0.00395
3115.88	0.0032184
3125.52	0.0023863
3135.17	0.001855
3144.82	0.0014
3154.46	0.00085
3164.11	0.00084
3173.76	0.00066
3183.4	0.00053
3193.05	0.00031
3202.7	0.00032
3212.34	0.00031
3221.99	0.00036
3231.64	0.00037
3241.28	0.00038
3250.93	0.00029
3260.58	0.0003
3270.22	0.00022
3279.87	0.00028
3289.52	0.00022
3299.16	0.00033
3308.81	0
3318.45	0.00014
3328.1	0.00038
3337.75	0.00028
3347.39	0.00013
3357.04	7e-05
3366.69	0.00015
3376.33	0.0003
3385.98	0.00044
3395.63	0.00044
3405.27	0.00026
3414.92	0.00017
3424.57	0.00017
3434.21	0.00027
3443.86	0.00047
3453.51	0.00026
3463.15	0.00048
3472.8	0.00053
3482.45	0.00057
3492.09	0.00063
3501.74	0.00064
3511.39	0.00072
3521.03	0.0008
3530.68	0.00092
3540.33	0.00088
3549.97	0.00094
3559.62	0.00093
3569.26	0.00113
3578.91	0.0013
3588.56	0.001415
3598.2	0.001417
3607.85	0.00135
3617.5	0.00132
3627.14	0.001569
3636.79	0.001579
3646.44	0.001587
3656.08	0.001551
3665.73	0.001692
3675.38	0.00182
3685.02	0.001937
3694.67	0.001637
3704.32	0.00172
3713.96	0.00175
3723.61	0.001902
3733.26	0.001965
3742.9	0.001906
3752.55	0.001738
3762.2	0.001739
3771.84	0.001675
3781.49	0.001865
3791.13	0.002068
3800.78	0.002002
3810.43	0.00193
3820.07	0.001668
3829.72	0.001607
3839.37	0.001548
3849.01	0.001686
3858.66	0.001507
3868.31	0.001423
3877.95	0.00136
3887.6	0.00131
3897.25	0.00126
3906.89	0.00115
3916.54	0.00118
3926.19	0.00116
3935.83	0.00127
3945.48	0.00125
3955.13	0.00129
3964.77	0.00121
3974.42	0.00134
3984.07	0.00136
3993.71	0.00135
