Infrared Spectrum: 1-Allylnaphthalene
Formula: C 13 H 12
CAS: 2489-86-3
State: gas
Instrument: HP-GC/MS/IRD
Origin: NIST Mass Spectrometry Data Center
1/CM	ABSORBANCE
550	0.0014042
562	0.0004438
574	0.000301
586	0.0001428
598	0.0002982
610	0.0004214
622	0.000273
634	0.0001456
646	0.0004298
658	0.0005684
670	0.0001652
682	3.36e-05
694	6.58e-05
706	0.0002268
718	0.0007882
730	0.0013412
742	0.0013636
754	0.0024276
766	0.0087626
778	0.0126014
790	0.0088004
802	0.0039844
814	0.0017108
826	0.0007462
838	0.0008246
850	0.0011872
862	0.000931
874	0.0008638
886	0.001176
898	0.0022022
910	0.00455
922	0.0043414
934	0.0019656
946	0.001351
958	0.0012642
970	0.0012978
982	0.002051
994	0.0028238
1006	0.0020734
1018	0.0018116
1030	0.00112
1042	0.000574
1054	0.0003514
1066	0.000371
1078	0.0003794
1090	0.0003332
1102	0.0004032
1114	0.0002548
1126	8.68e-05
1138	0.0001134
1150	0.0001526
1162	0.0002912
1174	0.0001988
1186	4.48e-05
1198	0.0001218
1210	0.0003206
1222	0.0003332
1234	0.0002744
1246	0.0004942
1258	0.0007728
1270	0.0005264
1282	0.0003682
1294	0.0003906
1306	0.000308
1318	0.0002198
1330	0.0001246
1342	0.000378
1354	0.0003136
1366	0.0004956
1378	0.00077
1390	0.002023
1402	0.0020188
1414	0.0011368
1426	0.0010668
1438	0.00154
1450	0.0012446
1462	0.000805
1474	0.0006286
1486	0.0005418
1498	0.0013048
1510	0.002464
1522	0.0012474
1534	0.0005222
1546	0.0004872
1558	0.0006818
1570	0.000602
1582	0.000896
1594	0.001365
1606	0.000973
1618	0.0009828
1630	0.0021042
1642	0.002513
1654	0.0012572
1666	0.000749
1678	0.0008386
1690	0.0007168
1702	0.0007182
1714	0.0006888
1726	0.0004914
1738	0.0006244
1750	0.000714
1762	0.0005236
1774	0.0005096
1786	0.0006342
1798	0.0007098
1810	0.000665
1822	0.0008484
1834	0.0009002
1846	0.0008568
1858	0.0005488
1870	0.000399
1882	0.0003066
1894	0.000441
1906	0.0006608
1918	0.0008246
1930	0.000686
1942	0.000553
1954	0.0002324
1966	0.000161
1978	0.0001204
1990	0.000126
2002	8.96e-05
2014	0.0001162
2026	7.98e-05
2038	7.98e-05
2050	5.04e-05
2062	8.68e-05
2074	7.7e-05
2086	6.86e-05
2098	7.98e-05
2110	5.88e-05
2122	6.3e-05
2134	4.06e-05
2146	7e-05
2158	4.62e-05
2170	6.44e-05
2182	5.46e-05
2194	9.24e-05
2206	7.42e-05
2218	5.32e-05
2230	6.16e-05
2242	7.56e-05
2254	7.14e-05
2266	6.02e-05
2278	8.54e-05
2290	0.0001092
2302	8.82e-05
2314	0.000119
2326	0.0001708
2338	0.000133
2350	0.0001036
2362	0.0001274
2374	7.42e-05
2386	5.46e-05
2398	7.56e-05
2410	0.0001022
2422	8.82e-05
2434	4.48e-05
2446	9.8e-06
2458	4.48e-05
2470	6.16e-05
2482	4.2e-05
2494	4.06e-05
2506	4.9e-05
2518	3.78e-05
2530	5.18e-05
2542	3.64e-05
2554	4.9e-05
2566	5.04e-05
2578	3.78e-05
2590	3.78e-05
2602	3.5e-05
2614	3.64e-05
2626	2.24e-05
2638	5.32e-05
2650	5.46e-05
2662	4.48e-05
2674	3.22e-05
2686	5.46e-05
2698	4.06e-05
2710	5.04e-05
2722	5.18e-05
2734	6.58e-05
2746	6.16e-05
2758	4.2e-05
2770	2.38e-05
2782	7.84e-05
2794	7.14e-05
2806	0.0001232
2818	0.0001988
2830	0.0003612
2842	0.0006062
2854	0.000882
2866	0.0009198
2878	0.0008092
2890	0.0009058
2902	0.00154
2914	0.002457
2926	0.0027062
2938	0.0021252
2950	0.0015834
2962	0.0013244
2974	0.0015988
2986	0.002331
2998	0.00245
3010	0.003549
3022	0.0035336
3034	0.0038094
3046	0.0067998
3058	0.009562
3070	0.0094332
3082	0.0074942
3094	0.0052948
3106	0.0020104
3118	0.0007154
3130	0.0003794
3142	0.0002632
3154	0.0002156
3166	0.0002072
3178	0.0002142
3190	0.00014
3202	0.0001218
3214	0.0001176
3226	0.000119
3238	0.0001162
3250	5.6e-05
3262	6.02e-05
3274	8.54e-05
3286	3.92e-05
3298	7.98e-05
3310	7.28e-05
3322	7.7e-05
3334	4.9e-05
3346	3.36e-05
3358	4.06e-05
3370	3.08e-05
3382	4.34e-05
3394	5.74e-05
3406	5.6e-05
3418	8.54e-05
3430	2.1e-05
3442	5.32e-05
3454	7e-05
3466	7e-05
3478	8.12e-05
3490	6.16e-05
3502	0.0001624
3514	5.32e-05
3526	0.0001834
3538	9.66e-05
3550	0.0001624
3562	0.0001624
3574	9.24e-05
3586	0.0003024
3598	0.0001358
3610	0.0002884
3622	0.0001848
3634	9.8e-05
3646	0.0002156
3658	9.24e-05
3670	0.0002324
3682	5.6e-05
3694	0.0001064
3706	3.64e-05
3718	0.0001372
3730	0.0001652
3742	0.0003052
3754	0.0001386
3766	2.8e-05
3778	8.4e-06
3790	9.8e-06
3802	9.8e-05
3814	4.06e-05
3826	2.1e-05
3838	0.0001918
