Infrared Spectrum: SUCROSE DIPALMITATE
Formula: C44 H82 O13
CAS: 248917-86-4
State: SOLID (MINERAL OIL MULL)
Class: COBLENTZ
Instrument: PERKIN-ELMER
Sampling: TRANSMISSION
Resolution: 4
MICROMETERS	TRANSMITTANCE
2.018	0.848
2.05478	0.849
2.09155	0.854
2.12833	0.86
2.16511	0.854
2.20188	0.863
2.23866	0.869
2.27543	0.874
2.31221	0.863
2.34899	0.838
2.38576	0.832
2.42254	0.835
2.45932	0.837
2.49609	0.842
2.53287	0.852
2.56965	0.874
2.60642	0.886
2.6432	0.897
2.67998	0.904
2.71675	0.906
2.75353	0.881
2.7903	0.745
2.82708	0.523
2.86386	0.352
2.90063	0.231
2.93741	0.2
2.97419	0.182
3.01096	0.19
3.04774	0.207
3.08452	0.234
3.12129	0.273
3.15807	0.343
3.19484	0.414
3.23162	0.457
3.2684	0.481
3.30517	0.457
3.34195	0.325
3.37873	0.231
3.4155	0.197
3.45228	0.154
3.48906	0.119
3.52583	0.25
3.56261	0.501
3.59938	0.654
3.63616	0.674
3.67294	0.693
3.70971	0.722
3.74649	0.726
3.78327	0.742
3.82004	0.765
3.85682	0.791
3.8936	0.815
3.93037	0.829
3.96715	0.834
4.00393	0.854
4.0407	0.872
4.07748	0.877
4.11425	0.881
4.15103	0.889
4.18781	0.894
4.22458	0.895
4.26136	0.898
4.29814	0.9
4.33491	0.903
4.37169	0.912
4.40847	0.92
4.44524	0.926
4.48202	0.923
4.51879	0.923
4.55557	0.923
4.59235	0.926
4.62912	0.921
4.6659	0.927
4.70268	0.927
4.73945	0.924
4.77623	0.923
4.81301	0.929
4.84978	0.927
4.88656	0.927
4.92333	0.927
4.96011	0.938
4.99689	0.946
5.03366	0.947
5.07044	0.944
5.10722	0.947
5.14399	0.952
5.18077	0.949
5.21755	0.95
5.25432	0.95
5.2911	0.952
5.32788	0.944
5.36465	0.944
5.40143	0.935
5.4382	0.937
5.47498	0.924
5.51176	0.912
5.54853	0.888
5.58531	0.851
5.62209	0.768
5.65886	0.569
5.69564	0.328
5.73242	0.164
5.76919	0.188
5.80597	0.237
5.84274	0.309
5.87952	0.435
5.9163	0.634
5.95307	0.71
5.98985	0.743
6.02663	0.757
6.0634	0.765
6.10018	0.789
6.13696	0.803
6.17373	0.82
6.21051	0.845
6.24728	0.86
6.28406	0.869
6.32084	0.875
6.35761	0.878
6.39439	0.878
6.43117	0.88
6.46794	0.883
6.50472	0.874
6.5415	0.861
6.57827	0.848
6.61505	0.834
6.65183	0.783
6.6886	0.734
6.72538	0.622
6.76215	0.5
6.79893	0.262
6.83571	0.145
6.87248	0.157
6.90926	0.222
6.94604	0.28
6.98281	0.357
7.01959	0.407
7.05637	0.404
7.09314	0.407
7.12992	0.437
7.16669	0.432
7.20347	0.398
7.24025	0.283
7.27702	0.245
7.3138	0.309
7.35058	0.358
7.38735	0.372
7.42413	0.389
7.46091	0.398
7.49768	0.4
7.53446	0.397
7.57124	0.406
7.60801	0.398
7.64479	0.392
7.68156	0.401
7.71834	0.409
7.75512	0.391
7.79189	0.381
7.82867	0.388
7.86545	0.388
7.90222	0.337
7.939	0.354
7.97578	0.374
8.01255	0.363
8.04933	0.342
8.0861	0.363
8.12288	0.381
8.15966	0.371
8.19643	0.325
8.23321	0.352
8.26999	0.354
8.30676	0.329
8.34354	0.283
8.38032	0.269
8.41709	0.28
8.45387	0.256
8.49064	0.228
8.52742	0.21
8.5642	0.211
8.60097	0.214
8.63775	0.239
8.67453	0.253
8.7113	0.254
8.74808	0.251
8.78486	0.237
8.82163	0.243
8.85841	0.242
8.89519	0.24
8.93196	0.231
8.96874	0.23
9.00551	0.228
9.04229	0.23
9.07907	0.233
9.11584	0.239
9.15262	0.243
9.1894	0.26
9.22617	0.243
9.26295	0.217
9.29973	0.182
9.3365	0.167
9.37328	0.174
9.41005	0.145
9.44683	0.145
9.48361	0.142
9.52038	0.141
9.55716	0.141
9.59394	0.162
9.63071	0.173
9.66749	0.199
9.70427	0.211
9.74104	0.22
9.77782	0.226
9.81459	0.226
9.85137	0.219
9.88815	0.208
9.92492	0.207
9.9617	0.199
9.99848	0.19
10.0353	0.174
10.072	0.173
10.1088	0.174
10.1456	0.19
10.1824	0.231
10.2191	0.289
10.2559	0.357
10.2927	0.397
10.3295	0.426
10.3662	0.461
10.403	0.486
10.4398	0.492
10.4766	0.492
10.5133	0.476
10.5501	0.466
10.5869	0.449
10.6237	0.438
10.6605	0.427
10.6972	0.424
10.734	0.423
10.7708	0.423
10.8076	0.427
10.8443	0.437
10.8811	0.46
10.9179	0.481
10.9547	0.513
10.9914	0.538
11.0282	0.569
11.065	0.587
11.1018	0.602
11.1385	0.599
11.1753	0.611
11.2121	0.622
11.2489	0.625
11.2857	0.625
11.3224	0.631
11.3592	0.631
11.396	0.631
11.4328	0.625
11.4695	0.625
11.5063	0.619
11.5431	0.624
11.5799	0.619
11.6166	0.63
11.6534	0.618
11.6902	0.618
11.727	0.613
11.7637	0.607
11.8005	0.607
11.8373	0.621
11.8741	0.625
11.9108	0.631
11.9476	0.633
11.9844	0.631
12.0212	0.638
12.058	0.653
12.0947	0.662
12.1315	0.677
12.1683	0.688
12.2051	0.7
12.2418	0.707
12.2786	0.708
12.3154	0.708
12.3522	0.707
12.3889	0.708
12.4257	0.714
12.4625	0.714
12.4993	0.716
12.536	0.713
12.5728	0.71
12.6096	0.702
12.6464	0.699
12.6832	0.696
12.7199	0.688
12.7567	0.674
12.7935	0.674
12.8303	0.661
12.867	0.659
12.9038	0.661
12.9406	0.661
12.9774	0.659
13.0141	0.65
13.0509	0.65
13.0877	0.647
13.1245	0.644
13.1612	0.634
13.198	0.63
13.2348	0.624
13.2716	0.618
13.3084	0.607
13.3451	0.601
13.3819	0.596
13.4187	0.592
13.4555	0.581
13.4922	0.567
13.529	0.556
13.5658	0.549
13.6026	0.542
13.6393	0.533
13.6761	0.526
13.7129	0.518
13.7497	0.493
13.7864	0.447
13.8232	0.409
13.86	0.358
13.8968	0.343
13.9336	0.346
13.9703	0.406
14.0071	0.449
14.0439	0.467
14.0807	0.492
14.1174	0.501
14.1542	0.503
14.191	0.513
14.2278	0.513
14.2645	0.515
14.3013	0.521
14.3381	0.516
14.3749	0.516
14.4116	0.512
14.4484	0.509
14.4852	0.509
14.522	0.512
14.5587	0.515
14.5955	0.51
14.6323	0.512
14.6691	0.509
14.7059	0.506
14.7426	0.501
14.7794	0.498
14.8162	0.498
14.853	0.5
14.8897	0.493
14.9265	0.493
14.9633	0.495
15.0001	0.49
15.0368	0.487
15.0736	0.487
15.1104	0.48
15.1472	0.48
15.1839	0.473
15.2207	0.464
15.2575	0.467
15.2943	0.466
15.3311	0.466
15.3678	0.457
15.4046	0.452
15.4414	0.452
15.4782	0.444
15.5149	0.434
15.5517	0.432
