Infrared Spectrum: 2,6-DIMETHYL-1-ACETO-NAPHTHONE
Formula: C14 H14 O
CAS: 24894-63-1
State: SOLID (2.0% IN KBr PELLET)
Class: COBLENTZ
Instrument: Not specified, most likely a prism, grating, or hybrid spectrometer.
Sampling: TRANSMISSION
Path length: 0.0355 CM THICK
Resolution: 4
Origin: ANDERSON PHYSICAL LABORATORY
1/CM	TRANSMITTANCE
667.498	0.796
675.92	0.859
684.341	0.884
692.763	0.886
701.185	0.88
709.607	0.866
718.028	0.91
726.45	0.907
734.872	0.904
743.294	0.901
751.715	0.895
760.137	0.887
768.559	0.871
776.98	0.7075
785.402	0.86
793.824	0.853
802.246	0.777
810.667	0.5631
819.089	0.6119
827.511	0.781
835.933	0.826
844.354	0.817
852.776	0.787
861.198	0.7011
869.619	0.4141
878.041	0.2339
886.463	0.6889
894.885	0.684
903.306	0.6059
911.728	0.766
920.15	0.739
928.572	0.763
936.993	0.7011
945.415	0.721
953.837	0.6271
962.258	0.408
970.68	0.733
979.102	0.692
987.524	0.72
995.945	0.692
1004.37	0.615
1012.79	0.5421
1021.21	0.506
1029.63	0.565
1038.05	0.538
1046.48	0.484
1054.9	0.6509
1063.32	0.717
1071.74	0.721
1080.16	0.718
1088.58	0.707
1097.01	0.693
1105.43	0.677
1113.85	0.647
1122.27	0.612
1130.69	0.551
1139.11	0.3731
1147.54	0.506
1155.96	0.321
1164.38	0.481
1172.8	0.657
1181.22	0.611
1189.65	0.556
1198.07	0.4521
1206.49	0.209
1214.91	0.5029
1223.33	0.523
1231.75	0.358
1240.18	0.446
1248.6	0.349
1257.02	0.221
1265.44	0.5819
1273.86	0.641
1282.28	0.638
1290.71	0.6
1299.13	0.3991
1307.55	0.37
1315.97	0.641
1324.39	0.626
1332.81	0.599
1341.24	0.509
1349.66	0.484
1358.08	0.3421
1366.5	0.258
1374.92	0.4749
1383.34	0.544
1391.77	0.482
1400.19	0.524
1408.61	0.544
1417.03	0.554
1425.45	0.517
1433.88	0.426
1442.3	0.376
1450.72	0.408
1459.14	0.399
1467.56	0.298
1475.98	0.348
1484.41	0.499
1492.83	0.503
1501.25	0.372
1509.67	0.279
1518.09	0.4539
1526.51	0.535
1534.94	0.542
1543.36	0.526
1551.78	0.502
1560.2	0.478
1568.62	0.361
1577.04	0.346
1585.47	0.467
1593.89	0.47
1602.31	0.396
1610.73	0.286
1619.15	0.263
1627.57	0.384
1636	0.382
1644.42	0.333
1652.84	0.276
1661.26	0.076
1669.68	0.056
1678.11	0.222
1686.53	0.4209
1694.95	0.457
1703.37	0.446
1711.79	0.542
1720.21	0.63
1728.64	0.641
1737.06	0.645
1745.48	0.647
1753.9	0.632
1762.32	0.621
1770.74	0.609
1779.17	0.547
1787.59	0.566
1796.01	0.615
1804.43	0.612
1812.85	0.608
1821.27	0.597
1829.7	0.602
1838.12	0.597
1846.54	0.591
1854.96	0.584
1863.38	0.578
1871.81	0.576
1880.23	0.576
1888.65	0.572
1897.07	0.569
1905.49	0.565
1913.91	0.553
1922.34	0.553
1930.76	0.545
1939.18	0.542
1947.6	0.524
1956.02	0.529
1964.44	0.539
1972.87	0.545
1981.29	0.541
1989.71	0.538
1998.13	0.533
2006.55	0.5275
2014.97	0.527
2023.4	0.526
2031.82	0.525
2040.24	0.518
2048.66	0.515
2057.08	0.5135
2065.5	0.5115
2073.93	0.509
2082.35	0.506
2090.77	0.5028
2099.19	0.4995
2107.61	0.4963
2116.04	0.494
2124.46	0.4903
2132.88	0.4861
2141.3	0.482
2149.72	0.479
2158.14	0.4758
2166.57	0.4741
2174.99	0.4706
2183.41	0.4671
2191.83	0.4638
2200.25	0.4605
2208.67	0.4586
2217.1	0.4551
2225.52	0.4536
2233.94	0.4501
2242.36	0.448
2250.78	0.4451
2259.2	0.442
2267.63	0.4395
2276.05	0.4363
2284.47	0.4341
2292.89	0.4308
2301.31	0.4291
2309.73	0.4266
2318.16	0.4213
2326.58	0.4166
2335	0.414
2343.42	0.4113
2351.84	0.4091
2360.27	0.409
2368.69	0.409
2377.11	0.409
2385.53	0.4061
2393.95	0.4028
2402.37	0.4
2410.8	0.3993
2419.22	0.3971
2427.64	0.397
2436.06	0.397
2444.48	0.3963
2452.9	0.396
2461.33	0.3908
2469.75	0.3862
2478.17	0.38
2486.59	0.3762
2495.01	0.3747
2503.43	0.3726
2511.86	0.372
2520.28	0.372
2528.7	0.37
2537.12	0.37
2545.54	0.3677
2553.97	0.3661
2562.39	0.3638
2570.81	0.363
2579.23	0.363
2587.65	0.3612
2596.07	0.3596
2604.5	0.3528
2612.92	0.349
2621.34	0.3462
2629.76	0.346
2638.18	0.346
2646.6	0.345
2655.03	0.343
2663.45	0.342
2671.87	0.342
2680.29	0.3375
2688.71	0.3271
2697.13	0.325
2705.56	0.325
2713.98	0.325
2722.4	0.324
2730.82	0.3208
2739.24	0.3169
2747.66	0.313
2756.09	0.312
2764.51	0.3099
2772.93	0.3083
2781.35	0.3064
2789.77	0.2984
2798.2	0.2902
2806.62	0.2803
2815.04	0.2694
2823.46	0.258
2831.88	0.252
2840.3	0.249
2848.73	0.249
2857.15	0.249
2865.57	0.2489
2873.99	0.2473
2882.41	0.2412
2890.83	0.2362
2899.26	0.233
2907.68	0.2293
2916.1	0.228
2924.52	0.228
2932.94	0.2238
2941.36	0.221
2949.79	0.2216
2958.21	0.2248
2966.63	0.2282
2975.05	0.2347
2983.47	0.236
2991.89	0.236
3000.32	0.234
3008.74	0.2324
3017.16	0.23
3025.58	0.2308
3034	0.2361
3042.43	0.2459
3050.85	0.2501
3059.27	0.251
3067.69	0.252
3076.11	0.252
3084.53	0.251
3092.96	0.251
3101.38	0.2572
3109.8	0.2646
3118.22	0.2681
3126.64	0.269
3135.06	0.2689
3143.49	0.2667
3151.91	0.2649
3160.33	0.263
3168.75	0.26
3177.17	0.258
3185.59	0.257
3194.02	0.257
3202.44	0.257
3210.86	0.257
3219.28	0.257
3227.7	0.255
3236.12	0.2519
3244.55	0.249
3252.97	0.248
3261.39	0.248
3269.81	0.248
3278.23	0.246
3286.66	0.2439
3295.08	0.242
3303.5	0.2389
3311.92	0.236
3320.34	0.236
3328.76	0.2345
3337.19	0.23
3345.61	0.2277
3354.03	0.227
3362.45	0.2255
3370.87	0.222
3379.29	0.221
3387.72	0.219
3396.14	0.218
3404.56	0.215
3412.98	0.213
3421.4	0.212
3429.82	0.212
3438.25	0.212
3446.67	0.212
3455.09	0.212
3463.51	0.212
3471.93	0.212
3480.36	0.212
3488.78	0.213
3497.2	0.2145
3505.62	0.215
3514.04	0.215
3522.46	0.215
3530.89	0.216
3539.31	0.218
3547.73	0.218
3556.15	0.218
3564.57	0.2165
3572.99	0.216
3581.42	0.2145
3589.84	0.213
3598.26	0.213
3606.68	0.213
3615.1	0.215
3623.52	0.216
3631.95	0.2174
3640.37	0.219
3648.79	0.221
3657.21	0.219
3665.63	0.218
3674.05	0.215
3682.48	0.213
3690.9	0.212
3699.32	0.2106
3707.74	0.21
3716.16	0.21
3724.59	0.209
3733.01	0.209
3741.43	0.209
3749.85	0.207
3758.27	0.207
3766.69	0.207
3775.12	0.207
3783.54	0.207
3791.96	0.206
3800.38	0.2046
3808.8	0.204
3817.22	0.204
3825.65	0.204
3834.07	0.203
3842.49	0.203
3850.91	0.203
3859.33	0.2021
3867.75	0.201
3876.18	0.1972
3884.6	0.1918
3893.02	0.191
3901.44	0.1897
3909.86	0.189
3918.28	0.1894
3926.71	0.191
3935.13	0.189
3943.55	0.1881
3951.97	0.186
3960.39	0.186
3968.82	0.1873
3977.24	0.189
