Infrared Spectrum: cis-2,6-Dimethyl-2,6-octadiene
Formula: C 10 H 18
CAS: 2492-22-0
State: gas
Instrument: HP-GC/MS/IRD
Origin: NIST Mass Spectrometry Data Center
1/CM	ABSORBANCE
550	0.0004077
562	0.0005616
574	0.0009963
586	0.000864
598	0.0003726
610	9.18e-05
622	0.0001593
634	0.000108
646	1.08e-05
658	0.0001593
670	0.0001107
682	3.78e-05
694	0.0001701
706	0.0001161
718	0.0002592
730	0.0003483
742	0.0004239
754	0.0004374
766	0.0005562
778	0.000918
790	0.001566
802	0.0032346
814	0.0039609
826	0.0030078
838	0.0021654
850	0.001215
862	0.0008613
874	0.000729
886	0.0006183
898	0.0005778
910	0.0005643
922	0.0004968
934	0.0005373
946	0.0007101
958	0.0008559
970	0.000918
982	0.0008775
994	0.0009504
1006	0.0008046
1018	0.0007965
1030	0.0008856
1042	0.0010557
1054	0.0012933
1066	0.0015444
1078	0.0015471
1090	0.0014553
1102	0.001782
1114	0.0017388
1126	0.000945
1138	0.0007641
1150	0.0008451
1162	0.0006696
1174	0.0005481
1186	0.0006534
1198	0.0008316
1210	0.0008694
1222	0.0009963
1234	0.0009504
1246	0.0008343
1258	0.0007101
1270	0.0006561
1282	0.0007317
1294	0.0008802
1306	0.0012852
1318	0.001431
1330	0.001134
1342	0.0015552
1354	0.002187
1366	0.0029646
1378	0.0050031
1390	0.0040284
1402	0.0021681
1414	0.001998
1426	0.0025677
1438	0.0040122
1450	0.0052272
1462	0.0047034
1474	0.0029214
1486	0.0017658
1498	0.0012204
1510	0.0010314
1522	0.0009558
1534	0.0009369
1546	0.0008937
1558	0.0008019
1570	0.0007398
1582	0.0006966
1594	0.0007155
1606	0.0007236
1618	0.0006831
1630	0.0006129
1642	0.0005724
1654	0.0006588
1666	0.0008424
1678	0.0005859
1690	0.0002754
1702	0.0001647
1714	0.0001107
1726	0.0001107
1738	0.0001107
1750	0.0001053
1762	0.0001107
1774	9.45e-05
1786	0.000135
1798	0.0001728
1810	0.0001971
1822	0.0002349
1834	0.0002754
1846	0.0002268
1858	0.000135
1870	0.000108
1882	0.0001053
1894	9.45e-05
1906	8.1e-05
1918	6.21e-05
1930	3.78e-05
1942	4.32e-05
1954	5.67e-05
1966	5.94e-05
1978	2.97e-05
1990	1.35e-05
2002	4.59e-05
2014	5.13e-05
2026	5.94e-05
2038	5.67e-05
2050	3.24e-05
2062	2.97e-05
2074	3.24e-05
2086	2.16e-05
2098	4.86e-05
2110	1.89e-05
2122	8.1e-06
2134	3.51e-05
2146	4.05e-05
2158	6.21e-05
2170	4.32e-05
2182	4.05e-05
2194	2.43e-05
2206	2.7e-05
2218	2.7e-05
2230	3.24e-05
2242	1.89e-05
2254	1.35e-05
2266	1.08e-05
2278	5.4e-06
2290	2.16e-05
2302	2.7e-06
2314	3.51e-05
2326	2.97e-05
2338	3.78e-05
2350	4.05e-05
2362	3.24e-05
2374	1.62e-05
2386	5.4e-05
2398	9.18e-05
2410	0.0001215
2422	0.000108
2434	0.000135
2446	0.0001296
2458	0.0001161
2470	0.0001566
2482	0.0001107
2494	8.64e-05
2506	0.0001026
2518	8.64e-05
2530	8.64e-05
2542	8.37e-05
2554	0.0001215
2566	0.0001134
2578	7.83e-05
2590	0.0001053
2602	7.83e-05
2614	0.0001269
2626	0.0001188
2638	0.0001566
2650	0.0001782
2662	0.0002106
2674	0.0002592
2686	0.0002835
2698	0.0003726
2710	0.0004131
2722	0.0006669
2734	0.0011043
2746	0.0011124
2758	0.0008721
2770	0.0008289
2782	0.0009045
2794	0.0012015
2806	0.0016281
2818	0.0022464
2830	0.003213
2842	0.0053649
2854	0.0100764
2866	0.0155898
2878	0.0161163
2890	0.0152901
2902	0.0168129
2914	0.0217998
2926	0.0268866
2938	0.0247131
2950	0.0199935
2962	0.0190971
2974	0.0201501
2986	0.0152334
2998	0.0107946
3010	0.0078435
3022	0.0069093
3034	0.0067257
3046	0.0053595
3058	0.0036072
3070	0.0024921
3082	0.0018738
3094	0.0014688
3106	0.001188
3118	0.0009018
3130	0.0006426
3142	0.0004941
3154	0.000378
3166	0.000297
3178	0.0002295
3190	0.0002133
3202	0.0001647
3214	0.0001269
3226	0.0001404
3238	0.0001188
3250	8.1e-05
3262	0.0001323
3274	0.0001134
3286	7.83e-05
3298	5.13e-05
3310	9.99e-05
3322	9.99e-05
3334	0.0001404
3346	9.99e-05
3358	7.83e-05
3370	0.0001431
3382	5.4e-05
3394	0.0001026
3406	9.72e-05
3418	7.02e-05
3430	0.0001161
3442	6.48e-05
3454	7.83e-05
3466	7.56e-05
3478	8.64e-05
3490	7.29e-05
3502	5.4e-05
3514	4.59e-05
3526	7.02e-05
3538	5.4e-05
3550	3.24e-05
3562	8.37e-05
3574	4.32e-05
3586	3.78e-05
3598	6.75e-05
3610	2.7e-05
3622	8.37e-05
3634	5.67e-05
3646	5.94e-05
3658	6.75e-05
3670	9.18e-05
3682	0.0001242
3694	6.48e-05
3706	7.83e-05
3718	9.45e-05
3730	0.0001107
3742	0.000108
3754	7.02e-05
3766	8.64e-05
3778	0.0001107
3790	4.05e-05
3802	7.29e-05
3814	7.83e-05
3826	0.0001161
3838	8.91e-05
