Infrared Spectrum: p-Octyloxybenzoic acid
Formula: C 15 H 22 O 3
CAS: 2493-84-7
State: gas
Origin: EPA-IR VAPOR PHASE LIBRARY
1/CM	ABSORBANCE
549.8	0.0048937
559.445	0.0059437
569.09	0.0073837
578.734	0.0059137
588.379	0.0064637
598.024	0.0071537
607.669	0.0084837
617.313	0.0136637
626.958	0.0054437
636.603	0.0035637
646.248	0.0015437
655.893	0.0009619
665.537	0.0009859
675.182	0.0014637
684.827	0.0031837
694.472	0.0061937
704.116	0.0062437
713.761	0.0049437
723.406	0.0034037
733.051	0.0023537
742.695	0.0021237
752.34	0.0031537
761.985	0.0066537
771.63	0.0108237
781.275	0.0058137
790.919	0.0037137
800.564	0.0029937
810.209	0.0024237
819.854	0.0022537
829.498	0.0025737
839.143	0.0054937
848.788	0.0074737
858.433	0.0037637
868.078	0.0021137
877.722	0.0016037
887.367	0.0013637
897.012	0.0016737
906.657	0.0017937
916.301	0.0016437
925.946	0.0016337
935.591	0.0016137
945.236	0.0019137
954.88	0.0025637
964.525	0.0037937
974.17	0.0046637
983.815	0.0056437
993.46	0.0064637
1003.1	0.0078337
1012.75	0.0104637
1022.39	0.0117437
1032.04	0.0132237
1041.68	0.0127037
1051.33	0.0125537
1060.97	0.0168837
1070.62	0.0305837
1080.26	0.0462537
1089.91	0.0193137
1099.55	0.0086437
1109.2	0.0058637
1118.84	0.0055837
1128.49	0.0057837
1138.13	0.0072837
1147.78	0.0135937
1157.42	0.0478437
1167.07	0.0675637
1176.71	0.0222537
1186.36	0.0242037
1196	0.0157737
1205.64	0.0114137
1215.29	0.0139037
1224.93	0.0196837
1234.58	0.0309437
1244.22	0.0485337
1253.87	0.0571037
1263.51	0.0321637
1273.16	0.0172137
1282.8	0.0131637
1292.45	0.0157837
1302.09	0.0193637
1311.74	0.0158337
1321.38	0.0170237
1331.03	0.0180937
1340.67	0.0116137
1350.32	0.0118237
1359.96	0.0214937
1369.61	0.0168137
1379.25	0.0079237
1388.9	0.0065137
1398.54	0.0042437
1408.18	0.0043637
1417.83	0.0062037
1427.47	0.0043437
1437.12	0.0036337
1446.76	0.0043837
1456.41	0.0057937
1466.05	0.0076337
1475.7	0.0091237
1485.34	0.0052937
1494.99	0.0072437
1504.63	0.0201437
1514.28	0.0211137
1523.92	0.0060137
1533.57	0.0029837
1543.21	0.0026537
1552.86	0.0028337
1562.5	0.0039137
1572.15	0.0067137
1581.79	0.0101737
1591.44	0.0156537
1601.08	0.0348037
1610.73	0.0365537
1620.37	0.0127537
1630.01	0.0049237
1639.66	0.0026337
1649.3	0.0020337
1658.95	0.0017837
1668.59	0.0015737
1678.24	0.0017837
1687.88	0.0022937
1697.53	0.0027337
1707.17	0.0034337
1716.82	0.0047837
1726.46	0.0065537
1736.11	0.0138737
1745.75	0.0383837
1755.4	0.107054
1765.04	0.0401237
1774.69	0.0133737
1784.33	0.0065337
1793.98	0.0035637
1803.62	0.0025937
1813.27	0.0023737
1822.91	0.0020437
1832.55	0.0012637
1842.2	0.0008323
1851.84	0.0006792
1861.49	0.0005814
1871.13	0.0005525
1880.78	0.0007187
1890.42	0.0009263
1900.07	0.0011637
1909.71	0.0012937
1919.36	0.0011837
1929	0.0009975
1938.65	0.0007647
1948.29	0.0007135
1957.94	0.000793
1967.58	0.0008163
1977.23	0.0008386
1986.87	0.0007424
1996.52	0.0006942
2006.16	0.0007303
2015.81	0.0006902
2025.45	0.0007073
2035.1	0.0006619
2044.74	0.0006177
2054.38	0.0006694
2064.03	0.0006093
2073.67	0.0006271
2083.32	0.0005859
2092.96	0.0005208
2102.61	0.0005595
2112.25	0.0004276
2121.9	0.0004467
2131.54	0.0004654
2141.19	0.0005194
2150.83	0.0005183
2160.48	0.0004755
2170.12	0.0003183
2179.77	0.0002787
2189.41	0.0003078
2199.06	0.0002862
2208.7	0.0003202
2218.35	0.0003058
2227.99	0.0003258
2237.64	0.0003531
2247.28	0.000374
2256.92	0.0003047
2266.57	0.0002726
2276.21	0.0003139
2285.86	0.0003079
2295.5	0.0002677
2305.15	0.0003536
2314.79	0.0004157
2324.44	0.000439
2334.08	0.0004418
2343.73	0.0004562
2353.37	0.0004689
2363.02	0.0004548
2372.66	0.0005147
2382.31	0.0004269
2391.95	0.0005508
2401.6	0.0005419
2411.24	0.000678
2420.89	0.0006515
2430.53	0.0005673
2440.18	0.0005819
2449.82	0.0005202
2459.47	0.0005325
2469.11	0.000647
2478.75	0.0005692
2488.4	0.0005893
2498.04	0.0005665
2507.69	0.0006294
2517.33	0.0006531
2526.98	0.0006585
2536.62	0.0007865
2546.27	0.0009052
2555.91	0.0008943
2565.56	0.0009626
2575.2	0.0009066
2584.85	0.0007791
2594.49	0.0007366
2604.14	0.0007964
2613.78	0.0006755
2623.43	0.0006207
2633.07	0.0005847
2642.72	0.0006028
2652.36	0.0006176
2662.01	0.0005978
2671.65	0.0006954
2681.29	0.0007345
2690.94	0.0008073
2700.58	0.000731
2710.23	0.0007002
2719.87	0.0008126
2729.52	0.0008897
2739.16	0.0010283
2748.81	0.0010837
2758.45	0.0012037
2768.1	0.0011337
2777.74	0.0012037
2787.39	0.0012737
2797.03	0.0014837
2806.68	0.0016437
2816.32	0.0021037
2825.97	0.0026537
2835.61	0.0037037
2845.26	0.0058737
2854.9	0.0110337
2864.55	0.0170837
2874.19	0.0165437
2883.84	0.0151737
2893.48	0.0134237
2903.12	0.0151137
2912.77	0.0212437
2922.41	0.0314637
2932.06	0.0436737
2941.7	0.0423637
2951.35	0.0319437
2960.99	0.0258637
2970.64	0.0224737
2980.28	0.0119137
2989.93	0.0062137
2999.57	0.0040037
3009.22	0.0029037
3018.86	0.0023137
3028.51	0.0019337
3038.15	0.0017937
3047.8	0.0017937
3057.44	0.0020137
3067.09	0.0018937
3076.73	0.0022937
3086.38	0.0021237
3096.02	0.0015537
3105.67	0.0014737
3115.31	0.0011037
3124.95	0.0009584
3134.6	0.0007671
3144.24	0.0005379
3153.89	0.0005701
3163.53	0.0005183
3173.18	0.0004706
3182.82	0.0003204
3192.47	0.0004454
3202.11	0.0003889
3211.76	0.0003264
3221.4	0.0003273
3231.05	0.0001963
3240.69	0.0002778
3250.34	0.0001902
3259.98	0.0002324
3269.63	0.0003054
3279.27	0.0002066
3288.92	6.43e-05
3298.56	0.0002144
3308.21	0.00015638
3317.85	0.00018071
3327.49	0.00010695
3337.14	0.0002395
3346.78	0.0002083
3356.43	0.0001955
3366.07	0.0002184
3375.72	0.0002458
3385.36	0.0001429
3395.01	0.00018232
3404.65	8.6476e-05
3414.3	0.0002138
3423.94	0.0002148
3433.59	0.0002942
3443.23	0.0003593
3452.88	0.0003581
3462.52	0.0003827
3472.17	0.00018026
3481.81	0.0005535
3491.46	0.0006957
3501.1	0.0006623
3510.75	0.0005358
3520.39	0.0003606
3530.04	0.0002148
3539.68	0.0003256
3549.32	0.0005944
3558.97	0.0008177
3568.61	0.0026037
3578.26	0.0139637
3587.9	0.0308537
3597.55	0.0040837
3607.19	0.0010792
3616.84	0.0006319
3626.48	0.0004133
3636.13	0.0003222
3645.77	0.0002766
3655.42	0.0002022
3665.06	0.0002892
3674.71	0.0003324
3684.35	0.0002795
3694	0.0001989
3703.64	9.977e-05
3713.29	0.0002001
3722.93	0.0003192
3732.58	0.00015173
3742.22	0.00015829
3751.86	0.00017052
3761.51	0.0002269
3771.15	0.00015493
3780.8	0.00013893
3790.44	0.000182
3800.09	6.56e-05
3809.73	2.66e-05
3819.38	0
3829.02	0.00014361
3838.67	0.0001848
3848.31	0.0002463
3857.96	0.0002713
3867.6	0.0003176
3877.25	0.0002811
3886.89	0.0003784
3896.54	0.00015302
3906.18	0.0002366
3915.83	0.0002108
3925.47	0.00013533
3935.12	9.631e-05
3944.76	0.00015836
3954.41	0.0001953
3964.05	0.00015287
3973.69	0.0001871
3983.34	9.1825e-05
3992.98	0.000187
