Infrared Spectrum: p-Bromophenyl isocyanate
Formula: C 7 H 4 Br N O
CAS: 2493-02-9
State: gas
Instrument: HP-GC/MS/IRD
Origin: NIST Mass Spectrometry Data Center
1/CM	ABSORBANCE
550	0.0016512
562	0.0019608
574	0.0034314
586	0.0043602
598	0.0036894
610	0.003354
622	0.0030186
634	0.0029412
646	0.0041022
658	0.0029928
670	0.001935
682	0.0011094
694	0.0011094
706	0.0005934
718	0.000774
730	0.0006966
742	0.0006192
754	0.0005418
766	0.000903
778	0.0010062
790	0.001806
802	0.0050052
814	0.011739
826	0.0159702
838	0.0097524
850	0.0029928
862	0.001032
874	0.0004644
886	0.000387
898	0.0001806
910	0.000129
922	0.0001032
934	0.000129
946	0.0003096
958	2.58e-05
970	0.0001548
982	0.0003096
994	0.000903
1006	0.0080238
1018	0.012255
1030	0.001161
1042	0.0008514
1054	0.0020898
1066	0.0089526
1078	0.0120486
1090	0.0058308
1102	0.0135708
1114	0.0212592
1126	0.0078174
1138	0.0063984
1150	0.0048246
1162	0.005031
1174	0.0038184
1186	0.0026574
1198	0.0017802
1210	0.0021414
1222	0.0022704
1234	0.00129
1246	0.0016512
1258	0.0017544
1270	0.0013674
1282	0.0010578
1294	0.0011352
1306	0.001161
1318	0.0008514
1330	0.0006966
1342	0.000774
1354	0.0007482
1366	0.0007482
1378	0.000903
1390	0.0010578
1402	0.001161
1414	0.0015996
1426	0.0028122
1438	0.0016254
1450	0.0023478
1462	0.0039216
1474	0.0067854
1486	0.0152736
1498	0.030186
1510	0.0311148
1522	0.0196854
1534	0.0071208
1546	0.0023994
1558	0.0021414
1570	0.0036894
1582	0.0093138
1594	0.0109134
1606	0.0026574
1618	0.0018318
1630	0.0020382
1642	0.0017028
1654	0.0013674
1666	0.0008256
1678	0.000516
1690	0.000387
1702	0.000516
1714	0.000387
1726	0.0004128
1738	0.0004902
1750	0.0005934
1762	0.0006192
1774	0.0003096
1786	0.0002838
1798	0.0002064
1810	0.0001806
1822	0.0002064
1834	0.000129
1846	0.0002322
1858	0.0005418
1870	0.0010062
1882	0.0014706
1894	0.0011094
1906	0.000516
1918	0.0003354
1930	0.000258
1942	0.0002322
1954	0.0001548
1966	0.0002064
1978	0.000258
1990	0.0003354
2002	0.0003612
2014	0.0004386
2026	0.000516
2038	0.0005676
2050	0.0007224
2062	0.001032
2074	0.0014706
2086	0.0018834
2098	0.0024768
2110	0.002967
2122	0.0029928
2134	0.003741
2146	0.005289
2158	0.0078174
2170	0.0109134
2182	0.0147576
2194	0.0205884
2206	0.0284058
2218	0.0390354
2230	0.0481428
2242	0.0720852
2254	0.145693
2266	0.243036
2278	0.251756
2290	0.200363
2302	0.0962598
2314	0.043602
2326	0.0296958
2338	0.0289734
2350	0.0307536
2362	0.0268578
2374	0.0151962
2386	0.006837
2398	0.0041796
2410	0.003483
2422	0.0033024
2434	0.0027606
2446	0.0017544
2458	0.0011352
2470	0.0007998
2482	0.0006192
2494	0.0005418
2506	0.0005676
2518	0.000645
2530	0.0007224
2542	0.0009288
2554	0.0010836
2566	0.0007482
2578	0.0004386
2590	0.000258
2602	0.000387
2614	0.0003612
2626	0.0003096
2638	0.0002064
2650	0.0002322
2662	0.0002064
2674	0.0001548
2686	0.0001032
2698	0.0001806
2710	0.0001806
2722	0.0001548
2734	0.0001548
2746	7.74e-05
2758	0.0001032
2770	2.58e-05
2782	0.0001548
2794	0.0004386
2806	0.0006708
2818	0.000774
2830	0.0005676
2842	0.0003354
2854	0.000258
2866	0.0004128
2878	0.0003612
2890	0.0004902
2902	0.0006708
2914	0.0007482
2926	0.0008772
2938	0.0006966
2950	0.0004386
2962	0.0004386
2974	0.0003354
2986	0.0003612
2998	0.000387
3010	0.0005934
3022	0.0008256
3034	0.0013416
3046	0.001548
3058	0.002193
3070	0.0022446
3082	0.0018834
3094	0.0012642
3106	0.0008256
3118	0.000258
3130	0.0001548
3142	0
3154	0.0001032
3166	0
3178	0
3190	7.74e-05
3202	0.0001806
3214	5.16e-05
3226	7.74e-05
3238	0.000129
3250	0.0001548
3262	0
3274	0.000129
3286	0.0001806
3298	0.0002322
3310	0.0001548
3322	0.0003096
3334	0.000387
3346	0.0005934
3358	0.0008772
3370	0.0013674
3382	0.001677
3394	0.0017286
3406	0.0015738
3418	0.0014448
3430	0.0011352
3442	0.0008256
3454	0.0004128
3466	0.000387
3478	0.000387
3490	0.000516
3502	0.0004128
3514	0.0004128
3526	0.000258
3538	0.0004128
3550	0.0004386
3562	0.0005676
3574	0.000516
3586	0.0004644
3598	0.0006966
3610	0.0007224
3622	0.0009804
3634	0.0008256
3646	0.0007482
3658	0.001032
3670	0.001419
3682	0.0014448
3694	0.0015738
3706	0.001806
3718	0.0016254
3730	0.0011094
3742	0.0010836
3754	0.0007998
3766	0.0010578
3778	0.0011352
3790	0.0011352
3802	0.0010578
3814	0.0009546
3826	0.0005676
3838	0.0006966
