Infrared Spectrum: 4,5-Dibromo-o-xylene
Formula: C 8 H 8 Br 2
CAS: 24932-48-7
State: gas
Origin: EPA-IR VAPOR PHASE LIBRARY
1/CM	ABSORBANCE
549.8	0.00318
559.445	0.001495
569.09	0.00389
578.734	0.0019448
588.379	0.00251
598.024	0.00292
607.669	0.00267
617.313	0.00255
626.958	0.00291
636.603	0.00485
646.248	0.01518
655.893	0.00933
665.537	0.00234
675.182	0.0014971
684.827	0.0013908
694.472	0.0019355
704.116	0.0018895
713.761	0.0021525
723.406	0.0013792
733.051	0.001246
742.695	0.00252
752.34	0.0026
761.985	0.00271
771.63	0.00274
781.275	0.00276
790.919	0.00397
800.564	0.00469
810.209	0.00317
819.854	0.00131109
829.498	0.00271
839.143	0.00365
848.788	0.00305
858.433	0.00778
868.078	0.02126
877.722	0.02099
887.367	0.0266
897.012	0.03563
906.657	0.01665
916.301	0.0065
925.946	0.003
935.591	0.00355
945.236	0.00348
954.88	0.00268
964.525	0.00236
974.17	0.00435
983.815	0.00604
993.46	0.0105
1003.1	0.0099
1012.75	0.00709
1022.39	0.00611
1032.04	0.00334
1041.68	0.0019158
1051.33	0.00337
1060.97	0.00236
1070.62	0.00238
1080.26	0.0028
1089.91	0.00259
1099.55	0.0029
1109.2	0.00999
1118.84	0.02305
1128.49	0.02029
1138.13	0.00903
1147.78	0.01619
1157.42	0.02435
1167.07	0.0102
1176.71	0.00628
1186.36	0.00841
1196	0.00868
1205.64	0.00696
1215.29	0.00633
1224.93	0.00753
1234.58	0.00782
1244.22	0.00552
1253.87	0.00681
1263.51	0.00668
1273.16	0.00479
1282.8	0.00347
1292.45	0.0035
1302.09	0.00298
1311.74	0.00364
1321.38	0.00412
1331.03	0.00716
1340.67	0.01395
1350.32	0.01309
1359.96	0.00719
1369.61	0.00679
1379.25	0.01103
1388.9	0.01001
1398.54	0.00629
1408.18	0.00581
1417.83	0.00723
1427.47	0.0128
1437.12	0.02296
1446.76	0.02607
1456.41	0.03009
1466.05	0.04084
1475.7	0.06022
1485.34	0.03826
1494.99	0.0116
1504.63	0.00606
1514.28	0.00523
1523.92	0.00407
1533.57	0.00403
1543.21	0.00402
1552.86	0.00394
1562.5	0.00363
1572.15	0.00364
1581.79	0.00372
1591.44	0.00329
1601.08	0.00261
1610.73	0.00284
1620.37	0.00234
1630.01	0.0022415
1639.66	0.00251
1649.3	0.00248
1658.95	0.00288
1668.59	0.0022507
1678.24	0.002198
1687.88	0.0021047
1697.53	0.00194
1707.17	0.0021588
1716.82	0.00307
1726.46	0.00476
1736.11	0.00483
1745.75	0.00283
1755.4	0.0025
1765.04	0.0021569
1774.69	0.00236
1784.33	0.0020997
1793.98	0.0020651
1803.62	0.0021535
1813.27	0.0018441
1822.91	0.0019232
1832.55	0.0020359
1842.2	0.0018209
1851.84	0.0016103
1861.49	0.0019941
1871.13	0.0017892
1880.78	0.0019999
1890.42	0.0021022
1900.07	0.0017118
1909.71	0.0019631
1919.36	0.001748
1929	0.001162
1938.65	0.0014216
1948.29	0.001484
1957.94	0.0014581
1967.58	0.0014103
1977.23	0.001503
1986.87	0.0015271
1996.52	0.00133503
2006.16	0.0015495
2015.81	0.0014144
2025.45	0.0012294
2035.1	0.00133993
2044.74	0.0014909
2054.38	0.0014666
2064.03	0.001173
2073.67	0.0012528
2083.32	0.001285
2092.96	0.001022
2102.61	0.00124
2112.25	0.001197
2121.9	0.0015222
2131.54	0.00135596
2141.19	0.00136212
2150.83	0.0017688
2160.48	0.0015586
2170.12	0.00140319
2179.77	0.0015238
2189.41	0.001042
2199.06	0.001018
2208.7	0.001128
2218.35	0.0012359
2227.99	0.00137969
2237.64	0.001147
2247.28	0.001027
2256.92	0.001112
2266.57	0.00131544
2276.21	0.001209
2285.86	0.00132523
2295.5	0.0012157
2305.15	0.00133801
2314.79	0.001106
2324.44	0.00102
2334.08	0.001142
2343.73	0.001267
2353.37	0.00089
2363.02	0.0015099
2372.66	0.0015351
2382.31	0.0016724
2391.95	0.00136865
2401.6	0.0012698
2411.24	0.001199
2420.89	0.001005
2430.53	0.00131122
2440.18	0.0014441
2449.82	0.001125
2459.47	0.0011
2469.11	0.0014443
2478.75	0.00131148
2488.4	0.0016862
2498.04	0.0014229
2507.69	0.00082
2517.33	0.0012487
2526.98	0.001068
2536.62	0.0012245
2546.27	0.00134411
2555.91	0.000851
2565.56	0.001155
2575.2	0.000973
2584.85	0.00114
2594.49	0.000691
2604.14	0.0012604
2613.78	0.001125
2623.43	0.001188
2633.07	0.00130498
2642.72	0.0016708
2652.36	0.001194
2662.01	0.0012914
2671.65	0.0016175
2681.29	0.0015295
2690.94	0.0015281
2700.58	0.0016251
2710.23	0.000982
2719.87	0.00130379
2729.52	0.001093
2739.16	0.0019454
2748.81	0.00289
2758.45	0.0018941
2768.1	0.001183
2777.74	0.0015053
2787.39	0.002011
2797.03	0.0019162
2806.68	0.0020141
2816.32	0.00267
2825.97	0.00286
2835.61	0.00281
2845.26	0.00365
2854.9	0.00548
2864.55	0.01026
2874.19	0.01532
2883.84	0.01438
2893.48	0.01099
2903.12	0.01031
2912.77	0.0113
2922.41	0.01866
2932.06	0.03024
2941.7	0.0283
2951.35	0.02036
2960.99	0.01749
2970.64	0.01461
2980.28	0.01535
2989.93	0.01356
2999.57	0.00898
3009.22	0.00684
3018.86	0.00623
3028.51	0.00569
3038.15	0.00591
3047.8	0.00657
3057.44	0.00632
3067.09	0.00648
3076.73	0.00583
3086.38	0.00558
3096.02	0.00318
3105.67	0.0022949
3115.31	0.0018985
3124.95	0.0013257
3134.6	0.0021317
3144.24	0.001161
3153.89	0.0017275
3163.53	0.0016157
3173.18	0.0014409
3182.82	0.0014777
3192.47	0.0012535
3202.11	0.00137173
3211.76	0.00131815
3221.4	0.002104
3231.05	0.0012579
3240.69	0.000614
3250.34	0.000888
3259.98	0.000916
3269.63	0.001112
3279.27	0.0016979
3288.92	0.001145
3298.56	0.0014915
3308.21	0.000546
3317.85	0.000831
3327.49	0.0015805
3337.14	0.000877
3346.78	0.00137618
3356.43	0.0012545
3366.07	0.001107
3375.72	0.000967
3385.36	0.001063
3395.01	0.001157
3404.65	0.001031
3414.3	0.000887
3423.94	0.0016144
3433.59	0.000974
3443.23	0.002153
3452.88	0.000985
3462.52	0.0015583
3472.17	0.000956
3481.81	0.0012522
3491.46	0.000984
3501.1	0.001143
3510.75	0.0015519
3520.39	0.0012855
3530.04	0.0014763
3539.68	0.000745
3549.32	0.000897
3558.97	0.000811
3568.61	0.00069
3578.26	0.001098
3587.9	0.0014103
3597.55	0.000777
3607.19	0.0012586
3616.84	0.000938
3626.48	0.0014254
3636.13	0.000399
3645.77	0.001197
3655.42	0.00130516
3665.06	0.0015978
3674.71	0.000724
3684.35	0.0012817
3694	0.001009
3703.64	0.0017146
3713.29	0.0014512
3722.93	0.000701
3732.58	0.0012298
3742.22	0.000614
3751.86	0.00138738
3761.51	0.00140503
3771.15	0.0016701
3780.8	0.00057
3790.44	0.000855
3800.09	0.0015265
3809.73	0.001074
3819.38	0.001286
3829.02	0.00139544
3838.67	0.0015141
3848.31	0.00135473
3857.96	0.00046
3867.6	0.001095
3877.25	0.000543
3886.89	0.000646
3896.54	0.001072
3906.18	0.0012889
3915.83	0.000654
3925.47	0.0015822
3935.12	0.0014822
3944.76	0.000817
3954.41	0.0016644
3964.05	0.00135302
3973.69	0.0016786
3983.34	0.000648
3992.98	0.000451
