Infrared Spectrum: Disulfoton sulfone
Formula: C 8 H 19 O 4 P S 3
CAS: 2497-06-5
State: gas
Instrument: HP-GC/MS/IRD
Origin: NIST Mass Spectrometry Data Center
1/CM	ABSORBANCE
550	0.0122515
562	0.0092516
574	0.0018778
586	0.0001374
598	0.0002061
610	0.0016259
622	0.0044655
634	0.010534
646	0.0334569
658	0.101447
670	0.0674405
682	0.0247091
694	0.0122515
706	0.0124805
718	0.0156178
730	0.0170376
742	0.0182513
754	0.0212054
766	0.0337775
778	0.0555325
790	0.0786615
802	0.0829667
814	0.0572729
826	0.0309379
838	0.0156636
850	0.0089539
862	0.0072364
874	0.0070303
886	0.007786
898	0.0098928
910	0.0146331
922	0.0271594
934	0.060227
946	0.114706
958	0.12224
970	0.0733258
982	0.0424337
994	0.0483419
1006	0.101447
1018	0.201131
1030	0.22229
1042	0.183337
1054	0.126523
1066	0.0696389
1078	0.044197
1090	0.039617
1102	0.0353347
1114	0.0397544
1126	0.0544104
1138	0.0812263
1150	0.0896306
1162	0.0387239
1174	0.0212283
1186	0.0141064
1198	0.0099615
1210	0.0098928
1222	0.0095035
1234	0.0094577
1246	0.0077631
1258	0.0099386
1270	0.0174269
1282	0.0237931
1294	0.0231748
1306	0.0189154
1318	0.0271594
1330	0.0651047
1342	0.128057
1354	0.0632956
1366	0.0215031
1378	0.0151598
1390	0.023129
1402	0.0193734
1414	0.0167399
1426	0.0142896
1438	0.0105569
1450	0.0103508
1462	0.0102592
1474	0.008702
1486	0.0057937
1498	0.0028854
1510	0.0015801
1522	0.0009618
1534	0.0005267
1546	0.0002748
1558	0.0001374
1570	2.29e-05
1582	4.58e-05
1594	0.0001374
1606	0.0002519
1618	0.0002519
1630	0.0001374
1642	2.29e-05
1654	0
1666	0.0001374
1678	0.0004122
1690	0.0006183
1702	0.0008015
1714	0.0008473
1726	0.0008473
1738	0.0008244
1750	0.0008244
1762	0.0008931
1774	0.0010534
1786	0.0013511
1798	0.0018549
1810	0.0022213
1822	0.0022213
1834	0.0019236
1846	0.001374
1858	0.0008931
1870	0.0005267
1882	0.0003206
1894	0.0002061
1906	0.0001374
1918	0.0001832
1930	0.0001603
1942	0.0001145
1954	9.16e-05
1966	2.29e-05
1978	2.29e-05
1990	0
2002	6.87e-05
2014	4.58e-05
2026	4.58e-05
2038	9.16e-05
2050	0.0001145
2062	0.0001374
2074	9.16e-05
2086	0.0001145
2098	0.0001145
2110	0.0001374
2122	0.0001374
2134	0.0001374
2146	0.0001603
2158	0.0001374
2170	0.0002061
2182	0.0001832
2194	0.000229
2206	0.0001603
2218	6.87e-05
2230	0.0001145
2242	0.000229
2254	0.0003893
2266	0.0003664
2278	0.0003664
2290	0.0002977
2302	0.0001832
2314	0.0001832
2326	0.0002061
2338	0.0002977
2350	0.0003664
2362	0.0003435
2374	0.0003206
2386	0.0003435
2398	0.0003435
2410	0.0004122
2422	0.0005038
2434	0.0005954
2446	0.0007099
2458	0.0008244
2470	0.0008015
2482	0.0007786
2494	0.0005267
2506	0.0002748
2518	0.0001145
2530	9.16e-05
2542	6.87e-05
2554	9.16e-05
2566	2.29e-05
2578	9.16e-05
2590	4.58e-05
2602	0.0001603
2614	0.0002519
2626	0.000229
2638	0.0001832
2650	0.0001603
2662	0.0001374
2674	0.0002748
2686	0.0003893
2698	0.0004809
2710	0.0006183
2722	0.000687
2734	0.0008015
2746	0.0008244
2758	0.0010305
2770	0.0012137
2782	0.0013053
2794	0.0012824
2806	0.0015572
2818	0.0020839
2830	0.0025419
2842	0.0030228
2854	0.0038472
2866	0.0058395
2878	0.0096638
2890	0.0129385
2902	0.0161216
2914	0.0184574
2926	0.0208161
2938	0.0371438
2950	0.0376018
2962	0.029083
2974	0.034808
2986	0.051296
2998	0.0406933
3010	0.0221214
3022	0.0124118
3034	0.007099
3046	0.0045113
3058	0.0031831
3070	0.0024274
3082	0.0019694
3094	0.0016946
3106	0.0014656
3118	0.001374
3130	0.0012824
3142	0.0011679
3154	0.0010763
3166	0.0009389
3178	0.0009618
3190	0.0008702
3202	0.0008015
3214	0.0007557
3226	0.000687
3238	0.0005725
3250	0.000458
3262	0.0003206
3274	0.0003206
3286	0.0002977
3298	0.0002061
3310	0.000229
3322	0.0002061
3334	0.0001603
3346	0.0001603
3358	0.0001832
3370	0.0002977
3382	0.0001832
3394	0.0001832
3406	0.0002061
3418	0.0001145
3430	0.0001145
3442	0.0001374
3454	0.0001832
3466	9.16e-05
3478	0.0001145
3490	0.0001374
3502	6.87e-05
3514	0.0001145
3526	0.0001145
3538	0.0002061
3550	4.58e-05
3562	6.87e-05
3574	0.0001145
3586	9.16e-05
3598	0.0001145
3610	0.0001832
3622	9.16e-05
3634	9.16e-05
3646	0.0001603
3658	0.0001832
3670	0.0001832
3682	0.0001832
3694	0.000229
3706	0.0002061
3718	0.0001603
3730	0.0002748
3742	0.0001832
3754	0.000229
3766	0.0002977
3778	0.0001832
3790	0.0002061
3802	0.000229
3814	0.0002519
3826	0.0001145
3838	0.0001603
