Infrared Spectrum: 2,4,6-Tritert-butylnitrosobenzene
Formula: C 18 H 29 N O
CAS: 24973-59-9
State: gas
Instrument: HP-GC/MS/IRD
Origin: NIST Mass Spectrometry Data Center
1/CM	ABSORBANCE
550	0.0003869
562	0.0007049
574	0.0006731
586	0.0006943
598	0.0007314
610	0.0009169
622	0.0007049
634	0.000689
646	0.0006148
658	0.0005883
670	0.0005141
682	0.000477
694	0.0007526
706	0.0010653
718	0.0025811
730	0.0116335
742	0.0180942
754	0.0065402
766	0.0014787
778	0.0007738
790	0.0003816
802	0.0005088
814	0.0020193
826	0.0031323
838	0.0007473
850	0.0004505
862	0.0004187
874	0.0004876
886	0.0004611
898	0.0004081
910	0.0007314
922	0.0006943
934	0.0002862
946	0.0001113
958	2.12e-05
970	5.3e-06
982	4.24e-05
994	0.0001802
1006	2.65e-05
1018	0.0002279
1030	0.0014522
1042	0.0005247
1054	4.77e-05
1066	0.0001643
1078	0.0002544
1090	0.0005883
1102	0.000901
1114	0.0018974
1126	0.0015052
1138	0.0003604
1150	0.000477
1162	0.0004399
1174	0.0007685
1186	0.0024698
1198	0.0078811
1210	0.0043725
1222	0.0019981
1234	0.0032648
1246	0.0021465
1258	0.0023744
1270	0.008533
1282	0.0335119
1294	0.0332628
1306	0.0078334
1318	0.0017755
1330	0.0008056
1342	0.0005671
1354	0.000636
1366	0.0009328
1378	0.0024963
1390	0.0049449
1402	0.011607
1414	0.0165572
1426	0.0035616
1438	0.002014
1450	0.0025122
1462	0.0045845
1474	0.012137
1486	0.039273
1498	0.0504666
1510	0.0248517
1522	0.0061268
1534	0.0028355
1546	0.0025122
1558	0.0026712
1570	0.0031959
1582	0.004081
1594	0.0069907
1606	0.0030687
1618	0.001325
1630	0.001113
1642	0.0007208
1654	0.0005883
1666	0.0005936
1678	0.0006413
1690	0.0004399
1702	0.0003869
1714	0.0003392
1726	0.0003286
1738	0.0006095
1750	0.0008268
1762	0.000583
1774	0.0005194
1786	0.0004664
1798	0.000371
1810	0.0003498
1822	0.0005353
1834	0.00053
1846	0.0004452
1858	0.0006943
1870	0.0007367
1882	0.0004611
1894	0.0004876
1906	0.0007685
1918	0.0004134
1930	0.0002862
1942	0.0002597
1954	0.000212
1966	0.0002279
1978	0.0002279
1990	0.000212
2002	0.0002862
2014	0.0004452
2026	0.0004081
2038	0.0002544
2050	0.0001855
2062	0.0002597
2074	0.000371
2086	0.0004081
2098	0.000265
2110	0.0001378
2122	0.0001431
2134	0.0001696
2146	0.0001908
2158	0.0001643
2170	0.000159
2182	9.54e-05
2194	7.95e-05
2206	0.0001378
2218	0.000159
2230	0.0001537
2242	0.0001166
2254	9.54e-05
2266	6.36e-05
2278	0.000106
2290	0.0001431
2302	0.000212
2314	0.0002756
2326	0.0003498
2338	0.0002756
2350	0.0002226
2362	0.0003074
2374	0.0002597
2386	0.0002385
2398	0.0003657
2410	0.0001961
2422	0.0001272
2434	0.000212
2446	0.0002279
2458	0.0002809
2470	0.0003233
2482	0.0004028
2494	0.0002597
2506	0.0001643
2518	0.0002226
2530	0.0002809
2542	0.000318
2554	0.0001802
2566	0.0001007
2578	0.0001378
2590	0.000318
2602	0.0004558
2614	0.0003127
2626	0.0001378
2638	7.42e-05
2650	6.89e-05
2662	0.0001007
2674	6.36e-05
2686	4.77e-05
2698	7.42e-05
2710	5.3e-05
2722	9.01e-05
2734	0.0001431
2746	0.0001272
2758	6.36e-05
2770	1.06e-05
2782	3.18e-05
2794	3.71e-05
2806	5.3e-05
2818	3.71e-05
2830	2.65e-05
2842	2.12e-05
2854	0.000106
2866	0.0001219
2878	0.0001219
2890	0.0001272
2902	7.42e-05
2914	0.0001007
2926	0.0001325
2938	3.71e-05
2950	4.77e-05
2962	7.42e-05
2974	0.0001219
2986	0.0001643
2998	0.0001908
3010	0.0004187
3022	0.001219
3034	0.0020564
3046	0.0025334
3058	0.0029945
3070	0.0043036
3082	0.004028
3094	0.001802
3106	0.0010812
3118	0.0004558
3130	0.0002226
3142	0.0001431
3154	0.0001378
3166	9.01e-05
3178	4.77e-05
3190	6.89e-05
3202	0.0001007
3214	9.01e-05
3226	7.42e-05
3238	6.89e-05
3250	6.89e-05
3262	8.48e-05
3274	5.3e-05
3286	4.77e-05
3298	5.3e-06
3310	6.89e-05
3322	1.06e-05
3334	7.42e-05
3346	7.95e-05
3358	9.01e-05
3370	8.48e-05
3382	0.000106
3394	6.36e-05
3406	0.0001802
3418	0.0003127
3430	0.0007897
3442	0.0015211
3454	0.0013727
3466	0.0006148
3478	0.000265
3490	0.000159
3502	0.0001855
3514	0.0001643
3526	0.0001166
3538	9.01e-05
3550	0.0001007
3562	0.0001113
3574	9.54e-05
3586	0.0001219
3598	0.000106
3610	0.0001378
3622	0.000106
3634	0.0001113
3646	0.0001749
3658	0.0001325
3670	9.01e-05
3682	0.0001166
3694	0.0001431
3706	0.0001696
3718	9.54e-05
3730	0.0001484
3742	0.0002067
3754	0.0001484
3766	0.0001855
3778	0.0001643
3790	0.0001431
3802	0.000159
3814	0.0001643
3826	0.0001272
3838	0.0001537
