Infrared Spectrum: Ethyl 5-hydroxyindole-2-carboxylate
Formula: C 11 H 11 N O 3
CAS: 24985-85-1
State: gas
Origin: EPA-IR VAPOR PHASE LIBRARY
1/CM	ABSORBANCE
549.8	0.00471
559.445	0.00439
569.09	0.00305
578.734	0.00373
588.379	0.00724
598.024	0.01023
607.669	0.00596
617.313	0.00451
626.958	0.00533
636.603	0.00291
646.248	0.00138
655.893	0.00175
665.537	0.0009002
675.182	0.00129
684.827	0.00151
694.472	0.00132
704.116	0.00211
713.761	0.00414
723.406	0.00744
733.051	0.01166
742.695	0.01124
752.34	0.02434
761.985	0.03553
771.63	0.03054
781.275	0.01913
790.919	0.0185
800.564	0.01926
810.209	0.0152
819.854	0.01325
829.498	0.01686
839.143	0.023
848.788	0.01998
858.433	0.01901
868.078	0.01584
877.722	0.00923
887.367	0.00666
897.012	0.00617
906.657	0.00636
916.301	0.00744
925.946	0.00812
935.591	0.00983
945.236	0.01446
954.88	0.01262
964.525	0.00852
974.17	0.01002
983.815	0.0093
993.46	0.0085
1003.1	0.01082
1012.75	0.02171
1022.39	0.04141
1032.04	0.03523
1041.68	0.01721
1051.33	0.0121
1060.97	0.00939
1070.62	0.01179
1080.26	0.02255
1089.91	0.04508
1099.55	0.05704
1109.2	0.0308
1118.84	0.02818
1128.49	0.03134
1138.13	0.03679
1147.78	0.07703
1157.42	0.13302
1167.07	0.21052
1176.71	0.14844
1186.36	0.13321
1196	0.13034
1205.64	0.15242
1215.29	0.23804
1224.93	0.31989
1234.58	0.34544
1244.22	0.1607
1253.87	0.0545
1263.51	0.02605
1273.16	0.01772
1282.8	0.01566
1292.45	0.01671
1302.09	0.02404
1311.74	0.0397
1321.38	0.0779
1331.03	0.10621
1340.67	0.045
1350.32	0.02574
1359.96	0.02464
1369.61	0.04117
1379.25	0.0472
1388.9	0.02337
1398.54	0.02049
1408.18	0.01971
1417.83	0.02853
1427.47	0.03278
1437.12	0.02652
1446.76	0.03367
1456.41	0.0292
1466.05	0.02286
1475.7	0.01916
1485.34	0.0162
1494.99	0.01266
1504.63	0.01075
1514.28	0.01605
1523.92	0.03634
1533.57	0.08147
1543.21	0.1287
1552.86	0.0564
1562.5	0.01864
1572.15	0.01342
1581.79	0.01187
1591.44	0.01012
1601.08	0.00907
1610.73	0.00939
1620.37	0.01495
1630.01	0.01839
1639.66	0.01395
1649.3	0.0104
1658.95	0.00944
1668.59	0.00929
1678.24	0.01078
1687.88	0.01237
1697.53	0.01814
1707.17	0.04299
1716.82	0.12859
1726.46	0.20461
1736.11	0.10634
1745.75	0.103
1755.4	0.05426
1765.04	0.01577
1774.69	0.00758
1784.33	0.00667
1793.98	0.00681
1803.62	0.00654
1813.27	0.00597
1822.91	0.00577
1832.55	0.00498
1842.2	0.00471
1851.84	0.00416
1861.49	0.00288
1871.13	0.00219
1880.78	0.00219
1890.42	0.00208
1900.07	0.00205
1909.71	0.00164
1919.36	0.00156
1929	0.00169
1938.65	0.00155
1948.29	0.0015
1957.94	0.00155
1967.58	0.00151
1977.23	0.00136
1986.87	0.00136
1996.52	0.0012
2006.16	0.00142
2015.81	0.00137
2025.45	0.00134
2035.1	0.00126
2044.74	0.0014
2054.38	0.00155
2064.03	0.00152
2073.67	0.00141
2083.32	0.00132
2092.96	0.00115
2102.61	0.00126
2112.25	0.00103
2121.9	0.0009508
2131.54	0.0009147
2141.19	0.0009069
2150.83	0.0009997
2160.48	0.000998
2170.12	0.00101
2179.77	0.00118
2189.41	0.00121
2199.06	0.00117
2208.7	0.0012
2218.35	0.0009537
2227.99	0.00106
2237.64	0.0009202
2247.28	0.0007969
2256.92	0.00109
2266.57	0.00129
2276.21	0.0009822
2285.86	0.00112
2295.5	0.00123
2305.15	0.00137
2314.79	0.00135
2324.44	0.00145
2334.08	0.00143
2343.73	0.00145
2353.37	0.00145
2363.02	0.00167
2372.66	0.0018
2382.31	0.00177
2391.95	0.0016
2401.6	0.00162
2411.24	0.0013
2420.89	0.00115
2430.53	0.000997
2440.18	0.00112
2449.82	0.00129
2459.47	0.00139
2469.11	0.00151
2478.75	0.00152
2488.4	0.00165
2498.04	0.00127
2507.69	0.00148
2517.33	0.00155
2526.98	0.00131
2536.62	0.00134
2546.27	0.00121
2555.91	0.00122
2565.56	0.0009848
2575.2	0.00109
2584.85	0.00104
2594.49	0.00116
2604.14	0.00122
2613.78	0.00125
2623.43	0.00124
2633.07	0.00128
2642.72	0.00147
2652.36	0.00146
2662.01	0.00128
2671.65	0.00101
2681.29	0.00107
2690.94	0.00106
2700.58	0.00112
2710.23	0.0007577
2719.87	0.0009509
2729.52	0.00122
2739.16	0.000982
2748.81	0.00118
2758.45	0.00119
2768.1	0.00127
2777.74	0.0012
2787.39	0.0016
2797.03	0.00143
2806.68	0.00138
2816.32	0.00172
2825.97	0.00165
2835.61	0.00173
2845.26	0.00206
2854.9	0.00242
2864.55	0.00336
2874.19	0.00434
2883.84	0.00634
2893.48	0.00639
2903.12	0.00702
2912.77	0.00854
2922.41	0.0085
2932.06	0.01019
2941.7	0.01691
2951.35	0.01629
2960.99	0.01469
2970.64	0.01829
2980.28	0.02801
2989.93	0.03055
2999.57	0.01861
3009.22	0.01326
3018.86	0.0114
3028.51	0.01302
3038.15	0.01182
3047.8	0.0089
3057.44	0.00786
3067.09	0.00684
3076.73	0.00554
3086.38	0.00461
3096.02	0.00388
3105.67	0.0026
3115.31	0.00183
3124.95	0.00168
3134.6	0.00139
3144.24	0.00133
3153.89	0.0014
3163.53	0.00116
3173.18	0.00101
3182.82	0.00114
3192.47	0.0007808
3202.11	0.0007822
3211.76	0.000869
3221.4	0.0004078
3231.05	0.0007045
3240.69	0.0006111
3250.34	0.0006486
3259.98	0.0014
3269.63	0.0009136
3279.27	0.0006691
3288.92	0.0006287
3298.56	0.0005851
3308.21	0.0004203
3317.85	0.0004901
3327.49	0.0005536
3337.14	0.0006172
3346.78	0.0004666
3356.43	0.000545
3366.07	0.0005848
3375.72	0.0006488
3385.36	0.0006797
3395.01	0.00111
3404.65	0.0009929
3414.3	0.00214
3423.94	0.00238
3433.59	0.00271
3443.23	0.00354
3452.88	0.0053
3462.52	0.00837
3472.17	0.01587
3481.81	0.03347
3491.46	0.05002
3501.1	0.03372
3510.75	0.02069
3520.39	0.00724
3530.04	0.00247
3539.68	0.0009285
3549.32	0.00124
3558.97	0.0006165
3568.61	0.0006759
3578.26	0.0005739
3587.9	0.0005655
3597.55	0.0007088
3607.19	0.00116
3616.84	0.00145
3626.48	0.00247
3636.13	0.0067
3645.77	0.02237
3655.42	0.04552
3665.06	0.02271
3674.71	0.00294
3684.35	0.00108
3694	0.000769
3703.64	0.0004718
3713.29	0.0002036
3722.93	0.0001662
3732.58	0.0002562
3742.22	0.0006091
3751.86	0.0002975
3761.51	0.0006159
3771.15	0.0003304
3780.8	0.000331
3790.44	0.0003853
3800.09	0.0005515
3809.73	0.0003435
3819.38	0.0007411
3829.02	0.0007625
3838.67	0.0005969
3848.31	0.0005982
3857.96	0.0005235
3867.6	0.0005942
3877.25	0.0004335
3886.89	0.0008348
3896.54	0.0006951
3906.18	0.0011
3915.83	0.0005214
3925.47	0.0007227
3935.12	0.0007068
3944.76	0.0004736
3954.41	0.0006053
3964.05	0.0003739
3973.69	0.0002748
3983.34	0.000636
3992.98	0.0002734
