Infrared Spectrum: n-Heptyl acrylate
Formula: C 10 H 18 O 2
CAS: 2499-58-3
State: gas
Origin: EPA-IR VAPOR PHASE LIBRARY
1/CM	ABSORBANCE
501.5	0.0003852
513.074	0.0008199
524.648	0.0009443
536.222	0.0009277
547.796	0.0005616
559.37	0.0003083
570.944	5.003e-05
582.518	7.845e-05
594.092	0.0002974
605.666	0.0013856
617.24	0.0014056
628.814	0.0010656
640.388	0.0011156
651.962	0.0019456
663.536	0.0036656
675.11	0.0027556
686.684	0.0013956
698.258	0.0015856
709.832	0.0027256
721.406	0.0041656
732.98	0.0038156
744.554	0.0031756
756.128	0.0031356
767.702	0.0039156
779.276	0.0058956
790.85	0.0110456
802.423	0.0204956
813.997	0.0217856
825.571	0.0135456
837.145	0.0093556
848.719	0.0083456
860.293	0.0083656
871.867	0.0083456
883.441	0.0081756
895.015	0.0080756
906.589	0.0084056
918.163	0.0090056
929.737	0.0111856
941.311	0.0171956
952.885	0.0296156
964.459	0.0417456
976.033	0.0438756
987.607	0.0450256
999.181	0.0332856
1010.76	0.0250756
1022.33	0.0246056
1033.9	0.0315956
1045.48	0.0541656
1057.05	0.0833556
1068.63	0.0748656
1080.2	0.0432256
1091.77	0.0233456
1103.35	0.0152356
1114.92	0.0138956
1126.49	0.0152356
1138.07	0.0201356
1149.64	0.0342756
1161.22	0.0715156
1172.79	0.180576
1184.36	0.343986
1195.94	0.237986
1207.51	0.0965756
1219.09	0.0531056
1230.66	0.0471856
1242.23	0.0685356
1253.81	0.130786
1265.38	0.157726
1276.96	0.0956156
1288.53	0.0743456
1300.1	0.0712856
1311.68	0.0350656
1323.25	0.0201656
1334.83	0.0144656
1346.4	0.0124356
1357.97	0.0121856
1369.55	0.0139656
1381.12	0.0212156
1392.7	0.0310056
1404.27	0.0761156
1415.84	0.0747056
1427.42	0.0283656
1438.99	0.0217456
1450.57	0.0262056
1462.14	0.0321256
1473.71	0.0263656
1485.29	0.0146556
1496.86	0.0086356
1508.44	0.0061756
1520.01	0.0048556
1531.58	0.0039656
1543.16	0.0034056
1554.73	0.0030556
1566.31	0.0030056
1577.88	0.0034556
1589.45	0.0045956
1601.03	0.0069156
1612.6	0.0108356
1624.18	0.0157856
1635.75	0.0195656
1647.32	0.0124056
1658.9	0.0062756
1670.47	0.0058356
1682.05	0.0076156
1693.62	0.0125256
1705.19	0.0229056
1716.77	0.0454656
1728.34	0.100356
1739.92	0.199356
1751.49	0.185896
1763.06	0.0805056
1774.64	0.0324056
1786.21	0.0155256
1797.79	0.0088256
1809.36	0.0056356
1820.93	0.0040456
1832.51	0.0032256
1844.08	0.0028056
1855.66	0.0025556
1867.23	0.0024556
1878.8	0.0023056
1890.38	0.0023456
1901.95	0.0027556
1913.53	0.0039056
1925.1	0.0052256
1936.67	0.0040956
1948.25	0.0027556
1959.82	0.0020356
1971.4	0.0016656
1982.97	0.0015456
1994.54	0.0015856
2006.12	0.0017756
2017.69	0.0020456
2029.27	0.0022256
2040.84	0.0023056
2052.41	0.0022256
2063.99	0.0021256
2075.56	0.0019956
2087.14	0.0018356
2098.71	0.0016156
2110.28	0.0014456
2121.86	0.0013156
2133.43	0.0011756
2145.01	0.0010356
2156.58	0.0009316
2168.15	0.0008534
2179.73	0.0007667
2191.3	0.0006768
2202.88	0.0006151
2214.45	0.0005824
2226.02	0.0005815
2237.6	0.0005548
2249.17	0.0005702
2260.74	0.0005755
2272.32	0.0006268
2283.89	0.0006734
2295.47	0.0007426
2307.04	0.0008984
2318.61	0.0009403
2330.19	0.0010107
2341.76	0.0011656
2353.34	0.0014156
2364.91	0.0014756
2376.48	0.0013056
2388.06	0.0010135
2399.63	0.0007753
2411.21	0.0006584
2422.78	0.0005852
2434.35	0.0004815
2445.93	0.0005266
2457.5	0.0005253
2469.08	0.0006425
2480.65	0.0006891
2492.22	0.0007215
2503.8	0.000725
2515.37	0.0007268
2526.95	0.0007698
2538.52	0.000835
2550.09	0.0008336
2561.67	0.0008846
2573.24	0.0009933
2584.82	0.0011056
2596.39	0.0011656
2607.96	0.0012356
2619.54	0.0013056
2631.11	0.0014956
2642.69	0.0016856
2654.26	0.0019356
2665.83	0.0022156
2677.41	0.0024656
2688.98	0.0025856
2700.56	0.0026256
2712.13	0.0025956
2723.7	0.0026556
2735.28	0.0030356
2746.85	0.0034556
2758.43	0.0035456
2770	0.0037456
2781.57	0.0043156
2793.15	0.0053756
2804.72	0.0067356
2816.3	0.0089656
2827.87	0.0126256
2839.44	0.0197156
2851.02	0.0388056
2862.59	0.0702356
2874.17	0.0764756
2885.74	0.0679956
2897.31	0.0649456
2908.89	0.0863456
2920.46	0.132996
2932.04	0.193816
2943.61	0.191206
2955.18	0.149776
2966.76	0.146666
2978.33	0.0955456
2989.91	0.0478356
3001.48	0.0268856
3013.05	0.0162056
3024.63	0.0125256
3036.2	0.0121056
3047.78	0.0111956
3059.35	0.0070456
3070.92	0.0060356
3082.5	0.0055856
3094.07	0.0054856
3105.65	0.0083156
3117.22	0.0067556
3128.79	0.0029056
3140.37	0.0020756
3151.94	0.0017556
3163.52	0.0014956
3175.09	0.0013356
3186.66	0.0012456
3198.24	0.0011056
3209.81	0.0009167
3221.39	0.0007308
3232.96	0.0006754
3244.53	0.0005257
3256.11	0.0004433
3267.68	0.0003211
3279.26	0.0002593
3290.83	0.0002137
3302.4	0.000225
3313.98	0.0002001
3325.55	0.0002525
3337.13	0.0003095
3348.7	0.000432
3360.27	0.0003799
3371.85	0.0004359
3383.42	0.0004524
3395	0.0003163
3406.57	0.0002933
3418.14	0.0003203
3429.72	0.0005337
3441.29	0.0007891
3452.86	0.0013456
3464.44	0.0022756
3476.01	0.0023956
3487.59	0.0015356
3499.16	0.0008032
3510.73	0.0004568
3522.31	0.0002854
3533.88	0.0001761
3545.46	0.0001267
3557.03	1.745e-05
3568.6	4.544e-05
3580.18	8.041e-05
3591.75	0.000168
3603.33	0.0001322
3614.9	0.00021
3626.47	0.0001721
3638.05	0.0002279
3649.62	0.0002633
3661.2	0.0003022
3672.77	0.000338
3684.34	0.0002821
3695.92	0.0002392
3707.49	0.0002005
3719.07	0.0002521
3730.64	0.0002752
3742.21	0.0003431
3753.79	0.000353
3765.36	0.000259
3776.94	0.0002617
3788.51	0.0003015
3800.08	0.000317
3811.66	0.0003206
3823.23	0.0002804
3834.81	0.0003212
3846.38	0.000312
3857.95	0.0002954
3869.53	0.0003389
3881.1	0.0004002
3892.68	0.0003282
3904.25	0.0004445
3915.82	0.0003997
3927.4	0.0004845
3938.97	0.0004693
3950.55	0.0004847
3962.12	0.0005424
3973.69	0.0006731
3985.27	0.0006518
3996.84	0.0007711
