Infrared Spectrum: 9-Fluorenyl acetate
Formula: C 15 H 12 O 2
CAS: 25017-68-9
State: gas
Origin: EPA-IR VAPOR PHASE LIBRARY
1/CM	ABSORBANCE
551.7	0.00887
563.274	0.00238
574.848	0.00218
586.421	0.0031
597.995	0.00333
609.569	0.00448
621.143	0.01109
632.717	0.00812
644.291	0.00714
655.864	0.0044
667.438	0.00441
679.012	0.00311
690.586	0.00319
702.16	0.00337
713.734	0.00766
725.307	0.03494
736.881	0.10372
748.455	0.07876
760.029	0.03931
771.603	0.0077
783.177	0.00375
794.75	0.00302
806.324	0.00325
817.898	0.00219
829.472	0.00306
841.046	0.0053
852.619	0.0078
864.193	0.00623
875.767	0.00678
887.341	0.00494
898.915	0.00569
910.489	0.00931
922.062	0.01485
933.636	0.00967
945.21	0.00893
956.784	0.00972
968.358	0.01676
979.932	0.02981
991.505	0.03343
1003.08	0.05343
1014.65	0.0848
1026.23	0.08183
1037.8	0.04498
1049.37	0.0255
1060.95	0.01928
1072.52	0.01837
1084.1	0.01638
1095.67	0.01788
1107.24	0.01369
1118.82	0.00783
1130.39	0.00666
1141.97	0.00799
1153.54	0.01394
1165.11	0.01182
1176.69	0.02047
1188.26	0.04488
1199.83	0.06864
1211.41	0.14332
1222.98	0.28326
1234.56	0.32059
1246.13	0.09446
1257.7	0.03342
1269.28	0.02061
1280.85	0.01548
1292.42	0.01281
1304	0.0162
1315.57	0.02077
1327.15	0.01074
1338.72	0.00809
1350.29	0.01114
1361.87	0.03139
1373.44	0.06001
1385.02	0.02631
1396.59	0.01186
1408.16	0.00945
1419.74	0.00945
1431.31	0.01099
1442.88	0.02581
1454.46	0.0484
1466.03	0.01524
1477.61	0.01058
1489.18	0.00663
1500.75	0.00512
1512.33	0.00505
1523.9	0.00506
1535.48	0.00446
1547.05	0.00387
1558.62	0.00421
1570.2	0.00527
1581.77	0.00863
1593.34	0.00933
1604.92	0.01049
1616.49	0.00955
1628.07	0.00472
1639.64	0.0039
1651.21	0.0043
1662.79	0.00468
1674.36	0.00542
1685.93	0.00742
1697.51	0.00971
1709.08	0.01296
1720.66	0.0167
1732.23	0.02728
1743.8	0.08846
1755.38	0.1828
1766.95	0.09042
1778.53	0.05698
1790.1	0.02781
1801.67	0.01517
1813.25	0.01122
1824.82	0.00864
1836.39	0.00605
1847.97	0.00465
1859.54	0.00387
1871.12	0.00312
1882.69	0.0033
1894.26	0.00378
1905.84	0.00436
1917.41	0.00439
1928.99	0.00371
1940.56	0.00647
1952.13	0.00476
1963.71	0.00218
1975.28	0.00184
1986.85	0.00174
1998.43	0.00144
2010	0.00123
2021.58	0.00106
2033.15	0.0009884
2044.72	0.0008935
2056.3	0.0007834
2067.87	0.0009
2079.44	0.00109
2091.02	0.00112
2102.59	0.0009673
2114.17	0.0008345
2125.74	0.0009224
2137.31	0.00123
2148.89	0.00152
2160.46	0.00134
2172.04	0.00117
2183.61	0.00109
2195.18	0.0008673
2206.76	0.0008117
2218.33	0.0008157
2229.9	0.0008273
2241.48	0.0007471
2253.05	0.0008489
2264.63	0.000641
2276.2	0.0004366
2287.77	0.0004888
2299.35	0.0007667
2310.92	0.00113
2322.5	0.000918
2334.07	0.0008046
2345.64	0.0008806
2357.22	0.000697
2368.79	0.0005272
2380.36	0.0005191
2391.94	0.000627
2403.51	0.0007778
2415.09	0.0008474
2426.66	0.0008525
2438.23	0.00102
2449.81	0.0011
2461.38	0.0009391
2472.96	0.0006975
2484.53	0.0006036
2496.1	0.0006787
2507.68	0.0007262
2519.25	0.0006384
2530.82	0.0005457
2542.4	0.0005036
2553.97	0.0004729
2565.55	0.0003402
2577.12	0.0004262
2588.69	0.0005152
2600.27	0.0007055
2611.84	0.0007103
2623.41	0.0008874
2634.99	0.0007925
2646.56	0.0004632
2658.14	0.0003441
2669.71	0.0003682
2681.28	0.0004211
2692.86	0.0003245
2704.43	0.0004106
2716.01	0.0004606
2727.58	0.0004706
2739.15	0.0004557
2750.73	0.0003147
2762.3	0.0003979
2773.87	0.0004715
2785.45	0.0004833
2797.02	0.0005927
2808.6	0.0006286
2820.17	0.0006294
2831.74	0.0006943
2843.32	0.000825
2854.89	0.00106
2866.47	0.00131
2878.04	0.00204
2889.61	0.00285
2901.19	0.00239
2912.76	0.00262
2924.33	0.00469
2935.91	0.01159
2947.48	0.00931
2959.06	0.00446
2970.63	0.00336
2982.2	0.00362
2993.78	0.00425
3005.35	0.00538
3016.92	0.01049
3028.5	0.02128
3040.07	0.02541
3051.65	0.0291
3063.22	0.03907
3074.79	0.05489
3086.37	0.02641
3097.94	0.01208
3109.52	0.005
3121.09	0.00222
3132.66	0.00161
3144.24	0.00142
3155.81	0.00146
3167.38	0.00171
3178.96	0.00114
3190.53	0.000477
3202.11	0.0004136
3213.68	0.0002715
3225.25	0.0002321
3236.83	0.0001869
3248.4	0.0001188
3259.98	0.0001001
3271.55	1.403e-05
3283.12	8.449e-05
3294.7	8.908e-05
3306.27	7.515e-05
3317.84	7.182e-05
3329.42	3.568e-05
3340.99	2.611e-05
3352.57	8.78e-05
3364.14	5.511e-05
3375.71	7.245e-05
3387.29	8.557e-05
3398.86	9.809e-05
3410.43	0.0001077
3422.01	0.0001286
3433.58	0.0001449
3445.16	0.0001983
3456.73	0.0003662
3468.3	0.000533
3479.88	0.00119
3491.45	0.00194
3503.03	0.00131
3514.6	0.0007737
3526.17	0.0004983
3537.75	0.0003199
3549.32	0.000315
3560.89	0.0002078
3572.47	0.0001678
3584.04	7.544e-05
3595.62	9.088e-05
3607.19	0.0001442
3618.76	0.00018
3630.34	0.0001244
3641.91	0.0002258
3653.49	0.0003531
3665.06	0.0002697
3676.63	0.0002646
3688.21	0.0002941
3699.78	0.0001969
3711.35	0.0001576
3722.93	0.0001743
3734.5	0.0001663
3746.08	0.000203
3757.65	0.0001771
3769.22	0.00019
3780.8	0.0002786
3792.37	0.0002742
3803.94	0.0002845
3815.52	0.000193
3827.09	0.0002853
3838.67	0.0002768
3850.24	0.000187
3861.81	0.000227
3873.39	0.0001954
3884.96	0.0003074
3896.54	0.0003595
3908.11	0.0002907
3919.68	0.0004059
3931.26	0.0004886
3942.83	0.0003499
3954.4	0.0002559
3965.98	0.0001959
3977.55	0.0001665
3989.13	0.0001609
4000.7	0.0002526
