Infrared Spectrum: N-O-NITROBENZYLIDENE-P-ANISIDINE
Formula: C14 H12 N2 O3
CAS: 2501-03-3
State: SOLID (PELLET)
Class: COBLENTZ
Instrument: Not specified, most likely a prism, grating, or hybrid spectrometer.
Sampling: TRANSMISSION
Resolution: 4
Origin: TENNESSEE EASTMAN COMPANY, RESEARCH LABORATORIES
MICROMETERS	TRANSMITTANCE
2.01	0.525
2.04987	0.541
2.08973	0.553
2.1296	0.561
2.16946	0.576
2.20933	0.586
2.2492	0.6
2.28906	0.611
2.32893	0.623
2.36879	0.626
2.40866	0.635
2.44852	0.643
2.48839	0.655
2.52826	0.673
2.56812	0.676
2.60799	0.685
2.64785	0.693
2.68772	0.701
2.72759	0.696
2.76745	0.673
2.80732	0.656
2.84718	0.626
2.88705	0.623
2.92691	0.623
2.96678	0.656
3.00665	0.698
3.04651	0.713
3.08638	0.728
3.12624	0.738
3.16611	0.743
3.20598	0.748
3.24584	0.728
3.28571	0.736
3.32557	0.735
3.36544	0.68
3.4053	0.693
3.44517	0.761
3.48504	0.721
3.5249	0.786
3.56477	0.816
3.60463	0.821
3.6445	0.821
3.68437	0.83
3.72423	0.841
3.7641	0.841
3.80396	0.843
3.84383	0.843
3.88369	0.843
3.92356	0.846
3.96343	0.84
4.00329	0.856
4.04316	0.86
4.08302	0.855
4.12289	0.868
4.16276	0.868
4.20262	0.875
4.24249	0.9
4.28235	0.878
4.32222	0.868
4.36208	0.876
4.40195	0.885
4.44182	0.891
4.48168	0.896
4.52155	0.898
4.56141	0.901
4.60128	0.906
4.64115	0.91
4.68101	0.91
4.72088	0.91
4.76074	0.91
4.80061	0.906
4.84047	0.898
4.88034	0.873
4.92021	0.895
4.96007	0.881
4.99994	0.92
5.0398	0.893
5.07967	0.905
5.11954	0.906
5.1594	0.893
5.19927	0.906
5.23913	0.89
5.279	0.888
5.31887	0.891
5.35873	0.89
5.3986	0.908
5.43846	0.903
5.47833	0.91
5.51819	0.92
5.55806	0.918
5.59793	0.91
5.63779	0.901
5.67766	0.893
5.71752	0.881
5.75739	0.883
5.79726	0.876
5.83712	0.861
5.87699	0.845
5.91685	0.85
5.95672	0.83
5.99658	0.833
6.03645	0.84
6.07632	0.803
6.11618	0.776
6.15605	0.606
6.19591	0.515
6.23578	0.633
6.27565	0.423
6.31551	0.623
6.35538	0.451
6.39524	0.701
6.43511	0.673
6.47497	0.26
6.51484	0.033
6.55471	0.275
6.59457	0.055
6.63444	0.238
6.6743	0.578
6.71417	0.641
6.75404	0.595
6.7939	0.631
6.83377	0.651
6.87363	0.693
6.9135	0.53
6.95336	0.761
6.99323	0.773
7.0331	0.81
7.07296	0.835
7.11283	0.83
7.15269	0.813
7.19256	0.735
7.23243	0.541
7.27229	0.491
7.31216	0.63
7.35202	0.446
7.39189	0.185
7.43175	0.226
7.47162	0.518
7.51149	0.735
7.55135	0.753
7.59122	0.65
7.63108	0.451
7.67095	0.308
7.71082	0.473
7.75068	0.651
7.79055	0.586
7.83041	0.398
7.87028	0.511
7.91014	0.616
7.95001	0.396
7.98988	0.068
8.02974	0.315
8.06961	0.605
8.10947	0.681
8.14934	0.748
8.18921	0.8
8.22907	0.81
8.26894	0.808
8.3088	0.743
8.34867	0.475
8.38854	0.431
8.4284	0.646
8.46827	0.753
8.50813	0.681
8.548	0.551
8.58786	0.665
8.62773	0.796
8.6676	0.801
8.70746	0.82
8.74733	0.82
8.78719	0.768
8.82706	0.801
8.86693	0.841
8.90679	0.836
8.94666	0.698
8.98652	0.56
9.02639	0.801
9.06625	0.861
9.10612	0.876
9.14599	0.881
9.18585	0.876
9.22572	0.843
9.26558	0.876
9.30545	0.885
9.34532	0.901
9.38518	0.901
9.42505	0.9
9.46491	0.89
9.50478	0.873
9.54464	0.84
9.58451	0.751
9.62438	0.681
9.66424	0.468
9.70411	0.208
9.74397	0.238
9.78384	0.508
9.82371	0.703
9.86357	0.775
9.90344	0.815
9.9433	0.853
9.98317	0.863
10.023	0.875
10.0629	0.878
10.1028	0.885
10.1426	0.893
10.1825	0.896
10.2224	0.895
10.2622	0.851
10.3021	0.82
10.342	0.736
10.3818	0.83
10.4217	0.808
10.4616	0.751
10.5014	0.833
10.5413	0.875
10.5812	0.905
10.621	0.911
10.6609	0.913
10.7008	0.911
10.7406	0.915
10.7805	0.903
10.8204	0.875
10.8602	0.923
10.9001	0.923
10.9399	0.925
10.9798	0.928
11.0197	0.923
11.0595	0.918
11.0994	0.891
11.1393	0.851
11.1791	0.82
11.219	0.838
11.2589	0.881
11.2987	0.91
11.3386	0.911
11.3785	0.885
11.4183	0.878
11.4582	0.901
11.4981	0.901
11.5379	0.786
11.5778	0.57
11.6177	0.731
11.6575	0.793
11.6974	0.768
11.7373	0.743
11.7771	0.755
11.817	0.753
11.8569	0.636
11.8967	0.321
11.9366	0.276
11.9765	0.486
12.0163	0.47
12.0562	0.43
12.0961	0.251
12.1359	0.46
12.1758	0.748
12.2157	0.821
12.2555	0.853
12.2954	0.865
12.3353	0.83
12.3751	0.785
12.415	0.84
12.4549	0.873
12.4947	0.886
12.5346	0.893
12.5744	0.848
12.6143	0.656
12.6542	0.531
12.694	0.691
12.7339	0.718
12.7738	0.55
12.8136	0.59
12.8535	0.761
12.8934	0.76
12.9332	0.585
12.9731	0.551
13.013	0.701
13.0528	0.821
13.0927	0.851
13.1326	0.87
13.1724	0.871
13.2123	0.873
13.2522	0.851
13.292	0.8
13.3319	0.665
13.3718	0.445
13.4116	0.32
13.4515	0.395
13.4914	0.601
13.5312	0.763
13.5711	0.825
13.611	0.858
13.6508	0.873
13.6907	0.865
13.7306	0.853
13.7704	0.776
13.8103	0.668
13.8502	0.658
13.89	0.775
13.9299	0.83
13.9698	0.866
14.0096	0.878
14.0495	0.88
14.0894	0.873
14.1292	0.861
14.1691	0.821
14.2089	0.771
14.2488	0.718
14.2887	0.708
14.3285	0.715
14.3684	0.751
14.4083	0.793
14.4481	0.82
14.488	0.84
14.5279	0.845
14.5677	0.851
14.6076	0.836
14.6475	0.813
14.6873	0.77
14.7272	0.7
14.7671	0.665
14.8069	0.65
14.8468	0.711
14.8867	0.763
14.9265	0.8
14.9664	0.823
15.0063	0.848
15.0461	0.855
15.086	0.856
15.1259	0.856
15.1657	0.853
15.2056	0.851
15.2455	0.846
15.2853	0.843
15.3252	0.835
15.3651	0.828
15.4049	0.818
15.4448	0.816
15.4847	0.81
15.5245	0.805
15.5644	0.791
15.6043	0.786
15.6441	0.783
15.684	0.781
15.7239	0.776
15.7637	0.776
15.8036	0.773
15.8434	0.763
15.8833	0.753
15.9232	0.743
15.963	0.741
16.0029	0.741
