Infrared Spectrum: 2,2',4,4',5,5'-HEXACHLORO AZOBENZENE
Formula: C12 H4 Cl6 N2
CAS: 25016-08-4
State: SOLID (MINERAL OIL MULL)
Class: COBLENTZ
Instrument: Not specified, most likely a prism, grating, or hybrid spectrometer.
Sampling: TRANSMISSION
Resolution: 4
Origin: DOW CHEMICAL COMPANY
MICROMETERS	TRANSMITTANCE
2.062	0.486
2.10309	0.494
2.14419	0.508
2.18528	0.515
2.22638	0.515
2.26747	0.513
2.30856	0.518
2.34966	0.539
2.39075	0.553
2.43185	0.565
2.47294	0.587
2.51403	0.594
2.55513	0.606
2.59622	0.613
2.63732	0.625
2.67841	0.636
2.71951	0.638
2.7606	0.636
2.80169	0.635
2.84279	0.633
2.88388	0.638
2.92498	0.642
2.96607	0.652
3.00716	0.662
3.04826	0.666
3.08935	0.667
3.13045	0.666
3.17154	0.636
3.21263	0.583
3.25373	0.592
3.29482	0.599
3.33592	0.328
3.37701	0.022
3.4181	0.042
3.4592	0.082
3.50029	0.422
3.54139	0.671
3.58248	0.726
3.62357	0.739
3.66467	0.731
3.70576	0.741
3.74686	0.755
3.78795	0.768
3.82904	0.773
3.87014	0.801
3.91123	0.801
3.95233	0.815
3.99342	0.82
4.03452	0.823
4.07561	0.828
4.1167	0.823
4.1578	0.835
4.19889	0.835
4.23999	0.833
4.28108	0.837
4.32217	0.859
4.36327	0.857
4.40436	0.861
4.44546	0.863
4.48655	0.869
4.52764	0.871
4.56874	0.871
4.60983	0.875
4.65093	0.878
4.69202	0.88
4.73311	0.881
4.77421	0.883
4.8153	0.89
4.8564	0.89
4.89749	0.895
4.93858	0.897
4.97968	0.902
5.02077	0.904
5.06187	0.904
5.10296	0.907
5.14405	0.907
5.18515	0.905
5.22624	0.91
5.26734	0.909
5.30843	0.917
5.34953	0.919
5.39062	0.917
5.43171	0.921
5.47281	0.924
5.5139	0.924
5.555	0.921
5.59609	0.909
5.63718	0.897
5.67828	0.885
5.71937	0.902
5.76047	0.914
5.80156	0.926
5.84265	0.928
5.88375	0.926
5.92484	0.926
5.96594	0.917
6.00703	0.916
6.04812	0.916
6.08922	0.907
6.13031	0.907
6.17141	0.902
6.2125	0.904
6.25359	0.904
6.29469	0.842
6.33578	0.763
6.37688	0.739
6.41797	0.772
6.45906	0.803
6.50016	0.83
6.54125	0.851
6.58235	0.869
6.62344	0.854
6.66454	0.815
6.70563	0.712
6.74672	0.462
6.78782	0.217
6.82891	0.136
6.87001	0.215
6.9111	0.22
6.95219	0.404
6.99329	0.705
7.03438	0.797
7.07548	0.818
7.11657	0.82
7.15766	0.796
7.19876	0.703
7.23985	0.522
7.28095	0.607
7.32204	0.702
7.36313	0.731
7.40423	0.628
7.44532	0.678
7.48642	0.789
7.52751	0.77
7.5686	0.684
7.6097	0.491
7.65079	0.392
7.69189	0.777
7.73298	0.809
7.77408	0.833
7.81517	0.82
7.85626	0.78
7.89736	0.739
7.93845	0.708
7.97955	0.799
8.02064	0.768
8.06173	0.731
8.10283	0.794
8.14392	0.801
8.18502	0.69
8.22611	0.672
8.2672	0.821
8.3083	0.84
8.34939	0.849
8.39049	0.816
8.43158	0.833
8.47267	0.851
8.51377	0.839
8.55486	0.825
8.59596	0.821
8.63705	0.821
8.67814	0.808
8.71924	0.772
8.76033	0.719
8.80143	0.607
8.84252	0.681
8.88361	0.78
8.92471	0.731
8.9658	0.724
9.0069	0.813
9.04799	0.842
9.08909	0.842
9.13018	0.84
9.17127	0.789
9.21237	0.669
9.25346	0.41
9.29456	0.238
9.33565	0.589
9.37674	0.772
9.41784	0.828
9.45893	0.854
9.50003	0.869
9.54112	0.88
9.58221	0.881
9.62331	0.886
9.6644	0.892
9.7055	0.89
9.74659	0.888
9.78768	0.893
9.82878	0.898
9.86987	0.9
9.91097	0.9
9.95206	0.9
9.99315	0.905
10.0342	0.91
10.0753	0.914
10.1164	0.917
10.1575	0.914
10.1986	0.909
10.2397	0.898
10.2808	0.898
10.3219	0.898
10.363	0.898
10.4041	0.904
10.4452	0.905
10.4863	0.905
10.5274	0.888
10.5685	0.821
10.6096	0.719
10.6507	0.688
10.6918	0.789
10.7328	0.871
10.7739	0.892
10.815	0.904
10.8561	0.907
10.8972	0.909
10.9383	0.912
10.9794	0.914
11.0205	0.91
11.0616	0.888
11.1027	0.845
11.1438	0.739
11.1849	0.505
11.226	0.279
11.2671	0.429
11.3082	0.722
11.3493	0.83
11.3904	0.866
11.4314	0.839
11.4725	0.75
11.5136	0.731
11.5547	0.763
11.5958	0.738
11.6369	0.859
11.678	0.88
11.7191	0.854
11.7602	0.811
11.8013	0.796
11.8424	0.881
11.8835	0.905
11.9246	0.914
11.9657	0.919
12.0068	0.926
12.0479	0.928
12.089	0.928
12.13	0.929
12.1711	0.933
12.2122	0.931
12.2533	0.928
12.2944	0.931
12.3355	0.931
12.3766	0.929
12.4177	0.931
12.4588	0.933
12.4999	0.933
12.541	0.929
12.5821	0.929
12.6232	0.928
12.6643	0.921
12.7054	0.917
12.7465	0.912
12.7876	0.909
12.8286	0.904
12.8697	0.9
12.9108	0.892
12.9519	0.881
12.993	0.883
13.0341	0.881
13.0752	0.878
13.1163	0.859
13.1574	0.811
13.1985	0.755
13.2396	0.751
13.2807	0.779
13.3218	0.828
13.3629	0.839
13.404	0.842
13.4451	0.839
13.4862	0.83
13.5272	0.823
13.5683	0.811
13.6094	0.808
13.6505	0.803
13.6916	0.792
13.7327	0.785
13.7738	0.779
13.8149	0.768
13.856	0.748
13.8971	0.732
13.9382	0.731
13.9793	0.772
14.0204	0.787
14.0615	0.789
14.1026	0.791
14.1437	0.787
14.1847	0.782
14.2258	0.773
14.2669	0.768
14.308	0.76
14.3491	0.751
14.3902	0.75
14.4313	0.738
14.4724	0.712
14.5135	0.664
14.5546	0.628
14.5957	0.611
14.6368	0.618
14.6779	0.633
14.719	0.635
14.7601	0.621
14.8012	0.607
14.8423	0.604
14.8833	0.613
14.9244	0.623
14.9655	0.63
15.0066	0.638
15.0477	0.638
15.0888	0.63
15.1299	0.621
15.171	0.614
15.2121	0.606
15.2532	0.597
15.2943	0.592
15.3354	0.582
15.3765	0.573
15.4176	0.566
15.4587	0.556
15.4998	0.547
15.5409	0.535
15.5819	0.527
15.623	0.515
15.6641	0.498
15.7052	0.47
15.7463	0.448
15.7874	0.438
15.8285	0.429
15.8696	0.428
15.9107	0.424
