Infrared Spectrum: 4-Acetamidophenylacetonitrile
Formula: C 10 H 10 N 2 O
CAS: 25025-06-3
State: gas
Origin: EPA-IR VAPOR PHASE LIBRARY
1/CM	ABSORBANCE
551.7	0.00253
563.274	0.00276
574.848	0.00187
586.421	0.00148
597.995	0.00151
609.569	0.00166
621.143	0.00167
632.717	0.00186
644.291	0.00212
655.864	0.00218
667.438	0.00183
679.012	0.00157
690.586	0.0015
702.16	0.00142
713.734	0.0013
725.307	0.00126
736.881	0.00126
748.455	0.00133
760.029	0.00151
771.603	0.00183
783.177	0.0023
794.75	0.00296
806.324	0.00347
817.898	0.00357
829.472	0.00349
841.046	0.00275
852.619	0.00197
864.193	0.00152
875.767	0.0014
887.341	0.00146
898.915	0.00156
910.489	0.00166
922.062	0.00166
933.636	0.00165
945.21	0.0017
956.784	0.00168
968.358	0.00193
979.932	0.00261
991.505	0.00305
1003.08	0.00245
1014.65	0.00243
1026.23	0.00211
1037.8	0.00177
1049.37	0.00179
1060.95	0.0018
1072.52	0.00178
1084.1	0.00157
1095.67	0.00139
1107.24	0.0015
1118.82	0.00171
1130.39	0.00153
1141.97	0.00128
1153.54	0.00129
1165.11	0.00138
1176.69	0.0021
1188.26	0.00407
1199.83	0.00518
1211.41	0.00776
1222.98	0.00928
1234.56	0.00889
1246.13	0.00907
1257.7	0.00545
1269.28	0.00602
1280.85	0.00743
1292.42	0.00938
1304	0.01165
1315.57	0.00962
1327.15	0.00451
1338.72	0.00311
1350.29	0.00333
1361.87	0.00555
1373.44	0.00688
1385.02	0.00527
1396.59	0.00762
1408.16	0.01252
1419.74	0.00771
1431.31	0.00569
1442.88	0.00428
1454.46	0.00441
1466.03	0.00583
1477.61	0.00917
1489.18	0.01566
1500.75	0.0218
1512.33	0.03029
1523.9	0.02166
1535.48	0.00764
1547.05	0.00471
1558.62	0.00374
1570.2	0.00318
1581.77	0.00383
1593.34	0.00568
1604.92	0.00501
1616.49	0.00476
1628.07	0.00288
1639.64	0.00193
1651.21	0.00189
1662.79	0.00204
1674.36	0.00236
1685.93	0.00303
1697.51	0.00439
1709.08	0.00809
1720.66	0.01866
1732.23	0.02029
1743.8	0.01168
1755.38	0.00544
1766.95	0.00348
1778.53	0.00251
1790.1	0.00197
1801.67	0.00158
1813.25	0.00134
1824.82	0.00126
1836.39	0.00123
1847.97	0.00125
1859.54	0.00126
1871.12	0.00129
1882.69	0.00125
1894.26	0.00123
1905.84	0.00115
1917.41	0.00109
1928.99	0.00101
1940.56	0.0009273
1952.13	0.00087
1963.71	0.000875
1975.28	0.0008562
1986.85	0.000843
1998.43	0.000796
2010	0.0008118
2021.58	0.0007956
2033.15	0.0007821
2044.72	0.0007367
2056.3	0.000713
2067.87	0.0006927
2079.44	0.0006556
2091.02	0.0006148
2102.59	0.0006303
2114.17	0.0006305
2125.74	0.0006377
2137.31	0.0006309
2148.89	0.0006477
2160.46	0.0006568
2172.04	0.0006178
2183.61	0.000595
2195.18	0.0005762
2206.76	0.000576
2218.33	0.0005688
2229.9	0.0006103
2241.48	0.000644
2253.05	0.0007716
2264.63	0.0007118
2276.2	0.0006038
2287.77	0.0005796
2299.35	0.0006183
2310.92	0.0006207
2322.5	0.0006261
2334.07	0.0006322
2345.64	0.0006557
2357.22	0.0006639
2368.79	0.0006127
2380.36	0.0005717
2391.94	0.0005751
2403.51	0.0005794
2415.09	0.0005763
2426.66	0.0006038
2438.23	0.0006358
2449.81	0.0006215
2461.38	0.0006225
2472.96	0.0006278
2484.53	0.000586
2496.1	0.0006012
2507.68	0.0005855
2519.25	0.0005966
2530.82	0.0005991
2542.4	0.0005952
2553.97	0.0005969
2565.55	0.0005882
2577.12	0.000578
2588.69	0.000592
2600.27	0.0005768
2611.84	0.0005829
2623.41	0.000562
2634.99	0.0005776
2646.56	0.0005764
2658.14	0.0005418
2669.71	0.000516
2681.28	0.0005558
2692.86	0.000602
2704.43	0.0006224
2716.01	0.0006582
2727.58	0.0006066
2739.15	0.0006349
2750.73	0.0005865
2762.3	0.0005474
2773.87	0.0005805
2785.45	0.0005588
2797.02	0.0005952
2808.6	0.0005853
2820.17	0.0006535
2831.74	0.0006895
2843.32	0.0007529
2854.89	0.0007083
2866.47	0.0006763
2878.04	0.0006903
2889.61	0.0008135
2901.19	0.0009429
2912.76	0.00118
2924.33	0.00163
2935.91	0.00182
2947.48	0.00143
2959.06	0.00116
2970.63	0.0009846
2982.2	0.00109
2993.78	0.00125
3005.35	0.00141
3016.92	0.00172
3028.5	0.00266
3040.07	0.00281
3051.65	0.00215
3063.22	0.00183
3074.79	0.0014
3086.37	0.00112
3097.94	0.00106
3109.52	0.00111
3121.09	0.00101
3132.66	0.0008482
3144.24	0.000682
3155.81	0.0006259
3167.38	0.0006542
3178.96	0.0006116
3190.53	0.0006352
3202.11	0.0006184
3213.68	0.0005521
3225.25	0.0005434
3236.83	0.0005102
3248.4	0.0005825
3259.98	0.0005457
3271.55	0.0005406
3283.12	0.0005405
3294.7	0.0005277
3306.27	0.0005581
3317.84	0.0005445
3329.42	0.0006072
3340.99	0.0005889
3352.57	0.0006176
3364.14	0.0006001
3375.71	0.0006303
3387.29	0.0006856
3398.86	0.0008092
3410.43	0.0009515
3422.01	0.00116
3433.58	0.00132
3445.16	0.0016
3456.73	0.00211
3468.3	0.0021
3479.88	0.00146
3491.45	0.0009147
3503.03	0.0007439
3514.6	0.000674
3526.17	0.0006136
3537.75	0.0005853
3549.32	0.0005918
3560.89	0.0006083
3572.47	0.000544
3584.04	0.0005971
3595.62	0.0005624
3607.19	0.000547
3618.76	0.0005826
3630.34	0.0005627
3641.91	0.0005377
3653.49	0.0005546
3665.06	0.0005694
3676.63	0.0006311
3688.21	0.00059
3699.78	0.000572
3711.35	0.0005852
3722.93	0.0005529
3734.5	0.0006406
3746.08	0.000569
3757.65	0.0005397
3769.22	0.0004869
3780.8	0.0004955
3792.37	0.0005248
3803.94	0.0004951
3815.52	0.0005886
3827.09	0.0005962
3838.67	0.0005823
3850.24	0.0006063
3861.81	0.0005304
3873.39	0.0005726
3884.96	0.000585
3896.54	0.0005443
3908.11	0.0005028
3919.68	0.0005626
3931.26	0.0005562
3942.83	0.0005033
3954.4	0.0005862
3965.98	0.0005683
3977.55	0.0005821
3989.13	0.0006041
4000.7	0.0005385
