Infrared Spectrum: p-Chlorophenylacetyl chloride
Formula: C 8 H 6 Cl 2 O
CAS: 25026-34-0
State: gas
Origin: EPA-IR VAPOR PHASE LIBRARY
1/CM	ABSORBANCE
549.8	0.00245
559.445	0.00279
569.09	0.0024
578.734	0.0021356
588.379	0.0017104
598.024	0.0018536
607.669	0.0017836
617.313	0.0019766
626.958	0.002024
636.603	0.0018724
646.248	0.001601
655.893	0.0016502
665.537	0.0017998
675.182	0.0019159
684.827	0.0018705
694.472	0.001902
704.116	0.0020223
713.761	0.0017046
723.406	0.0017332
733.051	0.0018777
742.695	0.0019151
752.34	0.0019062
761.985	0.0020601
771.63	0.0019567
781.275	0.0019201
790.919	0.0019917
800.564	0.00264
810.209	0.00365
819.854	0.00478
829.498	0.00401
839.143	0.00298
848.788	0.0021694
858.433	0.0021049
868.078	0.0019498
877.722	0.0017991
887.367	0.001672
897.012	0.0016909
906.657	0.0016375
916.301	0.0017415
925.946	0.0017761
935.591	0.0019882
945.236	0.0019168
954.88	0.002088
964.525	0.0022383
974.17	0.0020668
983.815	0.0017346
993.46	0.0017373
1003.1	0.00242
1012.75	0.00371
1022.39	0.0032
1032.04	0.0020257
1041.68	0.0017156
1051.33	0.0019653
1060.97	0.0021782
1070.62	0.00242
1080.26	0.00306
1089.91	0.00464
1099.55	0.00558
1109.2	0.00454
1118.84	0.00359
1128.49	0.00288
1138.13	0.00254
1147.78	0.002327
1157.42	0.00271
1167.07	0.00392
1176.71	0.0043
1186.36	0.00317
1196	0.00248
1205.64	0.00244
1215.29	0.0021412
1224.93	0.0020449
1234.58	0.0015416
1244.22	0.001108
1253.87	0.000566
1263.51	0.00032
1273.16	0.00025
1282.8	0.00012
1292.45	0.000362
1302.09	0.000846
1311.74	0.00135036
1321.38	0.0015091
1331.03	0.0015736
1340.67	0.00159
1350.32	0.0016509
1359.96	0.0018013
1369.61	0.0019468
1379.25	0.0017241
1388.9	0.0016169
1398.54	0.0018361
1408.18	0.0019309
1417.83	0.0018791
1427.47	0.0018407
1437.12	0.001648
1446.76	0.001623
1456.41	0.0017075
1466.05	0.0019727
1475.7	0.0028
1485.34	0.00706
1494.99	0.01075
1504.63	0.0055
1514.28	0.0022746
1523.92	0.001776
1533.57	0.0015678
1543.21	0.00144175
1552.86	0.00145466
1562.5	0.0014602
1572.15	0.00145241
1581.79	0.001603
1591.44	0.0018374
1601.08	0.0017707
1610.73	0.00144605
1620.37	0.0015886
1630.01	0.0014824
1639.66	0.0014746
1649.3	0.0014756
1658.95	0.00143091
1668.59	0.00136387
1678.24	0.00143618
1687.88	0.00135678
1697.53	0.00139086
1707.17	0.0014817
1716.82	0.0015064
1726.46	0.0016219
1736.11	0.0017036
1745.75	0.0017114
1755.4	0.0018078
1765.04	0.0018712
1774.69	0.0020945
1784.33	0.00252
1793.98	0.00316
1803.62	0.0034
1813.27	0.00334
1822.91	0.00266
1832.55	0.0020606
1842.2	0.0017759
1851.84	0.0016907
1861.49	0.0017165
1871.13	0.0017752
1880.78	0.0018063
1890.42	0.0017122
1900.07	0.0016298
1909.71	0.0015823
1919.36	0.0015265
1929	0.0015326
1938.65	0.0015537
1948.29	0.0014645
1957.94	0.0015402
1967.58	0.0016115
1977.23	0.0015841
1986.87	0.0015163
1996.52	0.0015757
2006.16	0.0015606
2015.81	0.0016029
2025.45	0.0016658
2035.1	0.0018177
2044.74	0.0019361
2054.38	0.0022391
2064.03	0.00282
2073.67	0.00347
2083.32	0.00406
2092.96	0.00599
2102.61	0.01242
2112.25	0.03117
2121.9	0.06263
2131.54	0.05265
2141.19	0.01385
2150.83	0.00561
2160.48	0.00414
2170.12	0.00352
2179.77	0.00284
2189.41	0.0025
2199.06	0.00238
2208.7	0.0021983
2218.35	0.0020177
2227.99	0.0018855
2237.64	0.0017224
2247.28	0.0017146
2256.92	0.0016475
2266.57	0.0016896
2276.21	0.0016696
2285.86	0.0016272
2295.5	0.00174
2305.15	0.0017981
2314.79	0.0019726
2324.44	0.0019733
2334.08	0.0019808
2343.73	0.0017994
2353.37	0.0019243
2363.02	0.002103
2372.66	0.0019739
2382.31	0.0017353
2391.95	0.0015471
2401.6	0.0016113
2411.24	0.0015186
2420.89	0.0015381
2430.53	0.0015466
2440.18	0.001581
2449.82	0.0016275
2459.47	0.0016025
2469.11	0.0017059
2478.75	0.001738
2488.4	0.0016474
2498.04	0.0016154
2507.69	0.0015394
2517.33	0.0015101
2526.98	0.0015465
2536.62	0.001544
2546.27	0.001592
2555.91	0.0014861
2565.56	0.0015631
2575.2	0.0015938
2584.85	0.0015699
2594.49	0.0015818
2604.14	0.0015367
2613.78	0.0015116
2623.43	0.0015603
2633.07	0.001547
2642.72	0.0015203
2652.36	0.0016462
2662.01	0.0015469
2671.65	0.0016065
2681.29	0.0015696
2690.94	0.0016562
2700.58	0.001681
2710.23	0.0015824
2719.87	0.0016319
2729.52	0.001691
2739.16	0.0015073
2748.81	0.0016529
2758.45	0.0015377
2768.1	0.0016278
2777.74	0.0018103
2787.39	0.0014905
2797.03	0.0019698
2806.68	0.0015453
2816.32	0.0015992
2825.97	0.0015857
2835.61	0.0015475
2845.26	0.00177
2854.9	0.0014925
2864.55	0.0016782
2874.19	0.0014913
2883.84	0.0015841
2893.48	0.0015923
2903.12	0.0016491
2912.77	0.0014933
2922.41	0.0018126
2932.06	0.0016962
2941.7	0.0019474
2951.35	0.0016674
2960.99	0.0018642
2970.64	0.0016865
2980.28	0.0022532
2989.93	0.0017116
2999.57	0.0018918
3009.22	0.0016482
3018.86	0.0018254
3028.51	0.00243
3038.15	0.0023564
3047.8	0.0023447
3057.44	0.00247
3067.09	0.0023295
3076.73	0.002226
3086.38	0.0022517
3096.02	0.0020697
3105.67	0.0019563
3115.31	0.0017606
3124.95	0.0017114
3134.6	0.001617
3144.24	0.00145865
3153.89	0.0015291
3163.53	0.0015917
3173.18	0.0015022
3182.82	0.0016834
3192.47	0.0016295
3202.11	0.0017569
3211.76	0.0019265
3221.4	0.0019888
3231.05	0.0018374
3240.69	0.001664
3250.34	0.0016387
3259.98	0.0015223
3269.63	0.0015536
3279.27	0.0016563
3288.92	0.0017713
3298.56	0.0017774
3308.21	0.0016517
3317.85	0.0015011
3327.49	0.0015065
3337.14	0.0016048
3346.78	0.001612
3356.43	0.0015794
3366.07	0.0016311
3375.72	0.0015572
3385.36	0.0015247
3395.01	0.0015227
3404.65	0.0016755
3414.3	0.0016075
3423.94	0.0015336
3433.59	0.0015984
3443.23	0.0015238
3452.88	0.0015651
3462.52	0.001619
3472.17	0.001796
3481.81	0.0018029
3491.46	0.0017305
3501.1	0.0016615
3510.75	0.0014729
3520.39	0.00145515
3530.04	0.0015077
3539.68	0.0014895
3549.32	0.0016713
3558.97	0.0015609
3568.61	0.001627
3578.26	0.0016733
3587.9	0.00153
3597.55	0.0017039
3607.19	0.00145612
3616.84	0.0014706
3626.48	0.0015316
3636.13	0.0015195
3645.77	0.00141391
3655.42	0.0015134
3665.06	0.0014893
3674.71	0.001675
3684.35	0.0015887
3694	0.0017212
3703.64	0.0015973
3713.29	0.0015548
3722.93	0.0015836
3732.58	0.0015759
3742.22	0.00138768
3751.86	0.0015736
3761.51	0.0015062
3771.15	0.001466
3780.8	0.0015252
3790.44	0.0016897
3800.09	0.0015397
3809.73	0.0015894
3819.38	0.0015968
3829.02	0.0014331
3838.67	0.0015974
3848.31	0.0015585
3857.96	0.0015968
3867.6	0.0015977
3877.25	0.00142553
3886.89	0.00138283
3896.54	0.0015474
3906.18	0.0014944
3915.83	0.0014725
3925.47	0.00140157
3935.12	0.0015658
3944.76	0.0015728
3954.41	0.00140983
3964.05	0.0015672
3973.69	0.0015991
3983.34	0.0015863
3992.98	0.0015466
