Infrared Spectrum: PYRIMIDIN-7-OL, 5-METHYL-s-TRIAZOLO-[1,5-a]-
Formula: C6 H6 N4 O
CAS: 2503-56-2
State: SOLID (SPLIT MULL)
Melting point: 281.5 C
Class: COBLENTZ III
Instrument: DOW KBr FOREPRISM-GRATING
Instrument parameters: BLAZED AT 3.5, 12.0, 20.0 MICRON AND CHANGED AT 5.0, 7.5, 14.9 MICRON
Sampling: TRANSMISSION
Resolution: 2
Origin: DOW CHEMICAL COMPANY
1/CM	TRANSMITTANCE
382	0.8261
391	0.8296
400	0.8328
409	0.8375
418	0.8417
427	0.8465
436	0.8512
445	0.853
454	0.8511
463	0.8416
472	0.7358
481	0.2766
490	0.8585
499	0.8705
508	0.8446
517	0.6171
526	0.1007
535	0.8758
544	0.913
553	0.924
562	0.9304
571	0.9334
580	0.9334
589	0.9221
598	0.6746
607	0.95
616	0.949
625	0.8799
634	0.8971
643	0.7158
652	0.1734
661	0.4173
670	0.8275
679	0.9615
688	0.9575
697	0.9425
706	0.8574
715	0.862
724	0.8233
733	0.8449
742	0.8246
751	0.4799
760	0.8844
769	0.8812
778	0.8685
787	0.8501
796	0.8206
805	0.768
814	0.438
823	0.2812
832	0.4824
841	0.4169
850	0.3264
859	0.4581
868	0.6434
877	0.7678
886	0.8043
895	0.8165
904	0.8237
913	0.7968
922	0.2732
931	0.8193
940	0.8307
949	0.8313
958	0.6394
967	0.8348
976	0.8333
985	0.8327
994	0.8223
1003	0.7874
1012	0.6821
1021	0.5547
1030	0.8075
1039	0.7865
1048	0.7171
1057	0.7025
1066	0.8119
1075	0.8218
1084	0.8193
1093	0.8136
1102	0.8055
1111	0.7964
1120	0.7801
1129	0.7504
1138	0.6715
1147	0.5222
1156	0.5348
1165	0.6944
1174	0.6347
1183	0.5023
1192	0.024
1201	0.6447
1210	0.633
1219	0.7267
1228	0.7095
1237	0.6628
1246	0.5652
1255	0.1445
1264	0.668
1273	0.6553
1282	0.6074
1291	0.5121
1300	0.456
1309	0.4962
1318	0.3646
1327	0.4517
1336	0.4114
1345	0.6841
1354	0.7717
1363	0.7803
1372	0.7592
1381	0.6867
1390	0.5668
1399	0.6689
1408	0.328
1417	0.3393
1426	0.4832
1435	0.6835
1444	0.7144
1453	0.6407
1462	0.7004
1471	0.7078
1480	0.5706
1489	0.7064
1498	0.6687
1507	0.6022
1516	0.5338
1525	0.5277
1534	0.5495
1543	0.4802
1552	0.3688
1561	0.1754
1570	0.0561
1579	0.0566
1588	0.411
1597	0.4854
1606	0.297
1615	0.0682
1624	0.0626
1633	0.1399
1642	0.1159
1651	0.3944
1660	0.2285
1669	0.2071
1678	0.2516
1687	0.3892
1696	0.3709
1705	0.2503
1714	0.7876
1723	0.9009
1732	0.9589
1741	0.9802
1750	0.9823
1759	0.9821
1768	0.9773
1777	0.9818
1786	0.9884
1795	0.9874
1804	0.9844
1813	0.9642
1822	0.9585
1831	0.904
1840	0.98
1849	0.9806
1858	0.9725
1867	0.9712
1876	0.98
1885	0.9802
1894	0.9778
1903	0.9728
1912	0.9671
1921	0.9686
1930	0.9663
1939	0.9625
1948	0.9581
1957	0.9555
1966	0.9516
1975	0.9518
1984	0.9577
1993	0.9246
2002	0.8921
2011	0.8917
2020	0.8912
2029	0.8903
2038	0.8889
2047	0.887
2056	0.885
2065	0.8835
2074	0.8818
2083	0.8798
2092	0.8775
2101	0.8753
2110	0.8732
2119	0.8712
2128	0.8686
2137	0.8658
2146	0.8634
2155	0.8628
2164	0.8632
2173	0.8624
2182	0.8606
2191	0.8568
2200	0.8528
2209	0.8488
2218	0.8445
2227	0.84
2236	0.835
2245	0.8297
2254	0.8244
2263	0.819
2272	0.8136
2281	0.8082
2290	0.8039
2299	0.8
2308	0.8001
2317	0.8065
2326	0.806
2335	0.8037
2344	0.8018
2353	0.7998
2362	0.7972
2371	0.7948
2380	0.7891
2389	0.7822
2398	0.775
2407	0.7692
2416	0.7644
2425	0.7593
2434	0.754
2443	0.7492
2452	0.7447
2461	0.7403
2470	0.7356
2479	0.7308
2488	0.7244
2497	0.7176
2506	0.7075
2515	0.6967
2524	0.6851
2533	0.675
2542	0.6818
2551	0.6776
2560	0.6704
2569	0.6625
2578	0.6545
2587	0.6433
2596	0.6326
2605	0.6182
2614	0.6035
2623	0.5875
2632	0.5684
2641	0.5371
2650	0.5141
2659	0.5089
2668	0.5202
2677	0.5146
2686	0.4982
2695	0.4807
2704	0.4531
2713	0.4412
2722	0.4515
2731	0.4355
2740	0.4028
2749	0.3854
2758	0.3728
2767	0.3684
2776	0.3607
2785	0.3366
2794	0.309
2803	0.2978
2812	0.3043
2821	0.3225
2830	0.3582
2839	0.4276
2848	0.4487
2857	0.4034
2866	0.3728
2875	0.3472
2884	0.3307
2893	0.3302
2902	0.345
2911	0.3688
2920	0.3943
2929	0.4142
2938	0.4327
2947	0.4644
2956	0.4672
2965	0.4682
2974	0.471
2983	0.4766
2992	0.48
3001	0.4846
3010	0.4954
3019	0.5146
3028	0.5096
3037	0.5026
3046	0.5043
3055	0.5259
3064	0.5619
3073	0.5923
3082	0.6124
3091	0.608
3100	0.5991
3109	0.5617
3118	0.6845
3127	0.6858
3136	0.6799
3145	0.6796
3154	0.6833
3163	0.6894
3172	0.6992
3181	0.7119
3190	0.7255
3199	0.7371
3208	0.7442
3217	0.7547
3226	0.7657
3235	0.7721
3244	0.7701
3253	0.7668
3262	0.7647
3271	0.7633
3280	0.7674
3289	0.7721
3298	0.7765
3307	0.7788
3316	0.7801
3325	0.7808
3334	0.7811
3343	0.7807
3352	0.7794
3361	0.7775
3370	0.7753
3379	0.773
3388	0.7739
3397	0.7732
3406	0.7681
3415	0.7617
3424	0.7581
3433	0.7564
3442	0.7556
3451	0.7545
3460	0.7533
3469	0.7521
3478	0.7511
3487	0.7501
3496	0.7492
3505	0.7486
3514	0.7481
3523	0.7475
3532	0.7469
3541	0.7461
3550	0.7454
3559	0.7446
3568	0.7436
3577	0.7428
3586	0.7434
3595	0.7441
3604	0.7443
3613	0.7438
3622	0.7428
3631	0.7415
3640	0.7399
3649	0.7378
3658	0.7353
3667	0.7325
3676	0.73
3685	0.7276
3694	0.7269
3703	0.7265
3712	0.726
3721	0.7254
3730	0.7243
3739	0.7228
3748	0.7196
3757	0.7157
3766	0.7128
3775	0.7107
3784	0.7096
3793	0.7095
