Infrared Spectrum: ETHANE, 1,2-BIS(TRICHLOROSILYL)-
Formula: C2 H4 Cl6 Si2
CAS: 2504-64-5
State: SOLUTION (11% CCl4 FOR 3800-1300, 11% CS2 FOR 1300-650, AND 11% CCl4 FOR 650-240) VS SOLVENT
Melting point: 24-26 C
Boiling point: 199-200 C
Class: COBLENTZ III
Instrument: PERKIN-ELMER 521 (GRATING)
Instrument parameters: FILTERS AT 3150, 2500, 2000, 1150, 700, 410. GRATING CHANGES: 2000, 630
Sampling: TRANSMISSION
Path length: 0.011 CM, 0.011 CM, AND 0.011 CM
Resolution: 2
Origin: DOW CORNING CORP.
1/CM	TRANSMITTANCE
3826	0.8909
3817	0.8947
3808	0.8934
3799	0.8921
3790	0.8913
3781	0.891
3772	0.8925
3763	0.895
3754	0.8968
3745	0.8945
3736	0.8918
3727	0.889
3718	0.8871
3709	0.8864
3700	0.8851
3691	0.8709
3682	0.8673
3673	0.8699
3664	0.8753
3655	0.8836
3646	0.8912
3637	0.8908
3628	0.8909
3619	0.8909
3610	0.8948
3601	0.9
3592	0.894
3583	0.894
3574	0.8944
3565	0.8949
3556	0.8953
3547	0.8955
3538	0.8952
3529	0.8946
3520	0.894
3511	0.8932
3502	0.8928
3493	0.8923
3484	0.8917
3475	0.891
3466	0.8902
3457	0.8903
3448	0.8904
3439	0.8905
3430	0.8911
3421	0.8916
3412	0.8921
3403	0.8925
3394	0.8921
3385	0.8903
3376	0.8897
3367	0.8891
3358	0.8885
3349	0.8885
3340	0.889
3331	0.8893
3322	0.8895
3313	0.8893
3304	0.8891
3295	0.8893
3286	0.8896
3277	0.8898
3268	0.8899
3259	0.8899
3250	0.8899
3241	0.8897
3232	0.8895
3223	0.8892
3214	0.8888
3205	0.8884
3196	0.888
3187	0.887
3178	0.8862
3169	0.8863
3160	0.888
3151	0.89
3142	0.8912
3133	0.892
3124	0.892
3115	0.8918
3106	0.8918
3097	0.8916
3088	0.8914
3079	0.8912
3070	0.8911
3061	0.8909
3052	0.8907
3043	0.8906
3034	0.8907
3025	0.8907
3016	0.8907
3007	0.8907
2998	0.8906
2989	0.8902
2980	0.8897
2971	0.8888
2962	0.8885
2953	0.8871
2944	0.8752
2935	0.8703
2926	0.8611
2917	0.8346
2908	0.7493
2899	0.8075
2890	0.8484
2881	0.8667
2872	0.8713
2863	0.8793
2854	0.8867
2845	0.8843
2836	0.8828
2827	0.8885
2818	0.8903
2809	0.8859
2800	0.8834
2791	0.8825
2782	0.8849
2773	0.8897
2764	0.8899
2755	0.89
2746	0.8902
2737	0.8904
2728	0.8905
2719	0.8907
2710	0.8908
2701	0.8912
2692	0.8916
2683	0.8917
2674	0.8918
2665	0.8917
2656	0.8915
2647	0.8913
2638	0.8912
2629	0.891
2620	0.891
2611	0.8909
2602	0.8908
2593	0.8907
2584	0.8907
2575	0.8906
2566	0.8903
2557	0.8899
2548	0.8896
2539	0.8892
2530	0.8889
2521	0.8886
2512	0.8883
2503	0.888
2494	0.888
2485	0.8881
2476	0.8882
2467	0.8883
2458	0.8885
2449	0.8886
2440	0.8888
2431	0.8887
2422	0.8886
2413	0.8885
2404	0.8886
2395	0.8887
2386	0.889
2377	0.8893
2368	0.8896
2359	0.8898
2350	0.8901
2341	0.8903
2332	0.8906
2323	0.8908
2314	0.8908
2305	0.8908
2296	0.8908
2287	0.891
2278	0.8916
2269	0.8921
2260	0.8927
2251	0.8932
2242	0.8933
2233	0.8933
2224	0.8925
2215	0.8911
2206	0.8896
2197	0.8902
2188	0.8908
2179	0.8914
2170	0.892
2161	0.8921
2152	0.8921
2143	0.8921
2134	0.8921
2125	0.8918
2116	0.8917
2107	0.8918
2098	0.8921
2089	0.8928
2080	0.8934
2071	0.8941
2062	0.8948
2053	0.8956
2044	0.8964
2035	0.8971
2026	0.8964
2017	0.8948
2008	0.8921
1999	0.8823
1990	0.8852
1981	0.8886
1972	0.8888
1963	0.8874
1954	0.8874
1945	0.8868
1936	0.8854
1927	0.8851
1918	0.8854
1909	0.8871
1900	0.888
1891	0.8888
1882	0.8898
1873	0.8903
1864	0.8908
1855	0.8907
1846	0.8907
1837	0.8913
1828	0.8921
1819	0.8925
1810	0.8925
1801	0.8928
1792	0.8931
1783	0.8927
1774	0.8921
1765	0.8918
1756	0.8928
1747	0.8927
1738	0.8914
1729	0.886
1720	0.8852
1711	0.8852
1702	0.8881
1693	0.8899
1684	0.8899
1675	0.8893
1666	0.8885
1657	0.8878
1648	0.8889
1639	0.8904
1630	0.8887
1621	0.888
1612	0.8885
1603	0.8911
1594	0.8905
1585	0.8891
1576	0.8883
1567	0.8862
1558	0.8801
1549	0.8775
1540	0.879
1531	0.884
1522	0.8882
1513	0.8889
1504	0.8843
1495	0.8825
1486	0.8873
1477	0.8868
1468	0.882
1459	0.8887
1450	0.8891
1441	0.8888
1432	0.8892
1423	0.8896
1414	0.8848
1405	0.8535
1396	0.3362
1387	0.8007
1378	0.8524
1369	0.8521
1360	0.8763
1351	0.8832
1342	0.8853
1333	0.8889
1324	0.8914
1315	0.8914
1306	0.8886
1297	0.8878
1288	0.888
1279	0.8844
1270	0.8747
1261	0.8554
1252	0.8546
1243	0.8649
1234	0.8728
1225	0.8765
1216	0.8794
1207	0.8823
1198	0.8808
1189	0.879
1180	0.8733
1171	0.8654
1162	0.8523
1153	0.7494
1144	0.3702
1135	0.7946
1126	0.8309
1117	0.8446
1108	0.854
1099	0.8553
1090	0.8443
1081	0.8437
1072	0.8086
1063	0.1972
1054	0.7411
1045	0.8071
1036	0.8284
1027	0.848
1018	0.8592
1009	0.8591
1000	0.8732
991	0.8849
982	0.8874
973	0.8918
964	0.8957
955	0.8961
946	0.8887
937	0.8521
928	0.8691
919	0.8868
910	0.8927
901	0.8974
892	0.8999
883	0.9024
874	0.9049
865	0.9021
856	0.9028
847	0.908
838	0.9114
829	0.9005
820	0.8848
811	0.8777
802	0.8646
793	0.8664
784	0.8674
775	0.8473
766	0.8204
757	0.7269
748	0.3934
739	0.0417
730	0.3397
721	0.6134
712	0.7231
703	0.7781
694	0.7682
685	0.7401
676	0.3175
667	0.0399
658	0.3809
649	0.5912
640	0.5794
631	0.6744
622	0.7225
613	0.5555
604	0.1645
595	0
586	0.0308
577	0.1176
568	0
559	0.1909
550	0.6318
541	0.7726
532	0.82
523	0.8413
514	0.8632
505	0.8771
496	0.8878
487	0.9015
478	0.8806
469	0.8889
460	0.8512
451	0.6571
442	0.3525
433	0.8283
424	0.8865
415	0.9004
406	0.911
397	0.9073
388	0.9118
379	0.9115
370	0.9112
361	0.9096
352	0.9053
343	0.9057
334	0.908
325	0.9098
316	0.903
307	0.8805
298	0.8874
289	0.9094
280	0.9161
271	0.9204
262	0.9233
253	0.9296
244	0.9356
