Infrared Spectrum: 2-Methoxy-5-methylbenzoic acid
Formula: C 9 H 10 O 3
CAS: 25045-36-7
State: gas
Origin: EPA-IR VAPOR PHASE LIBRARY
1/CM	ABSORBANCE
549.8	0.0092638
559.445	0.0115538
569.09	0.0132038
578.734	0.0158638
588.379	0.0159938
598.024	0.0120238
607.669	0.0084538
617.313	0.0067638
626.958	0.0072238
636.603	0.0151538
646.248	0.0176638
655.893	0.0106638
665.537	0.0068538
675.182	0.0053238
684.827	0.0048738
694.472	0.0054538
704.116	0.0090538
713.761	0.0128238
723.406	0.0110538
733.051	0.0069938
742.695	0.0064938
752.34	0.0065638
761.985	0.0050038
771.63	0.0036038
781.275	0.0043938
790.919	0.0070438
800.564	0.0126038
810.209	0.0178938
819.854	0.0144438
829.498	0.0080338
839.143	0.0038638
848.788	0.0022238
858.433	0.0014638
868.078	0.0015538
877.722	0.0019038
887.367	0.0033338
897.012	0.0043838
906.657	0.0038438
916.301	0.0023938
925.946	0.0019738
935.591	0.0020838
945.236	0.0025138
954.88	0.0025738
964.525	0.0032838
974.17	0.0049338
983.815	0.0066038
993.46	0.0094838
1003.1	0.0143638
1012.75	0.0211538
1022.39	0.0256338
1032.04	0.0248338
1041.68	0.0246838
1051.33	0.0314738
1060.97	0.0289538
1070.62	0.0167438
1080.26	0.0131238
1089.91	0.0125738
1099.55	0.0096638
1109.2	0.0098638
1118.84	0.0126538
1128.49	0.0209238
1138.13	0.0354338
1147.78	0.0439438
1157.42	0.0494038
1167.07	0.0479538
1176.71	0.0357338
1186.36	0.0285038
1196	0.0211038
1205.64	0.0187438
1215.29	0.0233038
1224.93	0.0348038
1234.58	0.0487538
1244.22	0.0540038
1253.87	0.0498938
1263.51	0.0470538
1273.16	0.0475338
1282.8	0.0462338
1292.45	0.0364838
1302.09	0.0281938
1311.74	0.0255338
1321.38	0.0266138
1331.03	0.0301938
1340.67	0.0339338
1350.32	0.0363238
1359.96	0.0388438
1369.61	0.0401638
1379.25	0.0351238
1388.9	0.0280438
1398.54	0.0292338
1408.18	0.0388638
1417.83	0.0420638
1427.47	0.0311838
1437.12	0.0226338
1446.76	0.0228138
1456.41	0.0223738
1466.05	0.0239938
1475.7	0.0276638
1485.34	0.0408938
1494.99	0.0655538
1504.63	0.0576838
1514.28	0.0242738
1523.92	0.0088138
1533.57	0.0051938
1543.21	0.0040838
1552.86	0.0038538
1562.5	0.0047038
1572.15	0.0075038
1581.79	0.0103238
1591.44	0.0099338
1601.08	0.0104938
1610.73	0.0132738
1620.37	0.0102338
1630.01	0.0050138
1639.66	0.0031938
1649.3	0.0024138
1658.95	0.0021238
1668.59	0.0022738
1678.24	0.0024738
1687.88	0.0032338
1697.53	0.0047638
1707.17	0.0073738
1716.82	0.0112738
1726.46	0.0183338
1736.11	0.0332438
1745.75	0.0536138
1755.4	0.0771538
1765.04	0.125004
1774.69	0.126014
1784.33	0.0629038
1793.98	0.0252838
1803.62	0.0140538
1813.27	0.0079038
1822.91	0.0052938
1832.55	0.0043638
1842.2	0.0038238
1851.84	0.0030938
1861.49	0.0023038
1871.13	0.0018138
1880.78	0.0017838
1890.42	0.0017438
1900.07	0.0015638
1909.71	0.0013338
1919.36	0.0012038
1929	0.0012038
1938.65	0.0011038
1948.29	0.0011638
1957.94	0.0012638
1967.58	0.0013638
1977.23	0.0014438
1986.87	0.0016038
1996.52	0.0016038
2006.16	0.0016638
2015.81	0.0015338
2025.45	0.0015638
2035.1	0.0014838
2044.74	0.0013538
2054.38	0.0012338
2064.03	0.0011338
2073.67	0.000994
2083.32	0.0007421
2092.96	0.0008394
2102.61	0.0007047
2112.25	0.000724
2121.9	0.0005972
2131.54	0.0005369
2141.19	0.000447
2150.83	0.0003533
2160.48	0.000429
2170.12	0.0004431
2179.77	0.0004136
2189.41	0.0003144
2199.06	0.0004302
2208.7	0.0004074
2218.35	0.0003578
2227.99	0.0004277
2237.64	0.000536
2247.28	0.0006578
2256.92	0.000679
2266.57	0.0005787
2276.21	0.0006271
2285.86	0.0005518
2295.5	0.0005589
2305.15	0.0005275
2314.79	0.0005327
2324.44	0.0005352
2334.08	0.0005219
2343.73	0.0005369
2353.37	0.0005519
2363.02	0.0005965
2372.66	0.0006344
2382.31	0.0005024
2391.95	0.0005463
2401.6	0.0005504
2411.24	0.0004993
2420.89	0.0004124
2430.53	0.0004896
2440.18	0.0005361
2449.82	0.0005155
2459.47	0.00068
2469.11	0.0007102
2478.75	0.0006773
2488.4	0.0006556
2498.04	0.00056
2507.69	0.00067
2517.33	0.0007712
2526.98	0.0008631
2536.62	0.0006855
2546.27	0.0006945
2555.91	0.0005825
2565.56	0.0005391
2575.2	0.000553
2584.85	0.0004335
2594.49	0.0004654
2604.14	0.0004402
2613.78	0.0005738
2623.43	0.0004713
2633.07	0.0005243
2642.72	0.0006975
2652.36	0.0006162
2662.01	0.0006423
2671.65	0.0004476
2681.29	0.0006079
2690.94	0.0006193
2700.58	0.0004784
2710.23	0.0007693
2719.87	0.0008111
2729.52	0.0008894
2739.16	0.0012338
2748.81	0.0013438
2758.45	0.0012738
2768.1	0.0009771
2777.74	0.0011538
2787.39	0.0011538
2797.03	0.0013838
2806.68	0.0016338
2816.32	0.0023638
2825.97	0.0033738
2835.61	0.0060338
2845.26	0.0090238
2854.9	0.0092738
2864.55	0.0086438
2874.19	0.0089338
2883.84	0.0088438
2893.48	0.0085738
2903.12	0.0095138
2912.77	0.0115938
2922.41	0.0150738
2932.06	0.0197138
2941.7	0.0215038
2951.35	0.0202238
2960.99	0.0174238
2970.64	0.0126238
2980.28	0.0105238
2989.93	0.0096538
2999.57	0.0111038
3009.22	0.0139938
3018.86	0.0131538
3028.51	0.0119338
3038.15	0.0117338
3047.8	0.0086838
3057.44	0.0060938
3067.09	0.0054738
3076.73	0.0053538
3086.38	0.0042038
3096.02	0.0030338
3105.67	0.0023938
3115.31	0.0021638
3124.95	0.0017538
3134.6	0.0012538
3144.24	0.0014338
3153.89	0.0010838
3163.53	0.0010151
3173.18	0.0010838
3182.82	0.0012538
3192.47	0.0012038
3202.11	0.0011538
3211.76	0.0010659
3221.4	0.0011038
3231.05	0.0011938
3240.69	0.0012438
3250.34	0.0009687
3259.98	0.0013538
3269.63	0.0012838
3279.27	0.0012138
3288.92	0.0015338
3298.56	0.0018538
3308.21	0.0021138
3317.85	0.0025338
3327.49	0.0027338
3337.14	0.0032238
3346.78	0.0040938
3356.43	0.0050438
3366.07	0.0068138
3375.72	0.0089438
3385.36	0.0109938
3395.01	0.0127638
3404.65	0.0143938
3414.3	0.0158938
3423.94	0.0173338
3433.59	0.0183338
3443.23	0.0170938
3452.88	0.0144838
3462.52	0.0122838
3472.17	0.0099138
3481.81	0.0079138
3491.46	0.0061638
3501.1	0.0049038
3510.75	0.0040338
3520.39	0.0037138
3530.04	0.0032538
3539.68	0.0026038
3549.32	0.0027938
3558.97	0.0101338
3568.61	0.0210138
3578.26	0.0176038
3587.9	0.0070938
3597.55	0.0022338
3607.19	0.0011038
3616.84	0.0009949
3626.48	0.0007845
3636.13	0.0003626
3645.77	0.000369
3655.42	0.0003408
3665.06	0.0003633
3674.71	0.0003332
3684.35	0.0003208
3694	0.000326
3703.64	0.000405
3713.29	0.000412
3722.93	0.0003384
3732.58	0.0004329
3742.22	0.00011923
3751.86	0.0002757
3761.51	0.00014673
3771.15	0.0002692
3780.8	0.0004787
3790.44	0.0003073
3800.09	0.0003799
3809.73	0.00015549
3819.38	0.0004095
3829.02	0.0002721
3838.67	0.0004894
3848.31	0.0002635
3857.96	0.0004611
3867.6	0.0002102
3877.25	0.0006071
3886.89	0.0004747
3896.54	0.0002501
3906.18	0.0002327
3915.83	0.0003102
3925.47	0.000427
3935.12	0.0005425
3944.76	0.000276
3954.41	0.0003727
3964.05	0.0004047
3973.69	0.0006418
3983.34	0.0002004
3992.98	0.000551
