Infrared Spectrum: Bentazone
Formula: C 10 H 12 N 2 O 3 S
CAS: 25057-89-0
State: gas
Instrument: HP-GC/MS/IRD
Origin: NIST Mass Spectrometry Data Center
1/CM	ABSORBANCE
550	0.004422
562	0.0030492
574	0.0061644
586	0.0059136
598	0.0075328
610	0.0083644
622	0.00638
634	0.0048356
646	0.001848
658	0.001738
670	0.0025872
682	0.0044
694	0.0049764
706	0.0011176
718	0.0003916
730	0.0009636
742	0.0059708
754	0.0119988
766	0.0031636
778	0.001452
790	0.0004928
802	0
814	0.0003696
826	0.0006204
838	0.001144
850	0.0017028
862	0.0017776
874	0.0037796
886	0.0043472
898	0.0025168
910	0.0035376
922	0.0023012
934	0.0009592
946	0.0009284
958	0.0021472
970	0.0045584
982	0.0066748
994	0.00583
1006	0.0024332
1018	0.0011924
1030	0.0030404
1042	0.0022352
1054	0.0002684
1066	0.00022
1078	0.001122
1090	0.0023804
1102	0.0028688
1114	0.0053988
1126	0.0141724
1138	0.0175692
1150	0.013398
1162	0.0155672
1174	0.024552
1186	0.0313016
1198	0.0314468
1210	0.0140932
1222	0.0121704
1234	0.020152
1246	0.0216832
1258	0.010274
1270	0.0108768
1282	0.0256124
1294	0.0251988
1306	0.0118184
1318	0.0081752
1330	0.0101904
1342	0.0153604
1354	0.0129536
1366	0.0102696
1378	0.0134024
1390	0.0226424
1402	0.0374088
1414	0.0295636
1426	0.0105336
1438	0.0049544
1450	0.0073392
1462	0.0229944
1474	0.0202048
1486	0.0098824
1498	0.0043252
1510	0.0026092
1522	0.0015576
1534	0.0011968
1546	0.0012232
1558	0.001584
1570	0.002134
1582	0.0035684
1594	0.0057552
1606	0.0111232
1618	0.0080828
1630	0.0027456
1642	0.0017556
1654	0.0023232
1666	0.0038764
1678	0.0063888
1690	0.0191224
1702	0.044
1714	0.02266
1726	0.0057244
1738	0.0027104
1750	0.001562
1762	0.0008272
1774	0.0004752
1786	0.0003784
1798	0.000352
1810	0.0004356
1822	0.0004708
1834	0.0004092
1846	0.0002244
1858	0.000154
1870	7.04e-05
1882	5.72e-05
1894	0.0001144
1906	0.0001716
1918	0.000198
1930	0.0003916
1942	0.0002552
1954	0.000286
1966	0.0002596
1978	6.6e-05
1990	4.4e-05
2002	8.8e-06
2014	0
2026	1.76e-05
2038	8.8e-06
2050	3.96e-05
2062	6.16e-05
2074	9.24e-05
2086	7.92e-05
2098	0.0001012
2110	0.0001188
2122	0.00011
2134	0.0001012
2146	6.6e-05
2158	6.6e-05
2170	4.84e-05
2182	6.16e-05
2194	0.0001056
2206	9.68e-05
2218	5.72e-05
2230	0.0001012
2242	9.68e-05
2254	0.0001232
2266	0.0001452
2278	0.0001496
2290	0.0001056
2302	0.00011
2314	0.000176
2326	0.0001452
2338	0.0001408
2350	0.0001144
2362	0.0001012
2374	0.0001276
2386	0.00011
2398	8.36e-05
2410	6.16e-05
2422	5.28e-05
2434	6.16e-05
2446	9.24e-05
2458	0.0001056
2470	7.04e-05
2482	9.24e-05
2494	0.0001364
2506	0.0001408
2518	0.0001452
2530	0.0001276
2542	8.8e-05
2554	0.000154
2566	0.0002156
2578	0.0002112
2590	0.0001936
2602	9.68e-05
2614	0.000132
2626	0.0001144
2638	0.0001012
2650	7.48e-05
2662	2.2e-05
2674	2.2e-05
2686	1.76e-05
2698	1.76e-05
2710	2.64e-05
2722	0.0001056
2734	0.000154
2746	0.0001672
2758	0.0001188
2770	0.0001276
2782	0.0001408
2794	0.0001144
2806	0.000132
2818	0.0001628
2830	0.0002332
2842	0.000308
2854	0.0003608
2866	0.00066
2878	0.0013244
2890	0.002156
2902	0.0022792
2914	0.0020108
2926	0.0022924
2938	0.004026
2950	0.0057684
2962	0.0032252
2974	0.0054076
2986	0.0085668
2998	0.0034056
3010	0.0027588
3022	0.0013772
3034	0.0011132
3046	0.0014784
3058	0.0016632
3070	0.0019624
3082	0.0027192
3094	0.0022924
3106	0.0006732
3118	0.000374
3130	0.0002508
3142	0.0001936
3154	0.0001804
3166	0.0002244
3178	0.0002024
3190	0.0002112
3202	0.0001496
3214	0.00011
3226	0.0001188
3238	0.0001276
3250	9.68e-05
3262	7.92e-05
3274	0.0001056
3286	9.24e-05
3298	0.0001672
3310	0.0001452
3322	0.0001848
3334	0.0002376
3346	0.0004972
3358	0.000748
3370	0.001232
3382	0.0024068
3394	0.0074932
3406	0.0090596
3418	0.0027412
3430	0.0009328
3442	0.0005192
3454	0.0004444
3466	0.0004796
3478	0.000396
3490	0.000374
3502	0.000308
3514	0.0002772
3526	0.000154
3538	0.000132
3550	0.0001496
3562	9.24e-05
3574	0.00011
3586	5.72e-05
3598	8.36e-05
3610	8.8e-06
3622	4.4e-05
3634	7.92e-05
3646	6.16e-05
3658	0.000154
3670	6.16e-05
3682	7.92e-05
3694	5.72e-05
3706	0.0001232
3718	5.28e-05
3730	7.48e-05
3742	0.0001012
3754	7.04e-05
3766	2.64e-05
3778	0.00011
3790	8.8e-05
3802	6.16e-05
3814	8.8e-05
3826	0.000132
3838	0.0001364
