Infrared Spectrum: Phosgard B52R (Monsanto)
Formula: C14 H24 Br4 Cl4 O6 P2
CAS: 25079-53-2
State: SOLUTION (10% CCl4 FOR 2.7-7.5, 10% CS2 FOR 7.5-26 MICRON) VS SOLVENT
Class: COBLENTZ III
Instrument: DOW KBr FOREPRISM-GRATING
Instrument parameters: BLAZED AT 3.5, 12.0, 20.0 MICRON AND CHANGED AT 5.0, 7.5, 14.9 MICRON
Sampling: TRANSMISSION
Path length: 0.011 CM, 0.011 CM
Resolution: 2
Origin: DOW CHEMICAL COMPANY
1/CM	TRANSMITTANCE
3792	0.8547
3783	0.8552
3774	0.8558
3765	0.8558
3756	0.8558
3747	0.8556
3738	0.855
3729	0.8549
3720	0.8552
3711	0.8555
3702	0.8558
3693	0.8561
3684	0.8561
3675	0.8559
3666	0.8558
3657	0.8557
3648	0.8556
3639	0.8559
3630	0.8565
3621	0.857
3612	0.8575
3603	0.8581
3594	0.8588
3585	0.8596
3576	0.8604
3567	0.8615
3558	0.8627
3549	0.8639
3540	0.8653
3531	0.8666
3522	0.8681
3513	0.8692
3504	0.8702
3495	0.8711
3486	0.8718
3477	0.8723
3468	0.8724
3459	0.8724
3450	0.8725
3441	0.8725
3432	0.8725
3423	0.8716
3414	0.8698
3405	0.8675
3396	0.8653
3387	0.8635
3378	0.8624
3369	0.8612
3360	0.8597
3351	0.8584
3342	0.8584
3333	0.8586
3324	0.8598
3315	0.8616
3306	0.8635
3297	0.8659
3288	0.8683
3279	0.8713
3270	0.8746
3261	0.8768
3252	0.8786
3243	0.88
3234	0.8813
3225	0.8817
3216	0.8823
3207	0.8828
3198	0.8825
3189	0.8818
3180	0.8818
3171	0.8816
3162	0.8816
3153	0.8816
3144	0.8816
3135	0.881
3126	0.8805
3117	0.8793
3108	0.8781
3099	0.8771
3090	0.8756
3081	0.8737
3072	0.873
3063	0.8725
3054	0.8675
3045	0.8574
3036	0.8463
3027	0.8375
3018	0.8336
3009	0.834
3000	0.8336
2991	0.8176
2982	0.7831
2973	0.7635
2964	0.7414
2955	0.7275
2946	0.7299
2937	0.7538
2928	0.7687
2919	0.7735
2910	0.7912
2901	0.8153
2892	0.8307
2883	0.8408
2874	0.8438
2865	0.843
2856	0.843
2847	0.8462
2838	0.8486
2829	0.8473
2820	0.8541
2811	0.8432
2802	0.8593
2793	0.8636
2784	0.8643
2775	0.8646
2766	0.8653
2757	0.8661
2748	0.8661
2739	0.865
2730	0.8639
2721	0.8623
2712	0.8605
2703	0.8597
2694	0.859
2685	0.8584
2676	0.8582
2667	0.8578
2658	0.8578
2649	0.8583
2640	0.8592
2631	0.8608
2622	0.8618
2613	0.8627
2604	0.8635
2595	0.8642
2586	0.8643
2577	0.8643
2568	0.8643
2559	0.8644
2550	0.8647
2541	0.8648
2532	0.8651
2523	0.8651
2514	0.8651
2505	0.8651
2496	0.8651
2487	0.8651
2478	0.8651
2469	0.8651
2460	0.865
2451	0.8649
2442	0.8648
2433	0.8646
2424	0.8644
2415	0.8642
2406	0.8638
2397	0.8632
2388	0.8628
2379	0.863
2370	0.8632
2361	0.8639
2352	0.8647
2343	0.8656
2334	0.8659
2325	0.8654
2316	0.8602
2307	0.8584
2298	0.8575
2289	0.8578
2280	0.8583
2271	0.8588
2262	0.8623
2253	0.863
2244	0.8636
2235	0.8639
2226	0.8637
2217	0.8638
2208	0.865
2199	0.8665
2190	0.8694
2181	0.8758
2172	0.8808
2163	0.8744
2154	0.8753
2145	0.8753
2136	0.8748
2127	0.8751
2118	0.8755
2109	0.8757
2100	0.8752
2091	0.8741
2082	0.8736
2073	0.8732
2064	0.8731
2055	0.8728
2046	0.8724
2037	0.8718
2028	0.8716
2019	0.8714
2010	0.8703
2001	0.8694
1992	0.8656
1983	0.8675
1974	0.87
1965	0.8718
1956	0.872
1947	0.8718
1938	0.8718
1929	0.8717
1920	0.8716
1911	0.871
1902	0.8671
1893	0.8639
1884	0.8642
1875	0.8646
1866	0.8651
1857	0.8654
1848	0.8657
1839	0.8625
1830	0.8618
1821	0.8613
1812	0.8607
1803	0.8606
1794	0.8606
1785	0.861
1776	0.861
1767	0.8608
1758	0.8554
1749	0.8491
1740	0.8464
1731	0.8481
1722	0.8558
1713	0.8606
1704	0.8618
1695	0.8635
1686	0.8624
1677	0.8609
1668	0.8594
1659	0.8575
1650	0.8534
1641	0.8493
1632	0.8497
1623	0.8499
1614	0.8493
1605	0.8525
1596	0.8571
1587	0.8553
1578	0.852
1569	0.8508
1560	0.8503
1551	0.8497
1542	0.849
1533	0.8483
1524	0.8483
1515	0.8482
1506	0.8475
1497	0.8473
1488	0.8463
1479	0.8406
1470	0.8287
1461	0.7995
1452	0.7434
1443	0.5546
1434	0.4978
1425	0.5138
1416	0.7612
1407	0.7818
1398	0.7778
1389	0.7758
1380	0.7048
1371	0.7454
1362	0.7417
1353	0.7131
1344	0.7033
1335	0.6675
1326	0.6704
1317	0.7178
1308	0.7107
1299	0.5057
1290	0.3955
1281	0.3725
1272	0.3816
1263	0.3029
1254	0.2314
1245	0.1578
1236	0.3248
1227	0.451
1218	0.5407
1209	0.5673
1200	0.5571
1191	0.6347
1182	0.703
1173	0.6854
1164	0.6515
1155	0.6933
1146	0.7012
1137	0.6595
1128	0.6288
1119	0.571
1110	0.58
1101	0.5714
1092	0.4935
1083	0.4467
1074	0.3766
1065	0.3162
1056	0.2983
1047	0.2165
1038	0.2002
1029	0.1629
1020	0.124
1011	0.1119
1002	0.126
993	0.1753
984	0.2324
975	0.1554
966	0.1469
957	0.1807
948	0.3199
939	0.4264
930	0.5038
921	0.5645
912	0.6105
903	0.7108
894	0.7258
885	0.746
876	0.7251
867	0.4177
858	0.5695
849	0.6222
840	0.6938
831	0.6999
822	0.626
813	0.5587
804	0.5462
795	0.5567
786	0.5828
777	0.6151
768	0.6257
759	0.6478
750	0.6769
741	0.6861
732	0.5857
723	0.5871
714	0.6492
705	0.6662
696	0.636
687	0.7232
678	0.7278
669	0.6894
660	0.7355
651	0.7387
642	0.7371
633	0.7289
624	0.745
615	0.75
606	0.75
597	0.7449
588	0.7315
579	0.5512
570	0.5812
561	0.6222
552	0.6367
543	0.6428
534	0.6272
525	0.6231
516	0.6291
507	0.6208
498	0.6222
489	0.6241
480	0.6262
471	0.6284
462	0.6323
453	0.6439
444	0.6544
435	0.6637
426	0.6725
417	0.6771
408	0.6794
399	0.6812
