Infrared Spectrum: 5-AMINO-1-PENTANOL
Formula: C5 H13 N O
CAS: 2508-29-4
Class: COBLENTZ
Instrument: Not specified, most likely a prism, grating, or hybrid spectrometer.
Sampling: TRANSMISSION
Path length: SMEAR
Resolution: 4
Origin: TENNESSEE EASTMAN COMPANY, RESEARCH LABORATORIES
MICROMETERS	TRANSMITTANCE
2.027	0.958
2.06698	0.968
2.10696	0.968
2.14694	0.968
2.18692	0.968
2.2269	0.968
2.26687	0.954
2.30685	0.949
2.34683	0.949
2.38681	0.953
2.42679	0.954
2.46677	0.954
2.50675	0.956
2.54673	0.959
2.58671	0.961
2.62669	0.964
2.66666	0.963
2.70664	0.906
2.74662	0.769
2.7866	0.667
2.82658	0.503
2.86656	0.377
2.90654	0.259
2.94652	0.197
2.9865	0.148
3.02648	0.158
3.06645	0.152
3.10643	0.185
3.14641	0.204
3.18639	0.23
3.22637	0.289
3.26635	0.337
3.30633	0.386
3.34631	0.304
3.38629	0.14
3.42627	0.091
3.46624	0.138
3.50622	0.16
3.5462	0.366
3.58618	0.431
3.62616	0.463
3.66614	0.498
3.70612	0.538
3.7461	0.555
3.78608	0.593
3.82606	0.632
3.86603	0.658
3.90601	0.69
3.94599	0.712
3.98597	0.734
4.02595	0.764
4.06593	0.784
4.10591	0.804
4.14589	0.819
4.18587	0.824
4.22585	0.849
4.26582	0.859
4.3058	0.856
4.34578	0.852
4.38576	0.852
4.42574	0.854
4.46572	0.856
4.5057	0.861
4.54568	0.862
4.58566	0.864
4.62564	0.871
4.66561	0.872
4.70559	0.872
4.74557	0.872
4.78555	0.874
4.82553	0.874
4.86551	0.874
4.90549	0.874
4.94547	0.879
4.98545	0.881
5.02543	0.882
5.0654	0.882
5.10538	0.881
5.14536	0.882
5.18534	0.886
5.22532	0.889
5.2653	0.889
5.30528	0.891
5.34526	0.891
5.38524	0.892
5.42522	0.892
5.46519	0.892
5.50517	0.892
5.54515	0.892
5.58513	0.891
5.62511	0.891
5.66509	0.887
5.70507	0.881
5.74505	0.869
5.78503	0.847
5.82501	0.826
5.86498	0.812
5.90496	0.762
5.94494	0.742
5.98492	0.707
6.0249	0.678
6.06488	0.67
6.10486	0.66
6.14484	0.647
6.18482	0.575
6.2248	0.496
6.26477	0.479
6.30475	0.56
6.34473	0.64
6.38471	0.683
6.42469	0.719
6.46467	0.749
6.50465	0.765
6.54463	0.762
6.58461	0.754
6.62459	0.727
6.66456	0.698
6.70454	0.613
6.74452	0.556
6.7845	0.533
6.82448	0.52
6.86446	0.525
6.90444	0.556
6.94442	0.563
6.9844	0.608
7.02438	0.64
7.06435	0.667
7.10433	0.668
7.14431	0.633
7.18429	0.595
7.22427	0.58
7.26425	0.57
7.30423	0.565
7.34421	0.586
7.38419	0.596
7.42417	0.62
7.46415	0.638
7.50412	0.657
7.5441	0.67
7.58408	0.678
7.62406	0.693
7.66404	0.704
7.70402	0.719
7.744	0.732
7.78398	0.759
7.82396	0.764
7.86394	0.764
7.90391	0.77
7.94389	0.78
7.98387	0.789
8.02385	0.789
8.06383	0.789
8.10381	0.79
8.14379	0.792
8.18377	0.792
8.22375	0.792
8.26373	0.789
8.3037	0.78
8.34368	0.782
8.38366	0.78
8.42364	0.78
8.46362	0.777
8.5036	0.777
8.54358	0.76
8.58356	0.762
8.62354	0.759
8.66352	0.75
8.70349	0.739
8.74347	0.719
8.78345	0.709
8.82343	0.687
8.86341	0.662
8.90339	0.633
8.94337	0.63
8.98335	0.63
9.02333	0.633
9.06331	0.63
9.10328	0.591
9.14326	0.508
9.18324	0.436
9.22322	0.364
9.2632	0.321
9.30318	0.311
9.34316	0.299
9.38314	0.282
9.42312	0.27
9.4631	0.289
9.50307	0.314
9.54305	0.331
9.58303	0.336
9.62301	0.337
9.66299	0.351
9.70297	0.384
9.74295	0.418
9.78293	0.438
9.82291	0.446
9.86289	0.453
9.90286	0.451
9.94284	0.451
9.98282	0.453
10.0228	0.453
10.0628	0.454
10.1028	0.461
10.1427	0.473
10.1827	0.481
10.2227	0.489
10.2627	0.498
10.3027	0.498
10.3426	0.5
10.3826	0.496
10.4226	0.483
10.4626	0.468
10.5025	0.454
10.5425	0.443
10.5825	0.434
10.6225	0.421
10.6625	0.418
10.7024	0.411
10.7424	0.411
10.7824	0.411
10.8224	0.411
10.8624	0.411
10.9023	0.411
10.9423	0.411
10.9823	0.423
11.0223	0.438
11.0623	0.456
11.1022	0.471
11.1422	0.486
11.1822	0.496
11.2222	0.5
11.2622	0.5
11.3021	0.5
11.3421	0.5
11.3821	0.5
11.4221	0.5
11.462	0.5
11.502	0.511
11.542	0.53
11.582	0.543
11.622	0.548
11.6619	0.548
11.7019	0.548
11.7419	0.551
11.7819	0.553
11.8219	0.553
11.8618	0.553
11.9018	0.553
11.9418	0.555
11.9818	0.555
12.0218	0.556
12.0617	0.558
12.1017	0.556
12.1417	0.558
12.1817	0.561
12.2216	0.57
12.2616	0.575
12.3016	0.578
12.3416	0.581
12.3816	0.585
12.4215	0.585
12.4615	0.586
12.5015	0.586
12.5415	0.586
12.5815	0.586
12.6214	0.586
12.6614	0.585
12.7014	0.581
12.7414	0.581
12.7814	0.581
12.8213	0.58
12.8613	0.58
12.9013	0.578
12.9413	0.58
12.9812	0.58
13.0212	0.58
13.0612	0.58
13.1012	0.58
13.1412	0.58
13.1811	0.58
13.2211	0.58
13.2611	0.58
13.3011	0.578
13.3411	0.576
13.381	0.57
13.421	0.55
13.461	0.543
13.501	0.54
13.541	0.536
13.5809	0.531
13.6209	0.528
13.6609	0.528
13.7009	0.53
13.7408	0.533
13.7808	0.536
13.8208	0.538
13.8608	0.538
13.9008	0.54
13.9407	0.54
13.9807	0.54
14.0207	0.54
14.0607	0.54
14.1007	0.54
14.1406	0.538
14.1806	0.54
14.2206	0.538
14.2606	0.538
14.3006	0.538
14.3405	0.538
14.3805	0.54
14.4205	0.538
14.4605	0.538
14.5005	0.538
14.5404	0.536
14.5804	0.536
14.6204	0.536
14.6604	0.536
14.7003	0.536
14.7403	0.535
14.7803	0.533
14.8203	0.531
14.8603	0.53
14.9002	0.53
14.9402	0.53
14.9802	0.53
15.0202	0.528
15.0602	0.525
15.1001	0.513
15.1401	0.51
15.1801	0.511
15.2201	0.511
15.2601	0.51
15.3	0.511
15.34	0.511
15.38	0.511
15.42	0.511
15.4599	0.511
15.4999	0.51
15.5399	0.511
15.5799	0.511
15.6199	0.511
15.6598	0.511
15.6998	0.511
15.7398	0.511
15.7798	0.513
15.8198	0.513
15.8597	0.513
15.8997	0.515
15.9397	0.516
15.9797	0.52
