Infrared Spectrum: 5-Nitro-2-furoyl chloride
Formula: C 5 H 2 Cl N O 4
CAS: 25084-14-4
State: gas
Origin: EPA-IR VAPOR PHASE LIBRARY
1/CM	ABSORBANCE
549.8	0.00982
559.445	0.0078
569.09	0.00619
578.734	0.00501
588.379	0.00416
598.024	0.00463
607.669	0.00314
617.313	0.00208
626.958	0.00186
636.603	0.00167
646.248	0.0014052
655.893	0.0013498
665.537	0.00155
675.182	0.00201
684.827	0.0043
694.472	0.00529
704.116	0.00457
713.761	0.00274
723.406	0.00508
733.051	0.0112
742.695	0.01367
752.34	0.00857
761.985	0.00459
771.63	0.00513
781.275	0.00687
790.919	0.01133
800.564	0.02915
810.209	0.08656
819.854	0.11715
829.498	0.13375
839.143	0.13699
848.788	0.0873
858.433	0.04575
868.078	0.01606
877.722	0.00796
887.367	0.00599
897.012	0.00442
906.657	0.00268
916.301	0.00323
925.946	0.00372
935.591	0.00431
945.236	0.00697
954.88	0.01355
964.525	0.02595
974.17	0.03899
983.815	0.07054
993.46	0.07211
1003.1	0.02772
1012.75	0.03178
1022.39	0.02943
1032.04	0.01666
1041.68	0.0115
1051.33	0.01151
1060.97	0.01146
1070.62	0.0129
1080.26	0.01162
1089.91	0.01
1099.55	0.00897
1109.2	0.00597
1118.84	0.00525
1128.49	0.00344
1138.13	0.00407
1147.78	0.00566
1157.42	0.01465
1167.07	0.04339
1176.71	0.02967
1186.36	0.00489
1196	0.00454
1205.64	0.00583
1215.29	0.01113
1224.93	0.02781
1234.58	0.05947
1244.22	0.08967
1253.87	0.06403
1263.51	0.02441
1273.16	0.01399
1282.8	0.00897
1292.45	0.00846
1302.09	0.01105
1311.74	0.01888
1321.38	0.0366
1331.03	0.07376
1340.67	0.10221
1350.32	0.08543
1359.96	0.04632
1369.61	0.01804
1379.25	0.01463
1388.9	0.01315
1398.54	0.00764
1408.18	0.00467
1417.83	0.00438
1427.47	0.00463
1437.12	0.00464
1446.76	0.00451
1456.41	0.00459
1466.05	0.0054
1475.7	0.00795
1485.34	0.01108
1494.99	0.01138
1504.63	0.00986
1514.28	0.01052
1523.92	0.01271
1533.57	0.0244
1543.21	0.06261
1552.86	0.12129
1562.5	0.12723
1572.15	0.07741
1581.79	0.04617
1591.44	0.02935
1601.08	0.01503
1610.73	0.00995
1620.37	0.00873
1630.01	0.0076
1639.66	0.00599
1649.3	0.00514
1658.95	0.00511
1668.59	0.00592
1678.24	0.00658
1687.88	0.00597
1697.53	0.00522
1707.17	0.0047
1716.82	0.00583
1726.46	0.00716
1736.11	0.00998
1745.75	0.02174
1755.4	0.0723
1765.04	0.11382
1774.69	0.08993
1784.33	0.07843
1793.98	0.05697
1803.62	0.03137
1813.27	0.02306
1822.91	0.0223
1832.55	0.01842
1842.2	0.01063
1851.84	0.00559
1861.49	0.00392
1871.13	0.00303
1880.78	0.00189
1890.42	0.00173
1900.07	0.00179
1909.71	0.0016
1919.36	0.001256
1929	0.0011663
1938.65	0.0010537
1948.29	0.0010025
1957.94	0.0007833
1967.58	0.0008957
1977.23	0.0007129
1986.87	0.0009778
1996.52	0.0008954
2006.16	0.0009055
2015.81	0.0009065
2025.45	0.0007669
2035.1	0.0007459
2044.74	0.0008707
2054.38	0.0006853
2064.03	0.0007092
2073.67	0.0007895
2083.32	0.000825
2092.96	0.00054628
2102.61	0.0006107
2112.25	0.0006605
2121.9	0.00055778
2131.54	0.0007141
2141.19	0.0008958
2150.83	0.0006832
2160.48	0.0008265
2170.12	0.0008137
2179.77	0.0009876
2189.41	0.00131
2199.06	0.0009198
2208.7	0.000691
2218.35	0.0009117
2227.99	0.0007694
2237.64	0.00054648
2247.28	0.00053004
2256.92	0.0006883
2266.57	0.0007145
2276.21	0.000353
2285.86	0.0004128
2295.5	0.00049743
2305.15	0.0005927
2314.79	0.0006199
2324.44	0.00047562
2334.08	0.0010253
2343.73	0.000975
2353.37	0.0008657
2363.02	0.0011107
2372.66	0.0007198
2382.31	0.0006883
2391.95	0.00052513
2401.6	0.00049209
2411.24	0.00052701
2420.89	0.00054056
2430.53	0.0006056
2440.18	0.0005759
2449.82	0.0007313
2459.47	0.0009104
2469.11	0.001012
2478.75	0.0007307
2488.4	0.0010158
2498.04	0.000697
2507.69	0.00054693
2517.33	0.0004415
2526.98	0.000717
2536.62	0.0008779
2546.27	0.0007204
2555.91	0.0008288
2565.56	0.0007327
2575.2	0.0003944
2584.85	0.0006179
2594.49	0.00057367
2604.14	0.0008539
2613.78	0.0009532
2623.43	0.0009221
2633.07	0.0014124
2642.72	0.00188
2652.36	0.0028
2662.01	0.0024
2671.65	0.00155
2681.29	0.0014278
2690.94	0.00171
2700.58	0.00225
2710.23	0.00279
2719.87	0.00375
2729.52	0.00359
2739.16	0.00217
2748.81	0.00178
2758.45	0.00127
2768.1	0.0009859
2777.74	0.0011394
2787.39	0.001136
2797.03	0.00151
2806.68	0.0012119
2816.32	0.0013805
2825.97	0.0009033
2835.61	0.0011535
2845.26	0.0010278
2854.9	0.0011014
2864.55	0.0015
2874.19	0.00188
2883.84	0.00246
2893.48	0.00272
2903.12	0.00258
2912.77	0.00201
2922.41	0.00183
2932.06	0.00161
2941.7	0.00135
2951.35	0.0012398
2960.99	0.00166
2970.64	0.00194
2980.28	0.00172
2989.93	0.0008516
2999.57	0.0005893
3009.22	0.000732
3018.86	0.0008506
3028.51	0.000876
3038.15	0.0006467
3047.8	0.0005571
3057.44	0.0009664
3067.09	0.0006568
3076.73	0.0009745
3086.38	0.00056604
3096.02	0.0011254
3105.67	0.0007269
3115.31	0.0008812
3124.95	0.0012094
3134.6	0.00214
3144.24	0.00361
3153.89	0.00433
3163.53	0.00401
3173.18	0.00261
3182.82	0.0014389
3192.47	0.000414
3202.11	0.000123
3211.76	0.0005818
3221.4	0.0008356
3231.05	0.0006348
3240.69	0.0011704
3250.34	0.0009095
3259.98	0.0008579
3269.63	0.001005
3279.27	0.0007017
3288.92	0.00049553
3298.56	0.00055945
3308.21	0.00050172
3317.85	0.000378
3327.49	0.000329
3337.14	9.6e-05
3346.78	0.0003827
3356.43	0.0004367
3366.07	0.000323
3375.72	0.0004488
3385.36	0.0003886
3395.01	0.0006398
3404.65	0.000719
3414.3	0.0008973
3423.94	0.0008043
3433.59	0.0008295
3443.23	0.0009231
3452.88	0.0009571
3462.52	0.0008503
3472.17	0.0012284
3481.81	0.0009026
3491.46	0.0011001
3501.1	0.00154
3510.75	0.00168
3520.39	0.001433
3530.04	0.0013364
3539.68	0.0011924
3549.32	0.00193
3558.97	0.00152
3568.61	0.0012635
3578.26	0.0008455
3587.9	0.0007996
3597.55	0.0009756
3607.19	0.0007084
3616.84	0.00050722
3626.48	0.00051583
3636.13	0.000153
3645.77	0.0008095
3655.42	0.0009134
3665.06	0.0009318
3674.71	0.00052395
3684.35	0.0005393
3694	0.0006092
3703.64	0.000371
3713.29	0.0004275
3722.93	0.0004514
3732.58	0.0008244
3742.22	0.000325
3751.86	0.0008087
3761.51	0.0008569
3771.15	0.0009724
3780.8	0.0004473
3790.44	0.000265
3800.09	0.0009812
3809.73	0.000356
3819.38	0.00057104
3829.02	0.0004018
3838.67	0.00056035
3848.31	0.0004285
3857.96	0.0004062
3867.6	0.00055365
3877.25	0.0006107
3886.89	0.0009023
3896.54	0.0006237
3906.18	0.0007058
3915.83	0.0008767
3925.47	0.0004333
3935.12	0.00053284
3944.76	0.0007153
3954.41	0.0007904
3964.05	0.0009077
3973.69	0.000663
3983.34	0.0006617
3992.98	0.0006
