Infrared Spectrum: 2,3-Diphenylacrylonitrile
Formula: C 15 H 11 N
CAS: 2510-95-4
State: gas
Origin: EPA-IR VAPOR PHASE LIBRARY
1/CM	ABSORBANCE
549.8	0.002175
559.445	0.002385
569.09	0.004885
578.734	0.012945
588.379	0.006745
598.024	0.002795
607.669	0.002345
617.313	0.002945
626.958	0.002605
636.603	0.003125
646.248	0.003785
655.893	0.005435
665.537	0.013445
675.182	0.028095
684.827	0.050915
694.472	0.053295
704.116	0.032085
713.761	0.021195
723.406	0.018585
733.051	0.019455
742.695	0.024085
752.34	0.036675
761.985	0.041665
771.63	0.023875
781.275	0.012485
790.919	0.007275
800.564	0.004305
810.209	0.003195
819.854	0.003015
829.498	0.003555
839.143	0.002095
848.788	0.001985
858.433	0.002495
868.078	0.004005
877.722	0.005945
887.367	0.007195
897.012	0.005725
906.657	0.006305
916.301	0.008115
925.946	0.007135
935.591	0.004195
945.236	0.002685
954.88	0.002325
964.525	0.002285
974.17	0.003155
983.815	0.005175
993.46	0.005605
1003.1	0.007455
1012.75	0.003335
1022.39	0.004575
1032.04	0.007885
1041.68	0.002985
1051.33	0.002495
1060.97	0.003425
1070.62	0.004975
1080.26	0.004415
1089.91	0.002895
1099.55	0.002775
1109.2	0.001475
1118.84	0.0011007
1128.49	0.0007818
1138.13	0.0009208
1147.78	0.0009543
1157.42	0.001465
1167.07	0.001235
1176.71	0.002985
1186.36	0.008015
1196	0.003625
1205.64	0.001855
1215.29	0.002055
1224.93	0.003545
1234.58	0.003655
1244.22	0.004965
1253.87	0.008295
1263.51	0.003245
1273.16	0.001865
1282.8	0.001745
1292.45	0.002225
1302.09	0.002525
1311.74	0.002315
1321.38	0.002595
1331.03	0.003575
1340.67	0.003745
1350.32	0.005335
1359.96	0.004625
1369.61	0.003375
1379.25	0.002995
1388.9	0.002185
1398.54	0.001805
1408.18	0.001675
1417.83	0.002255
1427.47	0.003655
1437.12	0.006615
1446.76	0.013905
1456.41	0.012215
1466.05	0.005205
1475.7	0.004495
1485.34	0.010295
1494.99	0.019355
1504.63	0.014125
1514.28	0.004735
1523.92	0.002725
1533.57	0.002065
1543.21	0.001795
1552.86	0.001955
1562.5	0.002675
1572.15	0.004135
1581.79	0.005245
1591.44	0.008375
1601.08	0.009915
1610.73	0.004955
1620.37	0.002685
1630.01	0.001945
1639.66	0.002075
1649.3	0.002455
1658.95	0.002835
1668.59	0.002855
1678.24	0.002195
1687.88	0.001635
1697.53	0.001415
1707.17	0.001465
1716.82	0.001785
1726.46	0.002195
1736.11	0.002745
1745.75	0.003015
1755.4	0.002855
1765.04	0.002915
1774.69	0.003425
1784.33	0.004045
1793.98	0.006025
1803.62	0.003755
1813.27	0.002295
1822.91	0.001905
1832.55	0.001755
1842.2	0.001895
1851.84	0.001945
1861.49	0.002295
1871.13	0.003025
1880.78	0.003315
1890.42	0.003855
1900.07	0.002795
1909.71	0.001785
1919.36	0.001775
1929	0.002535
1938.65	0.003665
1948.29	0.004315
1957.94	0.005125
1967.58	0.003265
1977.23	0.0011505
1986.87	0.0007862
1996.52	0.0007229
2006.16	0.0006289
2015.81	0.0005757
2025.45	0.0006472
2035.1	0.0005974
2044.74	0.0004704
2054.38	0.0005907
2064.03	0.0005549
2073.67	0.0005238
2083.32	0.000497
2092.96	0.0005308
2102.61	0.0004626
2112.25	0.0004965
2121.9	0.0004606
2131.54	0.000457
2141.19	0.0004352
2150.83	0.0005516
2160.48	0.0005628
2170.12	0.0007042
2179.77	0.0007803
2189.41	0.0008365
2199.06	0.001265
2208.7	0.003425
2218.35	0.006835
2227.99	0.002855
2237.64	0.0009577
2247.28	0.0008755
2256.92	0.0007488
2266.57	0.0008522
2276.21	0.0007001
2285.86	0.0006972
2295.5	0.0006464
2305.15	0.0007285
2314.79	0.001415
2324.44	0.001355
2334.08	0.0008797
2343.73	0.0011235
2353.37	0.001095
2363.02	0.0009119
2372.66	0.0008262
2382.31	0.0006872
2391.95	0.0006181
2401.6	0.0005127
2411.24	0.0005695
2420.89	0.0006169
2430.53	0.0006348
2440.18	0.000578
2449.82	0.0005842
2459.47	0.0005512
2469.11	0.000502
2478.75	0.0004742
2488.4	0.0005232
2498.04	0.0006052
2507.69	0.0005778
2517.33	0.0005773
2526.98	0.0005742
2536.62	0.0006381
2546.27	0.0005843
2555.91	0.0006203
2565.56	0.0006836
2575.2	0.000755
2584.85	0.0007287
2594.49	0.0009809
2604.14	0.00101
2613.78	0.0007808
2623.43	0.0006626
2633.07	0.0006557
2642.72	0.0005988
2652.36	0.0004412
2662.01	0.0005873
2671.65	0.0004331
2681.29	0.0004713
2690.94	0.0003319
2700.58	0.0005401
2710.23	0.0004417
2719.87	0.000438
2729.52	0.0004293
2739.16	0.0005606
2748.81	0.0004882
2758.45	0.0005747
2768.1	0.0004606
2777.74	0.0007243
2787.39	0.0009074
2797.03	0.0008053
2806.68	0.0006419
2816.32	0.0007089
2825.97	0.0007282
2835.61	0.0010686
2845.26	0.001315
2854.9	0.0011303
2864.55	0.0009851
2874.19	0.0009272
2883.84	0.0011085
2893.48	0.001325
2903.12	0.0010747
2912.77	0.0011242
2922.41	0.001255
2932.06	0.001415
2941.7	0.001585
2951.35	0.001495
2960.99	0.001415
2970.64	0.001645
2980.28	0.001875
2989.93	0.002135
2999.57	0.003195
3009.22	0.005485
3018.86	0.010885
3028.51	0.024975
3038.15	0.029205
3047.8	0.017565
3057.44	0.023185
3067.09	0.047485
3076.73	0.046755
3086.38	0.024895
3096.02	0.019525
3105.67	0.013845
3115.31	0.007435
3124.95	0.003125
3134.6	0.002065
3144.24	0.001995
3153.89	0.001645
3163.53	0.0010694
3173.18	0.0007155
3182.82	0.0009209
3192.47	0.0008284
3202.11	0.0008941
3211.76	0.000785
3221.4	0.0004861
3231.05	0.0006196
3240.69	0.0004984
3250.34	0.0005211
3259.98	0.0003526
3269.63	0.00025383
3279.27	0.0003943
3288.92	0.0001847
3298.56	0.00024069
3308.21	0.0004785
3317.85	7.8e-05
3327.49	0.000358
3337.14	0.00027969
3346.78	0.00029331
3356.43	0.0003818
3366.07	0.0004038
3375.72	0.00025918
3385.36	0.00022103
3395.01	0.00028766
3404.65	0.0004225
3414.3	0.0002415
3423.94	0.0003445
3433.59	0.000225627
3443.23	0.000414
3452.88	0.000349
3462.52	0.0003517
3472.17	0.00033
3481.81	0
3491.46	0.0005302
3501.1	0.00030866
3510.75	0.00028826
3520.39	0.0003514
3530.04	9.8e-05
3539.68	0.00022043
3549.32	0.00032311
3558.97	0.000343
3568.61	0.0001
3578.26	0.0003467
3587.9	0.00031399
3597.55	0.00029456
3607.19	0.0004521
3616.84	0.0004084
3626.48	0.0003671
3636.13	0.0006007
3645.77	0.0006708
3655.42	0.0005916
3665.06	0.0004081
3674.71	0.0004352
3684.35	0.00072
3694	0.0007107
3703.64	0.0006902
3713.29	0.0004912
3722.93	0.0005432
3732.58	0.0005211
3742.22	0.0004959
3751.86	0.0004049
3761.51	0.000379
3771.15	0.00028343
3780.8	0.0004316
3790.44	0.0003587
3800.09	0.0005139
3809.73	0.0005909
3819.38	0.0003672
3829.02	0.0004756
3838.67	0.00025596
3848.31	0.0003531
3857.96	0.0003775
3867.6	0.0001436
3877.25	0.0003816
3886.89	0.0004891
3896.54	0.000554
3906.18	0.0006051
3915.83	0.0006465
3925.47	0.0004823
3935.12	0.0004117
3944.76	0.0003581
3954.41	0.0002107
3964.05	0.000230293
3973.69	0.0003377
3983.34	0.0004396
3992.98	0.000595
