Infrared Spectrum: Ethyl-.beta.-phenyl propionate
Formula: C 11 H 14 O 2
CAS: 2510-99-8
State: gas
Origin: EPA-IR VAPOR PHASE LIBRARY
1/CM	ABSORBANCE
501.5	0.0035824
513.074	0.0026624
524.648	0.0018224
536.222	0.0019624
547.796	0.0034524
559.37	0.0049524
570.944	0.0026124
582.518	0.0019624
594.092	0.0019124
605.666	0.0017624
617.24	0.0015924
628.814	0.0017024
640.388	0.0020924
651.962	0.0025124
663.536	0.0037324
675.11	0.0073724
686.684	0.0151624
698.258	0.0243124
709.832	0.0161824
721.406	0.0114324
732.98	0.0124824
744.554	0.0153924
756.128	0.0102824
767.702	0.0067824
779.276	0.0050924
790.85	0.0041324
802.423	0.0032924
813.997	0.0026124
825.571	0.0024324
837.145	0.0030024
848.719	0.0042924
860.293	0.0047924
871.867	0.0038524
883.441	0.0028524
895.015	0.0027224
906.589	0.0028224
918.163	0.0030724
929.737	0.0041824
941.311	0.0056024
952.885	0.0053824
964.459	0.0043124
976.033	0.0037424
987.607	0.0039424
999.181	0.0059724
1010.76	0.0099724
1022.33	0.0165324
1033.9	0.0275824
1045.48	0.0323524
1057.05	0.0222424
1068.63	0.0167824
1080.2	0.0152024
1091.77	0.0167624
1103.35	0.0193124
1114.92	0.0200024
1126.49	0.0286724
1138.07	0.0515924
1149.64	0.0775224
1161.22	0.0834224
1172.79	0.0707824
1184.36	0.0587624
1195.94	0.0537324
1207.51	0.0501524
1219.09	0.0505824
1230.66	0.0523824
1242.23	0.0505424
1253.81	0.0425224
1265.38	0.0326624
1276.96	0.0280124
1288.53	0.0260124
1300.1	0.0236824
1311.68	0.0199624
1323.25	0.0162424
1334.83	0.0171024
1346.4	0.0210224
1357.97	0.0190324
1369.55	0.0234524
1381.12	0.0191224
1392.7	0.0111224
1404.27	0.0087724
1415.84	0.0086124
1427.42	0.0112624
1438.99	0.0137224
1450.57	0.0156724
1462.14	0.0136624
1473.71	0.0106524
1485.29	0.0093624
1496.86	0.0135024
1508.44	0.0060524
1520.01	0.0029424
1531.58	0.0024424
1543.16	0.0022024
1554.73	0.0021424
1566.31	0.0023024
1577.88	0.0028424
1589.45	0.0043624
1601.03	0.0066724
1612.6	0.0046824
1624.18	0.0022324
1635.75	0.0019224
1647.32	0.0020824
1658.9	0.0022824
1670.47	0.0026624
1682.05	0.0035324
1693.62	0.0053924
1705.19	0.0088524
1716.77	0.0143624
1728.34	0.0273724
1739.92	0.0651924
1751.49	0.110142
1763.06	0.0817024
1774.64	0.0325724
1786.21	0.0140024
1797.79	0.0084124
1809.36	0.0050324
1820.93	0.0033524
1832.51	0.0024724
1844.08	0.0022024
1855.66	0.0022524
1867.23	0.0024424
1878.8	0.0024224
1890.38	0.0018824
1901.95	0.0015824
1913.53	0.0016424
1925.1	0.0019724
1936.67	0.0023324
1948.25	0.0024224
1959.82	0.0017824
1971.4	0.0012024
1982.97	0.0011524
1994.54	0.0011524
2006.12	0.0011124
2017.69	0.0009999
2029.27	0.0009215
2040.84	0.0008407
2052.41	0.0008282
2063.99	0.0007844
2075.56	0.0008043
2087.14	0.0007864
2098.71	0.0007216
2110.28	0.0005793
2121.86	0.0005154
2133.43	0.0004833
2145.01	0.000448
2156.58	0.0004503
2168.15	0.0004078
2179.73	0.0004104
2191.3	0.0003774
2202.88	0.0004005
2214.45	0.0003743
2226.02	0.0003706
2237.6	0.0003323
2249.17	0.0003433
2260.74	0.0003827
2272.32	0.0003707
2283.89	0.0004198
2295.47	0.0004751
2307.04	0.0005754
2318.61	0.0006705
2330.19	0.0006272
2341.76	0.0005951
2353.34	0.0005261
2364.91	0.0004734
2376.48	0.000434
2388.06	0.0003717
2399.63	0.0003671
2411.21	0.0003575
2422.78	0.0003686
2434.35	0.0003256
2445.93	0.0002934
2457.5	0.0002929
2469.08	0.0002663
2480.65	0.0002288
2492.22	0.000158
2503.8	0.0001512
2515.37	0.00012125
2526.95	0.0001715
2538.52	0.0001635
2550.09	0.000134
2561.67	0.00011916
2573.24	0.0001854
2584.82	0.0002454
2596.39	0.0003047
2607.96	0.0003368
2619.54	0.0002996
2631.11	0.0002563
2642.69	0.0002554
2654.26	0.0002503
2665.83	0.0002392
2677.41	0.000231
2688.98	0.0002276
2700.56	0.0002456
2712.13	0.0002643
2723.7	0.0003328
2735.28	0.0003754
2746.85	0.0005056
2758.43	0.00051
2770	0.0007183
2781.57	0.0009705
2793.15	0.0010324
2804.72	0.0010824
2816.3	0.0012624
2827.87	0.0017124
2839.44	0.0023124
2851.02	0.0033024
2862.59	0.0051724
2874.17	0.0069824
2885.74	0.0079524
2897.31	0.0085224
2908.89	0.0112624
2920.46	0.0156424
2932.04	0.0217724
2943.61	0.0259824
2955.18	0.0225124
2966.76	0.0226324
2978.33	0.0294424
2989.91	0.0310324
3001.48	0.0202824
3013.05	0.0159424
3024.63	0.0182424
3036.2	0.0217524
3047.78	0.0138924
3059.35	0.0132624
3070.92	0.0196124
3082.5	0.0132024
3094.07	0.0090724
3105.65	0.0060424
3117.22	0.0035024
3128.79	0.0015924
3140.37	0.0010172
3151.94	0.0008389
3163.52	0.0007121
3175.09	0.0005442
3186.66	0.0004267
3198.24	0.0003506
3209.81	0.000252
3221.39	0.0002199
3232.96	0.0001271
3244.53	0.00010105
3256.11	7.321e-05
3267.68	5.241e-05
3279.26	6.473e-05
3290.83	1.926e-05
3302.4	3.844e-05
3313.98	5.46e-05
3325.55	8.494e-05
3337.13	5.013e-05
3348.7	4.885e-05
3360.27	8.921e-05
3371.85	6.618e-05
3383.42	8.319e-05
3395	8.365e-05
3406.57	7.142e-05
3418.14	0.00011768
3429.72	0.0002108
3441.29	0.0003058
3452.86	0.0003891
3464.44	0.000555
3476.01	0.0009559
3487.59	0.0012224
3499.16	0.000985
3510.73	0.0006433
3522.31	0.0003454
3533.88	0.0002684
3545.46	0.0002284
3557.03	0.0001269
3568.6	3.805e-05
3580.18	7.855e-05
3591.75	8.881e-05
3603.33	8.475e-05
3614.9	0.00012085
3626.47	8.526e-05
3638.05	0.0001391
3649.62	0.000214
3661.2	0.0001541
3672.77	0.000195
3684.34	0.0001516
3695.92	0.0001856
3707.49	0.00011101
3719.07	0.0002122
3730.64	0.0001347
3742.21	0.0001891
3753.79	0.0001692
3765.36	0.0001531
3776.94	0.0002413
3788.51	0.0001971
3800.08	0.0001741
3811.66	0.0002633
3823.23	0.0002203
3834.81	0.000212
3846.38	0.0001446
3857.95	0.0002413
3869.53	0.0001898
3881.1	0.0002369
3892.68	0.000231
3904.25	0.0002062
3915.82	0.0001657
3927.4	0.0002299
3938.97	0.0002268
3950.55	0.0001564
3962.12	0.0002353
3973.69	0.0001483
3985.27	0.000304
3996.84	0.0003161
