Infrared Spectrum: Isooctyl thioglycolate
Formula: C 10 H 20 O 2 S
CAS: 25103-09-7
State: gas
Origin: EPA-IR VAPOR PHASE LIBRARY
1/CM	ABSORBANCE
501.5	0.0005094
513.074	0.0002949
524.648	0.0006193
536.222	0.0005235
547.796	0.000881
559.37	0.00144
570.944	0.00198
582.518	0.00227
594.092	0.00185
605.666	0.00134
617.24	0.0007533
628.814	0.0005415
640.388	0.0005739
651.962	0.0007074
663.536	0.00105
675.11	0.00157
686.684	0.00215
698.258	0.00273
709.832	0.00264
721.406	0.00246
732.98	0.00233
744.554	0.00239
756.128	0.00216
767.702	0.00196
779.276	0.00175
790.85	0.00158
802.423	0.00151
813.997	0.00169
825.571	0.00191
837.145	0.0022
848.719	0.00238
860.293	0.00265
871.867	0.00289
883.441	0.00313
895.015	0.00325
906.589	0.0033
918.163	0.00376
929.737	0.00455
941.311	0.00545
952.885	0.00705
964.459	0.00963
976.033	0.01321
987.607	0.01573
999.181	0.01718
1010.76	0.01855
1022.33	0.01776
1033.9	0.0165
1045.48	0.01493
1057.05	0.01315
1068.63	0.01127
1080.2	0.00936
1091.77	0.01
1103.35	0.01497
1114.92	0.02548
1126.49	0.04322
1138.07	0.06854
1149.64	0.07572
1161.22	0.06313
1172.79	0.0472
1184.36	0.0337
1195.94	0.02757
1207.51	0.02795
1219.09	0.03288
1230.66	0.0393
1242.23	0.04301
1253.81	0.05157
1265.38	0.06899
1276.96	0.07162
1288.53	0.06401
1300.1	0.04517
1311.68	0.02544
1323.25	0.01524
1334.83	0.01056
1346.4	0.00866
1357.97	0.00872
1369.55	0.01156
1381.12	0.01584
1392.7	0.01311
1404.27	0.00824
1415.84	0.0123
1427.42	0.01219
1438.99	0.0096
1450.57	0.01294
1462.14	0.01787
1473.71	0.01533
1485.29	0.00776
1496.86	0.00406
1508.44	0.00271
1520.01	0.00213
1531.58	0.00184
1543.16	0.00162
1554.73	0.0015
1566.31	0.00143
1577.88	0.00137
1589.45	0.00132
1601.03	0.00124
1612.6	0.00126
1624.18	0.00125
1635.75	0.00128
1647.32	0.00144
1658.9	0.00167
1670.47	0.00205
1682.05	0.00273
1693.62	0.00407
1705.19	0.00692
1716.77	0.01226
1728.34	0.02328
1739.92	0.04868
1751.49	0.09513
1763.06	0.08385
1774.64	0.03582
1786.21	0.0158
1797.79	0.00799
1809.36	0.00461
1820.93	0.00297
1832.51	0.00213
1844.08	0.00172
1855.66	0.0015
1867.23	0.00134
1878.8	0.00122
1890.38	0.00112
1901.95	0.00103
1913.53	0.0009458
1925.1	0.0008924
1936.67	0.0008379
1948.25	0.0008258
1959.82	0.0008323
1971.4	0.0008557
1982.97	0.0008712
1994.54	0.0008416
2006.12	0.000837
2017.69	0.0008554
2029.27	0.0008191
2040.84	0.0008149
2052.41	0.0007495
2063.99	0.000725
2075.56	0.0006501
2087.14	0.0006218
2098.71	0.0006122
2110.28	0.0006075
2121.86	0.0006045
2133.43	0.0006171
2145.01	0.0006025
2156.58	0.0005567
2168.15	0.0005528
2179.73	0.0005386
2191.3	0.0004995
2202.88	0.0004666
2214.45	0.0004358
2226.02	0.0004202
2237.6	0.000416
2249.17	0.0004206
2260.74	0.0004108
2272.32	0.0004575
2283.89	0.0004633
2295.47	0.0004574
2307.04	0.0004649
2318.61	0.0004707
2330.19	0.0004666
2341.76	0.0004997
2353.34	0.0005019
2364.91	0.0004861
2376.48	0.0005165
2388.06	0.0005422
2399.63	0.0005593
2411.21	0.0005492
2422.78	0.0005774
2434.35	0.000496
2445.93	0.0004758
2457.5	0.0004694
2469.08	0.0004351
2480.65	0.0004308
2492.22	0.00046
2503.8	0.00048
2515.37	0.0004849
2526.95	0.0005315
2538.52	0.0005032
2550.09	0.0005738
2561.67	0.0006683
2573.24	0.0008146
2584.82	0.00126
2596.39	0.00182
2607.96	0.00124
2619.54	0.00112
2631.11	0.001
2642.69	0.00104
2654.26	0.00109
2665.83	0.00112
2677.41	0.0012
2688.98	0.00126
2700.56	0.00133
2712.13	0.00139
2723.7	0.00164
2735.28	0.00199
2746.85	0.00211
2758.43	0.00209
2770	0.00205
2781.57	0.00217
2793.15	0.00254
2804.72	0.00313
2816.3	0.00396
2827.87	0.00525
2839.44	0.00749
2851.02	0.01288
2862.59	0.0221
2874.17	0.0355
2885.74	0.04358
2897.31	0.03801
2908.89	0.04124
2920.46	0.05168
2932.04	0.06345
2943.61	0.06728
2955.18	0.07536
2966.76	0.10619
2978.33	0.07209
2989.91	0.03205
3001.48	0.01443
3013.05	0.00797
3024.63	0.00534
3036.2	0.00397
3047.78	0.00309
3059.35	0.0026
3070.92	0.00227
3082.5	0.00203
3094.07	0.00184
3105.65	0.00165
3117.22	0.00147
3128.79	0.00137
3140.37	0.00137
3151.94	0.00128
3163.52	0.00126
3175.09	0.00109
3186.66	0.0009619
3198.24	0.0007534
3209.81	0.0006352
3221.39	0.0004786
3232.96	0.0003886
3244.53	0.0003027
3256.11	0.0002515
3267.68	0.0002851
3279.26	0.0001673
3290.83	0.0001574
3302.4	0.0001453
3313.98	0.0001871
3325.55	0.000124
3337.13	0.0002324
3348.7	0.0001225
3360.27	0.0001637
3371.85	0.0001565
3383.42	0.0001826
3395	0.0002144
3406.57	0.00018
3418.14	0.000184
3429.72	0.0002421
3441.29	0.0002878
3452.86	0.0003727
3464.44	0.0004832
3476.01	0.0007367
3487.59	0.00104
3499.16	0.00106
3510.73	0.0008133
3522.31	0.0005818
3533.88	0.000357
3545.46	0.0002983
3557.03	0.0001483
3568.6	0.0002005
3580.18	0.0002399
3591.75	0.0001593
3603.33	9.631e-05
3614.9	8.479e-05
3626.47	0.0001189
3638.05	6.635e-05
3649.62	8.97e-05
3661.2	2.135e-05
3672.77	0.0001167
3684.34	8.363e-05
3695.92	9.724e-05
3707.49	0.0001171
3719.07	0.0001488
3730.64	0.0001002
3742.21	0.0001521
3753.79	0.0002453
3765.36	0.0001538
3776.94	0.0001777
3788.51	0.0001651
3800.08	0.0002246
3811.66	0.0002626
3823.23	0.0001777
3834.81	0.0001654
3846.38	0.0002092
3857.95	0.0002206
3869.53	0.0001685
3881.1	0.0001903
3892.68	0.0003236
3904.25	0.0001576
3915.82	0.0002585
3927.4	0.0002493
3938.97	0.0002985
3950.55	0.0002625
3962.12	0.0002707
3973.69	0.0001928
3985.27	0.0002713
3996.84	0.0003395
