Infrared Spectrum: 3,5-Dimethylisoxazole-4-carboxylic acid
Formula: C 6 H 7 N O 3
CAS: 2510-36-3
State: gas
Origin: EPA-IR VAPOR PHASE LIBRARY
1/CM	ABSORBANCE
549.8	0.039951
559.445	0.043621
569.09	0.028371
578.734	0.021611
588.379	0.015561
598.024	0.008481
607.669	0.004971
617.313	0.004021
626.958	0.003161
636.603	0.002621
646.248	0.002841
655.893	0.005221
665.537	0.010891
675.182	0.010451
684.827	0.014071
694.472	0.039351
704.116	0.047591
713.761	0.030011
723.406	0.006191
733.051	0.002801
742.695	0.002631
752.34	0.003661
761.985	0.007031
771.63	0.013321
781.275	0.024541
790.919	0.012461
800.564	0.006911
810.209	0.003731
819.854	0.003651
829.498	0.003251
839.143	0.002841
848.788	0.002531
858.433	0.003311
868.078	0.005891
877.722	0.008421
887.367	0.007201
897.012	0.004081
906.657	0.002551
916.301	0.001861
925.946	0.001821
935.591	0.001971
945.236	0.002611
954.88	0.003611
964.525	0.007741
974.17	0.012061
983.815	0.012141
993.46	0.009381
1003.1	0.008311
1012.75	0.010911
1022.39	0.022421
1032.04	0.040061
1041.68	0.048391
1051.33	0.037821
1060.97	0.033801
1070.62	0.057361
1080.26	0.125291
1089.91	0.154261
1099.55	0.101251
1109.2	0.027521
1118.84	0.009701
1128.49	0.007411
1138.13	0.008151
1147.78	0.008361
1157.42	0.007901
1167.07	0.009771
1176.71	0.015861
1186.36	0.026761
1196	0.028481
1205.64	0.022201
1215.29	0.019491
1224.93	0.022361
1234.58	0.018571
1244.22	0.012691
1253.87	0.010861
1263.51	0.015381
1273.16	0.018961
1282.8	0.016961
1292.45	0.012531
1302.09	0.012691
1311.74	0.018231
1321.38	0.025021
1331.03	0.024801
1340.67	0.017841
1350.32	0.011971
1359.96	0.013081
1369.61	0.016141
1379.25	0.020681
1388.9	0.020941
1398.54	0.018631
1408.18	0.019691
1417.83	0.036661
1427.47	0.056591
1437.12	0.064751
1446.76	0.059371
1456.41	0.048971
1466.05	0.034961
1475.7	0.021491
1485.34	0.012791
1494.99	0.011391
1504.63	0.011161
1514.28	0.009071
1523.92	0.006921
1533.57	0.006571
1543.21	0.007341
1552.86	0.008971
1562.5	0.011181
1572.15	0.014271
1581.79	0.020751
1591.44	0.036111
1601.08	0.057021
1610.73	0.063401
1620.37	0.047291
1630.01	0.025051
1639.66	0.013221
1649.3	0.007231
1658.95	0.005411
1668.59	0.004691
1678.24	0.004631
1687.88	0.006331
1697.53	0.009901
1707.17	0.013501
1716.82	0.014411
1726.46	0.019551
1736.11	0.053661
1745.75	0.188191
1755.4	0.295171
1765.04	0.241351
1774.69	0.067251
1784.33	0.019801
1793.98	0.012201
1803.62	0.011671
1813.27	0.011401
1822.91	0.006741
1832.55	0.003401
1842.2	0.002381
1851.84	0.002331
1861.49	0.002091
1871.13	0.001971
1880.78	0.002061
1890.42	0.002001
1900.07	0.001811
1909.71	0.001821
1919.36	0.001891
1929	0.001921
1938.65	0.001681
1948.29	0.0013592
1957.94	0.0011984
1967.58	0.0008807
1977.23	0.0007314
1986.87	0.0008194
1996.52	0.0008496
2006.16	0.001053
2015.81	0.001259
2025.45	0.0012042
2035.1	0.0012765
2044.74	0.0012072
2054.38	0.0010414
2064.03	0.0010367
2073.67	0.0008472
2083.32	0.0009822
2092.96	0.0010184
2102.61	0.0010064
2112.25	0.0010835
2121.9	0.0014037
2131.54	0.001621
2141.19	0.001531
2150.83	0.001621
2160.48	0.001711
2170.12	0.001621
2179.77	0.001661
2189.41	0.0013276
2199.06	0.0011043
2208.7	0.0008363
2218.35	0.000733
2227.99	0.0007109
2237.64	0.0006669
2247.28	0.0007991
2256.92	0.0007169
2266.57	0.0005871
2276.21	0.000571
2285.86	0.0007034
2295.5	0.0009073
2305.15	0.0009723
2314.79	0.0011353
2324.44	0.0010319
2334.08	0.0011485
2343.73	0.0010707
2353.37	0.0013502
2363.02	0.001601
2372.66	0.001461
2382.31	0.001451
2391.95	0.001481
2401.6	0.001461
2411.24	0.001491
2420.89	0.0012728
2430.53	0.001279
2440.18	0.0012615
2449.82	0.0012738
2459.47	0.0012112
2469.11	0.0009075
2478.75	0.0009671
2488.4	0.0011276
2498.04	0.0006648
2507.69	0.0008145
2517.33	0.0008854
2526.98	0.0008635
2536.62	0.0010756
2546.27	0.0007881
2555.91	0.0006719
2565.56	0.0007018
2575.2	0.0006653
2584.85	0.000472
2594.49	0.0005737
2604.14	0.0006679
2613.78	0.0007354
2623.43	0.0006715
2633.07	0.0005812
2642.72	0.0009217
2652.36	0.0006185
2662.01	0.0008046
2671.65	0.0005908
2681.29	0.0007384
2690.94	0.0007417
2700.58	0.000817
2710.23	0.0007519
2719.87	0.0007951
2729.52	0.0006275
2739.16	0.0008376
2748.81	0.0008466
2758.45	0.0007379
2768.1	0.0007018
2777.74	0.0009139
2787.39	0.0009384
2797.03	0.0009696
2806.68	0.0013853
2816.32	0.001531
2825.97	0.001581
2835.61	0.001711
2845.26	0.001991
2854.9	0.002191
2864.55	0.002601
2874.19	0.002841
2883.84	0.002521
2893.48	0.002151
2903.12	0.001971
2912.77	0.002061
2922.41	0.003131
2932.06	0.005631
2941.7	0.010041
2951.35	0.011301
2960.99	0.008221
2970.64	0.005001
2980.28	0.005091
2989.93	0.006321
2999.57	0.005761
3009.22	0.005261
3018.86	0.004361
3028.51	0.003161
3038.15	0.002751
3047.8	0.002681
3057.44	0.002031
3067.09	0.001911
3076.73	0.001851
3086.38	0.001621
3096.02	0.001541
3105.67	0.001471
3115.31	0.001481
3124.95	0.0013354
3134.6	0.0009214
3144.24	0.0009858
3153.89	0.0007915
3163.53	0.0009361
3173.18	0.0007475
3182.82	0.0007533
3192.47	0.0008328
3202.11	0.000638
3211.76	0.0006173
3221.4	0.0007313
3231.05	0.0006266
3240.69	0.00045954
3250.34	0.0005391
3259.98	0.00019
3269.63	0.0005454
3279.27	0.0005283
3288.92	0.000424409
3298.56	0.000216
3308.21	0.000178
3317.85	0.0005939
3327.49	0.00050032
3337.14	0.0007
3346.78	0.0006254
3356.43	0.0010644
3366.07	0.0010835
3375.72	0.0005266
3385.36	0.00048733
3395.01	0.0006688
3404.65	0.0003648
3414.3	0.000322
3423.94	0.00045672
3433.59	0.0005736
3443.23	0.0006558
3452.88	0.000527
3462.52	0.0005618
3472.17	0.000862
3481.81	0.001481
3491.46	0.002101
3501.1	0.002331
3510.75	0.001611
3520.39	0.0011374
3530.04	0.001531
3539.68	0.001551
3549.32	0.003571
3558.97	0.015731
3568.61	0.060241
3578.26	0.073831
3587.9	0.044691
3597.55	0.005911
3607.19	0.001681
3616.84	0.0009516
3626.48	0.0008858
3636.13	0.0010965
3645.77	0.0006777
3655.42	0.00048857
3665.06	0.0006431
3674.71	0.00027
3684.35	0.0006472
3694	0.000427075
3703.64	0.00046104
3713.29	0.0005503
3722.93	0.000317
3732.58	0.000196
3742.22	7.9e-05
3751.86	0.0003601
3761.51	0.000391
3771.15	0.0005653
3780.8	0.00044779
3790.44	0.00051891
3800.09	0.000257
3809.73	0.0003469
3819.38	0.000226
3829.02	0.00043686
3838.67	0.0003727
3848.31	0.000308
3857.96	0.00048431
3867.6	0.00041708
3877.25	0.00049038
3886.89	0.0005625
3896.54	0.00048764
3906.18	0.00044525
3915.83	0.00051172
3925.47	0.000219
3935.12	0.0007844
3944.76	0.00047926
3954.41	0.0004033
3964.05	0.0006531
3973.69	0.0003
3983.34	0.00049573
3992.98	0.00041811
