Infrared Spectrum: N,N-DIMETHYL-P-METHYL PHOSPHONAMIDIC ACID, n-PROPYL ESTER
Formula: C6 H16 N O2 P
CAS: 2511-27-5
State: LIQUID
Boiling point: 62.2 C AT 1 mmHg
Class: COBLENTZ
Instrument: Not specified, most likely a prism, grating, or hybrid spectrometer.
Sampling: TRANSMISSION
Path length: FILM
Resolution: 4
MICROMETERS	TRANSMITTANCE
2.033	0.866
2.07274	0.869
2.11247	0.871
2.15221	0.871
2.19194	0.869
2.23168	0.873
2.27141	0.869
2.31115	0.87
2.35088	0.873
2.39062	0.874
2.43035	0.875
2.47009	0.879
2.50982	0.883
2.54956	0.882
2.58929	0.887
2.62903	0.887
2.66876	0.887
2.7085	0.889
2.74823	0.881
2.78797	0.87
2.8277	0.856
2.86744	0.821
2.90717	0.8
2.94691	0.801
2.98664	0.822
3.02638	0.85
3.06611	0.863
3.10585	0.869
3.14558	0.874
3.18532	0.878
3.22505	0.89
3.26479	0.89
3.30452	0.886
3.34426	0.863
3.38399	0.801
3.42373	0.632
3.46346	0.623
3.5032	0.631
3.54293	0.702
3.58267	0.785
3.6224	0.815
3.66214	0.87
3.70187	0.89
3.74161	0.899
3.78134	0.908
3.82108	0.911
3.86081	0.906
3.90055	0.914
3.94028	0.915
3.98002	0.916
4.01975	0.915
4.05949	0.911
4.09923	0.918
4.13896	0.915
4.1787	0.919
4.21843	0.919
4.25817	0.927
4.2979	0.924
4.33764	0.926
4.37737	0.927
4.41711	0.927
4.45684	0.931
4.49658	0.932
4.53631	0.932
4.57605	0.929
4.61578	0.932
4.65552	0.932
4.69525	0.933
4.73499	0.936
4.77472	0.933
4.81446	0.935
4.85419	0.932
4.89393	0.935
4.93366	0.935
4.9734	0.939
5.01313	0.936
5.05287	0.937
5.0926	0.935
5.13234	0.935
5.17207	0.94
5.21181	0.935
5.25154	0.939
5.29128	0.937
5.33101	0.941
5.37075	0.936
5.41048	0.935
5.45022	0.935
5.48995	0.933
5.52969	0.939
5.56942	0.932
5.60916	0.94
5.64889	0.935
5.68863	0.937
5.72836	0.933
5.7681	0.932
5.80783	0.931
5.84757	0.933
5.8873	0.924
5.92704	0.923
5.96677	0.908
6.00651	0.896
6.04624	0.895
6.08598	0.899
6.12572	0.906
6.16545	0.915
6.20519	0.918
6.24492	0.928
6.28466	0.923
6.32439	0.933
6.36413	0.932
6.40386	0.929
6.4436	0.927
6.48333	0.924
6.52307	0.919
6.5628	0.916
6.60254	0.912
6.64227	0.895
6.68201	0.873
6.72174	0.82
6.76148	0.795
6.80121	0.763
6.84095	0.73
6.88068	0.785
6.92042	0.846
6.96015	0.862
6.99989	0.873
7.03962	0.863
7.07936	0.873
7.11909	0.896
7.15883	0.883
7.19856	0.874
7.2383	0.891
7.27803	0.902
7.31777	0.914
7.3575	0.914
7.39724	0.91
7.43697	0.9
7.47671	0.887
7.51644	0.853
7.55618	0.824
7.59591	0.701
7.63565	0.523
7.67538	0.536
7.71512	0.561
7.75485	0.634
7.79459	0.725
7.83432	0.789
7.87406	0.808
7.91379	0.793
7.95353	0.767
7.99326	0.723
8.033	0.582
8.07273	0.381
8.11247	0.286
8.1522	0.297
8.19194	0.377
8.23168	0.49
8.27141	0.586
8.31115	0.688
8.35088	0.751
8.39062	0.749
8.43035	0.752
8.47009	0.783
8.50982	0.82
8.54956	0.848
8.58929	0.858
8.62903	0.861
8.66876	0.857
8.7085	0.862
8.74823	0.874
8.78797	0.881
8.8277	0.883
8.86744	0.885
8.90717	0.879
8.94691	0.882
8.98664	0.881
9.02638	0.87
9.06611	0.865
9.10585	0.854
9.14558	0.848
9.18532	0.842
9.22505	0.817
9.26479	0.766
9.30452	0.628
9.34426	0.524
9.38399	0.492
9.42373	0.545
9.46346	0.616
9.5032	0.631
9.54293	0.597
9.58267	0.553
9.6224	0.587
9.66214	0.615
9.70187	0.585
9.74161	0.508
9.78134	0.504
9.82108	0.54
9.86081	0.554
9.90055	0.524
9.94028	0.459
9.98002	0.376
10.0198	0.301
10.0595	0.286
10.0992	0.252
10.139	0.228
10.1787	0.228
10.2184	0.319
10.2582	0.439
10.2979	0.546
10.3376	0.627
10.3774	0.755
10.4171	0.792
10.4568	0.819
10.4966	0.84
10.5363	0.853
10.576	0.863
10.6158	0.869
10.6555	0.87
10.6953	0.869
10.735	0.853
10.7747	0.836
10.8145	0.789
10.8542	0.738
10.8939	0.675
10.9337	0.627
10.9734	0.564
11.0131	0.5
11.0529	0.494
11.0926	0.531
11.1323	0.564
11.1721	0.616
11.2118	0.667
11.2515	0.681
11.2913	0.686
11.331	0.689
11.3707	0.733
11.4105	0.779
11.4502	0.815
11.49	0.846
11.5297	0.874
11.5694	0.89
11.6092	0.899
11.6489	0.906
11.6886	0.912
11.7284	0.915
11.7681	0.914
11.8078	0.91
11.8476	0.906
11.8873	0.896
11.927	0.89
11.9668	0.879
12.0065	0.873
12.0462	0.859
12.086	0.853
12.1257	0.849
12.1654	0.844
12.2052	0.833
12.2449	0.825
12.2847	0.821
12.3244	0.821
12.3641	0.825
12.4039	0.825
12.4436	0.826
12.4833	0.825
12.5231	0.819
12.5628	0.808
12.6025	0.788
12.6423	0.759
12.682	0.701
12.7217	0.647
12.7615	0.601
12.8012	0.56
12.8409	0.529
12.8807	0.553
12.9204	0.61
12.9602	0.675
12.9999	0.737
13.0396	0.775
13.0794	0.804
13.1191	0.822
13.1588	0.833
13.1986	0.837
13.2383	0.844
13.278	0.85
13.3178	0.856
13.3575	0.862
13.3972	0.862
13.437	0.856
13.4767	0.846
13.5164	0.836
13.5562	0.811
13.5959	0.792
13.6356	0.779
13.6754	0.783
13.7151	0.791
13.7549	0.799
13.7946	0.812
13.8343	0.824
13.8741	0.833
13.9138	0.845
13.9535	0.848
13.9933	0.85
14.033	0.849
14.0727	0.85
14.1125	0.85
14.1522	0.849
14.1919	0.848
14.2317	0.845
14.2714	0.845
14.3111	0.84
14.3509	0.834
14.3906	0.83
14.4304	0.826
14.4701	0.822
14.5098	0.822
14.5496	0.819
14.5893	0.815
14.629	0.807
14.6688	0.801
14.7085	0.797
14.7482	0.792
14.788	0.787
14.8277	0.778
14.8674	0.768
14.9072	0.759
14.9469	0.751
14.9866	0.745
15.0264	0.734
15.0661	0.717
15.1058	0.709
15.1456	0.7
15.1853	0.696
15.2251	0.705
15.2648	0.712
