Infrared Spectrum: N,N-DIMETHYL-P-METHYL PHOSPHONAMIDIC ACID, ISOPROPYL ESTER
Formula: C6 H16 N O2 P
CAS: 2511-07-1
State: LIQUID
Boiling point: 50 C AT 8 mmHg
Class: COBLENTZ
Instrument: Not specified, most likely a prism, grating, or hybrid spectrometer.
Sampling: TRANSMISSION
Path length: FILM
Resolution: 4
MICROMETERS	TRANSMITTANCE
2.007	0.718
2.04673	0.721
2.08647	0.72
2.1262	0.717
2.16594	0.721
2.20567	0.729
2.24541	0.729
2.28514	0.724
2.32488	0.721
2.36461	0.725
2.40435	0.729
2.44408	0.728
2.48382	0.726
2.52355	0.729
2.56329	0.734
2.60302	0.733
2.64276	0.734
2.68249	0.732
2.72223	0.73
2.76196	0.724
2.8017	0.693
2.84143	0.645
2.88117	0.591
2.9209	0.566
2.96064	0.583
3.00037	0.619
3.04011	0.656
3.07984	0.677
3.11958	0.692
3.15931	0.701
3.19905	0.718
3.23878	0.73
3.27852	0.733
3.31825	0.734
3.35799	0.709
3.39772	0.553
3.43746	0.564
3.47719	0.538
3.51692	0.554
3.55666	0.618
3.59639	0.663
3.63613	0.698
3.67586	0.736
3.7156	0.754
3.75533	0.758
3.79507	0.766
3.8348	0.763
3.87454	0.765
3.91427	0.767
3.95401	0.77
3.99374	0.773
4.03348	0.77
4.07321	0.767
4.11295	0.769
4.15268	0.766
4.19242	0.771
4.23215	0.767
4.27189	0.757
4.31162	0.753
4.35136	0.761
4.39109	0.77
4.43083	0.771
4.47056	0.771
4.5103	0.773
4.55003	0.773
4.58977	0.773
4.6295	0.771
4.66924	0.769
4.70897	0.773
4.74871	0.773
4.78844	0.773
4.82818	0.773
4.86791	0.774
4.90765	0.777
4.94738	0.781
4.98711	0.781
5.02685	0.778
5.06658	0.778
5.10632	0.781
5.14605	0.782
5.18579	0.781
5.22552	0.785
5.26526	0.787
5.30499	0.787
5.34473	0.783
5.38446	0.79
5.4242	0.789
5.46393	0.787
5.50367	0.786
5.5434	0.786
5.58314	0.786
5.62287	0.786
5.66261	0.781
5.70234	0.781
5.74208	0.771
5.78181	0.769
5.82155	0.767
5.86128	0.774
5.90102	0.771
5.94075	0.763
5.98049	0.749
6.02022	0.733
6.05996	0.721
6.09969	0.73
6.13943	0.75
6.17916	0.761
6.2189	0.77
6.25863	0.775
6.29837	0.777
6.3381	0.777
6.37784	0.777
6.41757	0.777
6.4573	0.782
6.49704	0.774
6.53677	0.777
6.57651	0.773
6.61624	0.77
6.65598	0.758
6.69571	0.732
6.73545	0.687
6.77518	0.676
6.81492	0.645
6.85465	0.62
6.89439	0.667
6.93412	0.709
6.97386	0.742
7.01359	0.737
7.05333	0.728
7.09306	0.744
7.1328	0.75
7.17253	0.709
7.21227	0.611
7.252	0.64
7.29174	0.624
7.33147	0.71
7.37121	0.726
7.41094	0.726
7.45068	0.729
7.49041	0.725
7.53015	0.709
7.56988	0.649
7.60962	0.521
7.64935	0.428
7.68909	0.469
7.72882	0.48
7.76856	0.564
7.80829	0.645
7.84803	0.701
7.88776	0.712
7.92749	0.709
7.96723	0.681
8.00696	0.604
8.0467	0.486
8.08643	0.35
8.12617	0.238
8.1659	0.226
8.20564	0.242
8.24537	0.323
8.28511	0.411
8.32484	0.51
8.36458	0.575
8.40431	0.595
8.44405	0.592
8.48378	0.576
8.52352	0.619
8.56325	0.672
8.60299	0.694
8.64272	0.701
8.68246	0.701
8.72219	0.676
8.76193	0.635
8.80166	0.681
8.8414	0.692
8.88113	0.681
8.92087	0.661
8.9606	0.618
9.00034	0.539
9.04007	0.549
9.07981	0.645
9.11954	0.712
9.15928	0.734
9.19901	0.745
9.23875	0.745
9.27848	0.73
9.31822	0.708
9.35795	0.669
9.39768	0.687
9.43742	0.705
9.47715	0.713
9.51689	0.72
9.55662	0.718
9.59636	0.712
9.63609	0.704
9.67583	0.684
9.71556	0.667
9.7553	0.641
9.79503	0.607
9.83477	0.563
9.8745	0.485
9.91424	0.36
9.95397	0.258
9.99371	0.193
10.0334	0.156
10.0732	0.128
10.1129	0.12
10.1526	0.111
10.1924	0.102
10.2321	0.099
10.2719	0.139
10.3116	0.228
10.3513	0.35
10.3911	0.423
10.4308	0.519
10.4705	0.602
10.5103	0.637
10.55	0.665
10.5897	0.684
10.6295	0.696
10.6692	0.705
10.7089	0.71
10.7487	0.717
10.7884	0.717
10.8281	0.705
10.8679	0.68
10.9076	0.648
10.9473	0.554
10.9871	0.474
11.0268	0.387
11.0665	0.399
11.1063	0.473
11.146	0.515
11.1858	0.595
11.2255	0.606
11.2652	0.594
11.305	0.582
11.3447	0.591
11.3844	0.631
11.4242	0.675
11.4639	0.708
11.5036	0.738
11.5434	0.753
11.5831	0.765
11.6228	0.769
11.6626	0.777
11.7023	0.779
11.742	0.783
11.7818	0.789
11.8215	0.793
11.8612	0.789
11.901	0.793
11.9407	0.795
11.9805	0.795
12.0202	0.791
12.0599	0.791
12.0997	0.791
12.1394	0.791
12.1791	0.791
12.2189	0.789
12.2586	0.787
12.2983	0.783
12.3381	0.785
12.3778	0.781
12.4175	0.77
12.4573	0.763
12.497	0.75
12.5367	0.72
12.5765	0.681
12.6162	0.633
12.6559	0.568
12.6957	0.518
12.7354	0.458
12.7751	0.421
12.8149	0.415
12.8546	0.458
12.8944	0.518
12.9341	0.598
12.9738	0.668
13.0136	0.701
13.0533	0.725
13.093	0.738
13.1328	0.745
13.1725	0.748
13.2122	0.748
13.252	0.741
13.2917	0.725
13.3314	0.7
13.3712	0.669
13.4109	0.647
13.4506	0.641
13.4904	0.647
13.5301	0.669
13.5698	0.69
13.6096	0.704
13.6493	0.716
13.6891	0.728
13.7288	0.73
13.7685	0.737
13.8083	0.738
13.848	0.74
13.8877	0.74
13.9275	0.738
13.9672	0.734
14.0069	0.736
14.0467	0.736
14.0864	0.736
14.1261	0.73
14.1659	0.73
14.2056	0.728
14.2453	0.725
14.2851	0.721
14.3248	0.717
14.3645	0.716
14.4043	0.713
14.444	0.71
14.4837	0.708
14.5235	0.704
14.5632	0.701
14.603	0.697
14.6427	0.693
14.6824	0.687
14.7222	0.683
14.7619	0.676
14.8016	0.671
14.8414	0.665
14.8811	0.66
14.9208	0.648
14.9606	0.631
15.0003	0.616
15.04	0.604
15.0798	0.599
15.1195	0.592
15.1592	0.591
15.199	0.596
15.2387	0.607
