Infrared Spectrum: N,N-DIMETHYL-P-METHYL PHOSPHONAMIDIC ACID, n-BUTYL ESTER
Formula: C7 H18 N O2 P
CAS: 2511-08-2
State: LIQUID
Boiling point: 63 C AT 5 mmHg
Class: COBLENTZ
Instrument: Not specified, most likely a prism, grating, or hybrid spectrometer.
Sampling: TRANSMISSION
Path length: FILM
Resolution: 4
MICROMETERS	TRANSMITTANCE
2.02	0.883
2.0597	0.886
2.09939	0.89
2.13909	0.892
2.17878	0.89
2.21848	0.888
2.25817	0.86
2.29787	0.851
2.33756	0.862
2.37726	0.867
2.41695	0.876
2.45665	0.872
2.49634	0.874
2.53604	0.882
2.57574	0.89
2.61543	0.891
2.65513	0.894
2.69482	0.898
2.73452	0.887
2.77421	0.847
2.81391	0.768
2.8536	0.678
2.8933	0.671
2.93299	0.713
2.97269	0.774
3.01238	0.838
3.05208	0.854
3.09178	0.86
3.13147	0.863
3.17117	0.866
3.21086	0.864
3.25056	0.858
3.29025	0.838
3.32995	0.736
3.36964	0.452
3.40934	0.173
3.44903	0.125
3.48873	0.152
3.52842	0.252
3.56812	0.46
3.60782	0.536
3.64751	0.778
3.68721	0.827
3.7269	0.87
3.7666	0.901
3.80629	0.905
3.84599	0.911
3.88568	0.909
3.92538	0.915
3.96507	0.921
4.00477	0.921
4.04446	0.925
4.08416	0.92
4.12386	0.925
4.16355	0.928
4.20325	0.933
4.24294	0.94
4.28264	0.947
4.32233	0.948
4.36203	0.944
4.40172	0.932
4.44142	0.933
4.48111	0.931
4.52081	0.924
4.5605	0.923
4.6002	0.921
4.6399	0.924
4.67959	0.927
4.71929	0.924
4.75898	0.921
4.79868	0.919
4.83837	0.927
4.87807	0.932
4.91776	0.935
4.95746	0.936
4.99715	0.931
5.03685	0.928
5.07654	0.92
5.11624	0.919
5.15594	0.932
5.19563	0.944
5.23533	0.941
5.27502	0.936
5.31472	0.941
5.35441	0.932
5.39411	0.935
5.4338	0.932
5.4735	0.931
5.51319	0.923
5.55289	0.925
5.59258	0.921
5.63228	0.916
5.67197	0.913
5.71167	0.919
5.75137	0.924
5.79106	0.929
5.83076	0.921
5.87045	0.913
5.91015	0.904
5.94984	0.879
5.98954	0.834
6.02923	0.819
6.06893	0.819
6.10862	0.847
6.14832	0.876
6.18801	0.88
6.22771	0.892
6.26741	0.887
6.3071	0.89
6.3468	0.884
6.38649	0.886
6.42619	0.878
6.46588	0.875
6.50558	0.863
6.54527	0.855
6.58497	0.833
6.62466	0.809
6.66436	0.659
6.70405	0.505
6.74375	0.439
6.78345	0.368
6.82314	0.278
6.86284	0.317
6.90253	0.531
6.94223	0.609
6.98192	0.627
7.02162	0.617
7.06131	0.642
7.10101	0.743
7.1407	0.743
7.1804	0.674
7.22009	0.626
7.25979	0.762
7.29949	0.797
7.33918	0.805
7.37888	0.79
7.41857	0.764
7.45827	0.712
7.49796	0.65
7.53766	0.519
7.57735	0.335
7.61705	0.172
7.65674	0.079
7.69644	0.087
7.73613	0.116
7.77583	0.245
7.81553	0.394
7.85522	0.452
7.89492	0.441
7.93461	0.417
7.97431	0.308
8.014	0.132
8.0537	0.035
8.09339	0.018
8.13309	0.015
8.17278	0.025
8.21248	0.098
8.25217	0.18
8.29187	0.321
8.33157	0.389
8.37126	0.366
8.41096	0.341
8.45065	0.426
8.49035	0.513
8.53004	0.592
8.56974	0.622
8.60943	0.655
8.64913	0.625
8.68882	0.572
8.72852	0.646
8.76821	0.682
8.80791	0.672
8.84761	0.662
8.8873	0.635
8.927	0.614
8.96669	0.655
9.00639	0.671
9.04608	0.675
9.08578	0.658
9.12547	0.603
9.16517	0.539
9.20486	0.495
9.24456	0.386
9.28425	0.234
9.32395	0.121
9.36365	0.078
9.40334	0.098
9.44304	0.158
9.48273	0.213
9.52243	0.19
9.56212	0.127
9.60182	0.08
9.64151	0.078
9.68121	0.07
9.7209	0.055
9.7606	0.07
9.80029	0.083
9.83999	0.1
9.87969	0.127
9.91938	0.132
9.95908	0.088
9.99877	0.062
10.0385	0.045
10.0782	0.019
10.1179	0.015
10.1576	0.015
10.1972	0.021
10.2369	0.021
10.2766	0.025
10.3163	0.05
10.356	0.135
10.3957	0.182
10.4354	0.218
10.4751	0.287
10.5148	0.354
10.5545	0.439
10.5942	0.507
10.6339	0.56
10.6736	0.564
10.7133	0.55
10.753	0.496
10.7927	0.393
10.8324	0.288
10.8721	0.182
10.9118	0.1
10.9515	0.071
10.9912	0.066
11.0309	0.079
11.0705	0.099
11.1102	0.132
11.1499	0.182
11.1896	0.233
11.2293	0.258
11.269	0.25
11.3087	0.241
11.3484	0.279
11.3881	0.373
11.4278	0.47
11.4675	0.569
11.5072	0.663
11.5469	0.739
11.5866	0.768
11.6263	0.79
11.666	0.806
11.7057	0.817
11.7454	0.831
11.7851	0.839
11.8248	0.841
11.8645	0.837
11.9041	0.818
11.9438	0.794
11.9835	0.753
12.0232	0.739
12.0629	0.732
12.1026	0.705
12.1423	0.662
12.182	0.639
12.2217	0.564
12.2614	0.54
12.3011	0.516
12.3408	0.512
12.3805	0.513
12.4202	0.501
12.4599	0.47
12.4996	0.414
12.5393	0.366
12.579	0.317
12.6187	0.266
12.6584	0.215
12.6981	0.186
12.7378	0.174
12.7774	0.158
12.8171	0.144
12.8568	0.128
12.8965	0.125
12.9362	0.139
12.9759	0.169
13.0156	0.234
13.0553	0.313
13.095	0.369
13.1347	0.445
13.1744	0.512
13.2141	0.573
13.2538	0.621
13.2935	0.645
13.3332	0.658
13.3729	0.668
13.4126	0.674
13.4523	0.675
13.492	0.659
13.5317	0.646
13.5714	0.637
13.6111	0.627
13.6507	0.602
13.6904	0.577
13.7301	0.552
13.7698	0.507
13.8095	0.513
13.8492	0.539
13.8889	0.593
13.9286	0.633
13.9683	0.69
14.008	0.736
14.0477	0.753
14.0874	0.765
14.1271	0.778
14.1668	0.793
14.2065	0.796
14.2462	0.8
14.2859	0.801
14.3256	0.805
14.3653	0.798
14.405	0.798
14.4447	0.796
14.4843	0.793
14.524	0.786
14.5637	0.778
14.6034	0.773
14.6431	0.766
14.6828	0.757
14.7225	0.752
14.7622	0.741
14.8019	0.728
14.8416	0.711
14.8813	0.696
14.921	0.662
14.9607	0.634
15.0004	0.588
15.0401	0.523
15.0798	0.48
15.1195	0.466
15.1592	0.498
15.1989	0.529
15.2386	0.572
15.2783	0.593
15.318	0.617
