Infrared Spectrum: 1-(Phenylethynyl)-1-cyclopentanol
Formula: C 13 H 14 O
CAS: 25118-60-9
State: gas
Instrument: HP-GC/MS/IRD
Origin: NIST Mass Spectrometry Data Center
1/CM	ABSORBANCE
550	0.0017176
562	0.0004446
574	0.0006118
586	0.0011267
598	0.0009519
610	0.0004009
622	0.0001577
634	3.8e-06
646	0.0001216
658	0.0005928
670	0.0019038
682	0.0037468
694	0.00418
706	0.002394
718	0.0010716
730	0.0017955
742	0.0047519
754	0.0071611
766	0.0042978
778	0.0012331
790	0.0004522
802	0.0003933
814	0.0003515
826	0.0003173
838	0.0002166
850	0.000247
862	0.0003002
874	0.0006612
886	0.0009405
898	0.0013889
910	0.0014744
922	0.0010089
934	0.0008968
946	0.0011875
958	0.0012369
970	0.0019057
982	0.0043491
994	0.00722
1006	0.005605
1018	0.0036974
1030	0.003667
1042	0.0037145
1054	0.0049191
1066	0.0050103
1078	0.0035872
1090	0.0022933
1102	0.0015219
1114	0.0010165
1126	0.0008949
1138	0.0010412
1150	0.0013889
1162	0.0019152
1174	0.0026467
1186	0.0037563
1198	0.0043776
1210	0.0024966
1222	0.0019494
1234	0.0019817
1246	0.0021888
1258	0.0028405
1270	0.0037981
1282	0.0046664
1294	0.0058254
1306	0.0058843
1318	0.0039843
1330	0.0038608
1342	0.0062073
1354	0.0078736
1366	0.0054264
1378	0.0026809
1390	0.0014573
1402	0.0009386
1414	0.0008607
1426	0.0011913
1438	0.0021299
1450	0.002166
1462	0.0016207
1474	0.0024681
1486	0.0055233
1498	0.0047804
1510	0.0016777
1522	0.0007866
1534	0.0004161
1546	0.000361
1558	0.0004598
1570	0.0005453
1582	0.0011552
1594	0.0028025
1606	0.002033
1618	0.0003933
1630	0.0001007
1642	6.27e-05
1654	0.0002907
1666	0.0003116
1678	4.94e-05
1690	1.52e-05
1702	0.000114
1714	0.0001216
1726	0.0001349
1738	0.0002432
1750	0.0002831
1762	0.0001824
1774	0.0001596
1786	0.0002983
1798	0.0004294
1810	0.0002052
1822	0.0001957
1834	7.41e-05
1846	0.0001254
1858	0.0001539
1870	0.0003002
1882	0.0004313
1894	0.0002926
1906	8.36e-05
1918	0.0001501
1930	0.0002451
1942	0.0003895
1954	0.0005111
1966	0.0002052
1978	4.94e-05
1990	5.13e-05
2002	3.42e-05
2014	0
2026	9.5e-06
2038	2.47e-05
2050	2.09e-05
2062	3.42e-05
2074	3.8e-05
2086	2.28e-05
2098	4.75e-05
2110	2.85e-05
2122	3.8e-05
2134	6.27e-05
2146	6.08e-05
2158	7.98e-05
2170	8.93e-05
2182	0.0001026
2194	0.0001216
2206	0.0002147
2218	0.0002736
2230	0.0002242
2242	0.0001824
2254	0.0001748
2266	0.0001406
2278	0.0001273
2290	9.88e-05
2302	0.0001083
2314	0.0002185
2326	0.0002033
2338	0.0002071
2350	0.0001748
2362	0.0001881
2374	0.0001216
2386	7.98e-05
2398	4.18e-05
2410	2.09e-05
2422	2.85e-05
2434	1.14e-05
2446	0
2458	2.09e-05
2470	1.52e-05
2482	4.37e-05
2494	2.66e-05
2506	3.61e-05
2518	4.37e-05
2530	1.9e-05
2542	3.42e-05
2554	3.42e-05
2566	4.18e-05
2578	4.75e-05
2590	3.04e-05
2602	5.89e-05
2614	6.08e-05
2626	4.75e-05
2638	7.41e-05
2650	2.28e-05
2662	2.47e-05
2674	5.13e-05
2686	6.27e-05
2698	7.79e-05
2710	6.84e-05
2722	0.0001102
2734	9.12e-05
2746	9.12e-05
2758	0.0001064
2770	0.0001463
2782	0.0001767
2794	0.000228
2806	0.0002698
2818	0.0003952
2830	0.0006061
2842	0.0010222
2854	0.0019285
2866	0.0030229
2878	0.0046987
2890	0.0049476
2902	0.0040679
2914	0.0046607
2926	0.0062301
2938	0.0090497
2950	0.0118465
2962	0.0149625
2974	0.019
2986	0.0102866
2998	0.0043111
3010	0.0026885
3022	0.0023883
3034	0.0029716
3046	0.0025821
3058	0.0036328
3070	0.0056905
3082	0.0037658
3094	0.0031084
3106	0.001938
3118	0.000703
3130	0.0003021
3142	0.0002698
3154	0.0002014
3166	8.93e-05
3178	8.36e-05
3190	0.0001007
3202	5.13e-05
3214	0.0001254
3226	8.36e-05
3238	4.94e-05
3250	5.89e-05
3262	5.32e-05
3274	6.84e-05
3286	6.08e-05
3298	6.46e-05
3310	5.89e-05
3322	0
3334	0.0001026
3346	8.74e-05
3358	0.0001273
3370	3.61e-05
3382	0.0001102
3394	0.0001083
3406	8.74e-05
3418	6.84e-05
3430	8.17e-05
3442	4.75e-05
3454	8.55e-05
3466	0.000133
3478	0.0001444
3490	0.0001083
3502	0.0001444
3514	0.0001064
3526	0.0001254
3538	0.0001273
3550	5.13e-05
3562	0.0001387
3574	9.31e-05
3586	0.0001729
3598	0.0001824
3610	0.0003287
3622	0.0008493
3634	0.0024681
3646	0.0026296
3658	0.00095
3670	0.000342
3682	0.0001463
3694	8.93e-05
3706	8.93e-05
3718	9.12e-05
3730	0.0001653
3742	0.0001862
3754	8.93e-05
3766	9.5e-06
3778	4.37e-05
3790	3.99e-05
3802	0.0001026
3814	3.99e-05
3826	6.46e-05
3838	7.6e-05
