Infrared Spectrum: SALICYLIC ACID, P-OCTYLPHENYL ESTER
Formula: C21 H26 O3
CAS: 2512-56-3
State: SOLID (1.13% IN KBr DISC)
Class: COBLENTZ
Instrument: PERKIN-ELMER (GRATING)
Sampling: TRANSMISSION
Path length: 0.040 CM
Resolution: 4
Origin: US INDUSTRIAL CHEMICALS COMPANY, CINCINNATI, OHIO
1/CM	TRANSMITTANCE
621.443	0.766
630.735	0.76
640.027	0.753
649.318	0.706
658.61	0.489
667.902	0.711
677.194	0.701
686.485	0.5771
695.777	0.3533
705.069	0.4071
714.361	0.309
723.652	0.337
732.944	0.451
742.236	0.638
751.528	0.3691
760.819	0.101
770.111	0.75
779.403	0.751
788.695	0.6651
797.986	0.4762
807.278	0.597
816.57	0.548
825.862	0.722
835.154	0.77
844.445	0.765
853.737	0.736
863.029	0.662
872.321	0.702
881.612	0.4452
890.904	0.7499
900.196	0.778
909.488	0.768
918.779	0.741
928.071	0.768
937.363	0.746
946.655	0.714
955.946	0.766
965.238	0.765
974.53	0.744
983.822	0.778
993.114	0.773
1002.41	0.736
1011.7	0.488
1020.99	0.6359
1030.28	0.623
1039.57	0.746
1048.86	0.726
1058.16	0.5721
1067.45	0.042
1076.74	0.739
1086.03	0.741
1095.32	0.663
1104.61	0.667
1113.91	0.685
1123.2	0.576
1132.49	0.347
1141.78	0.636
1151.07	0.4961
1160.37	0.1789
1169.66	0.04
1178.95	0.18
1188.24	0.143
1197.53	0
1206.82	0.023
1216.12	0.292
1225.41	0.376
1234.7	0.373
1243.99	0.0971
1253.28	0.1578
1262.57	0.603
1271.87	0.591
1281.16	0.31
1290.45	0.246
1299.74	0
1309.03	0.336
1318.33	0.243
1327.62	0.222
1336.91	0.2479
1346.2	0.319
1355.49	0.418
1364.78	0.2412
1374.08	0.555
1383.37	0.494
1392.66	0.437
1401.95	0.435
1411.24	0.459
1420.53	0.533
1429.83	0.562
1439.12	0.576
1448.41	0.53
1457.7	0.32
1466.99	0.19
1476.29	0.148
1485.58	0.261
1494.87	0.39
1504.16	0.258
1513.45	0.5819
1522.74	0.734
1532.04	0.739
1541.33	0.739
1550.62	0.731
1559.91	0.716
1569.2	0.673
1578.49	0.425
1587.79	0.516
1597.08	0.53
1606.37	0.464
1615.66	0.4839
1624.95	0.653
1634.25	0.638
1643.54	0.562
1652.83	0.481
1662.12	0.347
1671.41	0.07
1680.7	0.07
1690	0.125
1699.29	0.542
1708.58	0.709
1717.87	0.758
1727.16	0.778
1736.45	0.798
1745.75	0.805
1755.04	0.807
1764.33	0.807
1773.62	0.817
1782.91	0.82
1792.21	0.82
1801.5	0.82
1810.79	0.82
1820.08	0.836
1829.37	0.836
1838.66	0.831
1847.96	0.836
1857.25	0.836
1866.54	0.832
1875.83	0.832
1885.12	0.824
1894.41	0.817
1903.71	0.819
1913	0.824
1922.29	0.824
1931.58	0.829
1940.87	0.829
1950.17	0.826
1959.46	0.836
1968.75	0.837
1978.04	0.837
1987.33	0.834
1996.62	0.834
2005.92	0.8385
2015.21	0.84
2024.5	0.841
2033.79	0.842
2043.08	0.842
2052.37	0.844
2061.67	0.844
2070.96	0.844
2080.25	0.844
2089.54	0.844
2098.83	0.844
2108.13	0.844
2117.42	0.846
2126.71	0.847
2136	0.8472
2145.29	0.849
2154.58	0.849
2163.88	0.849
2173.17	0.849
2182.46	0.849
2191.75	0.849
2201.04	0.849
2210.33	0.8489
2219.63	0.847
2228.92	0.846
2238.21	0.846
2247.5	0.846
2256.79	0.846
2266.09	0.846
2275.38	0.846
2284.67	0.8441
2293.96	0.844
2303.25	0.844
2312.54	0.842
2321.84	0.842
2331.13	0.842
2340.42	0.842
2349.71	0.842
2359	0.842
2368.29	0.842
2377.59	0.842
2386.88	0.8442
2396.17	0.846
2405.46	0.846
2414.75	0.846
2424.05	0.846
2433.34	0.846
2442.63	0.844
2451.92	0.842
2461.21	0.841
2470.5	0.841
2479.8	0.841
2489.09	0.839
2498.38	0.839
2507.67	0.839
2516.96	0.839
2526.25	0.8368
2535.55	0.836
2544.84	0.8345
2554.13	0.834
2563.42	0.834
2572.71	0.834
2582	0.8326
2591.3	0.8316
2600.59	0.829
2609.88	0.8272
2619.17	0.8263
2628.46	0.824
2637.76	0.824
2647.05	0.824
2656.34	0.8228
2665.63	0.822
2674.92	0.82
2684.21	0.82
2693.51	0.8194
2702.8	0.819
2712.09	0.817
2721.38	0.815
2730.67	0.815
2739.96	0.814
2749.26	0.812
2758.55	0.8092
2767.84	0.8035
2777.13	0.7993
2786.42	0.792
2795.72	0.7878
2805.01	0.7751
2814.3	0.7593
2823.59	0.7296
2832.88	0.7035
2842.17	0.6615
2851.47	0.5865
2860.76	0.4098
2870.05	0.3817
2879.34	0.3751
2888.63	0.3507
2897.92	0.3624
2907.22	0.4
2916.51	0.3869
2925.8	0.2979
2935.09	0.2462
2944.38	0.1188
2953.68	0.0933
2962.97	0.1956
2972.26	0.3209
2981.55	0.4853
2990.84	0.6225
3000.13	0.7061
3009.43	0.7155
3018.72	0.719
3028.01	0.717
3037.3	0.714
3046.59	0.7045
3055.88	0.6936
3065.18	0.6766
3074.47	0.675
3083.76	0.68
3093.05	0.6626
3102.34	0.644
3111.64	0.612
3120.93	0.5843
3130.22	0.5495
3139.51	0.5346
3148.8	0.53
3158.09	0.532
3167.39	0.5363
3176.68	0.5234
3185.97	0.4891
3195.26	0.479
3204.55	0.4797
3213.84	0.5017
3223.14	0.5373
3232.43	0.5835
3241.72	0.6226
3251.01	0.6553
3260.3	0.6801
3269.6	0.6992
3278.89	0.7181
3288.18	0.731
3297.47	0.7442
3306.76	0.7565
3316.05	0.7652
3325.35	0.771
3334.64	0.775
3343.93	0.7774
3353.22	0.7804
3362.51	0.7849
3371.8	0.788
3381.1	0.7888
3390.39	0.79
3399.68	0.79
3408.97	0.788
3418.26	0.788
3427.56	0.7883
3436.85	0.79
3446.14	0.7942
3455.43	0.798
3464.72	0.8022
3474.01	0.8048
3483.31	0.8107
3492.6	0.814
3501.89	0.8152
3511.18	0.8236
3520.47	0.8265
3529.76	0.829
3539.06	0.831
3548.35	0.837
3557.64	0.8415
3566.93	0.8462
3576.22	0.851
3585.52	0.8537
3594.81	0.859
3604.1	0.859
3613.39	0.859
3622.68	0.861
3631.97	0.861
3641.27	0.861
3650.56	0.8628
3659.85	0.863
3669.14	0.8622
3678.43	0.861
3687.72	0.861
3697.02	0.8602
3706.31	0.861
3715.6	0.8612
3724.89	0.863
3734.18	0.863
3743.48	0.863
3752.77	0.863
3762.06	0.863
3771.35	0.8619
3780.64	0.861
3789.93	0.861
3799.23	0.861
3808.52	0.861
3817.81	0.859
3827.1	0.859
3836.39	0.859
3845.68	0.859
3854.98	0.859
3864.27	0.859
3873.56	0.859
3882.85	0.859
3892.14	0.859
3901.44	0.859
3910.73	0.861
3920.02	0.861
3929.31	0.863
3938.6	0.863
3947.89	0.863
3957.19	0.8623
3966.48	0.8608
3975.77	0.859
3985.06	0.859
3994.35	0.8596
